
  -OEChem-04052317193D

 82 90  0     1  0  0  0  0  0999 V2000
  -30.1464  -12.3148   19.0868 C   0  0  0  0  0  0  0  0  0  0  0  0
  -29.9601  -13.6323   18.6808 C   0  0  0  0  0  0  0  0  0  0  0  0
  -20.1386  -27.4875   23.9075 C   0  0  0  0  0  0  0  0  0  0  0  0
  -20.2595  -28.1678   21.5924 C   0  0  0  0  0  0  0  0  0  0  0  0
  -29.2274  -11.7150   19.9469 C   0  0  0  0  0  0  0  0  0  0  0  0
  -28.8540  -14.3505   19.1337 C   0  0  0  0  0  0  0  0  0  0  0  0
  -30.0570  -19.0417   20.6139 C   0  0  0  0  0  0  0  0  0  0  0  0
  -18.7550  -27.6628   23.8868 C   0  0  0  0  0  0  0  0  0  0  0  0
  -18.8759  -28.3430   21.5716 C   0  0  0  0  0  0  0  0  0  0  0  0
  -30.2565  -19.9931   19.6146 C   0  0  0  0  0  0  0  0  0  0  0  0
  -16.0458  -25.9692   22.7801 C   0  0  0  0  0  0  0  0  0  0  0  0
  -15.2575  -24.9730   23.3560 C   0  0  0  0  0  0  0  0  0  0  0  0
  -28.0303  -20.8438   19.9884 C   0  0  0  0  0  0  0  0  0  0  0  0
  -14.3588  -26.5853   24.9148 C   0  0  0  0  0  0  0  0  0  0  0  0
  -28.6398  -26.0370   19.4219 C   0  0  0  0  0  0  0  0  0  0  0  0
  -20.8909  -27.7400   22.7603 C   0  0  0  0  0  0  0  0  0  0  0  0
  -23.0336  -26.3857   22.4733 C   0  0  0  0  0  0  0  0  0  0  0  0
  -28.1146  -12.4293   20.4182 C   0  0  0  0  0  0  0  0  0  0  0  0
  -28.8366  -18.9769   21.3016 C   0  0  0  0  0  0  0  0  0  0  0  0
  -27.9185  -13.7593   19.9998 C   0  0  0  0  0  0  0  0  0  0  0  0
  -27.8188  -19.8922   20.9978 C   0  0  0  0  0  0  0  0  0  0  0  0
  -18.1236  -28.0906   22.7189 C   0  0  0  0  0  0  0  0  0  0  0  0
  -29.2421  -20.8925   19.2997 C   0  0  0  0  0  0  0  0  0  0  0  0
  -15.9908  -27.2735   23.2716 C   0  0  0  0  0  0  0  0  0  0  0  0
  -14.4140  -25.2810   24.4233 C   0  0  0  0  0  0  0  0  0  0  0  0
  -15.1472  -27.5815   24.3389 C   0  0  0  0  0  0  0  0  0  0  0  0
  -22.3203  -27.5597   22.7812 C   0  0  0  0  0  0  0  0  0  0  0  0
  -29.8536  -25.9548   20.1301 C   0  0  0  0  0  0  0  0  0  0  0  0
  -28.8102  -25.1956   18.3497 C   0  0  0  0  0  0  0  0  0  0  0  0
  -24.3522  -26.7307   22.6427 C   0  0  0  0  0  0  0  0  0  0  0  0
  -22.5477  -25.0984   22.0702 C   0  0  0  0  0  0  0  0  0  0  0  0
  -26.5551  -16.7869   21.6209 C   0  0  0  0  0  0  0  0  0  0  0  0
  -25.3507  -18.9157   23.7516 C   0  0  0  0  0  0  0  0  0  0  0  0
  -25.1618  -22.1500   24.8241 C   0  0  0  0  0  0  0  0  0  0  0  0
  -28.5791  -30.3030   21.9235 C   0  0  0  0  0  0  0  0  0  0  0  0
  -27.1231  -11.7235   21.3089 C   0  0  0  0  0  0  0  0  0  0  0  0
  -28.6468  -17.9620   22.3954 C   0  0  0  0  0  0  0  0  0  0  0  0
  -26.4975  -19.8777   21.7206 C   0  0  0  0  0  0  0  0  0  0  0  0
  -26.1783  -12.6731   22.0410 C   0  0  0  0  0  0  0  0  0  0  0  0
  -26.4384  -30.8460   24.7162 C   0  0  0  0  0  0  0  0  0  0  0  0
  -25.6212  -13.7182   21.0797 C   0  0  0  0  0  0  0  0  0  0  0  0
  -25.2330  -29.9477   24.4331 C   0  0  0  0  0  0  0  0  0  0  0  0
  -26.9958  -31.4626   23.4352 C   0  0  0  0  0  0  0  0  0  0  0  0
  -26.1158  -29.5953   22.0889 C   0  0  0  0  0  0  0  0  0  0  0  0
  -26.7444  -14.5791   20.4892 C   0  0  1  0  0  0  0  0  0  0  0  0
  -27.1793  -17.6544   22.6770 C   0  0  1  0  0  0  0  0  0  0  0  0
  -25.5532  -28.9063   23.3440 C   0  0  2  0  0  0  0  0  0  0  0  0
  -27.9049  -24.8454   17.2400 C   0  0  0  0  0  0  0  0  0  0  0  0
  -24.0681  -23.5868   26.5668 C   0  0  0  0  0  0  0  0  0  0  0  0
  -22.7233  -18.7865   22.2056 C   0  0  0  0  0  0  0  0  0  0  0  0
  -22.0144  -20.8854   23.3719 C   0  0  0  0  0  0  0  0  0  0  0  0
  -22.4694  -18.8191   24.6933 C   0  0  0  0  0  0  0  0  0  0  0  0
  -27.7716  -22.9607   25.9600 C   0  0  0  0  0  0  0  0  0  0  0  0
  -30.2187  -26.6607   21.3699 C   0  0  0  0  0  0  0  0  0  0  0  0
  -30.8926  -28.0409   21.1658 C   0  0  0  0  0  0  0  0  0  0  0  0
  -30.7418  -23.6984   17.5499 C   0  0  0  0  0  0  0  0  0  0  0  0
  -30.0460  -29.0353   20.3742 C   0  0  0  0  0  0  0  0  0  0  0  0
  -30.7684  -22.2854   18.1223 C   0  0  0  0  0  0  0  0  0  1  0  0
  -24.4030  -20.0881   23.6721 C   0  0  1  0  0  0  0  0  0  0  0  0
  -25.2941  -22.7620   26.2070 C   0  0  2  0  0  0  0  0  0  0  0  0
  -22.9266  -19.6441   23.4706 C   0  0  0  0  0  0  0  0  0  0  0  0
  -23.1195  -28.5746   23.1207 N   0  0  0  0  0  0  0  0  0  0  0  0
  -30.7303  -25.1264   19.5564 N   0  0  0  0  0  0  0  0  0  0  0  0
  -30.0667  -24.6804   18.4763 N   0  0  0  0  0  0  0  0  0  0  0  0
  -24.3487  -28.0393   23.0271 N   0  0  0  0  0  0  0  0  0  0  0  0
  -26.3579  -18.8624   22.7776 N   0  0  0  0  0  0  0  0  0  0  0  0
  -27.2799  -30.4219   22.4441 N   0  0  0  0  0  0  0  0  0  0  0  0
  -25.5028  -26.0394   22.4989 N   0  0  0  0  0  0  0  0  0  0  0  0
  -21.1637  -24.9158   21.9451 N   0  0  0  0  0  0  0  0  0  0  0  0
  -27.1826  -15.5674   21.4513 N   0  0  0  0  0  0  0  0  0  0  0  0
  -24.6300  -20.8789   24.8769 N   0  0  0  0  0  0  0  0  0  0  0  0
  -28.7641  -29.2867   20.9942 N   0  0  0  0  0  0  0  0  0  0  0  0
  -26.4911  -23.6475   26.2692 N   0  3  0  0  0  0  0  0  0  0  0  0
  -23.3171  -24.1339   21.8440 O   0  0  0  0  0  0  0  0  0  0  0  0
  -25.5758  -17.1931   21.0064 O   0  0  0  0  0  0  0  0  0  0  0  0
  -25.2071  -18.0818   24.6491 O   0  0  0  0  0  0  0  0  0  0  0  0
  -25.4933  -22.7418   23.7993 O   0  0  0  0  0  0  0  0  0  0  0  0
  -29.5068  -31.0442   22.2657 O   0  0  0  0  0  0  0  0  0  0  0  0
  -16.7735  -28.2615   22.6982 O   0  0  0  0  0  0  0  0  0  0  0  0
  -29.4340  -21.8218   18.3242 O   0  0  0  0  0  0  0  0  0  1  0  0
  -13.6558  -24.3246   24.9753 F   0  0  0  0  0  0  0  0  0  0  0  0
  -15.0891  -28.8330   24.8146 F   0  0  0  0  0  0  0  0  0  0  0  0
  1  2  1  0  0  0  0
  1  5  2  0  0  0  0
  2  6  2  0  0  0  0
  3  8  2  0  0  0  0
  3 16  1  0  0  0  0
  4  9  1  0  0  0  0
  4 16  2  0  0  0  0
  5 18  1  0  0  0  0
  6 20  1  0  0  0  0
  7 10  2  0  0  0  0
  7 19  1  0  0  0  0
  8 22  1  0  0  0  0
  9 22  2  0  0  0  0
 10 23  1  0  0  0  0
 11 12  2  0  0  0  0
 11 24  1  0  0  0  0
 12 25  1  0  0  0  0
 13 21  1  0  0  0  0
 13 23  2  0  0  0  0
 14 25  2  0  0  0  0
 14 26  1  0  0  0  0
 15 28  1  0  0  0  0
 15 29  2  0  0  0  0
 16 27  1  0  0  0  0
 17 27  1  0  0  0  0
 17 30  2  0  0  0  0
 17 31  1  0  0  0  0
 18 20  2  0  0  0  0
 18 36  1  0  0  0  0
 19 21  2  0  0  0  0
 19 37  1  0  0  0  0
 20 45  1  0  0  0  0
 21 38  1  0  0  0  0
 22 79  1  0  0  0  0
 23 80  1  0  0  0  0
 24 26  2  0  0  0  0
 24 79  1  0  0  0  0
 25 81  1  0  0  0  0
 26 82  1  0  0  0  0
 27 62  2  0  0  0  0
 28 54  1  0  0  0  0
 28 63  2  0  0  0  0
 29 48  1  0  0  0  0
 29 64  1  0  0  0  0
 30 65  1  0  0  0  0
 30 68  1  0  0  0  0
 31 69  1  0  0  0  0
 31 74  2  0  0  0  0
 32 46  1  0  0  0  0
 32 70  1  0  0  0  0
 32 75  2  0  0  0  0
 33 59  1  0  0  0  0
 33 66  1  0  0  0  0
 33 76  2  0  0  0  0
 34 60  1  0  0  0  0
 34 71  1  0  0  0  0
 34 77  2  0  0  0  0
 35 67  1  0  0  0  0
 35 72  1  0  0  0  0
 35 78  2  0  0  0  0
 36 39  1  0  0  0  0
 37 46  1  0  0  0  0
 38 66  1  0  0  0  0
 39 41  1  0  0  0  0
 40 42  1  0  0  0  0
 40 43  1  0  0  0  0
 41 45  1  0  0  0  0
 42 47  1  0  0  0  0
 43 67  1  0  0  0  0
 44 47  1  0  0  0  0
 44 67  1  0  0  0  0
 45 70  1  0  0  0  0
 46 66  1  0  0  0  0
 47 65  1  0  0  0  0
 49 60  1  0  0  0  0
 50 61  1  0  0  0  0
 51 61  1  0  0  0  0
 52 61  1  0  0  0  0
 53 73  1  0  0  0  0
 54 55  1  0  0  0  0
 55 57  1  0  0  0  0
 56 58  1  0  0  0  0
 56 64  1  0  0  0  0
 57 72  1  0  0  0  0
 58 80  1  0  0  0  0
 59 61  1  0  0  0  0
 59 71  1  0  0  0  0
 60 73  1  0  0  0  0
 62 65  1  0  0  0  0
 63 64  1  0  0  0  0
M  CHG  1  73   1
M  ISO  4  35 100  58 101  72 100  80 101
M  END
> <Batch ID>
0045

> <Smiles>
CNC(C)C(=O)NC(C(=O)N1Cc2cc([101O:1][101CH2:1]Cn3nc(CCC[100NH:0][100C:0](=O)N4CCCC(n5nc(-c6ccc(Oc7ccc(F)cc7F)cc6)c(C(N)=O)c5N)C4)cc3C)ccc2CC1C(=O)NC1CCCc2ccccc21)C(C)(C)C

> <Shape>
0.230

> <Color>
0.075

> <Negative vol penalty>
0.000

$$$$

  -OEChem-04052317193D

 88 96  0     1  0  0  0  0  0999 V2000
  -27.2137  -37.3626   18.8633 C   0  0  0  0  0  0  0  0  0  0  0  0
  -27.8053  -36.1048   18.8041 C   0  0  0  0  0  0  0  0  0  0  0  0
  -23.4972   -9.8274   19.8901 C   0  0  0  0  0  0  0  0  0  0  0  0
  -24.2854   -9.8939   22.1730 C   0  0  0  0  0  0  0  0  0  0  0  0
  -26.2572  -37.6365   19.8400 C   0  0  0  0  0  0  0  0  0  0  0  0
  -27.4414  -35.1205   19.7223 C   0  0  0  0  0  0  0  0  0  0  0  0
  -27.0656  -29.0934   18.7030 C   0  0  0  0  0  0  0  0  0  0  0  0
  -22.9730   -8.5534   20.1082 C   0  0  0  0  0  0  0  0  0  0  0  0
  -23.7611   -8.6198   22.3911 C   0  0  0  0  0  0  0  0  0  0  0  0
  -27.9418  -28.0413   18.9657 C   0  0  0  0  0  0  0  0  0  0  0  0
  -20.7356   -7.2446   23.0040 C   0  0  0  0  0  0  0  0  0  0  0  0
  -20.0189   -7.0333   24.1818 C   0  0  0  0  0  0  0  0  0  0  0  0
  -26.7657  -27.5829   21.0214 C   0  0  0  0  0  0  0  0  0  0  0  0
  -21.5956   -5.3229   24.8344 C   0  0  0  0  0  0  0  0  0  0  0  0
  -24.1535  -10.4977   20.9225 C   0  0  0  0  0  0  0  0  0  0  0  0
  -24.0426  -13.0460   20.8876 C   0  0  0  0  0  0  0  0  0  0  0  0
  -25.8743  -36.6520   20.7646 C   0  0  0  0  0  0  0  0  0  0  0  0
  -26.0378  -29.4057   19.6045 C   0  0  0  0  0  0  0  0  0  0  0  0
  -26.4798  -35.3819   20.7131 C   0  0  0  0  0  0  0  0  0  0  0  0
  -25.8762  -28.6379   20.7666 C   0  0  0  0  0  0  0  0  0  0  0  0
  -23.1049   -7.9496   21.3587 C   0  0  0  0  0  0  0  0  0  0  0  0
  -27.7937  -27.2877   20.1264 C   0  0  0  0  0  0  0  0  0  0  0  0
  -21.8823   -6.4950   22.7413 C   0  0  0  0  0  0  0  0  0  0  0  0
  -20.4489   -6.0725   25.0970 C   0  0  0  0  0  0  0  0  0  0  0  0
  -22.3123   -5.5342   23.6565 C   0  0  0  0  0  0  0  0  0  0  0  0
  -24.6958  -11.8135   20.6977 C   0  0  0  0  0  0  0  0  0  0  0  0
  -31.4194  -23.7318   22.6954 C   0  0  0  0  0  0  0  0  0  0  0  0
  -31.3705  -22.5849   21.9341 C   0  0  0  0  0  0  0  0  0  0  0  0
  -29.4419  -23.3206   20.9497 C   0  0  0  0  0  0  0  0  0  0  0  0
  -29.4905  -24.4672   21.7116 C   0  0  0  0  0  0  0  0  0  0  0  0
  -24.9787  -13.9882   20.5378 C   0  0  0  0  0  0  0  0  0  0  0  0
  -22.7088  -13.3151   21.3398 C   0  0  0  0  0  0  0  0  0  0  0  0
  -25.2952  -31.9438   21.3681 C   0  0  0  0  0  0  0  0  0  0  0  0
  -30.1261  -15.9010   20.8890 C   0  0  0  0  0  0  0  0  0  0  0  0
  -22.6304  -30.2171   22.0312 C   0  0  0  0  0  0  0  0  0  0  0  0
  -21.1382  -27.1545   22.2326 C   0  0  0  0  0  0  0  0  0  0  0  0
  -24.8705  -37.0096   21.8319 C   0  0  0  0  0  0  0  0  0  0  0  0
  -25.0845  -30.5268   19.2935 C   0  0  0  0  0  0  0  0  0  0  0  0
  -24.7765  -28.9195   21.7565 C   0  0  0  0  0  0  0  0  0  0  0  0
  -24.2676  -35.7947   22.5326 C   0  0  0  0  0  0  0  0  0  0  0  0
  -29.4483  -13.5072   18.2362 C   0  0  0  0  0  0  0  0  0  0  0  0
  -25.3611  -34.8033   22.9175 C   0  0  0  0  0  0  0  0  0  0  0  0
  -28.1033  -12.9329   18.6792 C   0  0  0  0  0  0  0  0  0  0  0  0
  -30.3417  -13.8298   19.4311 C   0  0  0  0  0  0  0  0  0  0  0  0
  -28.3604  -14.1680   20.8749 C   0  0  0  0  0  0  0  0  0  0  0  0
  -26.0935  -34.2802   21.6760 C   0  0  1  0  0  0  0  0  0  0  0  0
  -24.3904  -31.0821   20.5334 C   0  0  1  0  0  0  0  0  0  0  0  0
  -27.4177  -13.8575   19.7003 C   0  0  2  0  0  0  0  0  0  0  0  0
  -32.5192  -23.9701   23.6727 C   0  0  0  0  0  0  0  0  0  0  0  0
  -18.9640  -26.0586   22.8401 C   0  0  0  0  0  0  0  0  0  0  0  0
  -23.2554  -30.6229   24.9900 C   0  0  0  0  0  0  0  0  0  0  0  0
  -21.6580  -28.7666   25.5104 C   0  0  0  0  0  0  0  0  0  0  0  0
  -20.8361  -30.8411   24.3954 C   0  0  0  0  0  0  0  0  0  0  0  0
  -20.8025  -26.0459   19.5091 C   0  0  0  0  0  0  0  0  0  0  0  0
  -34.8367  -20.0685   20.6116 C   0  0  0  0  0  0  0  0  0  0  0  0
  -32.4152  -21.5283   22.0526 C   0  0  0  0  0  0  0  0  0  0  0  0
  -28.3421  -23.0828   19.9722 C   0  0  0  0  0  0  0  0  0  0  0  0
  -28.4382  -25.5302   21.5933 C   0  0  0  0  0  0  0  0  0  1  0  0
  -31.4742  -16.3489   20.3829 C   0  0  0  0  0  0  0  0  0  0  0  0
  -31.8758  -17.6820   21.0054 C   0  0  0  0  0  0  0  0  0  0  0  0
  -32.4041  -20.5046   20.9159 C   0  0  0  0  0  0  0  0  0  0  0  0
  -33.2074  -18.1906   20.4676 C   0  0  0  0  0  0  0  0  0  0  0  0
  -28.2946  -21.6428   19.4561 C   0  0  0  0  0  0  0  0  0  0  0  0
  -22.2469  -29.2043   23.0830 C   0  0  1  0  0  0  0  0  0  0  0  0
  -19.8029  -26.6487   21.7173 C   0  0  2  0  0  0  0  0  0  0  0  0
  -22.0211  -29.8544   24.4772 C   0  0  0  0  0  0  0  0  0  0  0  0
  -25.9500  -11.9565   20.2611 N   0  0  0  0  0  0  0  0  0  0  0  0
  -30.4803  -24.6935   22.5979 N   0  0  0  0  0  0  0  0  0  0  0  0
  -30.3809  -22.3587   21.0475 N   0  0  0  0  0  0  0  0  0  0  0  0
  -26.0923  -13.2900   20.1736 N   0  0  0  0  0  0  0  0  0  0  0  0
  -23.8738  -30.0299   21.4109 N   0  0  0  0  0  0  0  0  0  0  0  0
  -29.6426  -14.6899   20.3934 N   0  0  0  0  0  0  0  0  0  0  0  0
  -24.9497  -15.3376   20.5093 N   0  0  0  0  0  0  0  0  0  0  0  0
  -21.8793  -12.2308   21.6569 N   0  0  0  0  0  0  0  0  0  0  0  0
  -25.2959  -33.2768   21.0040 N   0  0  0  0  0  0  0  0  0  0  0  0
  -21.0855  -28.4928   22.5603 N   0  0  0  0  0  0  0  0  0  0  0  0
  -20.0117  -25.5958   20.6834 N   0  3  0  0  0  0  0  0  0  0  0  0
  -33.5104  -19.5313   21.0905 N   0  3  1  0  0  0  0  0  0  0  0  0
  -22.2604  -14.4820   21.4433 O   0  0  0  0  0  0  0  0  0  0  0  0
  -25.9434  -31.4370   22.2761 O   0  0  0  0  0  0  0  0  0  0  0  0
  -29.5214  -16.6091   21.6983 O   0  0  0  0  0  0  0  0  0  0  0  0
  -21.8521  -31.1362   21.7645 O   0  0  0  0  0  0  0  0  0  0  0  0
  -22.1280  -26.4334   22.3376 O   0  0  0  0  0  0  0  0  0  0  0  0
  -28.0627  -20.7540   20.5414 O   0  0  0  0  0  0  0  0  0  0  0  0
  -22.5932   -6.7065   21.5719 O   0  0  0  0  0  0  0  0  0  0  0  0
  -28.6480  -26.2606   20.3855 O   0  0  0  0  0  0  0  0  0  1  0  0
  -19.7614   -5.8708   26.2288 F   0  0  0  0  0  0  0  0  0  0  0  0
  -23.4138   -4.8118   23.4102 F   0  0  0  0  0  0  0  0  0  0  0  0
  1  2  1  0  0  0  0
  1  5  2  0  0  0  0
  2  6  2  0  0  0  0
  3  8  2  0  0  0  0
  3 15  1  0  0  0  0
  4  9  1  0  0  0  0
  4 15  2  0  0  0  0
  5 17  1  0  0  0  0
  6 19  1  0  0  0  0
  7 10  2  0  0  0  0
  7 18  1  0  0  0  0
  8 21  1  0  0  0  0
  9 21  2  0  0  0  0
 10 22  1  0  0  0  0
 11 12  2  0  0  0  0
 11 23  1  0  0  0  0
 12 24  1  0  0  0  0
 13 20  1  0  0  0  0
 13 22  2  0  0  0  0
 14 24  2  0  0  0  0
 14 25  1  0  0  0  0
 15 26  1  0  0  0  0
 16 26  1  0  0  0  0
 16 31  2  0  0  0  0
 16 32  1  0  0  0  0
 17 19  2  0  0  0  0
 17 37  1  0  0  0  0
 18 20  2  0  0  0  0
 18 38  1  0  0  0  0
 19 46  1  0  0  0  0
 20 39  1  0  0  0  0
 21 85  1  0  0  0  0
 22 86  1  0  0  0  0
 23 25  2  0  0  0  0
 23 85  1  0  0  0  0
 24 87  1  0  0  0  0
 25 88  1  0  0  0  0
 26 67  2  0  0  0  0
 27 28  1  0  0  0  0
 27 49  1  0  0  0  0
 27 68  2  0  0  0  0
 28 56  1  0  0  0  0
 28 69  2  0  0  0  0
 29 30  2  0  0  0  0
 29 57  1  0  0  0  0
 29 69  1  0  0  0  0
 30 58  1  0  0  0  0
 30 68  1  0  0  0  0
 31 70  1  0  0  0  0
 31 73  1  0  0  0  0
 32 74  1  0  0  0  0
 32 79  2  0  0  0  0
 33 47  1  0  0  0  0
 33 75  1  0  0  0  0
 33 80  2  0  0  0  0
 34 59  1  0  0  0  0
 34 72  1  0  0  0  0
 34 81  2  0  0  0  0
 35 64  1  0  0  0  0
 35 71  1  0  0  0  0
 35 82  2  0  0  0  0
 36 65  1  0  0  0  0
 36 76  1  0  0  0  0
 36 83  2  0  0  0  0
 37 40  1  0  0  0  0
 38 47  1  0  0  0  0
 39 71  1  0  0  0  0
 40 42  1  0  0  0  0
 41 43  1  0  0  0  0
 41 44  1  0  0  0  0
 42 46  1  0  0  0  0
 43 48  1  0  0  0  0
 44 72  1  0  0  0  0
 45 48  1  0  0  0  0
 45 72  1  0  0  0  0
 46 75  1  0  0  0  0
 47 71  1  0  0  0  0
 48 70  1  0  0  0  0
 50 65  1  0  0  0  0
 51 66  1  0  0  0  0
 52 66  1  0  0  0  0
 53 66  1  0  0  0  0
 54 77  1  0  0  0  0
 55 78  1  0  0  0  0
 56 61  1  0  0  0  0
 57 63  1  0  0  0  0
 58 86  1  0  0  0  0
 59 60  1  0  0  0  0
 60 62  1  0  0  0  0
 61 78  1  0  0  0  0
 62 78  1  0  0  0  0
 63 84  1  0  0  0  0
 64 66  1  0  0  0  0
 64 76  1  0  0  0  0
 65 77  1  0  0  0  0
 67 70  1  0  0  0  0
M  CHG  2  77   1  78   1
M  ISO  4  34 100  58 101  59 100  86 101
M  END
> <Batch ID>
0045

> <Smiles>
CNC(C)C(=O)NC(C(=O)N1Cc2cc([101O:1][101CH2:1]c3nc(C)c(CCN(C)CC[100CH2:0][100C:0](=O)N4CCCC(n5nc(-c6ccc(Oc7ccc(F)cc7F)cc6)c(C(N)=O)c5N)C4)nc3CCO)ccc2CC1C(=O)NC1CCCc2ccccc21)C(C)(C)C

> <Shape>
0.349

> <Color>
0.170

> <Negative vol penalty>
0.000

$$$$

  -OEChem-04052317193D

 81 89  0     1  0  0  0  0  0999 V2000
  -24.3969  -30.3351   17.7317 C   0  0  0  0  0  0  0  0  0  0  0  0
  -23.7442  -29.1191   17.5565 C   0  0  0  0  0  0  0  0  0  0  0  0
  -30.6176  -20.0028   19.5599 C   0  0  0  0  0  0  0  0  0  0  0  0
  -28.3685  -19.6877   20.3843 C   0  0  0  0  0  0  0  0  0  0  0  0
  -25.4609  -30.4311   18.6277 C   0  0  0  0  0  0  0  0  0  0  0  0
  -24.1558  -27.9981   18.2764 C   0  0  0  0  0  0  0  0  0  0  0  0
  -21.5665  -22.0334   21.2822 C   0  0  0  0  0  0  0  0  0  0  0  0
  -30.2720  -21.2745   19.1030 C   0  0  0  0  0  0  0  0  0  0  0  0
  -28.0229  -20.9595   19.9274 C   0  0  0  0  0  0  0  0  0  0  0  0
  -21.7795  -20.6557   21.2987 C   0  0  0  0  0  0  0  0  0  0  0  0
  -29.8394  -24.3606   20.4154 C   0  0  0  0  0  0  0  0  0  0  0  0
  -30.7251  -25.4060   20.6763 C   0  0  0  0  0  0  0  0  0  0  0  0
  -23.5782  -20.9589   22.8773 C   0  0  0  0  0  0  0  0  0  0  0  0
  -30.9664  -25.7938   18.3039 C   0  0  0  0  0  0  0  0  0  0  0  0
  -23.2379  -14.5741   20.5611 C   0  0  0  0  0  0  0  0  0  0  0  0
  -29.6659  -19.2093   20.2006 C   0  0  0  0  0  0  0  0  0  0  0  0
  -31.0157  -17.5711   21.6154 C   0  0  0  0  0  0  0  0  0  0  0  0
  -25.8795  -29.3130   19.3661 C   0  0  0  0  0  0  0  0  0  0  0  0
  -22.3662  -22.8867   22.0561 C   0  0  0  0  0  0  0  0  0  0  0  0
  -25.2272  -28.0789   19.1821 C   0  0  0  0  0  0  0  0  0  0  0  0
  -23.3716  -22.3469   22.8708 C   0  0  0  0  0  0  0  0  0  0  0  0
  -23.1725  -13.9452   21.7877 C   0  0  0  0  0  0  0  0  0  0  0  0
  -28.9746  -21.7529   19.2868 C   0  0  0  0  0  0  0  0  0  0  0  0
  -22.7874  -20.1185   22.0941 C   0  0  0  0  0  0  0  0  0  0  0  0
  -29.5172  -24.0316   19.0987 C   0  0  0  0  0  0  0  0  0  0  0  0
  -31.2886  -26.1226   19.6206 C   0  0  0  0  0  0  0  0  0  0  0  0
  -30.0807  -24.7483   18.0429 C   0  0  0  0  0  0  0  0  0  0  0  0
  -30.0221  -17.8953   20.6723 C   0  0  0  0  0  0  0  0  0  0  0  0
  -22.7482  -14.7310   22.8397 C   0  0  0  0  0  0  0  0  0  0  0  0
  -30.9594  -16.2025   21.7168 C   0  0  0  0  0  0  0  0  0  0  0  0
  -22.5165  -16.5293   21.4687 C   0  0  0  0  0  0  0  0  0  0  0  0
  -31.9096  -18.4303   22.3355 C   0  0  0  0  0  0  0  0  0  0  0  0
  -24.3775  -25.2646   21.4205 C   0  0  0  0  0  0  0  0  0  0  0  0
  -24.4332  -25.5617   24.6502 C   0  0  0  0  0  0  0  0  0  0  0  0
  -23.9872  -24.1010   27.7021 C   0  0  0  0  0  0  0  0  0  0  0  0
  -26.6101  -12.2143   20.7022 C   0  0  0  0  0  0  0  0  0  0  0  0
  -27.0649  -29.4542   20.2878 C   0  0  0  0  0  0  0  0  0  0  0  0
  -22.1061  -24.3681   22.0476 C   0  0  0  0  0  0  0  0  0  0  0  0
  -24.2444  -23.2179   23.7356 C   0  0  0  0  0  0  0  0  0  0  0  0
  -27.1975  -28.3096   21.2891 C   0  0  0  0  0  0  0  0  0  0  0  0
  -29.8296  -12.3036   19.1844 C   0  0  0  0  0  0  0  0  0  0  0  0
  -27.0230  -26.9654   20.5895 C   0  0  0  0  0  0  0  0  0  0  0  0
  -30.3337  -13.7175   19.4787 C   0  0  0  0  0  0  0  0  0  0  0  0
  -28.3262  -12.2846   18.9171 C   0  0  0  0  0  0  0  0  0  0  0  0
  -28.0064  -14.3246   20.2624 C   0  0  0  0  0  0  0  0  0  0  0  0
  -25.6284  -26.8464   19.9631 C   0  0  1  0  0  0  0  0  0  0  0  0
  -23.3162  -25.1897   22.4815 C   0  0  1  0  0  0  0  0  0  0  0  0
  -29.5074  -14.3867   20.5935 C   0  0  2  0  0  0  0  0  0  0  0  0
  -22.6383  -14.1572   24.2138 C   0  0  0  0  0  0  0  0  0  0  0  0
  -24.1443  -24.5849   30.1595 C   0  0  0  0  0  0  0  0  0  0  0  0
  -27.4747  -25.3784   24.4894 C   0  0  0  0  0  0  0  0  0  0  0  0
  -27.5070  -24.9121   26.9490 C   0  0  0  0  0  0  0  0  0  0  0  0
  -26.6163  -27.0838   26.1047 C   0  0  0  0  0  0  0  0  0  0  0  0
  -21.1092  -23.5469   28.1133 C   0  0  0  0  0  0  0  0  0  0  0  0
  -23.5411  -12.5145   21.9389 C   0  0  0  0  0  0  0  0  0  0  0  0
  -22.1491  -17.9731   21.2905 C   0  0  0  0  0  0  0  0  0  1  0  0
  -24.9391  -12.2935   22.5354 C   0  0  0  0  0  0  0  0  0  0  0  0
  -25.2659  -24.9738   25.7637 C   0  0  1  0  0  0  0  0  0  0  0  0
  -23.2371  -24.5611   28.9391 C   0  0  2  0  0  0  0  0  0  0  0  0
  -26.7010  -25.5705   25.8090 C   0  0  0  0  0  0  0  0  0  0  0  0
  -22.9161  -15.8695   20.3649 N   0  0  0  0  0  0  0  0  0  0  0  0
  -29.3816  -16.8193   20.2075 N   0  0  0  0  0  0  0  0  0  0  0  0
  -22.4111  -16.0315   22.7156 N   0  0  0  0  0  0  0  0  0  0  0  0
  -29.9741  -15.8056   20.8613 N   0  0  0  0  0  0  0  0  0  0  0  0
  -23.9553  -24.6607   23.6881 N   0  0  0  0  0  0  0  0  0  0  0  0
  -27.6004  -12.9328   20.0121 N   0  0  0  0  0  0  0  0  0  0  0  0
  -31.6571  -15.3119   22.4533 N   0  0  0  0  0  0  0  0  0  0  0  0
  -31.4983  -18.9318   23.5779 N   0  0  0  0  0  0  0  0  0  0  0  0
  -24.6420  -26.5469   20.9789 N   0  0  0  0  0  0  0  0  0  0  0  0
  -24.5002  -25.1649   26.9907 N   0  0  0  0  0  0  0  0  0  0  0  0
  -25.9752  -12.9007   21.7300 N   0  0  0  0  0  0  0  0  0  0  0  0
  -22.0938  -23.6479   29.2212 N   0  3  0  0  0  0  0  0  0  0  0  0
  -33.0329  -18.7571   21.8828 O   0  0  0  0  0  0  0  0  0  0  0  0
  -24.9175  -24.2353   21.0324 O   0  0  0  0  0  0  0  0  0  0  0  0
  -24.2089  -26.7746   24.6385 O   0  0  0  0  0  0  0  0  0  0  0  0
  -24.1092  -22.9161   27.3994 O   0  0  0  0  0  0  0  0  0  0  0  0
  -26.3175  -11.0459   20.4265 O   0  0  0  0  0  0  0  0  0  0  0  0
  -28.6371  -22.9939   18.8413 O   0  0  0  0  0  0  0  0  0  0  0  0
  -22.9979  -18.7742   22.1116 O   0  0  0  0  0  0  0  0  0  1  0  0
  -32.1380  -27.1276   19.8714 F   0  0  0  0  0  0  0  0  0  0  0  0
  -29.7740  -24.4377   16.7759 F   0  0  0  0  0  0  0  0  0  0  0  0
  1  2  1  0  0  0  0
  1  5  2  0  0  0  0
  2  6  2  0  0  0  0
  3  8  2  0  0  0  0
  3 16  1  0  0  0  0
  4  9  1  0  0  0  0
  4 16  2  0  0  0  0
  5 18  1  0  0  0  0
  6 20  1  0  0  0  0
  7 10  2  0  0  0  0
  7 19  1  0  0  0  0
  8 23  1  0  0  0  0
  9 23  2  0  0  0  0
 10 24  1  0  0  0  0
 11 12  2  0  0  0  0
 11 25  1  0  0  0  0
 12 26  1  0  0  0  0
 13 21  1  0  0  0  0
 13 24  2  0  0  0  0
 14 26  2  0  0  0  0
 14 27  1  0  0  0  0
 15 22  1  0  0  0  0
 15 61  2  0  0  0  0
 16 28  1  0  0  0  0
 17 28  1  0  0  0  0
 17 30  2  0  0  0  0
 17 32  1  0  0  0  0
 18 20  2  0  0  0  0
 18 37  1  0  0  0  0
 19 21  2  0  0  0  0
 19 38  1  0  0  0  0
 20 46  1  0  0  0  0
 21 39  1  0  0  0  0
 22 29  2  0  0  0  0
 22 55  1  0  0  0  0
 23 78  1  0  0  0  0
 24 79  1  0  0  0  0
 25 27  2  0  0  0  0
 25 78  1  0  0  0  0
 26 80  1  0  0  0  0
 27 81  1  0  0  0  0
 28 62  2  0  0  0  0
 29 49  1  0  0  0  0
 29 63  1  0  0  0  0
 30 64  1  0  0  0  0
 30 67  1  0  0  0  0
 31 56  1  0  0  0  0
 31 61  1  0  0  0  0
 31 63  2  0  0  0  0
 32 68  1  0  0  0  0
 32 73  2  0  0  0  0
 33 47  1  0  0  0  0
 33 69  1  0  0  0  0
 33 74  2  0  0  0  0
 34 58  1  0  0  0  0
 34 65  1  0  0  0  0
 34 75  2  0  0  0  0
 35 59  1  0  0  0  0
 35 70  1  0  0  0  0
 35 76  2  0  0  0  0
 36 66  1  0  0  0  0
 36 71  1  0  0  0  0
 36 77  2  0  0  0  0
 37 40  1  0  0  0  0
 38 47  1  0  0  0  0
 39 65  1  0  0  0  0
 40 42  1  0  0  0  0
 41 43  1  0  0  0  0
 41 44  1  0  0  0  0
 42 46  1  0  0  0  0
 43 48  1  0  0  0  0
 44 66  1  0  0  0  0
 45 48  1  0  0  0  0
 45 66  1  0  0  0  0
 46 69  1  0  0  0  0
 47 65  1  0  0  0  0
 48 64  1  0  0  0  0
 50 59  1  0  0  0  0
 51 60  1  0  0  0  0
 52 60  1  0  0  0  0
 53 60  1  0  0  0  0
 54 72  1  0  0  0  0
 55 57  1  0  0  0  0
 56 79  1  0  0  0  0
 57 71  1  0  0  0  0
 58 60  1  0  0  0  0
 58 70  1  0  0  0  0
 59 72  1  0  0  0  0
 62 64  1  0  0  0  0
M  CHG  1  72   1
M  ISO  4  36 100  56 101  71 100  79 101
M  END
> <Batch ID>
0045

> <Smiles>
CNC(C)C(=O)NC(C(=O)N1Cc2cc([101O:1][101CH2:1]c3ncc(CC[100NH:0][100C:0](=O)N4CCCC(n5nc(-c6ccc(Oc7ccc(F)cc7F)cc6)c(C(N)=O)c5N)C4)c(C)n3)ccc2CC1C(=O)NC1CCCc2ccccc21)C(C)(C)C

> <Shape>
0.207

> <Color>
0.064

> <Negative vol penalty>
0.000

$$$$

  -OEChem-04052317193D

 86 94  0     1  0  0  0  0  0999 V2000
  -18.5828  -33.9245   22.8327 C   0  0  0  0  0  0  0  0  0  0  0  0
  -19.8246  -33.8427   22.2108 C   0  0  0  0  0  0  0  0  0  0  0  0
  -27.2752  -12.9091   21.2619 C   0  0  0  0  0  0  0  0  0  0  0  0
  -26.9230  -13.7900   19.0400 C   0  0  0  0  0  0  0  0  0  0  0  0
  -18.1935  -32.9414   23.7416 C   0  0  0  0  0  0  0  0  0  0  0  0
  -20.6783  -32.7782   22.4983 C   0  0  0  0  0  0  0  0  0  0  0  0
  -25.6509  -28.6267   19.4398 C   0  0  0  0  0  0  0  0  0  0  0  0
  -26.5177  -11.7841   20.9360 C   0  0  0  0  0  0  0  0  0  0  0  0
  -26.1656  -12.6650   18.7140 C   0  0  0  0  0  0  0  0  0  0  0  0
  -26.9577  -28.1848   19.6417 C   0  0  0  0  0  0  0  0  0  0  0  0
  -23.2469  -10.9813   20.6505 C   0  0  0  0  0  0  0  0  0  0  0  0
  -22.2995  -10.5478   21.5780 C   0  0  0  0  0  0  0  0  0  0  0  0
  -26.1465  -26.5027   21.1687 C   0  0  0  0  0  0  0  0  0  0  0  0
  -23.4260   -8.4160   21.7322 C   0  0  0  0  0  0  0  0  0  0  0  0
  -31.8005  -24.5265   20.8486 C   0  0  0  0  0  0  0  0  0  0  0  0
  -27.4778  -13.9121   20.3139 C   0  0  0  0  0  0  0  0  0  0  0  0
  -29.6491  -15.2388   20.4948 C   0  0  0  0  0  0  0  0  0  0  0  0
  -19.0389  -31.8593   24.0331 C   0  0  0  0  0  0  0  0  0  0  0  0
  -24.5814  -28.0160   20.1104 C   0  0  0  0  0  0  0  0  0  0  0  0
  -20.3005  -31.7805   23.4129 C   0  0  0  0  0  0  0  0  0  0  0  0
  -24.8268  -26.9371   20.9716 C   0  0  0  0  0  0  0  0  0  0  0  0
  -25.9629  -11.6620   19.6620 C   0  0  0  0  0  0  0  0  0  0  0  0
  -27.2059  -27.1245   20.5084 C   0  0  0  0  0  0  0  0  0  0  0  0
  -24.2838  -10.1321   20.2638 C   0  0  0  0  0  0  0  0  0  0  0  0
  -22.3891   -9.2652   22.1188 C   0  0  0  0  0  0  0  0  0  0  0  0
  -24.3734   -8.8495   20.8047 C   0  0  0  0  0  0  0  0  0  0  0  0
  -28.2596  -15.0747   20.6502 C   0  0  0  0  0  0  0  0  0  0  0  0
  -31.8549  -23.1982   20.4786 C   0  0  0  0  0  0  0  0  0  0  0  0
  -30.9975  -25.3316   20.0668 C   0  0  0  0  0  0  0  0  0  0  0  0
  -29.8989  -16.5077   20.9574 C   0  0  0  0  0  0  0  0  0  0  0  0
  -30.4328  -23.5707   18.7449 C   0  0  0  0  0  0  0  0  0  0  0  0
  -30.6266  -14.3258   19.9784 C   0  0  0  0  0  0  0  0  0  0  0  0
  -22.3994  -28.9889   22.2071 C   0  0  0  0  0  0  0  0  0  0  0  0
  -21.1990  -26.0100   21.7515 C   0  0  0  0  0  0  0  0  0  0  0  0
  -21.7541  -22.7738   20.8211 C   0  0  0  0  0  0  0  0  0  0  0  0
  -26.5040  -21.4171   21.4302 C   0  0  0  0  0  0  0  0  0  0  0  0
  -18.5941  -30.8462   25.0580 C   0  0  0  0  0  0  0  0  0  0  0  0
  -23.1748  -28.4872   19.8613 C   0  0  0  0  0  0  0  0  0  0  0  0
  -23.7115  -26.2343   21.7000 C   0  0  0  0  0  0  0  0  0  0  0  0
  -19.4023  -29.5516   25.0253 C   0  0  0  0  0  0  0  0  0  0  0  0
  -28.2448  -19.7570   24.0552 C   0  0  0  0  0  0  0  0  0  0  0  0
  -20.8955  -29.8560   24.9582 C   0  0  0  0  0  0  0  0  0  0  0  0
  -28.5714  -18.3836   23.4662 C   0  0  0  0  0  0  0  0  0  0  0  0
  -26.8810  -20.2614   23.5886 C   0  0  0  0  0  0  0  0  0  0  0  0
  -27.0203  -18.9034   21.5368 C   0  0  0  0  0  0  0  0  0  0  0  0
  -21.2442  -30.6281   23.6800 C   0  0  1  0  0  0  0  0  0  0  0  0
  -22.2149  -28.1263   20.9907 C   0  0  1  0  0  0  0  0  0  0  0  0
  -28.4103  -18.3778   21.9341 C   0  0  2  0  0  0  0  0  0  0  0  0
  -32.7641  -20.6107   23.1959 C   0  0  0  0  0  0  0  0  0  0  0  0
  -20.5889  -20.5634   20.5888 C   0  0  0  0  0  0  0  0  0  0  0  0
  -21.2946  -25.6441   24.7792 C   0  0  0  0  0  0  0  0  0  0  0  0
  -21.0446  -23.1791   24.4192 C   0  0  0  0  0  0  0  0  0  0  0  0
  -19.2390  -24.7348   23.6829 C   0  0  0  0  0  0  0  0  0  0  0  0
  -22.2875  -22.6671   17.9120 C   0  0  0  0  0  0  0  0  0  0  0  0
  -32.6968  -22.2498   21.2648 C   0  0  0  0  0  0  0  0  0  0  0  0
  -30.8727  -26.7997   20.3945 C   0  0  0  0  0  0  0  0  0  0  0  0
  -29.6701  -23.0398   17.5786 C   0  0  0  0  0  0  0  0  0  0  0  0
  -31.9143  -21.6021   22.4170 C   0  0  0  0  0  0  0  0  0  0  0  0
  -28.4094  -22.2731   18.0082 C   0  0  0  0  0  0  0  0  0  0  0  0
  -27.4299  -23.1729   18.7676 C   0  0  0  0  0  0  0  0  0  0  0  0
  -26.1645  -22.4350   19.1924 C   0  0  0  0  0  0  0  0  0  0  0  0
  -29.5154  -27.3693   19.9964 C   0  0  0  0  0  0  0  0  0  1  0  0
  -21.4132  -24.6611   22.3947 C   0  0  1  0  0  0  0  0  0  0  0  0
  -20.9942  -21.8499   19.8865 C   0  0  2  0  0  0  0  0  0  0  0  0
  -20.7693  -24.5691   23.8069 C   0  0  0  0  0  0  0  0  0  0  0  0
  -27.6681  -16.1531   21.1710 N   0  0  0  0  0  0  0  0  0  0  0  0
  -31.1815  -22.6844   19.4285 N   0  0  0  0  0  0  0  0  0  0  0  0
  -30.2970  -24.8853   19.0035 N   0  0  0  0  0  0  0  0  0  0  0  0
  -28.6909  -17.0069   21.3469 N   0  0  0  0  0  0  0  0  0  0  0  0
  -22.3542  -26.7358   21.4282 N   0  0  0  0  0  0  0  0  0  0  0  0
  -26.7939  -20.2322   22.1266 N   0  0  0  0  0  0  0  0  0  0  0  0
  -31.0318  -17.2339   21.0650 N   0  0  0  0  0  0  0  0  0  0  0  0
  -30.1990  -13.0630   19.5463 N   0  0  0  0  0  0  0  0  0  0  0  0
  -21.2845  -29.7326   22.5438 N   0  0  0  0  0  0  0  0  0  0  0  0
  -20.9146  -23.6723   21.4450 N   0  0  0  0  0  0  0  0  0  0  0  0
  -26.4462  -21.3028   20.0466 N   0  0  0  0  0  0  0  0  0  0  0  0
  -21.8368  -21.4971   18.7089 N   0  3  0  0  0  0  0  0  0  0  0  0
  -31.8457  -14.6151   19.9176 O   0  0  0  0  0  0  0  0  0  0  0  0
  -23.4733  -28.9792   22.7975 O   0  0  0  0  0  0  0  0  0  0  0  0
  -20.0492  -26.4020   21.5370 O   0  0  0  0  0  0  0  0  0  0  0  0
  -22.9701  -22.7028   20.9845 O   0  0  0  0  0  0  0  0  0  0  0  0
  -26.3163  -22.4979   21.9990 O   0  0  0  0  0  0  0  0  0  0  0  0
  -25.2240  -10.5643   19.3435 O   0  0  0  0  0  0  0  0  0  0  0  0
  -28.4806  -26.6915   20.7078 O   0  0  0  0  0  0  0  0  0  1  0  0
  -21.4802   -8.8496   23.0106 F   0  0  0  0  0  0  0  0  0  0  0  0
  -25.3679   -8.0297   20.4380 F   0  0  0  0  0  0  0  0  0  0  0  0
  1  2  1  0  0  0  0
  1  5  2  0  0  0  0
  2  6  2  0  0  0  0
  3  8  2  0  0  0  0
  3 16  1  0  0  0  0
  4  9  1  0  0  0  0
  4 16  2  0  0  0  0
  5 18  1  0  0  0  0
  6 20  1  0  0  0  0
  7 10  2  0  0  0  0
  7 19  1  0  0  0  0
  8 22  1  0  0  0  0
  9 22  2  0  0  0  0
 10 23  1  0  0  0  0
 11 12  2  0  0  0  0
 11 24  1  0  0  0  0
 12 25  1  0  0  0  0
 13 21  1  0  0  0  0
 13 23  2  0  0  0  0
 14 25  2  0  0  0  0
 14 26  1  0  0  0  0
 15 28  1  0  0  0  0
 15 29  2  0  0  0  0
 16 27  1  0  0  0  0
 17 27  1  0  0  0  0
 17 30  2  0  0  0  0
 17 32  1  0  0  0  0
 18 20  2  0  0  0  0
 18 37  1  0  0  0  0
 19 21  2  0  0  0  0
 19 38  1  0  0  0  0
 20 46  1  0  0  0  0
 21 39  1  0  0  0  0
 22 83  1  0  0  0  0
 23 84  1  0  0  0  0
 24 26  2  0  0  0  0
 24 83  1  0  0  0  0
 25 85  1  0  0  0  0
 26 86  1  0  0  0  0
 27 66  2  0  0  0  0
 28 55  1  0  0  0  0
 28 67  2  0  0  0  0
 29 56  1  0  0  0  0
 29 68  1  0  0  0  0
 30 69  1  0  0  0  0
 30 72  1  0  0  0  0
 31 57  1  0  0  0  0
 31 67  1  0  0  0  0
 31 68  2  0  0  0  0
 32 73  1  0  0  0  0
 32 78  2  0  0  0  0
 33 47  1  0  0  0  0
 33 74  1  0  0  0  0
 33 79  2  0  0  0  0
 34 63  1  0  0  0  0
 34 70  1  0  0  0  0
 34 80  2  0  0  0  0
 35 64  1  0  0  0  0
 35 75  1  0  0  0  0
 35 81  2  0  0  0  0
 36 71  1  0  0  0  0
 36 76  1  0  0  0  0
 36 82  2  0  0  0  0
 37 40  1  0  0  0  0
 38 47  1  0  0  0  0
 39 70  1  0  0  0  0
 40 42  1  0  0  0  0
 41 43  1  0  0  0  0
 41 44  1  0  0  0  0
 42 46  1  0  0  0  0
 43 48  1  0  0  0  0
 44 71  1  0  0  0  0
 45 48  1  0  0  0  0
 45 71  1  0  0  0  0
 46 74  1  0  0  0  0
 47 70  1  0  0  0  0
 48 69  1  0  0  0  0
 49 58  1  0  0  0  0
 50 64  1  0  0  0  0
 51 65  1  0  0  0  0
 52 65  1  0  0  0  0
 53 65  1  0  0  0  0
 54 77  1  0  0  0  0
 55 58  1  0  0  0  0
 56 62  1  0  0  0  0
 57 59  1  0  0  0  0
 59 60  1  0  0  0  0
 60 61  1  0  0  0  0
 61 76  1  0  0  0  0
 62 84  1  0  0  0  0
 63 65  1  0  0  0  0
 63 75  1  0  0  0  0
 64 77  1  0  0  0  0
 66 69  1  0  0  0  0
M  CHG  1  77   1
M  ISO  4  36 100  62 101  76 100  84 101
M  END
> <Batch ID>
0045

> <Smiles>
CCCc1cc(C[101CH2:1][101O:1]c2ccc3c(c2)CN(C(=O)C(NC(=O)C(C)NC)C(C)(C)C)C(C(=O)NC2CCCc4ccccc42)C3)nc(CCCC[100NH:0][100C:0](=O)N2CCCC(n3nc(-c4ccc(Oc5ccc(F)cc5F)cc4)c(C(N)=O)c3N)C2)n1

> <Shape>
0.240

> <Color>
0.104

> <Negative vol penalty>
0.000

$$$$

  -OEChem-04052317193D

 85 93  0     1  0  0  0  0  0999 V2000
  -19.0891  -24.8598   33.3286 C   0  0  0  0  0  0  0  0  0  0  0  0
  -20.0266  -24.2285   32.5175 C   0  0  0  0  0  0  0  0  0  0  0  0
  -23.0639   -9.8753   19.9514 C   0  0  0  0  0  0  0  0  0  0  0  0
  -23.8556   -9.8777   22.2340 C   0  0  0  0  0  0  0  0  0  0  0  0
  -18.9828  -24.5077   34.6735 C   0  0  0  0  0  0  0  0  0  0  0  0
  -20.8592  -23.2453   33.0512 C   0  0  0  0  0  0  0  0  0  0  0  0
  -21.2404  -19.1839   30.0504 C   0  0  0  0  0  0  0  0  0  0  0  0
  -22.3254   -8.7203   20.2087 C   0  0  0  0  0  0  0  0  0  0  0  0
  -23.1170   -8.7227   22.4914 C   0  0  0  0  0  0  0  0  0  0  0  0
  -22.0826  -19.2865   28.9441 C   0  0  0  0  0  0  0  0  0  0  0  0
  -19.3988   -7.9154   21.6988 C   0  0  0  0  0  0  0  0  0  0  0  0
  -18.0854   -7.8683   21.2316 C   0  0  0  0  0  0  0  0  0  0  0  0
  -23.8010  -18.0977   30.1496 C   0  0  0  0  0  0  0  0  0  0  0  0
  -26.4887  -19.8030   26.3273 C   0  0  0  0  0  0  0  0  0  0  0  0
  -26.7177  -17.4284   26.0220 C   0  0  0  0  0  0  0  0  0  0  0  0
  -18.6297   -5.9295   19.8968 C   0  0  0  0  0  0  0  0  0  0  0  0
  -23.8291  -10.4539   20.9640 C   0  0  0  0  0  0  0  0  0  0  0  0
  -24.1653  -12.9799   20.8457 C   0  0  0  0  0  0  0  0  0  0  0  0
  -19.8079  -23.5130   35.2216 C   0  0  0  0  0  0  0  0  0  0  0  0
  -21.6768  -18.5460   31.2205 C   0  0  0  0  0  0  0  0  0  0  0  0
  -20.7647  -22.8806   34.4049 C   0  0  0  0  0  0  0  0  0  0  0  0
  -22.9615  -17.9861   31.2685 C   0  0  0  0  0  0  0  0  0  0  0  0
  -26.2490  -18.5056   26.7659 C   0  0  0  0  0  0  0  0  0  0  0  0
  -22.3519   -8.1440   21.4787 C   0  0  0  0  0  0  0  0  0  0  0  0
  -23.3642  -18.7459   28.9946 C   0  0  0  0  0  0  0  0  0  0  0  0
  -20.3278   -6.9696   21.2649 C   0  0  0  0  0  0  0  0  0  0  0  0
  -17.7008   -6.8754   20.3306 C   0  0  0  0  0  0  0  0  0  0  0  0
  -19.9432   -5.9766   20.3639 C   0  0  0  0  0  0  0  0  0  0  0  0
  -24.5927  -11.6467   20.6987 C   0  0  0  0  0  0  0  0  0  0  0  0
  -27.1966  -19.9685   25.1478 C   0  0  0  0  0  0  0  0  0  0  0  0
  -27.4152  -17.7002   24.8560 C   0  0  0  0  0  0  0  0  0  0  0  0
  -25.2512  -13.7320   20.4692 C   0  0  0  0  0  0  0  0  0  0  0  0
  -22.9000  -13.4927   21.2835 C   0  0  0  0  0  0  0  0  0  0  0  0
  -22.1307  -19.4516   34.2333 C   0  0  0  0  0  0  0  0  0  0  0  0
  -30.7577  -14.6926   20.6805 C   0  0  0  0  0  0  0  0  0  0  0  0
  -22.7034  -16.2913   34.6874 C   0  0  0  0  0  0  0  0  0  0  0  0
  -23.6488  -13.2968   33.3508 C   0  0  0  0  0  0  0  0  0  0  0  0
  -19.6885  -23.1997   36.6921 C   0  0  0  0  0  0  0  0  0  0  0  0
  -20.7466  -18.4202   32.3958 C   0  0  0  0  0  0  0  0  0  0  0  0
  -23.4706  -17.2734   32.4937 C   0  0  0  0  0  0  0  0  0  0  0  0
  -20.3521  -21.8840   37.0903 C   0  0  0  0  0  0  0  0  0  0  0  0
  -29.5619  -12.4005   18.1993 C   0  0  0  0  0  0  0  0  0  0  0  0
  -21.7429  -21.7791   36.4727 C   0  0  0  0  0  0  0  0  0  0  0  0
  -28.1383  -12.0863   18.6572 C   0  0  0  0  0  0  0  0  0  0  0  0
  -30.4987  -12.6015   19.3864 C   0  0  0  0  0  0  0  0  0  0  0  0
  -28.6139  -13.3297   20.8142 C   0  0  0  0  0  0  0  0  0  0  0  0
  -21.6688  -21.7919   34.9411 C   0  0  1  0  0  0  0  0  0  0  0  0
  -21.4786  -18.2007   33.7162 C   0  0  1  0  0  0  0  0  0  0  0  0
  -27.6284  -13.1497   19.6460 C   0  0  2  0  0  0  0  0  0  0  0  0
  -27.4740  -21.3467   24.6474 C   0  0  0  0  0  0  0  0  0  0  0  0
  -24.0596  -10.9018   33.9773 C   0  0  0  0  0  0  0  0  0  0  0  0
  -25.3565  -17.0842   35.9691 C   0  0  0  0  0  0  0  0  0  0  0  0
  -26.1142  -14.7129   35.7024 C   0  0  0  0  0  0  0  0  0  0  0  0
  -24.1436  -15.2366   37.1394 C   0  0  0  0  0  0  0  0  0  0  0  0
  -21.5386  -12.3330   31.5131 C   0  0  0  0  0  0  0  0  0  0  0  0
  -31.1609  -19.1083   22.9114 C   0  0  0  0  0  0  0  0  0  0  0  0
  -25.4883  -18.2688   28.0373 C   0  0  0  0  0  0  0  0  0  1  0  0
  -27.9311  -16.5682   24.0319 C   0  0  0  0  0  0  0  0  0  0  0  0
  -30.1413  -15.6833   21.6358 C   0  0  0  0  0  0  0  0  0  0  0  0
  -29.3537  -16.1071   24.4030 C   0  0  0  0  0  0  0  0  0  0  0  0
  -31.1063  -16.8128   21.9478 C   0  0  0  0  0  0  0  0  0  0  0  0
  -30.4291  -17.1856   24.3149 C   0  0  0  0  0  0  0  0  0  0  0  0
  -23.9252  -15.4066   34.6263 C   0  0  1  0  0  0  0  0  0  0  0  0
  -23.0439  -11.9088   33.4606 C   0  0  2  0  0  0  0  0  0  0  0  0
  -24.8763  -15.6251   35.8367 C   0  0  0  0  0  0  0  0  0  0  0  0
  -25.8518  -11.5539   20.2626 N   0  0  0  0  0  0  0  0  0  0  0  0
  -27.6677  -18.9469   24.3981 N   0  0  0  0  0  0  0  0  0  0  0  0
  -26.2249  -12.8384   20.1323 N   0  0  0  0  0  0  0  0  0  0  0  0
  -22.5259  -17.1819   33.6192 N   0  0  0  0  0  0  0  0  0  0  0  0
  -29.9682  -13.6027   20.3134 N   0  0  0  0  0  0  0  0  0  0  0  0
  -25.4585  -15.0640   20.3967 N   0  0  0  0  0  0  0  0  0  0  0  0
  -21.8943  -12.5810   21.6325 N   0  0  0  0  0  0  0  0  0  0  0  0
  -21.2528  -20.4977   34.4444 N   0  0  0  0  0  0  0  0  0  0  0  0
  -23.4331  -14.0397   34.4922 N   0  0  0  0  0  0  0  0  0  0  0  0
  -22.5605  -11.4476   32.1285 N   0  3  0  0  0  0  0  0  0  0  0  0
  -30.4869  -17.7577   22.9496 N   0  3  1  0  0  0  0  0  0  0  0  0
  -22.6627  -14.7227   21.3473 O   0  0  0  0  0  0  0  0  0  0  0  0
  -23.3405  -19.4662   34.4279 O   0  0  0  0  0  0  0  0  0  0  0  0
  -31.9058  -14.8849   20.2715 O   0  0  0  0  0  0  0  0  0  0  0  0
  -21.9312  -16.1906   35.6440 O   0  0  0  0  0  0  0  0  0  0  0  0
  -24.2554  -13.6821   32.3537 O   0  0  0  0  0  0  0  0  0  0  0  0
  -21.6312   -7.0172   21.7302 O   0  0  0  0  0  0  0  0  0  0  0  0
  -24.1885  -18.8451   27.9164 O   0  0  0  0  0  0  0  0  0  1  0  0
  -16.4391   -6.8294   19.8833 F   0  0  0  0  0  0  0  0  0  0  0  0
  -20.8308   -5.0645   19.9444 F   0  0  0  0  0  0  0  0  0  0  0  0
  1  2  1  0  0  0  0
  1  5  2  0  0  0  0
  2  6  2  0  0  0  0
  3  8  2  0  0  0  0
  3 17  1  0  0  0  0
  4  9  1  0  0  0  0
  4 17  2  0  0  0  0
  5 19  1  0  0  0  0
  6 21  1  0  0  0  0
  7 10  2  0  0  0  0
  7 20  1  0  0  0  0
  8 24  1  0  0  0  0
  9 24  2  0  0  0  0
 10 25  1  0  0  0  0
 11 12  2  0  0  0  0
 11 26  1  0  0  0  0
 12 27  1  0  0  0  0
 13 22  1  0  0  0  0
 13 25  2  0  0  0  0
 14 23  1  0  0  0  0
 14 30  2  0  0  0  0
 15 23  2  0  0  0  0
 15 31  1  0  0  0  0
 16 27  2  0  0  0  0
 16 28  1  0  0  0  0
 17 29  1  0  0  0  0
 18 29  1  0  0  0  0
 18 32  2  0  0  0  0
 18 33  1  0  0  0  0
 19 21  2  0  0  0  0
 19 38  1  0  0  0  0
 20 22  2  0  0  0  0
 20 39  1  0  0  0  0
 21 47  1  0  0  0  0
 22 40  1  0  0  0  0
 23 57  1  0  0  0  0
 24 82  1  0  0  0  0
 25 83  1  0  0  0  0
 26 28  2  0  0  0  0
 26 82  1  0  0  0  0
 27 84  1  0  0  0  0
 28 85  1  0  0  0  0
 29 66  2  0  0  0  0
 30 50  1  0  0  0  0
 30 67  1  0  0  0  0
 31 58  1  0  0  0  0
 31 67  2  0  0  0  0
 32 68  1  0  0  0  0
 32 71  1  0  0  0  0
 33 72  1  0  0  0  0
 33 77  2  0  0  0  0
 34 48  1  0  0  0  0
 34 73  1  0  0  0  0
 34 78  2  0  0  0  0
 35 59  1  0  0  0  0
 35 70  1  0  0  0  0
 35 79  2  0  0  0  0
 36 63  1  0  0  0  0
 36 69  1  0  0  0  0
 36 80  2  0  0  0  0
 37 64  1  0  0  0  0
 37 74  1  0  0  0  0
 37 81  2  0  0  0  0
 38 41  1  0  0  0  0
 39 48  1  0  0  0  0
 40 69  1  0  0  0  0
 41 43  1  0  0  0  0
 42 44  1  0  0  0  0
 42 45  1  0  0  0  0
 43 47  1  0  0  0  0
 44 49  1  0  0  0  0
 45 70  1  0  0  0  0
 46 49  1  0  0  0  0
 46 70  1  0  0  0  0
 47 73  1  0  0  0  0
 48 69  1  0  0  0  0
 49 68  1  0  0  0  0
 51 64  1  0  0  0  0
 52 65  1  0  0  0  0
 53 65  1  0  0  0  0
 54 65  1  0  0  0  0
 55 75  1  0  0  0  0
 56 76  1  0  0  0  0
 57 83  1  0  0  0  0
 58 60  1  0  0  0  0
 59 61  1  0  0  0  0
 60 62  1  0  0  0  0
 61 76  1  0  0  0  0
 62 76  1  0  0  0  0
 63 65  1  0  0  0  0
 63 74  1  0  0  0  0
 64 75  1  0  0  0  0
 66 68  1  0  0  0  0
M  CHG  2  75   1  76   1
M  ISO  4  35 100  57 101  59 100  83 101
M  END
> <Batch ID>
0045

> <Smiles>
CNC(C)C(=O)NC(C(=O)N1Cc2cc([101O:1][101CH2:1]c3cc(C)nc(CCCN(C)C[100CH2:0][100C:0](=O)N4CCCC(n5nc(-c6ccc(Oc7ccc(F)cc7F)cc6)c(C(N)=O)c5N)C4)c3)ccc2CC1C(=O)NC1CCCc2ccccc21)C(C)(C)C

> <Shape>
0.145

> <Color>
0.190

> <Negative vol penalty>
0.000

$$$$

  -OEChem-04052317193D

 89 97  0     1  0  0  0  0  0999 V2000
  -23.5328  -27.6505   29.2199 C   0  0  0  0  0  0  0  0  0  0  0  0
  -24.2366  -26.8862   28.2947 C   0  0  0  0  0  0  0  0  0  0  0  0
  -27.7481  -23.3452   20.5415 C   0  0  0  0  0  0  0  0  0  0  0  0
  -29.2248  -23.4879   18.6346 C   0  0  0  0  0  0  0  0  0  0  0  0
  -22.1689  -27.4319   29.4095 C   0  0  0  0  0  0  0  0  0  0  0  0
  -23.5770  -25.9020   27.5592 C   0  0  0  0  0  0  0  0  0  0  0  0
  -23.6544  -22.7446   21.1295 C   0  0  0  0  0  0  0  0  0  0  0  0
  -27.7361  -24.7367   20.6364 C   0  0  0  0  0  0  0  0  0  0  0  0
  -29.2128  -24.8795   18.7295 C   0  0  0  0  0  0  0  0  0  0  0  0
  -23.6975  -21.4759   20.5531 C   0  0  0  0  0  0  0  0  0  0  0  0
  -26.2140  -27.3263   19.0838 C   0  0  0  0  0  0  0  0  0  0  0  0
  -24.9832  -27.9519   19.2820 C   0  0  0  0  0  0  0  0  0  0  0  0
  -21.3231  -21.2407   20.9077 C   0  0  0  0  0  0  0  0  0  0  0  0
  -29.2410  -11.6106   20.3907 C   0  0  0  0  0  0  0  0  0  0  0  0
  -28.5744  -13.8100   18.8093 C   0  0  0  0  0  0  0  0  0  0  0  0
  -25.7945  -28.8910   21.3550 C   0  0  0  0  0  0  0  0  0  0  0  0
  -28.4925  -22.7207   19.5406 C   0  0  0  0  0  0  0  0  0  0  0  0
  -27.6255  -20.4737   18.6999 C   0  0  0  0  0  0  0  0  0  0  0  0
  -21.4903  -26.4511   28.6691 C   0  0  0  0  0  0  0  0  0  0  0  0
  -22.4452  -23.2673   21.6101 C   0  0  0  0  0  0  0  0  0  0  0  0
  -22.2030  -25.6692   27.7401 C   0  0  0  0  0  0  0  0  0  0  0  0
  -21.2668  -22.5173   21.4875 C   0  0  0  0  0  0  0  0  0  0  0  0
  -29.9707  -11.8846   19.2340 C   0  0  0  0  0  0  0  0  0  0  0  0
  -28.1779  -12.4362   20.7568 C   0  0  0  0  0  0  0  0  0  0  0  0
  -29.6374  -12.9843   18.4433 C   0  0  0  0  0  0  0  0  0  0  0  0
  -27.8446  -13.5359   19.9661 C   0  0  0  0  0  0  0  0  0  0  0  0
  -28.4684  -25.5039   19.7304 C   0  0  0  0  0  0  0  0  0  0  0  0
  -22.5323  -20.7226   20.4447 C   0  0  0  0  0  0  0  0  0  0  0  0
  -27.2351  -27.4829   20.0211 C   0  0  0  0  0  0  0  0  0  0  0  0
  -24.7734  -28.7343   20.4176 C   0  0  0  0  0  0  0  0  0  0  0  0
  -27.0253  -28.2653   21.1567 C   0  0  0  0  0  0  0  0  0  0  0  0
  -28.5058  -21.2833   19.4425 C   0  0  0  0  0  0  0  0  0  0  0  0
  -28.0563  -19.1912   18.9364 C   0  0  0  0  0  0  0  0  0  0  0  0
  -26.5174  -20.8477   17.8703 C   0  0  0  0  0  0  0  0  0  0  0  0
  -21.3742  -24.1901   24.4571 C   0  0  0  0  0  0  0  0  0  0  0  0
  -18.7953  -25.1532   22.7413 C   0  0  0  0  0  0  0  0  0  0  0  0
  -16.9026  -24.8192   19.9211 C   0  0  0  0  0  0  0  0  0  0  0  0
  -32.1695  -15.4513   19.4263 C   0  0  0  0  0  0  0  0  0  0  0  0
  -20.0254  -26.2192   28.9427 C   0  0  0  0  0  0  0  0  0  0  0  0
  -22.4107  -24.6484   22.2050 C   0  0  0  0  0  0  0  0  0  0  0  0
  -19.9395  -23.0413   21.9694 C   0  0  0  0  0  0  0  0  0  0  0  0
  -19.3229  -25.4115   27.8544 C   0  0  0  0  0  0  0  0  0  0  0  0
  -31.3863  -17.4041   22.2985 C   0  0  0  0  0  0  0  0  0  0  0  0
  -20.1557  -24.1917   27.4732 C   0  0  0  0  0  0  0  0  0  0  0  0
  -30.5001  -18.5235   21.7493 C   0  0  0  0  0  0  0  0  0  0  0  0
  -32.4897  -17.0232   21.3139 C   0  0  0  0  0  0  0  0  0  0  0  0
  -31.1331  -17.8012   19.4091 C   0  0  0  0  0  0  0  0  0  0  0  0
  -21.5176  -24.6091   26.9055 C   0  0  1  0  0  0  0  0  0  0  0  0
  -21.2163  -24.8719   23.1274 C   0  0  1  0  0  0  0  0  0  0  0  0
  -29.9716  -18.1814   20.3432 C   0  0  2  0  0  0  0  0  0  0  0  0
  -31.1051  -10.9870   18.8626 C   0  0  0  0  0  0  0  0  0  0  0  0
  -27.4105  -12.1225   21.9990 C   0  0  0  0  0  0  0  0  0  0  0  0
  -14.8347  -25.7169   18.8188 C   0  0  0  0  0  0  0  0  0  0  0  0
  -25.3655  -14.0649   18.2258 C   0  0  0  0  0  0  0  0  0  0  0  0
  -17.0692  -23.5181   24.6535 C   0  0  0  0  0  0  0  0  0  0  0  0
  -15.2056  -23.6674   22.9882 C   0  0  0  0  0  0  0  0  0  0  0  0
  -16.1142  -25.7438   24.0302 C   0  0  0  0  0  0  0  0  0  0  0  0
  -18.4341  -25.8070   17.5892 C   0  0  0  0  0  0  0  0  0  0  0  0
  -23.7654  -14.5160   21.5967 C   0  0  0  0  0  0  0  0  0  0  0  0
  -30.4047  -13.2978   17.2009 C   0  0  0  0  0  0  0  0  0  0  0  0
  -26.7032  -14.4390   20.3397 C   0  0  0  0  0  0  0  0  0  0  0  0
  -23.4548  -17.2582   20.0275 C   0  0  0  0  0  0  0  0  0  0  0  0
  -31.7477  -13.9861   17.4682 C   0  0  0  0  0  0  0  0  0  0  0  0
  -24.6725  -16.3614   20.1923 C   0  0  0  0  0  0  0  0  0  0  0  0
  -23.7852  -18.7458   20.0222 C   0  0  0  0  0  0  0  0  0  1  0  0
  -17.4983  -24.5124   22.3097 C   0  0  1  0  0  0  0  0  0  0  0  0
  -16.3436  -25.8485   18.9555 C   0  0  2  0  0  0  0  0  0  0  0  0
  -25.3547  -14.0081   19.7479 C   0  0  1  0  0  0  0  0  0  0  0  0
  -16.4970  -24.3495   23.4880 C   0  0  0  0  0  0  0  0  0  0  0  0
  -29.4262  -20.5744   20.1015 N   0  0  0  0  0  0  0  0  0  0  0  0
  -29.1266  -19.3060   19.7740 N   0  0  0  0  0  0  0  0  0  0  0  0
  -19.9585  -24.3943   22.5494 N   0  0  0  0  0  0  0  0  0  0  0  0
  -31.9217  -16.7090   20.0006 N   0  0  0  0  0  0  0  0  0  0  0  0
  -27.6201  -17.9877   18.5077 N   0  0  0  0  0  0  0  0  0  0  0  0
  -26.2123  -22.2091   17.7368 N   0  0  0  0  0  0  0  0  0  0  0  0
  -21.3791  -25.0542   25.5354 N   0  0  0  0  0  0  0  0  0  0  0  0
  -16.9932  -25.3181   21.2034 N   0  0  0  0  0  0  0  0  0  0  0  0
  -31.5889  -15.2329   18.1829 N   0  0  0  0  0  0  0  0  0  0  0  0
  -16.9542  -25.6787   17.6067 N   0  3  0  0  0  0  0  0  0  0  0  0
  -24.2689  -14.9364   20.2368 N   0  3  1  0  0  0  0  0  0  0  0  0
  -25.8086  -19.9987   17.2785 O   0  0  0  0  0  0  0  0  0  0  0  0
  -21.4820  -22.9702   24.5015 O   0  0  0  0  0  0  0  0  0  0  0  0
  -18.7778  -26.2883   23.2240 O   0  0  0  0  0  0  0  0  0  0  0  0
  -17.2232  -23.6848   19.5735 O   0  0  0  0  0  0  0  0  0  0  0  0
  -32.8528  -14.5852   19.9828 O   0  0  0  0  0  0  0  0  0  0  0  0
  -28.4567  -26.8618   19.8225 O   0  0  0  0  0  0  0  0  0  0  0  0
  -22.5717  -19.4837   19.8830 O   0  0  0  0  0  0  0  0  0  1  0  0
  -23.5920  -29.3362   20.6071 F   0  0  0  0  0  0  0  0  0  0  0  0
  -28.0028  -28.4205   22.0601 F   0  0  0  0  0  0  0  0  0  0  0  0
  1  2  1  0  0  0  0
  1  5  2  0  0  0  0
  2  6  2  0  0  0  0
  3  8  2  0  0  0  0
  3 17  1  0  0  0  0
  4  9  1  0  0  0  0
  4 17  2  0  0  0  0
  5 19  1  0  0  0  0
  6 21  1  0  0  0  0
  7 10  2  0  0  0  0
  7 20  1  0  0  0  0
  8 27  1  0  0  0  0
  9 27  2  0  0  0  0
 10 28  1  0  0  0  0
 11 12  2  0  0  0  0
 11 29  1  0  0  0  0
 12 30  1  0  0  0  0
 13 22  1  0  0  0  0
 13 28  2  0  0  0  0
 14 23  2  0  0  0  0
 14 24  1  0  0  0  0
 15 25  2  0  0  0  0
 15 26  1  0  0  0  0
 16 30  2  0  0  0  0
 16 31  1  0  0  0  0
 17 32  1  0  0  0  0
 18 32  1  0  0  0  0
 18 33  2  0  0  0  0
 18 34  1  0  0  0  0
 19 21  2  0  0  0  0
 19 39  1  0  0  0  0
 20 22  2  0  0  0  0
 20 40  1  0  0  0  0
 21 48  1  0  0  0  0
 22 41  1  0  0  0  0
 23 25  1  0  0  0  0
 23 51  1  0  0  0  0
 24 26  2  0  0  0  0
 24 52  1  0  0  0  0
 25 60  1  0  0  0  0
 26 61  1  0  0  0  0
 27 86  1  0  0  0  0
 28 87  1  0  0  0  0
 29 31  2  0  0  0  0
 29 86  1  0  0  0  0
 30 88  1  0  0  0  0
 31 89  1  0  0  0  0
 32 70  2  0  0  0  0
 33 71  1  0  0  0  0
 33 74  1  0  0  0  0
 34 75  1  0  0  0  0
 34 81  2  0  0  0  0
 35 49  1  0  0  0  0
 35 76  1  0  0  0  0
 35 82  2  0  0  0  0
 36 66  1  0  0  0  0
 36 72  1  0  0  0  0
 36 83  2  0  0  0  0
 37 67  1  0  0  0  0
 37 77  1  0  0  0  0
 37 84  2  0  0  0  0
 38 73  1  0  0  0  0
 38 78  1  0  0  0  0
 38 85  2  0  0  0  0
 39 42  1  0  0  0  0
 40 49  1  0  0  0  0
 41 72  1  0  0  0  0
 42 44  1  0  0  0  0
 43 45  1  0  0  0  0
 43 46  1  0  0  0  0
 44 48  1  0  0  0  0
 45 50  1  0  0  0  0
 46 73  1  0  0  0  0
 47 50  1  0  0  0  0
 47 73  1  0  0  0  0
 48 76  1  0  0  0  0
 49 72  1  0  0  0  0
 50 71  1  0  0  0  0
 53 67  1  0  0  0  0
 54 68  1  0  0  0  0
 55 69  1  0  0  0  0
 56 69  1  0  0  0  0
 57 69  1  0  0  0  0
 58 79  1  0  0  0  0
 59 80  1  0  0  0  0
 60 63  1  0  0  0  0
 61 68  1  0  0  0  0
 62 64  1  0  0  0  0
 62 65  1  0  0  0  0
 63 78  1  0  0  0  0
 64 80  1  0  0  0  0
 65 87  1  0  0  0  0
 66 69  1  0  0  0  0
 66 77  1  0  0  0  0
 67 79  1  0  0  0  0
 68 80  1  0  0  0  0
 70 71  1  0  0  0  0
M  CHG  2  79   1  80   1
M  ISO  4  38 100  65 101  78 100  87 101
M  END
> <Batch ID>
0045

> <Smiles>
CNC(C)C(=O)NC(C(=O)N1Cc2cc([101O:1][101CH2:1]CCN(C)C(C)Cc3cc(CC[100NH:0][100C:0](=O)N4CCCC(n5nc(-c6ccc(Oc7ccc(F)cc7F)cc6)c(C(N)=O)c5N)C4)c(C)cc3C)ccc2CC1C(=O)NC1CCCc2ccccc21)C(C)(C)C

> <Shape>
0.203

> <Color>
0.086

> <Negative vol penalty>
0.000

$$$$

  -OEChem-04052317193D

 83 91  0     1  0  0  0  0  0999 V2000
  -30.0255  -30.5098   26.0998 C   0  0  0  0  0  0  0  0  0  0  0  0
  -29.6637  -29.6457   25.0712 C   0  0  0  0  0  0  0  0  0  0  0  0
  -23.0786   -9.9719   22.6921 C   0  0  0  0  0  0  0  0  0  0  0  0
  -24.2186   -9.5276   20.6088 C   0  0  0  0  0  0  0  0  0  0  0  0
  -29.0437  -31.0686   26.9169 C   0  0  0  0  0  0  0  0  0  0  0  0
  -28.3200  -29.3391   24.8599 C   0  0  0  0  0  0  0  0  0  0  0  0
  -27.0358  -29.5065   19.9642 C   0  0  0  0  0  0  0  0  0  0  0  0
  -22.3131   -8.8187   22.5191 C   0  0  0  0  0  0  0  0  0  0  0  0
  -23.4532   -8.3744   20.4358 C   0  0  0  0  0  0  0  0  0  0  0  0
  -27.4011  -28.4185   19.1726 C   0  0  0  0  0  0  0  0  0  0  0  0
  -20.3106   -5.7983   22.8052 C   0  0  0  0  0  0  0  0  0  0  0  0
  -20.1440   -4.9593   23.9069 C   0  0  0  0  0  0  0  0  0  0  0  0
  -25.1595  -27.5449   19.3495 C   0  0  0  0  0  0  0  0  0  0  0  0
  -22.5363   -4.6450   24.0294 C   0  0  0  0  0  0  0  0  0  0  0  0
  -24.0313  -10.3264   21.7369 C   0  0  0  0  0  0  0  0  0  0  0  0
  -26.0629  -11.6245   22.5707 C   0  0  0  0  0  0  0  0  0  0  0  0
  -27.6864  -30.7763   26.7094 C   0  0  0  0  0  0  0  0  0  0  0  0
  -25.7304  -29.6164   20.4643 C   0  0  0  0  0  0  0  0  0  0  0  0
  -27.3192  -29.8935   25.6758 C   0  0  0  0  0  0  0  0  0  0  0  0
  -24.7795  -28.6365   20.1451 C   0  0  0  0  0  0  0  0  0  0  0  0
  -22.5004   -8.0200   21.3911 C   0  0  0  0  0  0  0  0  0  0  0  0
  -26.4637  -27.4360   18.8675 C   0  0  0  0  0  0  0  0  0  0  0  0
  -21.5901   -6.0607   22.3155 C   0  0  0  0  0  0  0  0  0  0  0  0
  -21.2568   -4.3826   24.5191 C   0  0  0  0  0  0  0  0  0  0  0  0
  -22.7029   -5.4841   22.9276 C   0  0  0  0  0  0  0  0  0  0  0  0
  -24.8219  -11.5178   21.9146 C   0  0  0  0  0  0  0  0  0  0  0  0
  -30.4760  -19.4717   18.1850 C   0  0  0  0  0  0  0  0  0  0  0  0
  -29.4963  -18.5528   17.9040 C   0  0  0  0  0  0  0  0  0  0  0  0
  -26.3929  -12.9537   22.4669 C   0  0  0  0  0  0  0  0  0  0  0  0
  -26.8471  -10.6126   23.2162 C   0  0  0  0  0  0  0  0  0  0  0  0
  -24.4401  -29.6973   23.3681 C   0  0  0  0  0  0  0  0  0  0  0  0
  -26.7918  -17.5949   19.3703 C   0  0  0  0  0  0  0  0  0  0  0  0
  -21.7150  -30.3011   21.7155 C   0  0  0  0  0  0  0  0  0  0  0  0
  -19.9887  -30.0469   18.7826 C   0  0  0  0  0  0  0  0  0  0  0  0
  -26.6648  -31.3673   27.6483 C   0  0  0  0  0  0  0  0  0  0  0  0
  -25.3451  -30.8099   21.2947 C   0  0  0  0  0  0  0  0  0  0  0  0
  -23.3595  -28.7184   20.6404 C   0  0  0  0  0  0  0  0  0  0  0  0
  -25.2343  -31.2856   27.1216 C   0  0  0  0  0  0  0  0  0  0  0  0
  -23.6571  -16.9275   20.9729 C   0  0  0  0  0  0  0  0  0  0  0  0
  -24.9452  -29.8908   26.5759 C   0  0  0  0  0  0  0  0  0  0  0  0
  -23.7710  -15.4611   21.3876 C   0  0  0  0  0  0  0  0  0  0  0  0
  -24.3684  -17.1903   19.6492 C   0  0  0  0  0  0  0  0  0  0  0  0
  -25.9189  -15.3044   20.0508 C   0  0  0  0  0  0  0  0  0  0  0  0
  -25.8701  -29.5561   25.3994 C   0  0  1  0  0  0  0  0  0  0  0  0
  -24.1259  -30.5561   22.1759 C   0  0  1  0  0  0  0  0  0  0  0  0
  -25.2399  -15.0022   21.3984 C   0  0  2  0  0  0  0  0  0  0  0  0
  -28.8645  -18.1228   16.6465 C   0  0  0  0  0  0  0  0  0  0  0  0
  -17.7698  -30.5990   17.7485 C   0  0  0  0  0  0  0  0  0  0  0  0
  -20.4412  -27.9635   23.2064 C   0  0  0  0  0  0  0  0  0  0  0  0
  -18.6127  -27.9597   21.4962 C   0  0  0  0  0  0  0  0  0  0  0  0
  -18.9619  -29.9625   22.9418 C   0  0  0  0  0  0  0  0  0  0  0  0
  -21.2401  -31.7997   16.7526 C   0  0  0  0  0  0  0  0  0  0  0  0
  -31.2434  -20.3667   17.2447 C   0  0  0  0  0  0  0  0  0  0  0  0
  -28.1918  -17.0392   19.4414 C   0  0  0  0  0  0  0  0  0  0  0  0
  -31.1398  -21.8576   17.5858 C   0  0  0  0  0  0  0  0  0  0  0  0
  -29.6981  -22.3780   17.5681 C   0  0  0  0  0  0  0  0  0  0  0  0
  -29.6419  -23.8612   17.9433 C   0  0  0  0  0  0  0  0  0  0  0  0
  -28.2322  -24.4494   17.8742 C   0  0  0  0  0  0  0  0  0  0  0  0
  -28.1767  -25.9430   18.1658 C   0  0  0  0  0  0  0  0  0  1  0  0
  -20.6243  -29.4538   21.1061 C   0  0  1  0  0  0  0  0  0  0  0  0
  -19.1960  -31.0693   17.9884 C   0  0  2  0  0  0  0  0  0  0  0  0
  -19.6872  -28.8320   22.1797 C   0  0  0  0  0  0  0  0  0  0  0  0
  -24.3927  -12.6861   21.4300 N   0  0  0  0  0  0  0  0  0  0  0  0
  -30.7089  -19.4976   19.5320 N   0  0  0  0  0  0  0  0  0  0  0  0
  -29.8976  -18.6144   20.1036 N   0  0  0  0  0  0  0  0  0  0  0  0
  -29.1715  -18.0489   19.1258 N   0  0  0  0  0  0  0  0  0  0  0  0
  -25.3694  -13.5396   21.7820 N   0  0  0  0  0  0  0  0  0  0  0  0
  -23.0331  -29.9012   21.4540 N   0  0  0  0  0  0  0  0  0  0  0  0
  -25.7541  -16.7200   19.6925 N   0  0  0  0  0  0  0  0  0  0  0  0
  -27.4560  -13.6668   22.8958 N   0  0  0  0  0  0  0  0  0  0  0  0
  -26.3605   -9.2983   23.2311 N   0  0  0  0  0  0  0  0  0  0  0  0
  -25.4164  -30.2187   24.1954 N   0  0  0  0  0  0  0  0  0  0  0  0
  -19.9411  -30.3033   20.1365 N   0  0  0  0  0  0  0  0  0  0  0  0
  -19.8400  -31.3106   16.6662 N   0  3  0  0  0  0  0  0  0  0  0  0
  -27.9390  -10.8694   23.7779 O   0  0  0  0  0  0  0  0  0  0  0  0
  -23.8402  -28.6406   23.5266 O   0  0  0  0  0  0  0  0  0  0  0  0
  -26.6275  -18.7725   19.0410 O   0  0  0  0  0  0  0  0  0  0  0  0
  -21.4088  -31.2859   22.3924 O   0  0  0  0  0  0  0  0  0  0  0  0
  -20.5870  -29.1119   18.2549 O   0  0  0  0  0  0  0  0  0  0  0  0
  -21.7539   -6.8945   21.2221 O   0  0  0  0  0  0  0  0  0  0  0  0
  -26.8178  -26.3727   18.0956 O   0  0  0  0  0  0  0  0  0  1  0  0
  -21.0968   -3.5781   25.5780 F   0  0  0  0  0  0  0  0  0  0  0  0
  -23.9347   -5.7333   22.4624 F   0  0  0  0  0  0  0  0  0  0  0  0
  1  2  1  0  0  0  0
  1  5  2  0  0  0  0
  2  6  2  0  0  0  0
  3  8  2  0  0  0  0
  3 15  1  0  0  0  0
  4  9  1  0  0  0  0
  4 15  2  0  0  0  0
  5 17  1  0  0  0  0
  6 19  1  0  0  0  0
  7 10  2  0  0  0  0
  7 18  1  0  0  0  0
  8 21  1  0  0  0  0
  9 21  2  0  0  0  0
 10 22  1  0  0  0  0
 11 12  2  0  0  0  0
 11 23  1  0  0  0  0
 12 24  1  0  0  0  0
 13 20  1  0  0  0  0
 13 22  2  0  0  0  0
 14 24  2  0  0  0  0
 14 25  1  0  0  0  0
 15 26  1  0  0  0  0
 16 26  1  0  0  0  0
 16 29  2  0  0  0  0
 16 30  1  0  0  0  0
 17 19  2  0  0  0  0
 17 35  1  0  0  0  0
 18 20  2  0  0  0  0
 18 36  1  0  0  0  0
 19 44  1  0  0  0  0
 20 37  1  0  0  0  0
 21 80  1  0  0  0  0
 22 81  1  0  0  0  0
 23 25  2  0  0  0  0
 23 80  1  0  0  0  0
 24 82  1  0  0  0  0
 25 83  1  0  0  0  0
 26 63  2  0  0  0  0
 27 28  2  0  0  0  0
 27 53  1  0  0  0  0
 27 64  1  0  0  0  0
 28 47  1  0  0  0  0
 28 66  1  0  0  0  0
 29 67  1  0  0  0  0
 29 70  1  0  0  0  0
 30 71  1  0  0  0  0
 30 75  2  0  0  0  0
 31 45  1  0  0  0  0
 31 72  1  0  0  0  0
 31 76  2  0  0  0  0
 32 54  1  0  0  0  0
 32 69  1  0  0  0  0
 32 77  2  0  0  0  0
 33 60  1  0  0  0  0
 33 68  1  0  0  0  0
 33 78  2  0  0  0  0
 34 61  1  0  0  0  0
 34 73  1  0  0  0  0
 34 79  2  0  0  0  0
 35 38  1  0  0  0  0
 36 45  1  0  0  0  0
 37 68  1  0  0  0  0
 38 40  1  0  0  0  0
 39 41  1  0  0  0  0
 39 42  1  0  0  0  0
 40 44  1  0  0  0  0
 41 46  1  0  0  0  0
 42 69  1  0  0  0  0
 43 46  1  0  0  0  0
 43 69  1  0  0  0  0
 44 72  1  0  0  0  0
 45 68  1  0  0  0  0
 46 67  1  0  0  0  0
 48 61  1  0  0  0  0
 49 62  1  0  0  0  0
 50 62  1  0  0  0  0
 51 62  1  0  0  0  0
 52 74  1  0  0  0  0
 53 55  1  0  0  0  0
 54 66  1  0  0  0  0
 55 56  1  0  0  0  0
 56 57  1  0  0  0  0
 57 58  1  0  0  0  0
 58 59  1  0  0  0  0
 59 81  1  0  0  0  0
 60 62  1  0  0  0  0
 60 73  1  0  0  0  0
 61 74  1  0  0  0  0
 63 67  1  0  0  0  0
 64 65  2  0  0  0  0
 65 66  1  0  0  0  0
M  CHG  1  74   1
M  ISO  4  32 100  54 100  59 101  81 101
M  END
> <Batch ID>
0045

> <Smiles>
CNC(C)C(=O)NC(C(=O)N1Cc2cc([101O:1][101CH2:1]CCCCCc3nnn([100CH2:0][100C:0](=O)N4CCCC(n5nc(-c6ccc(Oc7ccc(F)cc7F)cc6)c(C(N)=O)c5N)C4)c3C)ccc2CC1C(=O)NC1CCCc2ccccc21)C(C)(C)C

> <Shape>
0.278

> <Color>
0.111

> <Negative vol penalty>
0.000

$$$$

  -OEChem-04052317193D

 91100  0     1  0  0  0  0  0999 V2000
  -30.1031  -24.3963   18.7958 C   0  0  0  0  0  0  0  0  0  0  0  0
  -28.7188  -24.5330   18.7723 C   0  0  0  0  0  0  0  0  0  0  0  0
  -28.3272  -14.2930   21.0853 C   0  0  0  0  0  0  0  0  0  0  0  0
  -26.4866  -15.1769   19.7937 C   0  0  0  0  0  0  0  0  0  0  0  0
  -30.8400  -24.9554   19.8390 C   0  0  0  0  0  0  0  0  0  0  0  0
  -28.0706  -25.2280   19.7927 C   0  0  0  0  0  0  0  0  0  0  0  0
  -23.0648  -28.7169   19.2670 C   0  0  0  0  0  0  0  0  0  0  0  0
  -27.7063  -13.0443   21.1156 C   0  0  0  0  0  0  0  0  0  0  0  0
  -25.8657  -13.9282   19.8240 C   0  0  0  0  0  0  0  0  0  0  0  0
  -21.7167  -28.4671   19.5195 C   0  0  0  0  0  0  0  0  0  0  0  0
  -23.9671  -10.8807   19.2532 C   0  0  0  0  0  0  0  0  0  0  0  0
  -23.4228  -10.3972   18.0634 C   0  0  0  0  0  0  0  0  0  0  0  0
  -21.9507  -29.4508   21.7096 C   0  0  0  0  0  0  0  0  0  0  0  0
  -21.2409  -22.0292   20.0771 C   0  0  0  0  0  0  0  0  0  0  0  0
  -23.6436  -22.2817   20.0838 C   0  0  0  0  0  0  0  0  0  0  0  0
  -25.6055  -10.4809   17.0310 C   0  0  0  0  0  0  0  0  0  0  0  0
  -18.4482  -24.4322   20.3738 C   0  0  0  0  0  0  0  0  0  0  0  0
  -27.7173  -15.3593   20.4244 C   0  0  0  0  0  0  0  0  0  0  0  0
  -29.2643  -17.1255   19.4269 C   0  0  0  0  0  0  0  0  0  0  0  0
  -30.2014  -25.6659   20.8676 C   0  0  0  0  0  0  0  0  0  0  0  0
  -23.8701  -29.3267   20.2397 C   0  0  0  0  0  0  0  0  0  0  0  0
  -28.7995  -25.7960   20.8513 C   0  0  0  0  0  0  0  0  0  0  0  0
  -23.3082  -29.7096   21.4661 C   0  0  0  0  0  0  0  0  0  0  0  0
  -22.4786  -21.8257   19.4670 C   0  0  0  0  0  0  0  0  0  0  0  0
  -21.1681  -22.6889   21.3039 C   0  0  0  0  0  0  0  0  0  0  0  0
  -23.5708  -22.9414   21.3107 C   0  0  0  0  0  0  0  0  0  0  0  0
  -22.3331  -23.1449   21.9208 C   0  0  0  0  0  0  0  0  0  0  0  0
  -26.4756  -12.8619   20.4849 C   0  0  0  0  0  0  0  0  0  0  0  0
  -21.1601  -28.8314   20.7420 C   0  0  0  0  0  0  0  0  0  0  0  0
  -25.3306  -11.1644   19.3319 C   0  0  0  0  0  0  0  0  0  0  0  0
  -24.2420  -10.1973   16.9523 C   0  0  0  0  0  0  0  0  0  0  0  0
  -26.1498  -10.9644   18.2208 C   0  0  0  0  0  0  0  0  0  0  0  0
  -28.3580  -16.6496   20.3932 C   0  0  0  0  0  0  0  0  0  0  0  0
  -19.1331  -24.1523   21.5715 C   0  0  0  0  0  0  0  0  0  0  0  0
  -18.0116  -25.7259   20.5221 C   0  0  0  0  0  0  0  0  0  0  0  0
  -29.5784  -18.3950   19.8467 C   0  0  0  0  0  0  0  0  0  0  0  0
  -29.7765  -16.4780   18.2547 C   0  0  0  0  0  0  0  0  0  0  0  0
  -26.4560  -28.4633   21.8741 C   0  0  0  0  0  0  0  0  0  0  0  0
  -26.3395  -31.5305   22.9236 C   0  0  0  0  0  0  0  0  0  0  0  0
  -24.4694  -34.3267   23.4988 C   0  0  0  0  0  0  0  0  0  0  0  0
  -26.6936  -22.3991   23.2373 C   0  0  0  0  0  0  0  0  0  0  0  0
  -31.0357  -26.2120   21.9991 C   0  0  0  0  0  0  0  0  0  0  0  0
  -25.3162  -29.6135   19.9418 C   0  0  0  0  0  0  0  0  0  0  0  0
  -24.1250  -30.3854   22.5359 C   0  0  0  0  0  0  0  0  0  0  0  0
  -30.3081  -27.2543   22.8444 C   0  0  0  0  0  0  0  0  0  0  0  0
  -29.9362  -21.0462   23.8133 C   0  0  0  0  0  0  0  0  0  0  0  0
  -28.9030  -26.7732   23.1923 C   0  0  0  0  0  0  0  0  0  0  0  0
  -29.9812  -19.8089   22.9149 C   0  0  0  0  0  0  0  0  0  0  0  0
  -28.5487  -21.2561   24.4156 C   0  0  0  0  0  0  0  0  0  0  0  0
  -27.4928  -20.0610   22.5367 C   0  0  0  0  0  0  0  0  0  0  0  0
  -28.0624  -26.5640   21.9269 C   0  0  1  0  0  0  0  0  0  0  0  0
  -26.1650  -29.7739   21.1993 C   0  0  1  0  0  0  0  0  0  0  0  0
  -28.8572  -19.8395   21.8618 C   0  0  2  0  0  0  0  0  0  0  0  0
  -22.5564  -21.1210   18.1550 C   0  0  0  0  0  0  0  0  0  0  0  0
  -22.6656  -22.9540   24.3986 C   0  0  0  0  0  0  0  0  0  0  0  0
  -15.7222  -26.4778   19.8293 C   0  0  0  0  0  0  0  0  0  0  0  0
  -24.6444  -36.6630   24.3978 C   0  0  0  0  0  0  0  0  0  0  0  0
  -26.4104  -30.4281   25.7679 C   0  0  0  0  0  0  0  0  0  0  0  0
  -25.6360  -32.6661   26.5802 C   0  0  0  0  0  0  0  0  0  0  0  0
  -27.8240  -32.4581   25.4003 C   0  0  0  0  0  0  0  0  0  0  0  0
  -23.6497  -35.5077   20.9119 C   0  0  0  0  0  0  0  0  0  0  0  0
  -19.8041  -22.8971   21.9492 C   0  0  0  0  0  0  0  0  0  0  0  0
  -22.2548  -23.8518   23.2364 C   0  0  0  0  0  0  0  0  0  0  0  0
  -24.8331  -23.4200   21.9506 C   0  0  0  0  0  0  0  0  0  0  0  0
  -17.2362  -26.5959   19.6191 C   0  0  0  0  0  0  0  0  0  0  0  0
  -18.2260  -27.4744   22.3954 C   0  0  0  0  0  0  0  0  0  0  0  0
  -19.4741  -28.3491   22.3485 C   0  0  0  0  0  0  0  0  0  1  0  0
  -25.6786  -32.2401   24.0806 C   0  0  1  0  0  0  0  0  0  0  0  0
  -24.7085  -35.7863   23.1569 C   0  0  2  0  0  0  0  0  0  0  0  0
  -26.3720  -31.9336   25.4380 C   0  0  0  0  0  0  0  0  0  0  0  0
  -28.1123  -17.5438   21.3545 N   0  0  0  0  0  0  0  0  0  0  0  0
  -19.1343  -25.1854   22.4182 N   0  0  0  0  0  0  0  0  0  0  0  0
  -18.4449  -26.1269   21.7516 N   0  0  0  0  0  0  0  0  0  0  0  0
  -28.8690  -18.5944   20.9943 N   0  0  0  0  0  0  0  0  0  0  0  0
  -25.5357  -30.6387   22.1994 N   0  0  0  0  0  0  0  0  0  0  0  0
  -27.5288  -21.2769   23.3643 N   0  0  0  0  0  0  0  0  0  0  0  0
  -30.3895  -19.3491   19.3423 N   0  0  0  0  0  0  0  0  0  0  0  0
  -29.3496  -15.1734   17.9716 N   0  0  0  0  0  0  0  0  0  0  0  0
  -27.5971  -27.8346   21.4135 N   0  0  0  0  0  0  0  0  0  0  0  0
  -25.6518  -33.6559   23.7295 N   0  0  0  0  0  0  0  0  0  0  0  0
  -25.7586  -22.3400   22.2111 N   0  0  0  0  0  0  0  0  0  0  0  0
  -23.6822  -36.2663   22.1888 N   0  3  0  0  0  0  0  0  0  0  0  0
  -30.6013  -17.0336   17.4901 O   0  0  0  0  0  0  0  0  0  0  0  0
  -25.7020  -28.0537   22.7490 O   0  0  0  0  0  0  0  0  0  0  0  0
  -27.5232  -31.7643   22.6674 O   0  0  0  0  0  0  0  0  0  0  0  0
  -23.3459  -33.8321   23.5590 O   0  0  0  0  0  0  0  0  0  0  0  0
  -26.7786  -23.3832   23.9797 O   0  0  0  0  0  0  0  0  0  0  0  0
  -25.8695  -11.6436   20.5141 O   0  0  0  0  0  0  0  0  0  0  0  0
  -19.8446  -28.5881   20.9913 O   0  0  0  0  0  0  0  0  0  1  0  0
  -23.7195   -9.7315   15.8103 F   0  0  0  0  0  0  0  0  0  0  0  0
  -27.4606  -11.2340   18.2907 F   0  0  0  0  0  0  0  0  0  0  0  0
  1  2  1  0  0  0  0
  1  5  2  0  0  0  0
  2  6  2  0  0  0  0
  3  8  2  0  0  0  0
  3 18  1  0  0  0  0
  4  9  1  0  0  0  0
  4 18  2  0  0  0  0
  5 20  1  0  0  0  0
  6 22  1  0  0  0  0
  7 10  2  0  0  0  0
  7 21  1  0  0  0  0
  8 28  1  0  0  0  0
  9 28  2  0  0  0  0
 10 29  1  0  0  0  0
 11 12  2  0  0  0  0
 11 30  1  0  0  0  0
 12 31  1  0  0  0  0
 13 23  1  0  0  0  0
 13 29  2  0  0  0  0
 14 24  2  0  0  0  0
 14 25  1  0  0  0  0
 15 24  1  0  0  0  0
 15 26  2  0  0  0  0
 16 31  2  0  0  0  0
 16 32  1  0  0  0  0
 17 34  1  0  0  0  0
 17 35  2  0  0  0  0
 18 33  1  0  0  0  0
 19 33  1  0  0  0  0
 19 36  2  0  0  0  0
 19 37  1  0  0  0  0
 20 22  2  0  0  0  0
 20 42  1  0  0  0  0
 21 23  2  0  0  0  0
 21 43  1  0  0  0  0
 22 51  1  0  0  0  0
 23 44  1  0  0  0  0
 24 54  1  0  0  0  0
 25 27  2  0  0  0  0
 25 62  1  0  0  0  0
 26 27  1  0  0  0  0
 26 64  1  0  0  0  0
 27 63  1  0  0  0  0
 28 88  1  0  0  0  0
 29 89  1  0  0  0  0
 30 32  2  0  0  0  0
 30 88  1  0  0  0  0
 31 90  1  0  0  0  0
 32 91  1  0  0  0  0
 33 71  2  0  0  0  0
 34 62  1  0  0  0  0
 34 72  2  0  0  0  0
 35 65  1  0  0  0  0
 35 73  1  0  0  0  0
 36 74  1  0  0  0  0
 36 77  1  0  0  0  0
 37 78  1  0  0  0  0
 37 83  2  0  0  0  0
 38 52  1  0  0  0  0
 38 79  1  0  0  0  0
 38 84  2  0  0  0  0
 39 68  1  0  0  0  0
 39 75  1  0  0  0  0
 39 85  2  0  0  0  0
 40 69  1  0  0  0  0
 40 80  1  0  0  0  0
 40 86  2  0  0  0  0
 41 76  1  0  0  0  0
 41 81  1  0  0  0  0
 41 87  2  0  0  0  0
 42 45  1  0  0  0  0
 43 52  1  0  0  0  0
 44 75  1  0  0  0  0
 45 47  1  0  0  0  0
 46 48  1  0  0  0  0
 46 49  1  0  0  0  0
 47 51  1  0  0  0  0
 48 53  1  0  0  0  0
 49 76  1  0  0  0  0
 50 53  1  0  0  0  0
 50 76  1  0  0  0  0
 51 79  1  0  0  0  0
 52 75  1  0  0  0  0
 53 74  1  0  0  0  0
 55 63  1  0  0  0  0
 56 65  1  0  0  0  0
 57 69  1  0  0  0  0
 58 70  1  0  0  0  0
 59 70  1  0  0  0  0
 60 70  1  0  0  0  0
 61 82  1  0  0  0  0
 64 81  1  0  0  0  0
 66 67  1  0  0  0  0
 66 73  1  0  0  0  0
 67 89  1  0  0  0  0
 68 70  1  0  0  0  0
 68 80  1  0  0  0  0
 69 82  1  0  0  0  0
 71 74  1  0  0  0  0
 72 73  1  0  0  0  0
M  CHG  1  82   1
M  ISO  4  41 100  67 101  81 100  89 101
M  END
> <Batch ID>
0045

> <Smiles>
CCc1c(C[100NH:0][100C:0](=O)N2CCCC(n3nc(-c4ccc(Oc5ccc(F)cc5F)cc4)c(C(N)=O)c3N)C2)cc(C)cc1Cc1cc(CC)n(C[101CH2:1][101O:1]c2ccc3c(c2)CN(C(=O)C(NC(=O)C(C)NC)C(C)(C)C)C(C(=O)NC2CCCc4ccccc42)C3)n1

> <Shape>
0.275

> <Color>
0.064

> <Negative vol penalty>
0.000

$$$$

  -OEChem-04052317193D

 88 96  0     1  0  0  0  0  0999 V2000
  -16.8829  -30.0799   24.6120 C   0  0  0  0  0  0  0  0  0  0  0  0
  -18.1390  -30.6285   24.8445 C   0  0  0  0  0  0  0  0  0  0  0  0
  -19.2133  -23.7634   14.2284 C   0  0  0  0  0  0  0  0  0  0  0  0
  -20.3064  -21.9191   15.3425 C   0  0  0  0  0  0  0  0  0  0  0  0
  -16.7526  -28.9798   23.7670 C   0  0  0  0  0  0  0  0  0  0  0  0
  -19.2636  -30.0848   24.2228 C   0  0  0  0  0  0  0  0  0  0  0  0
  -26.9428  -29.2453   22.3391 C   0  0  0  0  0  0  0  0  0  0  0  0
  -18.1251  -22.9415   13.9356 C   0  0  0  0  0  0  0  0  0  0  0  0
  -19.2180  -21.0973   15.0497 C   0  0  0  0  0  0  0  0  0  0  0  0
  -27.8689  -28.3410   21.8210 C   0  0  0  0  0  0  0  0  0  0  0  0
  -16.8862  -18.4168   14.2832 C   0  0  0  0  0  0  0  0  0  0  0  0
  -17.1526  -17.1362   13.7988 C   0  0  0  0  0  0  0  0  0  0  0  0
  -26.5006  -28.0774   19.8518 C   0  0  0  0  0  0  0  0  0  0  0  0
  -18.3072  -18.0931   11.9045 C   0  0  0  0  0  0  0  0  0  0  0  0
  -20.3040  -23.2522   14.9319 C   0  0  0  0  0  0  0  0  0  0  0  0
  -21.6080  -24.8986   16.3799 C   0  0  0  0  0  0  0  0  0  0  0  0
  -17.8782  -28.4152   23.1448 C   0  0  0  0  0  0  0  0  0  0  0  0
  -25.7814  -29.5646   21.6211 C   0  0  0  0  0  0  0  0  0  0  0  0
  -19.1496  -28.9894   23.3477 C   0  0  0  0  0  0  0  0  0  0  0  0
  -25.5627  -28.9880   20.3619 C   0  0  0  0  0  0  0  0  0  0  0  0
  -30.5815  -25.0243   19.1011 C   0  0  0  0  0  0  0  0  0  0  0  0
  -29.8509  -24.6194   17.9896 C   0  0  0  0  0  0  0  0  0  0  0  0
  -31.0862  -24.0716   19.9791 C   0  0  0  0  0  0  0  0  0  0  0  0
  -18.1274  -21.6085   14.3463 C   0  0  0  0  0  0  0  0  0  0  0  0
  -27.6464  -27.7547   20.5784 C   0  0  0  0  0  0  0  0  0  0  0  0
  -17.3301  -19.5356   13.5783 C   0  0  0  0  0  0  0  0  0  0  0  0
  -17.8631  -16.9744   12.6094 C   0  0  0  0  0  0  0  0  0  0  0  0
  -18.0407  -19.3737   12.3889 C   0  0  0  0  0  0  0  0  0  0  0  0
  -21.4288  -24.1005   15.2341 C   0  0  0  0  0  0  0  0  0  0  0  0
  -29.6547  -23.2606   17.8023 C   0  0  0  0  0  0  0  0  0  0  0  0
  -30.8345  -22.7374   19.7029 C   0  0  0  0  0  0  0  0  0  0  0  0
  -22.8259  -25.5043   16.1894 C   0  0  0  0  0  0  0  0  0  0  0  0
  -20.7502  -25.0764   17.5149 C   0  0  0  0  0  0  0  0  0  0  0  0
  -22.6625  -29.2348   22.1385 C   0  0  0  0  0  0  0  0  0  0  0  0
  -22.4219  -30.9429   19.3914 C   0  0  0  0  0  0  0  0  0  0  0  0
  -24.0723  -31.0179   16.1840 C   0  0  0  0  0  0  0  0  0  0  0  0
  -27.6641  -24.0160   12.9913 C   0  0  0  0  0  0  0  0  0  0  0  0
  -17.6788  -27.2298   22.2336 C   0  0  0  0  0  0  0  0  0  0  0  0
  -24.8054  -30.5623   22.1820 C   0  0  0  0  0  0  0  0  0  0  0  0
  -24.3416  -29.3128   19.5422 C   0  0  0  0  0  0  0  0  0  0  0  0
  -18.9669  -26.4547   21.9760 C   0  0  0  0  0  0  0  0  0  0  0  0
  -25.7571  -27.0105   12.7210 C   0  0  0  0  0  0  0  0  0  0  0  0
  -20.0777  -27.4124   21.5717 C   0  0  0  0  0  0  0  0  0  0  0  0
  -24.4477  -26.6763   13.4378 C   0  0  0  0  0  0  0  0  0  0  0  0
  -26.3038  -25.8081   11.9547 C   0  0  0  0  0  0  0  0  0  0  0  0
  -25.1522  -24.2471   13.4748 C   0  0  0  0  0  0  0  0  0  0  0  0
  -20.3909  -28.3957   22.7065 C   0  0  1  0  0  0  0  0  0  0  0  0
  -23.4044  -30.4228   21.5945 C   0  0  1  0  0  0  0  0  0  0  0  0
  -24.5912  -25.4127   14.3073 C   0  0  2  0  0  0  0  0  0  0  0  0
  -29.2975  -25.6179   17.0290 C   0  0  0  0  0  0  0  0  0  0  0  0
  -32.2494  -20.6753   19.8823 C   0  0  0  0  0  0  0  0  0  0  0  0
  -33.3167  -23.9362   21.1454 C   0  0  0  0  0  0  0  0  0  0  0  0
  -31.1926  -24.0572   22.4976 C   0  0  0  0  0  0  0  0  0  0  0  0
  -24.3676  -32.8947   14.5445 C   0  0  0  0  0  0  0  0  0  0  0  0
  -19.8970  -29.8223   18.0956 C   0  0  0  0  0  0  0  0  0  0  0  0
  -20.9020  -30.3320   15.8599 C   0  0  0  0  0  0  0  0  0  0  0  0
  -20.4333  -32.1824   17.4659 C   0  0  0  0  0  0  0  0  0  0  0  0
  -27.0136  -30.6903   16.1618 C   0  0  0  0  0  0  0  0  0  0  0  0
  -30.8237  -26.4923   19.3554 C   0  0  0  0  0  0  0  0  0  0  0  0
  -28.8784  -22.7649   16.6264 C   0  0  0  0  0  0  0  0  0  0  0  0
  -31.3487  -21.6681   20.6105 C   0  0  0  0  0  0  0  0  0  0  0  0
  -29.6733  -22.7339   15.3071 C   0  0  0  0  0  0  0  0  0  0  0  0
  -28.8950  -22.1781   14.1165 C   0  0  0  0  0  0  0  0  0  0  0  0
  -29.9139  -27.0499   20.4446 C   0  0  0  0  0  0  0  0  0  1  0  0
  -31.8740  -24.4741   21.1808 C   0  0  0  0  0  0  0  0  0  0  0  0
  -22.3525  -30.6012   17.9226 C   0  0  1  0  0  0  0  0  0  0  0  0
  -25.0087  -32.0959   15.6687 C   0  0  2  0  0  0  0  0  0  0  0  0
  -20.9099  -30.7178   17.3545 C   0  0  0  0  0  0  0  0  0  0  0  0
  -22.4510  -24.1891   14.3790 N   0  0  0  0  0  0  0  0  0  0  0  0
  -30.1293  -22.3058   18.6333 N   0  0  0  0  0  0  0  0  0  0  0  0
  -23.2842  -25.0501   14.9878 N   0  0  0  0  0  0  0  0  0  0  0  0
  -23.4137  -30.2893   20.1363 N   0  0  0  0  0  0  0  0  0  0  0  0
  -26.4171  -24.6438   12.8364 N   0  0  0  0  0  0  0  0  0  0  0  0
  -23.5387  -26.3758   16.9342 N   0  0  0  0  0  0  0  0  0  0  0  0
  -19.5352  -24.3786   17.5501 N   0  0  0  0  0  0  0  0  0  0  0  0
  -21.2943  -29.4124   22.2144 N   0  0  0  0  0  0  0  0  0  0  0  0
  -23.3277  -31.4585   17.2575 N   0  0  0  0  0  0  0  0  0  0  0  0
  -27.6851  -22.9238   13.8500 N   0  0  0  0  0  0  0  0  0  0  0  0
  -26.2671  -31.4861   15.1536 N   0  3  0  0  0  0  0  0  0  0  0  0
  -21.0447  -25.8445   18.4620 O   0  0  0  0  0  0  0  0  0  0  0  0
  -23.2852  -28.2308   22.4639 O   0  0  0  0  0  0  0  0  0  0  0  0
  -21.6300  -31.7651   19.8591 O   0  0  0  0  0  0  0  0  0  0  0  0
  -24.0054  -29.8981   15.6818 O   0  0  0  0  0  0  0  0  0  0  0  0
  -28.6842  -24.4037   12.4117 O   0  0  0  0  0  0  0  0  0  0  0  0
  -17.0655  -20.8063   14.0609 O   0  0  0  0  0  0  0  0  0  0  0  0
  -28.5484  -26.8712   20.0706 O   0  0  0  0  0  0  0  0  0  1  0  0
  -18.1203  -15.7445   12.1451 F   0  0  0  0  0  0  0  0  0  0  0  0
  -18.4708  -20.4447   11.7079 F   0  0  0  0  0  0  0  0  0  0  0  0
  1  2  1  0  0  0  0
  1  5  2  0  0  0  0
  2  6  2  0  0  0  0
  3  8  2  0  0  0  0
  3 15  1  0  0  0  0
  4  9  1  0  0  0  0
  4 15  2  0  0  0  0
  5 17  1  0  0  0  0
  6 19  1  0  0  0  0
  7 10  2  0  0  0  0
  7 18  1  0  0  0  0
  8 24  1  0  0  0  0
  9 24  2  0  0  0  0
 10 25  1  0  0  0  0
 11 12  2  0  0  0  0
 11 26  1  0  0  0  0
 12 27  1  0  0  0  0
 13 20  1  0  0  0  0
 13 25  2  0  0  0  0
 14 27  2  0  0  0  0
 14 28  1  0  0  0  0
 15 29  1  0  0  0  0
 16 29  1  0  0  0  0
 16 32  2  0  0  0  0
 16 33  1  0  0  0  0
 17 19  2  0  0  0  0
 17 38  1  0  0  0  0
 18 20  2  0  0  0  0
 18 39  1  0  0  0  0
 19 47  1  0  0  0  0
 20 40  1  0  0  0  0
 21 22  2  0  0  0  0
 21 23  1  0  0  0  0
 21 59  1  0  0  0  0
 22 30  1  0  0  0  0
 22 50  1  0  0  0  0
 23 31  2  0  0  0  0
 23 65  1  0  0  0  0
 24 85  1  0  0  0  0
 25 86  1  0  0  0  0
 26 28  2  0  0  0  0
 26 85  1  0  0  0  0
 27 87  1  0  0  0  0
 28 88  1  0  0  0  0
 29 69  2  0  0  0  0
 30 60  1  0  0  0  0
 30 70  2  0  0  0  0
 31 61  1  0  0  0  0
 31 70  1  0  0  0  0
 32 71  1  0  0  0  0
 32 74  1  0  0  0  0
 33 75  1  0  0  0  0
 33 80  2  0  0  0  0
 34 48  1  0  0  0  0
 34 76  1  0  0  0  0
 34 81  2  0  0  0  0
 35 66  1  0  0  0  0
 35 72  1  0  0  0  0
 35 82  2  0  0  0  0
 36 67  1  0  0  0  0
 36 77  1  0  0  0  0
 36 83  2  0  0  0  0
 37 73  1  0  0  0  0
 37 78  1  0  0  0  0
 37 84  2  0  0  0  0
 38 41  1  0  0  0  0
 39 48  1  0  0  0  0
 40 72  1  0  0  0  0
 41 43  1  0  0  0  0
 42 44  1  0  0  0  0
 42 45  1  0  0  0  0
 43 47  1  0  0  0  0
 44 49  1  0  0  0  0
 45 73  1  0  0  0  0
 46 49  1  0  0  0  0
 46 73  1  0  0  0  0
 47 76  1  0  0  0  0
 48 72  1  0  0  0  0
 49 71  1  0  0  0  0
 51 61  1  0  0  0  0
 52 65  1  0  0  0  0
 53 65  1  0  0  0  0
 54 67  1  0  0  0  0
 55 68  1  0  0  0  0
 56 68  1  0  0  0  0
 57 68  1  0  0  0  0
 58 79  1  0  0  0  0
 59 64  1  0  0  0  0
 60 62  1  0  0  0  0
 62 63  1  0  0  0  0
 63 78  1  0  0  0  0
 64 86  1  0  0  0  0
 66 68  1  0  0  0  0
 66 77  1  0  0  0  0
 67 79  1  0  0  0  0
 69 71  1  0  0  0  0
M  CHG  1  79   1
M  ISO  4  37 100  64 101  78 100  86 101
M  END
> <Batch ID>
0045

> <Smiles>
CCc1nc(CCC[100NH:0][100C:0](=O)N2CCCC(n3nc(-c4ccc(Oc5ccc(F)cc5F)cc4)c(C(N)=O)c3N)C2)c(C)c(C[101CH2:1][101O:1]c2ccc3c(c2)CN(C(=O)C(NC(=O)C(C)NC)C(C)(C)C)C(C(=O)NC2CCCc4ccccc42)C3)c1C(C)C

> <Shape>
0.179

> <Color>
0.099

> <Negative vol penalty>
0.000

$$$$

  -OEChem-04052317193D

 83 91  0     1  0  0  0  0  0999 V2000
  -17.5257  -24.6226   22.3467 C   0  0  0  0  0  0  0  0  0  0  0  0
  -18.6226  -24.4505   21.5085 C   0  0  0  0  0  0  0  0  0  0  0  0
  -25.8945  -14.9405   21.4014 C   0  0  0  0  0  0  0  0  0  0  0  0
  -25.0981  -16.6711   19.9156 C   0  0  0  0  0  0  0  0  0  0  0  0
  -17.3127  -25.8510   22.9708 C   0  0  0  0  0  0  0  0  0  0  0  0
  -19.5067  -25.5071   21.2931 C   0  0  0  0  0  0  0  0  0  0  0  0
  -24.3548  -24.0659   21.5445 C   0  0  0  0  0  0  0  0  0  0  0  0
  -24.6173  -14.3809   21.4342 C   0  0  0  0  0  0  0  0  0  0  0  0
  -23.8209  -16.1115   19.9484 C   0  0  0  0  0  0  0  0  0  0  0  0
  -24.8819  -23.4080   20.4340 C   0  0  0  0  0  0  0  0  0  0  0  0
  -22.7041  -12.4224   19.4500 C   0  0  0  0  0  0  0  0  0  0  0  0
  -22.5990  -11.0384   19.3119 C   0  0  0  0  0  0  0  0  0  0  0  0
  -25.9156  -25.4651   19.7136 C   0  0  0  0  0  0  0  0  0  0  0  0
  -21.5450  -10.9019   21.4816 C   0  0  0  0  0  0  0  0  0  0  0  0
  -26.1350  -16.0857   20.6421 C   0  0  0  0  0  0  0  0  0  0  0  0
  -28.4906  -16.3655   19.7040 C   0  0  0  0  0  0  0  0  0  0  0  0
  -18.1999  -26.9203   22.7706 C   0  0  0  0  0  0  0  0  0  0  0  0
  -24.5955  -25.4331   21.7424 C   0  0  0  0  0  0  0  0  0  0  0  0
  -19.3046  -26.7514   21.9141 C   0  0  0  0  0  0  0  0  0  0  0  0
  -25.3926  -26.1374   20.8288 C   0  0  0  0  0  0  0  0  0  0  0  0
  -23.5805  -14.9664   20.7077 C   0  0  0  0  0  0  0  0  0  0  0  0
  -25.6600  -24.1083   19.5168 C   0  0  0  0  0  0  0  0  0  0  0  0
  -22.2297  -13.0462   20.6040 C   0  0  0  0  0  0  0  0  0  0  0  0
  -22.0195  -10.2782   20.3276 C   0  0  0  0  0  0  0  0  0  0  0  0
  -21.6502  -12.2859   21.6197 C   0  0  0  0  0  0  0  0  0  0  0  0
  -27.4540  -16.6645   20.6083 C   0  0  0  0  0  0  0  0  0  0  0  0
  -31.1220  -23.7948   18.3829 C   0  0  0  0  0  0  0  0  0  0  0  0
  -29.9154  -22.4388   16.9919 C   0  0  0  0  0  0  0  0  0  0  0  0
  -30.0761  -23.8060   19.2793 C   0  0  0  0  0  0  0  0  0  0  0  0
  -28.8698  -22.4493   17.8886 C   0  0  0  0  0  0  0  0  0  0  0  0
  -29.5289  -17.1770   20.0913 C   0  0  0  0  0  0  0  0  0  0  0  0
  -28.5130  -15.4373   18.6115 C   0  0  0  0  0  0  0  0  0  0  0  0
  -22.7711  -28.0305   21.9115 C   0  0  0  0  0  0  0  0  0  0  0  0
  -25.5699  -29.4701   22.6970 C   0  0  0  0  0  0  0  0  0  0  0  0
  -28.9797  -29.4448   22.5584 C   0  0  0  0  0  0  0  0  0  0  0  0
  -29.7530  -22.3877   23.0322 C   0  0  0  0  0  0  0  0  0  0  0  0
  -17.9021  -28.2438   23.4296 C   0  0  0  0  0  0  0  0  0  0  0  0
  -24.0420  -26.1220   22.9596 C   0  0  0  0  0  0  0  0  0  0  0  0
  -25.6974  -27.6016   21.0064 C   0  0  0  0  0  0  0  0  0  0  0  0
  -19.0931  -29.1986   23.4443 C   0  0  0  0  0  0  0  0  0  0  0  0
  -31.3514  -19.3413   23.9494 C   0  0  0  0  0  0  0  0  0  0  0  0
  -19.7574  -29.2446   22.0719 C   0  0  0  0  0  0  0  0  0  0  0  0
  -30.6273  -18.2829   23.1155 C   0  0  0  0  0  0  0  0  0  0  0  0
  -30.3990  -20.4390   24.4184 C   0  0  0  0  0  0  0  0  0  0  0  0
  -28.8947  -20.0239   22.5109 C   0  0  0  0  0  0  0  0  0  0  0  0
  -20.2997  -27.8662   21.6751 C   0  0  1  0  0  0  0  0  0  0  0  0
  -23.9244  -27.6334   22.7890 C   0  0  1  0  0  0  0  0  0  0  0  0
  -29.8248  -18.9254   21.9682 C   0  0  2  0  0  0  0  0  0  0  0  0
  -32.3830  -24.5431   18.6499 C   0  0  0  0  0  0  0  0  0  0  0  0
  -29.8344  -21.6784   15.7124 C   0  0  0  0  0  0  0  0  0  0  0  0
  -30.9896  -30.7743   23.2584 C   0  0  0  0  0  0  0  0  0  0  0  0
  -25.0301  -31.4639   20.4512 C   0  0  0  0  0  0  0  0  0  0  0  0
  -27.4370  -32.1429   20.5699 C   0  0  0  0  0  0  0  0  0  0  0  0
  -25.9503  -32.4752   22.5452 C   0  0  0  0  0  0  0  0  0  0  0  0
  -30.0126  -27.2256   24.2219 C   0  0  0  0  0  0  0  0  0  0  0  0
  -30.1568  -24.5675   20.5580 C   0  0  0  0  0  0  0  0  0  0  0  0
  -27.5930  -21.6912   17.6180 C   0  0  0  0  0  0  0  0  0  0  0  0
  -29.0289  -24.2365   21.5432 C   0  0  0  0  0  0  0  0  0  0  0  0
  -26.4730  -22.0807   18.5766 C   0  0  0  0  0  0  0  0  0  1  0  0
  -26.6830  -30.1363   21.9249 C   0  0  1  0  0  0  0  0  0  0  0  0
  -30.0330  -29.6525   23.6316 C   0  0  2  0  0  0  0  0  0  0  0  0
  -26.2679  -31.5274   21.3681 C   0  0  0  0  0  0  0  0  0  0  0  0
  -27.8020  -17.5934   21.5028 N   0  0  0  0  0  0  0  0  0  0  0  0
  -31.0604  -23.1111   17.2231 N   0  0  0  0  0  0  0  0  0  0  0  0
  -28.9312  -23.1334   19.0482 N   0  0  0  0  0  0  0  0  0  0  0  0
  -29.0690  -17.8849   21.1625 N   0  0  0  0  0  0  0  0  0  0  0  0
  -25.1282  -28.2321   22.2089 N   0  0  0  0  0  0  0  0  0  0  0  0
  -29.6699  -21.0081   23.2824 N   0  0  0  0  0  0  0  0  0  0  0  0
  -30.7812  -17.3468   19.6167 N   0  0  0  0  0  0  0  0  0  0  0  0
  -27.3606  -14.6830   18.3518 N   0  0  0  0  0  0  0  0  0  0  0  0
  -21.5416  -27.5935   22.3662 N   0  0  0  0  0  0  0  0  0  0  0  0
  -27.8360  -30.1699   22.8181 N   0  0  0  0  0  0  0  0  0  0  0  0
  -29.0369  -22.8438   21.9322 N   0  0  0  0  0  0  0  0  0  0  0  0
  -30.8250  -28.4055   23.8283 N   0  3  0  0  0  0  0  0  0  0  0  0
  -29.5305  -15.2694   17.8972 O   0  0  0  0  0  0  0  0  0  0  0  0
  -22.9811  -28.6862   20.8977 O   0  0  0  0  0  0  0  0  0  0  0  0
  -25.1141  -30.0242   23.7004 O   0  0  0  0  0  0  0  0  0  0  0  0
  -29.1554  -28.7154   21.5849 O   0  0  0  0  0  0  0  0  0  0  0  0
  -30.4206  -23.1553   23.7337 O   0  0  0  0  0  0  0  0  0  0  0  0
  -22.3341  -14.4204   20.7393 O   0  0  0  0  0  0  0  0  0  0  0  0
  -26.1752  -23.4688   18.4317 O   0  0  0  0  0  0  0  0  0  1  0  0
  -21.9172   -8.9493   20.1942 F   0  0  0  0  0  0  0  0  0  0  0  0
  -21.1916  -12.8797   22.7301 F   0  0  0  0  0  0  0  0  0  0  0  0
  1  2  1  0  0  0  0
  1  5  2  0  0  0  0
  2  6  2  0  0  0  0
  3  8  2  0  0  0  0
  3 15  1  0  0  0  0
  4  9  1  0  0  0  0
  4 15  2  0  0  0  0
  5 17  1  0  0  0  0
  6 19  1  0  0  0  0
  7 10  2  0  0  0  0
  7 18  1  0  0  0  0
  8 21  1  0  0  0  0
  9 21  2  0  0  0  0
 10 22  1  0  0  0  0
 11 12  2  0  0  0  0
 11 23  1  0  0  0  0
 12 24  1  0  0  0  0
 13 20  1  0  0  0  0
 13 22  2  0  0  0  0
 14 24  2  0  0  0  0
 14 25  1  0  0  0  0
 15 26  1  0  0  0  0
 16 26  1  0  0  0  0
 16 31  2  0  0  0  0
 16 32  1  0  0  0  0
 17 19  2  0  0  0  0
 17 37  1  0  0  0  0
 18 20  2  0  0  0  0
 18 38  1  0  0  0  0
 19 46  1  0  0  0  0
 20 39  1  0  0  0  0
 21 80  1  0  0  0  0
 22 81  1  0  0  0  0
 23 25  2  0  0  0  0
 23 80  1  0  0  0  0
 24 82  1  0  0  0  0
 25 83  1  0  0  0  0
 26 63  2  0  0  0  0
 27 29  1  0  0  0  0
 27 49  1  0  0  0  0
 27 64  2  0  0  0  0
 28 30  2  0  0  0  0
 28 50  1  0  0  0  0
 28 64  1  0  0  0  0
 29 56  1  0  0  0  0
 29 65  2  0  0  0  0
 30 57  1  0  0  0  0
 30 65  1  0  0  0  0
 31 66  1  0  0  0  0
 31 69  1  0  0  0  0
 32 70  1  0  0  0  0
 32 75  2  0  0  0  0
 33 47  1  0  0  0  0
 33 71  1  0  0  0  0
 33 76  2  0  0  0  0
 34 60  1  0  0  0  0
 34 67  1  0  0  0  0
 34 77  2  0  0  0  0
 35 61  1  0  0  0  0
 35 72  1  0  0  0  0
 35 78  2  0  0  0  0
 36 68  1  0  0  0  0
 36 73  1  0  0  0  0
 36 79  2  0  0  0  0
 37 40  1  0  0  0  0
 38 47  1  0  0  0  0
 39 67  1  0  0  0  0
 40 42  1  0  0  0  0
 41 43  1  0  0  0  0
 41 44  1  0  0  0  0
 42 46  1  0  0  0  0
 43 48  1  0  0  0  0
 44 68  1  0  0  0  0
 45 48  1  0  0  0  0
 45 68  1  0  0  0  0
 46 71  1  0  0  0  0
 47 67  1  0  0  0  0
 48 66  1  0  0  0  0
 51 61  1  0  0  0  0
 52 62  1  0  0  0  0
 53 62  1  0  0  0  0
 54 62  1  0  0  0  0
 55 74  1  0  0  0  0
 56 58  1  0  0  0  0
 57 59  1  0  0  0  0
 58 73  1  0  0  0  0
 59 81  1  0  0  0  0
 60 62  1  0  0  0  0
 60 72  1  0  0  0  0
 61 74  1  0  0  0  0
 63 66  1  0  0  0  0
M  CHG  1  74   1
M  ISO  4  36 100  59 101  73 100  81 101
M  END
> <Batch ID>
0045

> <Smiles>
CNC(C)C(=O)NC(C(=O)N1Cc2cc([101O:1][101CH2:1]Cc3nc(CC[100NH:0][100C:0](=O)N4CCCC(n5nc(-c6ccc(Oc7ccc(F)cc7F)cc6)c(C(N)=O)c5N)C4)c(C)nc3C)ccc2CC1C(=O)NC1CCCc2ccccc21)C(C)(C)C

> <Shape>
0.245

> <Color>
0.066

> <Negative vol penalty>
0.000

$$$$

  -OEChem-04052317193D

 85 93  0     1  0  0  0  0  0999 V2000
  -27.8897   -8.7625   16.6128 C   0  0  0  0  0  0  0  0  0  0  0  0
  -27.0175   -9.5023   17.4048 C   0  0  0  0  0  0  0  0  0  0  0  0
  -24.8426  -30.9811   21.0522 C   0  0  0  0  0  0  0  0  0  0  0  0
  -24.4340  -29.4714   22.8936 C   0  0  0  0  0  0  0  0  0  0  0  0
  -29.2654   -8.9620   16.7190 C   0  0  0  0  0  0  0  0  0  0  0  0
  -27.5207  -10.4414   18.3044 C   0  0  0  0  0  0  0  0  0  0  0  0
  -24.9729  -14.8160   18.1743 C   0  0  0  0  0  0  0  0  0  0  0  0
  -24.1480  -31.9876   21.7232 C   0  0  0  0  0  0  0  0  0  0  0  0
  -23.7394  -30.4779   23.5646 C   0  0  0  0  0  0  0  0  0  0  0  0
  -23.7436  -14.8567   18.8307 C   0  0  0  0  0  0  0  0  0  0  0  0
  -22.7925  -35.0629   23.1089 C   0  0  0  0  0  0  0  0  0  0  0  0
  -23.3592  -36.3372   23.1323 C   0  0  0  0  0  0  0  0  0  0  0  0
  -24.7900  -15.9485   20.7101 C   0  0  0  0  0  0  0  0  0  0  0  0
  -20.9228  -18.7408   20.0664 C   0  0  0  0  0  0  0  0  0  0  0  0
  -25.3058  -35.4509   24.2560 C   0  0  0  0  0  0  0  0  0  0  0  0
  -24.9855  -29.7230   21.6374 C   0  0  0  0  0  0  0  0  0  0  0  0
  -27.0801  -28.4035   21.0215 C   0  0  0  0  0  0  0  0  0  0  0  0
  -29.7853   -9.9109   17.6135 C   0  0  0  0  0  0  0  0  0  0  0  0
  -26.1241  -15.3324   18.7864 C   0  0  0  0  0  0  0  0  0  0  0  0
  -28.9048  -10.6529   18.4237 C   0  0  0  0  0  0  0  0  0  0  0  0
  -26.0322  -15.9155   20.0583 C   0  0  0  0  0  0  0  0  0  0  0  0
  -20.6184  -17.7305   21.0118 C   0  0  0  0  0  0  0  0  0  0  0  0
  -23.5964  -31.7360   22.9794 C   0  0  0  0  0  0  0  0  0  0  0  0
  -23.6525  -15.4203   20.0999 C   0  0  0  0  0  0  0  0  0  0  0  0
  -23.4824  -33.9826   23.6592 C   0  0  0  0  0  0  0  0  0  0  0  0
  -24.6158  -36.5312   23.7058 C   0  0  0  0  0  0  0  0  0  0  0  0
  -24.7390  -34.1766   24.2327 C   0  0  0  0  0  0  0  0  0  0  0  0
  -25.7024  -28.6828   20.9445 C   0  0  0  0  0  0  0  0  0  0  0  0
  -21.2723  -19.8716   20.7709 C   0  0  0  0  0  0  0  0  0  0  0  0
  -20.7910  -18.2749   22.2654 C   0  0  0  0  0  0  0  0  0  0  0  0
  -27.2602  -27.3306   20.1830 C   0  0  0  0  0  0  0  0  0  0  0  0
  -28.1052  -29.0554   21.7829 C   0  0  0  0  0  0  0  0  0  0  0  0
  -28.9071  -14.1130   19.7200 C   0  0  0  0  0  0  0  0  0  0  0  0
  -29.6178  -17.2178   20.3346 C   0  0  0  0  0  0  0  0  0  0  0  0
  -28.4943  -20.3635   21.0336 C   0  0  0  0  0  0  0  0  0  0  0  0
  -23.5983  -23.0051   18.2515 C   0  0  0  0  0  0  0  0  0  0  0  0
  -31.2821  -10.0577   17.7271 C   0  0  0  0  0  0  0  0  0  0  0  0
  -27.4375  -15.3050   18.0540 C   0  0  0  0  0  0  0  0  0  0  0  0
  -27.2345  -16.5019   20.7505 C   0  0  0  0  0  0  0  0  0  0  0  0
  -31.7164  -11.3380   18.4359 C   0  0  0  0  0  0  0  0  0  0  0  0
  -25.4382  -25.3044   16.2504 C   0  0  0  0  0  0  0  0  0  0  0  0
  -30.9036  -11.5448   19.7101 C   0  0  0  0  0  0  0  0  0  0  0  0
  -25.8389  -26.4058   17.2335 C   0  0  0  0  0  0  0  0  0  0  0  0
  -24.0468  -24.7542   16.5557 C   0  0  0  0  0  0  0  0  0  0  0  0
  -24.2544  -25.3947   18.9265 C   0  0  0  0  0  0  0  0  0  0  0  0
  -29.4111  -11.6984   19.3936 C   0  0  1  0  0  0  0  0  0  0  0  0
  -28.6427  -15.3965   18.9849 C   0  0  1  0  0  0  0  0  0  0  0  0
  -25.6730  -25.9420   18.6932 C   0  0  2  0  0  0  0  0  0  0  0  0
  -20.6115  -17.6667   23.6010 C   0  0  0  0  0  0  0  0  0  0  0  0
  -17.6956  -16.9146   20.6354 C   0  0  0  0  0  0  0  0  0  0  0  0
  -20.2115  -21.0454   23.8265 C   0  0  0  0  0  0  0  0  0  0  0  0
  -29.3135  -22.6848   21.5214 C   0  0  0  0  0  0  0  0  0  0  0  0
  -30.3693  -16.3555   23.1634 C   0  0  0  0  0  0  0  0  0  0  0  0
  -30.2550  -18.7599   23.8518 C   0  0  0  0  0  0  0  0  0  0  0  0
  -31.9158  -18.0326   22.1384 C   0  0  0  0  0  0  0  0  0  0  0  0
  -27.1311  -21.4702   18.6512 C   0  0  0  0  0  0  0  0  0  0  0  0
  -21.6785  -21.2046   20.2801 C   0  0  0  0  0  0  0  0  0  0  0  0
  -18.8582  -16.2565   19.9018 C   0  0  0  0  0  0  0  0  0  0  0  0
  -21.4755  -20.5001   23.1844 C   0  0  0  0  0  0  0  0  0  0  0  0
  -23.1945  -21.3598   20.0652 C   0  0  0  0  0  0  0  0  0  0  0  0
  -21.2839  -15.5508   19.9312 C   0  0  0  0  0  0  0  0  0  1  0  0
  -20.1823  -16.3073   20.6926 C   0  0  1  0  0  0  0  0  0  0  0  0
  -29.4652  -18.1341   21.5246 C   0  0  1  0  0  0  0  0  0  0  0  0
  -28.8531  -21.7155   20.4438 C   0  0  2  0  0  0  0  0  0  0  0  0
  -30.4789  -17.8078   22.6576 C   0  0  0  0  0  0  0  0  0  0  0  0
  -25.0535  -27.8543   20.1220 N   0  0  0  0  0  0  0  0  0  0  0  0
  -21.1883  -19.5769   22.1066 N   0  0  0  0  0  0  0  0  0  0  0  0
  -26.0277  -27.0440   19.6744 N   0  0  0  0  0  0  0  0  0  0  0  0
  -28.4975  -16.4456   19.9961 N   0  0  0  0  0  0  0  0  0  0  0  0
  -23.9563  -24.3306   17.9551 N   0  0  0  0  0  0  0  0  0  0  0  0
  -28.3512  -26.6140   19.8385 N   0  0  0  0  0  0  0  0  0  0  0  0
  -27.7472  -30.1416   22.5930 N   0  0  0  0  0  0  0  0  0  0  0  0
  -29.1346  -13.0284   18.8945 N   0  0  0  0  0  0  0  0  0  0  0  0
  -29.5646  -19.4946   21.0075 N   0  0  0  0  0  0  0  0  0  0  0  0
  -23.5421  -22.6850   19.6025 N   0  0  0  0  0  0  0  0  0  0  0  0
  -27.6738  -22.3080   19.7514 N   0  3  0  0  0  0  0  0  0  0  0  0
  -29.3060  -28.6961   21.7333 O   0  0  0  0  0  0  0  0  0  0  0  0
  -28.9063  -14.1074   20.9454 O   0  0  0  0  0  0  0  0  0  0  0  0
  -30.6890  -17.1934   19.7235 O   0  0  0  0  0  0  0  0  0  0  0  0
  -27.3774  -20.1054   21.4768 O   0  0  0  0  0  0  0  0  0  0  0  0
  -23.3525  -22.1675   17.3769 O   0  0  0  0  0  0  0  0  0  0  0  0
  -22.9188  -32.7179   23.6345 O   0  0  0  0  0  0  0  0  0  0  0  0
  -22.4539  -15.4607   20.7431 O   0  0  0  0  0  0  0  0  0  1  0  0
  -25.1606  -37.7547   23.7268 F   0  0  0  0  0  0  0  0  0  0  0  0
  -25.4071  -33.1424   24.7618 F   0  0  0  0  0  0  0  0  0  0  0  0
  1  2  1  0  0  0  0
  1  5  2  0  0  0  0
  2  6  2  0  0  0  0
  3  8  2  0  0  0  0
  3 16  1  0  0  0  0
  4  9  1  0  0  0  0
  4 16  2  0  0  0  0
  5 18  1  0  0  0  0
  6 20  1  0  0  0  0
  7 10  2  0  0  0  0
  7 19  1  0  0  0  0
  8 23  1  0  0  0  0
  9 23  2  0  0  0  0
 10 24  1  0  0  0  0
 11 12  2  0  0  0  0
 11 25  1  0  0  0  0
 12 26  1  0  0  0  0
 13 21  1  0  0  0  0
 13 24  2  0  0  0  0
 14 22  1  0  0  0  0
 14 29  2  0  0  0  0
 15 26  2  0  0  0  0
 15 27  1  0  0  0  0
 16 28  1  0  0  0  0
 17 28  1  0  0  0  0
 17 31  2  0  0  0  0
 17 32  1  0  0  0  0
 18 20  2  0  0  0  0
 18 37  1  0  0  0  0
 19 21  2  0  0  0  0
 19 38  1  0  0  0  0
 20 46  1  0  0  0  0
 21 39  1  0  0  0  0
 22 30  2  0  0  0  0
 22 62  1  0  0  0  0
 23 82  1  0  0  0  0
 24 83  1  0  0  0  0
 25 27  2  0  0  0  0
 25 82  1  0  0  0  0
 26 84  1  0  0  0  0
 27 85  1  0  0  0  0
 28 66  2  0  0  0  0
 29 57  1  0  0  0  0
 29 67  1  0  0  0  0
 30 49  1  0  0  0  0
 30 67  1  0  0  0  0
 31 68  1  0  0  0  0
 31 71  1  0  0  0  0
 32 72  1  0  0  0  0
 32 77  2  0  0  0  0
 33 47  1  0  0  0  0
 33 73  1  0  0  0  0
 33 78  2  0  0  0  0
 34 63  1  0  0  0  0
 34 69  1  0  0  0  0
 34 79  2  0  0  0  0
 35 64  1  0  0  0  0
 35 74  1  0  0  0  0
 35 80  2  0  0  0  0
 36 70  1  0  0  0  0
 36 75  1  0  0  0  0
 36 81  2  0  0  0  0
 37 40  1  0  0  0  0
 38 47  1  0  0  0  0
 39 69  1  0  0  0  0
 40 42  1  0  0  0  0
 41 43  1  0  0  0  0
 41 44  1  0  0  0  0
 42 46  1  0  0  0  0
 43 48  1  0  0  0  0
 44 70  1  0  0  0  0
 45 48  1  0  0  0  0
 45 70  1  0  0  0  0
 46 73  1  0  0  0  0
 47 69  1  0  0  0  0
 48 68  1  0  0  0  0
 50 58  1  0  0  0  0
 51 59  1  0  0  0  0
 52 64  1  0  0  0  0
 53 65  1  0  0  0  0
 54 65  1  0  0  0  0
 55 65  1  0  0  0  0
 56 76  1  0  0  0  0
 57 60  1  0  0  0  0
 58 62  1  0  0  0  0
 59 67  1  0  0  0  0
 60 75  1  0  0  0  0
 61 62  1  0  0  0  0
 61 83  1  0  0  0  0
 63 65  1  0  0  0  0
 63 74  1  0  0  0  0
 64 76  1  0  0  0  0
 66 68  1  0  0  0  0
M  CHG  1  76   1
M  ISO  4  36 100  61 101  75 100  83 101
M  END
> <Batch ID>
0045

> <Smiles>
CCC(c1cc(CC[100NH:0][100C:0](=O)N2CCCC(n3nc(-c4ccc(Oc5ccc(F)cc5F)cc4)c(C(N)=O)c3N)C2)n(CC)c1C)[101CH2:1][101O:1]c1ccc2c(c1)CN(C(=O)C(NC(=O)C(C)NC)C(C)(C)C)C(C(=O)NC1CCCc3ccccc31)C2

> <Shape>
0.235

> <Color>
0.066

> <Negative vol penalty>
0.000

$$$$

  -OEChem-04052317193D

 84 92  0     1  0  0  0  0  0999 V2000
  -31.3190  -22.9315   17.3010 C   0  0  0  0  0  0  0  0  0  0  0  0
  -30.2423  -23.8012   17.4326 C   0  0  0  0  0  0  0  0  0  0  0  0
  -26.8286  -13.7644   21.4308 C   0  0  0  0  0  0  0  0  0  0  0  0
  -26.6343  -14.0236   19.0367 C   0  0  0  0  0  0  0  0  0  0  0  0
  -32.0590  -22.5695   18.4246 C   0  0  0  0  0  0  0  0  0  0  0  0
  -29.9126  -24.3185   18.6858 C   0  0  0  0  0  0  0  0  0  0  0  0
  -26.4102  -27.7705   18.8278 C   0  0  0  0  0  0  0  0  0  0  0  0
  -26.0429  -12.6136   21.3701 C   0  0  0  0  0  0  0  0  0  0  0  0
  -25.8485  -12.8727   18.9759 C   0  0  0  0  0  0  0  0  0  0  0  0
  -25.0624  -27.4860   18.6133 C   0  0  0  0  0  0  0  0  0  0  0  0
  -22.7611  -11.8499   21.1032 C   0  0  0  0  0  0  0  0  0  0  0  0
  -21.7477  -11.7073   22.0509 C   0  0  0  0  0  0  0  0  0  0  0  0
  -24.6579  -27.6420   20.9863 C   0  0  0  0  0  0  0  0  0  0  0  0
  -22.9689  -23.2383   16.7678 C   0  0  0  0  0  0  0  0  0  0  0  0
  -22.7730   -9.6669   22.8401 C   0  0  0  0  0  0  0  0  0  0  0  0
  -23.2512  -20.9746   17.4405 C   0  0  0  0  0  0  0  0  0  0  0  0
  -27.1243  -14.4695   20.2641 C   0  0  0  0  0  0  0  0  0  0  0  0
  -29.3370  -15.7382   20.2210 C   0  0  0  0  0  0  0  0  0  0  0  0
  -31.7298  -23.0732   19.6938 C   0  0  0  0  0  0  0  0  0  0  0  0
  -26.8950  -27.9825   20.1265 C   0  0  0  0  0  0  0  0  0  0  0  0
  -30.6620  -23.9838   19.8282 C   0  0  0  0  0  0  0  0  0  0  0  0
  -26.0119  -27.9316   21.2144 C   0  0  0  0  0  0  0  0  0  0  0  0
  -23.7275  -22.0733   16.7435 C   0  0  0  0  0  0  0  0  0  0  0  0
  -21.7740  -23.2686   17.4782 C   0  0  0  0  0  0  0  0  0  0  0  0
  -25.5529  -12.1677   20.1426 C   0  0  0  0  0  0  0  0  0  0  0  0
  -24.1865  -27.4188   19.6929 C   0  0  0  0  0  0  0  0  0  0  0  0
  -23.7805  -10.9011   21.0238 C   0  0  0  0  0  0  0  0  0  0  0  0
  -21.7536  -10.6157   22.9194 C   0  0  0  0  0  0  0  0  0  0  0  0
  -23.7864   -9.8095   21.8923 C   0  0  0  0  0  0  0  0  0  0  0  0
  -27.9354  -15.6587   20.3263 C   0  0  0  0  0  0  0  0  0  0  0  0
  -21.3851  -22.1163   18.1422 C   0  0  0  0  0  0  0  0  0  0  0  0
  -29.6150  -17.0778   20.3425 C   0  0  0  0  0  0  0  0  0  0  0  0
  -30.3014  -14.6946   20.0302 C   0  0  0  0  0  0  0  0  0  0  0  0
  -29.0244  -26.5347   21.9901 C   0  0  0  0  0  0  0  0  0  0  0  0
  -28.4364  -29.0492   23.9533 C   0  0  0  0  0  0  0  0  0  0  0  0
  -26.2985  -31.5228   24.9318 C   0  0  0  0  0  0  0  0  0  0  0  0
  -26.4105  -22.0208   19.2707 C   0  0  0  0  0  0  0  0  0  0  0  0
  -32.5692  -22.6543   20.8750 C   0  0  0  0  0  0  0  0  0  0  0  0
  -28.3465  -28.3148   20.3386 C   0  0  0  0  0  0  0  0  0  0  0  0
  -26.4783  -28.1714   22.6263 C   0  0  0  0  0  0  0  0  0  0  0  0
  -31.8775  -22.8983   22.2123 C   0  0  0  0  0  0  0  0  0  0  0  0
  -27.9355  -21.0836   22.3485 C   0  0  0  0  0  0  0  0  0  0  0  0
  -31.3344  -24.3184   22.2651 C   0  0  0  0  0  0  0  0  0  0  0  0
  -28.2349  -19.5942   22.1697 C   0  0  0  0  0  0  0  0  0  0  0  0
  -26.6214  -21.4795   21.6788 C   0  0  0  0  0  0  0  0  0  0  0  0
  -26.8134  -19.6160   20.0774 C   0  0  0  0  0  0  0  0  0  0  0  0
  -30.2660  -24.5350   21.1860 C   0  0  1  0  0  0  0  0  0  0  0  0
  -28.8300  -28.0055   21.7521 C   0  0  1  0  0  0  0  0  0  0  0  0
  -28.1565  -19.1804   20.6879 C   0  0  2  0  0  0  0  0  0  0  0  0
  -20.1105  -22.0903   18.9208 C   0  0  0  0  0  0  0  0  0  0  0  0
  -26.0792  -33.3963   26.5869 C   0  0  0  0  0  0  0  0  0  0  0  0
  -20.1013  -26.3898   18.9732 C   0  0  0  0  0  0  0  0  0  0  0  0
  -27.8458  -27.0270   26.1605 C   0  0  0  0  0  0  0  0  0  0  0  0
  -26.7403  -28.8647   27.4524 C   0  0  0  0  0  0  0  0  0  0  0  0
  -29.1672  -29.0186   26.8966 C   0  0  0  0  0  0  0  0  0  0  0  0
  -26.0957  -33.5501   22.7853 C   0  0  0  0  0  0  0  0  0  0  0  0
  -25.0094  -22.0080   15.9923 C   0  0  0  0  0  0  0  0  0  0  0  0
  -20.9465  -24.5305   17.5103 C   0  0  0  0  0  0  0  0  0  0  0  0
  -26.2354  -22.4072   16.8255 C   0  0  0  0  0  0  0  0  0  0  0  0
  -22.5487  -26.3185   18.3652 C   0  0  0  0  0  0  0  0  0  1  0  0
  -27.4537  -29.3314   25.0640 C   0  0  1  0  0  0  0  0  0  0  0  0
  -26.5193  -33.0031   25.1853 C   0  0  2  0  0  0  0  0  0  0  0  0
  -21.2995  -25.4804   18.6723 C   0  0  1  0  0  0  0  0  0  0  0  0
  -27.7930  -28.5539   26.3671 C   0  0  0  0  0  0  0  0  0  0  0  0
  -22.0954  -20.9660   18.1417 N   0  0  0  0  0  0  0  0  0  0  0  0
  -27.3629  -16.8527   20.5015 N   0  0  0  0  0  0  0  0  0  0  0  0
  -28.4100  -17.6951   20.5073 N   0  0  0  0  0  0  0  0  0  0  0  0
  -27.9078  -28.4866   22.7828 N   0  0  0  0  0  0  0  0  0  0  0  0
  -26.6121  -21.0600   20.2753 N   0  0  0  0  0  0  0  0  0  0  0  0
  -30.7702  -17.7761   20.3236 N   0  0  0  0  0  0  0  0  0  0  0  0
  -29.8445  -13.3738   19.9250 N   0  0  0  0  0  0  0  0  0  0  0  0
  -29.9288  -25.9404   21.1309 N   0  0  0  0  0  0  0  0  0  0  0  0
  -27.4236  -30.7812   25.2239 N   0  0  0  0  0  0  0  0  0  0  0  0
  -26.4225  -21.5399   17.9672 N   0  0  0  0  0  0  0  0  0  0  0  0
  -25.7473  -33.8174   24.2045 N   0  3  0  0  0  0  0  0  0  0  0  0
  -31.5331  -14.9246   19.9715 O   0  0  0  0  0  0  0  0  0  0  0  0
  -28.4012  -25.9804   22.8879 O   0  0  0  0  0  0  0  0  0  0  0  0
  -29.6278  -29.3246   24.1154 O   0  0  0  0  0  0  0  0  0  0  0  0
  -25.2331  -31.0692   24.5198 O   0  0  0  0  0  0  0  0  0  0  0  0
  -26.2383  -23.2194   19.5170 O   0  0  0  0  0  0  0  0  0  0  0  0
  -24.7863  -11.0445   20.0829 O   0  0  0  0  0  0  0  0  0  0  0  0
  -22.8705  -27.1406   19.4863 O   0  0  0  0  0  0  0  0  0  1  0  0
  -20.7812  -10.4797   23.8304 F   0  0  0  0  0  0  0  0  0  0  0  0
  -24.7636   -8.8953   21.8216 F   0  0  0  0  0  0  0  0  0  0  0  0
  1  2  1  0  0  0  0
  1  5  2  0  0  0  0
  2  6  2  0  0  0  0
  3  8  2  0  0  0  0
  3 17  1  0  0  0  0
  4  9  1  0  0  0  0
  4 17  2  0  0  0  0
  5 19  1  0  0  0  0
  6 21  1  0  0  0  0
  7 10  2  0  0  0  0
  7 20  1  0  0  0  0
  8 25  1  0  0  0  0
  9 25  2  0  0  0  0
 10 26  1  0  0  0  0
 11 12  2  0  0  0  0
 11 27  1  0  0  0  0
 12 28  1  0  0  0  0
 13 22  1  0  0  0  0
 13 26  2  0  0  0  0
 14 23  2  0  0  0  0
 14 24  1  0  0  0  0
 15 28  2  0  0  0  0
 15 29  1  0  0  0  0
 16 23  1  0  0  0  0
 16 65  2  0  0  0  0
 17 30  1  0  0  0  0
 18 30  1  0  0  0  0
 18 32  2  0  0  0  0
 18 33  1  0  0  0  0
 19 21  2  0  0  0  0
 19 38  1  0  0  0  0
 20 22  2  0  0  0  0
 20 39  1  0  0  0  0
 21 47  1  0  0  0  0
 22 40  1  0  0  0  0
 23 57  1  0  0  0  0
 24 31  2  0  0  0  0
 24 58  1  0  0  0  0
 25 81  1  0  0  0  0
 26 82  1  0  0  0  0
 27 29  2  0  0  0  0
 27 81  1  0  0  0  0
 28 83  1  0  0  0  0
 29 84  1  0  0  0  0
 30 66  2  0  0  0  0
 31 50  1  0  0  0  0
 31 65  1  0  0  0  0
 32 67  1  0  0  0  0
 32 70  1  0  0  0  0
 33 71  1  0  0  0  0
 33 76  2  0  0  0  0
 34 48  1  0  0  0  0
 34 72  1  0  0  0  0
 34 77  2  0  0  0  0
 35 61  1  0  0  0  0
 35 68  1  0  0  0  0
 35 78  2  0  0  0  0
 36 62  1  0  0  0  0
 36 73  1  0  0  0  0
 36 79  2  0  0  0  0
 37 69  1  0  0  0  0
 37 74  1  0  0  0  0
 37 80  2  0  0  0  0
 38 41  1  0  0  0  0
 39 48  1  0  0  0  0
 40 68  1  0  0  0  0
 41 43  1  0  0  0  0
 42 44  1  0  0  0  0
 42 45  1  0  0  0  0
 43 47  1  0  0  0  0
 44 49  1  0  0  0  0
 45 69  1  0  0  0  0
 46 49  1  0  0  0  0
 46 69  1  0  0  0  0
 47 72  1  0  0  0  0
 48 68  1  0  0  0  0
 49 67  1  0  0  0  0
 51 62  1  0  0  0  0
 52 63  1  0  0  0  0
 53 64  1  0  0  0  0
 54 64  1  0  0  0  0
 55 64  1  0  0  0  0
 56 75  1  0  0  0  0
 57 59  1  0  0  0  0
 58 63  1  0  0  0  0
 59 74  1  0  0  0  0
 60 63  1  0  0  0  0
 60 82  1  0  0  0  0
 61 64  1  0  0  0  0
 61 73  1  0  0  0  0
 62 75  1  0  0  0  0
 66 67  1  0  0  0  0
M  CHG  1  75   1
M  ISO  4  37 100  60 101  74 100  82 101
M  END
> <Batch ID>
0045

> <Smiles>
CNC(C)C(=O)NC(C(=O)N1Cc2cc([101O:1][101CH2:1]C(C)Cc3cc(CC[100NH:0][100C:0](=O)N4CCCC(n5nc(-c6ccc(Oc7ccc(F)cc7F)cc6)c(C(N)=O)c5N)C4)cnc3C)ccc2CC1C(=O)NC1CCCc2ccccc21)C(C)(C)C

> <Shape>
0.240

> <Color>
0.067

> <Negative vol penalty>
0.000

$$$$

  -OEChem-04052317193D

 82 90  0     1  0  0  0  0  0999 V2000
  -21.7162  -11.6241   20.0950 C   0  0  0  0  0  0  0  0  0  0  0  0
  -21.5670  -12.8154   20.7977 C   0  0  0  0  0  0  0  0  0  0  0  0
  -25.8358  -29.4057   20.7921 C   0  0  0  0  0  0  0  0  0  0  0  0
  -25.3806  -27.0412   20.9896 C   0  0  0  0  0  0  0  0  0  0  0  0
  -22.9919  -11.1501   19.7916 C   0  0  0  0  0  0  0  0  0  0  0  0
  -22.6934  -13.5331   21.1984 C   0  0  0  0  0  0  0  0  0  0  0  0
  -22.2519  -18.4986   20.3074 C   0  0  0  0  0  0  0  0  0  0  0  0
  -27.0595  -29.1195   20.1868 C   0  0  0  0  0  0  0  0  0  0  0  0
  -26.6042  -26.7550   20.3842 C   0  0  0  0  0  0  0  0  0  0  0  0
  -21.4733  -19.2382   21.1965 C   0  0  0  0  0  0  0  0  0  0  0  0
  -30.1420  -29.0154   18.2628 C   0  0  0  0  0  0  0  0  0  0  0  0
  -30.4907  -29.7469   17.1274 C   0  0  0  0  0  0  0  0  0  0  0  0
  -23.4747  -19.9922   22.3124 C   0  0  0  0  0  0  0  0  0  0  0  0
  -28.5208  -28.9269   15.9942 C   0  0  0  0  0  0  0  0  0  0  0  0
  -24.9964  -28.3665   21.1935 C   0  0  0  0  0  0  0  0  0  0  0  0
  -22.4911  -28.8470   21.1820 C   0  0  0  0  0  0  0  0  0  0  0  0
  -24.1344  -11.8673   20.1804 C   0  0  0  0  0  0  0  0  0  0  0  0
  -23.6496  -18.4915   20.4211 C   0  0  0  0  0  0  0  0  0  0  0  0
  -23.9856  -13.0676   20.9011 C   0  0  0  0  0  0  0  0  0  0  0  0
  -24.2689  -19.2537   21.4219 C   0  0  0  0  0  0  0  0  0  0  0  0
  -27.4437  -27.7942   19.9829 C   0  0  0  0  0  0  0  0  0  0  0  0
  -22.0845  -19.9829   22.2009 C   0  0  0  0  0  0  0  0  0  0  0  0
  -28.9828  -28.2396   18.2638 C   0  0  0  0  0  0  0  0  0  0  0  0
  -29.6801  -29.7026   15.9932 C   0  0  0  0  0  0  0  0  0  0  0  0
  -28.1721  -28.1954   17.1296 C   0  0  0  0  0  0  0  0  0  0  0  0
  -20.8786  -23.5280   25.1711 C   0  0  0  0  0  0  0  0  0  0  0  0
  -23.7325  -28.6614   21.8194 C   0  0  0  0  0  0  0  0  0  0  0  0
  -21.0169  -22.1453   24.9452 C   0  0  0  0  0  0  0  0  0  0  0  0
  -19.8171  -23.6300   26.0367 C   0  0  0  0  0  0  0  0  0  0  0  0
  -21.6132  -29.1008   22.2074 C   0  0  0  0  0  0  0  0  0  0  0  0
  -22.1610  -28.7946   19.7877 C   0  0  0  0  0  0  0  0  0  0  0  0
  -25.8431  -16.2607   20.9832 C   0  0  0  0  0  0  0  0  0  0  0  0
  -27.9059  -18.6906   20.3811 C   0  0  0  0  0  0  0  0  0  0  0  0
  -28.4732  -22.0547   20.2925 C   0  0  0  0  0  0  0  0  0  0  0  0
  -21.6250  -27.6941   28.0273 C   0  0  0  0  0  0  0  0  0  0  0  0
  -25.4933  -11.2910   19.8710 C   0  0  0  0  0  0  0  0  0  0  0  0
  -24.4765  -17.7097   19.4376 C   0  0  0  0  0  0  0  0  0  0  0  0
  -25.7667  -19.2958   21.5740 C   0  0  0  0  0  0  0  0  0  0  0  0
  -26.6288  -12.3025   20.0050 C   0  0  0  0  0  0  0  0  0  0  0  0
  -21.4380  -30.9565   26.6138 C   0  0  0  0  0  0  0  0  0  0  0  0
  -26.4921  -13.0893   21.3046 C   0  0  0  0  0  0  0  0  0  0  0  0
  -21.8929  -30.7550   25.1672 C   0  0  0  0  0  0  0  0  0  0  0  0
  -22.2100  -30.0589   27.5783 C   0  0  0  0  0  0  0  0  0  0  0  0
  -22.6511  -28.4231   25.7886 C   0  0  0  0  0  0  0  0  0  0  0  0
  -25.1828  -13.8872   21.3314 C   0  0  1  0  0  0  0  0  0  0  0  0
  -25.8660  -17.3658   19.9654 C   0  0  1  0  0  0  0  0  0  0  0  0
  -21.8624  -29.2663   24.7721 C   0  0  2  0  0  0  0  0  0  0  0  0
  -29.6998  -24.1983   19.8476 C   0  0  0  0  0  0  0  0  0  0  0  0
  -29.2240  -18.0695   23.0620 C   0  0  0  0  0  0  0  0  0  0  0  0
  -30.3399  -20.3081   22.9530 C   0  0  0  0  0  0  0  0  0  0  0  0
  -30.8217  -18.5900   21.2097 C   0  0  0  0  0  0  0  0  0  0  0  0
  -18.3075  -21.9345   27.1150 C   0  0  0  0  0  0  0  0  0  0  0  0
  -27.4238  -22.2172   17.5300 C   0  0  0  0  0  0  0  0  0  0  0  0
  -22.0191  -21.4452   24.0753 C   0  0  0  0  0  0  0  0  0  1  0  0
  -19.1707  -24.8031   26.6566 C   0  0  0  0  0  0  0  0  0  0  0  0
  -19.5807  -25.0758   28.1242 C   0  0  0  0  0  0  0  0  0  0  0  0
  -21.0796  -25.2911   28.3226 C   0  0  0  0  0  0  0  0  0  0  0  0
  -28.5775  -19.7544   21.2156 C   0  0  1  0  0  0  0  0  0  0  0  0
  -29.1005  -22.9429   19.2332 C   0  0  2  0  0  0  0  0  0  0  0  0
  -29.7124  -19.1784   22.1087 C   0  0  0  0  0  0  0  0  0  0  0  0
  -23.6544  -28.7868   23.1468 N   0  0  0  0  0  0  0  0  0  0  0  0
  -20.1154  -21.4210   25.6136 N   0  0  0  0  0  0  0  0  0  0  0  0
  -19.4006  -22.3520   26.2680 N   0  0  0  0  0  0  0  0  0  0  0  0
  -22.3534  -29.0540   23.3520 N   0  0  0  0  0  0  0  0  0  0  0  0
  -26.5317  -18.5097   20.5920 N   0  0  0  0  0  0  0  0  0  0  0  0
  -22.1403  -28.6605   27.1478 N   0  0  0  0  0  0  0  0  0  0  0  0
  -20.2880  -29.3573   22.2325 N   0  0  0  0  0  0  0  0  0  0  0  0
  -23.1835  -28.5217   18.8688 N   0  0  0  0  0  0  0  0  0  0  0  0
  -25.3001  -15.0783   20.5178 N   0  0  0  0  0  0  0  0  0  0  0  0
  -29.0166  -20.7875   20.2837 N   0  0  0  0  0  0  0  0  0  0  0  0
  -21.5884  -26.3941   27.5381 N   0  0  0  0  0  0  0  0  0  0  0  0
  -28.0783  -23.3529   18.2293 N   0  3  0  0  0  0  0  0  0  0  0  0
  -20.9970  -29.0003   19.3678 O   0  0  0  0  0  0  0  0  0  0  0  0
  -26.2866  -16.4652   22.1071 O   0  0  0  0  0  0  0  0  0  0  0  0
  -28.5745  -18.0489   19.5670 O   0  0  0  0  0  0  0  0  0  0  0  0
  -27.5921  -22.4471   21.0542 O   0  0  0  0  0  0  0  0  0  0  0  0
  -21.2220  -27.9703   29.1624 O   0  0  0  0  0  0  0  0  0  0  0  0
  -28.6376  -27.5147   19.3921 O   0  0  0  0  0  0  0  0  0  0  0  0
  -21.3269  -20.7052   23.0705 O   0  0  0  0  0  0  0  0  0  1  0  0
  -30.0142  -30.4063   14.9035 F   0  0  0  0  0  0  0  0  0  0  0  0
  -27.0566  -27.4529   17.1250 F   0  0  0  0  0  0  0  0  0  0  0  0
  -21.8237  -24.7664   24.5094 Cl  0  0  0  0  0  0  0  0  0  0  0  0
  1  2  1  0  0  0  0
  1  5  2  0  0  0  0
  2  6  2  0  0  0  0
  3  8  2  0  0  0  0
  3 15  1  0  0  0  0
  4  9  1  0  0  0  0
  4 15  2  0  0  0  0
  5 17  1  0  0  0  0
  6 19  1  0  0  0  0
  7 10  2  0  0  0  0
  7 18  1  0  0  0  0
  8 21  1  0  0  0  0
  9 21  2  0  0  0  0
 10 22  1  0  0  0  0
 11 12  2  0  0  0  0
 11 23  1  0  0  0  0
 12 24  1  0  0  0  0
 13 20  1  0  0  0  0
 13 22  2  0  0  0  0
 14 24  2  0  0  0  0
 14 25  1  0  0  0  0
 15 27  1  0  0  0  0
 16 27  1  0  0  0  0
 16 30  2  0  0  0  0
 16 31  1  0  0  0  0
 17 19  2  0  0  0  0
 17 36  1  0  0  0  0
 18 20  2  0  0  0  0
 18 37  1  0  0  0  0
 19 45  1  0  0  0  0
 20 38  1  0  0  0  0
 21 78  1  0  0  0  0
 22 79  1  0  0  0  0
 23 25  2  0  0  0  0
 23 78  1  0  0  0  0
 24 80  1  0  0  0  0
 25 81  1  0  0  0  0
 26 28  1  0  0  0  0
 26 29  2  0  0  0  0
 26 82  1  0  0  0  0
 27 61  2  0  0  0  0
 28 54  1  0  0  0  0
 28 62  2  0  0  0  0
 29 55  1  0  0  0  0
 29 63  1  0  0  0  0
 30 64  1  0  0  0  0
 30 67  1  0  0  0  0
 31 68  1  0  0  0  0
 31 73  2  0  0  0  0
 32 46  1  0  0  0  0
 32 69  1  0  0  0  0
 32 74  2  0  0  0  0
 33 58  1  0  0  0  0
 33 65  1  0  0  0  0
 33 75  2  0  0  0  0
 34 59  1  0  0  0  0
 34 70  1  0  0  0  0
 34 76  2  0  0  0  0
 35 66  1  0  0  0  0
 35 71  1  0  0  0  0
 35 77  2  0  0  0  0
 36 39  1  0  0  0  0
 37 46  1  0  0  0  0
 38 65  1  0  0  0  0
 39 41  1  0  0  0  0
 40 42  1  0  0  0  0
 40 43  1  0  0  0  0
 41 45  1  0  0  0  0
 42 47  1  0  0  0  0
 43 66  1  0  0  0  0
 44 47  1  0  0  0  0
 44 66  1  0  0  0  0
 45 69  1  0  0  0  0
 46 65  1  0  0  0  0
 47 64  1  0  0  0  0
 48 59  1  0  0  0  0
 49 60  1  0  0  0  0
 50 60  1  0  0  0  0
 51 60  1  0  0  0  0
 52 63  1  0  0  0  0
 53 72  1  0  0  0  0
 54 79  1  0  0  0  0
 55 56  1  0  0  0  0
 56 57  1  0  0  0  0
 57 71  1  0  0  0  0
 58 60  1  0  0  0  0
 58 70  1  0  0  0  0
 59 72  1  0  0  0  0
 61 64  1  0  0  0  0
 62 63  1  0  0  0  0
M  CHG  1  72   1
M  ISO  4  35 100  54 101  71 100  79 101
M  END
> <Batch ID>
0045

> <Smiles>
CNC(C)C(=O)NC(C(=O)N1Cc2cc([101O:1][101CH2:1]c3nn(C)c(CCC[100NH:0][100C:0](=O)N4CCCC(n5nc(-c6ccc(Oc7ccc(F)cc7F)cc6)c(C(N)=O)c5N)C4)c3Cl)ccc2CC1C(=O)NC1CCCc2ccccc21)C(C)(C)C

> <Shape>
0.181

> <Color>
0.085

> <Negative vol penalty>
0.000

$$$$

  -OEChem-04052317193D

 83 91  0     1  0  0  0  0  0999 V2000
  -29.0631  -35.1201   20.8599 C   0  0  0  0  0  0  0  0  0  0  0  0
  -29.6687  -33.8966   20.5922 C   0  0  0  0  0  0  0  0  0  0  0  0
  -23.6802  -14.4380   19.5444 C   0  0  0  0  0  0  0  0  0  0  0  0
  -24.9891  -14.5101   21.5739 C   0  0  0  0  0  0  0  0  0  0  0  0
  -27.8818  -35.1650   21.5991 C   0  0  0  0  0  0  0  0  0  0  0  0
  -29.0940  -32.7172   21.0646 C   0  0  0  0  0  0  0  0  0  0  0  0
  -28.2801  -25.8161   19.3245 C   0  0  0  0  0  0  0  0  0  0  0  0
  -24.6023  -13.5560   18.9810 C   0  0  0  0  0  0  0  0  0  0  0  0
  -25.9112  -13.6281   21.0105 C   0  0  0  0  0  0  0  0  0  0  0  0
  -28.4718  -24.5415   19.8559 C   0  0  0  0  0  0  0  0  0  0  0  0
  -28.7986  -11.6776   19.9768 C   0  0  0  0  0  0  0  0  0  0  0  0
  -30.1537  -11.9687   20.1337 C   0  0  0  0  0  0  0  0  0  0  0  0
  -26.3874  -24.7344   21.0547 C   0  0  0  0  0  0  0  0  0  0  0  0
  -29.8374  -14.0653   18.9755 C   0  0  0  0  0  0  0  0  0  0  0  0
  -29.0491  -19.0350   22.9260 C   0  0  0  0  0  0  0  0  0  0  0  0
  -23.8736  -14.9151   20.8408 C   0  0  0  0  0  0  0  0  0  0  0  0
  -21.7773  -15.4961   22.1733 C   0  0  0  0  0  0  0  0  0  0  0  0
  -27.2871  -33.9848   22.0725 C   0  0  0  0  0  0  0  0  0  0  0  0
  -27.1440  -26.5650   19.6634 C   0  0  0  0  0  0  0  0  0  0  0  0
  -27.9043  -32.7464   21.8120 C   0  0  0  0  0  0  0  0  0  0  0  0
  -26.1824  -26.0172   20.5243 C   0  0  0  0  0  0  0  0  0  0  0  0
  -29.1738  -20.4010   22.8553 C   0  0  0  0  0  0  0  0  0  0  0  0
  -25.7178  -13.1511   19.7141 C   0  0  0  0  0  0  0  0  0  0  0  0
  -27.5268  -24.0016   20.7234 C   0  0  0  0  0  0  0  0  0  0  0  0
  -27.9629  -12.5803   19.3191 C   0  0  0  0  0  0  0  0  0  0  0  0
  -30.6731  -13.1626   19.6331 C   0  0  0  0  0  0  0  0  0  0  0  0
  -28.4824  -13.7742   18.8185 C   0  0  0  0  0  0  0  0  0  0  0  0
  -22.9218  -15.8267   21.4232 C   0  0  0  0  0  0  0  0  0  0  0  0
  -28.9033  -20.7098   21.5087 C   0  0  0  0  0  0  0  0  0  0  0  0
  -21.2151  -16.7076   22.4938 C   0  0  0  0  0  0  0  0  0  0  0  0
  -21.2680  -14.2090   22.5470 C   0  0  0  0  0  0  0  0  0  0  0  0
  -26.6424  -29.3419   21.1266 C   0  0  0  0  0  0  0  0  0  0  0  0
  -23.5622  -28.7919   20.2710 C   0  0  0  0  0  0  0  0  0  0  0  0
  -21.1506  -26.5314   19.4219 C   0  0  0  0  0  0  0  0  0  0  0  0
  -23.4661  -22.2281   23.0483 C   0  0  0  0  0  0  0  0  0  0  0  0
  -26.0353  -34.0871   22.9076 C   0  0  0  0  0  0  0  0  0  0  0  0
  -26.9388  -27.9277   19.0606 C   0  0  0  0  0  0  0  0  0  0  0  0
  -24.9356  -26.7722   20.9036 C   0  0  0  0  0  0  0  0  0  0  0  0
  -25.2897  -32.7630   23.0523 C   0  0  0  0  0  0  0  0  0  0  0  0
  -20.8292  -21.1983   20.8890 C   0  0  0  0  0  0  0  0  0  0  0  0
  -26.2607  -31.6386   23.3985 C   0  0  0  0  0  0  0  0  0  0  0  0
  -20.9632  -19.6750   20.8487 C   0  0  0  0  0  0  0  0  0  0  0  0
  -22.1926  -21.8833   20.9517 C   0  0  0  0  0  0  0  0  0  0  0  0
  -23.2028  -19.8967   22.0036 C   0  0  0  0  0  0  0  0  0  0  0  0
  -27.2980  -31.4435   22.2861 C   0  0  1  0  0  0  0  0  0  0  0  0
  -25.9985  -28.8075   19.8787 C   0  0  1  0  0  0  0  0  0  0  0  0
  -21.8525  -19.1598   21.9963 C   0  0  2  0  0  0  0  0  0  0  0  0
  -18.7205  -26.3778   18.8151 C   0  0  0  0  0  0  0  0  0  0  0  0
  -22.8079  -29.1952   23.1999 C   0  0  0  0  0  0  0  0  0  0  0  0
  -20.6025  -28.1170   22.7081 C   0  0  0  0  0  0  0  0  0  0  0  0
  -21.2329  -30.2419   21.5634 C   0  0  0  0  0  0  0  0  0  0  0  0
  -28.4901  -17.2650   21.2425 C   0  0  0  0  0  0  0  0  0  0  0  0
  -21.7676  -25.3917   16.7612 C   0  0  0  0  0  0  0  0  0  0  0  0
  -29.5148  -21.3244   23.9505 C   0  0  0  0  0  0  0  0  0  0  0  0
  -28.8966  -22.0622   20.8588 C   0  0  0  0  0  0  0  0  0  1  0  0
  -26.1650  -22.9172   24.8549 C   0  0  0  0  0  0  0  0  0  0  0  0
  -24.7590  -22.4114   25.1588 C   0  0  0  0  0  0  0  0  0  0  0  0
  -27.1367  -21.7809   24.5628 C   0  0  0  0  0  0  0  0  0  0  0  0
  -22.3855  -28.0901   20.9050 C   0  0  1  0  0  0  0  0  0  0  0  0
  -20.1407  -26.5137   18.2887 C   0  0  2  0  0  0  0  0  0  0  0  0
  -21.7816  -28.8974   22.0887 C   0  0  0  0  0  0  0  0  0  0  0  0
  -23.0786  -17.1449   21.2757 N   0  0  0  0  0  0  0  0  0  0  0  0
  -28.6279  -19.6271   20.7767 N   0  0  0  0  0  0  0  0  0  0  0  0
  -28.7246  -18.6246   21.6664 N   0  0  0  0  0  0  0  0  0  0  0  0
  -22.0253  -17.6533   21.9376 N   0  0  0  0  0  0  0  0  0  0  0  0
  -24.7833  -28.1033   20.2932 N   0  0  0  0  0  0  0  0  0  0  0  0
  -22.9857  -21.3507   22.0623 N   0  0  0  0  0  0  0  0  0  0  0  0
  -20.1117  -17.0455   23.1943 N   0  0  0  0  0  0  0  0  0  0  0  0
  -21.9690  -13.0676   22.1346 N   0  0  0  0  0  0  0  0  0  0  0  0
  -26.7174  -30.7209   21.1747 N   0  0  0  0  0  0  0  0  0  0  0  0
  -21.4430  -27.8170   19.8254 N   0  0  0  0  0  0  0  0  0  0  0  0
  -24.2035  -21.6404   24.0689 N   0  0  0  0  0  0  0  0  0  0  0  0
  -20.4127  -25.3720   17.3702 N   0  3  0  0  0  0  0  0  0  0  0  0
  -28.4641  -22.3527   24.2306 N   0  3  0  0  0  0  0  0  0  0  0  0
  -20.2132  -14.0746   23.2126 O   0  0  0  0  0  0  0  0  0  0  0  0
  -27.0404  -28.5611   21.9831 O   0  0  0  0  0  0  0  0  0  0  0  0
  -23.4021  -29.9068   19.7681 O   0  0  0  0  0  0  0  0  0  0  0  0
  -21.6292  -25.5070   19.9037 O   0  0  0  0  0  0  0  0  0  0  0  0
  -23.2491  -23.4444   23.0240 O   0  0  0  0  0  0  0  0  0  0  0  0
  -26.6177  -12.2902   19.1647 O   0  0  0  0  0  0  0  0  0  0  0  0
  -27.7118  -22.7579   21.2441 O   0  0  0  0  0  0  0  0  0  1  0  0
  -31.9741  -13.4427   19.7853 F   0  0  0  0  0  0  0  0  0  0  0  0
  -27.6842  -14.6458   18.1868 F   0  0  0  0  0  0  0  0  0  0  0  0
  1  2  1  0  0  0  0
  1  5  2  0  0  0  0
  2  6  2  0  0  0  0
  3  8  2  0  0  0  0
  3 16  1  0  0  0  0
  4  9  1  0  0  0  0
  4 16  2  0  0  0  0
  5 18  1  0  0  0  0
  6 20  1  0  0  0  0
  7 10  2  0  0  0  0
  7 19  1  0  0  0  0
  8 23  1  0  0  0  0
  9 23  2  0  0  0  0
 10 24  1  0  0  0  0
 11 12  2  0  0  0  0
 11 25  1  0  0  0  0
 12 26  1  0  0  0  0
 13 21  1  0  0  0  0
 13 24  2  0  0  0  0
 14 26  2  0  0  0  0
 14 27  1  0  0  0  0
 15 22  2  0  0  0  0
 15 64  1  0  0  0  0
 16 28  1  0  0  0  0
 17 28  1  0  0  0  0
 17 30  2  0  0  0  0
 17 31  1  0  0  0  0
 18 20  2  0  0  0  0
 18 36  1  0  0  0  0
 19 21  2  0  0  0  0
 19 37  1  0  0  0  0
 20 45  1  0  0  0  0
 21 38  1  0  0  0  0
 22 29  1  0  0  0  0
 22 54  1  0  0  0  0
 23 80  1  0  0  0  0
 24 81  1  0  0  0  0
 25 27  2  0  0  0  0
 25 80  1  0  0  0  0
 26 82  1  0  0  0  0
 27 83  1  0  0  0  0
 28 62  2  0  0  0  0
 29 55  1  0  0  0  0
 29 63  2  0  0  0  0
 30 65  1  0  0  0  0
 30 68  1  0  0  0  0
 31 69  1  0  0  0  0
 31 75  2  0  0  0  0
 32 46  1  0  0  0  0
 32 70  1  0  0  0  0
 32 76  2  0  0  0  0
 33 59  1  0  0  0  0
 33 66  1  0  0  0  0
 33 77  2  0  0  0  0
 34 60  1  0  0  0  0
 34 71  1  0  0  0  0
 34 78  2  0  0  0  0
 35 67  1  0  0  0  0
 35 72  1  0  0  0  0
 35 79  2  0  0  0  0
 36 39  1  0  0  0  0
 37 46  1  0  0  0  0
 38 66  1  0  0  0  0
 39 41  1  0  0  0  0
 40 42  1  0  0  0  0
 40 43  1  0  0  0  0
 41 45  1  0  0  0  0
 42 47  1  0  0  0  0
 43 67  1  0  0  0  0
 44 47  1  0  0  0  0
 44 67  1  0  0  0  0
 45 70  1  0  0  0  0
 46 66  1  0  0  0  0
 47 65  1  0  0  0  0
 48 60  1  0  0  0  0
 49 61  1  0  0  0  0
 50 61  1  0  0  0  0
 51 61  1  0  0  0  0
 52 64  1  0  0  0  0
 53 73  1  0  0  0  0
 54 74  1  0  0  0  0
 55 81  1  0  0  0  0
 56 57  1  0  0  0  0
 56 58  1  0  0  0  0
 57 72  1  0  0  0  0
 58 74  1  0  0  0  0
 59 61  1  0  0  0  0
 59 71  1  0  0  0  0
 60 73  1  0  0  0  0
 62 65  1  0  0  0  0
 63 64  1  0  0  0  0
M  CHG  2  73   1  74   1
M  ISO  4  35 100  55 101  72 100  81 101
M  END
> <Batch ID>
0045

> <Smiles>
CNC(C)C(=O)NC(C(=O)N1Cc2cc([101O:1][101CH2:1]c3nn(C)cc3CNCCC[100NH:0][100C:0](=O)N3CCCC(n4nc(-c5ccc(Oc6ccc(F)cc6F)cc5)c(C(N)=O)c4N)C3)ccc2CC1C(=O)NC1CCCc2ccccc21)C(C)(C)C

> <Shape>
0.221

> <Color>
0.047

> <Negative vol penalty>
0.000

$$$$

  -OEChem-04052317193D

 81 89  0     1  0  0  0  0  0999 V2000
  -21.2956  -26.4079   22.7829 C   0  0  0  0  0  0  0  0  0  0  0  0
  -21.8482  -25.1468   22.9826 C   0  0  0  0  0  0  0  0  0  0  0  0
  -28.0233  -25.7439   17.8737 C   0  0  0  0  0  0  0  0  0  0  0  0
  -27.2047  -25.0846   20.0490 C   0  0  0  0  0  0  0  0  0  0  0  0
  -20.5734  -26.6751   21.6206 C   0  0  0  0  0  0  0  0  0  0  0  0
  -21.6779  -24.1519   22.0206 C   0  0  0  0  0  0  0  0  0  0  0  0
  -25.6894  -19.7845   20.4910 C   0  0  0  0  0  0  0  0  0  0  0  0
  -27.0621  -26.7530   17.8177 C   0  0  0  0  0  0  0  0  0  0  0  0
  -26.2434  -26.0939   19.9931 C   0  0  0  0  0  0  0  0  0  0  0  0
  -25.8039  -18.4450   20.8603 C   0  0  0  0  0  0  0  0  0  0  0  0
  -23.8071  -28.7276   20.5814 C   0  0  0  0  0  0  0  0  0  0  0  0
  -23.6222  -29.5119   21.7199 C   0  0  0  0  0  0  0  0  0  0  0  0
  -24.6156  -17.7991   18.8628 C   0  0  0  0  0  0  0  0  0  0  0  0
  -25.9279  -30.2241   21.6037 C   0  0  0  0  0  0  0  0  0  0  0  0
  -24.1173  -12.9579   20.7296 C   0  0  0  0  0  0  0  0  0  0  0  0
  -28.0946  -24.9096   18.9893 C   0  0  0  0  0  0  0  0  0  0  0  0
  -30.3915  -23.9624   19.5677 C   0  0  0  0  0  0  0  0  0  0  0  0
  -20.4024  -25.6859   20.6394 C   0  0  0  0  0  0  0  0  0  0  0  0
  -25.0266  -20.1427   19.3084 C   0  0  0  0  0  0  0  0  0  0  0  0
  -20.9516  -24.4058   20.8447 C   0  0  0  0  0  0  0  0  0  0  0  0
  -24.4964  -19.1437   18.4795 C   0  0  0  0  0  0  0  0  0  0  0  0
  -26.1722  -26.9281   18.8774 C   0  0  0  0  0  0  0  0  0  0  0  0
  -25.2644  -17.4523   20.0476 C   0  0  0  0  0  0  0  0  0  0  0  0
  -25.0525  -28.6915   19.9540 C   0  0  0  0  0  0  0  0  0  0  0  0
  -24.6826  -30.2602   22.2310 C   0  0  0  0  0  0  0  0  0  0  0  0
  -26.1128  -29.4398   20.4652 C   0  0  0  0  0  0  0  0  0  0  0  0
  -29.0869  -23.8665   19.0475 C   0  0  0  0  0  0  0  0  0  0  0  0
  -24.8904  -11.8254   21.0481 C   0  0  0  0  0  0  0  0  0  0  0  0
  -24.9961  -13.8092   20.1056 C   0  0  0  0  0  0  0  0  0  0  0  0
  -30.9251  -22.7094   19.3897 C   0  0  0  0  0  0  0  0  0  0  0  0
  -31.0612  -25.0838   20.1590 C   0  0  0  0  0  0  0  0  0  0  0  0
  -22.4463  -21.8652   18.6166 C   0  0  0  0  0  0  0  0  0  0  0  0
  -23.4079  -21.3616   15.5598 C   0  0  0  0  0  0  0  0  0  0  0  0
  -25.1579  -19.4338   13.3535 C   0  0  0  0  0  0  0  0  0  0  0  0
  -29.3563  -17.2430   19.6549 C   0  0  0  0  0  0  0  0  0  0  0  0
  -19.5737  -26.0075   19.4210 C   0  0  0  0  0  0  0  0  0  0  0  0
  -24.9350  -21.5904   18.9107 C   0  0  0  0  0  0  0  0  0  0  0  0
  -23.7930  -19.4744   17.1894 C   0  0  0  0  0  0  0  0  0  0  0  0
  -19.7572  -25.0112   18.2792 C   0  0  0  0  0  0  0  0  0  0  0  0
  -29.8857  -18.8622   16.4618 C   0  0  0  0  0  0  0  0  0  0  0  0
  -19.6883  -23.5802   18.8030 C   0  0  0  0  0  0  0  0  0  0  0  0
  -29.8604  -20.3386   16.8615 C   0  0  0  0  0  0  0  0  0  0  0  0
  -28.8726  -18.0539   17.2672 C   0  0  0  0  0  0  0  0  0  0  0  0
  -29.0031  -19.6429   19.1465 C   0  0  0  0  0  0  0  0  0  0  0  0
  -20.8097  -23.3078   19.8129 C   0  0  1  0  0  0  0  0  0  0  0  0
  -23.7896  -21.8731   17.9435 C   0  0  1  0  0  0  0  0  0  0  0  0
  -30.0213  -20.5098   18.3837 C   0  0  2  0  0  0  0  0  0  0  0  0
  -24.4466  -10.5997   21.7330 C   0  0  0  0  0  0  0  0  0  0  0  0
  -26.1905  -18.7453   11.1724 C   0  0  0  0  0  0  0  0  0  0  0  0
  -20.6074  -20.2942   14.9869 C   0  0  0  0  0  0  0  0  0  0  0  0
  -21.5019  -19.2752   12.8822 C   0  0  0  0  0  0  0  0  0  0  0  0
  -21.5569  -21.7502   13.1889 C   0  0  0  0  0  0  0  0  0  0  0  0
  -27.6431  -20.9368   13.9225 C   0  0  0  0  0  0  0  0  0  0  0  0
  -24.7982  -15.1792   19.5264 C   0  0  0  0  0  0  0  0  0  1  0  0
  -28.4124  -14.1964   20.5866 C   0  0  0  0  0  0  0  0  0  0  0  0
  -27.4382  -13.6467   19.5360 C   0  0  0  0  0  0  0  0  0  0  0  0
  -29.6869  -14.8097   20.0106 C   0  0  0  0  0  0  0  0  0  0  0  0
  -23.1463  -20.3011   14.5177 C   0  0  1  0  0  0  0  0  0  0  0  0
  -26.1567  -19.7976   12.2697 C   0  0  2  0  0  0  0  0  0  0  0  0
  -21.7146  -20.3988   13.9192 C   0  0  0  0  0  0  0  0  0  0  0  0
  -28.8087  -22.6489   18.5743 N   0  0  0  0  0  0  0  0  0  0  0  0
  -26.1625  -11.9433   20.6584 N   0  0  0  0  0  0  0  0  0  0  0  0
  -26.1955  -13.1600   20.0885 N   0  0  0  0  0  0  0  0  0  0  0  0
  -29.9459  -21.9681   18.7965 N   0  0  0  0  0  0  0  0  0  0  0  0
  -23.7236  -20.9046   16.8472 N   0  0  0  0  0  0  0  0  0  0  0  0
  -29.0921  -18.2462   18.7076 N   0  0  0  0  0  0  0  0  0  0  0  0
  -32.1317  -22.1803   19.6843 N   0  0  0  0  0  0  0  0  0  0  0  0
  -30.3671  -26.2968   20.2646 N   0  0  0  0  0  0  0  0  0  0  0  0
  -22.0657  -23.0915   19.1274 N   0  0  0  0  0  0  0  0  0  0  0  0
  -24.2154  -20.4241   13.5327 N   0  0  0  0  0  0  0  0  0  0  0  0
  -29.4175  -15.9466   19.1587 N   0  0  0  0  0  0  0  0  0  0  0  0
  -27.5255  -19.9193   12.8464 N   0  3  0  0  0  0  0  0  0  0  0  0
  -32.2457  -25.0168   20.5664 O   0  0  0  0  0  0  0  0  0  0  0  0
  -21.8020  -20.8240   18.6673 O   0  0  0  0  0  0  0  0  0  0  0  0
  -23.3418  -22.5515   15.2414 O   0  0  0  0  0  0  0  0  0  0  0  0
  -25.2066  -18.3752   13.9760 O   0  0  0  0  0  0  0  0  0  0  0  0
  -29.5304  -17.4853   20.8541 O   0  0  0  0  0  0  0  0  0  0  0  0
  -25.2342  -27.9129   18.8233 O   0  0  0  0  0  0  0  0  0  0  0  0
  -25.3741  -16.1441   20.4060 O   0  0  0  0  0  0  0  0  0  1  0  0
  -24.5044  -31.0145   23.3234 F   0  0  0  0  0  0  0  0  0  0  0  0
  -27.3112  -29.4100   19.8661 F   0  0  0  0  0  0  0  0  0  0  0  0
  1  2  1  0  0  0  0
  1  5  2  0  0  0  0
  2  6  2  0  0  0  0
  3  8  2  0  0  0  0
  3 16  1  0  0  0  0
  4  9  1  0  0  0  0
  4 16  2  0  0  0  0
  5 18  1  0  0  0  0
  6 20  1  0  0  0  0
  7 10  2  0  0  0  0
  7 19  1  0  0  0  0
  8 22  1  0  0  0  0
  9 22  2  0  0  0  0
 10 23  1  0  0  0  0
 11 12  2  0  0  0  0
 11 24  1  0  0  0  0
 12 25  1  0  0  0  0
 13 21  1  0  0  0  0
 13 23  2  0  0  0  0
 14 25  2  0  0  0  0
 14 26  1  0  0  0  0
 15 28  1  0  0  0  0
 15 29  2  0  0  0  0
 16 27  1  0  0  0  0
 17 27  1  0  0  0  0
 17 30  2  0  0  0  0
 17 31  1  0  0  0  0
 18 20  2  0  0  0  0
 18 36  1  0  0  0  0
 19 21  2  0  0  0  0
 19 37  1  0  0  0  0
 20 45  1  0  0  0  0
 21 38  1  0  0  0  0
 22 78  1  0  0  0  0
 23 79  1  0  0  0  0
 24 26  2  0  0  0  0
 24 78  1  0  0  0  0
 25 80  1  0  0  0  0
 26 81  1  0  0  0  0
 27 61  2  0  0  0  0
 28 48  1  0  0  0  0
 28 62  2  0  0  0  0
 29 54  1  0  0  0  0
 29 63  1  0  0  0  0
 30 64  1  0  0  0  0
 30 67  1  0  0  0  0
 31 68  1  0  0  0  0
 31 73  2  0  0  0  0
 32 46  1  0  0  0  0
 32 69  1  0  0  0  0
 32 74  2  0  0  0  0
 33 58  1  0  0  0  0
 33 65  1  0  0  0  0
 33 75  2  0  0  0  0
 34 59  1  0  0  0  0
 34 70  1  0  0  0  0
 34 76  2  0  0  0  0
 35 66  1  0  0  0  0
 35 71  1  0  0  0  0
 35 77  2  0  0  0  0
 36 39  1  0  0  0  0
 37 46  1  0  0  0  0
 38 65  1  0  0  0  0
 39 41  1  0  0  0  0
 40 42  1  0  0  0  0
 40 43  1  0  0  0  0
 41 45  1  0  0  0  0
 42 47  1  0  0  0  0
 43 66  1  0  0  0  0
 44 47  1  0  0  0  0
 44 66  1  0  0  0  0
 45 69  1  0  0  0  0
 46 65  1  0  0  0  0
 47 64  1  0  0  0  0
 49 59  1  0  0  0  0
 50 60  1  0  0  0  0
 51 60  1  0  0  0  0
 52 60  1  0  0  0  0
 53 72  1  0  0  0  0
 54 79  1  0  0  0  0
 55 56  1  0  0  0  0
 55 57  1  0  0  0  0
 56 63  1  0  0  0  0
 57 71  1  0  0  0  0
 58 60  1  0  0  0  0
 58 70  1  0  0  0  0
 59 72  1  0  0  0  0
 61 64  1  0  0  0  0
 62 63  1  0  0  0  0
M  CHG  1  72   1
M  ISO  4  35 100  54 101  71 100  79 101
M  END
> <Batch ID>
0045

> <Smiles>
CNC(C)C(=O)NC(C(=O)N1Cc2cc([101O:1][101CH2:1]c3cc(C)nn3CCC[100NH:0][100C:0](=O)N3CCCC(n4nc(-c5ccc(Oc6ccc(F)cc6F)cc5)c(C(N)=O)c4N)C3)ccc2CC1C(=O)NC1CCCc2ccccc21)C(C)(C)C

> <Shape>
0.206

> <Color>
0.077

> <Negative vol penalty>
0.000

$$$$

  -OEChem-04052317193D

 85 93  0     1  0  0  0  0  0999 V2000
  -31.2537  -31.1594   24.5216 C   0  0  0  0  0  0  0  0  0  0  0  0
  -30.2705  -30.2329   24.1892 C   0  0  0  0  0  0  0  0  0  0  0  0
  -23.0010   -9.8952   19.9804 C   0  0  0  0  0  0  0  0  0  0  0  0
  -23.7313   -9.9428   22.2829 C   0  0  0  0  0  0  0  0  0  0  0  0
  -32.5754  -30.7449   24.6800 C   0  0  0  0  0  0  0  0  0  0  0  0
  -30.6088  -28.8916   24.0140 C   0  0  0  0  0  0  0  0  0  0  0  0
  -27.1812  -24.0160   25.4232 C   0  0  0  0  0  0  0  0  0  0  0  0
  -22.2362   -8.7595   20.2464 C   0  0  0  0  0  0  0  0  0  0  0  0
  -22.9664   -8.8071   22.5490 C   0  0  0  0  0  0  0  0  0  0  0  0
  -26.3577  -23.1945   24.6545 C   0  0  0  0  0  0  0  0  0  0  0  0
  -23.2129   -5.4693   22.0707 C   0  0  0  0  0  0  0  0  0  0  0  0
  -23.8031   -4.4513   22.8197 C   0  0  0  0  0  0  0  0  0  0  0  0
  -28.1694  -21.6214   24.4056 C   0  0  0  0  0  0  0  0  0  0  0  0
  -29.6983  -20.2389   19.0727 C   0  0  0  0  0  0  0  0  0  0  0  0
  -22.0828   -4.6896   24.4992 C   0  0  0  0  0  0  0  0  0  0  0  0
  -23.7486  -10.4868   20.9986 C   0  0  0  0  0  0  0  0  0  0  0  0
  -24.1311  -13.0031   20.8261 C   0  0  0  0  0  0  0  0  0  0  0  0
  -32.9284  -29.3962   24.5161 C   0  0  0  0  0  0  0  0  0  0  0  0
  -28.5105  -23.6509   25.6801 C   0  0  0  0  0  0  0  0  0  0  0  0
  -31.9368  -28.4589   24.1690 C   0  0  0  0  0  0  0  0  0  0  0  0
  -29.0069  -22.4387   25.1799 C   0  0  0  0  0  0  0  0  0  0  0  0
  -28.9358  -21.1830   18.3416 C   0  0  0  0  0  0  0  0  0  0  0  0
  -22.2189   -8.2154   21.5307 C   0  0  0  0  0  0  0  0  0  0  0  0
  -26.8526  -21.9984   24.1432 C   0  0  0  0  0  0  0  0  0  0  0  0
  -22.0577   -6.0975   22.5359 C   0  0  0  0  0  0  0  0  0  0  0  0
  -23.2381   -4.0615   24.0339 C   0  0  0  0  0  0  0  0  0  0  0  0
  -21.4926   -5.7076   23.7502 C   0  0  0  0  0  0  0  0  0  0  0  0
  -24.5394  -11.6597   20.7242 C   0  0  0  0  0  0  0  0  0  0  0  0
  -28.8147  -19.4659   19.7931 C   0  0  0  0  0  0  0  0  0  0  0  0
  -27.6094  -20.9582   18.6377 C   0  0  0  0  0  0  0  0  0  0  0  0
  -25.2394  -13.7274   20.4605 C   0  0  0  0  0  0  0  0  0  0  0  0
  -22.8635  -13.5476   21.2164 C   0  0  0  0  0  0  0  0  0  0  0  0
  -31.3517  -24.9088   25.0101 C   0  0  0  0  0  0  0  0  0  0  0  0
  -32.4298  -22.4918   26.8857 C   0  0  0  0  0  0  0  0  0  0  0  0
  -31.8934  -19.3932   28.2116 C   0  0  0  0  0  0  0  0  0  0  0  0
  -30.7354  -14.6669   20.6984 C   0  0  0  0  0  0  0  0  0  0  0  0
  -34.3784  -29.0037   24.6513 C   0  0  0  0  0  0  0  0  0  0  0  0
  -29.3779  -24.5351   26.5334 C   0  0  0  0  0  0  0  0  0  0  0  0
  -30.4207  -21.9914   25.4440 C   0  0  0  0  0  0  0  0  0  0  0  0
  -34.5898  -27.5009   24.8157 C   0  0  0  0  0  0  0  0  0  0  0  0
  -29.5918  -12.2462   18.3512 C   0  0  0  0  0  0  0  0  0  0  0  0
  -33.7580  -26.7300   23.7956 C   0  0  0  0  0  0  0  0  0  0  0  0
  -28.1445  -11.9843   18.7716 C   0  0  0  0  0  0  0  0  0  0  0  0
  -30.4967  -12.4803   19.5588 C   0  0  0  0  0  0  0  0  0  0  0  0
  -28.5888  -13.2717   20.9033 C   0  0  0  0  0  0  0  0  0  0  0  0
  -32.2601  -26.9908   23.9948 C   0  0  1  0  0  0  0  0  0  0  0  0
  -30.8692  -24.3120   26.3019 C   0  0  1  0  0  0  0  0  0  0  0  0
  -27.6273  -13.0851   19.7171 C   0  0  2  0  0  0  0  0  0  0  0  0
  -26.3951  -21.6500   18.1551 C   0  0  0  0  0  0  0  0  0  0  0  0
  -29.3069  -21.8477   15.9527 C   0  0  0  0  0  0  0  0  0  0  0  0
  -32.9710  -17.6637   29.6763 C   0  0  0  0  0  0  0  0  0  0  0  0
  -34.2746  -21.6991   24.5883 C   0  0  0  0  0  0  0  0  0  0  0  0
  -34.6018  -19.4836   25.7076 C   0  0  0  0  0  0  0  0  0  0  0  0
  -35.3215  -21.5777   26.8563 C   0  0  0  0  0  0  0  0  0  0  0  0
  -29.7028  -19.5412   30.1961 C   0  0  0  0  0  0  0  0  0  0  0  0
  -29.4719  -22.2144   17.4312 C   0  0  0  0  0  0  0  0  0  0  0  0
  -29.0750  -18.3414   20.7153 C   0  0  0  0  0  0  0  0  0  0  0  0
  -30.5685  -17.9799   20.8977 C   0  0  0  0  0  0  0  0  0  0  0  0
  -25.7001  -20.1715   21.2507 C   0  0  0  0  0  0  0  0  0  0  0  0
  -26.2809  -19.3399   20.1050 C   0  0  0  0  0  0  0  0  0  0  0  0
  -30.8186  -16.8438   21.8871 C   0  0  0  0  0  0  0  0  0  0  0  0
  -26.6844  -20.3978   22.3923 C   0  0  0  0  0  0  0  0  0  1  0  0
  -32.8549  -21.0627   26.6488 C   0  0  1  0  0  0  0  0  0  0  0  0
  -32.0388  -18.8643   29.6271 C   0  0  2  0  0  0  0  0  0  0  0  0
  -34.2371  -20.9649   25.9435 C   0  0  0  0  0  0  0  0  0  0  0  0
  -25.8079  -11.5351   20.3250 N   0  0  0  0  0  0  0  0  0  0  0  0
  -27.5479  -19.9124   19.5212 N   0  0  0  0  0  0  0  0  0  0  0  0
  -26.2063  -12.8095   20.1727 N   0  0  0  0  0  0  0  0  0  0  0  0
  -31.2316  -22.8934   26.2785 N   0  0  0  0  0  0  0  0  0  0  0  0
  -29.9508  -13.5370   20.4140 N   0  0  0  0  0  0  0  0  0  0  0  0
  -25.4713  -15.0535   20.3602 N   0  0  0  0  0  0  0  0  0  0  0  0
  -21.8333  -12.6618   21.5607 N   0  0  0  0  0  0  0  0  0  0  0  0
  -31.7585  -26.2252   25.1158 N   0  0  0  0  0  0  0  0  0  0  0  0
  -32.7982  -20.3994   27.9469 N   0  0  0  0  0  0  0  0  0  0  0  0
  -30.1399  -15.6237   21.5112 N   0  0  0  0  0  0  0  0  0  0  0  0
  -30.7116  -18.4511   30.1645 N   0  3  0  0  0  0  0  0  0  0  0  0
  -22.6457  -14.7826   21.2428 O   0  0  0  0  0  0  0  0  0  0  0  0
  -31.3561  -24.2251   23.9931 O   0  0  0  0  0  0  0  0  0  0  0  0
  -33.1312  -23.2226   27.5897 O   0  0  0  0  0  0  0  0  0  0  0  0
  -31.0629  -18.9548   27.4187 O   0  0  0  0  0  0  0  0  0  0  0  0
  -31.8797  -14.8147   20.2560 O   0  0  0  0  0  0  0  0  0  0  0  0
  -21.4725   -7.1074   21.7908 O   0  0  0  0  0  0  0  0  0  0  0  0
  -26.0511  -21.1951   23.3921 O   0  0  0  0  0  0  0  0  0  1  0  0
  -23.8041   -3.0829   24.7524 F   0  0  0  0  0  0  0  0  0  0  0  0
  -20.3821   -6.3066   24.2017 F   0  0  0  0  0  0  0  0  0  0  0  0
  1  2  1  0  0  0  0
  1  5  2  0  0  0  0
  2  6  2  0  0  0  0
  3  8  2  0  0  0  0
  3 16  1  0  0  0  0
  4  9  1  0  0  0  0
  4 16  2  0  0  0  0
  5 18  1  0  0  0  0
  6 20  1  0  0  0  0
  7 10  2  0  0  0  0
  7 19  1  0  0  0  0
  8 23  1  0  0  0  0
  9 23  2  0  0  0  0
 10 24  1  0  0  0  0
 11 12  2  0  0  0  0
 11 25  1  0  0  0  0
 12 26  1  0  0  0  0
 13 21  1  0  0  0  0
 13 24  2  0  0  0  0
 14 22  1  0  0  0  0
 14 29  2  0  0  0  0
 15 26  2  0  0  0  0
 15 27  1  0  0  0  0
 16 28  1  0  0  0  0
 17 28  1  0  0  0  0
 17 31  2  0  0  0  0
 17 32  1  0  0  0  0
 18 20  2  0  0  0  0
 18 37  1  0  0  0  0
 19 21  2  0  0  0  0
 19 38  1  0  0  0  0
 20 46  1  0  0  0  0
 21 39  1  0  0  0  0
 22 30  2  0  0  0  0
 22 56  1  0  0  0  0
 23 82  1  0  0  0  0
 24 83  1  0  0  0  0
 25 27  2  0  0  0  0
 25 82  1  0  0  0  0
 26 84  1  0  0  0  0
 27 85  1  0  0  0  0
 28 66  2  0  0  0  0
 29 57  1  0  0  0  0
 29 67  1  0  0  0  0
 30 49  1  0  0  0  0
 30 67  1  0  0  0  0
 31 68  1  0  0  0  0
 31 71  1  0  0  0  0
 32 72  1  0  0  0  0
 32 77  2  0  0  0  0
 33 47  1  0  0  0  0
 33 73  1  0  0  0  0
 33 78  2  0  0  0  0
 34 63  1  0  0  0  0
 34 69  1  0  0  0  0
 34 79  2  0  0  0  0
 35 64  1  0  0  0  0
 35 74  1  0  0  0  0
 35 80  2  0  0  0  0
 36 70  1  0  0  0  0
 36 75  1  0  0  0  0
 36 81  2  0  0  0  0
 37 40  1  0  0  0  0
 38 47  1  0  0  0  0
 39 69  1  0  0  0  0
 40 42  1  0  0  0  0
 41 43  1  0  0  0  0
 41 44  1  0  0  0  0
 42 46  1  0  0  0  0
 43 48  1  0  0  0  0
 44 70  1  0  0  0  0
 45 48  1  0  0  0  0
 45 70  1  0  0  0  0
 46 73  1  0  0  0  0
 47 69  1  0  0  0  0
 48 68  1  0  0  0  0
 50 56  1  0  0  0  0
 51 64  1  0  0  0  0
 52 65  1  0  0  0  0
 53 65  1  0  0  0  0
 54 65  1  0  0  0  0
 55 76  1  0  0  0  0
 57 58  1  0  0  0  0
 58 61  1  0  0  0  0
 59 60  1  0  0  0  0
 59 62  1  0  0  0  0
 60 67  1  0  0  0  0
 61 75  1  0  0  0  0
 62 83  1  0  0  0  0
 63 65  1  0  0  0  0
 63 74  1  0  0  0  0
 64 76  1  0  0  0  0
 66 68  1  0  0  0  0
M  CHG  1  76   1
M  ISO  4  36 100  62 101  75 100  83 101
M  END
> <Batch ID>
0045

> <Smiles>
CCc1cc(CCC[100NH:0][100C:0](=O)N2CCCC(n3nc(-c4ccc(Oc5ccc(F)cc5F)cc4)c(C(N)=O)c3N)C2)n(CC[101CH2:1][101O:1]c2ccc3c(c2)CN(C(=O)C(NC(=O)C(C)NC)C(C)(C)C)C(C(=O)NC2CCCc4ccccc42)C3)c1C

> <Shape>
0.207

> <Color>
0.202

> <Negative vol penalty>
0.000

$$$$

  -OEChem-04052317193D

 89 98  0     1  0  0  0  0  0999 V2000
  -20.4856  -29.5064   21.9111 C   0  0  0  0  0  0  0  0  0  0  0  0
  -20.8753  -28.1844   21.7215 C   0  0  0  0  0  0  0  0  0  0  0  0
  -23.0682   -9.8793   19.9235 C   0  0  0  0  0  0  0  0  0  0  0  0
  -23.8562   -9.8403   22.2071 C   0  0  0  0  0  0  0  0  0  0  0  0
  -21.0507  -30.5168   21.1340 C   0  0  0  0  0  0  0  0  0  0  0  0
  -21.8296  -27.8719   20.7540 C   0  0  0  0  0  0  0  0  0  0  0  0
  -25.3107  -24.6048   22.4429 C   0  0  0  0  0  0  0  0  0  0  0  0
  -26.6228  -15.8877   23.9340 C   0  0  0  0  0  0  0  0  0  0  0  0
  -22.3309   -8.7188   20.1581 C   0  0  0  0  0  0  0  0  0  0  0  0
  -23.1188   -8.6798   22.4417 C   0  0  0  0  0  0  0  0  0  0  0  0
  -24.9451  -23.2609   22.5060 C   0  0  0  0  0  0  0  0  0  0  0  0
  -19.9007   -7.8590   23.0666 C   0  0  0  0  0  0  0  0  0  0  0  0
  -19.1583   -7.7919   24.2455 C   0  0  0  0  0  0  0  0  0  0  0  0
  -26.0144  -14.6692   24.2352 C   0  0  0  0  0  0  0  0  0  0  0  0
  -26.1059  -22.8539   20.4309 C   0  0  0  0  0  0  0  0  0  0  0  0
  -20.4144   -5.8433   24.9256 C   0  0  0  0  0  0  0  0  0  0  0  0
  -25.7456  -15.3710   26.5314 C   0  0  0  0  0  0  0  0  0  0  0  0
  -28.2753  -18.4003   21.0618 C   0  0  0  0  0  0  0  0  0  0  0  0
  -23.8309  -10.4401   20.9480 C   0  0  0  0  0  0  0  0  0  0  0  0
  -24.1638  -12.9683   20.8773 C   0  0  0  0  0  0  0  0  0  0  0  0
  -22.0194  -30.2176   20.1631 C   0  0  0  0  0  0  0  0  0  0  0  0
  -26.0687  -25.0864   21.3660 C   0  0  0  0  0  0  0  0  0  0  0  0
  -22.4072  -28.8791   19.9623 C   0  0  0  0  0  0  0  0  0  0  0  0
  -26.4820  -24.2038   20.3578 C   0  0  0  0  0  0  0  0  0  0  0  0
  -26.7927  -16.8478   24.9315 C   0  0  0  0  0  0  0  0  0  0  0  0
  -22.3562   -8.1190   21.4172 C   0  0  0  0  0  0  0  0  0  0  0  0
  -25.3402  -22.3858   21.4984 C   0  0  0  0  0  0  0  0  0  0  0  0
  -20.8999   -6.9182   22.8171 C   0  0  0  0  0  0  0  0  0  0  0  0
  -19.4151   -6.7841   25.1750 C   0  0  0  0  0  0  0  0  0  0  0  0
  -21.1568   -5.9104   23.7466 C   0  0  0  0  0  0  0  0  0  0  0  0
  -25.5758  -14.4108   25.5339 C   0  0  0  0  0  0  0  0  0  0  0  0
  -26.3541  -16.5895   26.2302 C   0  0  0  0  0  0  0  0  0  0  0  0
  -24.5933  -11.6386   20.7062 C   0  0  0  0  0  0  0  0  0  0  0  0
  -28.6417  -18.1319   22.3504 C   0  0  0  0  0  0  0  0  0  0  0  0
  -25.2492  -13.7288   20.5166 C   0  0  0  0  0  0  0  0  0  0  0  0
  -26.5005  -18.6938   22.3519 C   0  0  0  0  0  0  0  0  0  0  0  0
  -22.8970  -13.4711   21.3225 C   0  0  0  0  0  0  0  0  0  0  0  0
  -25.5939  -27.2346   19.0717 C   0  0  0  0  0  0  0  0  0  0  0  0
  -28.7023  -26.6126   18.3839 C   0  0  0  0  0  0  0  0  0  0  0  0
  -31.3298  -24.4416   18.5577 C   0  0  0  0  0  0  0  0  0  0  0  0
  -30.7318  -14.7613   20.6595 C   0  0  0  0  0  0  0  0  0  0  0  0
  -22.5673  -31.3380   19.3150 C   0  0  0  0  0  0  0  0  0  0  0  0
  -26.4777  -26.5333   21.3263 C   0  0  0  0  0  0  0  0  0  0  0  0
  -27.3138  -24.6667   19.1906 C   0  0  0  0  0  0  0  0  0  0  0  0
  -23.8461  -30.9674   18.5684 C   0  0  0  0  0  0  0  0  0  0  0  0
  -29.5720  -12.4241   18.2369 C   0  0  0  0  0  0  0  0  0  0  0  0
  -23.6981  -29.6042   17.9000 C   0  0  0  0  0  0  0  0  0  0  0  0
  -28.1409  -12.1166   18.6810 C   0  0  0  0  0  0  0  0  0  0  0  0
  -30.5032  -12.6224   19.4309 C   0  0  0  0  0  0  0  0  0  0  0  0
  -28.6164  -13.3179   20.8558 C   0  0  0  0  0  0  0  0  0  0  0  0
  -23.4575  -28.5032   18.9398 C   0  0  1  0  0  0  0  0  0  0  0  0
  -26.8151  -27.0206   19.9206 C   0  0  1  0  0  0  0  0  0  0  0  0
  -27.6284  -13.1651   19.6867 C   0  0  2  0  0  0  0  0  0  0  0  0
  -33.7316  -24.1969   17.8730 C   0  0  0  0  0  0  0  0  0  0  0  0
  -27.8249  -26.0486   15.5165 C   0  0  0  0  0  0  0  0  0  0  0  0
  -30.0268  -24.9184   15.1389 C   0  0  0  0  0  0  0  0  0  0  0  0
  -29.9550  -27.3432   15.7202 C   0  0  0  0  0  0  0  0  0  0  0  0
  -32.2284  -24.2122   21.3682 C   0  0  0  0  0  0  0  0  0  0  0  0
  -27.4561  -18.1482   24.5662 C   0  0  0  0  0  0  0  0  0  0  0  0
  -29.9362  -17.7179   22.9053 C   0  0  0  0  0  0  0  0  0  0  0  0
  -25.0919  -19.0040   22.7969 C   0  0  0  0  0  0  0  0  0  0  0  0
  -30.8064  -16.8855   21.9407 C   0  0  0  0  0  0  0  0  0  0  0  0
  -24.8190  -20.5030   22.8547 C   0  0  0  0  0  0  0  0  0  1  0  0
  -29.4247  -25.6260   17.4985 C   0  0  1  0  0  0  0  0  0  0  0  0
  -32.7769  -24.6426   18.9698 C   0  0  2  0  0  0  0  0  0  0  0  0
  -29.2905  -25.9754   15.9894 C   0  0  0  0  0  0  0  0  0  0  0  0
  -25.8532  -11.5557   20.2705 N   0  0  0  0  0  0  0  0  0  0  0  0
  -27.5243  -18.3219   23.1272 N   0  0  0  0  0  0  0  0  0  0  0  0
  -26.2247  -12.8429   20.1648 N   0  0  0  0  0  0  0  0  0  0  0  0
  -26.9455  -18.7450   21.0923 N   0  3  0  0  0  0  0  0  0  0  0  0
  -27.6830  -26.0919   19.1936 N   0  0  0  0  0  0  0  0  0  0  0  0
  -29.9605  -13.6302   20.3451 N   0  0  0  0  0  0  0  0  0  0  0  0
  -25.4547  -15.0622   20.4692 N   0  0  0  0  0  0  0  0  0  0  0  0
  -21.8920  -12.5517   21.6528 N   0  0  0  0  0  0  0  0  0  0  0  0
  -24.6978  -28.1470   19.5951 N   0  0  0  0  0  0  0  0  0  0  0  0
  -30.8008  -25.5765   17.9803 N   0  0  0  0  0  0  0  0  0  0  0  0
  -30.1402  -15.6702   21.5283 N   0  0  0  0  0  0  0  0  0  0  0  0
  -33.0782  -23.8600   20.2017 N   0  3  0  0  0  0  0  0  0  0  0  0
  -22.6578  -14.6994   21.4087 O   0  0  0  0  0  0  0  0  0  0  0  0
  -25.4743  -26.6186   18.0191 O   0  0  0  0  0  0  0  0  0  0  0  0
  -29.0352  -27.8002   18.3633 O   0  0  0  0  0  0  0  0  0  0  0  0
  -30.7298  -23.3825   18.7275 O   0  0  0  0  0  0  0  0  0  0  0  0
  -31.8615  -14.9500   20.1959 O   0  0  0  0  0  0  0  0  0  0  0  0
  -21.6366   -6.9866   21.6465 O   0  0  0  0  0  0  0  0  0  0  0  0
  -24.9841  -21.0737   21.5572 O   0  0  0  0  0  0  0  0  0  1  0  0
  -18.7032   -6.7207   26.3079 F   0  0  0  0  0  0  0  0  0  0  0  0
  -22.1162   -5.0045   23.5130 F   0  0  0  0  0  0  0  0  0  0  0  0
  -24.8236  -12.9081   25.9048 Cl  0  0  0  0  0  0  0  0  0  0  0  0
  -26.5485  -17.7527   27.4907 Cl  0  0  0  0  0  0  0  0  0  0  0  0
  1  2  1  0  0  0  0
  1  5  2  0  0  0  0
  2  6  2  0  0  0  0
  3  9  2  0  0  0  0
  3 19  1  0  0  0  0
  4 10  1  0  0  0  0
  4 19  2  0  0  0  0
  5 21  1  0  0  0  0
  6 23  1  0  0  0  0
  7 11  2  0  0  0  0
  7 22  1  0  0  0  0
  8 14  2  0  0  0  0
  8 25  1  0  0  0  0
  9 26  1  0  0  0  0
 10 26  2  0  0  0  0
 11 27  1  0  0  0  0
 12 13  2  0  0  0  0
 12 28  1  0  0  0  0
 13 29  1  0  0  0  0
 14 31  1  0  0  0  0
 15 24  1  0  0  0  0
 15 27  2  0  0  0  0
 16 29  2  0  0  0  0
 16 30  1  0  0  0  0
 17 31  2  0  0  0  0
 17 32  1  0  0  0  0
 18 34  2  0  0  0  0
 18 70  1  0  0  0  0
 19 33  1  0  0  0  0
 20 33  1  0  0  0  0
 20 35  2  0  0  0  0
 20 37  1  0  0  0  0
 21 23  2  0  0  0  0
 21 42  1  0  0  0  0
 22 24  2  0  0  0  0
 22 43  1  0  0  0  0
 23 51  1  0  0  0  0
 24 44  1  0  0  0  0
 25 32  2  0  0  0  0
 25 59  1  0  0  0  0
 26 84  1  0  0  0  0
 27 85  1  0  0  0  0
 28 30  2  0  0  0  0
 28 84  1  0  0  0  0
 29 86  1  0  0  0  0
 30 87  1  0  0  0  0
 31 88  1  0  0  0  0
 32 89  1  0  0  0  0
 33 67  2  0  0  0  0
 34 60  1  0  0  0  0
 34 68  1  0  0  0  0
 35 69  1  0  0  0  0
 35 73  1  0  0  0  0
 36 61  1  0  0  0  0
 36 68  1  0  0  0  0
 36 70  2  0  0  0  0
 37 74  1  0  0  0  0
 37 79  2  0  0  0  0
 38 52  1  0  0  0  0
 38 75  1  0  0  0  0
 38 80  2  0  0  0  0
 39 64  1  0  0  0  0
 39 71  1  0  0  0  0
 39 81  2  0  0  0  0
 40 65  1  0  0  0  0
 40 76  1  0  0  0  0
 40 82  2  0  0  0  0
 41 72  1  0  0  0  0
 41 77  1  0  0  0  0
 41 83  2  0  0  0  0
 42 45  1  0  0  0  0
 43 52  1  0  0  0  0
 44 71  1  0  0  0  0
 45 47  1  0  0  0  0
 46 48  1  0  0  0  0
 46 49  1  0  0  0  0
 47 51  1  0  0  0  0
 48 53  1  0  0  0  0
 49 72  1  0  0  0  0
 50 53  1  0  0  0  0
 50 72  1  0  0  0  0
 51 75  1  0  0  0  0
 52 71  1  0  0  0  0
 53 69  1  0  0  0  0
 54 65  1  0  0  0  0
 55 66  1  0  0  0  0
 56 66  1  0  0  0  0
 57 66  1  0  0  0  0
 58 78  1  0  0  0  0
 59 68  1  0  0  0  0
 60 62  1  0  0  0  0
 61 63  1  0  0  0  0
 62 77  1  0  0  0  0
 63 85  1  0  0  0  0
 64 66  1  0  0  0  0
 64 76  1  0  0  0  0
 65 78  1  0  0  0  0
 67 69  1  0  0  0  0
M  CHG  2  70   1  78   1
M  ISO  4  41 100  63 101  77 100  85 101
M  END
> <Batch ID>
0045

> <Smiles>
CNC(C)C(=O)NC(C(=O)N1Cc2cc([101O:1][101CH2:1]Cc3ncc(CC[100NH:0][100C:0](=O)N4CCCC(n5nc(-c6ccc(Oc7ccc(F)cc7F)cc6)c(C(N)=O)c5N)C4)n3Cc3ccc(Cl)cc3Cl)ccc2CC1C(=O)NC1CCCc2ccccc21)C(C)(C)C

> <Shape>
0.273

> <Color>
0.189

> <Negative vol penalty>
0.000

$$$$

  -OEChem-04052317193D

 84 92  0     1  0  0  0  0  0999 V2000
  -28.6726  -11.2782   19.9212 C   0  0  0  0  0  0  0  0  0  0  0  0
  -28.8474  -12.6231   19.6112 C   0  0  0  0  0  0  0  0  0  0  0  0
  -18.7824  -27.1786   20.7668 C   0  0  0  0  0  0  0  0  0  0  0  0
  -20.1854  -25.2466   20.3978 C   0  0  0  0  0  0  0  0  0  0  0  0
  -27.4051  -10.7987   20.2490 C   0  0  0  0  0  0  0  0  0  0  0  0
  -27.7546  -13.4891   19.6277 C   0  0  0  0  0  0  0  0  0  0  0  0
  -28.7836  -17.8719   21.9464 C   0  0  0  0  0  0  0  0  0  0  0  0
  -17.7310  -26.5409   20.1085 C   0  0  0  0  0  0  0  0  0  0  0  0
  -19.1339  -24.6089   19.7395 C   0  0  0  0  0  0  0  0  0  0  0  0
  -29.5127  -18.8173   21.2264 C   0  0  0  0  0  0  0  0  0  0  0  0
  -16.7074  -22.3300   18.2778 C   0  0  0  0  0  0  0  0  0  0  0  0
  -16.4571  -20.9950   18.5951 C   0  0  0  0  0  0  0  0  0  0  0  0
  -27.4699  -19.9937   20.7142 C   0  0  0  0  0  0  0  0  0  0  0  0
  -16.0578  -21.6166   20.8954 C   0  0  0  0  0  0  0  0  0  0  0  0
  -33.1095  -25.9231   19.2783 C   0  0  0  0  0  0  0  0  0  0  0  0
  -20.0097  -26.5315   20.9115 C   0  0  0  0  0  0  0  0  0  0  0  0
  -21.3925  -27.1421   22.9664 C   0  0  0  0  0  0  0  0  0  0  0  0
  -26.2979  -11.6611   20.2789 C   0  0  0  0  0  0  0  0  0  0  0  0
  -27.3887  -17.9744   22.0468 C   0  0  0  0  0  0  0  0  0  0  0  0
  -26.4708  -13.0203   19.9549 C   0  0  0  0  0  0  0  0  0  0  0  0
  -26.7257  -19.0497   21.4382 C   0  0  0  0  0  0  0  0  0  0  0  0
  -30.6742  -26.8937   19.8590 C   0  0  0  0  0  0  0  0  0  0  0  0
  -17.9068  -25.2561   19.5948 C   0  0  0  0  0  0  0  0  0  0  0  0
  -28.8556  -19.8768   20.6077 C   0  0  0  0  0  0  0  0  0  0  0  0
  -16.6330  -23.3083   19.2693 C   0  0  0  0  0  0  0  0  0  0  0  0
  -16.1323  -20.6382   19.9039 C   0  0  0  0  0  0  0  0  0  0  0  0
  -16.3081  -22.9516   20.5781 C   0  0  0  0  0  0  0  0  0  0  0  0
  -21.0963  -27.1900   21.5910 C   0  0  0  0  0  0  0  0  0  0  0  0
  -31.7889  -27.7035   19.7814 C   0  0  0  0  0  0  0  0  0  0  0  0
  -30.8927  -25.5526   19.6185 C   0  0  0  0  0  0  0  0  0  0  0  0
  -22.5111  -27.9270   23.1043 C   0  0  0  0  0  0  0  0  0  0  0  0
  -20.7168  -26.4499   24.0247 C   0  0  0  0  0  0  0  0  0  0  0  0
  -24.9362  -16.1611   21.1519 C   0  0  0  0  0  0  0  0  0  0  0  0
  -23.2104  -18.3706   22.7835 C   0  0  0  0  0  0  0  0  0  0  0  0
  -22.9876  -21.5511   24.0009 C   0  0  0  0  0  0  0  0  0  0  0  0
  -26.8761  -29.5054   19.3219 C   0  0  0  0  0  0  0  0  0  0  0  0
  -24.9389  -11.0872   20.5930 C   0  0  0  0  0  0  0  0  0  0  0  0
  -26.6196  -16.9612   22.8495 C   0  0  0  0  0  0  0  0  0  0  0  0
  -25.2318  -19.2163   21.5328 C   0  0  0  0  0  0  0  0  0  0  0  0
  -23.8992  -12.1453   20.9527 C   0  0  0  0  0  0  0  0  0  0  0  0
  -24.7155  -31.6849   21.1270 C   0  0  0  0  0  0  0  0  0  0  0  0
  -23.9476  -13.3010   19.9583 C   0  0  0  0  0  0  0  0  0  0  0  0
  -23.5697  -30.7757   21.5747 C   0  0  0  0  0  0  0  0  0  0  0  0
  -25.2270  -31.3063   19.7388 C   0  0  0  0  0  0  0  0  0  0  0  0
  -24.4644  -28.9812   20.0327 C   0  0  0  0  0  0  0  0  0  0  0  0
  -25.3143  -13.9958   19.9860 C   0  0  1  0  0  0  0  0  0  0  0  0
  -25.1482  -16.8785   22.4550 C   0  0  1  0  0  0  0  0  0  0  0  0
  -23.9524  -29.2887   21.4503 C   0  0  2  0  0  0  0  0  0  0  0  0
  -32.9255  -29.9298   19.5859 C   0  0  0  0  0  0  0  0  0  0  0  0
  -21.4408  -23.0750   25.2587 C   0  0  0  0  0  0  0  0  0  0  0  0
  -21.5128  -18.7165   20.2718 C   0  0  0  0  0  0  0  0  0  0  0  0
  -20.6418  -20.8551   21.2394 C   0  0  0  0  0  0  0  0  0  0  0  0
  -20.2179  -18.6941   22.4112 C   0  0  0  0  0  0  0  0  0  0  0  0
  -24.9323  -21.8961   26.2051 C   0  0  0  0  0  0  0  0  0  0  0  0
  -29.3251  -27.4314   20.1809 C   0  0  0  0  0  0  0  0  0  0  0  0
  -31.6747  -29.1729   20.0223 C   0  0  0  0  0  0  0  0  0  0  0  0
  -29.7500  -24.5705   19.6752 C   0  0  0  0  0  0  0  0  0  0  0  0
  -30.1966  -23.1075   19.7148 C   0  0  0  0  0  0  0  0  0  0  0  0
  -28.4159  -27.5940   18.9550 C   0  0  0  0  0  0  0  0  0  0  0  0
  -29.0388  -22.1264   19.8583 C   0  0  0  0  0  0  0  0  0  1  0  0
  -22.5459  -19.6800   22.4330 C   0  0  1  0  0  0  0  0  0  0  0  0
  -22.5871  -22.0814   25.3657 C   0  0  2  0  0  0  0  0  0  0  0  0
  -21.2576  -19.4825   21.5853 C   0  0  0  0  0  0  0  0  0  0  0  0
  -33.0263  -27.2500   19.4923 N   0  0  0  0  0  0  0  0  0  0  0  0
  -32.1017  -25.0310   19.3241 N   0  0  0  0  0  0  0  0  0  0  0  0
  -21.9572  -27.9457   20.9042 N   0  0  0  0  0  0  0  0  0  0  0  0
  -22.8053  -28.3800   21.8519 N   0  0  0  0  0  0  0  0  0  0  0  0
  -24.5234  -18.1963   22.3235 N   0  0  0  0  0  0  0  0  0  0  0  0
  -25.5740  -29.8840   19.6883 N   0  0  0  0  0  0  0  0  0  0  0  0
  -23.2619  -28.2671   24.1734 N   0  0  0  0  0  0  0  0  0  0  0  0
  -19.5836  -25.6883   23.7084 N   0  0  0  0  0  0  0  0  0  0  0  0
  -25.4160  -14.8654   21.1384 N   0  0  0  0  0  0  0  0  0  0  0  0
  -22.3293  -20.3787   23.6953 N   0  0  0  0  0  0  0  0  0  0  0  0
  -27.1229  -28.1381   19.3055 N   0  0  0  0  0  0  0  0  0  0  0  0
  -23.7416  -22.7640   26.0154 N   0  3  0  0  0  0  0  0  0  0  0  0
  -21.0969  -26.5183   25.2182 O   0  0  0  0  0  0  0  0  0  0  0  0
  -24.3772  -16.7399   20.2276 O   0  0  0  0  0  0  0  0  0  0  0  0
  -22.5900  -17.5363   23.4473 O   0  0  0  0  0  0  0  0  0  0  0  0
  -23.8002  -22.1218   23.2767 O   0  0  0  0  0  0  0  0  0  0  0  0
  -27.7552  -30.3255   19.0362 O   0  0  0  0  0  0  0  0  0  0  0  0
  -16.8809  -24.6334   18.9525 O   0  0  0  0  0  0  0  0  0  0  0  0
  -29.5647  -20.8006   19.9038 O   0  0  0  0  0  0  0  0  0  1  0  0
  -15.8904  -19.3564   20.2081 F   0  0  0  0  0  0  0  0  0  0  0  0
  -16.2340  -23.8872   21.5346 F   0  0  0  0  0  0  0  0  0  0  0  0
  1  2  1  0  0  0  0
  1  5  2  0  0  0  0
  2  6  2  0  0  0  0
  3  8  2  0  0  0  0
  3 16  1  0  0  0  0
  4  9  1  0  0  0  0
  4 16  2  0  0  0  0
  5 18  1  0  0  0  0
  6 20  1  0  0  0  0
  7 10  2  0  0  0  0
  7 19  1  0  0  0  0
  8 23  1  0  0  0  0
  9 23  2  0  0  0  0
 10 24  1  0  0  0  0
 11 12  2  0  0  0  0
 11 25  1  0  0  0  0
 12 26  1  0  0  0  0
 13 21  1  0  0  0  0
 13 24  2  0  0  0  0
 14 26  2  0  0  0  0
 14 27  1  0  0  0  0
 15 64  2  0  0  0  0
 15 65  1  0  0  0  0
 16 28  1  0  0  0  0
 17 28  1  0  0  0  0
 17 31  2  0  0  0  0
 17 32  1  0  0  0  0
 18 20  2  0  0  0  0
 18 37  1  0  0  0  0
 19 21  2  0  0  0  0
 19 38  1  0  0  0  0
 20 46  1  0  0  0  0
 21 39  1  0  0  0  0
 22 29  2  0  0  0  0
 22 30  1  0  0  0  0
 22 55  1  0  0  0  0
 23 81  1  0  0  0  0
 24 82  1  0  0  0  0
 25 27  2  0  0  0  0
 25 81  1  0  0  0  0
 26 83  1  0  0  0  0
 27 84  1  0  0  0  0
 28 66  2  0  0  0  0
 29 56  1  0  0  0  0
 29 64  1  0  0  0  0
 30 57  1  0  0  0  0
 30 65  2  0  0  0  0
 31 67  1  0  0  0  0
 31 70  1  0  0  0  0
 32 71  1  0  0  0  0
 32 76  2  0  0  0  0
 33 47  1  0  0  0  0
 33 72  1  0  0  0  0
 33 77  2  0  0  0  0
 34 61  1  0  0  0  0
 34 68  1  0  0  0  0
 34 78  2  0  0  0  0
 35 62  1  0  0  0  0
 35 73  1  0  0  0  0
 35 79  2  0  0  0  0
 36 69  1  0  0  0  0
 36 74  1  0  0  0  0
 36 80  2  0  0  0  0
 37 40  1  0  0  0  0
 38 47  1  0  0  0  0
 39 68  1  0  0  0  0
 40 42  1  0  0  0  0
 41 43  1  0  0  0  0
 41 44  1  0  0  0  0
 42 46  1  0  0  0  0
 43 48  1  0  0  0  0
 44 69  1  0  0  0  0
 45 48  1  0  0  0  0
 45 69  1  0  0  0  0
 46 72  1  0  0  0  0
 47 68  1  0  0  0  0
 48 67  1  0  0  0  0
 49 56  1  0  0  0  0
 50 62  1  0  0  0  0
 51 63  1  0  0  0  0
 52 63  1  0  0  0  0
 53 63  1  0  0  0  0
 54 75  1  0  0  0  0
 55 59  1  0  0  0  0
 57 58  1  0  0  0  0
 58 60  1  0  0  0  0
 59 74  1  0  0  0  0
 60 82  1  0  0  0  0
 61 63  1  0  0  0  0
 61 73  1  0  0  0  0
 62 75  1  0  0  0  0
 66 67  1  0  0  0  0
M  CHG  1  75   1
M  ISO  4  36 100  60 101  74 100  82 101
M  END
> <Batch ID>
0045

> <Smiles>
CCc1ncnc(CC[101CH2:1][101O:1]c2ccc3c(c2)CN(C(=O)C(NC(=O)C(C)NC)C(C)(C)C)C(C(=O)NC2CCCc4ccccc42)C3)c1CC[100NH:0][100C:0](=O)N1CCCC(n2nc(-c3ccc(Oc4ccc(F)cc4F)cc3)c(C(N)=O)c2N)C1

> <Shape>
0.219

> <Color>
0.068

> <Negative vol penalty>
0.000

$$$$

  -OEChem-04052317193D

 79 86  0     1  0  0  0  0  0999 V2000
  -25.4464  -18.0957   28.6870 C   0  0  0  0  0  0  0  0  0  0  0  0
  -26.4512  -18.9502   28.2448 C   0  0  0  0  0  0  0  0  0  0  0  0
  -24.5083  -13.8124   21.0410 C   0  0  0  0  0  0  0  0  0  0  0  0
  -26.5823  -13.2224   19.9514 C   0  0  0  0  0  0  0  0  0  0  0  0
  -24.3450  -17.8362   27.8725 C   0  0  0  0  0  0  0  0  0  0  0  0
  -26.3557  -19.5449   26.9871 C   0  0  0  0  0  0  0  0  0  0  0  0
  -28.0810  -25.5680   23.5141 C   0  0  0  0  0  0  0  0  0  0  0  0
  -23.9735  -12.5715   20.6951 C   0  0  0  0  0  0  0  0  0  0  0  0
  -26.0475  -11.9814   19.6054 C   0  0  0  0  0  0  0  0  0  0  0  0
  -28.7349  -25.9959   22.3595 C   0  0  0  0  0  0  0  0  0  0  0  0
  -24.1669   -9.3809   21.7976 C   0  0  0  0  0  0  0  0  0  0  0  0
  -23.4680   -8.6796   22.7800 C   0  0  0  0  0  0  0  0  0  0  0  0
  -26.7479  -25.5364   21.0711 C   0  0  0  0  0  0  0  0  0  0  0  0
  -21.4876   -8.7150   21.3966 C   0  0  0  0  0  0  0  0  0  0  0  0
  -25.8127  -14.1379   20.6691 C   0  0  0  0  0  0  0  0  0  0  0  0
  -27.0740  -15.7437   22.1983 C   0  0  0  0  0  0  0  0  0  0  0  0
  -24.2312  -18.4355   26.6082 C   0  0  0  0  0  0  0  0  0  0  0  0
  -26.7570  -25.1100   23.4539 C   0  0  0  0  0  0  0  0  0  0  0  0
  -25.2524  -19.2921   26.1543 C   0  0  0  0  0  0  0  0  0  0  0  0
  -26.0786  -25.1056   22.2268 C   0  0  0  0  0  0  0  0  0  0  0  0
  -24.7431  -11.6560   19.9773 C   0  0  0  0  0  0  0  0  0  0  0  0
  -28.0694  -25.9774   21.1373 C   0  0  0  0  0  0  0  0  0  0  0  0
  -23.5262   -9.7493   20.6146 C   0  0  0  0  0  0  0  0  0  0  0  0
  -22.1284   -8.3466   22.5796 C   0  0  0  0  0  0  0  0  0  0  0  0
  -22.1866   -9.4164   20.4141 C   0  0  0  0  0  0  0  0  0  0  0  0
  -26.3655  -15.4198   21.0257 C   0  0  0  0  0  0  0  0  0  0  0  0
  -27.3800  -17.0752   22.0579 C   0  0  0  0  0  0  0  0  0  0  0  0
  -27.4242  -14.9149   23.3146 C   0  0  0  0  0  0  0  0  0  0  0  0
  -25.3060  -22.3533   24.0859 C   0  0  0  0  0  0  0  0  0  0  0  0
  -22.6224  -24.0801   23.5040 C   0  0  0  0  0  0  0  0  0  0  0  0
  -21.1853  -26.7774   21.9854 C   0  0  0  0  0  0  0  0  0  0  0  0
  -29.2807  -21.2267   19.0414 C   0  0  0  0  0  0  0  0  0  0  0  0
  -23.0452  -18.0875   25.7439 C   0  0  0  0  0  0  0  0  0  0  0  0
  -26.0569  -24.6769   24.7128 C   0  0  0  0  0  0  0  0  0  0  0  0
  -24.6501  -24.6424   22.1120 C   0  0  0  0  0  0  0  0  0  0  0  0
  -22.8370  -19.0514   24.5786 C   0  0  0  0  0  0  0  0  0  0  0  0
  -25.7529  -20.4937   18.7026 C   0  0  0  0  0  0  0  0  0  0  0  0
  -24.1579  -19.3178   23.8637 C   0  0  0  0  0  0  0  0  0  0  0  0
  -25.6603  -19.1250   19.3796 C   0  0  0  0  0  0  0  0  0  0  0  0
  -27.0516  -20.6334   17.9138 C   0  0  0  0  0  0  0  0  0  0  0  0
  -28.1960  -19.0257   19.3900 C   0  0  0  0  0  0  0  0  0  0  0  0
  -25.1727  -19.9756   24.8066 C   0  0  1  0  0  0  0  0  0  0  0  0
  -24.8768  -23.7464   24.4504 C   0  0  1  0  0  0  0  0  0  0  0  0
  -26.9156  -18.8305   20.2221 C   0  0  2  0  0  0  0  0  0  0  0  0
  -29.7462  -23.4635   15.5763 C   0  0  0  0  0  0  0  0  0  0  0  0
  -18.9671  -27.9049   21.6603 C   0  0  0  0  0  0  0  0  0  0  0  0
  -21.8311  -21.9353   21.4832 C   0  0  0  0  0  0  0  0  0  0  0  0
  -20.1617  -23.5426   20.5357 C   0  0  0  0  0  0  0  0  0  0  0  0
  -19.9507  -22.7776   22.9007 C   0  0  0  0  0  0  0  0  0  0  0  0
  -30.2578  -27.3184   17.6890 C   0  0  0  0  0  0  0  0  0  0  0  0
  -32.1579  -25.9513   18.4945 C   0  0  0  0  0  0  0  0  0  0  0  0
  -22.1227  -29.2579   23.2997 C   0  0  0  0  0  0  0  0  0  0  0  0
  -30.4054  -24.6174   16.3217 C   0  0  0  0  0  0  0  0  0  0  0  0
  -30.2468  -23.4687   18.5971 C   0  0  0  0  0  0  0  0  0  0  0  0
  -30.1209  -26.2112   19.9572 C   0  0  0  0  0  0  0  0  0  1  0  0
  -21.7956  -24.3910   22.2797 C   0  0  1  0  0  0  0  0  0  0  0  0
  -20.2292  -27.8355   22.5058 C   0  0  2  0  0  0  0  0  0  0  0  0
  -29.9709  -24.7717   17.8070 C   0  0  1  0  0  0  0  0  0  0  0  0
  -20.9623  -23.1686   21.8014 C   0  0  0  0  0  0  0  0  0  0  0  0
  -30.6125  -26.0451   18.4987 C   0  0  0  0  0  0  0  0  0  0  0  0
  -26.2293  -16.4618   20.2012 N   0  0  0  0  0  0  0  0  0  0  0  0
  -26.8563  -17.4534   20.8567 N   0  0  0  0  0  0  0  0  0  0  0  0
  -24.0108  -24.2228   23.3700 N   0  0  0  0  0  0  0  0  0  0  0  0
  -28.2083  -20.3585   18.7777 N   0  0  0  0  0  0  0  0  0  0  0  0
  -28.0432  -17.9478   22.8461 N   0  0  0  0  0  0  0  0  0  0  0  0
  -27.0314  -13.5696   23.2972 N   0  0  0  0  0  0  0  0  0  0  0  0
  -24.8738  -21.3823   24.9689 N   0  0  0  0  0  0  0  0  0  0  0  0
  -20.9965  -25.5649   22.6141 N   0  0  0  0  0  0  0  0  0  0  0  0
  -29.2197  -22.4668   18.4175 N   0  0  0  0  0  0  0  0  0  0  0  0
  -20.8807  -29.1758   22.4887 N   0  3  0  0  0  0  0  0  0  0  0  0
  -28.0521  -15.3583   24.3059 O   0  0  0  0  0  0  0  0  0  0  0  0
  -25.9783  -22.1727   23.0774 O   0  0  0  0  0  0  0  0  0  0  0  0
  -22.0567  -23.7308   24.5430 O   0  0  0  0  0  0  0  0  0  0  0  0
  -22.0140  -27.0030   21.1063 O   0  0  0  0  0  0  0  0  0  0  0  0
  -30.2211  -20.9215   19.7828 O   0  0  0  0  0  0  0  0  0  0  0  0
  -24.2216  -10.4449   19.6398 O   0  0  0  0  0  0  0  0  0  0  0  0
  -28.7095  -26.3966   20.0017 O   0  0  0  0  0  0  0  0  0  1  0  0
  -21.4578   -7.6717   23.5225 F   0  0  0  0  0  0  0  0  0  0  0  0
  -21.5660   -9.7666   19.2792 F   0  0  0  0  0  0  0  0  0  0  0  0
  1  2  1  0  0  0  0
  1  5  2  0  0  0  0
  2  6  2  0  0  0  0
  3  8  2  0  0  0  0
  3 15  1  0  0  0  0
  4  9  1  0  0  0  0
  4 15  2  0  0  0  0
  5 17  1  0  0  0  0
  6 19  1  0  0  0  0
  7 10  2  0  0  0  0
  7 18  1  0  0  0  0
  8 21  1  0  0  0  0
  9 21  2  0  0  0  0
 10 22  1  0  0  0  0
 11 12  2  0  0  0  0
 11 23  1  0  0  0  0
 12 24  1  0  0  0  0
 13 20  1  0  0  0  0
 13 22  2  0  0  0  0
 14 24  2  0  0  0  0
 14 25  1  0  0  0  0
 15 26  1  0  0  0  0
 16 26  1  0  0  0  0
 16 27  2  0  0  0  0
 16 28  1  0  0  0  0
 17 19  2  0  0  0  0
 17 33  1  0  0  0  0
 18 20  2  0  0  0  0
 18 34  1  0  0  0  0
 19 42  1  0  0  0  0
 20 35  1  0  0  0  0
 21 76  1  0  0  0  0
 22 77  1  0  0  0  0
 23 25  2  0  0  0  0
 23 76  1  0  0  0  0
 24 78  1  0  0  0  0
 25 79  1  0  0  0  0
 26 61  2  0  0  0  0
 27 62  1  0  0  0  0
 27 65  1  0  0  0  0
 28 66  1  0  0  0  0
 28 71  2  0  0  0  0
 29 43  1  0  0  0  0
 29 67  1  0  0  0  0
 29 72  2  0  0  0  0
 30 56  1  0  0  0  0
 30 63  1  0  0  0  0
 30 73  2  0  0  0  0
 31 57  1  0  0  0  0
 31 68  1  0  0  0  0
 31 74  2  0  0  0  0
 32 64  1  0  0  0  0
 32 69  1  0  0  0  0
 32 75  2  0  0  0  0
 33 36  1  0  0  0  0
 34 43  1  0  0  0  0
 35 63  1  0  0  0  0
 36 38  1  0  0  0  0
 37 39  1  0  0  0  0
 37 40  1  0  0  0  0
 38 42  1  0  0  0  0
 39 44  1  0  0  0  0
 40 64  1  0  0  0  0
 41 44  1  0  0  0  0
 41 64  1  0  0  0  0
 42 67  1  0  0  0  0
 43 63  1  0  0  0  0
 44 62  1  0  0  0  0
 45 53  1  0  0  0  0
 46 57  1  0  0  0  0
 47 59  1  0  0  0  0
 48 59  1  0  0  0  0
 49 59  1  0  0  0  0
 50 60  1  0  0  0  0
 51 60  1  0  0  0  0
 52 70  1  0  0  0  0
 53 58  1  0  0  0  0
 54 58  1  0  0  0  0
 54 69  1  0  0  0  0
 55 60  1  0  0  0  0
 55 77  1  0  0  0  0
 56 59  1  0  0  0  0
 56 68  1  0  0  0  0
 57 70  1  0  0  0  0
 58 60  1  0  0  0  0
 61 62  1  0  0  0  0
M  CHG  1  70   1
M  ISO  4  32 100  55 101  69 100  77 101
M  END
> <Batch ID>
0045

> <Smiles>
CCC(C[100NH:0][100C:0](=O)N1CCCC(n2nc(-c3ccc(Oc4ccc(F)cc4F)cc3)c(C(N)=O)c2N)C1)C(C)(C)[101CH2:1][101O:1]c1ccc2c(c1)CN(C(=O)C(NC(=O)C(C)NC)C(C)(C)C)C(C(=O)NC1CCCc3ccccc31)C2

> <Shape>
0.191

> <Color>
0.069

> <Negative vol penalty>
0.000

$$$$

  -OEChem-04052317193D

 82 90  0     1  0  0  0  0  0999 V2000
  -29.6876  -12.3177   21.2094 C   0  0  0  0  0  0  0  0  0  0  0  0
  -29.5523  -13.6529   21.5759 C   0  0  0  0  0  0  0  0  0  0  0  0
  -29.7473  -21.8726   20.3125 C   0  0  0  0  0  0  0  0  0  0  0  0
  -27.3791  -21.7121   19.8620 C   0  0  0  0  0  0  0  0  0  0  0  0
  -28.8893  -11.7899   20.1955 C   0  0  0  0  0  0  0  0  0  0  0  0
  -28.6192  -14.4614   20.9278 C   0  0  0  0  0  0  0  0  0  0  0  0
  -24.2239  -19.9872   22.1380 C   0  0  0  0  0  0  0  0  0  0  0  0
  -29.8824  -20.5021   20.0912 C   0  0  0  0  0  0  0  0  0  0  0  0
  -27.5142  -20.3416   19.6406 C   0  0  0  0  0  0  0  0  0  0  0  0
  -23.9077  -21.2443   21.6249 C   0  0  0  0  0  0  0  0  0  0  0  0
  -30.9136  -17.1092   19.2914 C   0  0  0  0  0  0  0  0  0  0  0  0
  -31.9840  -16.6815   18.5059 C   0  0  0  0  0  0  0  0  0  0  0  0
  -22.5276  -20.2037   19.9421 C   0  0  0  0  0  0  0  0  0  0  0  0
  -31.1452  -17.9853   16.6529 C   0  0  0  0  0  0  0  0  0  0  0  0
  -23.2550  -25.4799   18.7483 C   0  0  0  0  0  0  0  0  0  0  0  0
  -21.9086  -25.8535   20.4461 C   0  0  0  0  0  0  0  0  0  0  0  0
  -28.4957  -22.4777   20.1980 C   0  0  0  0  0  0  0  0  0  0  0  0
  -28.9906  -24.9351   19.7249 C   0  0  0  0  0  0  0  0  0  0  0  0
  -27.9392  -12.5899   19.5413 C   0  0  0  0  0  0  0  0  0  0  0  0
  -23.7022  -18.8263   21.5493 C   0  0  0  0  0  0  0  0  0  0  0  0
  -27.8083  -13.9442   19.9033 C   0  0  0  0  0  0  0  0  0  0  0  0
  -22.8367  -18.9331   20.4512 C   0  0  0  0  0  0  0  0  0  0  0  0
  -22.8482  -24.9605   19.9919 C   0  0  0  0  0  0  0  0  0  0  0  0
  -28.7658  -19.7366   19.7552 C   0  0  0  0  0  0  0  0  0  0  0  0
  -23.0618  -21.3526   20.5250 C   0  0  0  0  0  0  0  0  0  0  0  0
  -29.9589  -17.9749   18.7576 C   0  0  0  0  0  0  0  0  0  0  0  0
  -32.0998  -17.1196   17.1867 C   0  0  0  0  0  0  0  0  0  0  0  0
  -30.0748  -18.4130   17.4384 C   0  0  0  0  0  0  0  0  0  0  0  0
  -28.3555  -23.8933   20.4271 C   0  0  0  0  0  0  0  0  0  0  0  0
  -28.5285  -26.0828   20.3214 C   0  0  0  0  0  0  0  0  0  0  0  0
  -29.9155  -24.8711   18.6313 C   0  0  0  0  0  0  0  0  0  0  0  0
  -24.9545  -16.2819   20.1136 C   0  0  0  0  0  0  0  0  0  0  0  0
  -21.8815  -15.2433   20.1333 C   0  0  0  0  0  0  0  0  0  0  0  0
  -18.5609  -16.0218   20.2520 C   0  0  0  0  0  0  0  0  0  0  0  0
  -23.7292  -28.2483   22.7280 C   0  0  0  0  0  0  0  0  0  0  0  0
  -27.1319  -11.9871   18.4190 C   0  0  0  0  0  0  0  0  0  0  0  0
  -24.0316  -17.4790   22.1313 C   0  0  0  0  0  0  0  0  0  0  0  0
  -22.2340  -17.7186   19.7954 C   0  0  0  0  0  0  0  0  0  0  0  0
  -25.9060  -12.8134   18.0384 C   0  0  0  0  0  0  0  0  0  0  0  0
  -26.4896  -27.1586   24.6950 C   0  0  0  0  0  0  0  0  0  0  0  0
  -26.2753  -14.2877   17.9088 C   0  0  0  0  0  0  0  0  0  0  0  0
  -27.3112  -26.3023   23.7297 C   0  0  0  0  0  0  0  0  0  0  0  0
  -24.9900  -26.9981   24.4553 C   0  0  0  0  0  0  0  0  0  0  0  0
  -25.3773  -26.3810   22.1009 C   0  0  0  0  0  0  0  0  0  0  0  0
  -26.7901  -14.8467   19.2408 C   0  0  1  0  0  0  0  0  0  0  0  0
  -23.8535  -16.3378   21.1346 C   0  0  1  0  0  0  0  0  0  0  0  0
  -26.8970  -26.5521   22.2670 C   0  0  2  0  0  0  0  0  0  0  0  0
  -16.2865  -14.9622   20.2123 C   0  0  0  0  0  0  0  0  0  0  0  0
  -22.1449  -14.7964   17.1264 C   0  0  0  0  0  0  0  0  0  0  0  0
  -19.6480  -14.6648   16.9977 C   0  0  0  0  0  0  0  0  0  0  0  0
  -20.9156  -12.9917   18.3456 C   0  0  0  0  0  0  0  0  0  0  0  0
  -20.0876  -30.0050   20.6957 C   0  0  0  0  0  0  0  0  0  0  0  0
  -17.8957  -17.0752   22.9366 C   0  0  0  0  0  0  0  0  0  0  0  0
  -23.3291  -23.7113   20.6697 C   0  0  0  0  0  0  0  0  0  1  0  0
  -20.9500  -27.9720   19.5125 C   0  0  0  0  0  0  0  0  0  0  0  0
  -22.5511  -29.4195   20.8841 C   0  0  0  0  0  0  0  0  0  0  0  0
  -20.7061  -15.3642   19.1937 C   0  0  1  0  0  0  0  0  0  0  0  0
  -17.4244  -15.4623   21.0885 C   0  0  2  0  0  0  0  0  0  0  0  0
  -20.8664  -14.4772   17.9268 C   0  0  0  0  0  0  0  0  0  0  0  0
  -21.1222  -28.8779   20.7496 C   0  0  1  0  0  0  0  0  0  0  0  0
  -22.6252  -26.6146   18.4324 N   0  0  0  0  0  0  0  0  0  0  0  0
  -27.5513  -24.3396   21.3957 N   0  0  0  0  0  0  0  0  0  0  0  0
  -21.8131  -26.8157   19.4842 N   0  0  0  0  0  0  0  0  0  0  0  0
  -27.6781  -25.6745   21.3064 N   0  0  0  0  0  0  0  0  0  0  0  0
  -22.5913  -16.4233   20.3971 N   0  0  0  0  0  0  0  0  0  0  0  0
  -24.6635  -27.2500   23.0496 N   0  0  0  0  0  0  0  0  0  0  0  0
  -28.7707  -27.3912   20.0942 N   0  0  0  0  0  0  0  0  0  0  0  0
  -29.4072  -24.8771   17.3252 N   0  0  0  0  0  0  0  0  0  0  0  0
  -25.6861  -15.1099   20.1388 N   0  0  0  0  0  0  0  0  0  0  0  0
  -19.5179  -15.0656   19.9858 N   0  0  0  0  0  0  0  0  0  0  0  0
  -23.4821  -28.4267   21.3723 N   0  0  0  0  0  0  0  0  0  0  0  0
  -16.8884  -16.5110   22.0017 N   0  3  0  0  0  0  0  0  0  0  0  0
  -31.1551  -24.7939   18.8073 O   0  0  0  0  0  0  0  0  0  0  0  0
  -25.1265  -17.2311   19.3578 O   0  0  0  0  0  0  0  0  0  0  0  0
  -22.1553  -14.1438   20.6209 O   0  0  0  0  0  0  0  0  0  0  0  0
  -18.5943  -17.1894   19.8696 O   0  0  0  0  0  0  0  0  0  0  0  0
  -23.1615  -28.9339   23.5851 O   0  0  0  0  0  0  0  0  0  0  0  0
  -28.8973  -18.3992   19.5389 O   0  0  0  0  0  0  0  0  0  0  0  0
  -22.7520  -22.5784   20.0217 O   0  0  0  0  0  0  0  0  0  1  0  0
  -33.1286  -16.7100   16.4330 F   0  0  0  0  0  0  0  0  0  0  0  0
  -29.1614  -19.2457   16.9204 F   0  0  0  0  0  0  0  0  0  0  0  0
  -20.8446  -28.1346   21.8627 F   0  0  0  0  0  0  0  0  0  0  0  0
  1  2  1  0  0  0  0
  1  5  2  0  0  0  0
  2  6  2  0  0  0  0
  3  8  2  0  0  0  0
  3 17  1  0  0  0  0
  4  9  1  0  0  0  0
  4 17  2  0  0  0  0
  5 19  1  0  0  0  0
  6 21  1  0  0  0  0
  7 10  2  0  0  0  0
  7 20  1  0  0  0  0
  8 24  1  0  0  0  0
  9 24  2  0  0  0  0
 10 25  1  0  0  0  0
 11 12  2  0  0  0  0
 11 26  1  0  0  0  0
 12 27  1  0  0  0  0
 13 22  1  0  0  0  0
 13 25  2  0  0  0  0
 14 27  2  0  0  0  0
 14 28  1  0  0  0  0
 15 23  1  0  0  0  0
 15 61  2  0  0  0  0
 16 23  2  0  0  0  0
 16 63  1  0  0  0  0
 17 29  1  0  0  0  0
 18 29  1  0  0  0  0
 18 30  2  0  0  0  0
 18 31  1  0  0  0  0
 19 21  2  0  0  0  0
 19 36  1  0  0  0  0
 20 22  2  0  0  0  0
 20 37  1  0  0  0  0
 21 45  1  0  0  0  0
 22 38  1  0  0  0  0
 23 54  1  0  0  0  0
 24 78  1  0  0  0  0
 25 79  1  0  0  0  0
 26 28  2  0  0  0  0
 26 78  1  0  0  0  0
 27 80  1  0  0  0  0
 28 81  1  0  0  0  0
 29 62  2  0  0  0  0
 30 64  1  0  0  0  0
 30 67  1  0  0  0  0
 31 68  1  0  0  0  0
 31 73  2  0  0  0  0
 32 46  1  0  0  0  0
 32 69  1  0  0  0  0
 32 74  2  0  0  0  0
 33 57  1  0  0  0  0
 33 65  1  0  0  0  0
 33 75  2  0  0  0  0
 34 58  1  0  0  0  0
 34 70  1  0  0  0  0
 34 76  2  0  0  0  0
 35 66  1  0  0  0  0
 35 71  1  0  0  0  0
 35 77  2  0  0  0  0
 36 39  1  0  0  0  0
 37 46  1  0  0  0  0
 38 65  1  0  0  0  0
 39 41  1  0  0  0  0
 40 42  1  0  0  0  0
 40 43  1  0  0  0  0
 41 45  1  0  0  0  0
 42 47  1  0  0  0  0
 43 66  1  0  0  0  0
 44 47  1  0  0  0  0
 44 66  1  0  0  0  0
 45 69  1  0  0  0  0
 46 65  1  0  0  0  0
 47 64  1  0  0  0  0
 48 58  1  0  0  0  0
 49 59  1  0  0  0  0
 50 59  1  0  0  0  0
 51 59  1  0  0  0  0
 52 60  1  0  0  0  0
 53 72  1  0  0  0  0
 54 79  1  0  0  0  0
 55 60  1  0  0  0  0
 55 63  1  0  0  0  0
 56 60  1  0  0  0  0
 56 71  1  0  0  0  0
 57 59  1  0  0  0  0
 57 70  1  0  0  0  0
 58 72  1  0  0  0  0
 60 82  1  0  0  0  0
 61 63  1  0  0  0  0
 62 64  1  0  0  0  0
M  CHG  1  72   1
M  ISO  4  35 100  54 101  71 100  79 101
M  END
> <Batch ID>
0045

> <Smiles>
CNC(C)C(=O)NC(C(=O)N1Cc2cc([101O:1][101CH2:1]c3cnn(CC(C)(F)C[100NH:0][100C:0](=O)N4CCCC(n5nc(-c6ccc(Oc7ccc(F)cc7F)cc6)c(C(N)=O)c5N)C4)c3)ccc2CC1C(=O)NC1CCCc2ccccc21)C(C)(C)C

> <Shape>
0.176

> <Color>
0.076

> <Negative vol penalty>
0.000

$$$$

  -OEChem-04052317193D

 84 92  0     1  0  0  0  0  0999 V2000
  -17.7052  -26.1575   25.6067 C   0  0  0  0  0  0  0  0  0  0  0  0
  -18.2443  -25.0646   24.9356 C   0  0  0  0  0  0  0  0  0  0  0  0
  -26.6300  -12.4552   21.7216 C   0  0  0  0  0  0  0  0  0  0  0  0
  -26.0174  -13.7829   19.7983 C   0  0  0  0  0  0  0  0  0  0  0  0
  -17.8518  -27.4397   25.0791 C   0  0  0  0  0  0  0  0  0  0  0  0
  -18.9294  -25.2532   23.7358 C   0  0  0  0  0  0  0  0  0  0  0  0
  -23.7715  -22.0886   21.7246 C   0  0  0  0  0  0  0  0  0  0  0  0
  -25.3614  -11.8753   21.7254 C   0  0  0  0  0  0  0  0  0  0  0  0
  -24.7488  -13.2029   19.8020 C   0  0  0  0  0  0  0  0  0  0  0  0
  -23.8921  -21.0276   20.8282 C   0  0  0  0  0  0  0  0  0  0  0  0
  -23.7212   -9.4609   20.0184 C   0  0  0  0  0  0  0  0  0  0  0  0
  -23.6410   -8.0784   20.1847 C   0  0  0  0  0  0  0  0  0  0  0  0
  -24.4063  -22.5870   19.0610 C   0  0  0  0  0  0  0  0  0  0  0  0
  -22.3244   -8.3954   22.1855 C   0  0  0  0  0  0  0  0  0  0  0  0
  -28.8854  -19.6666   17.2983 C   0  0  0  0  0  0  0  0  0  0  0  0
  -26.9580  -13.4091   20.7581 C   0  0  0  0  0  0  0  0  0  0  0  0
  -29.4112  -13.5497   20.0728 C   0  0  0  0  0  0  0  0  0  0  0  0
  -18.5474  -27.6452   23.8772 C   0  0  0  0  0  0  0  0  0  0  0  0
  -23.9570  -23.4098   21.2928 C   0  0  0  0  0  0  0  0  0  0  0  0
  -19.0843  -26.5393   23.1910 C   0  0  0  0  0  0  0  0  0  0  0  0
  -24.2901  -23.6628   19.9544 C   0  0  0  0  0  0  0  0  0  0  0  0
  -29.8999  -20.5963   17.2358 C   0  0  0  0  0  0  0  0  0  0  0  0
  -29.6416  -21.4300   16.1200 C   0  0  0  0  0  0  0  0  0  0  0  0
  -24.4209  -12.2491   20.7656 C   0  0  0  0  0  0  0  0  0  0  0  0
  -24.2067  -21.2769   19.4956 C   0  0  0  0  0  0  0  0  0  0  0  0
  -23.1031  -10.3108   20.9357 C   0  0  0  0  0  0  0  0  0  0  0  0
  -22.9426   -7.5456   21.2682 C   0  0  0  0  0  0  0  0  0  0  0  0
  -22.4047   -9.7780   22.0192 C   0  0  0  0  0  0  0  0  0  0  0  0
  -28.2680  -14.0089   20.7541 C   0  0  0  0  0  0  0  0  0  0  0  0
  -28.4770  -20.9846   15.5346 C   0  0  0  0  0  0  0  0  0  0  0  0
  -30.3888  -14.4610   20.3894 C   0  0  0  0  0  0  0  0  0  0  0  0
  -29.5747  -12.4021   19.2290 C   0  0  0  0  0  0  0  0  0  0  0  0
  -22.1265  -26.0052   21.1629 C   0  0  0  0  0  0  0  0  0  0  0  0
  -24.8875  -27.4304   20.2313 C   0  0  0  0  0  0  0  0  0  0  0  0
  -27.9826  -27.1120   18.8293 C   0  0  0  0  0  0  0  0  0  0  0  0
  -30.2176  -20.2017   22.0826 C   0  0  0  0  0  0  0  0  0  0  0  0
  -18.6393  -29.0444   23.3218 C   0  0  0  0  0  0  0  0  0  0  0  0
  -23.8497  -24.5413   22.2780 C   0  0  0  0  0  0  0  0  0  0  0  0
  -24.5191  -25.0616   19.4450 C   0  0  0  0  0  0  0  0  0  0  0  0
  -19.7028  -29.2008   22.2378 C   0  0  0  0  0  0  0  0  0  0  0  0
  -31.7035  -17.4917   23.8503 C   0  0  0  0  0  0  0  0  0  0  0  0
  -19.6069  -28.0618   21.2277 C   0  0  0  0  0  0  0  0  0  0  0  0
  -31.0946  -16.2503   23.1958 C   0  0  0  0  0  0  0  0  0  0  0  0
  -30.6944  -18.6343   23.9407 C   0  0  0  0  0  0  0  0  0  0  0  0
  -29.4428  -17.7541   22.0088 C   0  0  0  0  0  0  0  0  0  0  0  0
  -19.8556  -26.7061   21.8997 C   0  0  1  0  0  0  0  0  0  0  0  0
  -23.5538  -25.8837   21.6164 C   0  0  1  0  0  0  0  0  0  0  0  0
  -30.4389  -16.5934   21.8446 C   0  0  2  0  0  0  0  0  0  0  0  0
  -30.4673  -22.5680   15.6657 C   0  0  0  0  0  0  0  0  0  0  0  0
  -27.7533  -21.4871   14.3475 C   0  0  0  0  0  0  0  0  0  0  0  0
  -29.9926  -28.4599   18.1655 C   0  0  0  0  0  0  0  0  0  0  0  0
  -23.3797  -28.4734   17.7923 C   0  0  0  0  0  0  0  0  0  0  0  0
  -25.5894  -28.9741   16.7272 C   0  0  0  0  0  0  0  0  0  0  0  0
  -24.9365  -30.1257   18.8415 C   0  0  0  0  0  0  0  0  0  0  0  0
  -29.7440  -25.6078   20.6716 C   0  0  0  0  0  0  0  0  0  0  0  0
  -31.0420  -20.6953   18.1664 C   0  0  0  0  0  0  0  0  0  0  0  0
  -30.9090  -21.7937   19.2487 C   0  0  0  0  0  0  0  0  0  0  0  0
  -25.8030  -19.0539   17.1502 C   0  0  0  0  0  0  0  0  0  0  0  0
  -26.7797  -19.1134   15.9737 C   0  0  0  0  0  0  0  0  0  0  0  0
  -29.6765  -21.6460   20.1383 C   0  0  0  0  0  0  0  0  0  0  0  0
  -25.2314  -20.4148   17.5302 C   0  0  0  0  0  0  0  0  0  1  0  0
  -25.5686  -27.6786   18.9071 C   0  0  1  0  0  0  0  0  0  0  0  0
  -29.3424  -27.6301   19.2617 C   0  0  2  0  0  0  0  0  0  0  0  0
  -24.8624  -28.7866   18.0759 C   0  0  0  0  0  0  0  0  0  0  0  0
  -28.4968  -15.1251   21.4511 N   0  0  0  0  0  0  0  0  0  0  0  0
  -28.0261  -19.9125   16.2594 N   0  0  0  0  0  0  0  0  0  0  0  0
  -29.7950  -15.3749   21.2095 N   0  0  0  0  0  0  0  0  0  0  0  0
  -24.3966  -26.1347   20.4455 N   0  0  0  0  0  0  0  0  0  0  0  0
  -30.1106  -18.9108   22.6259 N   0  0  0  0  0  0  0  0  0  0  0  0
  -31.6898  -14.5618   20.0437 N   0  0  0  0  0  0  0  0  0  0  0  0
  -28.4675  -11.5713   19.0091 N   0  0  0  0  0  0  0  0  0  0  0  0
  -21.2710  -26.5061   22.1256 N   0  0  0  0  0  0  0  0  0  0  0  0
  -26.9666  -27.9613   19.2138 N   0  0  0  0  0  0  0  0  0  0  0  0
  -29.6426  -20.3766   20.8298 N   0  0  0  0  0  0  0  0  0  0  0  0
  -30.2487  -26.4940   19.5913 N   0  3  0  0  0  0  0  0  0  0  0  0
  -30.6743  -12.1126   18.6994 O   0  0  0  0  0  0  0  0  0  0  0  0
  -21.8240  -25.6708   20.0235 O   0  0  0  0  0  0  0  0  0  0  0  0
  -24.8007  -28.3504   21.0485 O   0  0  0  0  0  0  0  0  0  0  0  0
  -27.8366  -26.0611   18.2090 O   0  0  0  0  0  0  0  0  0  0  0  0
  -30.7883  -21.1282   22.6681 O   0  0  0  0  0  0  0  0  0  0  0  0
  -23.1830  -11.6832   20.7687 O   0  0  0  0  0  0  0  0  0  0  0  0
  -24.3244  -20.2432   18.6184 O   0  0  0  0  0  0  0  0  0  1  0  0
  -22.8643   -6.2179   21.4269 F   0  0  0  0  0  0  0  0  0  0  0  0
  -21.8078  -10.5894   22.9030 F   0  0  0  0  0  0  0  0  0  0  0  0
  1  2  1  0  0  0  0
  1  5  2  0  0  0  0
  2  6  2  0  0  0  0
  3  8  2  0  0  0  0
  3 16  1  0  0  0  0
  4  9  1  0  0  0  0
  4 16  2  0  0  0  0
  5 18  1  0  0  0  0
  6 20  1  0  0  0  0
  7 10  2  0  0  0  0
  7 19  1  0  0  0  0
  8 24  1  0  0  0  0
  9 24  2  0  0  0  0
 10 25  1  0  0  0  0
 11 12  2  0  0  0  0
 11 26  1  0  0  0  0
 12 27  1  0  0  0  0
 13 21  1  0  0  0  0
 13 25  2  0  0  0  0
 14 27  2  0  0  0  0
 14 28  1  0  0  0  0
 15 22  2  0  0  0  0
 15 66  1  0  0  0  0
 16 29  1  0  0  0  0
 17 29  1  0  0  0  0
 17 31  2  0  0  0  0
 17 32  1  0  0  0  0
 18 20  2  0  0  0  0
 18 37  1  0  0  0  0
 19 21  2  0  0  0  0
 19 38  1  0  0  0  0
 20 46  1  0  0  0  0
 21 39  1  0  0  0  0
 22 23  1  0  0  0  0
 22 56  1  0  0  0  0
 23 30  2  0  0  0  0
 23 49  1  0  0  0  0
 24 81  1  0  0  0  0
 25 82  1  0  0  0  0
 26 28  2  0  0  0  0
 26 81  1  0  0  0  0
 27 83  1  0  0  0  0
 28 84  1  0  0  0  0
 29 65  2  0  0  0  0
 30 50  1  0  0  0  0
 30 66  1  0  0  0  0
 31 67  1  0  0  0  0
 31 70  1  0  0  0  0
 32 71  1  0  0  0  0
 32 76  2  0  0  0  0
 33 47  1  0  0  0  0
 33 72  1  0  0  0  0
 33 77  2  0  0  0  0
 34 62  1  0  0  0  0
 34 68  1  0  0  0  0
 34 78  2  0  0  0  0
 35 63  1  0  0  0  0
 35 73  1  0  0  0  0
 35 79  2  0  0  0  0
 36 69  1  0  0  0  0
 36 74  1  0  0  0  0
 36 80  2  0  0  0  0
 37 40  1  0  0  0  0
 38 47  1  0  0  0  0
 39 68  1  0  0  0  0
 40 42  1  0  0  0  0
 41 43  1  0  0  0  0
 41 44  1  0  0  0  0
 42 46  1  0  0  0  0
 43 48  1  0  0  0  0
 44 69  1  0  0  0  0
 45 48  1  0  0  0  0
 45 69  1  0  0  0  0
 46 72  1  0  0  0  0
 47 68  1  0  0  0  0
 48 67  1  0  0  0  0
 51 63  1  0  0  0  0
 52 64  1  0  0  0  0
 53 64  1  0  0  0  0
 54 64  1  0  0  0  0
 55 75  1  0  0  0  0
 56 57  1  0  0  0  0
 57 60  1  0  0  0  0
 58 59  1  0  0  0  0
 58 61  1  0  0  0  0
 59 66  1  0  0  0  0
 60 74  1  0  0  0  0
 61 82  1  0  0  0  0
 62 64  1  0  0  0  0
 62 73  1  0  0  0  0
 63 75  1  0  0  0  0
 65 67  1  0  0  0  0
M  CHG  1  75   1
M  ISO  4  36 100  61 101  74 100  82 101
M  END
> <Batch ID>
0045

> <Smiles>
CNC(C)C(=O)NC(C(=O)N1Cc2cc([101O:1][101CH2:1]CCn3cc(CCC[100NH:0][100C:0](=O)N4CCCC(n5nc(-c6ccc(Oc7ccc(F)cc7F)cc6)c(C(N)=O)c5N)C4)c(C)c3C)ccc2CC1C(=O)NC1CCCc2ccccc21)C(C)(C)C

> <Shape>
0.244

> <Color>
0.072

> <Negative vol penalty>
0.000

$$$$

  -OEChem-04052317193D

 84 92  0     1  0  0  0  0  0999 V2000
  -30.9553  -25.1132   18.5643 C   0  0  0  0  0  0  0  0  0  0  0  0
  -29.5714  -25.0139   18.6667 C   0  0  0  0  0  0  0  0  0  0  0  0
  -22.9707  -14.1713   21.5226 C   0  0  0  0  0  0  0  0  0  0  0  0
  -25.2707  -14.6594   22.0785 C   0  0  0  0  0  0  0  0  0  0  0  0
  -31.6752  -25.8219   19.5251 C   0  0  0  0  0  0  0  0  0  0  0  0
  -28.9068  -25.6226   19.7307 C   0  0  0  0  0  0  0  0  0  0  0  0
  -23.3524  -28.1996   19.6116 C   0  0  0  0  0  0  0  0  0  0  0  0
  -23.3631  -12.9526   20.9692 C   0  0  0  0  0  0  0  0  0  0  0  0
  -25.6631  -13.4406   21.5251 C   0  0  0  0  0  0  0  0  0  0  0  0
  -22.0943  -27.7346   19.9920 C   0  0  0  0  0  0  0  0  0  0  0  0
  -23.7150   -9.5518   19.7340 C   0  0  0  0  0  0  0  0  0  0  0  0
  -22.9597   -8.4227   20.0505 C   0  0  0  0  0  0  0  0  0  0  0  0
  -22.3496  -28.8142   22.1341 C   0  0  0  0  0  0  0  0  0  0  0  0
  -23.4614   -8.7435   22.3920 C   0  0  0  0  0  0  0  0  0  0  0  0
  -23.9246  -15.0248   22.0772 C   0  0  0  0  0  0  0  0  0  0  0  0
  -23.1453  -16.5310   23.9829 C   0  0  0  0  0  0  0  0  0  0  0  0
  -31.0181  -26.4477   20.5962 C   0  0  0  0  0  0  0  0  0  0  0  0
  -24.1245  -28.9675   20.4952 C   0  0  0  0  0  0  0  0  0  0  0  0
  -29.6187  -26.3392   20.7076 C   0  0  0  0  0  0  0  0  0  0  0  0
  -23.6161  -29.2899   21.7616 C   0  0  0  0  0  0  0  0  0  0  0  0
  -24.7093  -12.5872   20.9704 C   0  0  0  0  0  0  0  0  0  0  0  0
  -21.5939  -28.0395   21.2545 C   0  0  0  0  0  0  0  0  0  0  0  0
  -24.3436  -10.2767   20.7465 C   0  0  0  0  0  0  0  0  0  0  0  0
  -22.8328   -8.0185   21.3795 C   0  0  0  0  0  0  0  0  0  0  0  0
  -24.2167   -9.8726   22.0755 C   0  0  0  0  0  0  0  0  0  0  0  0
  -23.5199  -16.2841   22.6486 C   0  0  0  0  0  0  0  0  0  0  0  0
  -21.7610  -24.3493   26.2136 C   0  0  0  0  0  0  0  0  0  0  0  0
  -20.7019  -24.2364   25.3441 C   0  0  0  0  0  0  0  0  0  0  0  0
  -22.8537  -17.8728   24.0150 C   0  0  0  0  0  0  0  0  0  0  0  0
  -20.7662  -26.2298   26.2817 C   0  0  0  0  0  0  0  0  0  0  0  0
  -23.0679  -15.6282   25.0941 C   0  0  0  0  0  0  0  0  0  0  0  0
  -26.9540  -28.6055   21.8976 C   0  0  0  0  0  0  0  0  0  0  0  0
  -26.4088  -31.6416   22.9013 C   0  0  0  0  0  0  0  0  0  0  0  0
  -24.1472  -34.1001   23.5996 C   0  0  0  0  0  0  0  0  0  0  0  0
  -24.0637  -23.1499   22.6609 C   0  0  0  0  0  0  0  0  0  0  0  0
  -31.8436  -27.1629   21.6362 C   0  0  0  0  0  0  0  0  0  0  0  0
  -25.4684  -29.4840   20.0598 C   0  0  0  0  0  0  0  0  0  0  0  0
  -24.3968  -30.1280   22.7397 C   0  0  0  0  0  0  0  0  0  0  0  0
  -31.0263  -28.0946   22.5274 C   0  0  0  0  0  0  0  0  0  0  0  0
  -22.2933  -21.2110   20.2561 C   0  0  0  0  0  0  0  0  0  0  0  0
  -29.7603  -27.3953   23.0120 C   0  0  0  0  0  0  0  0  0  0  0  0
  -22.4291  -19.7769   20.7708 C   0  0  0  0  0  0  0  0  0  0  0  0
  -23.5598  -22.0248   20.5122 C   0  0  0  0  0  0  0  0  0  0  0  0
  -24.1571  -20.5939   22.4278 C   0  0  0  0  0  0  0  0  0  0  0  0
  -28.8593  -27.0066   21.8336 C   0  0  1  0  0  0  0  0  0  0  0  0
  -26.3850  -29.8257   21.2304 C   0  0  1  0  0  0  0  0  0  0  0  0
  -22.8843  -19.7501   22.2423 C   0  0  2  0  0  0  0  0  0  0  0  0
  -20.2428  -23.1243   24.4927 C   0  0  0  0  0  0  0  0  0  0  0  0
  -20.3664  -27.6194   26.5855 C   0  0  0  0  0  0  0  0  0  0  0  0
  -23.9996  -36.4604   24.4388 C   0  0  0  0  0  0  0  0  0  0  0  0
  -26.9179  -30.6597   25.7450 C   0  0  0  0  0  0  0  0  0  0  0  0
  -25.8476  -32.7604   26.5874 C   0  0  0  0  0  0  0  0  0  0  0  0
  -27.9261  -32.8858   25.2138 C   0  0  0  0  0  0  0  0  0  0  0  0
  -22.9126  -35.0417   21.0800 C   0  0  0  0  0  0  0  0  0  0  0  0
  -22.7781  -23.3413   26.5523 C   0  0  0  0  0  0  0  0  0  0  0  0
  -24.2458  -23.7878   26.3323 C   0  0  0  0  0  0  0  0  0  0  0  0
  -19.1291  -26.2229   23.1669 C   0  0  0  0  0  0  0  0  0  0  0  0
  -18.8443  -25.8507   24.6236 C   0  0  0  0  0  0  0  0  0  0  0  0
  -24.5808  -24.1291   24.8819 C   0  0  0  0  0  0  0  0  0  0  0  0
  -20.1636  -27.3325   23.0180 C   0  0  0  0  0  0  0  0  0  1  0  0
  -25.7413  -32.2669   24.1022 C   0  0  1  0  0  0  0  0  0  0  0  0
  -24.1025  -35.5672   23.2123 C   0  0  2  0  0  0  0  0  0  0  0  0
  -26.5941  -32.1258   25.3946 C   0  0  0  0  0  0  0  0  0  0  0  0
  -23.4715  -17.3811   21.8880 N   0  0  0  0  0  0  0  0  0  0  0  0
  -21.7953  -25.5924   26.7942 N   0  0  0  0  0  0  0  0  0  0  0  0
  -20.0737  -25.4487   25.3987 N   0  0  0  0  0  0  0  0  0  0  0  0
  -23.0629  -18.3302   22.7472 N   0  0  0  0  0  0  0  0  0  0  0  0
  -25.7082  -30.6042   22.2698 N   0  0  0  0  0  0  0  0  0  0  0  0
  -23.9366  -21.9594   21.9263 N   0  0  0  0  0  0  0  0  0  0  0  0
  -22.4412  -18.6943   25.0037 N   0  0  0  0  0  0  0  0  0  0  0  0
  -23.4027  -14.2832   24.8866 N   0  0  0  0  0  0  0  0  0  0  0  0
  -28.1404  -28.1633   21.3441 N   0  0  0  0  0  0  0  0  0  0  0  0
  -25.4424  -33.6458   23.7312 N   0  0  0  0  0  0  0  0  0  0  0  0
  -24.4178  -22.9981   23.9960 N   0  0  0  0  0  0  0  0  0  0  0  0
  -22.9279  -35.8359   22.3354 N   0  3  0  0  0  0  0  0  0  0  0  0
  -22.6966  -15.9998   26.2332 O   0  0  0  0  0  0  0  0  0  0  0  0
  -26.3612  -28.1033   22.8453 O   0  0  0  0  0  0  0  0  0  0  0  0
  -27.5079  -32.0630   22.5326 O   0  0  0  0  0  0  0  0  0  0  0  0
  -23.1344  -33.4255   23.7719 O   0  0  0  0  0  0  0  0  0  0  0  0
  -23.8704  -24.2652   22.1652 O   0  0  0  0  0  0  0  0  0  0  0  0
  -25.0925  -11.3979   20.4307 O   0  0  0  0  0  0  0  0  0  0  0  0
  -20.3665  -27.5863   21.6285 O   0  0  0  0  0  0  0  0  0  1  0  0
  -22.1062   -6.9351   21.6835 F   0  0  0  0  0  0  0  0  0  0  0  0
  -24.8173  -10.5657   23.0526 F   0  0  0  0  0  0  0  0  0  0  0  0
  1  2  1  0  0  0  0
  1  5  2  0  0  0  0
  2  6  2  0  0  0  0
  3  8  2  0  0  0  0
  3 15  1  0  0  0  0
  4  9  1  0  0  0  0
  4 15  2  0  0  0  0
  5 17  1  0  0  0  0
  6 19  1  0  0  0  0
  7 10  2  0  0  0  0
  7 18  1  0  0  0  0
  8 21  1  0  0  0  0
  9 21  2  0  0  0  0
 10 22  1  0  0  0  0
 11 12  2  0  0  0  0
 11 23  1  0  0  0  0
 12 24  1  0  0  0  0
 13 20  1  0  0  0  0
 13 22  2  0  0  0  0
 14 24  2  0  0  0  0
 14 25  1  0  0  0  0
 15 26  1  0  0  0  0
 16 26  1  0  0  0  0
 16 29  2  0  0  0  0
 16 31  1  0  0  0  0
 17 19  2  0  0  0  0
 17 36  1  0  0  0  0
 18 20  2  0  0  0  0
 18 37  1  0  0  0  0
 19 45  1  0  0  0  0
 20 38  1  0  0  0  0
 21 81  1  0  0  0  0
 22 82  1  0  0  0  0
 23 25  2  0  0  0  0
 23 81  1  0  0  0  0
 24 83  1  0  0  0  0
 25 84  1  0  0  0  0
 26 64  2  0  0  0  0
 27 28  2  0  0  0  0
 27 55  1  0  0  0  0
 27 65  1  0  0  0  0
 28 48  1  0  0  0  0
 28 66  1  0  0  0  0
 29 67  1  0  0  0  0
 29 70  1  0  0  0  0
 30 49  1  0  0  0  0
 30 65  2  0  0  0  0
 30 66  1  0  0  0  0
 31 71  1  0  0  0  0
 31 76  2  0  0  0  0
 32 46  1  0  0  0  0
 32 72  1  0  0  0  0
 32 77  2  0  0  0  0
 33 61  1  0  0  0  0
 33 68  1  0  0  0  0
 33 78  2  0  0  0  0
 34 62  1  0  0  0  0
 34 73  1  0  0  0  0
 34 79  2  0  0  0  0
 35 69  1  0  0  0  0
 35 74  1  0  0  0  0
 35 80  2  0  0  0  0
 36 39  1  0  0  0  0
 37 46  1  0  0  0  0
 38 68  1  0  0  0  0
 39 41  1  0  0  0  0
 40 42  1  0  0  0  0
 40 43  1  0  0  0  0
 41 45  1  0  0  0  0
 42 47  1  0  0  0  0
 43 69  1  0  0  0  0
 44 47  1  0  0  0  0
 44 69  1  0  0  0  0
 45 72  1  0  0  0  0
 46 68  1  0  0  0  0
 47 67  1  0  0  0  0
 50 62  1  0  0  0  0
 51 63  1  0  0  0  0
 52 63  1  0  0  0  0
 53 63  1  0  0  0  0
 54 75  1  0  0  0  0
 55 56  1  0  0  0  0
 56 59  1  0  0  0  0
 57 58  1  0  0  0  0
 57 60  1  0  0  0  0
 58 66  1  0  0  0  0
 59 74  1  0  0  0  0
 60 82  1  0  0  0  0
 61 63  1  0  0  0  0
 61 73  1  0  0  0  0
 62 75  1  0  0  0  0
 64 67  1  0  0  0  0
M  CHG  1  75   1
M  ISO  4  35 100  60 101  74 100  82 101
M  END
> <Batch ID>
0045

> <Smiles>
CNC(C)C(=O)NC(C(=O)N1Cc2cc([101O:1][101CH2:1]CCn3c(C)nc(CCC[100NH:0][100C:0](=O)N4CCCC(n5nc(-c6ccc(Oc7ccc(F)cc7F)cc6)c(C(N)=O)c5N)C4)c3C)ccc2CC1C(=O)NC1CCCc2ccccc21)C(C)(C)C

> <Shape>
0.249

> <Color>
0.065

> <Negative vol penalty>
0.000

$$$$

  -OEChem-04052317193D

 85 93  0     1  0  0  0  0  0999 V2000
  -15.7767  -27.1124   22.7816 C   0  0  0  0  0  0  0  0  0  0  0  0
  -16.1684  -25.8245   22.4302 C   0  0  0  0  0  0  0  0  0  0  0  0
  -29.4497  -26.0477   19.1196 C   0  0  0  0  0  0  0  0  0  0  0  0
  -30.0704  -24.8116   17.1388 C   0  0  0  0  0  0  0  0  0  0  0  0
  -16.7311  -28.1217   22.9015 C   0  0  0  0  0  0  0  0  0  0  0  0
  -17.5146  -25.5455   22.1974 C   0  0  0  0  0  0  0  0  0  0  0  0
  -20.4688  -20.3351   23.4743 C   0  0  0  0  0  0  0  0  0  0  0  0
  -30.3135  -27.0778   18.7475 C   0  0  0  0  0  0  0  0  0  0  0  0
  -30.9341  -25.8416   16.7666 C   0  0  0  0  0  0  0  0  0  0  0  0
  -20.8170  -19.2375   22.6883 C   0  0  0  0  0  0  0  0  0  0  0  0
  -33.0324  -28.3056   15.1099 C   0  0  0  0  0  0  0  0  0  0  0  0
  -33.0118  -28.7210   13.7786 C   0  0  0  0  0  0  0  0  0  0  0  0
  -23.0095  -20.1842   22.3480 C   0  0  0  0  0  0  0  0  0  0  0  0
  -26.6583  -12.1550   21.0182 C   0  0  0  0  0  0  0  0  0  0  0  0
  -30.6787  -29.3091   13.9981 C   0  0  0  0  0  0  0  0  0  0  0  0
  -29.3282  -24.9146   18.3153 C   0  0  0  0  0  0  0  0  0  0  0  0
  -27.0776  -23.7144   18.3581 C   0  0  0  0  0  0  0  0  0  0  0  0
  -18.0908  -27.8527   22.6795 C   0  0  0  0  0  0  0  0  0  0  0  0
  -21.3862  -21.3726   23.6944 C   0  0  0  0  0  0  0  0  0  0  0  0
  -18.4879  -26.5525   22.3131 C   0  0  0  0  0  0  0  0  0  0  0  0
  -22.6713  -21.2927   23.1392 C   0  0  0  0  0  0  0  0  0  0  0  0
  -25.5126  -11.4791   20.6137 C   0  0  0  0  0  0  0  0  0  0  0  0
  -26.6234  -13.5355   21.1807 C   0  0  0  0  0  0  0  0  0  0  0  0
  -31.0556  -26.9748   17.5709 C   0  0  0  0  0  0  0  0  0  0  0  0
  -22.0865  -19.1633   22.1227 C   0  0  0  0  0  0  0  0  0  0  0  0
  -31.8761  -28.3919   15.8855 C   0  0  0  0  0  0  0  0  0  0  0  0
  -31.8350  -29.2228   13.2226 C   0  0  0  0  0  0  0  0  0  0  0  0
  -30.6993  -28.8937   15.3296 C   0  0  0  0  0  0  0  0  0  0  0  0
  -28.4366  -23.8499   18.6995 C   0  0  0  0  0  0  0  0  0  0  0  0
  -24.3665  -12.2238   20.3863 C   0  0  0  0  0  0  0  0  0  0  0  0
  -25.4277  -14.1882   20.9278 C   0  0  0  0  0  0  0  0  0  0  0  0
  -26.6863  -22.5455   18.9639 C   0  0  0  0  0  0  0  0  0  0  0  0
  -26.2435  -24.5686   17.5642 C   0  0  0  0  0  0  0  0  0  0  0  0
  -21.4622  -24.4792   23.0258 C   0  0  0  0  0  0  0  0  0  0  0  0
  -24.1844  -24.3946   24.7878 C   0  0  0  0  0  0  0  0  0  0  0  0
  -26.7942  -22.5607   26.0014 C   0  0  0  0  0  0  0  0  0  0  0  0
  -29.7147  -17.7322   20.5504 C   0  0  0  0  0  0  0  0  0  0  0  0
  -19.0802  -28.9870   22.7749 C   0  0  0  0  0  0  0  0  0  0  0  0
  -21.0042  -22.5370   24.5665 C   0  0  0  0  0  0  0  0  0  0  0  0
  -23.6997  -22.3704   23.3619 C   0  0  0  0  0  0  0  0  0  0  0  0
  -20.5309  -28.5230   22.8773 C   0  0  0  0  0  0  0  0  0  0  0  0
  -27.6733  -19.7700   22.7362 C   0  0  0  0  0  0  0  0  0  0  0  0
  -20.8194  -27.4403   21.8423 C   0  0  0  0  0  0  0  0  0  0  0  0
  -27.5115  -21.0424   21.9025 C   0  0  0  0  0  0  0  0  0  0  0  0
  -29.0693  -19.1761   22.5732 C   0  0  0  0  0  0  0  0  0  0  0  0
  -29.2973  -20.1650   20.3274 C   0  0  0  0  0  0  0  0  0  0  0  0
  -19.9417  -26.2049   22.0768 C   0  0  1  0  0  0  0  0  0  0  0  0
  -21.8437  -23.7829   24.3014 C   0  0  1  0  0  0  0  0  0  0  0  0
  -27.8994  -20.8015   20.4315 C   0  0  2  0  0  0  0  0  0  0  0  0
  -25.5433  -10.0002   20.4378 C   0  0  0  0  0  0  0  0  0  0  0  0
  -23.1060  -11.5521   19.9490 C   0  0  0  0  0  0  0  0  0  0  0  0
  -28.8804  -22.7757   27.3795 C   0  0  0  0  0  0  0  0  0  0  0  0
  -25.6027  -25.7143   22.4305 C   0  0  0  0  0  0  0  0  0  0  0  0
  -27.7850  -25.0426   23.4574 C   0  0  0  0  0  0  0  0  0  0  0  0
  -26.2630  -26.6001   24.6741 C   0  0  0  0  0  0  0  0  0  0  0  0
  -25.7922  -20.6496   28.0269 C   0  0  0  0  0  0  0  0  0  0  0  0
  -27.8476  -14.2657   21.6137 C   0  0  0  0  0  0  0  0  0  0  0  0
  -25.3312  -15.6843   21.0889 C   0  0  0  0  0  0  0  0  0  0  0  0
  -28.8729  -14.5184   20.4897 C   0  0  0  0  0  0  0  0  0  0  0  0
  -23.8947  -16.2114   21.0982 C   0  0  0  0  0  0  0  0  0  0  0  0
  -30.1027  -15.3107   20.9282 C   0  0  0  0  0  0  0  0  0  0  0  0
  -23.8040  -17.7125   21.3472 C   0  0  0  0  0  0  0  0  0  1  0  0
  -25.6447  -24.1557   24.4885 C   0  0  1  0  0  0  0  0  0  0  0  0
  -27.3930  -22.4590   27.3926 C   0  0  2  0  0  0  0  0  0  0  0  0
  -26.3041  -25.3587   23.7567 C   0  0  0  0  0  0  0  0  0  0  0  0
  -28.8789  -22.8473   19.4632 N   0  0  0  0  0  0  0  0  0  0  0  0
  -24.2942  -13.5657   20.5335 N   0  0  0  0  0  0  0  0  0  0  0  0
  -27.7915  -22.0706   19.6066 N   0  0  0  0  0  0  0  0  0  0  0  0
  -23.2763  -23.4916   24.2169 N   0  0  0  0  0  0  0  0  0  0  0  0
  -29.3692  -18.9539   21.1516 N   0  0  0  0  0  0  0  0  0  0  0  0
  -25.5080  -21.8878   19.0043 N   0  0  0  0  0  0  0  0  0  0  0  0
  -26.8056  -25.7299   17.0165 N   0  0  0  0  0  0  0  0  0  0  0  0
  -20.4596  -25.4182   23.1755 N   0  0  0  0  0  0  0  0  0  0  0  0
  -26.2715  -23.8138   25.7607 N   0  0  0  0  0  0  0  0  0  0  0  0
  -29.7673  -16.6352   21.4016 N   0  0  0  0  0  0  0  0  0  0  0  0
  -27.2101  -21.0834   27.9360 N   0  3  0  0  0  0  0  0  0  0  0  0
  -25.0313  -24.3183   17.3605 O   0  0  0  0  0  0  0  0  0  0  0  0
  -22.0360  -24.1872   21.9831 O   0  0  0  0  0  0  0  0  0  0  0  0
  -23.8619  -25.3429   25.5076 O   0  0  0  0  0  0  0  0  0  0  0  0
  -26.7938  -21.6236   25.2062 O   0  0  0  0  0  0  0  0  0  0  0  0
  -29.9535  -17.6256   19.3427 O   0  0  0  0  0  0  0  0  0  0  0  0
  -31.8984  -27.9798   17.2073 O   0  0  0  0  0  0  0  0  0  0  0  0
  -22.4287  -18.0933   21.3546 O   0  0  0  0  0  0  0  0  0  1  0  0
  -31.8158  -29.6231   11.9445 F   0  0  0  0  0  0  0  0  0  0  0  0
  -29.5857  -28.9801   16.0700 F   0  0  0  0  0  0  0  0  0  0  0  0
  1  2  1  0  0  0  0
  1  5  2  0  0  0  0
  2  6  2  0  0  0  0
  3  8  2  0  0  0  0
  3 16  1  0  0  0  0
  4  9  1  0  0  0  0
  4 16  2  0  0  0  0
  5 18  1  0  0  0  0
  6 20  1  0  0  0  0
  7 10  2  0  0  0  0
  7 19  1  0  0  0  0
  8 24  1  0  0  0  0
  9 24  2  0  0  0  0
 10 25  1  0  0  0  0
 11 12  2  0  0  0  0
 11 26  1  0  0  0  0
 12 27  1  0  0  0  0
 13 21  1  0  0  0  0
 13 25  2  0  0  0  0
 14 22  2  0  0  0  0
 14 23  1  0  0  0  0
 15 27  2  0  0  0  0
 15 28  1  0  0  0  0
 16 29  1  0  0  0  0
 17 29  1  0  0  0  0
 17 32  2  0  0  0  0
 17 33  1  0  0  0  0
 18 20  2  0  0  0  0
 18 38  1  0  0  0  0
 19 21  2  0  0  0  0
 19 39  1  0  0  0  0
 20 47  1  0  0  0  0
 21 40  1  0  0  0  0
 22 30  1  0  0  0  0
 22 50  1  0  0  0  0
 23 31  2  0  0  0  0
 23 57  1  0  0  0  0
 24 82  1  0  0  0  0
 25 83  1  0  0  0  0
 26 28  2  0  0  0  0
 26 82  1  0  0  0  0
 27 84  1  0  0  0  0
 28 85  1  0  0  0  0
 29 66  2  0  0  0  0
 30 51  1  0  0  0  0
 30 67  2  0  0  0  0
 31 58  1  0  0  0  0
 31 67  1  0  0  0  0
 32 68  1  0  0  0  0
 32 71  1  0  0  0  0
 33 72  1  0  0  0  0
 33 77  2  0  0  0  0
 34 48  1  0  0  0  0
 34 73  1  0  0  0  0
 34 78  2  0  0  0  0
 35 63  1  0  0  0  0
 35 69  1  0  0  0  0
 35 79  2  0  0  0  0
 36 64  1  0  0  0  0
 36 74  1  0  0  0  0
 36 80  2  0  0  0  0
 37 70  1  0  0  0  0
 37 75  1  0  0  0  0
 37 81  2  0  0  0  0
 38 41  1  0  0  0  0
 39 48  1  0  0  0  0
 40 69  1  0  0  0  0
 41 43  1  0  0  0  0
 42 44  1  0  0  0  0
 42 45  1  0  0  0  0
 43 47  1  0  0  0  0
 44 49  1  0  0  0  0
 45 70  1  0  0  0  0
 46 49  1  0  0  0  0
 46 70  1  0  0  0  0
 47 73  1  0  0  0  0
 48 69  1  0  0  0  0
 49 68  1  0  0  0  0
 52 64  1  0  0  0  0
 53 65  1  0  0  0  0
 54 65  1  0  0  0  0
 55 65  1  0  0  0  0
 56 76  1  0  0  0  0
 57 59  1  0  0  0  0
 58 60  1  0  0  0  0
 59 61  1  0  0  0  0
 60 62  1  0  0  0  0
 61 75  1  0  0  0  0
 62 83  1  0  0  0  0
 63 65  1  0  0  0  0
 63 74  1  0  0  0  0
 64 76  1  0  0  0  0
 66 68  1  0  0  0  0
M  CHG  1  76   1
M  ISO  4  37 100  62 101  75 100  83 101
M  END
> <Batch ID>
0045

> <Smiles>
CNC(C)C(=O)NC(C(=O)N1Cc2cc([101O:1][101CH2:1]CCc3nc(C)c(C)cc3CCC[100NH:0][100C:0](=O)N3CCCC(n4nc(-c5ccc(Oc6ccc(F)cc6F)cc5)c(C(N)=O)c4N)C3)ccc2CC1C(=O)NC1CCCc2ccccc21)C(C)(C)C

> <Shape>
0.187

> <Color>
0.061

> <Negative vol penalty>
0.000

$$$$

  -OEChem-04052317193D

 82 90  0     1  0  0  0  0  0999 V2000
  -19.5050  -23.9776   23.2712 C   0  0  0  0  0  0  0  0  0  0  0  0
  -20.7797  -23.9961   22.7141 C   0  0  0  0  0  0  0  0  0  0  0  0
  -26.0169  -15.3132   22.8353 C   0  0  0  0  0  0  0  0  0  0  0  0
  -25.4124  -14.8051   20.5520 C   0  0  0  0  0  0  0  0  0  0  0  0
  -18.7527  -25.1502   23.3268 C   0  0  0  0  0  0  0  0  0  0  0  0
  -21.3023  -25.1871   22.2112 C   0  0  0  0  0  0  0  0  0  0  0  0
  -27.1550  -26.9856   22.3452 C   0  0  0  0  0  0  0  0  0  0  0  0
  -25.0879  -14.3771   23.2896 C   0  0  0  0  0  0  0  0  0  0  0  0
  -24.4834  -13.8690   21.0063 C   0  0  0  0  0  0  0  0  0  0  0  0
  -28.1719  -26.9414   21.3925 C   0  0  0  0  0  0  0  0  0  0  0  0
  -24.5124  -10.6985   22.1756 C   0  0  0  0  0  0  0  0  0  0  0  0
  -24.4779   -9.4592   21.5365 C   0  0  0  0  0  0  0  0  0  0  0  0
  -27.6762  -29.2178   20.7666 C   0  0  0  0  0  0  0  0  0  0  0  0
  -22.1757   -9.8447   20.9133 C   0  0  0  0  0  0  0  0  0  0  0  0
  -28.3661  -26.5217   16.3173 C   0  0  0  0  0  0  0  0  0  0  0  0
  -26.1791  -15.5272   21.4665 C   0  0  0  0  0  0  0  0  0  0  0  0
  -28.4929  -16.2676   20.6883 C   0  0  0  0  0  0  0  0  0  0  0  0
  -19.2702  -26.3581   22.8331 C   0  0  0  0  0  0  0  0  0  0  0  0
  -26.3825  -28.1445   22.5085 C   0  0  0  0  0  0  0  0  0  0  0  0
  -20.5557  -26.3766   22.2590 C   0  0  0  0  0  0  0  0  0  0  0  0
  -26.6518  -29.2750   21.7239 C   0  0  0  0  0  0  0  0  0  0  0  0
  -28.3251  -25.1509   16.2411 C   0  0  0  0  0  0  0  0  0  0  0  0
  -24.3211  -13.6550   22.3751 C   0  0  0  0  0  0  0  0  0  0  0  0
  -28.4307  -28.0566   20.6010 C   0  0  0  0  0  0  0  0  0  0  0  0
  -23.3786  -11.5109   22.1837 C   0  0  0  0  0  0  0  0  0  0  0  0
  -23.3096   -9.0323   20.9053 C   0  0  0  0  0  0  0  0  0  0  0  0
  -22.2102  -11.0840   21.5525 C   0  0  0  0  0  0  0  0  0  0  0  0
  -27.1382  -16.4944   20.9967 C   0  0  0  0  0  0  0  0  0  0  0  0
  -29.4931  -24.7266   16.9026 C   0  0  0  0  0  0  0  0  0  0  0  0
  -28.9643  -17.4945   20.2896 C   0  0  0  0  0  0  0  0  0  0  0  0
  -29.2569  -15.0562   20.7560 C   0  0  0  0  0  0  0  0  0  0  0  0
  -23.3000  -28.8497   22.1855 C   0  0  0  0  0  0  0  0  0  0  0  0
  -24.2270  -31.7097   23.4034 C   0  0  0  0  0  0  0  0  0  0  0  0
  -26.7368  -33.9656   23.9121 C   0  0  0  0  0  0  0  0  0  0  0  0
  -26.2502  -22.1692   17.9154 C   0  0  0  0  0  0  0  0  0  0  0  0
  -18.4011  -27.5901   22.8722 C   0  0  0  0  0  0  0  0  0  0  0  0
  -25.3069  -28.1851   23.5591 C   0  0  0  0  0  0  0  0  0  0  0  0
  -25.8647  -30.5503   21.8740 C   0  0  0  0  0  0  0  0  0  0  0  0
  -19.1748  -28.8884   22.6575 C   0  0  0  0  0  0  0  0  0  0  0  0
  -28.2340  -22.1794   20.9422 C   0  0  0  0  0  0  0  0  0  0  0  0
  -20.1273  -28.7526   21.4738 C   0  0  0  0  0  0  0  0  0  0  0  0
  -28.3028  -20.6859   21.2659 C   0  0  0  0  0  0  0  0  0  0  0  0
  -26.8691  -22.5602   20.3764 C   0  0  0  0  0  0  0  0  0  0  0  0
  -26.5264  -20.2828   19.4990 C   0  0  0  0  0  0  0  0  0  0  0  0
  -21.1671  -27.6540   21.7255 C   0  0  1  0  0  0  0  0  0  0  0  0
  -24.2442  -29.2449   23.2855 C   0  0  1  0  0  0  0  0  0  0  0  0
  -27.8893  -19.8303   20.0538 C   0  0  2  0  0  0  0  0  0  0  0  0
  -31.0920  -22.9393   16.1707 C   0  0  0  0  0  0  0  0  0  0  0  0
  -27.1813  -36.2276   24.9036 C   0  0  0  0  0  0  0  0  0  0  0  0
  -22.9047  -33.0253   20.9887 C   0  0  0  0  0  0  0  0  0  0  0  0
  -24.1733  -35.1170   21.5213 C   0  0  0  0  0  0  0  0  0  0  0  0
  -22.5256  -34.2085   23.1591 C   0  0  0  0  0  0  0  0  0  0  0  0
  -28.6696  -32.8596   25.8616 C   0  0  0  0  0  0  0  0  0  0  0  0
  -27.2862  -24.3225   15.6063 C   0  0  0  0  0  0  0  0  0  0  0  0
  -29.9573  -23.3451   17.1190 C   0  0  0  0  0  0  0  0  0  0  0  0
  -30.0118  -28.2057   17.3357 C   0  0  0  0  0  0  0  0  0  0  0  0
  -26.0068  -24.1560   16.4490 C   0  0  0  0  0  0  0  0  0  0  0  0
  -29.2534  -28.8234   18.5054 C   0  0  0  0  0  0  0  0  0  1  0  0
  -24.7254  -33.0095   22.8193 C   0  0  1  0  0  0  0  0  0  0  0  0
  -27.1707  -34.7273   25.1515 C   0  0  2  0  0  0  0  0  0  0  0  0
  -23.5960  -33.8155   22.1177 C   0  0  0  0  0  0  0  0  0  0  0  0
  -26.7727  -17.7655   20.8101 N   0  0  0  0  0  0  0  0  0  0  0  0
  -30.2229  -25.7454   17.3648 N   0  0  0  0  0  0  0  0  0  0  0  0
  -29.5117  -26.8234   16.9932 N   0  0  0  0  0  0  0  0  0  0  0  0
  -27.9047  -18.3484   20.3802 N   0  0  0  0  0  0  0  0  0  0  0  0
  -24.8192  -30.5383   22.9105 N   0  0  0  0  0  0  0  0  0  0  0  0
  -26.5438  -21.7215   19.2142 N   0  0  0  0  0  0  0  0  0  0  0  0
  -30.1778  -17.9155   19.8739 N   0  0  0  0  0  0  0  0  0  0  0  0
  -28.6170  -13.8860   21.1866 N   0  0  0  0  0  0  0  0  0  0  0  0
  -22.2013  -28.1319   22.6179 N   0  0  0  0  0  0  0  0  0  0  0  0
  -25.3794  -33.7233   23.9107 N   0  0  0  0  0  0  0  0  0  0  0  0
  -26.2812  -23.5460   17.7310 N   0  0  0  0  0  0  0  0  0  0  0  0
  -28.5406  -34.3093   25.5633 N   0  3  0  0  0  0  0  0  0  0  0  0
  -30.4751  -15.0163   20.4597 O   0  0  0  0  0  0  0  0  0  0  0  0
  -23.5491  -29.1735   21.0301 O   0  0  0  0  0  0  0  0  0  0  0  0
  -23.3499  -31.7333   24.2704 O   0  0  0  0  0  0  0  0  0  0  0  0
  -27.5228  -33.6233   23.0315 O   0  0  0  0  0  0  0  0  0  0  0  0
  -25.9852  -21.3982   16.9867 O   0  0  0  0  0  0  0  0  0  0  0  0
  -23.4147  -12.7414   22.8180 O   0  0  0  0  0  0  0  0  0  0  0  0
  -29.4223  -28.0159   19.6698 O   0  0  0  0  0  0  0  0  0  1  0  0
  -23.2770   -7.8428   20.2903 F   0  0  0  0  0  0  0  0  0  0  0  0
  -21.1181  -11.8607   21.5558 F   0  0  0  0  0  0  0  0  0  0  0  0
  1  2  1  0  0  0  0
  1  5  2  0  0  0  0
  2  6  2  0  0  0  0
  3  8  2  0  0  0  0
  3 16  1  0  0  0  0
  4  9  1  0  0  0  0
  4 16  2  0  0  0  0
  5 18  1  0  0  0  0
  6 20  1  0  0  0  0
  7 10  2  0  0  0  0
  7 19  1  0  0  0  0
  8 23  1  0  0  0  0
  9 23  2  0  0  0  0
 10 24  1  0  0  0  0
 11 12  2  0  0  0  0
 11 25  1  0  0  0  0
 12 26  1  0  0  0  0
 13 21  1  0  0  0  0
 13 24  2  0  0  0  0
 14 26  2  0  0  0  0
 14 27  1  0  0  0  0
 15 22  2  0  0  0  0
 15 64  1  0  0  0  0
 16 28  1  0  0  0  0
 17 28  1  0  0  0  0
 17 30  2  0  0  0  0
 17 31  1  0  0  0  0
 18 20  2  0  0  0  0
 18 36  1  0  0  0  0
 19 21  2  0  0  0  0
 19 37  1  0  0  0  0
 20 45  1  0  0  0  0
 21 38  1  0  0  0  0
 22 29  1  0  0  0  0
 22 54  1  0  0  0  0
 23 79  1  0  0  0  0
 24 80  1  0  0  0  0
 25 27  2  0  0  0  0
 25 79  1  0  0  0  0
 26 81  1  0  0  0  0
 27 82  1  0  0  0  0
 28 62  2  0  0  0  0
 29 55  1  0  0  0  0
 29 63  2  0  0  0  0
 30 65  1  0  0  0  0
 30 68  1  0  0  0  0
 31 69  1  0  0  0  0
 31 74  2  0  0  0  0
 32 46  1  0  0  0  0
 32 70  1  0  0  0  0
 32 75  2  0  0  0  0
 33 59  1  0  0  0  0
 33 66  1  0  0  0  0
 33 76  2  0  0  0  0
 34 60  1  0  0  0  0
 34 71  1  0  0  0  0
 34 77  2  0  0  0  0
 35 67  1  0  0  0  0
 35 72  1  0  0  0  0
 35 78  2  0  0  0  0
 36 39  1  0  0  0  0
 37 46  1  0  0  0  0
 38 66  1  0  0  0  0
 39 41  1  0  0  0  0
 40 42  1  0  0  0  0
 40 43  1  0  0  0  0
 41 45  1  0  0  0  0
 42 47  1  0  0  0  0
 43 67  1  0  0  0  0
 44 47  1  0  0  0  0
 44 67  1  0  0  0  0
 45 70  1  0  0  0  0
 46 66  1  0  0  0  0
 47 65  1  0  0  0  0
 48 55  1  0  0  0  0
 49 60  1  0  0  0  0
 50 61  1  0  0  0  0
 51 61  1  0  0  0  0
 52 61  1  0  0  0  0
 53 73  1  0  0  0  0
 54 57  1  0  0  0  0
 56 58  1  0  0  0  0
 56 64  1  0  0  0  0
 57 72  1  0  0  0  0
 58 80  1  0  0  0  0
 59 61  1  0  0  0  0
 59 71  1  0  0  0  0
 60 73  1  0  0  0  0
 62 65  1  0  0  0  0
 63 64  1  0  0  0  0
M  CHG  1  73   1
M  ISO  4  35 100  58 101  72 100  80 101
M  END
> <Batch ID>
0045

> <Smiles>
CCc1nn(C[101CH2:1][101O:1]c2ccc3c(c2)CN(C(=O)C(NC(=O)C(C)NC)C(C)(C)C)C(C(=O)NC2CCCc4ccccc42)C3)cc1CC[100NH:0][100C:0](=O)N1CCCC(n2nc(-c3ccc(Oc4ccc(F)cc4F)cc3)c(C(N)=O)c2N)C1

> <Shape>
0.287

> <Color>
0.075

> <Negative vol penalty>
0.000

$$$$

  -OEChem-04052317193D

 82 90  0     1  0  0  0  0  0999 V2000
  -28.9330  -12.9821   19.4385 C   0  0  0  0  0  0  0  0  0  0  0  0
  -28.6963  -14.3171   19.1270 C   0  0  0  0  0  0  0  0  0  0  0  0
  -29.8277  -23.5665   20.6695 C   0  0  0  0  0  0  0  0  0  0  0  0
  -28.2904  -23.2397   18.8346 C   0  0  0  0  0  0  0  0  0  0  0  0
  -27.9097  -12.1998   19.9722 C   0  0  0  0  0  0  0  0  0  0  0  0
  -27.4355  -14.8704   19.3480 C   0  0  0  0  0  0  0  0  0  0  0  0
  -24.2891  -21.0422   21.1717 C   0  0  0  0  0  0  0  0  0  0  0  0
  -30.1928  -22.2220   20.6031 C   0  0  0  0  0  0  0  0  0  0  0  0
  -28.6555  -21.8951   18.7682 C   0  0  0  0  0  0  0  0  0  0  0  0
  -23.2904  -21.9119   20.7359 C   0  0  0  0  0  0  0  0  0  0  0  0
  -28.9342  -19.2475   21.5995 C   0  0  0  0  0  0  0  0  0  0  0  0
  -29.0246  -18.5413   22.7990 C   0  0  0  0  0  0  0  0  0  0  0  0
  -21.6210  -20.4865   21.7362 C   0  0  0  0  0  0  0  0  0  0  0  0
  -31.3550  -18.0845   22.3544 C   0  0  0  0  0  0  0  0  0  0  0  0
  -19.0372  -27.3314   21.3777 C   0  0  0  0  0  0  0  0  0  0  0  0
  -28.8764  -24.0754   19.7852 C   0  0  0  0  0  0  0  0  0  0  0  0
  -29.0897  -26.5409   19.1661 C   0  0  0  0  0  0  0  0  0  0  0  0
  -26.6385  -12.7464   20.2088 C   0  0  0  0  0  0  0  0  0  0  0  0
  -23.9599  -19.8805   21.8847 C   0  0  0  0  0  0  0  0  0  0  0  0
  -26.3938  -14.0944   19.8841 C   0  0  0  0  0  0  0  0  0  0  0  0
  -22.6176  -19.6049   22.1821 C   0  0  0  0  0  0  0  0  0  0  0  0
  -29.6068  -21.3862   19.6525 C   0  0  0  0  0  0  0  0  0  0  0  0
  -21.9559  -21.6327   21.0156 C   0  0  0  0  0  0  0  0  0  0  0  0
  -30.0542  -19.3721   20.7774 C   0  0  0  0  0  0  0  0  0  0  0  0
  -30.2350  -17.9598   23.1764 C   0  0  0  0  0  0  0  0  0  0  0  0
  -31.2646  -18.7906   21.1549 C   0  0  0  0  0  0  0  0  0  0  0  0
  -28.4984  -25.4641   19.8536 C   0  0  0  0  0  0  0  0  0  0  0  0
  -18.1839  -26.6342   22.2538 C   0  0  0  0  0  0  0  0  0  0  0  0
  -19.6400  -28.2796   22.1676 C   0  0  0  0  0  0  0  0  0  0  0  0
  -28.3730  -27.6409   19.5696 C   0  0  0  0  0  0  0  0  0  0  0  0
  -30.1885  -26.5464   18.2451 C   0  0  0  0  0  0  0  0  0  0  0  0
  -24.3246  -16.7626   21.3847 C   0  0  0  0  0  0  0  0  0  0  0  0
  -23.1567  -16.5379   24.4027 C   0  0  0  0  0  0  0  0  0  0  0  0
  -21.3176  -17.9446   26.9097 C   0  0  0  0  0  0  0  0  0  0  0  0
  -22.8406  -28.2221   21.5470 C   0  0  0  0  0  0  0  0  0  0  0  0
  -25.5504  -11.8491   20.7431 C   0  0  0  0  0  0  0  0  0  0  0  0
  -25.0510  -18.9663   22.3709 C   0  0  0  0  0  0  0  0  0  0  0  0
  -22.2131  -18.3815   22.9618 C   0  0  0  0  0  0  0  0  0  0  0  0
  -24.3491  -12.6113   21.2963 C   0  0  0  0  0  0  0  0  0  0  0  0
  -25.8335  -29.3051   23.2694 C   0  0  0  0  0  0  0  0  0  0  0  0
  -23.9238  -13.7118   20.3294 C   0  0  0  0  0  0  0  0  0  0  0  0
  -26.9162  -28.5350   22.5113 C   0  0  0  0  0  0  0  0  0  0  0  0
  -24.5687  -28.4669   23.4301 C   0  0  0  0  0  0  0  0  0  0  0  0
  -25.0847  -27.1818   21.3915 C   0  0  0  0  0  0  0  0  0  0  0  0
  -25.0466  -14.7375   20.1325 C   0  0  1  0  0  0  0  0  0  0  0  0
  -24.5635  -17.5467   22.6440 C   0  0  1  0  0  0  0  0  0  0  0  0
  -26.3811  -27.9837   21.1765 C   0  0  2  0  0  0  0  0  0  0  0  0
  -20.5103  -17.5062   29.2450 C   0  0  0  0  0  0  0  0  0  0  0  0
  -21.0562  -14.6120   23.3124 C   0  0  0  0  0  0  0  0  0  0  0  0
  -19.7472  -14.9574   25.4184 C   0  0  0  0  0  0  0  0  0  0  0  0
  -22.0288  -13.9540   25.5205 C   0  0  0  0  0  0  0  0  0  0  0  0
  -19.4570  -28.8566   24.6064 C   0  0  0  0  0  0  0  0  0  0  0  0
  -22.7520  -20.3049   27.9729 C   0  0  0  0  0  0  0  0  0  0  0  0
  -17.2701  -25.4812   21.9228 C   0  0  0  0  0  0  0  0  0  0  0  0
  -20.6348  -29.3188   21.8449 C   0  0  0  0  0  0  0  0  0  0  0  0
  -17.9278  -24.1056   22.0788 C   0  0  0  0  0  0  0  0  0  0  0  0
  -19.1944  -23.9486   21.2362 C   0  0  0  0  0  0  0  0  0  0  0  0
  -19.7967  -22.5581   21.3860 C   0  0  0  0  0  0  0  0  0  1  0  0
  -21.7799  -16.4177   25.0100 C   0  0  1  0  0  0  0  0  0  0  0  0
  -21.6042  -18.1260   28.3894 C   0  0  2  0  0  0  0  0  0  0  0  0
  -21.1602  -15.0074   24.7989 C   0  0  0  0  0  0  0  0  0  0  0  0
  -27.4843  -25.8455   20.6347 N   0  0  0  0  0  0  0  0  0  0  0  0
  -18.2371  -27.0998   23.5046 N   0  0  0  0  0  0  0  0  0  0  0  0
  -19.1312  -28.0996   23.4202 N   0  0  0  0  0  0  0  0  0  0  0  0
  -27.4328  -27.1743   20.4405 N   0  0  0  0  0  0  0  0  0  0  0  0
  -23.3158  -17.5151   23.4099 N   0  0  0  0  0  0  0  0  0  0  0  0
  -24.1010  -27.9885   22.1215 N   0  0  0  0  0  0  0  0  0  0  0  0
  -28.4616  -28.9521   19.2608 N   0  0  0  0  0  0  0  0  0  0  0  0
  -30.8116  -25.3283   17.9411 N   0  0  0  0  0  0  0  0  0  0  0  0
  -25.1151  -15.6356   21.2652 N   0  0  0  0  0  0  0  0  0  0  0  0
  -21.9155  -16.8074   26.4093 N   0  0  0  0  0  0  0  0  0  0  0  0
  -21.9651  -28.9892   22.3059 N   0  0  0  0  0  0  0  0  0  0  0  0
  -21.6991  -19.5749   28.7249 N   0  3  0  0  0  0  0  0  0  0  0  0
  -30.6161  -27.6024   17.7203 O   0  0  0  0  0  0  0  0  0  0  0  0
  -23.4842  -17.1506   20.5817 O   0  0  0  0  0  0  0  0  0  0  0  0
  -24.0596  -15.7971   24.7997 O   0  0  0  0  0  0  0  0  0  0  0  0
  -20.6288  -18.7310   26.2634 O   0  0  0  0  0  0  0  0  0  0  0  0
  -22.5205  -27.7839   20.4367 O   0  0  0  0  0  0  0  0  0  0  0  0
  -29.9630  -20.0742   19.5873 O   0  0  0  0  0  0  0  0  0  0  0  0
  -20.9791  -22.4796   20.5909 O   0  0  0  0  0  0  0  0  0  1  0  0
  -30.3220  -17.2830   24.3291 F   0  0  0  0  0  0  0  0  0  0  0  0
  -32.3442  -18.9080   20.3698 F   0  0  0  0  0  0  0  0  0  0  0  0
  1  2  1  0  0  0  0
  1  5  2  0  0  0  0
  2  6  2  0  0  0  0
  3  8  2  0  0  0  0
  3 16  1  0  0  0  0
  4  9  1  0  0  0  0
  4 16  2  0  0  0  0
  5 18  1  0  0  0  0
  6 20  1  0  0  0  0
  7 10  2  0  0  0  0
  7 19  1  0  0  0  0
  8 22  1  0  0  0  0
  9 22  2  0  0  0  0
 10 23  1  0  0  0  0
 11 12  2  0  0  0  0
 11 24  1  0  0  0  0
 12 25  1  0  0  0  0
 13 21  1  0  0  0  0
 13 23  2  0  0  0  0
 14 25  2  0  0  0  0
 14 26  1  0  0  0  0
 15 28  1  0  0  0  0
 15 29  2  0  0  0  0
 16 27  1  0  0  0  0
 17 27  1  0  0  0  0
 17 30  2  0  0  0  0
 17 31  1  0  0  0  0
 18 20  2  0  0  0  0
 18 36  1  0  0  0  0
 19 21  2  0  0  0  0
 19 37  1  0  0  0  0
 20 45  1  0  0  0  0
 21 38  1  0  0  0  0
 22 79  1  0  0  0  0
 23 80  1  0  0  0  0
 24 26  2  0  0  0  0
 24 79  1  0  0  0  0
 25 81  1  0  0  0  0
 26 82  1  0  0  0  0
 27 62  2  0  0  0  0
 28 54  1  0  0  0  0
 28 63  2  0  0  0  0
 29 55  1  0  0  0  0
 29 64  1  0  0  0  0
 30 65  1  0  0  0  0
 30 68  1  0  0  0  0
 31 69  1  0  0  0  0
 31 74  2  0  0  0  0
 32 46  1  0  0  0  0
 32 70  1  0  0  0  0
 32 75  2  0  0  0  0
 33 59  1  0  0  0  0
 33 66  1  0  0  0  0
 33 76  2  0  0  0  0
 34 60  1  0  0  0  0
 34 71  1  0  0  0  0
 34 77  2  0  0  0  0
 35 67  1  0  0  0  0
 35 72  1  0  0  0  0
 35 78  2  0  0  0  0
 36 39  1  0  0  0  0
 37 46  1  0  0  0  0
 38 66  1  0  0  0  0
 39 41  1  0  0  0  0
 40 42  1  0  0  0  0
 40 43  1  0  0  0  0
 41 45  1  0  0  0  0
 42 47  1  0  0  0  0
 43 67  1  0  0  0  0
 44 47  1  0  0  0  0
 44 67  1  0  0  0  0
 45 70  1  0  0  0  0
 46 66  1  0  0  0  0
 47 65  1  0  0  0  0
 48 60  1  0  0  0  0
 49 61  1  0  0  0  0
 50 61  1  0  0  0  0
 51 61  1  0  0  0  0
 52 64  1  0  0  0  0
 53 73  1  0  0  0  0
 54 56  1  0  0  0  0
 55 72  1  0  0  0  0
 56 57  1  0  0  0  0
 57 58  1  0  0  0  0
 58 80  1  0  0  0  0
 59 61  1  0  0  0  0
 59 71  1  0  0  0  0
 60 73  1  0  0  0  0
 62 65  1  0  0  0  0
 63 64  1  0  0  0  0
M  CHG  1  73   1
M  ISO  4  35 100  58 101  72 100  80 101
M  END
> <Batch ID>
0045

> <Smiles>
CNC(C)C(=O)NC(C(=O)N1Cc2cc([101O:1][101CH2:1]CCCc3cc(C[100NH:0][100C:0](=O)N4CCCC(n5nc(-c6ccc(Oc7ccc(F)cc7F)cc6)c(C(N)=O)c5N)C4)n(C)n3)ccc2CC1C(=O)NC1CCCc2ccccc21)C(C)(C)C

> <Shape>
0.212

> <Color>
0.061

> <Negative vol penalty>
0.000

$$$$

  -OEChem-04052317193D

 83 91  0     1  0  0  0  0  0999 V2000
  -21.1140  -20.5659   26.0360 C   0  0  0  0  0  0  0  0  0  0  0  0
  -22.4633  -20.6464   25.7068 C   0  0  0  0  0  0  0  0  0  0  0  0
  -26.9304  -13.2950   21.1870 C   0  0  0  0  0  0  0  0  0  0  0  0
  -26.7471  -13.6417   18.8030 C   0  0  0  0  0  0  0  0  0  0  0  0
  -20.1878  -21.3747   25.3788 C   0  0  0  0  0  0  0  0  0  0  0  0
  -22.8870  -21.5352   24.7193 C   0  0  0  0  0  0  0  0  0  0  0  0
  -28.1653  -24.6375   24.5777 C   0  0  0  0  0  0  0  0  0  0  0  0
  -26.2026  -12.1108   21.0707 C   0  0  0  0  0  0  0  0  0  0  0  0
  -26.0194  -12.4574   18.6868 C   0  0  0  0  0  0  0  0  0  0  0  0
  -29.3715  -24.4069   23.9175 C   0  0  0  0  0  0  0  0  0  0  0  0
  -24.0835   -9.1802   21.4511 C   0  0  0  0  0  0  0  0  0  0  0  0
  -23.0698   -8.9463   22.3802 C   0  0  0  0  0  0  0  0  0  0  0  0
  -28.6707  -25.8755   22.1368 C   0  0  0  0  0  0  0  0  0  0  0  0
  -21.9494  -10.9640   21.6656 C   0  0  0  0  0  0  0  0  0  0  0  0
  -28.7431  -23.9399   16.7227 C   0  0  0  0  0  0  0  0  0  0  0  0
  -27.2027  -14.0605   20.0531 C   0  0  0  0  0  0  0  0  0  0  0  0
  -29.3509  -15.4359   20.0871 C   0  0  0  0  0  0  0  0  0  0  0  0
  -20.6016  -22.2807   24.3896 C   0  0  0  0  0  0  0  0  0  0  0  0
  -27.1967  -25.4818   24.0161 C   0  0  0  0  0  0  0  0  0  0  0  0
  -21.9653  -22.3559   24.0474 C   0  0  0  0  0  0  0  0  0  0  0  0
  -27.4541  -26.1173   22.7930 C   0  0  0  0  0  0  0  0  0  0  0  0
  -25.7471  -11.6920   19.8206 C   0  0  0  0  0  0  0  0  0  0  0  0
  -29.6231  -25.0236   22.6955 C   0  0  0  0  0  0  0  0  0  0  0  0
  -24.0303  -10.3060   20.6293 C   0  0  0  0  0  0  0  0  0  0  0  0
  -22.0027   -9.8382   22.4874 C   0  0  0  0  0  0  0  0  0  0  0  0
  -22.9632  -11.1979   20.7365 C   0  0  0  0  0  0  0  0  0  0  0  0
  -27.9539  -15.2842   20.1726 C   0  0  0  0  0  0  0  0  0  0  0  0
  -28.4232  -22.6012   16.6663 C   0  0  0  0  0  0  0  0  0  0  0  0
  -30.3361  -22.0958   17.8132 C   0  0  0  0  0  0  0  0  0  0  0  0
  -30.6563  -23.4344   17.8688 C   0  0  0  0  0  0  0  0  0  0  0  0
  -29.5617  -16.7813   20.2657 C   0  0  0  0  0  0  0  0  0  0  0  0
  -30.3670  -14.4489   19.8659 C   0  0  0  0  0  0  0  0  0  0  0  0
  -24.2048  -25.1059   23.0106 C   0  0  0  0  0  0  0  0  0  0  0  0
  -24.3355  -28.3264   22.6454 C   0  0  0  0  0  0  0  0  0  0  0  0
  -26.2487  -31.1149   22.1859 C   0  0  0  0  0  0  0  0  0  0  0  0
  -26.1297  -21.6025   19.3557 C   0  0  0  0  0  0  0  0  0  0  0  0
  -19.5576  -23.1005   23.6736 C   0  0  0  0  0  0  0  0  0  0  0  0
  -25.9118  -25.7412   24.7538 C   0  0  0  0  0  0  0  0  0  0  0  0
  -26.4554  -27.0485   22.1575 C   0  0  0  0  0  0  0  0  0  0  0  0
  -20.1361  -24.2840   22.9023 C   0  0  0  0  0  0  0  0  0  0  0  0
  -27.6685  -20.6158   22.4111 C   0  0  0  0  0  0  0  0  0  0  0  0
  -21.3501  -23.8484   22.0878 C   0  0  0  0  0  0  0  0  0  0  0  0
  -28.0422  -19.1512   22.1762 C   0  0  0  0  0  0  0  0  0  0  0  0
  -26.3432  -20.9744   21.7424 C   0  0  0  0  0  0  0  0  0  0  0  0
  -26.6420  -19.1892   20.0698 C   0  0  0  0  0  0  0  0  0  0  0  0
  -22.4669  -23.3253   22.9992 C   0  0  1  0  0  0  0  0  0  0  0  0
  -24.7845  -26.2154   23.8417 C   0  0  1  0  0  0  0  0  0  0  0  0
  -27.9987  -18.7948   20.6781 C   0  0  2  0  0  0  0  0  0  0  0  0
  -31.2193  -21.0596   18.4199 C   0  0  0  0  0  0  0  0  0  0  0  0
  -26.0688  -33.5999   21.8868 C   0  0  0  0  0  0  0  0  0  0  0  0
  -23.4230  -27.9111   19.7636 C   0  0  0  0  0  0  0  0  0  0  0  0
  -24.1687  -30.2484   19.2641 C   0  0  0  0  0  0  0  0  0  0  0  0
  -22.3532  -29.8489   20.9275 C   0  0  0  0  0  0  0  0  0  0  0  0
  -27.8212  -31.6405   24.6374 C   0  0  0  0  0  0  0  0  0  0  0  0
  -27.1751  -22.1507   15.9917 C   0  0  0  0  0  0  0  0  0  0  0  0
  -31.9152  -23.9142   18.5460 C   0  0  0  0  0  0  0  0  0  0  0  0
  -31.8323  -23.9111   20.0739 C   0  0  0  0  0  0  0  0  0  0  0  0
  -25.9599  -22.0792   16.9261 C   0  0  0  0  0  0  0  0  0  0  0  0
  -30.7798  -24.8670   20.6234 C   0  0  0  0  0  0  0  0  0  1  0  0
  -24.7372  -29.2604   21.5295 C   0  0  1  0  0  0  0  0  0  0  0  0
  -26.2465  -32.4639   22.8821 C   0  0  2  0  0  0  0  0  0  0  0  0
  -23.6888  -29.2982   20.3819 C   0  0  0  0  0  0  0  0  0  0  0  0
  -29.8655  -24.3805   17.3248 N   0  0  0  0  0  0  0  0  0  0  0  0
  -27.3220  -16.4408   20.3889 N   0  0  0  0  0  0  0  0  0  0  0  0
  -29.2139  -21.6552   17.2107 N   0  0  0  0  0  0  0  0  0  0  0  0
  -28.3264  -17.3322   20.4409 N   0  0  0  0  0  0  0  0  0  0  0  0
  -25.2114  -27.2652   22.9145 N   0  0  0  0  0  0  0  0  0  0  0  0
  -26.3682  -20.6124   20.3232 N   0  0  0  0  0  0  0  0  0  0  0  0
  -30.6815  -17.5350   20.2885 N   0  0  0  0  0  0  0  0  0  0  0  0
  -29.9764  -13.1128   19.7024 N   0  0  0  0  0  0  0  0  0  0  0  0
  -23.1683  -24.4271   23.6225 N   0  0  0  0  0  0  0  0  0  0  0  0
  -24.9887  -30.5557   22.1519 N   0  0  0  0  0  0  0  0  0  0  0  0
  -26.1781  -21.1762   18.0341 N   0  0  0  0  0  0  0  0  0  0  0  0
  -27.5300  -32.6732   23.6099 N   0  3  0  0  0  0  0  0  0  0  0  0
  -31.5865  -14.7406   19.8311 O   0  0  0  0  0  0  0  0  0  0  0  0
  -24.6629  -24.8832   21.8960 O   0  0  0  0  0  0  0  0  0  0  0  0
  -23.2868  -28.5351   23.2606 O   0  0  0  0  0  0  0  0  0  0  0  0
  -27.2656  -30.6095   21.7157 O   0  0  0  0  0  0  0  0  0  0  0  0
  -25.8967  -22.7803   19.6480 O   0  0  0  0  0  0  0  0  0  0  0  0
  -25.0371  -10.5364   19.7068 O   0  0  0  0  0  0  0  0  0  0  0  0
  -30.7993  -24.7998   22.0487 O   0  0  0  0  0  0  0  0  0  1  0  0
  -21.0285   -9.6127   23.3786 F   0  0  0  0  0  0  0  0  0  0  0  0
  -22.9060  -12.2806   19.9488 F   0  0  0  0  0  0  0  0  0  0  0  0
  1  2  1  0  0  0  0
  1  5  2  0  0  0  0
  2  6  2  0  0  0  0
  3  8  2  0  0  0  0
  3 16  1  0  0  0  0
  4  9  1  0  0  0  0
  4 16  2  0  0  0  0
  5 18  1  0  0  0  0
  6 20  1  0  0  0  0
  7 10  2  0  0  0  0
  7 19  1  0  0  0  0
  8 22  1  0  0  0  0
  9 22  2  0  0  0  0
 10 23  1  0  0  0  0
 11 12  2  0  0  0  0
 11 24  1  0  0  0  0
 12 25  1  0  0  0  0
 13 21  1  0  0  0  0
 13 23  2  0  0  0  0
 14 25  2  0  0  0  0
 14 26  1  0  0  0  0
 15 28  1  0  0  0  0
 15 63  2  0  0  0  0
 16 27  1  0  0  0  0
 17 27  1  0  0  0  0
 17 31  2  0  0  0  0
 17 32  1  0  0  0  0
 18 20  2  0  0  0  0
 18 37  1  0  0  0  0
 19 21  2  0  0  0  0
 19 38  1  0  0  0  0
 20 46  1  0  0  0  0
 21 39  1  0  0  0  0
 22 80  1  0  0  0  0
 23 81  1  0  0  0  0
 24 26  2  0  0  0  0
 24 80  1  0  0  0  0
 25 82  1  0  0  0  0
 26 83  1  0  0  0  0
 27 64  2  0  0  0  0
 28 55  1  0  0  0  0
 28 65  2  0  0  0  0
 29 30  2  0  0  0  0
 29 49  1  0  0  0  0
 29 65  1  0  0  0  0
 30 56  1  0  0  0  0
 30 63  1  0  0  0  0
 31 66  1  0  0  0  0
 31 69  1  0  0  0  0
 32 70  1  0  0  0  0
 32 75  2  0  0  0  0
 33 47  1  0  0  0  0
 33 71  1  0  0  0  0
 33 76  2  0  0  0  0
 34 60  1  0  0  0  0
 34 67  1  0  0  0  0
 34 77  2  0  0  0  0
 35 61  1  0  0  0  0
 35 72  1  0  0  0  0
 35 78  2  0  0  0  0
 36 68  1  0  0  0  0
 36 73  1  0  0  0  0
 36 79  2  0  0  0  0
 37 40  1  0  0  0  0
 38 47  1  0  0  0  0
 39 67  1  0  0  0  0
 40 42  1  0  0  0  0
 41 43  1  0  0  0  0
 41 44  1  0  0  0  0
 42 46  1  0  0  0  0
 43 48  1  0  0  0  0
 44 68  1  0  0  0  0
 45 48  1  0  0  0  0
 45 68  1  0  0  0  0
 46 71  1  0  0  0  0
 47 67  1  0  0  0  0
 48 66  1  0  0  0  0
 50 61  1  0  0  0  0
 51 62  1  0  0  0  0
 52 62  1  0  0  0  0
 53 62  1  0  0  0  0
 54 74  1  0  0  0  0
 55 58  1  0  0  0  0
 56 57  1  0  0  0  0
 57 59  1  0  0  0  0
 58 73  1  0  0  0  0
 59 81  1  0  0  0  0
 60 62  1  0  0  0  0
 60 72  1  0  0  0  0
 61 74  1  0  0  0  0
 64 66  1  0  0  0  0
M  CHG  1  74   1
M  ISO  4  36 100  59 101  73 100  81 101
M  END
> <Batch ID>
0045

> <Smiles>
CNC(C)C(=O)NC(C(=O)N1Cc2cc([101O:1][101CH2:1]CCc3ncc(CC[100NH:0][100C:0](=O)N4CCCC(n5nc(-c6ccc(Oc7ccc(F)cc7F)cc6)c(C(N)=O)c5N)C4)nc3C)ccc2CC1C(=O)NC1CCCc2ccccc21)C(C)(C)C

> <Shape>
0.208

> <Color>
0.061

> <Negative vol penalty>
0.000

$$$$

  -OEChem-04052317193D

 83 91  0     1  0  0  0  0  0999 V2000
  -22.2437  -12.1383   18.4364 C   0  0  0  0  0  0  0  0  0  0  0  0
  -21.9496  -13.4288   18.8648 C   0  0  0  0  0  0  0  0  0  0  0  0
  -29.9903  -26.3156   19.8653 C   0  0  0  0  0  0  0  0  0  0  0  0
  -29.5708  -26.0944   22.2343 C   0  0  0  0  0  0  0  0  0  0  0  0
  -23.4082  -11.5084   18.8735 C   0  0  0  0  0  0  0  0  0  0  0  0
  -22.8194  -14.0898   19.7314 C   0  0  0  0  0  0  0  0  0  0  0  0
  -24.0599  -20.0861   19.8367 C   0  0  0  0  0  0  0  0  0  0  0  0
  -31.3483  -26.0843   20.0841 C   0  0  0  0  0  0  0  0  0  0  0  0
  -30.9288  -25.8631   22.4531 C   0  0  0  0  0  0  0  0  0  0  0  0
  -23.5804  -21.1294   20.6276 C   0  0  0  0  0  0  0  0  0  0  0  0
  -34.3376  -25.5712   23.6798 C   0  0  0  0  0  0  0  0  0  0  0  0
  -34.9462  -26.2397   24.7420 C   0  0  0  0  0  0  0  0  0  0  0  0
  -25.4888  -20.8940   22.0843 C   0  0  0  0  0  0  0  0  0  0  0  0
  -34.3737  -28.3602   23.7355 C   0  0  0  0  0  0  0  0  0  0  0  0
  -20.5928  -25.6473   22.5641 C   0  0  0  0  0  0  0  0  0  0  0  0
  -29.1015  -26.3207   20.9404 C   0  0  0  0  0  0  0  0  0  0  0  0
  -26.7043  -25.5998   20.4494 C   0  0  0  0  0  0  0  0  0  0  0  0
  -24.2975  -12.1656   19.7383 C   0  0  0  0  0  0  0  0  0  0  0  0
  -25.2538  -19.4306   20.1704 C   0  0  0  0  0  0  0  0  0  0  0  0
  -23.9962  -13.4675   20.1815 C   0  0  0  0  0  0  0  0  0  0  0  0
  -25.9825  -19.8444   21.2946 C   0  0  0  0  0  0  0  0  0  0  0  0
  -31.8176  -25.8580   21.3780 C   0  0  0  0  0  0  0  0  0  0  0  0
  -24.2934  -21.5316   21.7532 C   0  0  0  0  0  0  0  0  0  0  0  0
  -33.7471  -26.2972   22.6454 C   0  0  0  0  0  0  0  0  0  0  0  0
  -34.9643  -27.6342   24.7699 C   0  0  0  0  0  0  0  0  0  0  0  0
  -33.7651  -27.6916   22.6733 C   0  0  0  0  0  0  0  0  0  0  0  0
  -27.6987  -26.5602   20.7150 C   0  0  0  0  0  0  0  0  0  0  0  0
  -19.9540  -24.5395   23.1527 C   0  0  0  0  0  0  0  0  0  0  0  0
  -19.6281  -26.2183   21.7704 C   0  0  0  0  0  0  0  0  0  0  0  0
  -25.5490  -26.3301   20.3139 C   0  0  0  0  0  0  0  0  0  0  0  0
  -26.8149  -24.1748   20.3355 C   0  0  0  0  0  0  0  0  0  0  0  0
  -26.0324  -16.4513   20.9587 C   0  0  0  0  0  0  0  0  0  0  0  0
  -29.0557  -17.6182   20.8172 C   0  0  0  0  0  0  0  0  0  0  0  0
  -31.1280  -20.3240   20.9921 C   0  0  0  0  0  0  0  0  0  0  0  0
  -22.1295  -30.3922   22.0320 C   0  0  0  0  0  0  0  0  0  0  0  0
  -25.5202  -11.4262   20.2212 C   0  0  0  0  0  0  0  0  0  0  0  0
  -25.7712  -18.3247   19.2920 C   0  0  0  0  0  0  0  0  0  0  0  0
  -27.2802  -19.1867   21.6846 C   0  0  0  0  0  0  0  0  0  0  0  0
  -26.5768  -12.3365   20.8419 C   0  0  0  0  0  0  0  0  0  0  0  0
  -24.8376  -31.3223   19.9158 C   0  0  0  0  0  0  0  0  0  0  0  0
  -25.9315  -13.3154   21.8177 C   0  0  0  0  0  0  0  0  0  0  0  0
  -25.7438  -30.0899   19.9184 C   0  0  0  0  0  0  0  0  0  0  0  0
  -24.1874  -31.5476   21.2791 C   0  0  0  0  0  0  0  0  0  0  0  0
  -24.3678  -29.1503   21.8217 C   0  0  0  0  0  0  0  0  0  0  0  0
  -24.9272  -14.2267   21.1019 C   0  0  1  0  0  0  0  0  0  0  0  0
  -26.7333  -17.3875   20.0154 C   0  0  1  0  0  0  0  0  0  0  0  0
  -25.0023  -28.8498   20.4530 C   0  0  2  0  0  0  0  0  0  0  0  0
  -33.5531  -20.9588   20.8755 C   0  0  0  0  0  0  0  0  0  0  0  0
  -29.4732  -16.5323   23.6379 C   0  0  0  0  0  0  0  0  0  0  0  0
  -31.5027  -17.9867   23.8223 C   0  0  0  0  0  0  0  0  0  0  0  0
  -31.4094  -16.1922   22.0920 C   0  0  0  0  0  0  0  0  0  0  0  0
  -17.2289  -25.6423   21.2946 C   0  0  0  0  0  0  0  0  0  0  0  0
  -30.6808  -22.0562   18.6345 C   0  0  0  0  0  0  0  0  0  0  0  0
  -20.5451  -23.5447   24.1193 C   0  0  0  0  0  0  0  0  0  0  0  0
  -19.6706  -27.4049   20.8964 C   0  0  0  0  0  0  0  0  0  0  0  0
  -22.0489  -23.3276   23.9370 C   0  0  0  0  0  0  0  0  0  0  0  0
  -19.2826  -28.7380   21.5823 C   0  0  0  0  0  0  0  0  0  0  0  0
  -20.1526  -29.0950   22.7856 C   0  0  0  0  0  0  0  0  0  0  0  0
  -22.4125  -22.7263   22.5843 C   0  0  0  0  0  0  0  0  0  1  0  0
  -29.9975  -18.2693   21.8010 C   0  0  1  0  0  0  0  0  0  0  0  0
  -32.2608  -20.7851   20.0928 C   0  0  2  0  0  0  0  0  0  0  0  0
  -30.5703  -17.2564   22.8323 C   0  0  0  0  0  0  0  0  0  0  0  0
  -27.2173  -27.8057   20.7465 N   0  0  0  0  0  0  0  0  0  0  0  0
  -18.6818  -24.4125   22.7661 N   0  0  0  0  0  0  0  0  0  0  0  0
  -18.5134  -25.4479   21.9261 N   0  0  0  0  0  0  0  0  0  0  0  0
  -25.9077  -27.6329   20.4989 N   0  0  0  0  0  0  0  0  0  0  0  0
  -27.7414  -18.1061   20.7975 N   0  0  0  0  0  0  0  0  0  0  0  0
  -23.4997  -30.3346   21.7282 N   0  0  0  0  0  0  0  0  0  0  0  0
  -24.2714  -25.9786   20.0556 N   0  0  0  0  0  0  0  0  0  0  0  0
  -28.0762  -23.5871   20.5033 N   0  0  0  0  0  0  0  0  0  0  0  0
  -25.6196  -15.2689   20.3747 N   0  0  0  0  0  0  0  0  0  0  0  0
  -31.0129  -18.9501   21.0049 N   0  0  0  0  0  0  0  0  0  0  0  0
  -21.5539  -29.1966   22.4441 N   0  0  0  0  0  0  0  0  0  0  0  0
  -31.9186  -22.0880   19.4554 N   0  3  0  0  0  0  0  0  0  0  0  0
  -25.8276  -23.4459   20.0760 O   0  0  0  0  0  0  0  0  0  0  0  0
  -25.8787  -16.7769   22.1301 O   0  0  0  0  0  0  0  0  0  0  0  0
  -29.4727  -16.7150   20.0878 O   0  0  0  0  0  0  0  0  0  0  0  0
  -30.4188  -21.1045   21.6234 O   0  0  0  0  0  0  0  0  0  0  0  0
  -21.4670  -31.4310   21.9374 O   0  0  0  0  0  0  0  0  0  0  0  0
  -33.1426  -25.6320   21.5919 O   0  0  0  0  0  0  0  0  0  0  0  0
  -23.8274  -22.5492   22.5272 O   0  0  0  0  0  0  0  0  0  1  0  0
  -35.5474  -28.2760   25.7908 F   0  0  0  0  0  0  0  0  0  0  0  0
  -33.1985  -28.3945   21.6830 F   0  0  0  0  0  0  0  0  0  0  0  0
  1  2  1  0  0  0  0
  1  5  2  0  0  0  0
  2  6  2  0  0  0  0
  3  8  2  0  0  0  0
  3 16  1  0  0  0  0
  4  9  1  0  0  0  0
  4 16  2  0  0  0  0
  5 18  1  0  0  0  0
  6 20  1  0  0  0  0
  7 10  2  0  0  0  0
  7 19  1  0  0  0  0
  8 22  1  0  0  0  0
  9 22  2  0  0  0  0
 10 23  1  0  0  0  0
 11 12  2  0  0  0  0
 11 24  1  0  0  0  0
 12 25  1  0  0  0  0
 13 21  1  0  0  0  0
 13 23  2  0  0  0  0
 14 25  2  0  0  0  0
 14 26  1  0  0  0  0
 15 28  1  0  0  0  0
 15 29  2  0  0  0  0
 16 27  1  0  0  0  0
 17 27  1  0  0  0  0
 17 30  2  0  0  0  0
 17 31  1  0  0  0  0
 18 20  2  0  0  0  0
 18 36  1  0  0  0  0
 19 21  2  0  0  0  0
 19 37  1  0  0  0  0
 20 45  1  0  0  0  0
 21 38  1  0  0  0  0
 22 80  1  0  0  0  0
 23 81  1  0  0  0  0
 24 26  2  0  0  0  0
 24 80  1  0  0  0  0
 25 82  1  0  0  0  0
 26 83  1  0  0  0  0
 27 63  2  0  0  0  0
 28 54  1  0  0  0  0
 28 64  2  0  0  0  0
 29 55  1  0  0  0  0
 29 65  1  0  0  0  0
 30 66  1  0  0  0  0
 30 69  1  0  0  0  0
 31 70  1  0  0  0  0
 31 75  2  0  0  0  0
 32 46  1  0  0  0  0
 32 71  1  0  0  0  0
 32 76  2  0  0  0  0
 33 60  1  0  0  0  0
 33 67  1  0  0  0  0
 33 77  2  0  0  0  0
 34 61  1  0  0  0  0
 34 72  1  0  0  0  0
 34 78  2  0  0  0  0
 35 68  1  0  0  0  0
 35 73  1  0  0  0  0
 35 79  2  0  0  0  0
 36 39  1  0  0  0  0
 37 46  1  0  0  0  0
 38 67  1  0  0  0  0
 39 41  1  0  0  0  0
 40 42  1  0  0  0  0
 40 43  1  0  0  0  0
 41 45  1  0  0  0  0
 42 47  1  0  0  0  0
 43 68  1  0  0  0  0
 44 47  1  0  0  0  0
 44 68  1  0  0  0  0
 45 71  1  0  0  0  0
 46 67  1  0  0  0  0
 47 66  1  0  0  0  0
 48 61  1  0  0  0  0
 49 62  1  0  0  0  0
 50 62  1  0  0  0  0
 51 62  1  0  0  0  0
 52 65  1  0  0  0  0
 53 74  1  0  0  0  0
 54 56  1  0  0  0  0
 55 57  1  0  0  0  0
 56 59  1  0  0  0  0
 57 58  1  0  0  0  0
 58 73  1  0  0  0  0
 59 81  1  0  0  0  0
 60 62  1  0  0  0  0
 60 72  1  0  0  0  0
 61 74  1  0  0  0  0
 63 66  1  0  0  0  0
 64 65  1  0  0  0  0
M  CHG  1  74   1
M  ISO  4  35 100  59 101  73 100  81 101
M  END
> <Batch ID>
0045

> <Smiles>
CNC(C)C(=O)NC(C(=O)N1Cc2cc([101O:1][101CH2:1]CCc3cc(CCC[100NH:0][100C:0](=O)N4CCCC(n5nc(-c6ccc(Oc7ccc(F)cc7F)cc6)c(C(N)=O)c5N)C4)n(C)n3)ccc2CC1C(=O)NC1CCCc2ccccc21)C(C)(C)C

> <Shape>
0.215

> <Color>
0.081

> <Negative vol penalty>
0.000

$$$$

  -OEChem-04052317193D

 83 91  0     1  0  0  0  0  0999 V2000
  -17.4595  -11.4608   22.7427 C   0  0  0  0  0  0  0  0  0  0  0  0
  -18.0574  -12.5116   23.4309 C   0  0  0  0  0  0  0  0  0  0  0  0
  -24.2135  -29.9363   21.4265 C   0  0  0  0  0  0  0  0  0  0  0  0
  -23.9640  -28.1779   23.0644 C   0  0  0  0  0  0  0  0  0  0  0  0
  -18.2507  -10.5209   22.0835 C   0  0  0  0  0  0  0  0  0  0  0  0
  -19.4471  -12.6224   23.4614 C   0  0  0  0  0  0  0  0  0  0  0  0
  -22.7279  -17.7936   23.4949 C   0  0  0  0  0  0  0  0  0  0  0  0
  -22.8710  -30.2780   21.5887 C   0  0  0  0  0  0  0  0  0  0  0  0
  -22.6214  -28.5196   23.2267 C   0  0  0  0  0  0  0  0  0  0  0  0
  -23.3375  -18.5110   24.5232 C   0  0  0  0  0  0  0  0  0  0  0  0
  -19.7076  -28.0196   21.5863 C   0  0  0  0  0  0  0  0  0  0  0  0
  -18.7744  -26.9833   21.6181 C   0  0  0  0  0  0  0  0  0  0  0  0
  -25.4271  -17.4029   24.0495 C   0  0  0  0  0  0  0  0  0  0  0  0
  -28.0886  -20.4729   25.7774 C   0  0  0  0  0  0  0  0  0  0  0  0
  -18.1028  -27.6564   23.8392 C   0  0  0  0  0  0  0  0  0  0  0  0
  -24.7601  -28.8862   22.1643 C   0  0  0  0  0  0  0  0  0  0  0  0
  -27.2466  -29.0425   22.7122 C   0  0  0  0  0  0  0  0  0  0  0  0
  -19.6505  -10.6257   22.0979 C   0  0  0  0  0  0  0  0  0  0  0  0
  -23.4620  -16.8658   22.7420 C   0  0  0  0  0  0  0  0  0  0  0  0
  -20.2578  -11.6823   22.8030 C   0  0  0  0  0  0  0  0  0  0  0  0
  -24.8252  -16.6768   23.0105 C   0  0  0  0  0  0  0  0  0  0  0  0
  -29.1357  -20.6798   24.8966 C   0  0  0  0  0  0  0  0  0  0  0  0
  -22.0749  -29.5697   22.4888 C   0  0  0  0  0  0  0  0  0  0  0  0
  -24.6866  -18.3136   24.8025 C   0  0  0  0  0  0  0  0  0  0  0  0
  -19.8384  -28.8742   22.6810 C   0  0  0  0  0  0  0  0  0  0  0  0
  -17.9720  -26.8017   22.7445 C   0  0  0  0  0  0  0  0  0  0  0  0
  -19.0360  -28.6926   23.8074 C   0  0  0  0  0  0  0  0  0  0  0  0
  -26.1467  -28.5324   21.9968 C   0  0  0  0  0  0  0  0  0  0  0  0
  -27.0342  -21.3633   25.7480 C   0  0  0  0  0  0  0  0  0  0  0  0
  -29.0589  -21.7632   24.0446 C   0  0  0  0  0  0  0  0  0  0  0  0
  -28.3334  -28.3921   22.1808 C   0  0  0  0  0  0  0  0  0  0  0  0
  -27.2827  -30.0170   23.7633 C   0  0  0  0  0  0  0  0  0  0  0  0
  -23.2847  -13.7296   22.2559 C   0  0  0  0  0  0  0  0  0  0  0  0
  -25.6435  -14.3225   20.1095 C   0  0  0  0  0  0  0  0  0  0  0  0
  -28.1973  -16.3471   19.0967 C   0  0  0  0  0  0  0  0  0  0  0  0
  -28.9714  -23.1429   19.3718 C   0  0  0  0  0  0  0  0  0  0  0  0
  -20.4654   -9.5589   21.4104 C   0  0  0  0  0  0  0  0  0  0  0  0
  -22.7962  -16.1194   21.6186 C   0  0  0  0  0  0  0  0  0  0  0  0
  -25.6625  -15.7073   22.2183 C   0  0  0  0  0  0  0  0  0  0  0  0
  -21.9199   -9.9593   21.1771 C   0  0  0  0  0  0  0  0  0  0  0  0
  -29.8680  -26.3576   18.1315 C   0  0  0  0  0  0  0  0  0  0  0  0
  -22.5134  -10.5747   22.4404 C   0  0  0  0  0  0  0  0  0  0  0  0
  -29.1152  -27.3256   19.0460 C   0  0  0  0  0  0  0  0  0  0  0  0
  -29.0533  -25.0968   17.8512 C   0  0  0  0  0  0  0  0  0  0  0  0
  -27.8183  -25.3591   19.9678 C   0  0  0  0  0  0  0  0  0  0  0  0
  -21.7614  -11.8505   22.8383 C   0  0  1  0  0  0  0  0  0  0  0  0
  -23.5151  -14.8244   21.2530 C   0  0  1  0  0  0  0  0  0  0  0  0
  -28.6227  -26.6209   20.3243 C   0  0  2  0  0  0  0  0  0  0  0  0
  -30.2976  -19.7478   24.8871 C   0  0  0  0  0  0  0  0  0  0  0  0
  -29.9667  -16.5514   17.3289 C   0  0  0  0  0  0  0  0  0  0  0  0
  -27.2885  -12.1682   21.5105 C   0  0  0  0  0  0  0  0  0  0  0  0
  -29.3194  -13.0642   20.3525 C   0  0  0  0  0  0  0  0  0  0  0  0
  -27.4321  -12.1318   19.0140 C   0  0  0  0  0  0  0  0  0  0  0  0
  -27.0879  -18.9105   18.1184 C   0  0  0  0  0  0  0  0  0  0  0  0
  -25.8672  -21.1833   26.6882 C   0  0  0  0  0  0  0  0  0  0  0  0
  -30.1501  -22.0497   23.0691 C   0  0  0  0  0  0  0  0  0  0  0  0
  -30.1136  -21.1793   21.7973 C   0  0  0  0  0  0  0  0  0  0  0  0
  -28.8126  -21.2801   21.0039 C   0  0  0  0  0  0  0  0  0  0  0  0
  -24.7684  -20.3125   26.0885 C   0  0  0  0  0  0  0  0  0  1  0  0
  -27.1515  -14.3663   20.1631 C   0  0  1  0  0  0  0  0  0  0  0  0
  -28.5487  -16.9210   17.7359 C   0  0  2  0  0  0  0  0  0  0  0  0
  -27.7819  -12.9495   20.2764 C   0  0  0  0  0  0  0  0  0  0  0  0
  -26.5022  -27.6279   21.0806 N   0  0  0  0  0  0  0  0  0  0  0  0
  -26.9855  -22.4152   24.9034 N   0  0  0  0  0  0  0  0  0  0  0  0
  -28.0145  -22.6183   24.0376 N   0  0  0  0  0  0  0  0  0  0  0  0
  -27.8377  -27.5645   21.2166 N   0  0  0  0  0  0  0  0  0  0  0  0
  -24.9644  -14.9967   21.1342 N   0  0  0  0  0  0  0  0  0  0  0  0
  -28.6181  -24.4759   19.1047 N   0  0  0  0  0  0  0  0  0  0  0  0
  -29.6551  -28.4531   22.4487 N   0  0  0  0  0  0  0  0  0  0  0  0
  -26.0746  -30.5858   24.1888 N   0  0  0  0  0  0  0  0  0  0  0  0
  -22.1669  -12.9585   22.0002 N   0  0  0  0  0  0  0  0  0  0  0  0
  -27.5800  -15.1188   18.9890 N   0  0  0  0  0  0  0  0  0  0  0  0
  -28.5241  -22.6336   20.5847 N   0  0  0  0  0  0  0  0  0  0  0  0
  -28.4378  -18.4070   17.7561 N   0  3  0  0  0  0  0  0  0  0  0  0
  -28.3563  -30.3849   24.2977 O   0  0  0  0  0  0  0  0  0  0  0  0
  -24.0643  -13.5935   23.1916 O   0  0  0  0  0  0  0  0  0  0  0  0
  -25.0884  -13.7185   19.1882 O   0  0  0  0  0  0  0  0  0  0  0  0
  -28.4488  -16.9284   20.1499 O   0  0  0  0  0  0  0  0  0  0  0  0
  -29.6408  -22.4592   18.5898 O   0  0  0  0  0  0  0  0  0  0  0  0
  -20.7648  -29.9030   22.6475 O   0  0  0  0  0  0  0  0  0  0  0  0
  -25.2839  -19.0122   25.8061 O   0  0  0  0  0  0  0  0  0  1  0  0
  -17.0749  -25.8076   22.7743 F   0  0  0  0  0  0  0  0  0  0  0  0
  -19.1563  -29.5112   24.8615 F   0  0  0  0  0  0  0  0  0  0  0  0
  1  2  1  0  0  0  0
  1  5  2  0  0  0  0
  2  6  2  0  0  0  0
  3  8  2  0  0  0  0
  3 16  1  0  0  0  0
  4  9  1  0  0  0  0
  4 16  2  0  0  0  0
  5 18  1  0  0  0  0
  6 20  1  0  0  0  0
  7 10  2  0  0  0  0
  7 19  1  0  0  0  0
  8 23  1  0  0  0  0
  9 23  2  0  0  0  0
 10 24  1  0  0  0  0
 11 12  2  0  0  0  0
 11 25  1  0  0  0  0
 12 26  1  0  0  0  0
 13 21  1  0  0  0  0
 13 24  2  0  0  0  0
 14 22  2  0  0  0  0
 14 29  1  0  0  0  0
 15 26  2  0  0  0  0
 15 27  1  0  0  0  0
 16 28  1  0  0  0  0
 17 28  1  0  0  0  0
 17 31  2  0  0  0  0
 17 32  1  0  0  0  0
 18 20  2  0  0  0  0
 18 37  1  0  0  0  0
 19 21  2  0  0  0  0
 19 38  1  0  0  0  0
 20 46  1  0  0  0  0
 21 39  1  0  0  0  0
 22 30  1  0  0  0  0
 22 49  1  0  0  0  0
 23 80  1  0  0  0  0
 24 81  1  0  0  0  0
 25 27  2  0  0  0  0
 25 80  1  0  0  0  0
 26 82  1  0  0  0  0
 27 83  1  0  0  0  0
 28 63  2  0  0  0  0
 29 55  1  0  0  0  0
 29 64  2  0  0  0  0
 30 56  1  0  0  0  0
 30 65  2  0  0  0  0
 31 66  1  0  0  0  0
 31 69  1  0  0  0  0
 32 70  1  0  0  0  0
 32 75  2  0  0  0  0
 33 47  1  0  0  0  0
 33 71  1  0  0  0  0
 33 76  2  0  0  0  0
 34 60  1  0  0  0  0
 34 67  1  0  0  0  0
 34 77  2  0  0  0  0
 35 61  1  0  0  0  0
 35 72  1  0  0  0  0
 35 78  2  0  0  0  0
 36 68  1  0  0  0  0
 36 73  1  0  0  0  0
 36 79  2  0  0  0  0
 37 40  1  0  0  0  0
 38 47  1  0  0  0  0
 39 67  1  0  0  0  0
 40 42  1  0  0  0  0
 41 43  1  0  0  0  0
 41 44  1  0  0  0  0
 42 46  1  0  0  0  0
 43 48  1  0  0  0  0
 44 68  1  0  0  0  0
 45 48  1  0  0  0  0
 45 68  1  0  0  0  0
 46 71  1  0  0  0  0
 47 67  1  0  0  0  0
 48 66  1  0  0  0  0
 50 61  1  0  0  0  0
 51 62  1  0  0  0  0
 52 62  1  0  0  0  0
 53 62  1  0  0  0  0
 54 74  1  0  0  0  0
 55 59  1  0  0  0  0
 56 57  1  0  0  0  0
 57 58  1  0  0  0  0
 58 73  1  0  0  0  0
 59 81  1  0  0  0  0
 60 62  1  0  0  0  0
 60 72  1  0  0  0  0
 61 74  1  0  0  0  0
 63 66  1  0  0  0  0
 64 65  1  0  0  0  0
M  CHG  1  74   1
M  ISO  4  36 100  59 101  73 100  81 101
M  END
> <Batch ID>
0045

> <Smiles>
CNC(C)C(=O)NC(C(=O)N1Cc2cc([101O:1][101CH2:1]Cc3cc(C)c(CCC[100NH:0][100C:0](=O)N4CCCC(n5nc(-c6ccc(Oc7ccc(F)cc7F)cc6)c(C(N)=O)c5N)C4)nn3)ccc2CC1C(=O)NC1CCCc2ccccc21)C(C)(C)C

> <Shape>
0.253

> <Color>
0.042

> <Negative vol penalty>
0.000

$$$$

  -OEChem-04052317193D

 86 94  0     1  0  0  0  0  0999 V2000
  -17.6488  -31.1970   25.2501 C   0  0  0  0  0  0  0  0  0  0  0  0
  -18.5919  -30.2512   25.6392 C   0  0  0  0  0  0  0  0  0  0  0  0
  -24.5025  -13.8002   20.8409 C   0  0  0  0  0  0  0  0  0  0  0  0
  -26.8106  -13.3353   20.2986 C   0  0  0  0  0  0  0  0  0  0  0  0
  -17.4007  -31.4161   23.8957 C   0  0  0  0  0  0  0  0  0  0  0  0
  -19.2868  -29.5232   24.6740 C   0  0  0  0  0  0  0  0  0  0  0  0
  -24.2423  -29.2120   25.6699 C   0  0  0  0  0  0  0  0  0  0  0  0
  -24.1577  -12.4943   20.4927 C   0  0  0  0  0  0  0  0  0  0  0  0
  -26.4657  -12.0294   19.9505 C   0  0  0  0  0  0  0  0  0  0  0  0
  -24.6403  -28.2927   26.6396 C   0  0  0  0  0  0  0  0  0  0  0  0
  -24.3333   -9.4168   21.8824 C   0  0  0  0  0  0  0  0  0  0  0  0
  -23.4820   -8.7205   22.7404 C   0  0  0  0  0  0  0  0  0  0  0  0
  -25.2686  -26.7414   24.9023 C   0  0  0  0  0  0  0  0  0  0  0  0
  -28.1913  -24.3995   27.2552 C   0  0  0  0  0  0  0  0  0  0  0  0
  -21.8772   -8.4776   20.9508 C   0  0  0  0  0  0  0  0  0  0  0  0
  -29.3445  -26.1980   28.3002 C   0  0  0  0  0  0  0  0  0  0  0  0
  -25.8290  -14.2208   20.7438 C   0  0  0  0  0  0  0  0  0  0  0  0
  -26.5781  -16.0364   22.3718 C   0  0  0  0  0  0  0  0  0  0  0  0
  -18.0999  -30.6973   22.9133 C   0  0  0  0  0  0  0  0  0  0  0  0
  -24.3444  -28.8981   24.3070 C   0  0  0  0  0  0  0  0  0  0  0  0
  -19.0469  -29.7320   23.3053 C   0  0  0  0  0  0  0  0  0  0  0  0
  -24.8735  -27.6594   23.9173 C   0  0  0  0  0  0  0  0  0  0  0  0
  -28.1992  -25.4255   28.1935 C   0  0  0  0  0  0  0  0  0  0  0  0
  -29.3131  -24.1804   26.4633 C   0  0  0  0  0  0  0  0  0  0  0  0
  -25.1392  -11.6089   20.0476 C   0  0  0  0  0  0  0  0  0  0  0  0
  -25.1509  -27.0561   26.2559 C   0  0  0  0  0  0  0  0  0  0  0  0
  -23.9565   -9.6436   20.5587 C   0  0  0  0  0  0  0  0  0  0  0  0
  -22.2540   -8.2509   22.2746 C   0  0  0  0  0  0  0  0  0  0  0  0
  -22.7285   -9.1740   20.0929 C   0  0  0  0  0  0  0  0  0  0  0  0
  -26.1858  -15.5698   21.1028 C   0  0  0  0  0  0  0  0  0  0  0  0
  -30.4084  -25.0088   26.6473 C   0  0  0  0  0  0  0  0  0  0  0  0
  -26.8063  -17.3783   22.1887 C   0  0  0  0  0  0  0  0  0  0  0  0
  -26.7233  -15.3206   23.6056 C   0  0  0  0  0  0  0  0  0  0  0  0
  -22.2737  -28.5878   21.9154 C   0  0  0  0  0  0  0  0  0  0  0  0
  -24.9689  -28.2573   20.1408 C   0  0  0  0  0  0  0  0  0  0  0  0
  -28.2765  -27.4252   20.0234 C   0  0  0  0  0  0  0  0  0  0  0  0
  -28.9533  -21.5897   19.2222 C   0  0  0  0  0  0  0  0  0  0  0  0
  -17.7635  -30.9352   21.4625 C   0  0  0  0  0  0  0  0  0  0  0  0
  -23.9355  -29.9111   23.2730 C   0  0  0  0  0  0  0  0  0  0  0  0
  -25.0226  -27.2818   22.4669 C   0  0  0  0  0  0  0  0  0  0  0  0
  -18.8115  -30.3884   20.4966 C   0  0  0  0  0  0  0  0  0  0  0  0
  -25.7362  -20.3958   18.2725 C   0  0  0  0  0  0  0  0  0  0  0  0
  -19.2105  -28.9694   20.8892 C   0  0  0  0  0  0  0  0  0  0  0  0
  -25.6017  -19.0700   19.0237 C   0  0  0  0  0  0  0  0  0  0  0  0
  -27.1679  -20.6321   17.7967 C   0  0  0  0  0  0  0  0  0  0  0  0
  -28.0601  -19.2119   19.6025 C   0  0  0  0  0  0  0  0  0  0  0  0
  -19.8389  -28.9399   22.2876 C   0  0  1  0  0  0  0  0  0  0  0  0
  -23.6045  -29.2853   21.9216 C   0  0  1  0  0  0  0  0  0  0  0  0
  -26.6458  -18.9556   20.1506 C   0  0  2  0  0  0  0  0  0  0  0  0
  -31.6409  -24.8206   25.8244 C   0  0  0  0  0  0  0  0  0  0  0  0
  -30.1998  -27.2168   18.4251 C   0  0  0  0  0  0  0  0  0  0  0  0
  -23.7974  -25.6493   19.0751 C   0  0  0  0  0  0  0  0  0  0  0  0
  -26.0849  -25.0342   18.2645 C   0  0  0  0  0  0  0  0  0  0  0  0
  -24.9437  -27.0576   17.3555 C   0  0  0  0  0  0  0  0  0  0  0  0
  -29.8537  -29.4669   21.4735 C   0  0  0  0  0  0  0  0  0  0  0  0
  -27.7450  -23.9529   23.7291 C   0  0  0  0  0  0  0  0  0  0  0  0
  -26.9977  -25.6902   29.0680 C   0  0  0  0  0  0  0  0  0  0  0  0
  -29.3119  -23.0818   25.4572 C   0  0  0  0  0  0  0  0  0  0  0  0
  -30.1229  -23.3347   21.7931 C   0  0  0  0  0  0  0  0  0  0  0  0
  -30.7336  -22.4141   20.7420 C   0  0  0  0  0  0  0  0  0  0  0  0
  -29.7094  -22.5809   23.0506 C   0  0  0  0  0  0  0  0  0  0  0  0
  -26.0268  -26.6809   28.4349 C   0  0  0  0  0  0  0  0  0  1  0  0
  -25.8364  -27.0956   19.7206 C   0  0  1  0  0  0  0  0  0  0  0  0
  -29.4702  -28.1267   19.4010 C   0  0  2  0  0  0  0  0  0  0  0  0
  -25.1611  -26.2152   18.6314 C   0  0  0  0  0  0  0  0  0  0  0  0
  -30.4533  -26.0154   27.5486 N   0  0  0  0  0  0  0  0  0  0  0  0
  -26.1647  -16.5369   20.1817 N   0  0  0  0  0  0  0  0  0  0  0  0
  -26.5465  -17.6245   20.8726 N   0  0  0  0  0  0  0  0  0  0  0  0
  -24.6031  -28.3036   21.4936 N   0  0  0  0  0  0  0  0  0  0  0  0
  -28.1082  -20.5110   18.9135 N   0  0  0  0  0  0  0  0  0  0  0  0
  -27.2017  -18.3600   23.0268 N   0  0  0  0  0  0  0  0  0  0  0  0
  -26.4485  -13.9464   23.6172 N   0  0  0  0  0  0  0  0  0  0  0  0
  -21.2079  -29.4065   22.2365 N   0  0  0  0  0  0  0  0  0  0  0  0
  -27.1169  -27.6671   19.3177 N   0  0  0  0  0  0  0  0  0  0  0  0
  -29.8092  -21.3942   20.2992 N   0  0  0  0  0  0  0  0  0  0  0  0
  -30.4318  -28.5494   20.4581 N   0  3  0  0  0  0  0  0  0  0  0  0
  -29.1633  -23.5623   24.0550 N   0  3  1  0  0  0  0  0  0  0  0  0
  -27.0703  -15.8863   24.6701 O   0  0  0  0  0  0  0  0  0  0  0  0
  -22.2178  -27.3954   21.6382 O   0  0  0  0  0  0  0  0  0  0  0  0
  -24.6341  -29.0969   19.3013 O   0  0  0  0  0  0  0  0  0  0  0  0
  -28.3647  -26.7291   21.0325 O   0  0  0  0  0  0  0  0  0  0  0  0
  -28.9418  -22.6505   18.5885 O   0  0  0  0  0  0  0  0  0  0  0  0
  -24.8031  -10.3344   19.7079 O   0  0  0  0  0  0  0  0  0  0  0  0
  -25.5396  -26.1567   27.2003 O   0  0  0  0  0  0  0  0  0  1  0  0
  -21.4373   -7.5809   23.0981 F   0  0  0  0  0  0  0  0  0  0  0  0
  -22.3615   -9.3877   18.8219 F   0  0  0  0  0  0  0  0  0  0  0  0
  1  2  1  0  0  0  0
  1  5  2  0  0  0  0
  2  6  2  0  0  0  0
  3  8  2  0  0  0  0
  3 17  1  0  0  0  0
  4  9  1  0  0  0  0
  4 17  2  0  0  0  0
  5 19  1  0  0  0  0
  6 21  1  0  0  0  0
  7 10  2  0  0  0  0
  7 20  1  0  0  0  0
  8 25  1  0  0  0  0
  9 25  2  0  0  0  0
 10 26  1  0  0  0  0
 11 12  2  0  0  0  0
 11 27  1  0  0  0  0
 12 28  1  0  0  0  0
 13 22  1  0  0  0  0
 13 26  2  0  0  0  0
 14 23  2  0  0  0  0
 14 24  1  0  0  0  0
 15 28  2  0  0  0  0
 15 29  1  0  0  0  0
 16 23  1  0  0  0  0
 16 66  2  0  0  0  0
 17 30  1  0  0  0  0
 18 30  1  0  0  0  0
 18 32  2  0  0  0  0
 18 33  1  0  0  0  0
 19 21  2  0  0  0  0
 19 38  1  0  0  0  0
 20 22  2  0  0  0  0
 20 39  1  0  0  0  0
 21 47  1  0  0  0  0
 22 40  1  0  0  0  0
 23 57  1  0  0  0  0
 24 31  2  0  0  0  0
 24 58  1  0  0  0  0
 25 83  1  0  0  0  0
 26 84  1  0  0  0  0
 27 29  2  0  0  0  0
 27 83  1  0  0  0  0
 28 85  1  0  0  0  0
 29 86  1  0  0  0  0
 30 67  2  0  0  0  0
 31 50  1  0  0  0  0
 31 66  1  0  0  0  0
 32 68  1  0  0  0  0
 32 71  1  0  0  0  0
 33 72  1  0  0  0  0
 33 78  2  0  0  0  0
 34 48  1  0  0  0  0
 34 73  1  0  0  0  0
 34 79  2  0  0  0  0
 35 63  1  0  0  0  0
 35 69  1  0  0  0  0
 35 80  2  0  0  0  0
 36 64  1  0  0  0  0
 36 74  1  0  0  0  0
 36 81  2  0  0  0  0
 37 70  1  0  0  0  0
 37 75  1  0  0  0  0
 37 82  2  0  0  0  0
 38 41  1  0  0  0  0
 39 48  1  0  0  0  0
 40 69  1  0  0  0  0
 41 43  1  0  0  0  0
 42 44  1  0  0  0  0
 42 45  1  0  0  0  0
 43 47  1  0  0  0  0
 44 49  1  0  0  0  0
 45 70  1  0  0  0  0
 46 49  1  0  0  0  0
 46 70  1  0  0  0  0
 47 73  1  0  0  0  0
 48 69  1  0  0  0  0
 49 68  1  0  0  0  0
 51 64  1  0  0  0  0
 52 65  1  0  0  0  0
 53 65  1  0  0  0  0
 54 65  1  0  0  0  0
 55 76  1  0  0  0  0
 56 77  1  0  0  0  0
 57 62  1  0  0  0  0
 58 77  1  0  0  0  0
 59 60  1  0  0  0  0
 59 61  1  0  0  0  0
 60 75  1  0  0  0  0
 61 77  1  0  0  0  0
 62 84  1  0  0  0  0
 63 65  1  0  0  0  0
 63 74  1  0  0  0  0
 64 76  1  0  0  0  0
 67 68  1  0  0  0  0
M  CHG  2  76   1  77   1
M  ISO  4  37 100  62 101  75 100  84 101
M  END
> <Batch ID>
0045

> <Smiles>
CNC(C)C(=O)NC(C(=O)N1Cc2cc([101O:1][101CH2:1]Cc3cnc(C)c(CN(C)CCC[100NH:0][100C:0](=O)N4CCCC(n5nc(-c6ccc(Oc7ccc(F)cc7F)cc6)c(C(N)=O)c5N)C4)c3)ccc2CC1C(=O)NC1CCCc2ccccc21)C(C)(C)C

> <Shape>
0.227

> <Color>
0.077

> <Negative vol penalty>
0.000

$$$$

  -OEChem-04052317193D

 82 90  0     1  0  0  0  0  0999 V2000
  -23.2783  -24.0368   21.1904 C   0  0  0  0  0  0  0  0  0  0  0  0
  -24.4276  -23.2541   21.2339 C   0  0  0  0  0  0  0  0  0  0  0  0
  -26.6524  -28.6878   21.6766 C   0  0  0  0  0  0  0  0  0  0  0  0
  -26.0199  -26.5531   22.6147 C   0  0  0  0  0  0  0  0  0  0  0  0
  -22.0687  -23.5235   21.6566 C   0  0  0  0  0  0  0  0  0  0  0  0
  -24.3682  -21.9579   21.7447 C   0  0  0  0  0  0  0  0  0  0  0  0
  -26.8636  -18.6198   18.8681 C   0  0  0  0  0  0  0  0  0  0  0  0
  -25.4063  -29.2096   22.0238 C   0  0  0  0  0  0  0  0  0  0  0  0
  -24.7738  -27.0749   22.9620 C   0  0  0  0  0  0  0  0  0  0  0  0
  -28.2528  -18.5935   18.9828 C   0  0  0  0  0  0  0  0  0  0  0  0
  -21.2941  -27.7407   23.7732 C   0  0  0  0  0  0  0  0  0  0  0  0
  -20.1675  -26.9648   23.5007 C   0  0  0  0  0  0  0  0  0  0  0  0
  -28.0911  -16.6686   20.4277 C   0  0  0  0  0  0  0  0  0  0  0  0
  -33.7091  -19.9160   23.2014 C   0  0  0  0  0  0  0  0  0  0  0  0
  -20.7178  -26.9921   21.1483 C   0  0  0  0  0  0  0  0  0  0  0  0
  -35.1300  -21.3260   21.3470 C   0  0  0  0  0  0  0  0  0  0  0  0
  -26.9592  -27.3595   21.9720 C   0  0  0  0  0  0  0  0  0  0  0  0
  -29.4155  -26.8174   22.3968 C   0  0  0  0  0  0  0  0  0  0  0  0
  -21.9924  -22.2170   22.1644 C   0  0  0  0  0  0  0  0  0  0  0  0
  -26.0758  -17.6757   19.5422 C   0  0  0  0  0  0  0  0  0  0  0  0
  -23.1567  -21.4272   22.2194 C   0  0  0  0  0  0  0  0  0  0  0  0
  -26.6922  -16.6835   20.3178 C   0  0  0  0  0  0  0  0  0  0  0  0
  -33.2353  -19.9977   21.8968 C   0  0  0  0  0  0  0  0  0  0  0  0
  -33.9533  -20.7142   20.9458 C   0  0  0  0  0  0  0  0  0  0  0  0
  -24.4670  -28.4032   22.6665 C   0  0  0  0  0  0  0  0  0  0  0  0
  -28.8666  -17.6196   19.7650 C   0  0  0  0  0  0  0  0  0  0  0  0
  -22.1325  -28.1424   22.7334 C   0  0  0  0  0  0  0  0  0  0  0  0
  -19.8793  -26.5905   22.1883 C   0  0  0  0  0  0  0  0  0  0  0  0
  -21.8444  -27.7681   21.4209 C   0  0  0  0  0  0  0  0  0  0  0  0
  -28.2460  -26.8197   21.6131 C   0  0  0  0  0  0  0  0  0  0  0  0
  -34.8968  -20.5634   23.5016 C   0  0  0  0  0  0  0  0  0  0  0  0
  -30.3538  -26.1933   21.6115 C   0  0  0  0  0  0  0  0  0  0  0  0
  -29.6341  -27.3332   23.7166 C   0  0  0  0  0  0  0  0  0  0  0  0
  -23.8354  -17.8202   21.7925 C   0  0  0  0  0  0  0  0  0  0  0  0
  -23.5773  -14.6431   21.1912 C   0  0  0  0  0  0  0  0  0  0  0  0
  -25.0363  -11.7877   20.0230 C   0  0  0  0  0  0  0  0  0  0  0  0
  -31.8442  -22.0743   18.1536 C   0  0  0  0  0  0  0  0  0  0  0  0
  -20.6723  -21.7225   22.7005 C   0  0  0  0  0  0  0  0  0  0  0  0
  -24.5799  -17.7012   19.3868 C   0  0  0  0  0  0  0  0  0  0  0  0
  -25.8927  -15.6348   21.0455 C   0  0  0  0  0  0  0  0  0  0  0  0
  -20.6168  -20.2076   22.8802 C   0  0  0  0  0  0  0  0  0  0  0  0
  -30.2229  -24.9027   16.7224 C   0  0  0  0  0  0  0  0  0  0  0  0
  -21.8770  -19.7063   23.5784 C   0  0  0  0  0  0  0  0  0  0  0  0
  -29.6555  -25.6494   17.9309 C   0  0  0  0  0  0  0  0  0  0  0  0
  -30.1523  -23.3888   16.9103 C   0  0  0  0  0  0  0  0  0  0  0  0
  -30.2021  -23.6363   19.3618 C   0  0  0  0  0  0  0  0  0  0  0  0
  -23.1274  -20.0078   22.7434 C   0  0  1  0  0  0  0  0  0  0  0  0
  -23.8484  -17.0051   20.5303 C   0  0  1  0  0  0  0  0  0  0  0  0
  -30.3029  -25.1667   19.2428 C   0  0  2  0  0  0  0  0  0  0  0  0
  -35.4352  -20.4975   24.8918 C   0  0  0  0  0  0  0  0  0  0  0  0
  -24.5906   -9.3401   19.6942 C   0  0  0  0  0  0  0  0  0  0  0  0
  -23.9679  -14.1729   24.1805 C   0  0  0  0  0  0  0  0  0  0  0  0
  -24.4617  -11.7726   23.6676 C   0  0  0  0  0  0  0  0  0  0  0  0
  -22.2248  -12.7294   23.1164 C   0  0  0  0  0  0  0  0  0  0  0  0
  -25.3952  -11.9974   17.0928 C   0  0  0  0  0  0  0  0  0  0  0  0
  -31.9457  -19.3039   21.5373 C   0  0  0  0  0  0  0  0  0  0  0  0
  -33.4912  -20.8342   19.5351 C   0  0  0  0  0  0  0  0  0  0  0  0
  -32.0851  -17.7883   21.3786 C   0  0  0  0  0  0  0  0  0  0  0  0
  -30.7612  -17.0861   21.0998 C   0  0  0  0  0  0  0  0  0  1  0  0
  -24.2331  -13.3958   21.7327 C   0  0  1  0  0  0  0  0  0  0  0  0
  -24.5389  -10.7225   19.0625 C   0  0  2  0  0  0  0  0  0  0  0  0
  -23.7371  -13.0385   23.1623 C   0  0  0  0  0  0  0  0  0  0  0  0
  -35.6220  -21.2689   22.6049 N   0  0  0  0  0  0  0  0  0  0  0  0
  -28.4228  -26.2430   20.4214 N   0  0  0  0  0  0  0  0  0  0  0  0
  -29.7143  -25.8726   20.4503 N   0  0  0  0  0  0  0  0  0  0  0  0
  -24.4329  -15.7056   20.8672 N   0  0  0  0  0  0  0  0  0  0  0  0
  -30.7850  -22.9966   18.1719 N   0  0  0  0  0  0  0  0  0  0  0  0
  -31.6552  -25.8932   21.8079 N   0  0  0  0  0  0  0  0  0  0  0  0
  -28.5619  -27.9438   24.3813 N   0  0  0  0  0  0  0  0  0  0  0  0
  -23.2473  -19.0629   21.6537 N   0  0  0  0  0  0  0  0  0  0  0  0
  -24.0027  -12.3503   20.7416 N   0  0  0  0  0  0  0  0  0  0  0  0
  -32.3915  -21.7620   19.3920 N   0  0  0  0  0  0  0  0  0  0  0  0
  -25.3742  -10.7070   17.8285 N   0  3  0  0  0  0  0  0  0  0  0  0
  -30.7515  -27.2695   24.2830 O   0  0  0  0  0  0  0  0  0  0  0  0
  -24.3216  -17.3555   22.8168 O   0  0  0  0  0  0  0  0  0  0  0  0
  -22.3518  -14.6710   21.0537 O   0  0  0  0  0  0  0  0  0  0  0  0
  -26.2235  -12.0877   20.1281 O   0  0  0  0  0  0  0  0  0  0  0  0
  -32.2742  -21.5708   17.1102 O   0  0  0  0  0  0  0  0  0  0  0  0
  -23.2510  -28.9121   23.0057 O   0  0  0  0  0  0  0  0  0  0  0  0
  -30.2224  -17.5921   19.8792 O   0  0  0  0  0  0  0  0  0  1  0  0
  -18.7983  -25.8440   21.9268 F   0  0  0  0  0  0  0  0  0  0  0  0
  -22.6468  -28.1500   20.4179 F   0  0  0  0  0  0  0  0  0  0  0  0
  1  2  1  0  0  0  0
  1  5  2  0  0  0  0
  2  6  2  0  0  0  0
  3  8  2  0  0  0  0
  3 17  1  0  0  0  0
  4  9  1  0  0  0  0
  4 17  2  0  0  0  0
  5 19  1  0  0  0  0
  6 21  1  0  0  0  0
  7 10  2  0  0  0  0
  7 20  1  0  0  0  0
  8 25  1  0  0  0  0
  9 25  2  0  0  0  0
 10 26  1  0  0  0  0
 11 12  2  0  0  0  0
 11 27  1  0  0  0  0
 12 28  1  0  0  0  0
 13 22  1  0  0  0  0
 13 26  2  0  0  0  0
 14 23  1  0  0  0  0
 14 31  2  0  0  0  0
 15 28  2  0  0  0  0
 15 29  1  0  0  0  0
 16 24  1  0  0  0  0
 16 63  2  0  0  0  0
 17 30  1  0  0  0  0
 18 30  1  0  0  0  0
 18 32  2  0  0  0  0
 18 33  1  0  0  0  0
 19 21  2  0  0  0  0
 19 38  1  0  0  0  0
 20 22  2  0  0  0  0
 20 39  1  0  0  0  0
 21 47  1  0  0  0  0
 22 40  1  0  0  0  0
 23 24  2  0  0  0  0
 23 56  1  0  0  0  0
 24 57  1  0  0  0  0
 25 79  1  0  0  0  0
 26 80  1  0  0  0  0
 27 29  2  0  0  0  0
 27 79  1  0  0  0  0
 28 81  1  0  0  0  0
 29 82  1  0  0  0  0
 30 64  2  0  0  0  0
 31 50  1  0  0  0  0
 31 63  1  0  0  0  0
 32 65  1  0  0  0  0
 32 68  1  0  0  0  0
 33 69  1  0  0  0  0
 33 74  2  0  0  0  0
 34 48  1  0  0  0  0
 34 70  1  0  0  0  0
 34 75  2  0  0  0  0
 35 60  1  0  0  0  0
 35 66  1  0  0  0  0
 35 76  2  0  0  0  0
 36 61  1  0  0  0  0
 36 71  1  0  0  0  0
 36 77  2  0  0  0  0
 37 67  1  0  0  0  0
 37 72  1  0  0  0  0
 37 78  2  0  0  0  0
 38 41  1  0  0  0  0
 39 48  1  0  0  0  0
 40 66  1  0  0  0  0
 41 43  1  0  0  0  0
 42 44  1  0  0  0  0
 42 45  1  0  0  0  0
 43 47  1  0  0  0  0
 44 49  1  0  0  0  0
 45 67  1  0  0  0  0
 46 49  1  0  0  0  0
 46 67  1  0  0  0  0
 47 70  1  0  0  0  0
 48 66  1  0  0  0  0
 49 65  1  0  0  0  0
 51 61  1  0  0  0  0
 52 62  1  0  0  0  0
 53 62  1  0  0  0  0
 54 62  1  0  0  0  0
 55 73  1  0  0  0  0
 56 58  1  0  0  0  0
 57 72  1  0  0  0  0
 58 59  1  0  0  0  0
 59 80  1  0  0  0  0
 60 62  1  0  0  0  0
 60 71  1  0  0  0  0
 61 73  1  0  0  0  0
 64 65  1  0  0  0  0
M  CHG  1  73   1
M  ISO  4  37 100  59 101  72 100  80 101
M  END
> <Batch ID>
0045

> <Smiles>
CNC(C)C(=O)NC(C(=O)N1Cc2cc([101O:1][101CH2:1]CCc3cc(C)ncc3C[100NH:0][100C:0](=O)N3CCCC(n4nc(-c5ccc(Oc6ccc(F)cc6F)cc5)c(C(N)=O)c4N)C3)ccc2CC1C(=O)NC1CCCc2ccccc21)C(C)(C)C

> <Shape>
0.186

> <Color>
0.080

> <Negative vol penalty>
0.000

$$$$

  -OEChem-04052317193D

 82 90  0     1  0  0  0  0  0999 V2000
  -30.1397  -32.0274   11.1497 C   0  0  0  0  0  0  0  0  0  0  0  0
  -29.9669  -30.7741   11.7285 C   0  0  0  0  0  0  0  0  0  0  0  0
  -23.1346   -9.7735   19.8662 C   0  0  0  0  0  0  0  0  0  0  0  0
  -23.9632   -9.6641   22.1330 C   0  0  0  0  0  0  0  0  0  0  0  0
  -30.2748  -33.1549   11.9587 C   0  0  0  0  0  0  0  0  0  0  0  0
  -29.9302  -30.6475   13.1166 C   0  0  0  0  0  0  0  0  0  0  0  0
  -26.5678  -26.6917   16.3649 C   0  0  0  0  0  0  0  0  0  0  0  0
  -22.4489   -8.5742   20.0589 C   0  0  0  0  0  0  0  0  0  0  0  0
  -23.2774   -8.4648   22.3258 C   0  0  0  0  0  0  0  0  0  0  0  0
  -26.8706  -25.4635   16.9510 C   0  0  0  0  0  0  0  0  0  0  0  0
  -20.1064   -7.4851   22.9625 C   0  0  0  0  0  0  0  0  0  0  0  0
  -19.3880   -7.3345   24.1485 C   0  0  0  0  0  0  0  0  0  0  0  0
  -27.2689  -26.5728   19.0558 C   0  0  0  0  0  0  0  0  0  0  0  0
  -20.7333   -5.4106   24.7192 C   0  0  0  0  0  0  0  0  0  0  0  0
  -29.0827  -21.5704   19.2142 C   0  0  0  0  0  0  0  0  0  0  0  0
  -23.8918  -10.3184   20.9032 C   0  0  0  0  0  0  0  0  0  0  0  0
  -24.1210  -12.8588   20.9430 C   0  0  0  0  0  0  0  0  0  0  0  0
  -30.2300  -33.0433   13.3573 C   0  0  0  0  0  0  0  0  0  0  0  0
  -26.6239  -27.8730   17.1184 C   0  0  0  0  0  0  0  0  0  0  0  0
  -30.0661  -31.7744   13.9451 C   0  0  0  0  0  0  0  0  0  0  0  0
  -26.9638  -27.8144   18.4775 C   0  0  0  0  0  0  0  0  0  0  0  0
  -22.5203   -7.9199   21.2887 C   0  0  0  0  0  0  0  0  0  0  0  0
  -27.2240  -25.4042   18.2959 C   0  0  0  0  0  0  0  0  0  0  0  0
  -21.1383   -6.5984   22.6547 C   0  0  0  0  0  0  0  0  0  0  0  0
  -19.7014   -6.2973   25.0269 C   0  0  0  0  0  0  0  0  0  0  0  0
  -21.4518   -5.5612   23.5331 C   0  0  0  0  0  0  0  0  0  0  0  0
  -24.6008  -11.5570   20.7046 C   0  0  0  0  0  0  0  0  0  0  0  0
  -27.7803  -21.8367   18.8533 C   0  0  0  0  0  0  0  0  0  0  0  0
  -27.0919  -19.9487   19.9449 C   0  0  0  0  0  0  0  0  0  0  0  0
  -28.3945  -19.6821   20.3051 C   0  0  0  0  0  0  0  0  0  0  0  0
  -25.1684  -13.6788   20.6007 C   0  0  0  0  0  0  0  0  0  0  0  0
  -22.8430  -13.2885   21.4304 C   0  0  0  0  0  0  0  0  0  0  0  0
  -28.3318  -30.5497   16.9692 C   0  0  0  0  0  0  0  0  0  0  0  0
  -26.3531  -31.4846   19.3636 C   0  0  0  0  0  0  0  0  0  0  0  0
  -24.2798  -30.5928   21.9234 C   0  0  0  0  0  0  0  0  0  0  0  0
  -30.6065  -14.9283   20.7053 C   0  0  0  0  0  0  0  0  0  0  0  0
  -30.4279  -34.2843   14.1913 C   0  0  0  0  0  0  0  0  0  0  0  0
  -26.2685  -29.1868   16.4781 C   0  0  0  0  0  0  0  0  0  0  0  0
  -27.0191  -29.0513   19.3352 C   0  0  0  0  0  0  0  0  0  0  0  0
  -30.0026  -34.1139   15.6474 C   0  0  0  0  0  0  0  0  0  0  0  0
  -29.5000  -12.6569   18.1967 C   0  0  0  0  0  0  0  0  0  0  0  0
  -30.5489  -32.8071   16.2137 C   0  0  0  0  0  0  0  0  0  0  0  0
  -28.0904  -12.2712   18.6485 C   0  0  0  0  0  0  0  0  0  0  0  0
  -30.4431  -12.8394   19.3839 C   0  0  0  0  0  0  0  0  0  0  0  0
  -28.5549  -13.3918   20.8683 C   0  0  0  0  0  0  0  0  0  0  0  0
  -29.9962  -31.5997   15.4467 C   0  0  1  0  0  0  0  0  0  0  0  0
  -26.8577  -30.3878   17.2115 C   0  0  1  0  0  0  0  0  0  0  0  0
  -27.5536  -13.2513   19.7089 C   0  0  2  0  0  0  0  0  0  0  0  0
  -25.9742  -19.0491   20.3490 C   0  0  0  0  0  0  0  0  0  0  0  0
  -22.8363  -31.5786   23.7240 C   0  0  0  0  0  0  0  0  0  0  0  0
  -28.8449  -32.1466   20.9954 C   0  0  0  0  0  0  0  0  0  0  0  0
  -27.4039  -32.2060   23.0419 C   0  0  0  0  0  0  0  0  0  0  0  0
  -26.9979  -33.8220   21.1855 C   0  0  0  0  0  0  0  0  0  0  0  0
  -21.8398  -29.3355   20.8169 C   0  0  0  0  0  0  0  0  0  0  0  0
  -28.7467  -18.4818   21.1157 C   0  0  0  0  0  0  0  0  0  0  0  0
  -27.4497  -23.0510   18.0362 C   0  0  0  0  0  0  0  0  0  1  0  0
  -30.2587  -18.1947   21.2085 C   0  0  0  0  0  0  0  0  0  0  0  0
  -30.6177  -16.9938   22.0810 C   0  0  0  0  0  0  0  0  0  0  0  0
  -26.3792  -31.3910   20.8701 C   0  0  1  0  0  0  0  0  0  0  0  0
  -22.8831  -31.0561   22.2966 C   0  0  2  0  0  0  0  0  0  0  0  0
  -27.4074  -32.3681   21.5068 C   0  0  0  0  0  0  0  0  0  0  0  0
  -29.4132  -20.4883   19.9465 N   0  0  0  0  0  0  0  0  0  0  0  0
  -25.8552  -11.5456   20.2461 N   0  0  0  0  0  0  0  0  0  0  0  0
  -26.7615  -21.0306   19.2122 N   0  0  0  0  0  0  0  0  0  0  0  0
  -26.1726  -12.8505   20.1936 N   0  0  0  0  0  0  0  0  0  0  0  0
  -26.6691  -30.3128   18.6616 N   0  0  0  0  0  0  0  0  0  0  0  0
  -29.8762  -13.7818   20.3515 N   0  0  0  0  0  0  0  0  0  0  0  0
  -25.3191  -15.0203   20.6111 N   0  0  0  0  0  0  0  0  0  0  0  0
  -21.8818  -12.3147   21.7339 N   0  0  0  0  0  0  0  0  0  0  0  0
  -28.6389  -31.3159   15.8610 N   0  0  0  0  0  0  0  0  0  0  0  0
  -25.0052  -31.5956   21.3157 N   0  0  0  0  0  0  0  0  0  0  0  0
  -29.9940  -15.7720   21.6238 N   0  0  0  0  0  0  0  0  0  0  0  0
  -21.9144  -29.9301   22.1762 N   0  3  0  0  0  0  0  0  0  0  0  0
  -22.5559  -14.5009   21.5764 O   0  0  0  0  0  0  0  0  0  0  0  0
  -29.1312  -30.0201   17.7321 O   0  0  0  0  0  0  0  0  0  0  0  0
  -26.0561  -32.5561   18.8294 O   0  0  0  0  0  0  0  0  0  0  0  0
  -24.6877  -29.4562   22.1519 O   0  0  0  0  0  0  0  0  0  0  0  0
  -31.7195  -15.1839   20.2332 O   0  0  0  0  0  0  0  0  0  0  0  0
  -21.8511   -6.7497   21.4772 O   0  0  0  0  0  0  0  0  0  0  0  0
  -27.5206  -24.2067   18.8703 O   0  0  0  0  0  0  0  0  0  1  0  0
  -19.0124   -6.1537   26.1666 F   0  0  0  0  0  0  0  0  0  0  0  0
  -22.4428   -4.7069   23.2434 F   0  0  0  0  0  0  0  0  0  0  0  0
  1  2  1  0  0  0  0
  1  5  2  0  0  0  0
  2  6  2  0  0  0  0
  3  8  2  0  0  0  0
  3 16  1  0  0  0  0
  4  9  1  0  0  0  0
  4 16  2  0  0  0  0
  5 18  1  0  0  0  0
  6 20  1  0  0  0  0
  7 10  2  0  0  0  0
  7 19  1  0  0  0  0
  8 22  1  0  0  0  0
  9 22  2  0  0  0  0
 10 23  1  0  0  0  0
 11 12  2  0  0  0  0
 11 24  1  0  0  0  0
 12 25  1  0  0  0  0
 13 21  1  0  0  0  0
 13 23  2  0  0  0  0
 14 25  2  0  0  0  0
 14 26  1  0  0  0  0
 15 28  1  0  0  0  0
 15 62  2  0  0  0  0
 16 27  1  0  0  0  0
 17 27  1  0  0  0  0
 17 31  2  0  0  0  0
 17 32  1  0  0  0  0
 18 20  2  0  0  0  0
 18 37  1  0  0  0  0
 19 21  2  0  0  0  0
 19 38  1  0  0  0  0
 20 46  1  0  0  0  0
 21 39  1  0  0  0  0
 22 79  1  0  0  0  0
 23 80  1  0  0  0  0
 24 26  2  0  0  0  0
 24 79  1  0  0  0  0
 25 81  1  0  0  0  0
 26 82  1  0  0  0  0
 27 63  2  0  0  0  0
 28 56  1  0  0  0  0
 28 64  2  0  0  0  0
 29 30  2  0  0  0  0
 29 49  1  0  0  0  0
 29 64  1  0  0  0  0
 30 55  1  0  0  0  0
 30 62  1  0  0  0  0
 31 65  1  0  0  0  0
 31 68  1  0  0  0  0
 32 69  1  0  0  0  0
 32 74  2  0  0  0  0
 33 47  1  0  0  0  0
 33 70  1  0  0  0  0
 33 75  2  0  0  0  0
 34 59  1  0  0  0  0
 34 66  1  0  0  0  0
 34 76  2  0  0  0  0
 35 60  1  0  0  0  0
 35 71  1  0  0  0  0
 35 77  2  0  0  0  0
 36 67  1  0  0  0  0
 36 72  1  0  0  0  0
 36 78  2  0  0  0  0
 37 40  1  0  0  0  0
 38 47  1  0  0  0  0
 39 66  1  0  0  0  0
 40 42  1  0  0  0  0
 41 43  1  0  0  0  0
 41 44  1  0  0  0  0
 42 46  1  0  0  0  0
 43 48  1  0  0  0  0
 44 67  1  0  0  0  0
 45 48  1  0  0  0  0
 45 67  1  0  0  0  0
 46 70  1  0  0  0  0
 47 66  1  0  0  0  0
 48 65  1  0  0  0  0
 50 60  1  0  0  0  0
 51 61  1  0  0  0  0
 52 61  1  0  0  0  0
 53 61  1  0  0  0  0
 54 73  1  0  0  0  0
 55 57  1  0  0  0  0
 56 80  1  0  0  0  0
 57 58  1  0  0  0  0
 58 72  1  0  0  0  0
 59 61  1  0  0  0  0
 59 71  1  0  0  0  0
 60 73  1  0  0  0  0
 63 65  1  0  0  0  0
M  CHG  1  73   1
M  ISO  4  36 100  56 101  72 100  80 101
M  END
> <Batch ID>
0045

> <Smiles>
CNC(C)C(=O)NC(C(=O)N1Cc2cc([101O:1][101CH2:1]c3cnc(CCC[100NH:0][100C:0](=O)N4CCCC(n5nc(-c6ccc(Oc7ccc(F)cc7F)cc6)c(C(N)=O)c5N)C4)c(C)n3)ccc2CC1C(=O)NC1CCCc2ccccc21)C(C)(C)C

> <Shape>
0.286

> <Color>
0.218

> <Negative vol penalty>
0.000

$$$$

  -OEChem-04052317193D

 85 93  0     1  0  0  0  0  0999 V2000
  -19.8649  -30.7444   26.2012 C   0  0  0  0  0  0  0  0  0  0  0  0
  -21.1577  -30.3509   25.8705 C   0  0  0  0  0  0  0  0  0  0  0  0
  -23.4142  -14.1810   21.3563 C   0  0  0  0  0  0  0  0  0  0  0  0
  -25.6246  -14.4093   20.4082 C   0  0  0  0  0  0  0  0  0  0  0  0
  -18.7801  -30.2471   25.4801 C   0  0  0  0  0  0  0  0  0  0  0  0
  -21.3663  -29.4589   24.8191 C   0  0  0  0  0  0  0  0  0  0  0  0
  -26.0906  -29.4013   20.9226 C   0  0  0  0  0  0  0  0  0  0  0  0
  -23.3184  -12.8955   20.8236 C   0  0  0  0  0  0  0  0  0  0  0  0
  -25.5288  -13.1237   19.8755 C   0  0  0  0  0  0  0  0  0  0  0  0
  -27.2640  -28.6494   20.8821 C   0  0  0  0  0  0  0  0  0  0  0  0
  -24.4492   -9.7981   21.5725 C   0  0  0  0  0  0  0  0  0  0  0  0
  -23.9550   -8.7891   22.3990 C   0  0  0  0  0  0  0  0  0  0  0  0
  -26.2165  -27.1083   19.3502 C   0  0  0  0  0  0  0  0  0  0  0  0
  -22.1435   -8.4051   20.8473 C   0  0  0  0  0  0  0  0  0  0  0  0
  -29.8145  -23.8377   19.4822 C   0  0  0  0  0  0  0  0  0  0  0  0
  -24.5673  -14.9380   21.1486 C   0  0  0  0  0  0  0  0  0  0  0  0
  -25.1714  -16.6279   22.9615 C   0  0  0  0  0  0  0  0  0  0  0  0
  -18.9763  -29.3561   24.4132 C   0  0  0  0  0  0  0  0  0  0  0  0
  -24.9659  -29.0056   20.1844 C   0  0  0  0  0  0  0  0  0  0  0  0
  -20.2830  -28.9482   24.0840 C   0  0  0  0  0  0  0  0  0  0  0  0
  -25.0309  -27.8582   19.3810 C   0  0  0  0  0  0  0  0  0  0  0  0
  -24.3757  -12.3668   20.0832 C   0  0  0  0  0  0  0  0  0  0  0  0
  -27.3262  -27.5012   20.0981 C   0  0  0  0  0  0  0  0  0  0  0  0
  -23.7904  -10.1108   20.3833 C   0  0  0  0  0  0  0  0  0  0  0  0
  -22.8022   -8.0926   22.0364 C   0  0  0  0  0  0  0  0  0  0  0  0
  -22.6376   -9.4143   20.0207 C   0  0  0  0  0  0  0  0  0  0  0  0
  -24.6666  -16.2662   21.6982 C   0  0  0  0  0  0  0  0  0  0  0  0
  -30.0616  -24.4226   20.7387 C   0  0  0  0  0  0  0  0  0  0  0  0
  -29.4695  -22.5397   19.7696 C   0  0  0  0  0  0  0  0  0  0  0  0
  -25.0484  -17.9953   23.0018 C   0  0  0  0  0  0  0  0  0  0  0  0
  -25.7040  -15.8017   24.0053 C   0  0  0  0  0  0  0  0  0  0  0  0
  -21.9972  -28.1345   20.9134 C   0  0  0  0  0  0  0  0  0  0  0  0
  -21.6128  -28.1656   17.6926 C   0  0  0  0  0  0  0  0  0  0  0  0
  -23.0434  -27.9473   14.6019 C   0  0  0  0  0  0  0  0  0  0  0  0
  -24.8091  -22.1949   18.7407 C   0  0  0  0  0  0  0  0  0  0  0  0
  -17.7693  -28.8087   23.6934 C   0  0  0  0  0  0  0  0  0  0  0  0
  -23.7164  -29.8423   20.2179 C   0  0  0  0  0  0  0  0  0  0  0  0
  -23.8579  -27.4018   18.5539 C   0  0  0  0  0  0  0  0  0  0  0  0
  -18.1024  -28.1586   22.3530 C   0  0  0  0  0  0  0  0  0  0  0  0
  -22.3800  -21.5675   21.2670 C   0  0  0  0  0  0  0  0  0  0  0  0
  -19.3028  -27.2280   22.4947 C   0  0  0  0  0  0  0  0  0  0  0  0
  -22.7361  -20.1703   21.7779 C   0  0  0  0  0  0  0  0  0  0  0  0
  -22.6089  -21.6935   19.7624 C   0  0  0  0  0  0  0  0  0  0  0  0
  -24.3156  -19.9164   19.8185 C   0  0  0  0  0  0  0  0  0  0  0  0
  -20.5517  -28.0016   22.9343 C   0  0  1  0  0  0  0  0  0  0  0  0
  -22.4645  -29.0624   19.8280 C   0  0  1  0  0  0  0  0  0  0  0  0
  -24.1543  -19.7577   21.3400 C   0  0  2  0  0  0  0  0  0  0  0  0
  -22.4689  -27.9703   12.1592 C   0  0  0  0  0  0  0  0  0  0  0  0
  -20.5570  -25.3116   17.9166 C   0  0  0  0  0  0  0  0  0  0  0  0
  -20.9018  -25.0647   15.4491 C   0  0  0  0  0  0  0  0  0  0  0  0
  -19.2990  -26.7670   16.3185 C   0  0  0  0  0  0  0  0  0  0  0  0
  -30.2142  -20.1154   21.5143 C   0  0  0  0  0  0  0  0  0  0  0  0
  -27.7897  -20.8028   21.6848 C   0  0  0  0  0  0  0  0  0  0  0  0
  -29.4158  -21.4641   23.4420 C   0  0  0  0  0  0  0  0  0  0  0  0
  -24.7005  -30.3508   14.1160 C   0  0  0  0  0  0  0  0  0  0  0  0
  -30.4818  -25.8438   21.0250 C   0  0  0  0  0  0  0  0  0  0  0  0
  -29.0970  -21.4186   18.8875 C   0  0  0  0  0  0  0  0  0  0  0  0
  -28.3948  -21.8277   17.5692 C   0  0  0  0  0  0  0  0  0  0  0  0
  -27.0655  -22.5519   17.7709 C   0  0  0  0  0  0  0  0  0  0  0  0
  -29.2887  -26.7718   21.2261 C   0  0  0  0  0  0  0  0  0  1  0  0
  -21.7832  -27.1532   16.5858 C   0  0  1  0  0  0  0  0  0  0  0  0
  -22.8909  -28.8047   13.3585 C   0  0  2  0  0  0  0  0  0  0  0  0
  -20.6569  -26.0814   16.5845 C   0  0  0  0  0  0  0  0  0  0  0  0
  -29.2494  -21.2529   21.9167 C   0  0  0  0  0  0  0  0  0  0  0  0
  -24.2535  -17.3188   20.9873 N   0  0  0  0  0  0  0  0  0  0  0  0
  -29.8881  -23.5665   21.7491 N   0  0  0  0  0  0  0  0  0  0  0  0
  -29.5282  -22.4304   21.1279 N   0  0  0  0  0  0  0  0  0  0  0  0
  -24.4985  -18.3554   21.8068 N   0  0  0  0  0  0  0  0  0  0  0  0
  -22.6565  -28.2499   18.6250 N   0  0  0  0  0  0  0  0  0  0  0  0
  -23.9729  -21.2888   19.4135 N   0  0  0  0  0  0  0  0  0  0  0  0
  -25.3580  -18.9127   23.9425 N   0  0  0  0  0  0  0  0  0  0  0  0
  -25.7578  -14.4165   23.7992 N   0  0  0  0  0  0  0  0  0  0  0  0
  -21.1244  -28.7157   21.8134 N   0  0  0  0  0  0  0  0  0  0  0  0
  -21.8832  -27.9164   15.3464 N   0  0  0  0  0  0  0  0  0  0  0  0
  -26.0880  -21.7337   18.4535 N   0  0  0  0  0  0  0  0  0  0  0  0
  -24.1798  -29.4780   13.0324 N   0  3  0  0  0  0  0  0  0  0  0  0
  -26.1046  -16.2763   25.0952 O   0  0  0  0  0  0  0  0  0  0  0  0
  -22.3976  -26.9765   20.9322 O   0  0  0  0  0  0  0  0  0  0  0  0
  -20.5945  -28.8611   17.7245 O   0  0  0  0  0  0  0  0  0  0  0  0
  -24.0862  -27.3603   14.8825 O   0  0  0  0  0  0  0  0  0  0  0  0
  -24.4449  -23.3325   18.4244 O   0  0  0  0  0  0  0  0  0  0  0  0
  -24.2827  -11.1123   19.5634 O   0  0  0  0  0  0  0  0  0  0  0  0
  -28.4700  -26.7651   20.0574 O   0  0  0  0  0  0  0  0  0  1  0  0
  -22.3287   -7.1225   22.8295 F   0  0  0  0  0  0  0  0  0  0  0  0
  -22.0011   -9.7093   18.8790 F   0  0  0  0  0  0  0  0  0  0  0  0
  1  2  1  0  0  0  0
  1  5  2  0  0  0  0
  2  6  2  0  0  0  0
  3  8  2  0  0  0  0
  3 16  1  0  0  0  0
  4  9  1  0  0  0  0
  4 16  2  0  0  0  0
  5 18  1  0  0  0  0
  6 20  1  0  0  0  0
  7 10  2  0  0  0  0
  7 19  1  0  0  0  0
  8 22  1  0  0  0  0
  9 22  2  0  0  0  0
 10 23  1  0  0  0  0
 11 12  2  0  0  0  0
 11 24  1  0  0  0  0
 12 25  1  0  0  0  0
 13 21  1  0  0  0  0
 13 23  2  0  0  0  0
 14 25  2  0  0  0  0
 14 26  1  0  0  0  0
 15 28  1  0  0  0  0
 15 29  2  0  0  0  0
 16 27  1  0  0  0  0
 17 27  1  0  0  0  0
 17 30  2  0  0  0  0
 17 31  1  0  0  0  0
 18 20  2  0  0  0  0
 18 36  1  0  0  0  0
 19 21  2  0  0  0  0
 19 37  1  0  0  0  0
 20 45  1  0  0  0  0
 21 38  1  0  0  0  0
 22 82  1  0  0  0  0
 23 83  1  0  0  0  0
 24 26  2  0  0  0  0
 24 82  1  0  0  0  0
 25 84  1  0  0  0  0
 26 85  1  0  0  0  0
 27 65  2  0  0  0  0
 28 56  1  0  0  0  0
 28 66  2  0  0  0  0
 29 57  1  0  0  0  0
 29 67  1  0  0  0  0
 30 68  1  0  0  0  0
 30 71  1  0  0  0  0
 31 72  1  0  0  0  0
 31 77  2  0  0  0  0
 32 46  1  0  0  0  0
 32 73  1  0  0  0  0
 32 78  2  0  0  0  0
 33 61  1  0  0  0  0
 33 69  1  0  0  0  0
 33 79  2  0  0  0  0
 34 62  1  0  0  0  0
 34 74  1  0  0  0  0
 34 80  2  0  0  0  0
 35 70  1  0  0  0  0
 35 75  1  0  0  0  0
 35 81  2  0  0  0  0
 36 39  1  0  0  0  0
 37 46  1  0  0  0  0
 38 69  1  0  0  0  0
 39 41  1  0  0  0  0
 40 42  1  0  0  0  0
 40 43  1  0  0  0  0
 41 45  1  0  0  0  0
 42 47  1  0  0  0  0
 43 70  1  0  0  0  0
 44 47  1  0  0  0  0
 44 70  1  0  0  0  0
 45 73  1  0  0  0  0
 46 69  1  0  0  0  0
 47 68  1  0  0  0  0
 48 62  1  0  0  0  0
 49 63  1  0  0  0  0
 50 63  1  0  0  0  0
 51 63  1  0  0  0  0
 52 64  1  0  0  0  0
 53 64  1  0  0  0  0
 54 64  1  0  0  0  0
 55 76  1  0  0  0  0
 56 60  1  0  0  0  0
 57 58  1  0  0  0  0
 58 59  1  0  0  0  0
 59 75  1  0  0  0  0
 60 83  1  0  0  0  0
 61 63  1  0  0  0  0
 61 74  1  0  0  0  0
 62 76  1  0  0  0  0
 64 67  1  0  0  0  0
 65 68  1  0  0  0  0
 66 67  1  0  0  0  0
M  CHG  1  76   1
M  ISO  4  35 100  60 101  75 100  83 101
M  END
> <Batch ID>
0045

> <Smiles>
CNC(C)C(=O)NC(C(=O)N1Cc2cc([101O:1][101CH2:1]Cc3cc(CCC[100NH:0][100C:0](=O)N4CCCC(n5nc(-c6ccc(Oc7ccc(F)cc7F)cc6)c(C(N)=O)c5N)C4)n(C(C)(C)C)n3)ccc2CC1C(=O)NC1CCCc2ccccc21)C(C)(C)C

> <Shape>
0.230

> <Color>
0.077

> <Negative vol penalty>
0.000

$$$$

  -OEChem-04052317193D

 83 91  0     1  0  0  0  0  0999 V2000
  -20.2694  -33.6117   24.5847 C   0  0  0  0  0  0  0  0  0  0  0  0
  -21.5591  -33.1915   24.2757 C   0  0  0  0  0  0  0  0  0  0  0  0
  -24.3270  -14.9174   22.6802 C   0  0  0  0  0  0  0  0  0  0  0  0
  -25.2747  -14.0000   20.6560 C   0  0  0  0  0  0  0  0  0  0  0  0
  -19.2273  -32.6864   24.6272 C   0  0  0  0  0  0  0  0  0  0  0  0
  -21.8076  -31.8453   24.0100 C   0  0  0  0  0  0  0  0  0  0  0  0
  -25.8628  -29.5668   20.0264 C   0  0  0  0  0  0  0  0  0  0  0  0
  -23.3600  -13.9122   22.6830 C   0  0  0  0  0  0  0  0  0  0  0  0
  -24.3077  -12.9947   20.6589 C   0  0  0  0  0  0  0  0  0  0  0  0
  -27.1525  -29.0618   20.1861 C   0  0  0  0  0  0  0  0  0  0  0  0
  -23.7627  -10.0697   22.2613 C   0  0  0  0  0  0  0  0  0  0  0  0
  -24.1858   -8.7649   22.0085 C   0  0  0  0  0  0  0  0  0  0  0  0
  -26.2581  -26.8233   20.2775 C   0  0  0  0  0  0  0  0  0  0  0  0
  -22.7347   -8.6682   20.0791 C   0  0  0  0  0  0  0  0  0  0  0  0
  -30.2318  -23.6962   18.0775 C   0  0  0  0  0  0  0  0  0  0  0  0
  -25.2844  -14.9613   21.6666 C   0  0  0  0  0  0  0  0  0  0  0  0
  -27.5511  -15.9620   22.2733 C   0  0  0  0  0  0  0  0  0  0  0  0
  -19.4615  -31.3298   24.3524 C   0  0  0  0  0  0  0  0  0  0  0  0
  -24.7583  -28.7033   20.0019 C   0  0  0  0  0  0  0  0  0  0  0  0
  -20.7680  -30.9008   24.0502 C   0  0  0  0  0  0  0  0  0  0  0  0
  -24.9557  -27.3197   20.1148 C   0  0  0  0  0  0  0  0  0  0  0  0
  -29.7184  -23.9871   16.8300 C   0  0  0  0  0  0  0  0  0  0  0  0
  -23.3504  -12.9508   21.6724 C   0  0  0  0  0  0  0  0  0  0  0  0
  -27.3500  -27.6901   20.3145 C   0  0  0  0  0  0  0  0  0  0  0  0
  -22.8255  -10.6738   21.4231 C   0  0  0  0  0  0  0  0  0  0  0  0
  -23.6718   -8.0641   20.9174 C   0  0  0  0  0  0  0  0  0  0  0  0
  -22.3116   -9.9731   20.3320 C   0  0  0  0  0  0  0  0  0  0  0  0
  -26.2832  -15.9998   21.6628 C   0  0  0  0  0  0  0  0  0  0  0  0
  -29.5934  -25.3291   16.5340 C   0  0  0  0  0  0  0  0  0  0  0  0
  -28.1096  -17.1823   21.9807 C   0  0  0  0  0  0  0  0  0  0  0  0
  -30.4282  -25.9071   18.5677 C   0  0  0  0  0  0  0  0  0  0  0  0
  -28.1689  -14.9173   23.0366 C   0  0  0  0  0  0  0  0  0  0  0  0
  -22.1692  -28.3214   21.8060 C   0  0  0  0  0  0  0  0  0  0  0  0
  -21.3535  -26.1906   19.5003 C   0  0  0  0  0  0  0  0  0  0  0  0
  -22.3648  -24.0888   17.0090 C   0  0  0  0  0  0  0  0  0  0  0  0
  -27.2058  -20.9564   17.5317 C   0  0  0  0  0  0  0  0  0  0  0  0
  -18.3119  -30.3591   24.4569 C   0  0  0  0  0  0  0  0  0  0  0  0
  -23.3760  -29.2617   19.8021 C   0  0  0  0  0  0  0  0  0  0  0  0
  -23.8051  -26.3485   20.0746 C   0  0  0  0  0  0  0  0  0  0  0  0
  -18.5905  -29.0118   23.7954 C   0  0  0  0  0  0  0  0  0  0  0  0
  -26.9130  -21.7233   21.0564 C   0  0  0  0  0  0  0  0  0  0  0  0
  -19.9688  -28.4954   24.1956 C   0  0  0  0  0  0  0  0  0  0  0  0
  -26.8391  -20.3228   21.6672 C   0  0  0  0  0  0  0  0  0  0  0  0
  -26.1660  -21.7870   19.7275 C   0  0  0  0  0  0  0  0  0  0  0  0
  -26.5411  -19.3841   19.3284 C   0  0  0  0  0  0  0  0  0  0  0  0
  -21.0729  -29.4531   23.7317 C   0  0  1  0  0  0  0  0  0  0  0  0
  -22.2771  -28.3318   20.3074 C   0  0  1  0  0  0  0  0  0  0  0  0
  -27.2967  -19.2485   20.6629 C   0  0  2  0  0  0  0  0  0  0  0  0
  -29.2820  -27.2480   14.9504 C   0  0  0  0  0  0  0  0  0  0  0  0
  -21.4723  -22.4521   15.3291 C   0  0  0  0  0  0  0  0  0  0  0  0
  -20.9681  -24.1294   21.7168 C   0  0  0  0  0  0  0  0  0  0  0  0
  -21.0192  -22.3402   19.9663 C   0  0  0  0  0  0  0  0  0  0  0  0
  -19.2247  -24.0724   19.9246 C   0  0  0  0  0  0  0  0  0  0  0  0
  -23.3922  -25.6831   14.7371 C   0  0  0  0  0  0  0  0  0  0  0  0
  -29.3326  -22.9072   15.8864 C   0  0  0  0  0  0  0  0  0  0  0  0
  -29.0497  -25.7629   15.2127 C   0  0  0  0  0  0  0  0  0  0  0  0
  -30.8279  -26.9866   19.5441 C   0  0  0  0  0  0  0  0  0  0  0  0
  -27.8198  -22.6488   15.8240 C   0  0  0  0  0  0  0  0  0  0  0  0
  -29.6744  -27.9285   19.8713 C   0  0  0  0  0  0  0  0  0  1  0  0
  -21.5831  -24.7151   19.2786 C   0  0  1  0  0  0  0  0  0  0  0  0
  -21.8664  -23.8979   15.5878 C   0  0  2  0  0  0  0  0  0  0  0  0
  -20.7205  -23.8324   20.2243 C   0  0  0  0  0  0  0  0  0  0  0  0
  -30.5985  -24.6348   18.9746 N   0  0  0  0  0  0  0  0  0  0  0  0
  -26.0496  -17.1528   21.0303 N   0  0  0  0  0  0  0  0  0  0  0  0
  -29.9397  -26.3194   17.3824 N   0  0  0  0  0  0  0  0  0  0  0  0
  -27.1784  -17.8508   21.2418 N   0  0  0  0  0  0  0  0  0  0  0  0
  -22.4722  -26.9438   19.8837 N   0  0  0  0  0  0  0  0  0  0  0  0
  -26.6618  -20.7510   18.8104 N   0  0  0  0  0  0  0  0  0  0  0  0
  -29.3014  -17.7379   22.2861 N   0  0  0  0  0  0  0  0  0  0  0  0
  -27.4554  -13.7286   23.2421 N   0  0  0  0  0  0  0  0  0  0  0  0
  -21.3233  -29.2878   22.3159 N   0  0  0  0  0  0  0  0  0  0  0  0
  -21.3496  -24.4744   17.8587 N   0  0  0  0  0  0  0  0  0  0  0  0
  -27.2785  -22.2794   17.1130 N   0  0  0  0  0  0  0  0  0  0  0  0
  -22.9264  -24.2780   14.6117 N   0  3  0  0  0  0  0  0  0  0  0  0
  -29.3130  -15.0407   23.5358 O   0  0  0  0  0  0  0  0  0  0  0  0
  -22.8051  -27.4966   22.4518 O   0  0  0  0  0  0  0  0  0  0  0  0
  -20.2247  -26.6589   19.3323 O   0  0  0  0  0  0  0  0  0  0  0  0
  -23.5365  -23.9097   17.3336 O   0  0  0  0  0  0  0  0  0  0  0  0
  -27.6028  -20.0294   16.8174 O   0  0  0  0  0  0  0  0  0  0  0  0
  -22.4071  -11.9696   21.6750 O   0  0  0  0  0  0  0  0  0  0  0  0
  -28.6077  -27.1946   20.4712 O   0  0  0  0  0  0  0  0  0  1  0  0
  -24.0794   -6.8116   20.6738 F   0  0  0  0  0  0  0  0  0  0  0  0
  -21.4119  -10.5486   19.5226 F   0  0  0  0  0  0  0  0  0  0  0  0
  1  2  1  0  0  0  0
  1  5  2  0  0  0  0
  2  6  2  0  0  0  0
  3  8  2  0  0  0  0
  3 16  1  0  0  0  0
  4  9  1  0  0  0  0
  4 16  2  0  0  0  0
  5 18  1  0  0  0  0
  6 20  1  0  0  0  0
  7 10  2  0  0  0  0
  7 19  1  0  0  0  0
  8 23  1  0  0  0  0
  9 23  2  0  0  0  0
 10 24  1  0  0  0  0
 11 12  2  0  0  0  0
 11 25  1  0  0  0  0
 12 26  1  0  0  0  0
 13 21  1  0  0  0  0
 13 24  2  0  0  0  0
 14 26  2  0  0  0  0
 14 27  1  0  0  0  0
 15 22  1  0  0  0  0
 15 63  2  0  0  0  0
 16 28  1  0  0  0  0
 17 28  1  0  0  0  0
 17 30  2  0  0  0  0
 17 32  1  0  0  0  0
 18 20  2  0  0  0  0
 18 37  1  0  0  0  0
 19 21  2  0  0  0  0
 19 38  1  0  0  0  0
 20 46  1  0  0  0  0
 21 39  1  0  0  0  0
 22 29  2  0  0  0  0
 22 55  1  0  0  0  0
 23 80  1  0  0  0  0
 24 81  1  0  0  0  0
 25 27  2  0  0  0  0
 25 80  1  0  0  0  0
 26 82  1  0  0  0  0
 27 83  1  0  0  0  0
 28 64  2  0  0  0  0
 29 56  1  0  0  0  0
 29 65  1  0  0  0  0
 30 66  1  0  0  0  0
 30 69  1  0  0  0  0
 31 57  1  0  0  0  0
 31 63  1  0  0  0  0
 31 65  2  0  0  0  0
 32 70  1  0  0  0  0
 32 75  2  0  0  0  0
 33 47  1  0  0  0  0
 33 71  1  0  0  0  0
 33 76  2  0  0  0  0
 34 60  1  0  0  0  0
 34 67  1  0  0  0  0
 34 77  2  0  0  0  0
 35 61  1  0  0  0  0
 35 72  1  0  0  0  0
 35 78  2  0  0  0  0
 36 68  1  0  0  0  0
 36 73  1  0  0  0  0
 36 79  2  0  0  0  0
 37 40  1  0  0  0  0
 38 47  1  0  0  0  0
 39 67  1  0  0  0  0
 40 42  1  0  0  0  0
 41 43  1  0  0  0  0
 41 44  1  0  0  0  0
 42 46  1  0  0  0  0
 43 48  1  0  0  0  0
 44 68  1  0  0  0  0
 45 48  1  0  0  0  0
 45 68  1  0  0  0  0
 46 71  1  0  0  0  0
 47 67  1  0  0  0  0
 48 66  1  0  0  0  0
 49 56  1  0  0  0  0
 50 61  1  0  0  0  0
 51 62  1  0  0  0  0
 52 62  1  0  0  0  0
 53 62  1  0  0  0  0
 54 74  1  0  0  0  0
 55 58  1  0  0  0  0
 57 59  1  0  0  0  0
 58 73  1  0  0  0  0
 59 81  1  0  0  0  0
 60 62  1  0  0  0  0
 60 72  1  0  0  0  0
 61 74  1  0  0  0  0
 64 66  1  0  0  0  0
M  CHG  1  74   1
M  ISO  4  36 100  59 101  73 100  81 101
M  END
> <Batch ID>
0045

> <Smiles>
CCc1nc(C[101CH2:1][101O:1]c2ccc3c(c2)CN(C(=O)C(NC(=O)C(C)NC)C(C)(C)C)C(C(=O)NC2CCCc4ccccc42)C3)ncc1CC[100NH:0][100C:0](=O)N1CCCC(n2nc(-c3ccc(Oc4ccc(F)cc4F)cc3)c(C(N)=O)c2N)C1

> <Shape>
0.228

> <Color>
0.079

> <Negative vol penalty>
0.000

$$$$

  -OEChem-04052317193D

 81 89  0     1  0  0  0  0  0999 V2000
  -28.1677  -33.2823   26.8362 C   0  0  0  0  0  0  0  0  0  0  0  0
  -28.2900  -32.1487   26.0391 C   0  0  0  0  0  0  0  0  0  0  0  0
  -26.2720  -14.6380   20.9282 C   0  0  0  0  0  0  0  0  0  0  0  0
  -26.9538  -14.1501   18.6623 C   0  0  0  0  0  0  0  0  0  0  0  0
  -26.9034  -33.7473   27.1957 C   0  0  0  0  0  0  0  0  0  0  0  0
  -27.1479  -31.4786   25.6020 C   0  0  0  0  0  0  0  0  0  0  0  0
  -27.3864  -30.2260   20.7011 C   0  0  0  0  0  0  0  0  0  0  0  0
  -26.0710  -13.2775   21.1607 C   0  0  0  0  0  0  0  0  0  0  0  0
  -26.7528  -12.7895   18.8949 C   0  0  0  0  0  0  0  0  0  0  0  0
  -28.1583  -29.1147   20.3648 C   0  0  0  0  0  0  0  0  0  0  0  0
  -27.9652  -10.5597   21.8382 C   0  0  0  0  0  0  0  0  0  0  0  0
  -28.4555  -10.0264   23.0301 C   0  0  0  0  0  0  0  0  0  0  0  0
  -26.1577  -27.7736   20.2295 C   0  0  0  0  0  0  0  0  0  0  0  0
  -26.2172   -9.3661   23.6555 C   0  0  0  0  0  0  0  0  0  0  0  0
  -26.7134  -15.0744   19.6789 C   0  0  0  0  0  0  0  0  0  0  0  0
  -28.1072  -17.2105   19.6374 C   0  0  0  0  0  0  0  0  0  0  0  0
  -25.7451  -33.0882   26.7549 C   0  0  0  0  0  0  0  0  0  0  0  0
  -25.9931  -30.1166   20.8150 C   0  0  0  0  0  0  0  0  0  0  0  0
  -25.8669  -31.9344   25.9571 C   0  0  0  0  0  0  0  0  0  0  0  0
  -25.3702  -28.8855   20.5649 C   0  0  0  0  0  0  0  0  0  0  0  0
  -26.3114  -12.3532   20.1441 C   0  0  0  0  0  0  0  0  0  0  0  0
  -27.5443  -27.8876   20.1318 C   0  0  0  0  0  0  0  0  0  0  0  0
  -26.6008  -10.4963   21.5549 C   0  0  0  0  0  0  0  0  0  0  0  0
  -27.5816   -9.4296   23.9388 C   0  0  0  0  0  0  0  0  0  0  0  0
  -25.7269   -9.8994   22.4635 C   0  0  0  0  0  0  0  0  0  0  0  0
  -26.9206  -16.4797   19.4379 C   0  0  0  0  0  0  0  0  0  0  0  0
  -27.1100  -25.5823   15.9269 C   0  0  0  0  0  0  0  0  0  0  0  0
  -27.6949  -24.3592   15.6978 C   0  0  0  0  0  0  0  0  0  0  0  0
  -27.7874  -18.4930   19.2641 C   0  0  0  0  0  0  0  0  0  0  0  0
  -28.7977  -25.5073   17.2216 C   0  0  0  0  0  0  0  0  0  0  0  0
  -29.3843  -16.7694   20.1171 C   0  0  0  0  0  0  0  0  0  0  0  0
  -23.8965  -30.5196   23.1699 C   0  0  0  0  0  0  0  0  0  0  0  0
  -21.7325  -30.0431   20.8008 C   0  0  0  0  0  0  0  0  0  0  0  0
  -21.0408  -28.7206   17.7317 C   0  0  0  0  0  0  0  0  0  0  0  0
  -25.3689  -22.0740   15.7324 C   0  0  0  0  0  0  0  0  0  0  0  0
  -24.4011  -33.6007   27.2085 C   0  0  0  0  0  0  0  0  0  0  0  0
  -25.1721  -31.3310   21.1525 C   0  0  0  0  0  0  0  0  0  0  0  0
  -23.8758  -28.7202   20.6543 C   0  0  0  0  0  0  0  0  0  0  0  0
  -23.2330  -33.0508   26.3940 C   0  0  0  0  0  0  0  0  0  0  0  0
  -23.3066  -20.6016   18.2335 C   0  0  0  0  0  0  0  0  0  0  0  0
  -23.3716  -31.5425   26.2130 C   0  0  0  0  0  0  0  0  0  0  0  0
  -24.1581  -19.4551   18.7815 C   0  0  0  0  0  0  0  0  0  0  0  0
  -23.5047  -20.7834   16.7303 C   0  0  0  0  0  0  0  0  0  0  0  0
  -25.7596  -19.7964   16.8534 C   0  0  0  0  0  0  0  0  0  0  0  0
  -24.6511  -31.1946   25.4428 C   0  0  1  0  0  0  0  0  0  0  0  0
  -23.8091  -30.9852   21.7440 C   0  0  1  0  0  0  0  0  0  0  0  0
  -25.6360  -19.6106   18.3754 C   0  0  2  0  0  0  0  0  0  0  0  0
  -25.9087  -26.1542   15.2981 C   0  0  0  0  0  0  0  0  0  0  0  0
  -19.1746  -28.4592   16.0746 C   0  0  0  0  0  0  0  0  0  0  0  0
  -20.5019  -27.8553   22.5355 C   0  0  0  0  0  0  0  0  0  0  0  0
  -19.3027  -27.0161   20.5043 C   0  0  0  0  0  0  0  0  0  0  0  0
  -18.8428  -29.3130   21.3620 C   0  0  0  0  0  0  0  0  0  0  0  0
  -29.7177  -23.2385   16.6683 C   0  0  0  0  0  0  0  0  0  0  0  0
  -22.5155  -30.2314   15.6576 C   0  0  0  0  0  0  0  0  0  0  0  0
  -27.3389  -23.2535   14.7905 C   0  0  0  0  0  0  0  0  0  0  0  0
  -29.8599  -25.8212   18.2471 C   0  0  0  0  0  0  0  0  0  0  0  0
  -29.5083  -27.0412   19.0914 C   0  0  0  0  0  0  0  0  0  1  0  0
  -21.0425  -28.8375   20.2098 C   0  0  1  0  0  0  0  0  0  0  0  0
  -20.3565  -29.3104   16.5117 C   0  0  2  0  0  0  0  0  0  0  0  0
  -19.9508  -28.2578   21.1530 C   0  0  0  0  0  0  0  0  0  0  0  0
  -25.9216  -17.2352   18.9741 N   0  0  0  0  0  0  0  0  0  0  0  0
  -27.8014  -26.2923   16.8763 N   0  0  0  0  0  0  0  0  0  0  0  0
  -28.7751  -24.3258   16.5340 N   0  0  0  0  0  0  0  0  0  0  0  0
  -26.4796  -18.4541   18.8791 N   0  0  0  0  0  0  0  0  0  0  0  0
  -23.1171  -29.9354   20.9936 N   0  0  0  0  0  0  0  0  0  0  0  0
  -24.9275  -20.9268   16.4122 N   0  0  0  0  0  0  0  0  0  0  0  0
  -28.5002  -19.6390   19.2310 N   0  0  0  0  0  0  0  0  0  0  0  0
  -29.5406  -15.4184   20.4558 N   0  0  0  0  0  0  0  0  0  0  0  0
  -24.4711  -31.4381   24.0276 N   0  0  0  0  0  0  0  0  0  0  0  0
  -20.5440  -29.2523   18.9029 N   0  0  0  0  0  0  0  0  0  0  0  0
  -26.7332  -22.1335   15.4759 N   0  0  0  0  0  0  0  0  0  0  0  0
  -21.3151  -29.4032   15.3744 N   0  3  0  0  0  0  0  0  0  0  0  0
  -30.3534  -17.5535   20.2572 O   0  0  0  0  0  0  0  0  0  0  0  0
  -23.4725  -29.4097   23.4701 O   0  0  0  0  0  0  0  0  0  0  0  0
  -21.0687  -31.0461   21.0745 O   0  0  0  0  0  0  0  0  0  0  0  0
  -21.9248  -27.8703   17.6537 O   0  0  0  0  0  0  0  0  0  0  0  0
  -24.6046  -22.9806   15.3848 O   0  0  0  0  0  0  0  0  0  0  0  0
  -26.1157  -11.0255   20.3707 O   0  0  0  0  0  0  0  0  0  0  0  0
  -28.2954  -26.8012   19.8040 O   0  0  0  0  0  0  0  0  0  1  0  0
  -28.0528   -8.9161   25.0826 F   0  0  0  0  0  0  0  0  0  0  0  0
  -24.4153   -9.8344   22.1963 F   0  0  0  0  0  0  0  0  0  0  0  0
  1  2  1  0  0  0  0
  1  5  2  0  0  0  0
  2  6  2  0  0  0  0
  3  8  2  0  0  0  0
  3 15  1  0  0  0  0
  4  9  1  0  0  0  0
  4 15  2  0  0  0  0
  5 17  1  0  0  0  0
  6 19  1  0  0  0  0
  7 10  2  0  0  0  0
  7 18  1  0  0  0  0
  8 21  1  0  0  0  0
  9 21  2  0  0  0  0
 10 22  1  0  0  0  0
 11 12  2  0  0  0  0
 11 23  1  0  0  0  0
 12 24  1  0  0  0  0
 13 20  1  0  0  0  0
 13 22  2  0  0  0  0
 14 24  2  0  0  0  0
 14 25  1  0  0  0  0
 15 26  1  0  0  0  0
 16 26  1  0  0  0  0
 16 29  2  0  0  0  0
 16 31  1  0  0  0  0
 17 19  2  0  0  0  0
 17 36  1  0  0  0  0
 18 20  2  0  0  0  0
 18 37  1  0  0  0  0
 19 45  1  0  0  0  0
 20 38  1  0  0  0  0
 21 78  1  0  0  0  0
 22 79  1  0  0  0  0
 23 25  2  0  0  0  0
 23 78  1  0  0  0  0
 24 80  1  0  0  0  0
 25 81  1  0  0  0  0
 26 61  2  0  0  0  0
 27 28  2  0  0  0  0
 27 48  1  0  0  0  0
 27 62  1  0  0  0  0
 28 55  1  0  0  0  0
 28 63  1  0  0  0  0
 29 64  1  0  0  0  0
 29 67  1  0  0  0  0
 30 56  1  0  0  0  0
 30 62  2  0  0  0  0
 30 63  1  0  0  0  0
 31 68  1  0  0  0  0
 31 73  2  0  0  0  0
 32 46  1  0  0  0  0
 32 69  1  0  0  0  0
 32 74  2  0  0  0  0
 33 58  1  0  0  0  0
 33 65  1  0  0  0  0
 33 75  2  0  0  0  0
 34 59  1  0  0  0  0
 34 70  1  0  0  0  0
 34 76  2  0  0  0  0
 35 66  1  0  0  0  0
 35 71  1  0  0  0  0
 35 77  2  0  0  0  0
 36 39  1  0  0  0  0
 37 46  1  0  0  0  0
 38 65  1  0  0  0  0
 39 41  1  0  0  0  0
 40 42  1  0  0  0  0
 40 43  1  0  0  0  0
 41 45  1  0  0  0  0
 42 47  1  0  0  0  0
 43 66  1  0  0  0  0
 44 47  1  0  0  0  0
 44 66  1  0  0  0  0
 45 69  1  0  0  0  0
 46 65  1  0  0  0  0
 47 64  1  0  0  0  0
 49 59  1  0  0  0  0
 50 60  1  0  0  0  0
 51 60  1  0  0  0  0
 52 60  1  0  0  0  0
 53 63  1  0  0  0  0
 54 72  1  0  0  0  0
 55 71  1  0  0  0  0
 56 57  1  0  0  0  0
 57 79  1  0  0  0  0
 58 60  1  0  0  0  0
 58 70  1  0  0  0  0
 59 72  1  0  0  0  0
 61 64  1  0  0  0  0
M  CHG  1  72   1
M  ISO  4  35 100  57 101  71 100  79 101
M  END
> <Batch ID>
0045

> <Smiles>
CNC(C)C(=O)NC(C(=O)N1Cc2cc([101O:1][101CH2:1]Cc3nc(C)c(C[100NH:0][100C:0](=O)N4CCCC(n5nc(-c6ccc(Oc7ccc(F)cc7F)cc6)c(C(N)=O)c5N)C4)n3C)ccc2CC1C(=O)NC1CCCc2ccccc21)C(C)(C)C

> <Shape>
0.238

> <Color>
0.089

> <Negative vol penalty>
0.000

$$$$

  -OEChem-04052317193D

 83 91  0     1  0  0  0  0  0999 V2000
  -22.4980   -8.2167   20.6016 C   0  0  0  0  0  0  0  0  0  0  0  0
  -22.2408   -9.4899   20.1033 C   0  0  0  0  0  0  0  0  0  0  0  0
  -27.6073  -29.6370   19.2013 C   0  0  0  0  0  0  0  0  0  0  0  0
  -26.7776  -29.0170   21.3840 C   0  0  0  0  0  0  0  0  0  0  0  0
  -23.4519   -8.0408   21.6032 C   0  0  0  0  0  0  0  0  0  0  0  0
  -22.9366  -10.5882   20.6073 C   0  0  0  0  0  0  0  0  0  0  0  0
  -24.7142  -15.5598   17.5042 C   0  0  0  0  0  0  0  0  0  0  0  0
  -26.6400  -30.6385   19.1180 C   0  0  0  0  0  0  0  0  0  0  0  0
  -25.8103  -30.0186   21.3008 C   0  0  0  0  0  0  0  0  0  0  0  0
  -24.1653  -16.8355   17.3825 C   0  0  0  0  0  0  0  0  0  0  0  0
  -25.6571  -33.3707   21.7013 C   0  0  0  0  0  0  0  0  0  0  0  0
  -25.4628  -34.1767   22.8230 C   0  0  0  0  0  0  0  0  0  0  0  0
  -25.6292  -17.6256   19.1294 C   0  0  0  0  0  0  0  0  0  0  0  0
  -23.1601  -33.4552   22.9425 C   0  0  0  0  0  0  0  0  0  0  0  0
  -21.3125  -20.4663   22.1639 C   0  0  0  0  0  0  0  0  0  0  0  0
  -27.6760  -28.8262   20.3342 C   0  0  0  0  0  0  0  0  0  0  0  0
  -29.9749  -27.9062   20.9477 C   0  0  0  0  0  0  0  0  0  0  0  0
  -24.1665   -9.1363   22.1129 C   0  0  0  0  0  0  0  0  0  0  0  0
  -25.7189  -15.3043   18.4486 C   0  0  0  0  0  0  0  0  0  0  0  0
  -23.8999  -10.4271   21.6176 C   0  0  0  0  0  0  0  0  0  0  0  0
  -26.1911  -16.3463   19.2594 C   0  0  0  0  0  0  0  0  0  0  0  0
  -22.5047  -21.0534   21.6993 C   0  0  0  0  0  0  0  0  0  0  0  0
  -25.7415  -30.8293   20.1677 C   0  0  0  0  0  0  0  0  0  0  0  0
  -24.6207  -17.8680   18.1971 C   0  0  0  0  0  0  0  0  0  0  0  0
  -24.6029  -32.6070   21.2002 C   0  0  0  0  0  0  0  0  0  0  0  0
  -24.2143  -34.2189   23.4436 C   0  0  0  0  0  0  0  0  0  0  0  0
  -23.3545  -32.6492   21.8208 C   0  0  0  0  0  0  0  0  0  0  0  0
  -28.6747  -27.7911   20.4206 C   0  0  0  0  0  0  0  0  0  0  0  0
  -23.4159  -20.8179   22.6997 C   0  0  0  0  0  0  0  0  0  0  0  0
  -30.5178  -26.6533   20.7991 C   0  0  0  0  0  0  0  0  0  0  0  0
  -30.6331  -29.0438   21.5206 C   0  0  0  0  0  0  0  0  0  0  0  0
  -25.9776  -13.4183   20.9941 C   0  0  0  0  0  0  0  0  0  0  0  0
  -29.0470  -14.4675   20.9747 C   0  0  0  0  0  0  0  0  0  0  0  0
  -31.2775  -16.8824   20.0584 C   0  0  0  0  0  0  0  0  0  0  0  0
  -28.1069  -21.1887   20.3784 C   0  0  0  0  0  0  0  0  0  0  0  0
  -25.1542   -8.9031   23.2285 C   0  0  0  0  0  0  0  0  0  0  0  0
  -26.3195  -13.9290   18.5490 C   0  0  0  0  0  0  0  0  0  0  0  0
  -27.2820  -16.1289   20.2749 C   0  0  0  0  0  0  0  0  0  0  0  0
  -26.1151  -10.0693   23.4450 C   0  0  0  0  0  0  0  0  0  0  0  0
  -30.2598  -22.7660   18.0218 C   0  0  0  0  0  0  0  0  0  0  0  0
  -25.3548  -11.3916   23.4612 C   0  0  0  0  0  0  0  0  0  0  0  0
  -30.2150  -24.2431   18.4169 C   0  0  0  0  0  0  0  0  0  0  0  0
  -28.9042  -22.0894   18.2129 C   0  0  0  0  0  0  0  0  0  0  0  0
  -28.2769  -23.7162   19.9547 C   0  0  0  0  0  0  0  0  0  0  0  0
  -24.6516  -11.6401   22.1213 C   0  0  1  0  0  0  0  0  0  0  0  0
  -26.9774  -13.6614   19.8991 C   0  0  1  0  0  0  0  0  0  0  0  0
  -29.6352  -24.4277   19.8322 C   0  0  2  0  0  0  0  0  0  0  0  0
  -33.7098  -17.4795   20.2163 C   0  0  0  0  0  0  0  0  0  0  0  0
  -28.6555  -15.2809   23.8894 C   0  0  0  0  0  0  0  0  0  0  0  0
  -30.7160  -16.6904   23.7001 C   0  0  0  0  0  0  0  0  0  0  0  0
  -30.8644  -14.2196   23.3901 C   0  0  0  0  0  0  0  0  0  0  0  0
  -23.2691  -19.6530   24.9215 C   0  0  0  0  0  0  0  0  0  0  0  0
  -31.5932  -16.8605   17.1158 C   0  0  0  0  0  0  0  0  0  0  0  0
  -22.7256  -21.7771   20.3951 C   0  0  0  0  0  0  0  0  0  0  0  0
  -24.8411  -21.1781   22.8231 C   0  0  0  0  0  0  0  0  0  0  0  0
  -22.8477  -20.8458   19.1870 C   0  0  0  0  0  0  0  0  0  0  0  0
  -25.8349  -20.0327   22.5104 C   0  0  0  0  0  0  0  0  0  0  0  0
  -27.3038  -20.4398   22.6041 C   0  0  0  0  0  0  0  0  0  0  0  0
  -24.0571  -19.9208   19.2576 C   0  0  0  0  0  0  0  0  0  1  0  0
  -29.7828  -15.6315   21.5932 C   0  0  1  0  0  0  0  0  0  0  0  0
  -32.6353  -16.7962   19.3849 C   0  0  2  0  0  0  0  0  0  0  0  0
  -29.9828  -15.4596   23.1255 C   0  0  0  0  0  0  0  0  0  0  0  0
  -21.4507  -19.9003   23.3658 N   0  0  0  0  0  0  0  0  0  0  0  0
  -28.4076  -26.5622   19.9706 N   0  0  0  0  0  0  0  0  0  0  0  0
  -22.7405  -20.1305   23.6648 N   0  0  0  0  0  0  0  0  0  0  0  0
  -29.5476  -25.8937   20.2145 N   0  0  0  0  0  0  0  0  0  0  0  0
  -27.8330  -14.7652   20.3396 N   0  0  0  0  0  0  0  0  0  0  0  0
  -28.4109  -22.3007   19.5760 N   0  0  0  0  0  0  0  0  0  0  0  0
  -31.7256  -26.1384   21.1128 N   0  0  0  0  0  0  0  0  0  0  0  0
  -29.9305  -30.2542   21.5965 N   0  0  0  0  0  0  0  0  0  0  0  0
  -25.6015  -12.0955   21.1289 N   0  0  0  0  0  0  0  0  0  0  0  0
  -31.0245  -15.7757   20.8410 N   0  0  0  0  0  0  0  0  0  0  0  0
  -27.6513  -21.4775   21.6590 N   0  0  0  0  0  0  0  0  0  0  0  0
  -32.5915  -17.4485   18.0457 N   0  3  0  0  0  0  0  0  0  0  0  0
  -31.8152  -28.9930   21.9374 O   0  0  0  0  0  0  0  0  0  0  0  0
  -25.5781  -14.3608   21.6677 O   0  0  0  0  0  0  0  0  0  0  0  0
  -29.5350  -13.3368   21.0461 O   0  0  0  0  0  0  0  0  0  0  0  0
  -30.5190  -17.8377   19.9085 O   0  0  0  0  0  0  0  0  0  0  0  0
  -28.2372  -20.0246   19.9849 O   0  0  0  0  0  0  0  0  0  0  0  0
  -24.7977  -31.8067   20.0869 O   0  0  0  0  0  0  0  0  0  0  0  0
  -24.0861  -19.1140   18.0808 O   0  0  0  0  0  0  0  0  0  1  0  0
  -24.0283  -34.9918   24.5217 F   0  0  0  0  0  0  0  0  0  0  0  0
  -22.3382  -31.9168   21.3446 F   0  0  0  0  0  0  0  0  0  0  0  0
  1  2  1  0  0  0  0
  1  5  2  0  0  0  0
  2  6  2  0  0  0  0
  3  8  2  0  0  0  0
  3 16  1  0  0  0  0
  4  9  1  0  0  0  0
  4 16  2  0  0  0  0
  5 18  1  0  0  0  0
  6 20  1  0  0  0  0
  7 10  2  0  0  0  0
  7 19  1  0  0  0  0
  8 23  1  0  0  0  0
  9 23  2  0  0  0  0
 10 24  1  0  0  0  0
 11 12  2  0  0  0  0
 11 25  1  0  0  0  0
 12 26  1  0  0  0  0
 13 21  1  0  0  0  0
 13 24  2  0  0  0  0
 14 26  2  0  0  0  0
 14 27  1  0  0  0  0
 15 22  1  0  0  0  0
 15 63  2  0  0  0  0
 16 28  1  0  0  0  0
 17 28  1  0  0  0  0
 17 30  2  0  0  0  0
 17 31  1  0  0  0  0
 18 20  2  0  0  0  0
 18 36  1  0  0  0  0
 19 21  2  0  0  0  0
 19 37  1  0  0  0  0
 20 45  1  0  0  0  0
 21 38  1  0  0  0  0
 22 29  2  0  0  0  0
 22 54  1  0  0  0  0
 23 80  1  0  0  0  0
 24 81  1  0  0  0  0
 25 27  2  0  0  0  0
 25 80  1  0  0  0  0
 26 82  1  0  0  0  0
 27 83  1  0  0  0  0
 28 64  2  0  0  0  0
 29 55  1  0  0  0  0
 29 65  1  0  0  0  0
 30 66  1  0  0  0  0
 30 69  1  0  0  0  0
 31 70  1  0  0  0  0
 31 75  2  0  0  0  0
 32 46  1  0  0  0  0
 32 71  1  0  0  0  0
 32 76  2  0  0  0  0
 33 60  1  0  0  0  0
 33 67  1  0  0  0  0
 33 77  2  0  0  0  0
 34 61  1  0  0  0  0
 34 72  1  0  0  0  0
 34 78  2  0  0  0  0
 35 68  1  0  0  0  0
 35 73  1  0  0  0  0
 35 79  2  0  0  0  0
 36 39  1  0  0  0  0
 37 46  1  0  0  0  0
 38 67  1  0  0  0  0
 39 41  1  0  0  0  0
 40 42  1  0  0  0  0
 40 43  1  0  0  0  0
 41 45  1  0  0  0  0
 42 47  1  0  0  0  0
 43 68  1  0  0  0  0
 44 47  1  0  0  0  0
 44 68  1  0  0  0  0
 45 71  1  0  0  0  0
 46 67  1  0  0  0  0
 47 66  1  0  0  0  0
 48 61  1  0  0  0  0
 49 62  1  0  0  0  0
 50 62  1  0  0  0  0
 51 62  1  0  0  0  0
 52 65  1  0  0  0  0
 53 74  1  0  0  0  0
 54 56  1  0  0  0  0
 55 57  1  0  0  0  0
 56 59  1  0  0  0  0
 57 58  1  0  0  0  0
 58 73  1  0  0  0  0
 59 81  1  0  0  0  0
 60 62  1  0  0  0  0
 60 72  1  0  0  0  0
 61 74  1  0  0  0  0
 63 65  1  0  0  0  0
 64 66  1  0  0  0  0
M  CHG  1  74   1
M  ISO  4  35 100  59 101  73 100  81 101
M  END
> <Batch ID>
0045

> <Smiles>
CNC(C)C(=O)NC(C(=O)N1Cc2cc([101O:1][101CH2:1]CCc3cnn(C)c3CCC[100NH:0][100C:0](=O)N3CCCC(n4nc(-c5ccc(Oc6ccc(F)cc6F)cc5)c(C(N)=O)c4N)C3)ccc2CC1C(=O)NC1CCCc2ccccc21)C(C)(C)C

> <Shape>
0.242

> <Color>
0.064

> <Negative vol penalty>
0.000

$$$$

  -OEChem-04052317193D

 83 91  0     1  0  0  0  0  0999 V2000
  -16.8673  -28.5157   24.0961 C   0  0  0  0  0  0  0  0  0  0  0  0
  -17.6284  -27.6219   23.3498 C   0  0  0  0  0  0  0  0  0  0  0  0
  -26.5919  -12.6158   20.3891 C   0  0  0  0  0  0  0  0  0  0  0  0
  -24.9660  -14.3938   20.2096 C   0  0  0  0  0  0  0  0  0  0  0  0
  -17.1705  -29.8764   24.0730 C   0  0  0  0  0  0  0  0  0  0  0  0
  -18.6927  -28.0884   22.5789 C   0  0  0  0  0  0  0  0  0  0  0  0
  -22.8428  -25.2270   23.0625 C   0  0  0  0  0  0  0  0  0  0  0  0
  -25.5773  -11.6719   20.2305 C   0  0  0  0  0  0  0  0  0  0  0  0
  -23.9514  -13.4499   20.0509 C   0  0  0  0  0  0  0  0  0  0  0  0
  -22.8714  -24.0229   22.3603 C   0  0  0  0  0  0  0  0  0  0  0  0
  -23.3648   -8.7860   20.2324 C   0  0  0  0  0  0  0  0  0  0  0  0
  -23.3629   -7.6837   21.0872 C   0  0  0  0  0  0  0  0  0  0  0  0
  -24.2316  -25.0557   20.6567 C   0  0  0  0  0  0  0  0  0  0  0  0
  -23.1621   -9.1594   22.9896 C   0  0  0  0  0  0  0  0  0  0  0  0
  -26.2863  -13.9768   20.3787 C   0  0  0  0  0  0  0  0  0  0  0  0
  -28.1028  -15.5532   19.5285 C   0  0  0  0  0  0  0  0  0  0  0  0
  -18.2450  -30.3586   23.3090 C   0  0  0  0  0  0  0  0  0  0  0  0
  -23.5004  -26.3594   22.5608 C   0  0  0  0  0  0  0  0  0  0  0  0
  -19.0097  -29.4570   22.5444 C   0  0  0  0  0  0  0  0  0  0  0  0
  -24.2120  -26.2723   21.3557 C   0  0  0  0  0  0  0  0  0  0  0  0
  -26.4689  -20.6403   21.6805 C   0  0  0  0  0  0  0  0  0  0  0  0
  -24.2570  -12.0890   20.0614 C   0  0  0  0  0  0  0  0  0  0  0  0
  -23.5634  -23.9379   21.1557 C   0  0  0  0  0  0  0  0  0  0  0  0
  -23.2655  -10.0750   20.7562 C   0  0  0  0  0  0  0  0  0  0  0  0
  -23.2616   -7.8704   22.4658 C   0  0  0  0  0  0  0  0  0  0  0  0
  -23.1641  -10.2616   22.1348 C   0  0  0  0  0  0  0  0  0  0  0  0
  -27.3339  -14.9523   20.5432 C   0  0  0  0  0  0  0  0  0  0  0  0
  -25.2629  -20.4470   21.0383 C   0  0  0  0  0  0  0  0  0  0  0  0
  -26.5699  -20.0866   22.9404 C   0  0  0  0  0  0  0  0  0  0  0  0
  -28.9530  -16.3993   20.1976 C   0  0  0  0  0  0  0  0  0  0  0  0
  -24.4505  -19.2756   22.8089 C   0  0  0  0  0  0  0  0  0  0  0  0
  -28.0529  -15.3635   18.1082 C   0  0  0  0  0  0  0  0  0  0  0  0
  -22.5832  -29.2560   21.6267 C   0  0  0  0  0  0  0  0  0  0  0  0
  -25.7778  -29.7617   21.3796 C   0  0  0  0  0  0  0  0  0  0  0  0
  -28.8975  -28.4394   20.9716 C   0  0  0  0  0  0  0  0  0  0  0  0
  -28.2922  -18.8260   25.7844 C   0  0  0  0  0  0  0  0  0  0  0  0
  -18.5050  -31.8439   23.2784 C   0  0  0  0  0  0  0  0  0  0  0  0
  -23.4824  -27.6436   23.3437 C   0  0  0  0  0  0  0  0  0  0  0  0
  -24.9513  -27.4535   20.7842 C   0  0  0  0  0  0  0  0  0  0  0  0
  -19.8819  -32.2100   22.7304 C   0  0  0  0  0  0  0  0  0  0  0  0
  -31.1669  -16.9524   24.3961 C   0  0  0  0  0  0  0  0  0  0  0  0
  -20.1714  -31.4318   21.4508 C   0  0  0  0  0  0  0  0  0  0  0  0
  -30.5460  -16.2242   23.2052 C   0  0  0  0  0  0  0  0  0  0  0  0
  -30.1425  -17.2185   25.4950 C   0  0  0  0  0  0  0  0  0  0  0  0
  -28.3099  -17.2159   23.8350 C   0  0  0  0  0  0  0  0  0  0  0  0
  -20.1874  -29.9214   21.7153 C   0  0  1  0  0  0  0  0  0  0  0  0
  -23.7573  -28.8724   22.4823 C   0  0  1  0  0  0  0  0  0  0  0  0
  -29.3050  -16.9737   22.6902 C   0  0  2  0  0  0  0  0  0  0  0  0
  -27.5875  -21.3949   21.0542 C   0  0  0  0  0  0  0  0  0  0  0  0
  -23.3306  -18.5153   23.4344 C   0  0  0  0  0  0  0  0  0  0  0  0
  -31.3086  -29.1055   20.7715 C   0  0  0  0  0  0  0  0  0  0  0  0
  -25.2844  -30.6772   18.5111 C   0  0  0  0  0  0  0  0  0  0  0  0
  -27.7365  -30.4142   18.0792 C   0  0  0  0  0  0  0  0  0  0  0  0
  -26.9403  -32.0593   19.7770 C   0  0  0  0  0  0  0  0  0  0  0  0
  -26.9475  -20.8867   25.9419 C   0  0  0  0  0  0  0  0  0  0  0  0
  -29.6406  -26.9129   23.3957 C   0  0  0  0  0  0  0  0  0  0  0  0
  -25.0354  -21.0065   19.6550 C   0  0  0  0  0  0  0  0  0  0  0  0
  -27.8276  -20.2317   23.7324 C   0  0  0  0  0  0  0  0  0  0  0  0
  -24.7500  -22.5042   19.6751 C   0  0  0  0  0  0  0  0  0  1  0  0
  -26.8067  -29.5870   20.2887 C   0  0  1  0  0  0  0  0  0  0  0  0
  -30.1978  -28.6773   21.7178 C   0  0  2  0  0  0  0  0  0  0  0  0
  -26.6765  -30.6625   19.1735 C   0  0  0  0  0  0  0  0  0  0  0  0
  -27.6664  -15.3802   21.7640 N   0  0  0  0  0  0  0  0  0  0  0  0
  -24.2284  -19.7672   21.5750 N   0  0  0  0  0  0  0  0  0  0  0  0
  -25.5768  -19.3955   23.5374 N   0  0  0  0  0  0  0  0  0  0  0  0
  -28.6536  -16.2590   21.5207 N   0  0  0  0  0  0  0  0  0  0  0  0
  -24.8987  -28.6887   21.5836 N   0  0  0  0  0  0  0  0  0  0  0  0
  -28.9548  -17.8930   24.9700 N   0  0  0  0  0  0  0  0  0  0  0  0
  -29.9201  -17.2422   19.7772 N   0  0  0  0  0  0  0  0  0  0  0  0
  -27.1197  -14.4566   17.5876 N   0  0  0  0  0  0  0  0  0  0  0  0
  -21.4327  -29.5310   22.3409 N   0  0  0  0  0  0  0  0  0  0  0  0
  -28.1059  -29.5683   20.9521 N   0  0  0  0  0  0  0  0  0  0  0  0
  -27.6388  -19.8873   25.1399 N   0  0  0  0  0  0  0  0  0  0  0  0
  -30.6291  -27.4336   22.4165 N   0  3  0  0  0  0  0  0  0  0  0  0
  -28.8245  -15.9678   17.3252 O   0  0  0  0  0  0  0  0  0  0  0  0
  -22.7121  -29.3006   20.4089 O   0  0  0  0  0  0  0  0  0  0  0  0
  -25.7596  -30.8087   22.0316 O   0  0  0  0  0  0  0  0  0  0  0  0
  -28.6140  -27.3613   20.4542 O   0  0  0  0  0  0  0  0  0  0  0  0
  -28.2932  -18.7220   27.0177 O   0  0  0  0  0  0  0  0  0  0  0  0
  -23.2667  -11.1682   19.9063 O   0  0  0  0  0  0  0  0  0  0  0  0
  -23.5924  -22.7640   20.4680 O   0  0  0  0  0  0  0  0  0  1  0  0
  -23.2582   -6.8117   23.2864 F   0  0  0  0  0  0  0  0  0  0  0  0
  -23.0671  -11.4975   22.6439 F   0  0  0  0  0  0  0  0  0  0  0  0
  1  2  1  0  0  0  0
  1  5  2  0  0  0  0
  2  6  2  0  0  0  0
  3  8  2  0  0  0  0
  3 15  1  0  0  0  0
  4  9  1  0  0  0  0
  4 15  2  0  0  0  0
  5 17  1  0  0  0  0
  6 19  1  0  0  0  0
  7 10  2  0  0  0  0
  7 18  1  0  0  0  0
  8 22  1  0  0  0  0
  9 22  2  0  0  0  0
 10 23  1  0  0  0  0
 11 12  2  0  0  0  0
 11 24  1  0  0  0  0
 12 25  1  0  0  0  0
 13 20  1  0  0  0  0
 13 23  2  0  0  0  0
 14 25  2  0  0  0  0
 14 26  1  0  0  0  0
 15 27  1  0  0  0  0
 16 27  1  0  0  0  0
 16 30  2  0  0  0  0
 16 32  1  0  0  0  0
 17 19  2  0  0  0  0
 17 37  1  0  0  0  0
 18 20  2  0  0  0  0
 18 38  1  0  0  0  0
 19 46  1  0  0  0  0
 20 39  1  0  0  0  0
 21 28  2  0  0  0  0
 21 29  1  0  0  0  0
 21 49  1  0  0  0  0
 22 80  1  0  0  0  0
 23 81  1  0  0  0  0
 24 26  2  0  0  0  0
 24 80  1  0  0  0  0
 25 82  1  0  0  0  0
 26 83  1  0  0  0  0
 27 63  2  0  0  0  0
 28 57  1  0  0  0  0
 28 64  1  0  0  0  0
 29 58  1  0  0  0  0
 29 65  2  0  0  0  0
 30 66  1  0  0  0  0
 30 69  1  0  0  0  0
 31 50  1  0  0  0  0
 31 64  2  0  0  0  0
 31 65  1  0  0  0  0
 32 70  1  0  0  0  0
 32 75  2  0  0  0  0
 33 47  1  0  0  0  0
 33 71  1  0  0  0  0
 33 76  2  0  0  0  0
 34 60  1  0  0  0  0
 34 67  1  0  0  0  0
 34 77  2  0  0  0  0
 35 61  1  0  0  0  0
 35 72  1  0  0  0  0
 35 78  2  0  0  0  0
 36 68  1  0  0  0  0
 36 73  1  0  0  0  0
 36 79  2  0  0  0  0
 37 40  1  0  0  0  0
 38 47  1  0  0  0  0
 39 67  1  0  0  0  0
 40 42  1  0  0  0  0
 41 43  1  0  0  0  0
 41 44  1  0  0  0  0
 42 46  1  0  0  0  0
 43 48  1  0  0  0  0
 44 68  1  0  0  0  0
 45 48  1  0  0  0  0
 45 68  1  0  0  0  0
 46 71  1  0  0  0  0
 47 67  1  0  0  0  0
 48 66  1  0  0  0  0
 51 61  1  0  0  0  0
 52 62  1  0  0  0  0
 53 62  1  0  0  0  0
 54 62  1  0  0  0  0
 55 73  1  0  0  0  0
 56 74  1  0  0  0  0
 57 59  1  0  0  0  0
 58 73  1  0  0  0  0
 59 81  1  0  0  0  0
 60 62  1  0  0  0  0
 60 72  1  0  0  0  0
 61 74  1  0  0  0  0
 63 66  1  0  0  0  0
M  CHG  1  74   1
M  ISO  4  36 100  59 101  73 100  81 101
M  END
> <Batch ID>
0045

> <Smiles>
CNC(C)C(=O)NC(C(=O)N1Cc2cc([101O:1][101CH2:1]Cc3nc(C)nc(C[100N:0](C)[100C:0](=O)N4CCCC(n5nc(-c6ccc(Oc7ccc(F)cc7F)cc6)c(C(N)=O)c5N)C4)c3C)ccc2CC1C(=O)NC1CCCc2ccccc21)C(C)(C)C

> <Shape>
0.216

> <Color>
0.089

> <Negative vol penalty>
0.000

$$$$

  -OEChem-04052317193D

 79 87  0     1  0  0  0  0  0999 V2000
  -29.9648  -34.1134   24.3956 C   0  0  0  0  0  0  0  0  0  0  0  0
  -29.7971  -32.8127   23.9315 C   0  0  0  0  0  0  0  0  0  0  0  0
  -24.4523  -13.6746   21.2245 C   0  0  0  0  0  0  0  0  0  0  0  0
  -26.4908  -12.9470   20.1510 C   0  0  0  0  0  0  0  0  0  0  0  0
  -28.8966  -34.7831   24.9909 C   0  0  0  0  0  0  0  0  0  0  0  0
  -28.5612  -32.1805   24.0634 C   0  0  0  0  0  0  0  0  0  0  0  0
  -27.1639  -29.7477   19.8475 C   0  0  0  0  0  0  0  0  0  0  0  0
  -24.0317  -12.3485   21.3248 C   0  0  0  0  0  0  0  0  0  0  0  0
  -26.0702  -11.6208   20.2513 C   0  0  0  0  0  0  0  0  0  0  0  0
  -27.7607  -28.5128   19.5974 C   0  0  0  0  0  0  0  0  0  0  0  0
  -24.6544   -9.6809   23.3070 C   0  0  0  0  0  0  0  0  0  0  0  0
  -24.1119   -9.2630   24.5222 C   0  0  0  0  0  0  0  0  0  0  0  0
  -25.7978  -27.3984   20.4485 C   0  0  0  0  0  0  0  0  0  0  0  0
  -22.0414   -8.7090   23.4073 C   0  0  0  0  0  0  0  0  0  0  0  0
  -29.4992  -24.0309   17.6542 C   0  0  0  0  0  0  0  0  0  0  0  0
  -25.6818  -13.9739   20.6375 C   0  0  0  0  0  0  0  0  0  0  0  0
  -26.8714  -16.0699   21.4736 C   0  0  0  0  0  0  0  0  0  0  0  0
  -27.6443  -34.1623   25.1214 C   0  0  0  0  0  0  0  0  0  0  0  0
  -25.8817  -29.8174   20.4110 C   0  0  0  0  0  0  0  0  0  0  0  0
  -27.4756  -32.8421   24.6621 C   0  0  0  0  0  0  0  0  0  0  0  0
  -25.1858  -28.6354   20.7023 C   0  0  0  0  0  0  0  0  0  0  0  0
  -24.8407  -11.3216   20.8382 C   0  0  0  0  0  0  0  0  0  0  0  0
  -27.0789  -27.3379   19.9006 C   0  0  0  0  0  0  0  0  0  0  0  0
  -23.8904   -9.6129   22.1419 C   0  0  0  0  0  0  0  0  0  0  0  0
  -22.8054   -8.7771   24.5723 C   0  0  0  0  0  0  0  0  0  0  0  0
  -22.5839   -9.1269   22.1921 C   0  0  0  0  0  0  0  0  0  0  0  0
  -26.1166  -15.3436   20.5331 C   0  0  0  0  0  0  0  0  0  0  0  0
  -29.4208  -24.7285   18.8745 C   0  0  0  0  0  0  0  0  0  0  0  0
  -29.9691  -22.7872   17.9992 C   0  0  0  0  0  0  0  0  0  0  0  0
  -27.0189  -17.3133   20.9089 C   0  0  0  0  0  0  0  0  0  0  0  0
  -27.3927  -15.6576   22.7440 C   0  0  0  0  0  0  0  0  0  0  0  0
  -24.6756  -31.0040   23.1019 C   0  0  0  0  0  0  0  0  0  0  0  0
  -21.8484  -30.1932   21.7337 C   0  0  0  0  0  0  0  0  0  0  0  0
  -20.1671  -28.2400   19.4964 C   0  0  0  0  0  0  0  0  0  0  0  0
  -28.1169  -20.5585   16.5034 C   0  0  0  0  0  0  0  0  0  0  0  0
  -26.5325  -34.9093   25.8145 C   0  0  0  0  0  0  0  0  0  0  0  0
  -25.2410  -31.1571   20.6498 C   0  0  0  0  0  0  0  0  0  0  0  0
  -23.7990  -28.6559   21.2896 C   0  0  0  0  0  0  0  0  0  0  0  0
  -25.1515  -34.3033   25.5778 C   0  0  0  0  0  0  0  0  0  0  0  0
  -24.7762  -19.3844   16.8756 C   0  0  0  0  0  0  0  0  0  0  0  0
  -25.1922  -32.7907   25.7708 C   0  0  0  0  0  0  0  0  0  0  0  0
  -24.8907  -18.2848   17.9328 C   0  0  0  0  0  0  0  0  0  0  0  0
  -25.9928  -19.4089   15.9529 C   0  0  0  0  0  0  0  0  0  0  0  0
  -27.4069  -18.4002   17.7011 C   0  0  0  0  0  0  0  0  0  0  0  0
  -26.1434  -32.1315   24.7647 C   0  0  1  0  0  0  0  0  0  0  0  0
  -24.1381  -31.1128   21.7030 C   0  0  1  0  0  0  0  0  0  0  0  0
  -26.2292  -18.3723   18.6903 C   0  0  2  0  0  0  0  0  0  0  0  0
  -17.8578  -27.7793   18.6292 C   0  0  0  0  0  0  0  0  0  0  0  0
  -21.2048  -28.6396   24.2797 C   0  0  0  0  0  0  0  0  0  0  0  0
  -19.3921  -27.4600   23.0184 C   0  0  0  0  0  0  0  0  0  0  0  0
  -19.2847  -29.9323   23.3329 C   0  0  0  0  0  0  0  0  0  0  0  0
  -30.6131  -21.7380   20.1898 C   0  0  0  0  0  0  0  0  0  0  0  0
  -20.9167  -29.0322   16.7452 C   0  0  0  0  0  0  0  0  0  0  0  0
  -28.9692  -26.1427   19.0918 C   0  0  0  0  0  0  0  0  0  1  0  0
  -30.2664  -21.6014   17.1751 C   0  0  0  0  0  0  0  0  0  0  0  0
  -20.9785  -28.9594   21.7277 C   0  0  1  0  0  0  0  0  0  0  0  0
  -19.1351  -28.5819   18.4369 C   0  0  2  0  0  0  0  0  0  0  0  0
  -20.2419  -28.7471   23.0804 C   0  0  0  0  0  0  0  0  0  0  0  0
  -25.8061  -16.0654   19.4530 N   0  0  0  0  0  0  0  0  0  0  0  0
  -29.8095  -23.9893   19.9169 N   0  0  0  0  0  0  0  0  0  0  0  0
  -30.1367  -22.8143   19.3525 N   0  0  0  0  0  0  0  0  0  0  0  0
  -26.3685  -17.2583   19.7114 N   0  0  0  0  0  0  0  0  0  0  0  0
  -23.2177  -29.9903   21.5107 N   0  0  0  0  0  0  0  0  0  0  0  0
  -27.2294  -19.4943   16.7335 N   0  0  0  0  0  0  0  0  0  0  0  0
  -27.6400  -18.4373   21.3250 N   0  0  0  0  0  0  0  0  0  0  0  0
  -27.1490  -14.3455   23.1722 N   0  0  0  0  0  0  0  0  0  0  0  0
  -25.5173  -32.0386   23.4633 N   0  0  0  0  0  0  0  0  0  0  0  0
  -20.0902  -29.0918   20.5780 N   0  0  0  0  0  0  0  0  0  0  0  0
  -29.2619  -20.5677   17.2906 N   0  0  0  0  0  0  0  0  0  0  0  0
  -19.6726  -28.2915   17.0776 N   0  3  0  0  0  0  0  0  0  0  0  0
  -28.0410  -16.4348   23.4850 O   0  0  0  0  0  0  0  0  0  0  0  0
  -24.3495  -30.0527   23.8021 O   0  0  0  0  0  0  0  0  0  0  0  0
  -21.3310  -31.2970   21.9219 O   0  0  0  0  0  0  0  0  0  0  0  0
  -20.9596  -27.3080   19.3782 O   0  0  0  0  0  0  0  0  0  0  0  0
  -27.9020  -21.4384   15.6628 O   0  0  0  0  0  0  0  0  0  0  0  0
  -24.4307  -10.0274   20.9361 O   0  0  0  0  0  0  0  0  0  0  0  0
  -27.6594  -26.1312   19.6582 O   0  0  0  0  0  0  0  0  0  1  0  0
  -22.2851   -8.3744   25.7391 F   0  0  0  0  0  0  0  0  0  0  0  0
  -21.8454   -9.0581   21.0759 F   0  0  0  0  0  0  0  0  0  0  0  0
  1  2  1  0  0  0  0
  1  5  2  0  0  0  0
  2  6  2  0  0  0  0
  3  8  2  0  0  0  0
  3 16  1  0  0  0  0
  4  9  1  0  0  0  0
  4 16  2  0  0  0  0
  5 18  1  0  0  0  0
  6 20  1  0  0  0  0
  7 10  2  0  0  0  0
  7 19  1  0  0  0  0
  8 22  1  0  0  0  0
  9 22  2  0  0  0  0
 10 23  1  0  0  0  0
 11 12  2  0  0  0  0
 11 24  1  0  0  0  0
 12 25  1  0  0  0  0
 13 21  1  0  0  0  0
 13 23  2  0  0  0  0
 14 25  2  0  0  0  0
 14 26  1  0  0  0  0
 15 28  1  0  0  0  0
 15 29  2  0  0  0  0
 16 27  1  0  0  0  0
 17 27  1  0  0  0  0
 17 30  2  0  0  0  0
 17 31  1  0  0  0  0
 18 20  2  0  0  0  0
 18 36  1  0  0  0  0
 19 21  2  0  0  0  0
 19 37  1  0  0  0  0
 20 45  1  0  0  0  0
 21 38  1  0  0  0  0
 22 76  1  0  0  0  0
 23 77  1  0  0  0  0
 24 26  2  0  0  0  0
 24 76  1  0  0  0  0
 25 78  1  0  0  0  0
 26 79  1  0  0  0  0
 27 59  2  0  0  0  0
 28 54  1  0  0  0  0
 28 60  2  0  0  0  0
 29 55  1  0  0  0  0
 29 61  1  0  0  0  0
 30 62  1  0  0  0  0
 30 65  1  0  0  0  0
 31 66  1  0  0  0  0
 31 71  2  0  0  0  0
 32 46  1  0  0  0  0
 32 67  1  0  0  0  0
 32 72  2  0  0  0  0
 33 56  1  0  0  0  0
 33 63  1  0  0  0  0
 33 73  2  0  0  0  0
 34 57  1  0  0  0  0
 34 68  1  0  0  0  0
 34 74  2  0  0  0  0
 35 64  1  0  0  0  0
 35 69  1  0  0  0  0
 35 75  2  0  0  0  0
 36 39  1  0  0  0  0
 37 46  1  0  0  0  0
 38 63  1  0  0  0  0
 39 41  1  0  0  0  0
 40 42  1  0  0  0  0
 40 43  1  0  0  0  0
 41 45  1  0  0  0  0
 42 47  1  0  0  0  0
 43 64  1  0  0  0  0
 44 47  1  0  0  0  0
 44 64  1  0  0  0  0
 45 67  1  0  0  0  0
 46 63  1  0  0  0  0
 47 62  1  0  0  0  0
 48 57  1  0  0  0  0
 49 58  1  0  0  0  0
 50 58  1  0  0  0  0
 51 58  1  0  0  0  0
 52 61  1  0  0  0  0
 53 70  1  0  0  0  0
 54 77  1  0  0  0  0
 55 69  1  0  0  0  0
 56 58  1  0  0  0  0
 56 68  1  0  0  0  0
 57 70  1  0  0  0  0
 59 62  1  0  0  0  0
 60 61  1  0  0  0  0
M  CHG  1  70   1
M  ISO  4  35 100  54 101  69 100  77 101
M  END
> <Batch ID>
0045

> <Smiles>
CNC(C)C(=O)NC(C(=O)N1Cc2cc([101O:1][101CH2:1]c3cc(C[100NH:0][100C:0](=O)N4CCCC(n5nc(-c6ccc(Oc7ccc(F)cc7F)cc6)c(C(N)=O)c5N)C4)n(C)n3)ccc2CC1C(=O)NC1CCCc2ccccc21)C(C)(C)C

> <Shape>
0.275

> <Color>
0.066

> <Negative vol penalty>
0.000

$$$$

  -OEChem-04052317193D

 85 93  0     1  0  0  0  0  0999 V2000
  -20.8395  -21.0097   22.0910 C   0  0  0  0  0  0  0  0  0  0  0  0
  -21.9346  -21.6748   21.5490 C   0  0  0  0  0  0  0  0  0  0  0  0
  -27.1759  -13.6238   21.6791 C   0  0  0  0  0  0  0  0  0  0  0  0
  -26.6986  -14.0398   19.3476 C   0  0  0  0  0  0  0  0  0  0  0  0
  -19.6118  -21.6619   22.1972 C   0  0  0  0  0  0  0  0  0  0  0  0
  -21.8024  -22.9923   21.1118 C   0  0  0  0  0  0  0  0  0  0  0  0
  -25.6477  -25.9298   22.6049 C   0  0  0  0  0  0  0  0  0  0  0  0
  -26.5024  -12.4049   21.5996 C   0  0  0  0  0  0  0  0  0  0  0  0
  -26.0251  -12.8209   19.2680 C   0  0  0  0  0  0  0  0  0  0  0  0
  -26.8435  -25.8223   21.8963 C   0  0  0  0  0  0  0  0  0  0  0  0
  -27.1239   -9.2858   20.4516 C   0  0  0  0  0  0  0  0  0  0  0  0
  -27.7295   -8.1715   21.0322 C   0  0  0  0  0  0  0  0  0  0  0  0
  -26.2841  -27.8175   20.6613 C   0  0  0  0  0  0  0  0  0  0  0  0
  -27.8758  -24.5124   17.4640 C   0  0  0  0  0  0  0  0  0  0  0  0
  -25.8275   -7.9013   22.4973 C   0  0  0  0  0  0  0  0  0  0  0  0
  -27.2739  -14.4413   20.5531 C   0  0  0  0  0  0  0  0  0  0  0  0
  -29.3367  -15.9339   20.3963 C   0  0  0  0  0  0  0  0  0  0  0  0
  -19.4669  -22.9913   21.7700 C   0  0  0  0  0  0  0  0  0  0  0  0
  -24.7545  -26.9776   22.3390 C   0  0  0  0  0  0  0  0  0  0  0  0
  -20.5713  -23.6625   21.2111 C   0  0  0  0  0  0  0  0  0  0  0  0
  -25.0787  -27.9376   21.3698 C   0  0  0  0  0  0  0  0  0  0  0  0
  -29.0928  -24.9422   17.9810 C   0  0  0  0  0  0  0  0  0  0  0  0
  -25.9270  -12.0035   20.3940 C   0  0  0  0  0  0  0  0  0  0  0  0
  -27.1605  -26.7646   20.9223 C   0  0  0  0  0  0  0  0  0  0  0  0
  -25.8701   -9.7080   20.8939 C   0  0  0  0  0  0  0  0  0  0  0  0
  -30.0286  -24.0075   18.4100 C   0  0  0  0  0  0  0  0  0  0  0  0
  -27.0813   -7.4792   22.0550 C   0  0  0  0  0  0  0  0  0  0  0  0
  -25.2219   -9.0157   21.9167 C   0  0  0  0  0  0  0  0  0  0  0  0
  -27.9691  -15.7007   20.6349 C   0  0  0  0  0  0  0  0  0  0  0  0
  -27.6448  -23.1478   17.3979 C   0  0  0  0  0  0  0  0  0  0  0  0
  -29.7012  -22.6656   18.3018 C   0  0  0  0  0  0  0  0  0  0  0  0
  -29.4964  -17.2823   20.6033 C   0  0  0  0  0  0  0  0  0  0  0  0
  -30.3704  -15.0139   20.0210 C   0  0  0  0  0  0  0  0  0  0  0  0
  -21.7594  -27.1603   21.2903 C   0  0  0  0  0  0  0  0  0  0  0  0
  -22.1380  -30.3167   21.9358 C   0  0  0  0  0  0  0  0  0  0  0  0
  -24.2629  -32.9558   22.3442 C   0  0  0  0  0  0  0  0  0  0  0  0
  -25.7346  -21.9298   20.2854 C   0  0  0  0  0  0  0  0  0  0  0  0
  -18.1080  -23.6391   21.8614 C   0  0  0  0  0  0  0  0  0  0  0  0
  -23.4810  -27.0946   23.1309 C   0  0  0  0  0  0  0  0  0  0  0  0
  -24.1633  -29.0929   21.0606 C   0  0  0  0  0  0  0  0  0  0  0  0
  -18.1469  -25.1586   21.7200 C   0  0  0  0  0  0  0  0  0  0  0  0
  -27.6679  -20.9292   23.1029 C   0  0  0  0  0  0  0  0  0  0  0  0
  -19.0266  -25.5627   20.5411 C   0  0  0  0  0  0  0  0  0  0  0  0
  -28.0877  -19.4968   22.7683 C   0  0  0  0  0  0  0  0  0  0  0  0
  -26.2569  -21.2346   22.6050 C   0  0  0  0  0  0  0  0  0  0  0  0
  -26.4518  -19.5266   20.8391 C   0  0  0  0  0  0  0  0  0  0  0  0
  -20.4738  -25.1001   20.7486 C   0  0  1  0  0  0  0  0  0  0  0  0
  -22.4075  -27.9117   22.4186 C   0  0  1  0  0  0  0  0  0  0  0  0
  -27.8889  -19.1892   21.2719 C   0  0  2  0  0  0  0  0  0  0  0  0
  -31.7989  -21.4105   17.7443 C   0  0  0  0  0  0  0  0  0  0  0  0
  -24.2754  -35.4181   22.8281 C   0  0  0  0  0  0  0  0  0  0  0  0
  -21.2435  -30.8812   19.0738 C   0  0  0  0  0  0  0  0  0  0  0  0
  -22.1710  -33.1942   19.3142 C   0  0  0  0  0  0  0  0  0  0  0  0
  -20.3039  -32.4417   20.7875 C   0  0  0  0  0  0  0  0  0  0  0  0
  -25.8308  -32.5780   24.8257 C   0  0  0  0  0  0  0  0  0  0  0  0
  -31.2949  -24.6185   20.3281 C   0  0  0  0  0  0  0  0  0  0  0  0
  -29.3788  -26.4217   18.0681 C   0  0  0  0  0  0  0  0  0  0  0  0
  -26.3496  -22.6500   16.8490 C   0  0  0  0  0  0  0  0  0  0  0  0
  -30.6698  -21.6203   18.7487 C   0  0  0  0  0  0  0  0  0  0  0  0
  -25.2586  -22.4778   17.9122 C   0  0  0  0  0  0  0  0  0  0  0  0
  -28.3354  -27.1663   18.8939 C   0  0  0  0  0  0  0  0  0  1  0  0
  -22.6269  -31.5155   21.1595 C   0  0  1  0  0  0  0  0  0  0  0  0
  -24.3511  -34.0205   23.4227 C   0  0  2  0  0  0  0  0  0  0  0  0
  -21.6029  -31.9854   20.0880 C   0  0  0  0  0  0  0  0  0  0  0  0
  -27.3070  -16.8119   20.9681 N   0  0  0  0  0  0  0  0  0  0  0  0
  -28.5294  -22.2100   17.8049 N   0  0  0  0  0  0  0  0  0  0  0  0
  -28.2628  -17.7563   20.9405 N   0  0  0  0  0  0  0  0  0  0  0  0
  -22.9271  -29.1604   21.8573 N   0  0  0  0  0  0  0  0  0  0  0  0
  -26.1355  -20.9227   21.1788 N   0  0  0  0  0  0  0  0  0  0  0  0
  -30.5702  -18.0969   20.5281 N   0  0  0  0  0  0  0  0  0  0  0  0
  -30.0338  -13.6642   19.8499 N   0  0  0  0  0  0  0  0  0  0  0  0
  -21.1571  -25.9776   21.6747 N   0  0  0  0  0  0  0  0  0  0  0  0
  -22.9651  -32.5325   22.1493 N   0  0  0  0  0  0  0  0  0  0  0  0
  -25.6511  -21.5517   18.9510 N   0  0  0  0  0  0  0  0  0  0  0  0
  -25.6348  -33.8963   24.1694 N   0  3  0  0  0  0  0  0  0  0  0  0
  -31.5607  -15.3751   19.8587 O   0  0  0  0  0  0  0  0  0  0  0  0
  -21.8014  -27.6204   20.1553 O   0  0  0  0  0  0  0  0  0  0  0  0
  -21.0983  -30.4051   22.5937 O   0  0  0  0  0  0  0  0  0  0  0  0
  -25.2463  -32.5437   21.7330 O   0  0  0  0  0  0  0  0  0  0  0  0
  -25.4759  -23.0820   20.6493 O   0  0  0  0  0  0  0  0  0  0  0  0
  -25.2699  -10.8140   20.3160 O   0  0  0  0  0  0  0  0  0  0  0  0
  -31.2256  -24.4005   18.9187 O   0  0  0  0  0  0  0  0  0  0  0  0
  -28.3268  -26.6616   20.2287 O   0  0  0  0  0  0  0  0  0  1  0  0
  -27.6622   -6.4082   22.6114 F   0  0  0  0  0  0  0  0  0  0  0  0
  -24.0168   -9.4158   22.3451 F   0  0  0  0  0  0  0  0  0  0  0  0
  1  2  1  0  0  0  0
  1  5  2  0  0  0  0
  2  6  2  0  0  0  0
  3  8  2  0  0  0  0
  3 16  1  0  0  0  0
  4  9  1  0  0  0  0
  4 16  2  0  0  0  0
  5 18  1  0  0  0  0
  6 20  1  0  0  0  0
  7 10  2  0  0  0  0
  7 19  1  0  0  0  0
  8 23  1  0  0  0  0
  9 23  2  0  0  0  0
 10 24  1  0  0  0  0
 11 12  2  0  0  0  0
 11 25  1  0  0  0  0
 12 27  1  0  0  0  0
 13 21  1  0  0  0  0
 13 24  2  0  0  0  0
 14 22  2  0  0  0  0
 14 30  1  0  0  0  0
 15 27  2  0  0  0  0
 15 28  1  0  0  0  0
 16 29  1  0  0  0  0
 17 29  1  0  0  0  0
 17 32  2  0  0  0  0
 17 33  1  0  0  0  0
 18 20  2  0  0  0  0
 18 38  1  0  0  0  0
 19 21  2  0  0  0  0
 19 39  1  0  0  0  0
 20 47  1  0  0  0  0
 21 40  1  0  0  0  0
 22 26  1  0  0  0  0
 22 57  1  0  0  0  0
 23 81  1  0  0  0  0
 24 83  1  0  0  0  0
 25 28  2  0  0  0  0
 25 81  1  0  0  0  0
 26 31  2  0  0  0  0
 26 82  1  0  0  0  0
 27 84  1  0  0  0  0
 28 85  1  0  0  0  0
 29 65  2  0  0  0  0
 30 58  1  0  0  0  0
 30 66  2  0  0  0  0
 31 59  1  0  0  0  0
 31 66  1  0  0  0  0
 32 67  1  0  0  0  0
 32 70  1  0  0  0  0
 33 71  1  0  0  0  0
 33 76  2  0  0  0  0
 34 48  1  0  0  0  0
 34 72  1  0  0  0  0
 34 77  2  0  0  0  0
 35 62  1  0  0  0  0
 35 68  1  0  0  0  0
 35 78  2  0  0  0  0
 36 63  1  0  0  0  0
 36 73  1  0  0  0  0
 36 79  2  0  0  0  0
 37 69  1  0  0  0  0
 37 74  1  0  0  0  0
 37 80  2  0  0  0  0
 38 41  1  0  0  0  0
 39 48  1  0  0  0  0
 40 68  1  0  0  0  0
 41 43  1  0  0  0  0
 42 44  1  0  0  0  0
 42 45  1  0  0  0  0
 43 47  1  0  0  0  0
 44 49  1  0  0  0  0
 45 69  1  0  0  0  0
 46 49  1  0  0  0  0
 46 69  1  0  0  0  0
 47 72  1  0  0  0  0
 48 68  1  0  0  0  0
 49 67  1  0  0  0  0
 50 59  1  0  0  0  0
 51 63  1  0  0  0  0
 52 64  1  0  0  0  0
 53 64  1  0  0  0  0
 54 64  1  0  0  0  0
 55 75  1  0  0  0  0
 56 82  1  0  0  0  0
 57 61  1  0  0  0  0
 58 60  1  0  0  0  0
 60 74  1  0  0  0  0
 61 83  1  0  0  0  0
 62 64  1  0  0  0  0
 62 73  1  0  0  0  0
 63 75  1  0  0  0  0
 65 67  1  0  0  0  0
M  CHG  1  75   1
M  ISO  4  37 100  61 101  74 100  83 101
M  END
> <Batch ID>
0045

> <Smiles>
CCc1nc(CC[100NH:0][100C:0](=O)N2CCCC(n3nc(-c4ccc(Oc5ccc(F)cc5F)cc4)c(C(N)=O)c3N)C2)cc(C[101CH2:1][101O:1]c2ccc3c(c2)CN(C(=O)C(NC(=O)C(C)NC)C(C)(C)C)C(C(=O)NC2CCCc4ccccc42)C3)c1OC

> <Shape>
0.224

> <Color>
0.074

> <Negative vol penalty>
0.000

$$$$

  -OEChem-04052317193D

 82 90  0     1  0  0  0  0  0999 V2000
  -17.9352  -28.0544   22.7122 C   0  0  0  0  0  0  0  0  0  0  0  0
  -18.8376  -27.1676   22.1336 C   0  0  0  0  0  0  0  0  0  0  0  0
  -23.1996   -9.6910   19.9681 C   0  0  0  0  0  0  0  0  0  0  0  0
  -23.8199   -9.8952   22.2942 C   0  0  0  0  0  0  0  0  0  0  0  0
  -18.4032  -29.1563   23.4268 C   0  0  0  0  0  0  0  0  0  0  0  0
  -20.2087  -27.3829   22.2685 C   0  0  0  0  0  0  0  0  0  0  0  0
  -22.7341  -23.1516   23.4361 C   0  0  0  0  0  0  0  0  0  0  0  0
  -22.4832   -8.5306   20.2610 C   0  0  0  0  0  0  0  0  0  0  0  0
  -23.1034   -8.7347   22.5871 C   0  0  0  0  0  0  0  0  0  0  0  0
  -22.9845  -22.2531   22.3999 C   0  0  0  0  0  0  0  0  0  0  0  0
  -19.4831   -7.7257   21.5969 C   0  0  0  0  0  0  0  0  0  0  0  0
  -18.2102   -7.5926   21.0426 C   0  0  0  0  0  0  0  0  0  0  0  0
  -25.2342  -23.1036   22.2140 C   0  0  0  0  0  0  0  0  0  0  0  0
  -27.0212  -19.5412   20.3280 C   0  0  0  0  0  0  0  0  0  0  0  0
  -18.9163   -5.5820   19.9041 C   0  0  0  0  0  0  0  0  0  0  0  0
  -27.1624  -17.6464   22.2864 C   0  0  0  0  0  0  0  0  0  0  0  0
  -23.8680  -10.3733   20.9848 C   0  0  0  0  0  0  0  0  0  0  0  0
  -24.1272  -12.8945   20.6953 C   0  0  0  0  0  0  0  0  0  0  0  0
  -19.7807  -29.3799   23.5787 C   0  0  0  0  0  0  0  0  0  0  0  0
  -23.7302  -24.0419   23.8624 C   0  0  0  0  0  0  0  0  0  0  0  0
  -20.6956  -28.4896   22.9847 C   0  0  0  0  0  0  0  0  0  0  0  0
  -24.9948  -24.0107   23.2576 C   0  0  0  0  0  0  0  0  0  0  0  0
  -28.2392  -19.2943   20.9517 C   0  0  0  0  0  0  0  0  0  0  0  0
  -28.3196  -18.3304   21.9506 C   0  0  0  0  0  0  0  0  0  0  0  0
  -22.4351   -8.0525   21.5704 C   0  0  0  0  0  0  0  0  0  0  0  0
  -24.2337  -22.2309   21.7867 C   0  0  0  0  0  0  0  0  0  0  0  0
  -20.4728   -6.7871   21.3048 C   0  0  0  0  0  0  0  0  0  0  0  0
  -17.9267   -6.5207   20.1962 C   0  0  0  0  0  0  0  0  0  0  0  0
  -20.1893   -5.7152   20.4584 C   0  0  0  0  0  0  0  0  0  0  0  0
  -24.6087  -11.5717   20.6828 C   0  0  0  0  0  0  0  0  0  0  0  0
  -25.9222  -18.8029   20.7364 C   0  0  0  0  0  0  0  0  0  0  0  0
  -25.2121  -13.6582   20.3399 C   0  0  0  0  0  0  0  0  0  0  0  0
  -22.8165  -13.3888   21.0009 C   0  0  0  0  0  0  0  0  0  0  0  0
  -24.0237  -27.2058   23.9480 C   0  0  0  0  0  0  0  0  0  0  0  0
  -26.7659  -26.5182   25.5388 C   0  0  0  0  0  0  0  0  0  0  0  0
  -29.2553  -24.2753   26.1860 C   0  0  0  0  0  0  0  0  0  0  0  0
  -30.6353  -14.9046   20.7646 C   0  0  0  0  0  0  0  0  0  0  0  0
  -20.2389  -30.6108   24.3200 C   0  0  0  0  0  0  0  0  0  0  0  0
  -23.4527  -24.9867   24.9995 C   0  0  0  0  0  0  0  0  0  0  0  0
  -26.1045  -24.9317   23.6919 C   0  0  0  0  0  0  0  0  0  0  0  0
  -21.7074  -30.5612   24.7339 C   0  0  0  0  0  0  0  0  0  0  0  0
  -29.7277  -12.3093   18.5024 C   0  0  0  0  0  0  0  0  0  0  0  0
  -22.5747  -30.0935   23.5695 C   0  0  0  0  0  0  0  0  0  0  0  0
  -28.2781  -11.9913   18.8732 C   0  0  0  0  0  0  0  0  0  0  0  0
  -30.5628  -12.6532   19.7338 C   0  0  0  0  0  0  0  0  0  0  0  0
  -28.5567  -13.4075   20.9505 C   0  0  0  0  0  0  0  0  0  0  0  0
  -22.1904  -28.6756   23.1300 C   0  0  1  0  0  0  0  0  0  0  0  0
  -24.3772  -26.2002   25.0071 C   0  0  1  0  0  0  0  0  0  0  0  0
  -27.6617  -13.1091   19.7355 C   0  0  2  0  0  0  0  0  0  0  0  0
  -29.4426  -20.0727   20.5344 C   0  0  0  0  0  0  0  0  0  0  0  0
  -31.3780  -24.0128   27.4985 C   0  0  0  0  0  0  0  0  0  0  0  0
  -28.2322  -28.2650   23.5118 C   0  0  0  0  0  0  0  0  0  0  0  0
  -30.3782  -27.2213   24.2694 C   0  0  0  0  0  0  0  0  0  0  0  0
  -29.0000  -28.5414   25.8759 C   0  0  0  0  0  0  0  0  0  0  0  0
  -28.1536  -22.0070   27.7353 C   0  0  0  0  0  0  0  0  0  0  0  0
  -29.5981  -18.0264   22.6513 C   0  0  0  0  0  0  0  0  0  0  0  0
  -24.5836  -19.0442   20.0819 C   0  0  0  0  0  0  0  0  0  0  0  0
  -30.5510  -17.1405   21.8383 C   0  0  0  0  0  0  0  0  0  0  0  0
  -23.7721  -20.1169   20.8000 C   0  0  0  0  0  0  0  0  0  1  0  0
  -28.1982  -26.2600   25.1381 C   0  0  1  0  0  0  0  0  0  0  0  0
  -29.8717  -23.8033   27.4905 C   0  0  2  0  0  0  0  0  0  0  0  0
  -28.9309  -27.5558   24.6891 C   0  0  0  0  0  0  0  0  0  0  0  0
  -25.9615  -17.8585   21.7030 N   0  0  0  0  0  0  0  0  0  0  0  0
  -25.8990  -11.4958   20.3459 N   0  0  0  0  0  0  0  0  0  0  0  0
  -26.2374  -12.7806   20.1434 N   0  0  0  0  0  0  0  0  0  0  0  0
  -25.7823  -25.8417   24.8035 N   0  0  0  0  0  0  0  0  0  0  0  0
  -29.9241  -13.7210   20.5071 N   0  0  0  0  0  0  0  0  0  0  0  0
  -25.3794  -14.9881   20.1793 N   0  0  0  0  0  0  0  0  0  0  0  0
  -21.8188  -12.4673   21.3471 N   0  0  0  0  0  0  0  0  0  0  0  0
  -22.7359  -27.6971   24.0461 N   0  0  0  0  0  0  0  0  0  0  0  0
  -28.8225  -25.5819   26.2689 N   0  0  0  0  0  0  0  0  0  0  0  0
  -29.9544  -15.8678   21.4989 N   0  0  0  0  0  0  0  0  0  0  0  0
  -29.5978  -22.3532   27.6981 N   0  3  0  0  0  0  0  0  0  0  0  0
  -22.5340  -14.6100   20.9521 O   0  0  0  0  0  0  0  0  0  0  0  0
  -24.8581  -27.5142   23.1052 O   0  0  0  0  0  0  0  0  0  0  0  0
  -26.5287  -27.2863   26.4745 O   0  0  0  0  0  0  0  0  0  0  0  0
  -29.1698  -23.5580   25.1917 O   0  0  0  0  0  0  0  0  0  0  0  0
  -31.7895  -15.0914   20.3648 O   0  0  0  0  0  0  0  0  0  0  0  0
  -21.7359   -6.9203   21.8566 O   0  0  0  0  0  0  0  0  0  0  0  0
  -24.4805  -21.3553   20.7747 O   0  0  0  0  0  0  0  0  0  1  0  0
  -16.7038   -6.3921   19.6651 F   0  0  0  0  0  0  0  0  0  0  0  0
  -21.1356   -4.8097   20.1751 F   0  0  0  0  0  0  0  0  0  0  0  0
  1  2  1  0  0  0  0
  1  5  2  0  0  0  0
  2  6  2  0  0  0  0
  3  8  2  0  0  0  0
  3 17  1  0  0  0  0
  4  9  1  0  0  0  0
  4 17  2  0  0  0  0
  5 19  1  0  0  0  0
  6 21  1  0  0  0  0
  7 10  2  0  0  0  0
  7 20  1  0  0  0  0
  8 25  1  0  0  0  0
  9 25  2  0  0  0  0
 10 26  1  0  0  0  0
 11 12  2  0  0  0  0
 11 27  1  0  0  0  0
 12 28  1  0  0  0  0
 13 22  1  0  0  0  0
 13 26  2  0  0  0  0
 14 23  2  0  0  0  0
 14 31  1  0  0  0  0
 15 28  2  0  0  0  0
 15 29  1  0  0  0  0
 16 24  2  0  0  0  0
 16 63  1  0  0  0  0
 17 30  1  0  0  0  0
 18 30  1  0  0  0  0
 18 32  2  0  0  0  0
 18 33  1  0  0  0  0
 19 21  2  0  0  0  0
 19 38  1  0  0  0  0
 20 22  2  0  0  0  0
 20 39  1  0  0  0  0
 21 47  1  0  0  0  0
 22 40  1  0  0  0  0
 23 24  1  0  0  0  0
 23 50  1  0  0  0  0
 24 56  1  0  0  0  0
 25 79  1  0  0  0  0
 26 80  1  0  0  0  0
 27 29  2  0  0  0  0
 27 79  1  0  0  0  0
 28 81  1  0  0  0  0
 29 82  1  0  0  0  0
 30 64  2  0  0  0  0
 31 57  1  0  0  0  0
 31 63  2  0  0  0  0
 32 65  1  0  0  0  0
 32 68  1  0  0  0  0
 33 69  1  0  0  0  0
 33 74  2  0  0  0  0
 34 48  1  0  0  0  0
 34 70  1  0  0  0  0
 34 75  2  0  0  0  0
 35 60  1  0  0  0  0
 35 66  1  0  0  0  0
 35 76  2  0  0  0  0
 36 61  1  0  0  0  0
 36 71  1  0  0  0  0
 36 77  2  0  0  0  0
 37 67  1  0  0  0  0
 37 72  1  0  0  0  0
 37 78  2  0  0  0  0
 38 41  1  0  0  0  0
 39 48  1  0  0  0  0
 40 66  1  0  0  0  0
 41 43  1  0  0  0  0
 42 44  1  0  0  0  0
 42 45  1  0  0  0  0
 43 47  1  0  0  0  0
 44 49  1  0  0  0  0
 45 67  1  0  0  0  0
 46 49  1  0  0  0  0
 46 67  1  0  0  0  0
 47 70  1  0  0  0  0
 48 66  1  0  0  0  0
 49 65  1  0  0  0  0
 51 61  1  0  0  0  0
 52 62  1  0  0  0  0
 53 62  1  0  0  0  0
 54 62  1  0  0  0  0
 55 73  1  0  0  0  0
 56 58  1  0  0  0  0
 57 59  1  0  0  0  0
 58 72  1  0  0  0  0
 59 80  1  0  0  0  0
 60 62  1  0  0  0  0
 60 71  1  0  0  0  0
 61 73  1  0  0  0  0
 64 65  1  0  0  0  0
M  CHG  1  73   1
M  ISO  4  37 100  59 101  72 100  80 101
M  END
> <Batch ID>
0045

> <Smiles>
CNC(C)C(=O)NC(C(=O)N1Cc2cc([101O:1][101CH2:1]Cc3cc(C)c(CC[100NH:0][100C:0](=O)N4CCCC(n5nc(-c6ccc(Oc7ccc(F)cc7F)cc6)c(C(N)=O)c5N)C4)cn3)ccc2CC1C(=O)NC1CCCc2ccccc21)C(C)(C)C

> <Shape>
0.229

> <Color>
0.204

> <Negative vol penalty>
0.000

$$$$

  -OEChem-04052317193D

 87 95  0     1  0  0  0  0  0999 V2000
  -37.2896  -13.8862   24.1836 C   0  0  0  0  0  0  0  0  0  0  0  0
  -36.6373  -15.0542   23.8021 C   0  0  0  0  0  0  0  0  0  0  0  0
  -25.9812  -28.5714   25.8024 C   0  0  0  0  0  0  0  0  0  0  0  0
  -23.8741  -27.7867   24.9184 C   0  0  0  0  0  0  0  0  0  0  0  0
  -36.9141  -12.6652   23.6249 C   0  0  0  0  0  0  0  0  0  0  0  0
  -35.6098  -15.0021   22.8608 C   0  0  0  0  0  0  0  0  0  0  0  0
  -30.5807  -18.4934   22.7033 C   0  0  0  0  0  0  0  0  0  0  0  0
  -25.7823  -29.8046   25.1819 C   0  0  0  0  0  0  0  0  0  0  0  0
  -23.6751  -29.0200   24.2980 C   0  0  0  0  0  0  0  0  0  0  0  0
  -30.2559  -19.6381   21.9767 C   0  0  0  0  0  0  0  0  0  0  0  0
  -23.9869  -32.6144   25.7429 C   0  0  0  0  0  0  0  0  0  0  0  0
  -24.2454  -33.7645   26.4887 C   0  0  0  0  0  0  0  0  0  0  0  0
  -29.1376  -18.2708   20.3339 C   0  0  0  0  0  0  0  0  0  0  0  0
  -25.9159  -34.4343   24.8769 C   0  0  0  0  0  0  0  0  0  0  0  0
  -25.0272  -27.5623   25.6706 C   0  0  0  0  0  0  0  0  0  0  0  0
  -24.8286  -25.9125   27.6061 C   0  0  0  0  0  0  0  0  0  0  0  0
  -35.8751  -12.5968   22.6835 C   0  0  0  0  0  0  0  0  0  0  0  0
  -30.1952  -17.2257   22.2442 C   0  0  0  0  0  0  0  0  0  0  0  0
  -35.2210  -13.7793   22.2880 C   0  0  0  0  0  0  0  0  0  0  0  0
  -29.4565  -17.1118   21.0578 C   0  0  0  0  0  0  0  0  0  0  0  0
  -24.6292  -30.0290   24.4298 C   0  0  0  0  0  0  0  0  0  0  0  0
  -29.5368  -19.5267   20.7903 C   0  0  0  0  0  0  0  0  0  0  0  0
  -24.6930  -32.3743   24.5641 C   0  0  0  0  0  0  0  0  0  0  0  0
  -25.2099  -34.6744   26.0557 C   0  0  0  0  0  0  0  0  0  0  0  0
  -25.6574  -33.2842   24.1311 C   0  0  0  0  0  0  0  0  0  0  0  0
  -25.2324  -26.2879   26.3108 C   0  0  0  0  0  0  0  0  0  0  0  0
  -27.8685  -24.1697   17.0791 C   0  0  0  0  0  0  0  0  0  0  0  0
  -28.7969  -24.0066   18.0836 C   0  0  0  0  0  0  0  0  0  0  0  0
  -27.3267  -21.9524   17.2197 C   0  0  0  0  0  0  0  0  0  0  0  0
  -28.2556  -21.7890   18.2237 C   0  0  0  0  0  0  0  0  0  0  0  0
  -25.2566  -24.6139   27.7362 C   0  0  0  0  0  0  0  0  0  0  0  0
  -24.1291  -26.6698   28.6025 C   0  0  0  0  0  0  0  0  0  0  0  0
  -31.7432  -14.5986   21.3467 C   0  0  0  0  0  0  0  0  0  0  0  0
  -28.7507  -13.3554   21.1993 C   0  0  0  0  0  0  0  0  0  0  0  0
  -25.4002  -13.9023   20.8502 C   0  0  0  0  0  0  0  0  0  0  0  0
  -26.4133  -20.2845   23.7652 C   0  0  0  0  0  0  0  0  0  0  0  0
  -35.5363  -11.2604   22.0720 C   0  0  0  0  0  0  0  0  0  0  0  0
  -30.5302  -16.0029   23.0534 C   0  0  0  0  0  0  0  0  0  0  0  0
  -29.0013  -15.7757   20.5323 C   0  0  0  0  0  0  0  0  0  0  0  0
  -34.1863  -11.2411   21.3597 C   0  0  0  0  0  0  0  0  0  0  0  0
  -28.6519  -21.6177   26.1917 C   0  0  0  0  0  0  0  0  0  0  0  0
  -34.0373  -12.4675   20.4649 C   0  0  0  0  0  0  0  0  0  0  0  0
  -27.9929  -22.9319   26.6142 C   0  0  0  0  0  0  0  0  0  0  0  0
  -28.4494  -21.3375   24.7042 C   0  0  0  0  0  0  0  0  0  0  0  0
  -26.3867  -22.6859   24.6756 C   0  0  0  0  0  0  0  0  0  0  0  0
  -34.0851  -13.7602   21.2883 C   0  0  1  0  0  0  0  0  0  0  0  0
  -30.5312  -14.7209   22.2263 C   0  0  1  0  0  0  0  0  0  0  0  0
  -26.5160  -22.9839   26.1792 C   0  0  2  0  0  0  0  0  0  0  0  0
  -27.6451  -25.4947   16.4344 C   0  0  0  0  0  0  0  0  0  0  0  0
  -29.6211  -25.1480   18.5728 C   0  0  0  0  0  0  0  0  0  0  0  0
  -23.2077  -12.6872   20.7315 C   0  0  0  0  0  0  0  0  0  0  0  0
  -29.3810  -12.5027   18.3383 C   0  0  0  0  0  0  0  0  0  0  0  0
  -26.9265  -12.1749   17.9692 C   0  0  0  0  0  0  0  0  0  0  0  0
  -28.1225  -10.8075   19.6788 C   0  0  0  0  0  0  0  0  0  0  0  0
  -24.3745  -15.2787   23.2611 C   0  0  0  0  0  0  0  0  0  0  0  0
  -26.5014  -20.8113   16.7313 C   0  0  0  0  0  0  0  0  0  0  0  0
  -28.4805  -20.4549   18.8723 C   0  0  0  0  0  0  0  0  0  1  0  0
  -24.3072  -19.4273   21.3448 C   0  0  0  0  0  0  0  0  0  0  0  0
  -23.7025  -20.7295   20.8068 C   0  0  0  0  0  0  0  0  0  0  0  0
  -24.2903  -19.3628   22.8693 C   0  0  0  0  0  0  0  0  0  0  0  0
  -25.0530  -20.8287   17.2231 C   0  0  0  0  0  0  0  0  0  0  0  0
  -23.6435  -20.7847   19.2847 C   0  0  0  0  0  0  0  0  0  0  0  0
  -27.6857  -13.2558   20.1340 C   0  0  1  0  0  0  0  0  0  0  0  0
  -24.2082  -13.3881   21.6373 C   0  0  2  0  0  0  0  0  0  0  0  0
  -28.0390  -12.2104   19.0387 C   0  0  0  0  0  0  0  0  0  0  0  0
  -25.8682  -25.3072   25.6643 N   0  0  0  0  0  0  0  0  0  0  0  0
  -27.1167  -23.1455   16.6292 N   0  0  0  0  0  0  0  0  0  0  0  0
  -29.0072  -22.8133   18.6739 N   0  0  0  0  0  0  0  0  0  0  0  0
  -25.8672  -24.3027   26.5571 N   0  0  0  0  0  0  0  0  0  0  0  0
  -29.3589  -14.6090   21.3560 N   0  0  0  0  0  0  0  0  0  0  0  0
  -27.0275  -21.4002   24.3575 N   0  0  0  0  0  0  0  0  0  0  0  0
  -25.1664  -23.7193   28.7432 N   0  0  0  0  0  0  0  0  0  0  0  0
  -23.7636  -27.9896   28.3042 N   0  0  0  0  0  0  0  0  0  0  0  0
  -32.8198  -13.9819   21.9550 N   0  0  0  0  0  0  0  0  0  0  0  0
  -26.4331  -12.9890   20.8328 N   0  0  0  0  0  0  0  0  0  0  0  0
  -25.0619  -20.4255   23.4743 N   0  0  0  0  0  0  0  0  0  0  0  0
  -23.5137  -14.5155   22.3211 N   0  3  0  0  0  0  0  0  0  0  0  0
  -25.0116  -20.7195   18.7023 N   0  3  0  0  0  0  0  0  0  0  0  0
  -23.8512  -26.1958   29.7301 O   0  0  0  0  0  0  0  0  0  0  0  0
  -31.7039  -15.0303   20.2005 O   0  0  0  0  0  0  0  0  0  0  0  0
  -29.0275  -12.3596   21.8726 O   0  0  0  0  0  0  0  0  0  0  0  0
  -25.4122  -15.0024   20.3024 O   0  0  0  0  0  0  0  0  0  0  0  0
  -27.0227  -19.2380   23.5191 O   0  0  0  0  0  0  0  0  0  0  0  0
  -24.4346  -31.2324   23.8244 O   0  0  0  0  0  0  0  0  0  0  0  0
  -29.2190  -20.6424   20.0789 O   0  0  0  0  0  0  0  0  0  1  0  0
  -25.4569  -35.7795   26.7712 F   0  0  0  0  0  0  0  0  0  0  0  0
  -26.3381  -33.0595   22.9988 F   0  0  0  0  0  0  0  0  0  0  0  0
  1  2  1  0  0  0  0
  1  5  2  0  0  0  0
  2  6  2  0  0  0  0
  3  8  2  0  0  0  0
  3 15  1  0  0  0  0
  4  9  1  0  0  0  0
  4 15  2  0  0  0  0
  5 17  1  0  0  0  0
  6 19  1  0  0  0  0
  7 10  2  0  0  0  0
  7 18  1  0  0  0  0
  8 21  1  0  0  0  0
  9 21  2  0  0  0  0
 10 22  1  0  0  0  0
 11 12  2  0  0  0  0
 11 23  1  0  0  0  0
 12 24  1  0  0  0  0
 13 20  1  0  0  0  0
 13 22  2  0  0  0  0
 14 24  2  0  0  0  0
 14 25  1  0  0  0  0
 15 26  1  0  0  0  0
 16 26  1  0  0  0  0
 16 31  2  0  0  0  0
 16 32  1  0  0  0  0
 17 19  2  0  0  0  0
 17 37  1  0  0  0  0
 18 20  2  0  0  0  0
 18 38  1  0  0  0  0
 19 46  1  0  0  0  0
 20 39  1  0  0  0  0
 21 84  1  0  0  0  0
 22 85  1  0  0  0  0
 23 25  2  0  0  0  0
 23 84  1  0  0  0  0
 24 86  1  0  0  0  0
 25 87  1  0  0  0  0
 26 66  2  0  0  0  0
 27 28  1  0  0  0  0
 27 49  1  0  0  0  0
 27 67  2  0  0  0  0
 28 50  1  0  0  0  0
 28 68  2  0  0  0  0
 29 30  2  0  0  0  0
 29 56  1  0  0  0  0
 29 67  1  0  0  0  0
 30 57  1  0  0  0  0
 30 68  1  0  0  0  0
 31 69  1  0  0  0  0
 31 72  1  0  0  0  0
 32 73  1  0  0  0  0
 32 79  2  0  0  0  0
 33 47  1  0  0  0  0
 33 74  1  0  0  0  0
 33 80  2  0  0  0  0
 34 63  1  0  0  0  0
 34 70  1  0  0  0  0
 34 81  2  0  0  0  0
 35 64  1  0  0  0  0
 35 75  1  0  0  0  0
 35 82  2  0  0  0  0
 36 71  1  0  0  0  0
 36 76  1  0  0  0  0
 36 83  2  0  0  0  0
 37 40  1  0  0  0  0
 38 47  1  0  0  0  0
 39 70  1  0  0  0  0
 40 42  1  0  0  0  0
 41 43  1  0  0  0  0
 41 44  1  0  0  0  0
 42 46  1  0  0  0  0
 43 48  1  0  0  0  0
 44 71  1  0  0  0  0
 45 48  1  0  0  0  0
 45 71  1  0  0  0  0
 46 74  1  0  0  0  0
 47 70  1  0  0  0  0
 48 69  1  0  0  0  0
 51 64  1  0  0  0  0
 52 65  1  0  0  0  0
 53 65  1  0  0  0  0
 54 65  1  0  0  0  0
 55 77  1  0  0  0  0
 56 61  1  0  0  0  0
 57 85  1  0  0  0  0
 58 59  1  0  0  0  0
 58 60  1  0  0  0  0
 59 62  1  0  0  0  0
 60 76  1  0  0  0  0
 61 78  1  0  0  0  0
 62 78  1  0  0  0  0
 63 65  1  0  0  0  0
 63 75  1  0  0  0  0
 64 77  1  0  0  0  0
 66 69  1  0  0  0  0
M  CHG  2  77   1  78   1
M  ISO  4  36 100  57 101  76 100  85 101
M  END
> <Batch ID>
0045

> <Smiles>
CNC(C)C(=O)NC(C(=O)N1Cc2cc([101O:1][101CH2:1]c3nc(C)c(C)nc3CCNCCCC[100NH:0][100C:0](=O)N3CCCC(n4nc(-c5ccc(Oc6ccc(F)cc6F)cc5)c(C(N)=O)c4N)C3)ccc2CC1C(=O)NC1CCCc2ccccc21)C(C)(C)C

> <Shape>
0.191

> <Color>
0.072

> <Negative vol penalty>
0.000

$$$$

  -OEChem-04052317193D

 84 92  0     1  0  0  0  0  0999 V2000
  -16.6788  -29.1507   23.9241 C   0  0  0  0  0  0  0  0  0  0  0  0
  -17.2926  -28.3927   22.9320 C   0  0  0  0  0  0  0  0  0  0  0  0
  -26.6451  -11.8809   20.4241 C   0  0  0  0  0  0  0  0  0  0  0  0
  -25.0125  -13.5864   19.9114 C   0  0  0  0  0  0  0  0  0  0  0  0
  -17.2438  -30.3605   24.3253 C   0  0  0  0  0  0  0  0  0  0  0  0
  -18.4713  -28.8448   22.3398 C   0  0  0  0  0  0  0  0  0  0  0  0
  -21.9436  -25.1868   21.8845 C   0  0  0  0  0  0  0  0  0  0  0  0
  -24.5982  -22.3122   17.0915 C   0  0  0  0  0  0  0  0  0  0  0  0
  -25.6727  -11.1576   21.1147 C   0  0  0  0  0  0  0  0  0  0  0  0
  -24.0401  -12.8631   20.6019 C   0  0  0  0  0  0  0  0  0  0  0  0
  -21.7769  -24.2770   20.8414 C   0  0  0  0  0  0  0  0  0  0  0  0
  -23.5331   -8.6864   22.7053 C   0  0  0  0  0  0  0  0  0  0  0  0
  -23.4630   -7.3121   22.4771 C   0  0  0  0  0  0  0  0  0  0  0  0
  -25.9821  -22.3358   16.9584 C   0  0  0  0  0  0  0  0  0  0  0  0
  -23.4116  -25.4808   19.5383 C   0  0  0  0  0  0  0  0  0  0  0  0
  -23.0275   -7.7230   20.1364 C   0  0  0  0  0  0  0  0  0  0  0  0
  -26.3151  -13.0954   19.8225 C   0  0  0  0  0  0  0  0  0  0  0  0
  -27.6435  -13.7432   17.7433 C   0  0  0  0  0  0  0  0  0  0  0  0
  -18.4353  -30.8229   23.7445 C   0  0  0  0  0  0  0  0  0  0  0  0
  -22.8390  -26.2585   21.7580 C   0  0  0  0  0  0  0  0  0  0  0  0
  -19.0521  -30.0626   22.7327 C   0  0  0  0  0  0  0  0  0  0  0  0
  -23.5897  -26.4013   20.5823 C   0  0  0  0  0  0  0  0  0  0  0  0
  -23.9894  -21.2698   17.7814 C   0  0  0  0  0  0  0  0  0  0  0  0
  -24.3702  -11.6487   21.2035 C   0  0  0  0  0  0  0  0  0  0  0  0
  -22.5088  -24.4255   19.6669 C   0  0  0  0  0  0  0  0  0  0  0  0
  -23.3503   -9.5790   21.6491 C   0  0  0  0  0  0  0  0  0  0  0  0
  -23.2102   -6.8304   21.1927 C   0  0  0  0  0  0  0  0  0  0  0  0
  -23.0976   -9.0973   20.3647 C   0  0  0  0  0  0  0  0  0  0  0  0
  -27.3193  -13.8432   19.1095 C   0  0  0  0  0  0  0  0  0  0  0  0
  -26.7062  -21.3015   17.5290 C   0  0  0  0  0  0  0  0  0  0  0  0
  -24.8028  -20.2831   18.3150 C   0  0  0  0  0  0  0  0  0  0  0  0
  -28.6532  -14.6565   17.5622 C   0  0  0  0  0  0  0  0  0  0  0  0
  -27.0821  -12.9001   16.7285 C   0  0  0  0  0  0  0  0  0  0  0  0
  -22.5647  -29.4252   21.7796 C   0  0  0  0  0  0  0  0  0  0  0  0
  -25.8053  -29.3169   21.6861 C   0  0  0  0  0  0  0  0  0  0  0  0
  -28.6236  -27.5740   20.8696 C   0  0  0  0  0  0  0  0  0  0  0  0
  -30.2103  -19.6459   20.4832 C   0  0  0  0  0  0  0  0  0  0  0  0
  -18.9829  -32.1597   24.1777 C   0  0  0  0  0  0  0  0  0  0  0  0
  -23.0270  -27.2160   22.9027 C   0  0  0  0  0  0  0  0  0  0  0  0
  -24.5788  -27.5231   20.4042 C   0  0  0  0  0  0  0  0  0  0  0  0
  -20.4348  -32.3861   23.7643 C   0  0  0  0  0  0  0  0  0  0  0  0
  -32.2441  -16.7817   19.9032 C   0  0  0  0  0  0  0  0  0  0  0  0
  -20.6412  -31.9957   22.3042 C   0  0  0  0  0  0  0  0  0  0  0  0
  -31.2418  -15.6948   19.5108 C   0  0  0  0  0  0  0  0  0  0  0  0
  -31.6778  -17.7115   20.9741 C   0  0  0  0  0  0  0  0  0  0  0  0
  -29.3719  -17.2295   20.2501 C   0  0  0  0  0  0  0  0  0  0  0  0
  -20.3449  -30.5073   22.0839 C   0  0  1  0  0  0  0  0  0  0  0  0
  -23.5881  -28.5659   22.4666 C   0  0  1  0  0  0  0  0  0  0  0  0
  -29.8769  -16.3008   19.1326 C   0  0  2  0  0  0  0  0  0  0  0  0
  -25.2525  -18.3439   19.8394 C   0  0  0  0  0  0  0  0  0  0  0  0
  -31.1261  -27.7608   20.8750 C   0  0  0  0  0  0  0  0  0  0  0  0
  -25.6715  -31.1484   19.2494 C   0  0  0  0  0  0  0  0  0  0  0  0
  -28.0455  -30.5342   18.7443 C   0  0  0  0  0  0  0  0  0  0  0  0
  -27.4885  -31.7059   20.8749 C   0  0  0  0  0  0  0  0  0  0  0  0
  -28.9082  -25.2597   22.6921 C   0  0  0  0  0  0  0  0  0  0  0  0
  -22.4875  -21.2380   17.9281 C   0  0  0  0  0  0  0  0  0  0  0  0
  -28.1936  -21.2961   17.4069 C   0  0  0  0  0  0  0  0  0  0  0  0
  -24.2044  -19.1409   19.0688 C   0  0  0  0  0  0  0  0  0  0  0  0
  -28.9292  -22.0248   18.5484 C   0  0  0  0  0  0  0  0  0  0  0  0
  -28.6261  -21.4779   19.9417 C   0  0  0  0  0  0  0  0  0  0  0  0
  -21.9888  -22.2034   18.9978 C   0  0  0  0  0  0  0  0  0  1  0  0
  -26.8426  -29.2782   20.5899 C   0  0  1  0  0  0  0  0  0  0  0  0
  -29.8989  -27.3000   21.6461 C   0  0  2  0  0  0  0  0  0  0  0  0
  -26.9921  -30.6465   19.8669 C   0  0  0  0  0  0  0  0  0  0  0  0
  -28.0629  -14.7486   19.7510 N   0  0  0  0  0  0  0  0  0  0  0  0
  -26.1502  -20.2721   18.2064 N   0  0  0  0  0  0  0  0  0  0  0  0
  -28.8644  -15.2257   18.7836 N   0  0  0  0  0  0  0  0  0  0  0  0
  -24.7223  -28.4370   21.5496 N   0  0  0  0  0  0  0  0  0  0  0  0
  -30.3837  -18.2538   20.5530 N   0  0  0  0  0  0  0  0  0  0  0  0
  -29.3722  -15.0201   16.4791 N   0  0  0  0  0  0  0  0  0  0  0  0
  -26.0516  -12.0200   17.0859 N   0  0  0  0  0  0  0  0  0  0  0  0
  -21.4503  -29.6976   22.5499 N   0  0  0  0  0  0  0  0  0  0  0  0
  -28.0713  -28.7914   21.2076 N   0  0  0  0  0  0  0  0  0  0  0  0
  -28.9555  -20.0758   20.0691 N   0  0  0  0  0  0  0  0  0  0  0  0
  -30.0358  -25.8414   21.9193 N   0  3  0  0  0  0  0  0  0  0  0  0
  -27.4937  -12.9147   15.5437 O   0  0  0  0  0  0  0  0  0  0  0  0
  -22.7716  -29.8137   20.6359 O   0  0  0  0  0  0  0  0  0  0  0  0
  -25.9543  -30.0940   22.6325 O   0  0  0  0  0  0  0  0  0  0  0  0
  -28.1653  -26.7885   20.0429 O   0  0  0  0  0  0  0  0  0  0  0  0
  -31.1089  -20.4464   20.7637 O   0  0  0  0  0  0  0  0  0  0  0  0
  -23.4210  -10.9431   21.8771 O   0  0  0  0  0  0  0  0  0  0  0  0
  -22.3476  -23.5392   18.6469 O   0  0  0  0  0  0  0  0  0  1  0  0
  -23.1445   -5.5107   20.9734 F   0  0  0  0  0  0  0  0  0  0  0  0
  -22.9223   -9.9499   19.3458 F   0  0  0  0  0  0  0  0  0  0  0  0
  1  2  1  0  0  0  0
  1  5  2  0  0  0  0
  2  6  2  0  0  0  0
  3  9  2  0  0  0  0
  3 17  1  0  0  0  0
  4 10  1  0  0  0  0
  4 17  2  0  0  0  0
  5 19  1  0  0  0  0
  6 21  1  0  0  0  0
  7 11  2  0  0  0  0
  7 20  1  0  0  0  0
  8 14  2  0  0  0  0
  8 23  1  0  0  0  0
  9 24  1  0  0  0  0
 10 24  2  0  0  0  0
 11 25  1  0  0  0  0
 12 13  2  0  0  0  0
 12 26  1  0  0  0  0
 13 27  1  0  0  0  0
 14 30  1  0  0  0  0
 15 22  1  0  0  0  0
 15 25  2  0  0  0  0
 16 27  2  0  0  0  0
 16 28  1  0  0  0  0
 17 29  1  0  0  0  0
 18 29  1  0  0  0  0
 18 32  2  0  0  0  0
 18 33  1  0  0  0  0
 19 21  2  0  0  0  0
 19 38  1  0  0  0  0
 20 22  2  0  0  0  0
 20 39  1  0  0  0  0
 21 47  1  0  0  0  0
 22 40  1  0  0  0  0
 23 31  2  0  0  0  0
 23 56  1  0  0  0  0
 24 81  1  0  0  0  0
 25 82  1  0  0  0  0
 26 28  2  0  0  0  0
 26 81  1  0  0  0  0
 27 83  1  0  0  0  0
 28 84  1  0  0  0  0
 29 65  2  0  0  0  0
 30 57  1  0  0  0  0
 30 66  2  0  0  0  0
 31 58  1  0  0  0  0
 31 66  1  0  0  0  0
 32 67  1  0  0  0  0
 32 70  1  0  0  0  0
 33 71  1  0  0  0  0
 33 76  2  0  0  0  0
 34 48  1  0  0  0  0
 34 72  1  0  0  0  0
 34 77  2  0  0  0  0
 35 62  1  0  0  0  0
 35 68  1  0  0  0  0
 35 78  2  0  0  0  0
 36 63  1  0  0  0  0
 36 73  1  0  0  0  0
 36 79  2  0  0  0  0
 37 69  1  0  0  0  0
 37 74  1  0  0  0  0
 37 80  2  0  0  0  0
 38 41  1  0  0  0  0
 39 48  1  0  0  0  0
 40 68  1  0  0  0  0
 41 43  1  0  0  0  0
 42 44  1  0  0  0  0
 42 45  1  0  0  0  0
 43 47  1  0  0  0  0
 44 49  1  0  0  0  0
 45 69  1  0  0  0  0
 46 49  1  0  0  0  0
 46 69  1  0  0  0  0
 47 72  1  0  0  0  0
 48 68  1  0  0  0  0
 49 67  1  0  0  0  0
 50 58  1  0  0  0  0
 51 63  1  0  0  0  0
 52 64  1  0  0  0  0
 53 64  1  0  0  0  0
 54 64  1  0  0  0  0
 55 75  1  0  0  0  0
 56 61  1  0  0  0  0
 57 59  1  0  0  0  0
 59 60  1  0  0  0  0
 60 74  1  0  0  0  0
 61 82  1  0  0  0  0
 62 64  1  0  0  0  0
 62 73  1  0  0  0  0
 63 75  1  0  0  0  0
 65 67  1  0  0  0  0
M  CHG  1  75   1
M  ISO  4  37 100  61 101  74 100  82 101
M  END
> <Batch ID>
0045

> <Smiles>
CCc1nc(CCC[100NH:0][100C:0](=O)N2CCCC(n3nc(-c4ccc(Oc5ccc(F)cc5F)cc4)c(C(N)=O)c3N)C2)ccc1C[101CH2:1][101O:1]c1ccc2c(c1)CN(C(=O)C(NC(=O)C(C)NC)C(C)(C)C)C(C(=O)NC1CCCc3ccccc31)C2

> <Shape>
0.259

> <Color>
0.077

> <Negative vol penalty>
0.000

$$$$

  -OEChem-04052317193D

 85 93  0     1  0  0  0  0  0999 V2000
  -24.6010   -7.6926   23.7674 C   0  0  0  0  0  0  0  0  0  0  0  0
  -25.5573   -8.7008   23.8347 C   0  0  0  0  0  0  0  0  0  0  0  0
  -28.8196  -26.1583   18.9497 C   0  0  0  0  0  0  0  0  0  0  0  0
  -26.5334  -25.4094   19.1724 C   0  0  0  0  0  0  0  0  0  0  0  0
  -23.5949   -7.7509   22.8040 C   0  0  0  0  0  0  0  0  0  0  0  0
  -25.5086   -9.7674   22.9378 C   0  0  0  0  0  0  0  0  0  0  0  0
  -27.0509  -15.5884   24.0528 C   0  0  0  0  0  0  0  0  0  0  0  0
  -28.3884  -27.4844   18.9825 C   0  0  0  0  0  0  0  0  0  0  0  0
  -26.1022  -26.7355   19.2053 C   0  0  0  0  0  0  0  0  0  0  0  0
  -28.2092  -16.3187   23.7903 C   0  0  0  0  0  0  0  0  0  0  0  0
  -25.9672  -29.2541   21.4545 C   0  0  0  0  0  0  0  0  0  0  0  0
  -25.0241  -29.6035   22.4208 C   0  0  0  0  0  0  0  0  0  0  0  0
  -27.2106  -17.1622   21.7628 C   0  0  0  0  0  0  0  0  0  0  0  0
  -23.4891  -30.2747   20.6800 C   0  0  0  0  0  0  0  0  0  0  0  0
  -32.3066  -14.8292   21.0694 C   0  0  0  0  0  0  0  0  0  0  0  0
  -27.8921  -25.1208   19.0446 C   0  0  0  0  0  0  0  0  0  0  0  0
  -28.7061  -22.9490   20.1069 C   0  0  0  0  0  0  0  0  0  0  0  0
  -23.5282   -8.8237   21.9011 C   0  0  0  0  0  0  0  0  0  0  0  0
  -25.9661  -15.6311   23.1653 C   0  0  0  0  0  0  0  0  0  0  0  0
  -24.5014   -9.8394   21.9605 C   0  0  0  0  0  0  0  0  0  0  0  0
  -26.0387  -16.4335   22.0177 C   0  0  0  0  0  0  0  0  0  0  0  0
  -31.5908  -15.7771   20.3138 C   0  0  0  0  0  0  0  0  0  0  0  0
  -27.0297  -27.7730   19.1103 C   0  0  0  0  0  0  0  0  0  0  0  0
  -28.2903  -17.1034   22.6437 C   0  0  0  0  0  0  0  0  0  0  0  0
  -25.6714  -29.4151   20.1008 C   0  0  0  0  0  0  0  0  0  0  0  0
  -23.7850  -30.1138   22.0336 C   0  0  0  0  0  0  0  0  0  0  0  0
  -24.4323  -29.9253   19.7136 C   0  0  0  0  0  0  0  0  0  0  0  0
  -28.3368  -23.7507   19.0102 C   0  0  0  0  0  0  0  0  0  0  0  0
  -30.9071  -15.0307   19.3854 C   0  0  0  0  0  0  0  0  0  0  0  0
  -29.0468  -21.7407   19.5496 C   0  0  0  0  0  0  0  0  0  0  0  0
  -28.7383  -23.2680   21.5043 C   0  0  0  0  0  0  0  0  0  0  0  0
  -24.4447  -13.4877   21.3778 C   0  0  0  0  0  0  0  0  0  0  0  0
  -22.4464  -15.9740   20.7879 C   0  0  0  0  0  0  0  0  0  0  0  0
  -21.9857  -19.3530   20.6584 C   0  0  0  0  0  0  0  0  0  0  0  0
  -28.0471  -17.5775   15.9700 C   0  0  0  0  0  0  0  0  0  0  0  0
  -22.4499   -8.8191   20.8466 C   0  0  0  0  0  0  0  0  0  0  0  0
  -24.7136  -14.8585   23.4765 C   0  0  0  0  0  0  0  0  0  0  0  0
  -24.8941  -16.5296   21.0434 C   0  0  0  0  0  0  0  0  0  0  0  0
  -22.2490  -10.1751   20.1748 C   0  0  0  0  0  0  0  0  0  0  0  0
  -29.7701  -20.4306   14.7178 C   0  0  0  0  0  0  0  0  0  0  0  0
  -23.5931  -10.7821   19.7852 C   0  0  0  0  0  0  0  0  0  0  0  0
  -29.5759  -21.4837   15.8101 C   0  0  0  0  0  0  0  0  0  0  0  0
  -28.5319  -19.5518   14.5545 C   0  0  0  0  0  0  0  0  0  0  0  0
  -27.8618  -19.9686   16.8893 C   0  0  0  0  0  0  0  0  0  0  0  0
  -24.4676  -11.0254   21.0211 C   0  0  1  0  0  0  0  0  0  0  0  0
  -23.8654  -14.5726   22.2411 C   0  0  1  0  0  0  0  0  0  0  0  0
  -29.1044  -20.8430   17.1293 C   0  0  2  0  0  0  0  0  0  0  0  0
  -20.2565  -21.0856   20.1060 C   0  0  0  0  0  0  0  0  0  0  0  0
  -29.9685  -11.6280   19.8170 C   0  0  0  0  0  0  0  0  0  0  0  0
  -31.9219  -11.8278   18.2200 C   0  0  0  0  0  0  0  0  0  0  0  0
  -22.8767  -15.4512   17.8127 C   0  0  0  0  0  0  0  0  0  0  0  0
  -21.9344  -17.7238   17.3483 C   0  0  0  0  0  0  0  0  0  0  0  0
  -20.5181  -15.9890   18.4470 C   0  0  0  0  0  0  0  0  0  0  0  0
  -22.0473  -20.4573   23.4036 C   0  0  0  0  0  0  0  0  0  0  0  0
  -31.5808  -17.2747   20.4892 C   0  0  0  0  0  0  0  0  0  0  0  0
  -29.9836  -15.4278   18.3057 C   0  0  0  0  0  0  0  0  0  0  0  0
  -31.7755  -17.7264   21.9383 C   0  0  0  0  0  0  0  0  0  0  0  0
  -28.4807  -15.2452   18.6302 C   0  0  0  0  0  0  0  0  0  0  0  0
  -27.5429  -15.7015   17.5145 C   0  0  0  0  0  0  0  0  0  0  0  0
  -30.6515  -17.2801   22.8660 C   0  0  0  0  0  0  0  0  0  1  0  0
  -22.3864  -17.0763   19.7582 C   0  0  1  0  0  0  0  0  0  0  0  0
  -20.8822  -20.2408   21.2049 C   0  0  2  0  0  0  0  0  0  0  0  0
  -30.7773  -12.5650   18.9179 C   0  0  0  0  0  0  0  0  0  0  0  0
  -21.9514  -16.5570   18.3587 C   0  0  0  0  0  0  0  0  0  0  0  0
  -32.0970  -13.5763   20.6568 N   0  0  0  0  0  0  0  0  0  0  0  0
  -28.4339  -23.1061   17.8444 N   0  0  0  0  0  0  0  0  0  0  0  0
  -31.2417  -13.7317   19.6319 N   0  0  0  0  0  0  0  0  0  0  0  0
  -28.8681  -21.8866   18.2054 N   0  0  0  0  0  0  0  0  0  0  0  0
  -23.6934  -15.7506   21.3886 N   0  0  0  0  0  0  0  0  0  0  0  0
  -28.1379  -18.9733   15.8414 N   0  0  0  0  0  0  0  0  0  0  0  0
  -29.4788  -20.5784   20.0833 N   0  0  0  0  0  0  0  0  0  0  0  0
  -28.3562  -24.5557   21.9047 N   0  0  0  0  0  0  0  0  0  0  0  0
  -24.0325  -12.2145   21.7220 N   0  0  0  0  0  0  0  0  0  0  0  0
  -21.5126  -18.1050   20.3119 N   0  0  0  0  0  0  0  0  0  0  0  0
  -27.6734  -17.1121   17.2248 N   0  0  0  0  0  0  0  0  0  0  0  0
  -21.4228  -21.1550   22.2503 N   0  3  0  0  0  0  0  0  0  0  0  0
  -29.1109  -22.4409   22.3707 O   0  0  0  0  0  0  0  0  0  0  0  0
  -25.2078  -13.7841   20.4659 O   0  0  0  0  0  0  0  0  0  0  0  0
  -21.4228  -15.3394   21.0547 O   0  0  0  0  0  0  0  0  0  0  0  0
  -23.1500  -19.7302   20.5465 O   0  0  0  0  0  0  0  0  0  0  0  0
  -28.2868  -16.8033   15.0373 O   0  0  0  0  0  0  0  0  0  0  0  0
  -26.6086  -29.0669   19.1426 O   0  0  0  0  0  0  0  0  0  0  0  0
  -29.4199  -17.8167   22.3847 O   0  0  0  0  0  0  0  0  0  1  0  0
  -22.8787  -30.4479   22.9617 F   0  0  0  0  0  0  0  0  0  0  0  0
  -24.1419  -30.0810   18.4147 F   0  0  0  0  0  0  0  0  0  0  0  0
  1  2  1  0  0  0  0
  1  5  2  0  0  0  0
  2  6  2  0  0  0  0
  3  8  2  0  0  0  0
  3 16  1  0  0  0  0
  4  9  1  0  0  0  0
  4 16  2  0  0  0  0
  5 18  1  0  0  0  0
  6 20  1  0  0  0  0
  7 10  2  0  0  0  0
  7 19  1  0  0  0  0
  8 23  1  0  0  0  0
  9 23  2  0  0  0  0
 10 24  1  0  0  0  0
 11 12  2  0  0  0  0
 11 25  1  0  0  0  0
 12 26  1  0  0  0  0
 13 21  1  0  0  0  0
 13 24  2  0  0  0  0
 14 26  2  0  0  0  0
 14 27  1  0  0  0  0
 15 22  1  0  0  0  0
 15 65  2  0  0  0  0
 16 28  1  0  0  0  0
 17 28  1  0  0  0  0
 17 30  2  0  0  0  0
 17 31  1  0  0  0  0
 18 20  2  0  0  0  0
 18 36  1  0  0  0  0
 19 21  2  0  0  0  0
 19 37  1  0  0  0  0
 20 45  1  0  0  0  0
 21 38  1  0  0  0  0
 22 29  2  0  0  0  0
 22 55  1  0  0  0  0
 23 82  1  0  0  0  0
 24 83  1  0  0  0  0
 25 27  2  0  0  0  0
 25 82  1  0  0  0  0
 26 84  1  0  0  0  0
 27 85  1  0  0  0  0
 28 66  2  0  0  0  0
 29 56  1  0  0  0  0
 29 67  1  0  0  0  0
 30 68  1  0  0  0  0
 30 71  1  0  0  0  0
 31 72  1  0  0  0  0
 31 77  2  0  0  0  0
 32 46  1  0  0  0  0
 32 73  1  0  0  0  0
 32 78  2  0  0  0  0
 33 61  1  0  0  0  0
 33 69  1  0  0  0  0
 33 79  2  0  0  0  0
 34 62  1  0  0  0  0
 34 74  1  0  0  0  0
 34 80  2  0  0  0  0
 35 70  1  0  0  0  0
 35 75  1  0  0  0  0
 35 81  2  0  0  0  0
 36 39  1  0  0  0  0
 37 46  1  0  0  0  0
 38 69  1  0  0  0  0
 39 41  1  0  0  0  0
 40 42  1  0  0  0  0
 40 43  1  0  0  0  0
 41 45  1  0  0  0  0
 42 47  1  0  0  0  0
 43 70  1  0  0  0  0
 44 47  1  0  0  0  0
 44 70  1  0  0  0  0
 45 73  1  0  0  0  0
 46 69  1  0  0  0  0
 47 68  1  0  0  0  0
 48 62  1  0  0  0  0
 49 63  1  0  0  0  0
 50 63  1  0  0  0  0
 51 64  1  0  0  0  0
 52 64  1  0  0  0  0
 53 64  1  0  0  0  0
 54 76  1  0  0  0  0
 55 57  1  0  0  0  0
 56 58  1  0  0  0  0
 57 60  1  0  0  0  0
 58 59  1  0  0  0  0
 59 75  1  0  0  0  0
 60 83  1  0  0  0  0
 61 64  1  0  0  0  0
 61 74  1  0  0  0  0
 62 76  1  0  0  0  0
 63 67  1  0  0  0  0
 65 67  1  0  0  0  0
 66 68  1  0  0  0  0
M  CHG  1  76   1
M  ISO  4  35 100  60 101  75 100  83 101
M  END
> <Batch ID>
0045

> <Smiles>
CNC(C)C(=O)NC(C(=O)N1Cc2cc([101O:1][101CH2:1]CCc3cnn(C(C)C)c3CCC[100NH:0][100C:0](=O)N3CCCC(n4nc(-c5ccc(Oc6ccc(F)cc6F)cc5)c(C(N)=O)c4N)C3)ccc2CC1C(=O)NC1CCCc2ccccc21)C(C)(C)C

> <Shape>
0.220

> <Color>
0.060

> <Negative vol penalty>
0.000

$$$$

  -OEChem-04052317193D

 84 92  0     1  0  0  0  0  0999 V2000
  -22.3336  -11.6185   20.0720 C   0  0  0  0  0  0  0  0  0  0  0  0
  -21.9312  -12.8769   20.5077 C   0  0  0  0  0  0  0  0  0  0  0  0
  -23.5759  -31.9285   21.8257 C   0  0  0  0  0  0  0  0  0  0  0  0
  -23.0624  -31.1347   24.0490 C   0  0  0  0  0  0  0  0  0  0  0  0
  -23.6900  -11.2994   20.0240 C   0  0  0  0  0  0  0  0  0  0  0  0
  -22.8851  -13.8168   20.8966 C   0  0  0  0  0  0  0  0  0  0  0  0
  -22.5996  -19.8860   20.1296 C   0  0  0  0  0  0  0  0  0  0  0  0
  -22.3106  -32.5093   21.7408 C   0  0  0  0  0  0  0  0  0  0  0  0
  -21.7971  -31.7155   23.9642 C   0  0  0  0  0  0  0  0  0  0  0  0
  -22.2327  -20.9234   20.9857 C   0  0  0  0  0  0  0  0  0  0  0  0
  -18.3004  -32.6803   24.1939 C   0  0  0  0  0  0  0  0  0  0  0  0
  -17.2097  -31.9238   24.6224 C   0  0  0  0  0  0  0  0  0  0  0  0
  -24.5541  -21.2846   21.5334 C   0  0  0  0  0  0  0  0  0  0  0  0
  -20.9674  -25.4158   23.2057 C   0  0  0  0  0  0  0  0  0  0  0  0
  -17.7252  -30.2424   22.9658 C   0  0  0  0  0  0  0  0  0  0  0  0
  -23.9518  -31.2411   22.9798 C   0  0  0  0  0  0  0  0  0  0  0  0
  -26.4375  -31.2371   23.5534 C   0  0  0  0  0  0  0  0  0  0  0  0
  -24.6614  -12.2392   20.4034 C   0  0  0  0  0  0  0  0  0  0  0  0
  -23.9480  -19.5324   19.9770 C   0  0  0  0  0  0  0  0  0  0  0  0
  -24.2557  -13.5095   20.8549 C   0  0  0  0  0  0  0  0  0  0  0  0
  -24.9357  -20.2440   20.6728 C   0  0  0  0  0  0  0  0  0  0  0  0
  -21.2780  -24.0836   23.5744 C   0  0  0  0  0  0  0  0  0  0  0  0
  -21.4212  -32.4029   22.8100 C   0  0  0  0  0  0  0  0  0  0  0  0
  -23.2097  -21.6210   21.6900 C   0  0  0  0  0  0  0  0  0  0  0  0
  -19.1035  -32.2179   23.1513 C   0  0  0  0  0  0  0  0  0  0  0  0
  -16.9221  -30.7048   24.0083 C   0  0  0  0  0  0  0  0  0  0  0  0
  -18.8159  -30.9989   22.5373 C   0  0  0  0  0  0  0  0  0  0  0  0
  -25.2585  -30.6404   23.0679 C   0  0  0  0  0  0  0  0  0  0  0  0
  -20.8883  -26.1556   24.3649 C   0  0  0  0  0  0  0  0  0  0  0  0
  -21.3791  -24.0499   24.9478 C   0  0  0  0  0  0  0  0  0  0  0  0
  -27.3943  -30.2599   23.4265 C   0  0  0  0  0  0  0  0  0  0  0  0
  -26.6488  -32.5566   24.0728 C   0  0  0  0  0  0  0  0  0  0  0  0
  -25.6582  -16.9139   20.5447 C   0  0  0  0  0  0  0  0  0  0  0  0
  -28.0141  -18.6101   19.0972 C   0  0  0  0  0  0  0  0  0  0  0  0
  -29.2803  -21.6614   18.2411 C   0  0  0  0  0  0  0  0  0  0  0  0
  -27.1172  -24.2817   23.2385 C   0  0  0  0  0  0  0  0  0  0  0  0
  -26.1135  -11.8322   20.3794 C   0  0  0  0  0  0  0  0  0  0  0  0
  -24.3295  -18.4285   19.0293 C   0  0  0  0  0  0  0  0  0  0  0  0
  -26.3988  -19.9168   20.5285 C   0  0  0  0  0  0  0  0  0  0  0  0
  -27.0782  -13.0130   20.4531 C   0  0  0  0  0  0  0  0  0  0  0  0
  -28.5149  -26.4386   20.7746 C   0  0  0  0  0  0  0  0  0  0  0  0
  -26.6512  -13.9836   21.5496 C   0  0  0  0  0  0  0  0  0  0  0  0
  -27.9452  -27.8139   21.1267 C   0  0  0  0  0  0  0  0  0  0  0  0
  -27.4993  -25.3260   21.0249 C   0  0  0  0  0  0  0  0  0  0  0  0
  -26.3544  -26.6819   22.7350 C   0  0  0  0  0  0  0  0  0  0  0  0
  -25.2615  -14.5645   21.2616 C   0  0  1  0  0  0  0  0  0  0  0  0
  -25.6908  -17.8154   19.3431 C   0  0  1  0  0  0  0  0  0  0  0  0
  -27.3611  -27.8306   22.5521 C   0  0  2  0  0  0  0  0  0  0  0  0
  -20.5943  -27.5912   24.5533 C   0  0  0  0  0  0  0  0  0  0  0  0
  -31.2405  -22.7295   17.0947 C   0  0  0  0  0  0  0  0  0  0  0  0
  -29.7438  -18.0629   21.5504 C   0  0  0  0  0  0  0  0  0  0  0  0
  -31.2742  -19.8941   20.7935 C   0  0  0  0  0  0  0  0  0  0  0  0
  -30.9446  -17.8761   19.3646 C   0  0  0  0  0  0  0  0  0  0  0  0
  -21.1515  -25.7044   26.8120 C   0  0  0  0  0  0  0  0  0  0  0  0
  -27.5505  -22.8990   16.1832 C   0  0  0  0  0  0  0  0  0  0  0  0
  -21.4621  -22.9280   22.6353 C   0  0  0  0  0  0  0  0  0  1  0  0
  -21.6829  -22.9212   25.8531 C   0  0  0  0  0  0  0  0  0  0  0  0
  -25.4532  -22.4687   25.4671 C   0  0  0  0  0  0  0  0  0  0  0  0
  -26.6758  -23.3791   25.5078 C   0  0  0  0  0  0  0  0  0  0  0  0
  -24.1571  -23.2317   25.7087 C   0  0  0  0  0  0  0  0  0  0  0  0
  -29.0801  -19.5720   19.5634 C   0  0  1  0  0  0  0  0  0  0  0  0
  -29.8274  -22.1927   16.9285 C   0  0  2  0  0  0  0  0  0  0  0  0
  -30.2330  -18.8564   20.3224 C   0  0  0  0  0  0  0  0  0  0  0  0
  -25.4468  -29.3817   22.6625 N   0  0  0  0  0  0  0  0  0  0  0  0
  -21.1400  -25.3149   25.4176 N   0  0  0  0  0  0  0  0  0  0  0  0
  -26.7553  -29.1795   22.8930 N   0  0  0  0  0  0  0  0  0  0  0  0
  -26.7210  -18.8252   19.5947 N   0  0  0  0  0  0  0  0  0  0  0  0
  -26.9852  -25.3970   22.3948 N   0  0  0  0  0  0  0  0  0  0  0  0
  -28.7116  -30.2281   23.7201 N   0  0  0  0  0  0  0  0  0  0  0  0
  -25.5572  -33.4337   24.1331 N   0  0  0  0  0  0  0  0  0  0  0  0
  -25.3454  -15.5997   20.2538 N   0  0  0  0  0  0  0  0  0  0  0  0
  -29.5105  -20.3090   18.3803 N   0  0  0  0  0  0  0  0  0  0  0  0
  -26.6089  -24.4353   24.5226 N   0  0  0  0  0  0  0  0  0  0  0  0
  -28.9638  -23.2934   16.4150 N   0  3  0  0  0  0  0  0  0  0  0  0
  -23.0145  -22.2902   25.6058 N   0  3  0  0  0  0  0  0  0  0  0  0
  -27.7758  -32.9518   24.4565 O   0  0  0  0  0  0  0  0  0  0  0  0
  -25.9006  -17.3760   21.6535 O   0  0  0  0  0  0  0  0  0  0  0  0
  -28.3160  -17.7057   18.3146 O   0  0  0  0  0  0  0  0  0  0  0  0
  -28.7094  -22.3754   19.0625 O   0  0  0  0  0  0  0  0  0  0  0  0
  -27.6534  -23.2291   22.8761 O   0  0  0  0  0  0  0  0  0  0  0  0
  -20.1865  -32.9697   22.7276 O   0  0  0  0  0  0  0  0  0  0  0  0
  -22.8542  -22.6336   22.5267 O   0  0  0  0  0  0  0  0  0  1  0  0
  -15.8755  -29.9777   24.4209 F   0  0  0  0  0  0  0  0  0  0  0  0
  -19.5845  -30.5490   21.5360 F   0  0  0  0  0  0  0  0  0  0  0  0
  1  2  1  0  0  0  0
  1  5  2  0  0  0  0
  2  6  2  0  0  0  0
  3  8  2  0  0  0  0
  3 16  1  0  0  0  0
  4  9  1  0  0  0  0
  4 16  2  0  0  0  0
  5 18  1  0  0  0  0
  6 20  1  0  0  0  0
  7 10  2  0  0  0  0
  7 19  1  0  0  0  0
  8 23  1  0  0  0  0
  9 23  2  0  0  0  0
 10 24  1  0  0  0  0
 11 12  2  0  0  0  0
 11 25  1  0  0  0  0
 12 26  1  0  0  0  0
 13 21  1  0  0  0  0
 13 24  2  0  0  0  0
 14 22  1  0  0  0  0
 14 29  2  0  0  0  0
 15 26  2  0  0  0  0
 15 27  1  0  0  0  0
 16 28  1  0  0  0  0
 17 28  1  0  0  0  0
 17 31  2  0  0  0  0
 17 32  1  0  0  0  0
 18 20  2  0  0  0  0
 18 37  1  0  0  0  0
 19 21  2  0  0  0  0
 19 38  1  0  0  0  0
 20 46  1  0  0  0  0
 21 39  1  0  0  0  0
 22 30  2  0  0  0  0
 22 56  1  0  0  0  0
 23 81  1  0  0  0  0
 24 82  1  0  0  0  0
 25 27  2  0  0  0  0
 25 81  1  0  0  0  0
 26 83  1  0  0  0  0
 27 84  1  0  0  0  0
 28 64  2  0  0  0  0
 29 49  1  0  0  0  0
 29 65  1  0  0  0  0
 30 57  1  0  0  0  0
 30 65  1  0  0  0  0
 31 66  1  0  0  0  0
 31 69  1  0  0  0  0
 32 70  1  0  0  0  0
 32 76  2  0  0  0  0
 33 47  1  0  0  0  0
 33 71  1  0  0  0  0
 33 77  2  0  0  0  0
 34 61  1  0  0  0  0
 34 67  1  0  0  0  0
 34 78  2  0  0  0  0
 35 62  1  0  0  0  0
 35 72  1  0  0  0  0
 35 79  2  0  0  0  0
 36 68  1  0  0  0  0
 36 73  1  0  0  0  0
 36 80  2  0  0  0  0
 37 40  1  0  0  0  0
 38 47  1  0  0  0  0
 39 67  1  0  0  0  0
 40 42  1  0  0  0  0
 41 43  1  0  0  0  0
 41 44  1  0  0  0  0
 42 46  1  0  0  0  0
 43 48  1  0  0  0  0
 44 68  1  0  0  0  0
 45 48  1  0  0  0  0
 45 68  1  0  0  0  0
 46 71  1  0  0  0  0
 47 67  1  0  0  0  0
 48 66  1  0  0  0  0
 50 62  1  0  0  0  0
 51 63  1  0  0  0  0
 52 63  1  0  0  0  0
 53 63  1  0  0  0  0
 54 65  1  0  0  0  0
 55 74  1  0  0  0  0
 56 82  1  0  0  0  0
 57 75  1  0  0  0  0
 58 59  1  0  0  0  0
 58 60  1  0  0  0  0
 59 73  1  0  0  0  0
 60 75  1  0  0  0  0
 61 63  1  0  0  0  0
 61 72  1  0  0  0  0
 62 74  1  0  0  0  0
 64 66  1  0  0  0  0
M  CHG  2  74   1  75   1
M  ISO  4  36 100  56 101  73 100  82 101
M  END
> <Batch ID>
0045

> <Smiles>
CNC(C)C(=O)NC(C(=O)N1Cc2cc([101O:1][101CH2:1]c3cc(C)n(C)c3CNCCC[100NH:0][100C:0](=O)N3CCCC(n4nc(-c5ccc(Oc6ccc(F)cc6F)cc5)c(C(N)=O)c4N)C3)ccc2CC1C(=O)NC1CCCc2ccccc21)C(C)(C)C

> <Shape>
0.211

> <Color>
0.054

> <Negative vol penalty>
0.000

$$$$

  -OEChem-04052317193D

 83 91  0     1  0  0  0  0  0999 V2000
  -27.5595  -35.2188   23.3404 C   0  0  0  0  0  0  0  0  0  0  0  0
  -28.2909  -34.2068   22.7270 C   0  0  0  0  0  0  0  0  0  0  0  0
  -22.9571  -10.1151   19.9134 C   0  0  0  0  0  0  0  0  0  0  0  0
  -23.7994   -9.9111   22.1686 C   0  0  0  0  0  0  0  0  0  0  0  0
  -26.3778  -34.9131   24.0142 C   0  0  0  0  0  0  0  0  0  0  0  0
  -27.8415  -32.8882   22.7880 C   0  0  0  0  0  0  0  0  0  0  0  0
  -27.7610  -26.8348   18.9582 C   0  0  0  0  0  0  0  0  0  0  0  0
  -22.1498   -8.9953   20.1136 C   0  0  0  0  0  0  0  0  0  0  0  0
  -22.9921   -8.7914   22.3688 C   0  0  0  0  0  0  0  0  0  0  0  0
  -28.0837  -25.4834   19.0729 C   0  0  0  0  0  0  0  0  0  0  0  0
  -19.7433   -8.1542   23.0471 C   0  0  0  0  0  0  0  0  0  0  0  0
  -19.0288   -8.0777   24.2426 C   0  0  0  0  0  0  0  0  0  0  0  0
  -25.9869  -25.0844   20.1970 C   0  0  0  0  0  0  0  0  0  0  0  0
  -20.1684   -6.0193   24.7920 C   0  0  0  0  0  0  0  0  0  0  0  0
  -29.2070  -20.7077   20.6607 C   0  0  0  0  0  0  0  0  0  0  0  0
  -23.7819  -10.5729   20.9408 C   0  0  0  0  0  0  0  0  0  0  0  0
  -24.2818  -13.0742   20.9813 C   0  0  0  0  0  0  0  0  0  0  0  0
  -25.9087  -33.5914   24.0752 C   0  0  0  0  0  0  0  0  0  0  0  0
  -26.5517  -27.3240   19.4726 C   0  0  0  0  0  0  0  0  0  0  0  0
  -26.6531  -32.5643   23.4643 C   0  0  0  0  0  0  0  0  0  0  0  0
  -25.6501  -26.4420   20.0852 C   0  0  0  0  0  0  0  0  0  0  0  0
  -22.1673   -8.3335   21.3413 C   0  0  0  0  0  0  0  0  0  0  0  0
  -27.1979  -24.6084   19.6950 C   0  0  0  0  0  0  0  0  0  0  0  0
  -20.6704   -7.1632   22.7240 C   0  0  0  0  0  0  0  0  0  0  0  0
  -19.2414   -7.0103   25.1150 C   0  0  0  0  0  0  0  0  0  0  0  0
  -20.8829   -6.0958   23.5964 C   0  0  0  0  0  0  0  0  0  0  0  0
  -24.6165  -11.7292   20.7344 C   0  0  0  0  0  0  0  0  0  0  0  0
  -28.9095  -21.3890   19.4652 C   0  0  0  0  0  0  0  0  0  0  0  0
  -29.2245  -19.3812   20.3046 C   0  0  0  0  0  0  0  0  0  0  0  0
  -25.4061  -13.7785   20.6260 C   0  0  0  0  0  0  0  0  0  0  0  0
  -23.0636  -13.6365   21.4867 C   0  0  0  0  0  0  0  0  0  0  0  0
  -25.7572  -29.4390   21.7086 C   0  0  0  0  0  0  0  0  0  0  0  0
  -22.7543  -28.8837   20.6149 C   0  0  0  0  0  0  0  0  0  0  0  0
  -20.5956  -26.7768   19.0187 C   0  0  0  0  0  0  0  0  0  0  0  0
  -30.9476  -14.4397   20.6585 C   0  0  0  0  0  0  0  0  0  0  0  0
  -24.6506  -33.3030   24.8554 C   0  0  0  0  0  0  0  0  0  0  0  0
  -26.2065  -28.7798   19.3170 C   0  0  0  0  0  0  0  0  0  0  0  0
  -24.3299  -26.9134   20.6360 C   0  0  0  0  0  0  0  0  0  0  0  0
  -24.0474  -31.9334   24.5539 C   0  0  0  0  0  0  0  0  0  0  0  0
  -29.5713  -12.3069   18.1618 C   0  0  0  0  0  0  0  0  0  0  0  0
  -25.1299  -30.8588   24.5674 C   0  0  0  0  0  0  0  0  0  0  0  0
  -28.1347  -12.0726   18.6322 C   0  0  0  0  0  0  0  0  0  0  0  0
  -30.5442  -12.3841   19.3363 C   0  0  0  0  0  0  0  0  0  0  0  0
  -28.7459  -13.1307   20.8471 C   0  0  0  0  0  0  0  0  0  0  0  0
  -26.1853  -31.1253   23.4873 C   0  0  1  0  0  0  0  0  0  0  0  0
  -25.1767  -29.2616   20.3341 C   0  0  1  0  0  0  0  0  0  0  0  0
  -27.7199  -13.1014   19.7012 C   0  0  2  0  0  0  0  0  0  0  0  0
  -18.1968  -26.5823   18.3079 C   0  0  0  0  0  0  0  0  0  0  0  0
  -29.9210  -18.1732   17.0334 C   0  0  0  0  0  0  0  0  0  0  0  0
  -27.4492  -18.0007   17.5501 C   0  0  0  0  0  0  0  0  0  0  0  0
  -21.9530  -28.2726   23.4948 C   0  0  0  0  0  0  0  0  0  0  0  0
  -19.8742  -27.1909   22.6134 C   0  0  0  0  0  0  0  0  0  0  0  0
  -20.2819  -29.6186   22.2103 C   0  0  0  0  0  0  0  0  0  0  0  0
  -21.3368  -26.5948   16.1592 C   0  0  0  0  0  0  0  0  0  0  0  0
  -28.7631  -22.8693   19.2687 C   0  0  0  0  0  0  0  0  0  1  0  0
  -29.4756  -18.1675   21.1030 C   0  0  0  0  0  0  0  0  0  0  0  0
  -30.9575  -17.7231   21.1713 C   0  0  0  0  0  0  0  0  0  0  0  0
  -31.1977  -16.4882   22.0370 C   0  0  0  0  0  0  0  0  0  0  0  0
  -21.6558  -27.9062   20.9565 C   0  0  1  0  0  0  0  0  0  0  0  0
  -19.5966  -27.0156   17.9009 C   0  0  2  0  0  0  0  0  0  0  0  0
  -28.8538  -18.1785   18.1297 C   0  0  0  0  0  0  0  0  0  0  0  0
  -20.9669  -28.2382   22.3102 C   0  0  0  0  0  0  0  0  0  0  0  0
  -25.8563  -11.5853   20.2589 N   0  0  0  0  0  0  0  0  0  0  0  0
  -28.7497  -20.5637   18.4273 N   0  0  0  0  0  0  0  0  0  0  0  0
  -28.9476  -19.3500   18.9695 N   0  0  0  0  0  0  0  0  0  0  0  0
  -26.3106  -12.8489   20.2040 N   0  0  0  0  0  0  0  0  0  0  0  0
  -24.0408  -28.3468   20.4652 N   0  0  0  0  0  0  0  0  0  0  0  0
  -30.0942  -13.3788   20.3130 N   0  0  0  0  0  0  0  0  0  0  0  0
  -25.6995  -15.0962   20.6364 N   0  0  0  0  0  0  0  0  0  0  0  0
  -22.0080  -12.7700   21.8018 N   0  0  0  0  0  0  0  0  0  0  0  0
  -25.6871  -30.7337   22.1862 N   0  0  0  0  0  0  0  0  0  0  0  0
  -20.7504  -27.8935   19.8125 N   0  0  0  0  0  0  0  0  0  0  0  0
  -30.4410  -15.3413   21.5866 N   0  0  0  0  0  0  0  0  0  0  0  0
  -19.9896  -26.2518   16.6831 N   0  3  0  0  0  0  0  0  0  0  0  0
  -22.9098  -14.8721   21.6384 O   0  0  0  0  0  0  0  0  0  0  0  0
  -26.2323  -28.4723   22.2931 O   0  0  0  0  0  0  0  0  0  0  0  0
  -22.4797  -30.0786   20.4786 O   0  0  0  0  0  0  0  0  0  0  0  0
  -21.1775  -25.7055   19.1744 O   0  0  0  0  0  0  0  0  0  0  0  0
  -32.0751  -14.5764   20.1718 O   0  0  0  0  0  0  0  0  0  0  0  0
  -21.3795   -7.2410   21.5371 O   0  0  0  0  0  0  0  0  0  0  0  0
  -27.5107  -23.2889   19.8089 O   0  0  0  0  0  0  0  0  0  1  0  0
  -18.5563   -6.9378   26.2638 F   0  0  0  0  0  0  0  0  0  0  0  0
  -21.7730   -5.1415   23.2920 F   0  0  0  0  0  0  0  0  0  0  0  0
  1  2  1  0  0  0  0
  1  5  2  0  0  0  0
  2  6  2  0  0  0  0
  3  8  2  0  0  0  0
  3 16  1  0  0  0  0
  4  9  1  0  0  0  0
  4 16  2  0  0  0  0
  5 18  1  0  0  0  0
  6 20  1  0  0  0  0
  7 10  2  0  0  0  0
  7 19  1  0  0  0  0
  8 22  1  0  0  0  0
  9 22  2  0  0  0  0
 10 23  1  0  0  0  0
 11 12  2  0  0  0  0
 11 24  1  0  0  0  0
 12 25  1  0  0  0  0
 13 21  1  0  0  0  0
 13 23  2  0  0  0  0
 14 25  2  0  0  0  0
 14 26  1  0  0  0  0
 15 28  1  0  0  0  0
 15 29  2  0  0  0  0
 16 27  1  0  0  0  0
 17 27  1  0  0  0  0
 17 30  2  0  0  0  0
 17 31  1  0  0  0  0
 18 20  2  0  0  0  0
 18 36  1  0  0  0  0
 19 21  2  0  0  0  0
 19 37  1  0  0  0  0
 20 45  1  0  0  0  0
 21 38  1  0  0  0  0
 22 80  1  0  0  0  0
 23 81  1  0  0  0  0
 24 26  2  0  0  0  0
 24 80  1  0  0  0  0
 25 82  1  0  0  0  0
 26 83  1  0  0  0  0
 27 63  2  0  0  0  0
 28 55  1  0  0  0  0
 28 64  2  0  0  0  0
 29 56  1  0  0  0  0
 29 65  1  0  0  0  0
 30 66  1  0  0  0  0
 30 69  1  0  0  0  0
 31 70  1  0  0  0  0
 31 75  2  0  0  0  0
 32 46  1  0  0  0  0
 32 71  1  0  0  0  0
 32 76  2  0  0  0  0
 33 59  1  0  0  0  0
 33 67  1  0  0  0  0
 33 77  2  0  0  0  0
 34 60  1  0  0  0  0
 34 72  1  0  0  0  0
 34 78  2  0  0  0  0
 35 68  1  0  0  0  0
 35 73  1  0  0  0  0
 35 79  2  0  0  0  0
 36 39  1  0  0  0  0
 37 46  1  0  0  0  0
 38 67  1  0  0  0  0
 39 41  1  0  0  0  0
 40 42  1  0  0  0  0
 40 43  1  0  0  0  0
 41 45  1  0  0  0  0
 42 47  1  0  0  0  0
 43 68  1  0  0  0  0
 44 47  1  0  0  0  0
 44 68  1  0  0  0  0
 45 71  1  0  0  0  0
 46 67  1  0  0  0  0
 47 66  1  0  0  0  0
 48 60  1  0  0  0  0
 49 61  1  0  0  0  0
 50 61  1  0  0  0  0
 51 62  1  0  0  0  0
 52 62  1  0  0  0  0
 53 62  1  0  0  0  0
 54 74  1  0  0  0  0
 55 81  1  0  0  0  0
 56 57  1  0  0  0  0
 57 58  1  0  0  0  0
 58 73  1  0  0  0  0
 59 62  1  0  0  0  0
 59 72  1  0  0  0  0
 60 74  1  0  0  0  0
 61 65  1  0  0  0  0
 63 66  1  0  0  0  0
 64 65  1  0  0  0  0
M  CHG  1  74   1
M  ISO  4  35 100  55 101  73 100  81 101
M  END
> <Batch ID>
0045

> <Smiles>
CNC(C)C(=O)NC(C(=O)N1Cc2cc([101O:1][101CH2:1]c3cc(CCC[100NH:0][100C:0](=O)N4CCCC(n5nc(-c6ccc(Oc7ccc(F)cc7F)cc6)c(C(N)=O)c5N)C4)n(C(C)C)n3)ccc2CC1C(=O)NC1CCCc2ccccc21)C(C)(C)C

> <Shape>
0.399

> <Color>
0.193

> <Negative vol penalty>
0.000

$$$$

  -OEChem-04052317193D

 83 91  0     1  0  0  0  0  0999 V2000
  -26.1682  -38.2548   21.7486 C   0  0  0  0  0  0  0  0  0  0  0  0
  -26.8683  -37.1396   21.2995 C   0  0  0  0  0  0  0  0  0  0  0  0
  -25.5896  -12.4359   22.0636 C   0  0  0  0  0  0  0  0  0  0  0  0
  -25.5961  -13.3120   19.8121 C   0  0  0  0  0  0  0  0  0  0  0  0
  -25.2330  -38.1229   22.7743 C   0  0  0  0  0  0  0  0  0  0  0  0
  -26.6343  -35.8920   21.8766 C   0  0  0  0  0  0  0  0  0  0  0  0
  -26.7631  -30.4528   19.0650 C   0  0  0  0  0  0  0  0  0  0  0  0
  -25.1839  -11.1926   21.5787 C   0  0  0  0  0  0  0  0  0  0  0  0
  -25.1905  -12.0686   19.3271 C   0  0  0  0  0  0  0  0  0  0  0  0
  -27.7413  -29.4630   18.9817 C   0  0  0  0  0  0  0  0  0  0  0  0
  -22.3165   -9.7443   20.5276 C   0  0  0  0  0  0  0  0  0  0  0  0
  -21.2892   -9.0886   21.2062 C   0  0  0  0  0  0  0  0  0  0  0  0
  -26.6998  -28.2878   20.8129 C   0  0  0  0  0  0  0  0  0  0  0  0
  -22.7685   -7.2307   21.6501 C   0  0  0  0  0  0  0  0  0  0  0  0
  -27.8858  -24.2637   17.5253 C   0  0  0  0  0  0  0  0  0  0  0  0
  -25.7956  -13.4957   21.1803 C   0  0  0  0  0  0  0  0  0  0  0  0
  -27.5348  -15.2335   21.8606 C   0  0  0  0  0  0  0  0  0  0  0  0
  -24.9805  -36.8713   23.3576 C   0  0  0  0  0  0  0  0  0  0  0  0
  -25.7504  -30.3730   20.0317 C   0  0  0  0  0  0  0  0  0  0  0  0
  -25.6958  -35.7434   22.9119 C   0  0  0  0  0  0  0  0  0  0  0  0
  -25.7084  -29.2766   20.9048 C   0  0  0  0  0  0  0  0  0  0  0  0
  -24.9844  -11.0089   20.2105 C   0  0  0  0  0  0  0  0  0  0  0  0
  -27.7115  -28.3817   19.8575 C   0  0  0  0  0  0  0  0  0  0  0  0
  -23.5697   -9.1432   20.4102 C   0  0  0  0  0  0  0  0  0  0  0  0
  -21.5152   -7.8318   21.7675 C   0  0  0  0  0  0  0  0  0  0  0  0
  -23.7957   -7.8864   20.9715 C   0  0  0  0  0  0  0  0  0  0  0  0
  -26.2142  -14.7804   21.6807 C   0  0  0  0  0  0  0  0  0  0  0  0
  -28.6009  -24.7277   18.6074 C   0  0  0  0  0  0  0  0  0  0  0  0
  -27.3316  -23.4332   20.0013 C   0  0  0  0  0  0  0  0  0  0  0  0
  -26.6161  -22.9698   18.9193 C   0  0  0  0  0  0  0  0  0  0  0  0
  -27.3964  -16.5075   22.3550 C   0  0  0  0  0  0  0  0  0  0  0  0
  -28.7757  -14.5628   21.6038 C   0  0  0  0  0  0  0  0  0  0  0  0
  -24.8563  -32.1691   22.4972 C   0  0  0  0  0  0  0  0  0  0  0  0
  -22.3893  -30.0672   22.6332 C   0  0  0  0  0  0  0  0  0  0  0  0
  -21.1907  -26.9558   21.9057 C   0  0  0  0  0  0  0  0  0  0  0  0
  -23.0344  -20.5886   21.9448 C   0  0  0  0  0  0  0  0  0  0  0  0
  -23.9945  -36.7865   24.4957 C   0  0  0  0  0  0  0  0  0  0  0  0
  -24.6871  -31.4353   20.0912 C   0  0  0  0  0  0  0  0  0  0  0  0
  -24.6307  -29.1338   21.9472 C   0  0  0  0  0  0  0  0  0  0  0  0
  -23.5344  -35.3628   24.7982 C   0  0  0  0  0  0  0  0  0  0  0  0
  -24.4133  -19.2214   24.9291 C   0  0  0  0  0  0  0  0  0  0  0  0
  -24.7285  -34.4149   24.8471 C   0  0  0  0  0  0  0  0  0  0  0  0
  -25.1503  -17.9691   24.4512 C   0  0  0  0  0  0  0  0  0  0  0  0
  -23.1240  -19.4516   24.1438 C   0  0  0  0  0  0  0  0  0  0  0  0
  -24.0260  -18.2333   22.2007 C   0  0  0  0  0  0  0  0  0  0  0  0
  -25.4520  -34.3688   23.4959 C   0  0  1  0  0  0  0  0  0  0  0  0
  -23.9987  -31.5162   21.4503 C   0  0  1  0  0  0  0  0  0  0  0  0
  -25.3610  -17.9905   22.9253 C   0  0  2  0  0  0  0  0  0  0  0  0
  -27.0294  -22.9745   21.3869 C   0  0  0  0  0  0  0  0  0  0  0  0
  -19.1523  -25.5172   22.1759 C   0  0  0  0  0  0  0  0  0  0  0  0
  -23.0999  -29.6153   25.5659 C   0  0  0  0  0  0  0  0  0  0  0  0
  -21.7007  -27.5398   25.5130 C   0  0  0  0  0  0  0  0  0  0  0  0
  -20.6477  -29.7627   25.0974 C   0  0  0  0  0  0  0  0  0  0  0  0
  -20.8416  -26.6989   18.9781 C   0  0  0  0  0  0  0  0  0  0  0  0
  -29.7201  -25.7223   18.4162 C   0  0  0  0  0  0  0  0  0  0  0  0
  -25.5064  -21.9882   19.0839 C   0  0  0  0  0  0  0  0  0  0  0  0
  -24.1752  -22.6029   19.5605 C   0  0  0  0  0  0  0  0  0  0  0  0
  -23.0280  -21.6018   19.6793 C   0  0  0  0  0  0  0  0  0  0  0  0
  -29.2330  -27.1652   18.4934 C   0  0  0  0  0  0  0  0  0  1  0  0
  -22.1441  -28.7501   23.3290 C   0  0  1  0  0  0  0  0  0  0  0  0
  -19.8860  -26.5005   21.2772 C   0  0  2  0  0  0  0  0  0  0  0  0
  -21.9197  -28.9204   24.8581 C   0  0  0  0  0  0  0  0  0  0  0  0
  -26.8805  -23.3765   17.6618 N   0  0  0  0  0  0  0  0  0  0  0  0
  -25.3037  -15.6923   22.0323 N   0  0  0  0  0  0  0  0  0  0  0  0
  -28.3367  -24.3208   19.8648 N   0  0  0  0  0  0  0  0  0  0  0  0
  -26.0535  -16.7311   22.4382 N   0  0  0  0  0  0  0  0  0  0  0  0
  -23.6172  -30.2014   21.9698 N   0  0  0  0  0  0  0  0  0  0  0  0
  -23.3932  -19.4626   22.7039 N   0  0  0  0  0  0  0  0  0  0  0  0
  -28.2935  -17.4469   22.7224 N   0  0  0  0  0  0  0  0  0  0  0  0
  -28.7369  -13.2569   21.0964 N   0  0  0  0  0  0  0  0  0  0  0  0
  -24.7208  -33.5429   22.5590 N   0  0  0  0  0  0  0  0  0  0  0  0
  -21.0309  -28.1192   22.6282 N   0  0  0  0  0  0  0  0  0  0  0  0
  -23.3307  -20.5194   20.5890 N   0  0  0  0  0  0  0  0  0  0  0  0
  -20.1453  -25.8374   19.9680 N   0  3  0  0  0  0  0  0  0  0  0  0
  -29.8861  -15.0995   21.8334 O   0  0  0  0  0  0  0  0  0  0  0  0
  -25.5857  -31.4774   23.1981 O   0  0  0  0  0  0  0  0  0  0  0  0
  -21.5204  -30.9419   22.6707 O   0  0  0  0  0  0  0  0  0  0  0  0
  -22.2452  -26.3388   21.7723 O   0  0  0  0  0  0  0  0  0  0  0  0
  -22.4952  -21.5843   22.4397 O   0  0  0  0  0  0  0  0  0  0  0  0
  -24.5887   -9.7958   19.7369 O   0  0  0  0  0  0  0  0  0  0  0  0
  -28.6655  -27.4145   19.7787 O   0  0  0  0  0  0  0  0  0  1  0  0
  -20.5291   -7.2029   22.4204 F   0  0  0  0  0  0  0  0  0  0  0  0
  -24.9979   -7.3043   20.8630 F   0  0  0  0  0  0  0  0  0  0  0  0
  1  2  1  0  0  0  0
  1  5  2  0  0  0  0
  2  6  2  0  0  0  0
  3  8  2  0  0  0  0
  3 16  1  0  0  0  0
  4  9  1  0  0  0  0
  4 16  2  0  0  0  0
  5 18  1  0  0  0  0
  6 20  1  0  0  0  0
  7 10  2  0  0  0  0
  7 19  1  0  0  0  0
  8 22  1  0  0  0  0
  9 22  2  0  0  0  0
 10 23  1  0  0  0  0
 11 12  2  0  0  0  0
 11 24  1  0  0  0  0
 12 25  1  0  0  0  0
 13 21  1  0  0  0  0
 13 23  2  0  0  0  0
 14 25  2  0  0  0  0
 14 26  1  0  0  0  0
 15 28  1  0  0  0  0
 15 63  2  0  0  0  0
 16 27  1  0  0  0  0
 17 27  1  0  0  0  0
 17 31  2  0  0  0  0
 17 32  1  0  0  0  0
 18 20  2  0  0  0  0
 18 37  1  0  0  0  0
 19 21  2  0  0  0  0
 19 38  1  0  0  0  0
 20 46  1  0  0  0  0
 21 39  1  0  0  0  0
 22 80  1  0  0  0  0
 23 81  1  0  0  0  0
 24 26  2  0  0  0  0
 24 80  1  0  0  0  0
 25 82  1  0  0  0  0
 26 83  1  0  0  0  0
 27 64  2  0  0  0  0
 28 55  1  0  0  0  0
 28 65  2  0  0  0  0
 29 30  2  0  0  0  0
 29 49  1  0  0  0  0
 29 65  1  0  0  0  0
 30 56  1  0  0  0  0
 30 63  1  0  0  0  0
 31 66  1  0  0  0  0
 31 69  1  0  0  0  0
 32 70  1  0  0  0  0
 32 75  2  0  0  0  0
 33 47  1  0  0  0  0
 33 71  1  0  0  0  0
 33 76  2  0  0  0  0
 34 60  1  0  0  0  0
 34 67  1  0  0  0  0
 34 77  2  0  0  0  0
 35 61  1  0  0  0  0
 35 72  1  0  0  0  0
 35 78  2  0  0  0  0
 36 68  1  0  0  0  0
 36 73  1  0  0  0  0
 36 79  2  0  0  0  0
 37 40  1  0  0  0  0
 38 47  1  0  0  0  0
 39 67  1  0  0  0  0
 40 42  1  0  0  0  0
 41 43  1  0  0  0  0
 41 44  1  0  0  0  0
 42 46  1  0  0  0  0
 43 48  1  0  0  0  0
 44 68  1  0  0  0  0
 45 48  1  0  0  0  0
 45 68  1  0  0  0  0
 46 71  1  0  0  0  0
 47 67  1  0  0  0  0
 48 66  1  0  0  0  0
 50 61  1  0  0  0  0
 51 62  1  0  0  0  0
 52 62  1  0  0  0  0
 53 62  1  0  0  0  0
 54 74  1  0  0  0  0
 55 59  1  0  0  0  0
 56 57  1  0  0  0  0
 57 58  1  0  0  0  0
 58 73  1  0  0  0  0
 59 81  1  0  0  0  0
 60 62  1  0  0  0  0
 60 72  1  0  0  0  0
 61 74  1  0  0  0  0
 64 66  1  0  0  0  0
M  CHG  1  74   1
M  ISO  4  36 100  59 101  73 100  81 101
M  END
> <Batch ID>
0045

> <Smiles>
CNC(C)C(=O)NC(C(=O)N1Cc2cc([101O:1][101CH2:1]Cc3cnc(CCC[100NH:0][100C:0](=O)N4CCCC(n5nc(-c6ccc(Oc7ccc(F)cc7F)cc6)c(C(N)=O)c5N)C4)c(C)n3)ccc2CC1C(=O)NC1CCCc2ccccc21)C(C)(C)C

> <Shape>
0.259

> <Color>
0.061

> <Negative vol penalty>
0.000

$$$$

  -OEChem-04052317193D

 84 92  0     1  0  0  0  0  0999 V2000
  -32.3191  -14.1977   20.6866 C   0  0  0  0  0  0  0  0  0  0  0  0
  -31.4897  -15.3094   20.7934 C   0  0  0  0  0  0  0  0  0  0  0  0
  -29.1178  -26.7178   20.4876 C   0  0  0  0  0  0  0  0  0  0  0  0
  -27.2128  -25.3177   19.9900 C   0  0  0  0  0  0  0  0  0  0  0  0
  -31.7878  -12.9673   20.3021 C   0  0  0  0  0  0  0  0  0  0  0  0
  -30.1285  -15.1917   20.5145 C   0  0  0  0  0  0  0  0  0  0  0  0
  -27.2321  -17.5175   23.9564 C   0  0  0  0  0  0  0  0  0  0  0  0
  -29.8851  -25.5820   20.7462 C   0  0  0  0  0  0  0  0  0  0  0  0
  -27.9801  -24.1819   20.2486 C   0  0  0  0  0  0  0  0  0  0  0  0
  -27.1236  -18.9044   23.8647 C   0  0  0  0  0  0  0  0  0  0  0  0
  -30.3176  -22.3395   18.6478 C   0  0  0  0  0  0  0  0  0  0  0  0
  -30.2253  -21.2781   17.7475 C   0  0  0  0  0  0  0  0  0  0  0  0
  -24.9860  -18.6590   22.7739 C   0  0  0  0  0  0  0  0  0  0  0  0
  -19.4343  -26.5724   24.8891 C   0  0  0  0  0  0  0  0  0  0  0  0
  -21.3767  -26.1875   23.5241 C   0  0  0  0  0  0  0  0  0  0  0  0
  -29.4443  -19.8390   19.5241 C   0  0  0  0  0  0  0  0  0  0  0  0
  -27.7817  -26.5857   20.1095 C   0  0  0  0  0  0  0  0  0  0  0  0
  -26.8291  -28.4141   18.6072 C   0  0  0  0  0  0  0  0  0  0  0  0
  -30.4177  -12.8323   20.0278 C   0  0  0  0  0  0  0  0  0  0  0  0
  -26.2218  -16.6893   23.4469 C   0  0  0  0  0  0  0  0  0  0  0  0
  -29.5786  -13.9587   20.1247 C   0  0  0  0  0  0  0  0  0  0  0  0
  -25.0830  -17.2619   22.8627 C   0  0  0  0  0  0  0  0  0  0  0  0
  -20.1158  -26.7494   23.6902 C   0  0  0  0  0  0  0  0  0  0  0  0
  -29.3162  -24.3141   20.6267 C   0  0  0  0  0  0  0  0  0  0  0  0
  -26.0018  -19.4753   23.2708 C   0  0  0  0  0  0  0  0  0  0  0  0
  -29.9733  -22.1506   19.9863 C   0  0  0  0  0  0  0  0  0  0  0  0
  -29.7886  -20.0279   18.1856 C   0  0  0  0  0  0  0  0  0  0  0  0
  -29.5366  -20.9004   20.4244 C   0  0  0  0  0  0  0  0  0  0  0  0
  -26.9884  -27.7586   19.8428 C   0  0  0  0  0  0  0  0  0  0  0  0
  -20.0524  -25.8308   25.8831 C   0  0  0  0  0  0  0  0  0  0  0  0
  -21.9079  -25.4634   24.5792 C   0  0  0  0  0  0  0  0  0  0  0  0
  -25.9856  -29.4629   18.8812 C   0  0  0  0  0  0  0  0  0  0  0  0
  -27.3931  -28.1028   17.3263 C   0  0  0  0  0  0  0  0  0  0  0  0
  -26.0739  -14.4670   21.1790 C   0  0  0  0  0  0  0  0  0  0  0  0
  -23.0647  -14.0588   22.3193 C   0  0  0  0  0  0  0  0  0  0  0  0
  -20.3929  -15.3786   23.9827 C   0  0  0  0  0  0  0  0  0  0  0  0
  -21.8599  -30.3763   23.1232 C   0  0  0  0  0  0  0  0  0  0  0  0
  -29.8977  -11.4927   19.5698 C   0  0  0  0  0  0  0  0  0  0  0  0
  -26.3415  -15.1956   23.5777 C   0  0  0  0  0  0  0  0  0  0  0  0
  -23.9610  -16.4172   22.3185 C   0  0  0  0  0  0  0  0  0  0  0  0
  -28.3787  -11.3674   19.6551 C   0  0  0  0  0  0  0  0  0  0  0  0
  -24.7006  -32.4067   22.4271 C   0  0  0  0  0  0  0  0  0  0  0  0
  -27.7073  -12.6057   19.0696 C   0  0  0  0  0  0  0  0  0  0  0  0
  -25.5947  -31.5048   21.5743 C   0  0  0  0  0  0  0  0  0  0  0  0
  -23.9696  -31.6156   23.5097 C   0  0  0  0  0  0  0  0  0  0  0  0
  -24.0965  -29.5541   22.1651 C   0  0  0  0  0  0  0  0  0  0  0  0
  -28.0925  -13.8654   19.8546 C   0  0  1  0  0  0  0  0  0  0  0  0
  -25.4910  -14.4370   22.5636 C   0  0  1  0  0  0  0  0  0  0  0  0
  -24.8115  -30.2977   21.0240 C   0  0  2  0  0  0  0  0  0  0  0  0
  -19.3500  -25.6187   27.1824 C   0  0  0  0  0  0  0  0  0  0  0  0
  -18.0625  -14.8181   24.7258 C   0  0  0  0  0  0  0  0  0  0  0  0
  -22.0646  -14.4389   19.4618 C   0  0  0  0  0  0  0  0  0  0  0  0
  -19.7703  -14.8183   20.3893 C   0  0  0  0  0  0  0  0  0  0  0  0
  -20.9084  -12.6263   20.7393 C   0  0  0  0  0  0  0  0  0  0  0  0
  -21.0925  -15.7353   26.8361 C   0  0  0  0  0  0  0  0  0  0  0  0
  -19.4963  -27.5380   22.5865 C   0  0  0  0  0  0  0  0  0  0  0  0
  -23.2741  -24.8415   24.4348 C   0  0  0  0  0  0  0  0  0  0  0  0
  -23.2493  -23.4169   23.8697 C   0  0  0  0  0  0  0  0  0  0  0  0
  -24.6358  -22.7752   23.8029 C   0  0  0  0  0  0  0  0  0  0  0  0
  -19.8296  -29.0339   22.6380 C   0  0  0  0  0  0  0  0  0  0  0  0
  -24.5767  -21.3780   23.2004 C   0  0  0  0  0  0  0  0  0  1  0  0
  -21.7139  -14.6579   22.0104 C   0  0  1  0  0  0  0  0  0  0  0  0
  -19.5346  -14.8283   25.1073 C   0  0  2  0  0  0  0  0  0  0  0  0
  -21.1362  -14.1515   20.6586 C   0  0  0  0  0  0  0  0  0  0  0  0
  -26.3015  -28.3421   20.8284 N   0  0  0  0  0  0  0  0  0  0  0  0
  -21.2760  -25.2697   25.7586 N   0  0  0  0  0  0  0  0  0  0  0  0
  -25.7023  -29.3754   20.2124 N   0  0  0  0  0  0  0  0  0  0  0  0
  -24.1275  -14.9617   22.4643 N   0  0  0  0  0  0  0  0  0  0  0  0
  -23.2456  -30.4861   22.9216 N   0  0  0  0  0  0  0  0  0  0  0  0
  -25.4662  -30.4422   18.1108 N   0  0  0  0  0  0  0  0  0  0  0  0
  -28.2391  -26.9903   17.2212 N   0  0  0  0  0  0  0  0  0  0  0  0
  -27.3471  -13.9369   21.0930 N   0  0  0  0  0  0  0  0  0  0  0  0
  -20.8682  -14.3752   23.1650 N   0  0  0  0  0  0  0  0  0  0  0  0
  -21.2502  -29.2797   22.5262 N   0  0  0  0  0  0  0  0  0  0  0  0
  -19.6961  -15.6570   26.3353 N   0  3  0  0  0  0  0  0  0  0  0  0
  -27.1669  -28.8004   16.3085 O   0  0  0  0  0  0  0  0  0  0  0  0
  -25.4166  -14.9351   20.2568 O   0  0  0  0  0  0  0  0  0  0  0  0
  -23.1714  -12.8354   22.4351 O   0  0  0  0  0  0  0  0  0  0  0  0
  -20.6161  -16.5789   23.8413 O   0  0  0  0  0  0  0  0  0  0  0  0
  -21.2130  -31.1978   23.7816 O   0  0  0  0  0  0  0  0  0  0  0  0
  -30.0647  -23.2055   20.8788 O   0  0  0  0  0  0  0  0  0  0  0  0
  -25.8936  -20.8288   23.1794 O   0  0  0  0  0  0  0  0  0  1  0  0
  -29.6986  -19.0092   17.3206 F   0  0  0  0  0  0  0  0  0  0  0  0
  -29.2033  -20.7132   21.7088 F   0  0  0  0  0  0  0  0  0  0  0  0
  1  2  1  0  0  0  0
  1  5  2  0  0  0  0
  2  6  2  0  0  0  0
  3  8  2  0  0  0  0
  3 17  1  0  0  0  0
  4  9  1  0  0  0  0
  4 17  2  0  0  0  0
  5 19  1  0  0  0  0
  6 21  1  0  0  0  0
  7 10  2  0  0  0  0
  7 20  1  0  0  0  0
  8 24  1  0  0  0  0
  9 24  2  0  0  0  0
 10 25  1  0  0  0  0
 11 12  2  0  0  0  0
 11 26  1  0  0  0  0
 12 27  1  0  0  0  0
 13 22  1  0  0  0  0
 13 25  2  0  0  0  0
 14 23  1  0  0  0  0
 14 30  2  0  0  0  0
 15 23  2  0  0  0  0
 15 31  1  0  0  0  0
 16 27  2  0  0  0  0
 16 28  1  0  0  0  0
 17 29  1  0  0  0  0
 18 29  1  0  0  0  0
 18 32  2  0  0  0  0
 18 33  1  0  0  0  0
 19 21  2  0  0  0  0
 19 38  1  0  0  0  0
 20 22  2  0  0  0  0
 20 39  1  0  0  0  0
 21 47  1  0  0  0  0
 22 40  1  0  0  0  0
 23 56  1  0  0  0  0
 24 81  1  0  0  0  0
 25 82  1  0  0  0  0
 26 28  2  0  0  0  0
 26 81  1  0  0  0  0
 27 83  1  0  0  0  0
 28 84  1  0  0  0  0
 29 65  2  0  0  0  0
 30 50  1  0  0  0  0
 30 66  1  0  0  0  0
 31 57  1  0  0  0  0
 31 66  2  0  0  0  0
 32 67  1  0  0  0  0
 32 70  1  0  0  0  0
 33 71  1  0  0  0  0
 33 76  2  0  0  0  0
 34 48  1  0  0  0  0
 34 72  1  0  0  0  0
 34 77  2  0  0  0  0
 35 62  1  0  0  0  0
 35 68  1  0  0  0  0
 35 78  2  0  0  0  0
 36 63  1  0  0  0  0
 36 73  1  0  0  0  0
 36 79  2  0  0  0  0
 37 69  1  0  0  0  0
 37 74  1  0  0  0  0
 37 80  2  0  0  0  0
 38 41  1  0  0  0  0
 39 48  1  0  0  0  0
 40 68  1  0  0  0  0
 41 43  1  0  0  0  0
 42 44  1  0  0  0  0
 42 45  1  0  0  0  0
 43 47  1  0  0  0  0
 44 49  1  0  0  0  0
 45 69  1  0  0  0  0
 46 49  1  0  0  0  0
 46 69  1  0  0  0  0
 47 72  1  0  0  0  0
 48 68  1  0  0  0  0
 49 67  1  0  0  0  0
 51 63  1  0  0  0  0
 52 64  1  0  0  0  0
 53 64  1  0  0  0  0
 54 64  1  0  0  0  0
 55 75  1  0  0  0  0
 56 60  1  0  0  0  0
 57 58  1  0  0  0  0
 58 59  1  0  0  0  0
 59 61  1  0  0  0  0
 60 74  1  0  0  0  0
 61 82  1  0  0  0  0
 62 64  1  0  0  0  0
 62 73  1  0  0  0  0
 63 75  1  0  0  0  0
 65 67  1  0  0  0  0
M  CHG  1  75   1
M  ISO  4  37 100  61 101  74 100  82 101
M  END
> <Batch ID>
0045

> <Smiles>
CNC(C)C(=O)NC(C(=O)N1Cc2cc([101O:1][101CH2:1]CCCc3cc(CC[100NH:0][100C:0](=O)N4CCCC(n5nc(-c6ccc(Oc7ccc(F)cc7F)cc6)c(C(N)=O)c5N)C4)cc(C)n3)ccc2CC1C(=O)NC1CCCc2ccccc21)C(C)(C)C

> <Shape>
0.235

> <Color>
0.069

> <Negative vol penalty>
0.000

$$$$

  -OEChem-04052317193D

 84 92  0     1  0  0  0  0  0999 V2000
  -22.5614  -23.6463   21.4410 C   0  0  0  0  0  0  0  0  0  0  0  0
  -23.7116  -22.9009   21.6794 C   0  0  0  0  0  0  0  0  0  0  0  0
  -22.2371  -28.1971   20.9848 C   0  0  0  0  0  0  0  0  0  0  0  0
  -23.5094  -27.6379   22.9611 C   0  0  0  0  0  0  0  0  0  0  0  0
  -21.3064  -23.0692   21.6307 C   0  0  0  0  0  0  0  0  0  0  0  0
  -23.6075  -21.5783   22.1087 C   0  0  0  0  0  0  0  0  0  0  0  0
  -26.7677  -18.4818   19.6450 C   0  0  0  0  0  0  0  0  0  0  0  0
  -21.0529  -28.0662   21.7101 C   0  0  0  0  0  0  0  0  0  0  0  0
  -22.3251  -27.5071   23.6864 C   0  0  0  0  0  0  0  0  0  0  0  0
  -28.1060  -18.4956   20.0355 C   0  0  0  0  0  0  0  0  0  0  0  0
  -19.2718  -29.9000   23.9233 C   0  0  0  0  0  0  0  0  0  0  0  0
  -18.3005  -30.8881   23.7624 C   0  0  0  0  0  0  0  0  0  0  0  0
  -27.7428  -16.4926   21.3298 C   0  0  0  0  0  0  0  0  0  0  0  0
  -16.7384  -29.2236   22.9710 C   0  0  0  0  0  0  0  0  0  0  0  0
  -23.4654  -27.9829   21.6103 C   0  0  0  0  0  0  0  0  0  0  0  0
  -25.4601  -29.2833   20.6952 C   0  0  0  0  0  0  0  0  0  0  0  0
  -21.1869  -21.7358   22.0532 C   0  0  0  0  0  0  0  0  0  0  0  0
  -25.9028  -17.4777   20.1035 C   0  0  0  0  0  0  0  0  0  0  0  0
  -22.3498  -20.9833   22.3055 C   0  0  0  0  0  0  0  0  0  0  0  0
  -26.3946  -16.4668   20.9416 C   0  0  0  0  0  0  0  0  0  0  0  0
  -21.0969  -27.7213   23.0609 C   0  0  0  0  0  0  0  0  0  0  0  0
  -28.5931  -17.5026   20.8804 C   0  0  0  0  0  0  0  0  0  0  0  0
  -18.9764  -28.5737   23.6080 C   0  0  0  0  0  0  0  0  0  0  0  0
  -17.0338  -30.5499   23.2862 C   0  0  0  0  0  0  0  0  0  0  0  0
  -17.7097  -28.2355   23.1319 C   0  0  0  0  0  0  0  0  0  0  0  0
  -24.6890  -28.1173   20.8615 C   0  0  0  0  0  0  0  0  0  0  0  0
  -33.1337  -20.4923   21.4115 C   0  0  0  0  0  0  0  0  0  0  0  0
  -33.3989  -21.7784   21.0037 C   0  0  0  0  0  0  0  0  0  0  0  0
  -26.5133  -28.8889   19.9066 C   0  0  0  0  0  0  0  0  0  0  0  0
  -34.2605  -20.2989   19.6161 C   0  0  0  0  0  0  0  0  0  0  0  0
  -25.2439  -30.6047   21.2078 C   0  0  0  0  0  0  0  0  0  0  0  0
  -23.2549  -17.4285   21.8612 C   0  0  0  0  0  0  0  0  0  0  0  0
  -23.2591  -14.2808   21.0772 C   0  0  0  0  0  0  0  0  0  0  0  0
  -25.0433  -11.5413   20.0986 C   0  0  0  0  0  0  0  0  0  0  0  0
  -29.1494  -23.5945   18.9733 C   0  0  0  0  0  0  0  0  0  0  0  0
  -19.8090  -21.1701   22.2898 C   0  0  0  0  0  0  0  0  0  0  0  0
  -24.4683  -17.4618   19.6516 C   0  0  0  0  0  0  0  0  0  0  0  0
  -25.5120  -15.3552   21.4453 C   0  0  0  0  0  0  0  0  0  0  0  0
  -19.7842  -19.6468   22.3860 C   0  0  0  0  0  0  0  0  0  0  0  0
  -27.6727  -25.7125   16.5218 C   0  0  0  0  0  0  0  0  0  0  0  0
  -20.9004  -19.1514   23.3000 C   0  0  0  0  0  0  0  0  0  0  0  0
  -26.8102  -26.6742   17.3410 C   0  0  0  0  0  0  0  0  0  0  0  0
  -27.6713  -24.3063   17.1173 C   0  0  0  0  0  0  0  0  0  0  0  0
  -27.1816  -25.1987   19.3618 C   0  0  0  0  0  0  0  0  0  0  0  0
  -22.2779  -19.5379   22.7481 C   0  0  1  0  0  0  0  0  0  0  0  0
  -23.5542  -16.6823   20.5919 C   0  0  1  0  0  0  0  0  0  0  0  0
  -27.1966  -26.6427   18.8319 C   0  0  2  0  0  0  0  0  0  0  0  0
  -34.9899  -19.7780   18.4415 C   0  0  0  0  0  0  0  0  0  0  0  0
  -24.7781   -9.1011   19.5765 C   0  0  0  0  0  0  0  0  0  0  0  0
  -23.0660  -13.6662   24.0597 C   0  0  0  0  0  0  0  0  0  0  0  0
  -23.7551  -11.3142   23.5486 C   0  0  0  0  0  0  0  0  0  0  0  0
  -21.6338  -12.2240   22.6025 C   0  0  0  0  0  0  0  0  0  0  0  0
  -34.6407  -22.7109   19.0345 C   0  0  0  0  0  0  0  0  0  0  0  0
  -25.9696  -11.9176   17.3130 C   0  0  0  0  0  0  0  0  0  0  0  0
  -32.3677  -20.0331   22.6264 C   0  0  0  0  0  0  0  0  0  0  0  0
  -33.0434  -23.0865   21.5826 C   0  0  0  0  0  0  0  0  0  0  0  0
  -31.6252  -18.7107   22.4229 C   0  0  0  0  0  0  0  0  0  0  0  0
  -31.8424  -23.7964   20.9100 C   0  0  0  0  0  0  0  0  0  0  0  0
  -30.5490  -22.9846   20.9300 C   0  0  0  0  0  0  0  0  0  0  0  0
  -30.5366  -18.7871   21.3587 C   0  0  0  0  0  0  0  0  0  1  0  0
  -23.8469  -13.0291   21.6827 C   0  0  1  0  0  0  0  0  0  0  0  0
  -24.7937  -10.5125   19.0105 C   0  0  2  0  0  0  0  0  0  0  0  0
  -23.0919  -12.5803   22.9656 C   0  0  0  0  0  0  0  0  0  0  0  0
  -25.2079  -27.0614   20.2292 N   0  0  0  0  0  0  0  0  0  0  0  0
  -33.6730  -19.5760   20.5436 N   0  0  0  0  0  0  0  0  0  0  0  0
  -34.1218  -21.6384   19.8527 N   0  0  0  0  0  0  0  0  0  0  0  0
  -26.3164  -27.5624   19.6579 N   0  0  0  0  0  0  0  0  0  0  0  0
  -24.1154  -15.3868   20.9804 N   0  0  0  0  0  0  0  0  0  0  0  0
  -28.0477  -24.3461   18.5324 N   0  0  0  0  0  0  0  0  0  0  0  0
  -27.5792  -29.5509   19.4086 N   0  0  0  0  0  0  0  0  0  0  0  0
  -24.1120  -30.8367   22.0011 N   0  0  0  0  0  0  0  0  0  0  0  0
  -22.6532  -18.6566   21.6633 N   0  0  0  0  0  0  0  0  0  0  0  0
  -23.8640  -12.0305   20.6192 N   0  0  0  0  0  0  0  0  0  0  0  0
  -29.4418  -23.6937   20.3281 N   0  0  0  0  0  0  0  0  0  0  0  0
  -25.8580  -10.5900   17.9703 N   0  3  0  0  0  0  0  0  0  0  0  0
  -26.0223  -31.5556   20.9558 O   0  0  0  0  0  0  0  0  0  0  0  0
  -23.5468  -16.9265   22.9403 O   0  0  0  0  0  0  0  0  0  0  0  0
  -22.0854  -14.2753   20.6975 O   0  0  0  0  0  0  0  0  0  0  0  0
  -26.1717  -11.8745   20.4539 O   0  0  0  0  0  0  0  0  0  0  0  0
  -29.8257  -22.8915   18.2148 O   0  0  0  0  0  0  0  0  0  0  0  0
  -19.9415  -27.5937   23.7690 O   0  0  0  0  0  0  0  0  0  0  0  0
  -29.8988  -17.5141   21.2636 O   0  0  0  0  0  0  0  0  0  1  0  0
  -16.1007  -31.4986   23.1332 F   0  0  0  0  0  0  0  0  0  0  0  0
  -17.4196  -26.9628   22.8284 F   0  0  0  0  0  0  0  0  0  0  0  0
  1  2  1  0  0  0  0
  1  5  2  0  0  0  0
  2  6  2  0  0  0  0
  3  8  2  0  0  0  0
  3 15  1  0  0  0  0
  4  9  1  0  0  0  0
  4 15  2  0  0  0  0
  5 17  1  0  0  0  0
  6 19  1  0  0  0  0
  7 10  2  0  0  0  0
  7 18  1  0  0  0  0
  8 21  1  0  0  0  0
  9 21  2  0  0  0  0
 10 22  1  0  0  0  0
 11 12  2  0  0  0  0
 11 23  1  0  0  0  0
 12 24  1  0  0  0  0
 13 20  1  0  0  0  0
 13 22  2  0  0  0  0
 14 24  2  0  0  0  0
 14 25  1  0  0  0  0
 15 26  1  0  0  0  0
 16 26  1  0  0  0  0
 16 29  2  0  0  0  0
 16 31  1  0  0  0  0
 17 19  2  0  0  0  0
 17 36  1  0  0  0  0
 18 20  2  0  0  0  0
 18 37  1  0  0  0  0
 19 45  1  0  0  0  0
 20 38  1  0  0  0  0
 21 81  1  0  0  0  0
 22 82  1  0  0  0  0
 23 25  2  0  0  0  0
 23 81  1  0  0  0  0
 24 83  1  0  0  0  0
 25 84  1  0  0  0  0
 26 64  2  0  0  0  0
 27 28  2  0  0  0  0
 27 55  1  0  0  0  0
 27 65  1  0  0  0  0
 28 56  1  0  0  0  0
 28 66  1  0  0  0  0
 29 67  1  0  0  0  0
 29 70  1  0  0  0  0
 30 48  1  0  0  0  0
 30 65  2  0  0  0  0
 30 66  1  0  0  0  0
 31 71  1  0  0  0  0
 31 76  2  0  0  0  0
 32 46  1  0  0  0  0
 32 72  1  0  0  0  0
 32 77  2  0  0  0  0
 33 61  1  0  0  0  0
 33 68  1  0  0  0  0
 33 78  2  0  0  0  0
 34 62  1  0  0  0  0
 34 73  1  0  0  0  0
 34 79  2  0  0  0  0
 35 69  1  0  0  0  0
 35 74  1  0  0  0  0
 35 80  2  0  0  0  0
 36 39  1  0  0  0  0
 37 46  1  0  0  0  0
 38 68  1  0  0  0  0
 39 41  1  0  0  0  0
 40 42  1  0  0  0  0
 40 43  1  0  0  0  0
 41 45  1  0  0  0  0
 42 47  1  0  0  0  0
 43 69  1  0  0  0  0
 44 47  1  0  0  0  0
 44 69  1  0  0  0  0
 45 72  1  0  0  0  0
 46 68  1  0  0  0  0
 47 67  1  0  0  0  0
 49 62  1  0  0  0  0
 50 63  1  0  0  0  0
 51 63  1  0  0  0  0
 52 63  1  0  0  0  0
 53 66  1  0  0  0  0
 54 75  1  0  0  0  0
 55 57  1  0  0  0  0
 56 58  1  0  0  0  0
 57 60  1  0  0  0  0
 58 59  1  0  0  0  0
 59 74  1  0  0  0  0
 60 82  1  0  0  0  0
 61 63  1  0  0  0  0
 61 73  1  0  0  0  0
 62 75  1  0  0  0  0
 64 67  1  0  0  0  0
M  CHG  1  75   1
M  ISO  4  35 100  60 101  74 100  82 101
M  END
> <Batch ID>
0045

> <Smiles>
CNC(C)C(=O)NC(C(=O)N1Cc2cc([101O:1][101CH2:1]CCc3nc(C)n(C)c3CCC[100NH:0][100C:0](=O)N3CCCC(n4nc(-c5ccc(Oc6ccc(F)cc6F)cc5)c(C(N)=O)c4N)C3)ccc2CC1C(=O)NC1CCCc2ccccc21)C(C)(C)C

> <Shape>
0.226

> <Color>
0.076

> <Negative vol penalty>
0.000

$$$$

  -OEChem-04052317193D

 86 94  0     1  0  0  0  0  0999 V2000
  -25.1499  -35.4284   23.1817 C   0  0  0  0  0  0  0  0  0  0  0  0
  -26.0237  -34.8792   22.2488 C   0  0  0  0  0  0  0  0  0  0  0  0
  -21.9352  -11.5623   22.7202 C   0  0  0  0  0  0  0  0  0  0  0  0
  -21.5414  -11.1391   20.3744 C   0  0  0  0  0  0  0  0  0  0  0  0
  -24.7559  -34.6808   24.2906 C   0  0  0  0  0  0  0  0  0  0  0  0
  -26.5050  -33.5824   22.4250 C   0  0  0  0  0  0  0  0  0  0  0  0
  -28.5138  -27.8160   18.6793 C   0  0  0  0  0  0  0  0  0  0  0  0
  -21.2338  -10.4018   23.0473 C   0  0  0  0  0  0  0  0  0  0  0  0
  -20.8401   -9.9786   20.7014 C   0  0  0  0  0  0  0  0  0  0  0  0
  -29.5822  -26.9284   18.5590 C   0  0  0  0  0  0  0  0  0  0  0  0
  -19.8567   -7.3590   24.4826 C   0  0  0  0  0  0  0  0  0  0  0  0
  -20.4135   -6.5135   25.4421 C   0  0  0  0  0  0  0  0  0  0  0  0
  -28.7708  -25.7020   20.4712 C   0  0  0  0  0  0  0  0  0  0  0  0
  -22.3687   -6.2242   24.0526 C   0  0  0  0  0  0  0  0  0  0  0  0
  -29.2203  -20.1857   18.0889 C   0  0  0  0  0  0  0  0  0  0  0  0
  -22.0889  -11.9310   21.3837 C   0  0  0  0  0  0  0  0  0  0  0  0
  -24.1926  -13.2471   20.7923 C   0  0  0  0  0  0  0  0  0  0  0  0
  -25.2249  -33.3707   24.4754 C   0  0  0  0  0  0  0  0  0  0  0  0
  -27.5704  -27.6594   19.7049 C   0  0  0  0  0  0  0  0  0  0  0  0
  -26.1179  -32.8170   23.5382 C   0  0  0  0  0  0  0  0  0  0  0  0
  -27.6900  -26.5875   20.6009 C   0  0  0  0  0  0  0  0  0  0  0  0
  -20.6863   -9.6099   22.0379 C   0  0  0  0  0  0  0  0  0  0  0  0
  -29.7124  -25.8728   19.4567 C   0  0  0  0  0  0  0  0  0  0  0  0
  -20.5559   -7.6371   23.3080 C   0  0  0  0  0  0  0  0  0  0  0  0
  -21.6695   -5.9461   25.2272 C   0  0  0  0  0  0  0  0  0  0  0  0
  -21.8119   -7.0697   23.0931 C   0  0  0  0  0  0  0  0  0  0  0  0
  -22.8128  -13.1300   21.0453 C   0  0  0  0  0  0  0  0  0  0  0  0
  -29.8377  -20.7594   19.2164 C   0  0  0  0  0  0  0  0  0  0  0  0
  -27.9410  -19.9056   18.5032 C   0  0  0  0  0  0  0  0  0  0  0  0
  -24.3798  -14.5801   20.5196 C   0  0  0  0  0  0  0  0  0  0  0  0
  -25.2139  -12.2408   20.8029 C   0  0  0  0  0  0  0  0  0  0  0  0
  -26.6366  -29.4194   22.1816 C   0  0  0  0  0  0  0  0  0  0  0  0
  -24.4095  -27.0830   22.5039 C   0  0  0  0  0  0  0  0  0  0  0  0
  -23.4971  -23.8485   21.9106 C   0  0  0  0  0  0  0  0  0  0  0  0
  -22.8186  -19.2917   17.9683 C   0  0  0  0  0  0  0  0  0  0  0  0
  -24.8082  -32.6184   25.7145 C   0  0  0  0  0  0  0  0  0  0  0  0
  -26.4089  -28.6099   19.8049 C   0  0  0  0  0  0  0  0  0  0  0  0
  -26.6927  -26.3636   21.7071 C   0  0  0  0  0  0  0  0  0  0  0  0
  -25.0690  -31.1166   25.6319 C   0  0  0  0  0  0  0  0  0  0  0  0
  -21.2619  -18.5240   21.0770 C   0  0  0  0  0  0  0  0  0  0  0  0
  -26.4731  -30.8472   25.1000 C   0  0  0  0  0  0  0  0  0  0  0  0
  -21.6352  -17.0609   21.3215 C   0  0  0  0  0  0  0  0  0  0  0  0
  -21.0161  -18.8038   19.5960 C   0  0  0  0  0  0  0  0  0  0  0  0
  -22.4889  -16.9387   18.9435 C   0  0  0  0  0  0  0  0  0  0  0  0
  -26.6421  -31.4047   23.6815 C   0  0  1  0  0  0  0  0  0  0  0  0
  -25.7931  -28.6562   21.1999 C   0  0  1  0  0  0  0  0  0  0  0  0
  -22.8010  -16.6207   20.4159 C   0  0  2  0  0  0  0  0  0  0  0  0
  -25.6264  -18.9945   22.5751 C   0  0  0  0  0  0  0  0  0  0  0  0
  -21.6352  -22.2187   22.3284 C   0  0  0  0  0  0  0  0  0  0  0  0
  -26.6736  -21.1490   16.0452 C   0  0  0  0  0  0  0  0  0  0  0  0
  -25.3259  -26.7819   25.3986 C   0  0  0  0  0  0  0  0  0  0  0  0
  -24.1459  -24.5749   25.4694 C   0  0  0  0  0  0  0  0  0  0  0  0
  -22.8491  -26.6683   25.0713 C   0  0  0  0  0  0  0  0  0  0  0  0
  -23.0127  -23.4814   19.0141 C   0  0  0  0  0  0  0  0  0  0  0  0
  -31.2561  -21.2574   19.3334 C   0  0  0  0  0  0  0  0  0  0  0  0
  -26.8029  -19.2985   17.7892 C   0  0  0  0  0  0  0  0  0  0  0  0
  -26.8444  -19.0733   21.6695 C   0  0  0  0  0  0  0  0  0  0  0  0
  -31.4234  -22.7326   18.9628 C   0  0  0  0  0  0  0  0  0  0  0  0
  -26.7274  -20.2300   20.6795 C   0  0  0  0  0  0  0  0  0  0  0  0
  -24.6775  -19.6273   16.3587 C   0  0  0  0  0  0  0  0  0  0  0  0
  -30.5347  -23.6646   19.7783 C   0  0  0  0  0  0  0  0  0  1  0  0
  -24.3399  -25.7665   23.2393 C   0  0  1  0  0  0  0  0  0  0  0  0
  -22.2128  -23.2474   21.3687 C   0  0  2  0  0  0  0  0  0  0  0  0
  -25.8748  -20.3055   17.0456 C   0  0  2  0  0  0  0  0  0  0  0  0
  -24.1852  -25.9530   24.7751 C   0  0  0  0  0  0  0  0  0  0  0  0
  -22.1690  -14.2957   20.9426 N   0  0  0  0  0  0  0  0  0  0  0  0
  -29.0182  -20.8398   20.2681 N   0  0  0  0  0  0  0  0  0  0  0  0
  -27.8726  -20.3130   19.8030 N   0  0  0  0  0  0  0  0  0  0  0  0
  -23.1487  -15.1580   20.6221 N   0  0  0  0  0  0  0  0  0  0  0  0
  -25.5780  -27.3235   21.7673 N   0  0  0  0  0  0  0  0  0  0  0  0
  -22.1595  -18.3647   18.7924 N   0  0  0  0  0  0  0  0  0  0  0  0
  -25.4758  -15.3027   20.2045 N   0  0  0  0  0  0  0  0  0  0  0  0
  -24.8487  -10.9213   21.1029 N   0  0  0  0  0  0  0  0  0  0  0  0
  -26.0117  -30.5299   22.7162 N   0  0  0  0  0  0  0  0  0  0  0  0
  -23.2597  -25.0083   22.6176 N   0  0  0  0  0  0  0  0  0  0  0  0
  -23.8959  -18.7943   17.2452 N   0  0  0  0  0  0  0  0  0  0  0  0
  -22.4649  -22.5800   20.0603 N   0  3  0  0  0  0  0  0  0  0  0  0
  -26.4174  -12.5068   20.5697 O   0  0  0  0  0  0  0  0  0  0  0  0
  -27.7698  -29.0289   22.4364 O   0  0  0  0  0  0  0  0  0  0  0  0
  -23.4590  -27.8661   22.5744 O   0  0  0  0  0  0  0  0  0  0  0  0
  -24.6002  -23.3381   21.7284 O   0  0  0  0  0  0  0  0  0  0  0  0
  -22.4758  -20.4761   17.8871 O   0  0  0  0  0  0  0  0  0  0  0  0
  -20.0021   -8.4773   22.3567 O   0  0  0  0  0  0  0  0  0  0  0  0
  -30.7546  -25.0053   19.3419 O   0  0  0  0  0  0  0  0  0  1  0  0
  -22.2047   -5.1354   26.1494 F   0  0  0  0  0  0  0  0  0  0  0  0
  -22.4889   -7.3341   21.9672 F   0  0  0  0  0  0  0  0  0  0  0  0
  1  2  1  0  0  0  0
  1  5  2  0  0  0  0
  2  6  2  0  0  0  0
  3  8  2  0  0  0  0
  3 16  1  0  0  0  0
  4  9  1  0  0  0  0
  4 16  2  0  0  0  0
  5 18  1  0  0  0  0
  6 20  1  0  0  0  0
  7 10  2  0  0  0  0
  7 19  1  0  0  0  0
  8 22  1  0  0  0  0
  9 22  2  0  0  0  0
 10 23  1  0  0  0  0
 11 12  2  0  0  0  0
 11 24  1  0  0  0  0
 12 25  1  0  0  0  0
 13 21  1  0  0  0  0
 13 23  2  0  0  0  0
 14 25  2  0  0  0  0
 14 26  1  0  0  0  0
 15 28  1  0  0  0  0
 15 29  2  0  0  0  0
 16 27  1  0  0  0  0
 17 27  1  0  0  0  0
 17 30  2  0  0  0  0
 17 31  1  0  0  0  0
 18 20  2  0  0  0  0
 18 36  1  0  0  0  0
 19 21  2  0  0  0  0
 19 37  1  0  0  0  0
 20 45  1  0  0  0  0
 21 38  1  0  0  0  0
 22 83  1  0  0  0  0
 23 84  1  0  0  0  0
 24 26  2  0  0  0  0
 24 83  1  0  0  0  0
 25 85  1  0  0  0  0
 26 86  1  0  0  0  0
 27 66  2  0  0  0  0
 28 55  1  0  0  0  0
 28 67  2  0  0  0  0
 29 56  1  0  0  0  0
 29 68  1  0  0  0  0
 30 69  1  0  0  0  0
 30 72  1  0  0  0  0
 31 73  1  0  0  0  0
 31 78  2  0  0  0  0
 32 46  1  0  0  0  0
 32 74  1  0  0  0  0
 32 79  2  0  0  0  0
 33 62  1  0  0  0  0
 33 70  1  0  0  0  0
 33 80  2  0  0  0  0
 34 63  1  0  0  0  0
 34 75  1  0  0  0  0
 34 81  2  0  0  0  0
 35 71  1  0  0  0  0
 35 76  1  0  0  0  0
 35 82  2  0  0  0  0
 36 39  1  0  0  0  0
 37 46  1  0  0  0  0
 38 70  1  0  0  0  0
 39 41  1  0  0  0  0
 40 42  1  0  0  0  0
 40 43  1  0  0  0  0
 41 45  1  0  0  0  0
 42 47  1  0  0  0  0
 43 71  1  0  0  0  0
 44 47  1  0  0  0  0
 44 71  1  0  0  0  0
 45 74  1  0  0  0  0
 46 70  1  0  0  0  0
 47 69  1  0  0  0  0
 48 57  1  0  0  0  0
 49 63  1  0  0  0  0
 50 64  1  0  0  0  0
 51 65  1  0  0  0  0
 52 65  1  0  0  0  0
 53 65  1  0  0  0  0
 54 77  1  0  0  0  0
 55 58  1  0  0  0  0
 56 64  1  0  0  0  0
 57 59  1  0  0  0  0
 58 61  1  0  0  0  0
 59 68  1  0  0  0  0
 60 64  1  0  0  0  0
 60 76  1  0  0  0  0
 61 84  1  0  0  0  0
 62 65  1  0  0  0  0
 62 75  1  0  0  0  0
 63 77  1  0  0  0  0
 66 69  1  0  0  0  0
 67 68  1  0  0  0  0
M  CHG  1  77   1
M  ISO  4  35 100  61 101  76 100  84 101
M  END
> <Batch ID>
0045

> <Smiles>
CCCn1nc(CC[101CH2:1][101O:1]c2ccc3c(c2)CN(C(=O)C(NC(=O)C(C)NC)C(C)(C)C)C(C(=O)NC2CCCc4ccccc42)C3)cc1CC(C)C[100NH:0][100C:0](=O)N1CCCC(n2nc(-c3ccc(Oc4ccc(F)cc4F)cc3)c(C(N)=O)c2N)C1

> <Shape>
0.245

> <Color>
0.101

> <Negative vol penalty>
0.000

$$$$

  -OEChem-04052317193D

 85 93  0     1  0  0  0  0  0999 V2000
  -28.6762  -35.5030   20.2911 C   0  0  0  0  0  0  0  0  0  0  0  0
  -29.2311  -34.2274   20.3051 C   0  0  0  0  0  0  0  0  0  0  0  0
  -22.4947  -10.5816   22.2287 C   0  0  0  0  0  0  0  0  0  0  0  0
  -22.5170  -10.2786   19.8319 C   0  0  0  0  0  0  0  0  0  0  0  0
  -27.4261  -35.7245   20.8674 C   0  0  0  0  0  0  0  0  0  0  0  0
  -28.5367  -33.1726   20.8965 C   0  0  0  0  0  0  0  0  0  0  0  0
  -28.4973  -27.3201   19.0931 C   0  0  0  0  0  0  0  0  0  0  0  0
  -21.9932   -9.2897   22.3874 C   0  0  0  0  0  0  0  0  0  0  0  0
  -22.0154   -8.9867   19.9905 C   0  0  0  0  0  0  0  0  0  0  0  0
  -29.1975  -26.1980   19.5339 C   0  0  0  0  0  0  0  0  0  0  0  0
  -23.1937   -6.1290   22.3464 C   0  0  0  0  0  0  0  0  0  0  0  0
  -23.7689   -5.3269   23.3319 C   0  0  0  0  0  0  0  0  0  0  0  0
  -27.3294  -25.5897   20.9337 C   0  0  0  0  0  0  0  0  0  0  0  0
  -28.5982  -20.7873   18.9679 C   0  0  0  0  0  0  0  0  0  0  0  0
  -21.6248   -5.1377   24.4293 C   0  0  0  0  0  0  0  0  0  0  0  0
  -28.1466  -21.2016   21.1346 C   0  0  0  0  0  0  0  0  0  0  0  0
  -22.7566  -11.0760   20.9510 C   0  0  0  0  0  0  0  0  0  0  0  0
  -24.6267  -12.7994   20.7496 C   0  0  0  0  0  0  0  0  0  0  0  0
  -26.7117  -34.6701   21.4576 C   0  0  0  0  0  0  0  0  0  0  0  0
  -27.2100  -27.5918   19.5783 C   0  0  0  0  0  0  0  0  0  0  0  0
  -27.2765  -33.3805   21.4825 C   0  0  0  0  0  0  0  0  0  0  0  0
  -26.6139  -26.7145   20.4955 C   0  0  0  0  0  0  0  0  0  0  0  0
  -29.0813  -21.4111   20.1447 C   0  0  0  0  0  0  0  0  0  0  0  0
  -21.7535   -8.4923   21.2683 C   0  0  0  0  0  0  0  0  0  0  0  0
  -28.6147  -25.3342   20.4566 C   0  0  0  0  0  0  0  0  0  0  0  0
  -21.8341   -6.4357   22.4024 C   0  0  0  0  0  0  0  0  0  0  0  0
  -22.9844   -4.8312   24.3734 C   0  0  0  0  0  0  0  0  0  0  0  0
  -21.0496   -5.9400   23.4438 C   0  0  0  0  0  0  0  0  0  0  0  0
  -23.2741  -12.4106   20.7864 C   0  0  0  0  0  0  0  0  0  0  0  0
  -27.3830  -20.2158   19.2745 C   0  0  0  0  0  0  0  0  0  0  0  0
  -24.5879  -14.1613   20.5763 C   0  0  0  0  0  0  0  0  0  0  0  0
  -25.8121  -12.0007   20.8620 C   0  0  0  0  0  0  0  0  0  0  0  0
  -25.8902  -29.9647   21.2310 C   0  0  0  0  0  0  0  0  0  0  0  0
  -23.1505  -28.3306   20.6427 C   0  0  0  0  0  0  0  0  0  0  0  0
  -21.6545  -25.3533   19.9047 C   0  0  0  0  0  0  0  0  0  0  0  0
  -22.5101  -18.6902   18.0628 C   0  0  0  0  0  0  0  0  0  0  0  0
  -25.3848  -34.9677   22.1098 C   0  0  0  0  0  0  0  0  0  0  0  0
  -26.4573  -28.7919   19.0725 C   0  0  0  0  0  0  0  0  0  0  0  0
  -25.2264  -26.9504   21.0317 C   0  0  0  0  0  0  0  0  0  0  0  0
  -24.5478  -33.7209   22.3844 C   0  0  0  0  0  0  0  0  0  0  0  0
  -20.7189  -17.4074   20.8597 C   0  0  0  0  0  0  0  0  0  0  0  0
  -25.4041  -32.6338   23.0260 C   0  0  0  0  0  0  0  0  0  0  0  0
  -21.3311  -16.0234   21.0826 C   0  0  0  0  0  0  0  0  0  0  0  0
  -20.6297  -17.7525   19.3748 C   0  0  0  0  0  0  0  0  0  0  0  0
  -22.5113  -16.2475   18.8565 C   0  0  0  0  0  0  0  0  0  0  0  0
  -26.5430  -32.2058   22.0925 C   0  0  1  0  0  0  0  0  0  0  0  0
  -25.3550  -29.2499   20.0226 C   0  0  1  0  0  0  0  0  0  0  0  0
  -22.6735  -15.8780   20.3409 C   0  0  2  0  0  0  0  0  0  0  0  0
  -25.2266  -17.1949   23.8391 C   0  0  0  0  0  0  0  0  0  0  0  0
  -19.3980  -24.3236   19.5236 C   0  0  0  0  0  0  0  0  0  0  0  0
  -22.6225  -28.3815   23.6475 C   0  0  0  0  0  0  0  0  0  0  0  0
  -20.9239  -26.5736   23.3092 C   0  0  0  0  0  0  0  0  0  0  0  0
  -20.6070  -28.7987   22.2269 C   0  0  0  0  0  0  0  0  0  0  0  0
  -22.3535  -24.5632   17.1395 C   0  0  0  0  0  0  0  0  0  0  0  0
  -30.3804  -22.1658   20.2887 C   0  0  0  0  0  0  0  0  0  0  0  0
  -26.4547  -19.4466   18.4203 C   0  0  0  0  0  0  0  0  0  0  0  0
  -24.9642  -18.4149   22.9708 C   0  0  0  0  0  0  0  0  0  0  0  0
  -25.3943  -20.2962   17.6801 C   0  0  0  0  0  0  0  0  0  0  0  0
  -26.2228  -18.8504   22.2220 C   0  0  0  0  0  0  0  0  0  0  0  0
  -25.9414  -20.0519   21.3211 C   0  0  0  0  0  0  0  0  0  0  0  0
  -24.4724  -19.4878   16.7695 C   0  0  0  0  0  0  0  0  0  0  0  0
  -30.2256  -23.6509   19.9795 C   0  0  0  0  0  0  0  0  0  1  0  0
  -22.3874  -27.2345   21.3464 C   0  0  1  0  0  0  0  0  0  0  0  0
  -20.6046  -24.9820   18.8730 C   0  0  2  0  0  0  0  0  0  0  0  0
  -21.6621  -27.7434   22.6241 C   0  0  0  0  0  0  0  0  0  0  0  0
  -22.4372  -13.4423   20.6477 N   0  0  0  0  0  0  0  0  0  0  0  0
  -27.1185  -20.4743   20.5941 N   0  0  0  0  0  0  0  0  0  0  0  0
  -23.2660  -14.4927   20.5222 N   0  0  0  0  0  0  0  0  0  0  0  0
  -24.5335  -28.1407   20.5116 N   0  0  0  0  0  0  0  0  0  0  0  0
  -21.9360  -17.5959   18.7305 N   0  0  0  0  0  0  0  0  0  0  0  0
  -25.5559  -15.0958   20.4664 N   0  0  0  0  0  0  0  0  0  0  0  0
  -25.6716  -10.6172   21.0363 N   0  0  0  0  0  0  0  0  0  0  0  0
  -26.0441  -31.3268   21.0566 N   0  0  0  0  0  0  0  0  0  0  0  0
  -21.4990  -26.6497   20.3478 N   0  0  0  0  0  0  0  0  0  0  0  0
  -23.7524  -18.4581   17.4852 N   0  0  0  0  0  0  0  0  0  0  0  0
  -21.1738  -24.0356   17.8723 N   0  3  0  0  0  0  0  0  0  0  0  0
  -26.9617  -12.5013   20.8259 O   0  0  0  0  0  0  0  0  0  0  0  0
  -26.1433  -29.3278   22.2469 O   0  0  0  0  0  0  0  0  0  0  0  0
  -22.5409  -29.3155   20.2185 O   0  0  0  0  0  0  0  0  0  0  0  0
  -22.5232  -24.5704   20.2826 O   0  0  0  0  0  0  0  0  0  0  0  0
  -21.9591  -19.7939   17.9916 O   0  0  0  0  0  0  0  0  0  0  0  0
  -21.2644   -7.2316   21.4228 O   0  0  0  0  0  0  0  0  0  0  0  0
  -29.2962  -24.2386   20.8890 O   0  0  0  0  0  0  0  0  0  1  0  0
  -23.5366   -4.0596   25.3188 F   0  0  0  0  0  0  0  0  0  0  0  0
  -19.7426   -6.2302   23.5022 F   0  0  0  0  0  0  0  0  0  0  0  0
  1  2  1  0  0  0  0
  1  5  2  0  0  0  0
  2  6  2  0  0  0  0
  3  8  2  0  0  0  0
  3 17  1  0  0  0  0
  4  9  1  0  0  0  0
  4 17  2  0  0  0  0
  5 19  1  0  0  0  0
  6 21  1  0  0  0  0
  7 10  2  0  0  0  0
  7 20  1  0  0  0  0
  8 24  1  0  0  0  0
  9 24  2  0  0  0  0
 10 25  1  0  0  0  0
 11 12  2  0  0  0  0
 11 26  1  0  0  0  0
 12 27  1  0  0  0  0
 13 22  1  0  0  0  0
 13 25  2  0  0  0  0
 14 23  1  0  0  0  0
 14 30  2  0  0  0  0
 15 27  2  0  0  0  0
 15 28  1  0  0  0  0
 16 23  2  0  0  0  0
 16 67  1  0  0  0  0
 17 29  1  0  0  0  0
 18 29  1  0  0  0  0
 18 31  2  0  0  0  0
 18 32  1  0  0  0  0
 19 21  2  0  0  0  0
 19 37  1  0  0  0  0
 20 22  2  0  0  0  0
 20 38  1  0  0  0  0
 21 46  1  0  0  0  0
 22 39  1  0  0  0  0
 23 55  1  0  0  0  0
 24 82  1  0  0  0  0
 25 83  1  0  0  0  0
 26 28  2  0  0  0  0
 26 82  1  0  0  0  0
 27 84  1  0  0  0  0
 28 85  1  0  0  0  0
 29 66  2  0  0  0  0
 30 56  1  0  0  0  0
 30 67  1  0  0  0  0
 31 68  1  0  0  0  0
 31 71  1  0  0  0  0
 32 72  1  0  0  0  0
 32 77  2  0  0  0  0
 33 47  1  0  0  0  0
 33 73  1  0  0  0  0
 33 78  2  0  0  0  0
 34 63  1  0  0  0  0
 34 69  1  0  0  0  0
 34 79  2  0  0  0  0
 35 64  1  0  0  0  0
 35 74  1  0  0  0  0
 35 80  2  0  0  0  0
 36 70  1  0  0  0  0
 36 75  1  0  0  0  0
 36 81  2  0  0  0  0
 37 40  1  0  0  0  0
 38 47  1  0  0  0  0
 39 69  1  0  0  0  0
 40 42  1  0  0  0  0
 41 43  1  0  0  0  0
 41 44  1  0  0  0  0
 42 46  1  0  0  0  0
 43 48  1  0  0  0  0
 44 70  1  0  0  0  0
 45 48  1  0  0  0  0
 45 70  1  0  0  0  0
 46 73  1  0  0  0  0
 47 69  1  0  0  0  0
 48 68  1  0  0  0  0
 49 57  1  0  0  0  0
 50 64  1  0  0  0  0
 51 65  1  0  0  0  0
 52 65  1  0  0  0  0
 53 65  1  0  0  0  0
 54 76  1  0  0  0  0
 55 62  1  0  0  0  0
 56 58  1  0  0  0  0
 57 59  1  0  0  0  0
 58 61  1  0  0  0  0
 59 60  1  0  0  0  0
 60 67  1  0  0  0  0
 61 75  1  0  0  0  0
 62 83  1  0  0  0  0
 63 65  1  0  0  0  0
 63 74  1  0  0  0  0
 64 76  1  0  0  0  0
 66 68  1  0  0  0  0
M  CHG  1  76   1
M  ISO  4  36 100  62 101  75 100  83 101
M  END
> <Batch ID>
0045

> <Smiles>
CCCCn1cc(C[101CH2:1][101O:1]c2ccc3c(c2)CN(C(=O)C(NC(=O)C(C)NC)C(C)(C)C)C(C(=O)NC2CCCc4ccccc42)C3)cc1CCC[100NH:0][100C:0](=O)N1CCCC(n2nc(-c3ccc(Oc4ccc(F)cc4F)cc3)c(C(N)=O)c2N)C1

> <Shape>
0.257

> <Color>
0.096

> <Negative vol penalty>
0.000

$$$$

  -OEChem-04052317193D

 83 91  0     1  0  0  0  0  0999 V2000
  -30.3285  -35.1988   22.1589 C   0  0  0  0  0  0  0  0  0  0  0  0
  -30.8183  -33.9401   21.8257 C   0  0  0  0  0  0  0  0  0  0  0  0
  -24.2495   -9.2747   21.1562 C   0  0  0  0  0  0  0  0  0  0  0  0
  -25.2193  -10.0024   23.2460 C   0  0  0  0  0  0  0  0  0  0  0  0
  -29.0523  -35.3266   22.7056 C   0  0  0  0  0  0  0  0  0  0  0  0
  -30.0326  -32.8082   22.0401 C   0  0  0  0  0  0  0  0  0  0  0  0
  -28.6991  -26.3333   19.2809 C   0  0  0  0  0  0  0  0  0  0  0  0
  -26.6140  -20.9232   22.9745 C   0  0  0  0  0  0  0  0  0  0  0  0
  -23.9992   -8.0190   21.7096 C   0  0  0  0  0  0  0  0  0  0  0  0
  -24.9689   -8.7467   23.7994 C   0  0  0  0  0  0  0  0  0  0  0  0
  -28.6411  -24.9926   19.6588 C   0  0  0  0  0  0  0  0  0  0  0  0
  -22.7776   -4.7367   22.6838 C   0  0  0  0  0  0  0  0  0  0  0  0
  -21.5270   -4.1638   22.4528 C   0  0  0  0  0  0  0  0  0  0  0  0
  -26.7440  -19.5769   23.2967 C   0  0  0  0  0  0  0  0  0  0  0  0
  -26.4211  -25.3419   20.5356 C   0  0  0  0  0  0  0  0  0  0  0  0
  -20.4657   -6.0417   23.5412 C   0  0  0  0  0  0  0  0  0  0  0  0
  -24.8596  -10.2664   21.9244 C   0  0  0  0  0  0  0  0  0  0  0  0
  -24.2641  -12.6820   21.3607 C   0  0  0  0  0  0  0  0  0  0  0  0
  -28.2468  -34.1967   22.9179 C   0  0  0  0  0  0  0  0  0  0  0  0
  -27.6210  -27.1924   19.5377 C   0  0  0  0  0  0  0  0  0  0  0  0
  -28.7450  -32.9209   22.5915 C   0  0  0  0  0  0  0  0  0  0  0  0
  -26.4669  -26.6925   20.1576 C   0  0  0  0  0  0  0  0  0  0  0  0
  -26.3878  -21.2978   21.6547 C   0  0  0  0  0  0  0  0  0  0  0  0
  -24.3589   -7.7550   23.0311 C   0  0  0  0  0  0  0  0  0  0  0  0
  -27.5032  -24.4973   20.2889 C   0  0  0  0  0  0  0  0  0  0  0  0
  -22.8723   -5.9621   23.3436 C   0  0  0  0  0  0  0  0  0  0  0  0
  -20.3711   -4.8163   22.8815 C   0  0  0  0  0  0  0  0  0  0  0  0
  -21.7164   -6.6145   23.7723 C   0  0  0  0  0  0  0  0  0  0  0  0
  -25.1189  -11.5635   21.3532 C   0  0  0  0  0  0  0  0  0  0  0  0
  -26.6407  -18.6516   22.2706 C   0  0  0  0  0  0  0  0  0  0  0  0
  -26.3006  -20.2954   20.7021 C   0  0  0  0  0  0  0  0  0  0  0  0
  -24.9678  -13.6564   20.6959 C   0  0  0  0  0  0  0  0  0  0  0  0
  -22.9514  -12.8273   21.9188 C   0  0  0  0  0  0  0  0  0  0  0  0
  -27.2162  -29.8290   21.2664 C   0  0  0  0  0  0  0  0  0  0  0  0
  -24.2844  -29.8210   19.8783 C   0  0  0  0  0  0  0  0  0  0  0  0
  -21.7982  -28.0354   18.3694 C   0  0  0  0  0  0  0  0  0  0  0  0
  -30.6691  -15.2099   20.2905 C   0  0  0  0  0  0  0  0  0  0  0  0
  -26.8923  -34.3802   23.5553 C   0  0  0  0  0  0  0  0  0  0  0  0
  -27.6886  -28.6298   19.0997 C   0  0  0  0  0  0  0  0  0  0  0  0
  -25.2743  -27.5687   20.4377 C   0  0  0  0  0  0  0  0  0  0  0  0
  -25.9781  -33.1672   23.4030 C   0  0  0  0  0  0  0  0  0  0  0  0
  -28.7426  -13.6952   17.5163 C   0  0  0  0  0  0  0  0  0  0  0  0
  -26.7320  -31.8848   23.7405 C   0  0  0  0  0  0  0  0  0  0  0  0
  -27.5724  -13.0361   18.2445 C   0  0  0  0  0  0  0  0  0  0  0  0
  -29.9843  -13.7802   18.3988 C   0  0  0  0  0  0  0  0  0  0  0  0
  -28.5795  -13.7937   20.4336 C   0  0  0  0  0  0  0  0  0  0  0  0
  -27.9131  -31.6718   22.7860 C   0  0  1  0  0  0  0  0  0  0  0  0
  -26.7356  -29.5356   19.8734 C   0  0  1  0  0  0  0  0  0  0  0  0
  -27.2986  -13.7345   19.5878 C   0  0  2  0  0  0  0  0  0  0  0  0
  -26.0555  -20.6384   19.2692 C   0  0  0  0  0  0  0  0  0  0  0  0
  -19.5074  -28.2971   17.3788 C   0  0  0  0  0  0  0  0  0  0  0  0
  -23.0942  -29.9933   22.6825 C   0  0  0  0  0  0  0  0  0  0  0  0
  -20.8914  -29.3009   21.7145 C   0  0  0  0  0  0  0  0  0  0  0  0
  -21.9612  -31.4307   20.9782 C   0  0  0  0  0  0  0  0  0  0  0  0
  -31.2057  -17.1399   21.7281 C   0  0  0  0  0  0  0  0  0  0  0  0
  -22.7191  -27.1280   15.7072 C   0  0  0  0  0  0  0  0  0  0  0  0
  -26.2479  -22.7491   21.3006 C   0  0  0  0  0  0  0  0  0  1  0  0
  -26.7735  -17.1979   22.5809 C   0  0  0  0  0  0  0  0  0  0  0  0
  -28.2147  -16.6580   22.4992 C   0  0  0  0  0  0  0  0  0  0  0  0
  -28.8470  -16.7611   21.1129 C   0  0  0  0  0  0  0  0  0  0  0  0
  -22.9404  -29.2258   20.2221 C   0  0  1  0  0  0  0  0  0  0  0  0
  -21.0027  -28.2891   17.1016 C   0  0  2  0  0  0  0  0  0  0  0  0
  -22.2449  -29.9714   21.3959 C   0  0  0  0  0  0  0  0  0  0  0  0
  -26.2771  -11.8038   20.7327 N   0  0  0  0  0  0  0  0  0  0  0  0
  -26.4215  -18.9773   20.9770 N   0  0  0  0  0  0  0  0  0  0  0  0
  -26.1549  -13.0845   20.3440 N   0  0  0  0  0  0  0  0  0  0  0  0
  -25.3912  -28.9683   19.9961 N   0  0  0  0  0  0  0  0  0  0  0  0
  -29.6862  -14.4091   19.6860 N   0  0  0  0  0  0  0  0  0  0  0  0
  -24.6806  -14.9380   20.3837 N   0  0  0  0  0  0  0  0  0  0  0  0
  -22.3760  -11.7266   22.5682 N   0  0  0  0  0  0  0  0  0  0  0  0
  -27.4483  -31.1690   21.5110 N   0  0  0  0  0  0  0  0  0  0  0  0
  -22.1707  -29.2127   18.9829 N   0  0  0  0  0  0  0  0  0  0  0  0
  -30.2246  -16.2742   21.0895 N   0  0  0  0  0  0  0  0  0  0  0  0
  -21.2876  -27.2317   16.0909 N   0  3  0  0  0  0  0  0  0  0  0  0
  -22.3012  -13.8962   21.8294 O   0  0  0  0  0  0  0  0  0  0  0  0
  -27.3641  -28.9079   22.0610 O   0  0  0  0  0  0  0  0  0  0  0  0
  -24.3491  -30.9970   19.5116 O   0  0  0  0  0  0  0  0  0  0  0  0
  -22.0595  -26.9057   18.7769 O   0  0  0  0  0  0  0  0  0  0  0  0
  -31.8752  -14.9922   20.1177 O   0  0  0  0  0  0  0  0  0  0  0  0
  -24.1146   -6.5299   23.5715 O   0  0  0  0  0  0  0  0  0  0  0  0
  -27.4443  -23.1893   20.6594 O   0  0  0  0  0  0  0  0  0  1  0  0
  -19.1701   -4.2668   22.6582 F   0  0  0  0  0  0  0  0  0  0  0  0
  -21.8010   -7.7925   24.4056 F   0  0  0  0  0  0  0  0  0  0  0  0
  1  2  1  0  0  0  0
  1  5  2  0  0  0  0
  2  6  2  0  0  0  0
  3  9  2  0  0  0  0
  3 17  1  0  0  0  0
  4 10  1  0  0  0  0
  4 17  2  0  0  0  0
  5 19  1  0  0  0  0
  6 21  1  0  0  0  0
  7 11  2  0  0  0  0
  7 20  1  0  0  0  0
  8 14  2  0  0  0  0
  8 23  1  0  0  0  0
  9 24  1  0  0  0  0
 10 24  2  0  0  0  0
 11 25  1  0  0  0  0
 12 13  2  0  0  0  0
 12 26  1  0  0  0  0
 13 27  1  0  0  0  0
 14 30  1  0  0  0  0
 15 22  1  0  0  0  0
 15 25  2  0  0  0  0
 16 27  2  0  0  0  0
 16 28  1  0  0  0  0
 17 29  1  0  0  0  0
 18 29  1  0  0  0  0
 18 32  2  0  0  0  0
 18 33  1  0  0  0  0
 19 21  2  0  0  0  0
 19 38  1  0  0  0  0
 20 22  2  0  0  0  0
 20 39  1  0  0  0  0
 21 47  1  0  0  0  0
 22 40  1  0  0  0  0
 23 31  2  0  0  0  0
 23 57  1  0  0  0  0
 24 80  1  0  0  0  0
 25 81  1  0  0  0  0
 26 28  2  0  0  0  0
 26 80  1  0  0  0  0
 27 82  1  0  0  0  0
 28 83  1  0  0  0  0
 29 64  2  0  0  0  0
 30 58  1  0  0  0  0
 30 65  2  0  0  0  0
 31 50  1  0  0  0  0
 31 65  1  0  0  0  0
 32 66  1  0  0  0  0
 32 69  1  0  0  0  0
 33 70  1  0  0  0  0
 33 75  2  0  0  0  0
 34 48  1  0  0  0  0
 34 71  1  0  0  0  0
 34 76  2  0  0  0  0
 35 61  1  0  0  0  0
 35 67  1  0  0  0  0
 35 77  2  0  0  0  0
 36 62  1  0  0  0  0
 36 72  1  0  0  0  0
 36 78  2  0  0  0  0
 37 68  1  0  0  0  0
 37 73  1  0  0  0  0
 37 79  2  0  0  0  0
 38 41  1  0  0  0  0
 39 48  1  0  0  0  0
 40 67  1  0  0  0  0
 41 43  1  0  0  0  0
 42 44  1  0  0  0  0
 42 45  1  0  0  0  0
 43 47  1  0  0  0  0
 44 49  1  0  0  0  0
 45 68  1  0  0  0  0
 46 49  1  0  0  0  0
 46 68  1  0  0  0  0
 47 71  1  0  0  0  0
 48 67  1  0  0  0  0
 49 66  1  0  0  0  0
 51 62  1  0  0  0  0
 52 63  1  0  0  0  0
 53 63  1  0  0  0  0
 54 63  1  0  0  0  0
 55 73  1  0  0  0  0
 56 74  1  0  0  0  0
 57 81  1  0  0  0  0
 58 59  1  0  0  0  0
 59 60  1  0  0  0  0
 60 73  1  0  0  0  0
 61 63  1  0  0  0  0
 61 72  1  0  0  0  0
 62 74  1  0  0  0  0
 64 66  1  0  0  0  0
M  CHG  1  74   1
M  ISO  4  37 100  57 101  73 100  81 101
M  END
> <Batch ID>
0045

> <Smiles>
CNC(C)C(=O)NC(C(=O)N1Cc2cc([101O:1][101CH2:1]c3ccc(CCC[100N:0](C)[100C:0](=O)N4CCCC(n5nc(-c6ccc(Oc7ccc(F)cc7F)cc6)c(C(N)=O)c5N)C4)nc3C)ccc2CC1C(=O)NC1CCCc2ccccc21)C(C)(C)C

> <Shape>
0.285

> <Color>
0.122

> <Negative vol penalty>
0.000

$$$$

  -OEChem-04052317192D

  0  0  0     0  0  0  0  0  0999 V2000
M  END
$$$$

  -OEChem-04052317193D

 84 92  0     1  0  0  0  0  0999 V2000
  -31.1985  -24.9365   14.1242 C   0  0  0  0  0  0  0  0  0  0  0  0
  -30.1925  -24.3629   14.8950 C   0  0  0  0  0  0  0  0  0  0  0  0
  -24.7775  -10.0925   21.7120 C   0  0  0  0  0  0  0  0  0  0  0  0
  -25.1058  -11.4362   23.6928 C   0  0  0  0  0  0  0  0  0  0  0  0
  -32.0062  -25.9357   14.6657 C   0  0  0  0  0  0  0  0  0  0  0  0
  -29.9942  -24.7874   16.2084 C   0  0  0  0  0  0  0  0  0  0  0  0
  -25.1014  -25.5014   17.3016 C   0  0  0  0  0  0  0  0  0  0  0  0
  -24.6125   -8.9591   22.5082 C   0  0  0  0  0  0  0  0  0  0  0  0
  -24.9407  -10.3029   24.4890 C   0  0  0  0  0  0  0  0  0  0  0  0
  -24.3345  -24.3662   17.5604 C   0  0  0  0  0  0  0  0  0  0  0  0
  -22.3806   -8.4238   25.6445 C   0  0  0  0  0  0  0  0  0  0  0  0
  -21.5625   -8.5369   26.7685 C   0  0  0  0  0  0  0  0  0  0  0  0
  -24.5418  -24.7735   19.9290 C   0  0  0  0  0  0  0  0  0  0  0  0
  -23.4268   -7.9418   28.1853 C   0  0  0  0  0  0  0  0  0  0  0  0
  -23.5308  -18.6477   19.7728 C   0  0  0  0  0  0  0  0  0  0  0  0
  -23.2651  -19.9296   21.5395 C   0  0  0  0  0  0  0  0  0  0  0  0
  -25.0242  -11.3311   22.3043 C   0  0  0  0  0  0  0  0  0  0  0  0
  -24.1925  -13.3890   21.0471 C   0  0  0  0  0  0  0  0  0  0  0  0
  -31.8114  -26.3794   15.9832 C   0  0  0  0  0  0  0  0  0  0  0  0
  -25.6042  -26.2764   18.3566 C   0  0  0  0  0  0  0  0  0  0  0  0
  -30.8009  -25.7925   16.7685 C   0  0  0  0  0  0  0  0  0  0  0  0
  -25.3127  -25.9196   19.6809 C   0  0  0  0  0  0  0  0  0  0  0  0
  -23.9061  -18.7888   21.1223 C   0  0  0  0  0  0  0  0  0  0  0  0
  -24.6941   -9.0643   23.8967 C   0  0  0  0  0  0  0  0  0  0  0  0
  -24.0571  -24.0005   18.8743 C   0  0  0  0  0  0  0  0  0  0  0  0
  -23.7218   -8.0697   25.7908 C   0  0  0  0  0  0  0  0  0  0  0  0
  -22.0856   -8.2959   28.0389 C   0  0  0  0  0  0  0  0  0  0  0  0
  -24.2449   -7.8287   27.0612 C   0  0  0  0  0  0  0  0  0  0  0  0
  -25.1952  -12.5021   21.4824 C   0  0  0  0  0  0  0  0  0  0  0  0
  -24.8637  -14.3266   20.3008 C   0  0  0  0  0  0  0  0  0  0  0  0
  -22.7805  -13.3674   21.2952 C   0  0  0  0  0  0  0  0  0  0  0  0
  -28.5107  -27.0629   19.3751 C   0  0  0  0  0  0  0  0  0  0  0  0
  -26.8556  -28.9520   21.4279 C   0  0  0  0  0  0  0  0  0  0  0  0
  -23.9369  -29.5680   23.0858 C   0  0  0  0  0  0  0  0  0  0  0  0
  -29.3721  -17.7822   20.0780 C   0  0  0  0  0  0  0  0  0  0  0  0
  -32.7402  -27.4290   16.5405 C   0  0  0  0  0  0  0  0  0  0  0  0
  -26.4074  -27.5131   18.0601 C   0  0  0  0  0  0  0  0  0  0  0  0
  -25.8118  -26.7293   20.8486 C   0  0  0  0  0  0  0  0  0  0  0  0
  -32.2216  -28.0851   17.8176 C   0  0  0  0  0  0  0  0  0  0  0  0
  -29.6090  -14.4067   18.5774 C   0  0  0  0  0  0  0  0  0  0  0  0
  -31.7107  -27.0279   18.7913 C   0  0  0  0  0  0  0  0  0  0  0  0
  -28.4371  -13.6712   19.2253 C   0  0  0  0  0  0  0  0  0  0  0  0
  -30.1466  -15.5179   19.4740 C   0  0  0  0  0  0  0  0  0  0  0  0
  -27.9386  -15.7562   20.5612 C   0  0  0  0  0  0  0  0  0  0  0  0
  -30.5387  -26.2435   18.1891 C   0  0  1  0  0  0  0  0  0  0  0  0
  -27.2996  -27.9389   19.2220 C   0  0  1  0  0  0  0  0  0  0  0  0
  -27.3435  -14.6606   19.6640 C   0  0  2  0  0  0  0  0  0  0  0  0
  -28.6122  -22.3199   19.5519 C   0  0  0  0  0  0  0  0  0  0  0  0
  -22.8993  -31.1638   24.7212 C   0  0  0  0  0  0  0  0  0  0  0  0
  -28.4075  -27.6304   23.6984 C   0  0  0  0  0  0  0  0  0  0  0  0
  -26.7056  -28.5363   25.2957 C   0  0  0  0  0  0  0  0  0  0  0  0
  -28.1012  -30.1003   23.9434 C   0  0  0  0  0  0  0  0  0  0  0  0
  -21.8603  -30.3898   21.1438 C   0  0  0  0  0  0  0  0  0  0  0  0
  -24.7849  -17.9113   21.9115 C   0  0  0  0  0  0  0  0  0  0  0  0
  -28.3271  -20.8338   19.3851 C   0  0  0  0  0  0  0  0  0  0  0  0
  -26.2889  -18.2842   21.8784 C   0  0  0  0  0  0  0  0  0  0  0  0
  -21.7023  -21.6174   20.4037 C   0  0  0  0  0  0  0  0  0  0  0  0
  -28.5720  -20.0399   20.6628 C   0  0  0  0  0  0  0  0  0  0  0  0
  -26.9140  -18.2219   20.4864 C   0  0  0  0  0  0  0  0  0  0  0  0
  -22.5209  -22.9010   20.3191 C   0  0  0  0  0  0  0  0  0  1  0  0
  -26.2713  -28.7754   22.8087 C   0  0  1  0  0  0  0  0  0  0  0  0
  -23.1218  -30.8378   23.2525 C   0  0  2  0  0  0  0  0  0  0  0  0
  -27.3635  -28.7440   23.9148 C   0  0  0  0  0  0  0  0  0  0  0  0
  -22.7146  -19.6211   19.3602 N   0  0  0  0  0  0  0  0  0  0  0  0
  -26.4110  -12.8453   21.0486 N   0  0  0  0  0  0  0  0  0  0  0  0
  -22.5716  -20.3847   20.4568 N   0  0  0  0  0  0  0  0  0  0  0  0
  -26.1765  -13.9584   20.3329 N   0  0  0  0  0  0  0  0  0  0  0  0
  -26.5982  -27.9262   20.5074 N   0  0  0  0  0  0  0  0  0  0  0  0
  -29.0795  -16.4186   19.9114 N   0  0  0  0  0  0  0  0  0  0  0  0
  -24.4530  -15.4218   19.6268 N   0  0  0  0  0  0  0  0  0  0  0  0
  -22.2562  -12.3334   22.0827 N   0  0  0  0  0  0  0  0  0  0  0  0
  -29.3212  -27.0229   18.2566 N   0  0  0  0  0  0  0  0  0  0  0  0
  -25.2845  -29.8373   22.9732 N   0  0  0  0  0  0  0  0  0  0  0  0
  -28.3210  -18.6165   20.4875 N   0  0  0  0  0  0  0  0  0  0  0  0
  -21.7915  -30.6892   22.5973 N   0  3  0  0  0  0  0  0  0  0  0  0
  -22.0044  -14.2301   20.8187 O   0  0  0  0  0  0  0  0  0  0  0  0
  -28.6969  -26.4684   20.4304 O   0  0  0  0  0  0  0  0  0  0  0  0
  -27.5100  -29.9662   21.1734 O   0  0  0  0  0  0  0  0  0  0  0  0
  -23.4293  -28.4490   23.0619 O   0  0  0  0  0  0  0  0  0  0  0  0
  -30.5058  -18.2301   19.8632 O   0  0  0  0  0  0  0  0  0  0  0  0
  -24.5329   -7.9587   24.6739 O   0  0  0  0  0  0  0  0  0  0  0  0
  -23.3094  -22.8925   19.1297 O   0  0  0  0  0  0  0  0  0  1  0  0
  -21.3002   -8.4060   29.1184 F   0  0  0  0  0  0  0  0  0  0  0  0
  -25.5330   -7.4894   27.2081 F   0  0  0  0  0  0  0  0  0  0  0  0
  1  2  1  0  0  0  0
  1  5  2  0  0  0  0
  2  6  2  0  0  0  0
  3  8  2  0  0  0  0
  3 17  1  0  0  0  0
  4  9  1  0  0  0  0
  4 17  2  0  0  0  0
  5 19  1  0  0  0  0
  6 21  1  0  0  0  0
  7 10  2  0  0  0  0
  7 20  1  0  0  0  0
  8 24  1  0  0  0  0
  9 24  2  0  0  0  0
 10 25  1  0  0  0  0
 11 12  2  0  0  0  0
 11 26  1  0  0  0  0
 12 27  1  0  0  0  0
 13 22  1  0  0  0  0
 13 25  2  0  0  0  0
 14 27  2  0  0  0  0
 14 28  1  0  0  0  0
 15 23  1  0  0  0  0
 15 64  2  0  0  0  0
 16 23  2  0  0  0  0
 16 66  1  0  0  0  0
 17 29  1  0  0  0  0
 18 29  1  0  0  0  0
 18 30  2  0  0  0  0
 18 31  1  0  0  0  0
 19 21  2  0  0  0  0
 19 36  1  0  0  0  0
 20 22  2  0  0  0  0
 20 37  1  0  0  0  0
 21 45  1  0  0  0  0
 22 38  1  0  0  0  0
 23 54  1  0  0  0  0
 24 81  1  0  0  0  0
 25 82  1  0  0  0  0
 26 28  2  0  0  0  0
 26 81  1  0  0  0  0
 27 83  1  0  0  0  0
 28 84  1  0  0  0  0
 29 65  2  0  0  0  0
 30 67  1  0  0  0  0
 30 70  1  0  0  0  0
 31 71  1  0  0  0  0
 31 76  2  0  0  0  0
 32 46  1  0  0  0  0
 32 72  1  0  0  0  0
 32 77  2  0  0  0  0
 33 61  1  0  0  0  0
 33 68  1  0  0  0  0
 33 78  2  0  0  0  0
 34 62  1  0  0  0  0
 34 73  1  0  0  0  0
 34 79  2  0  0  0  0
 35 69  1  0  0  0  0
 35 74  1  0  0  0  0
 35 80  2  0  0  0  0
 36 39  1  0  0  0  0
 37 46  1  0  0  0  0
 38 68  1  0  0  0  0
 39 41  1  0  0  0  0
 40 42  1  0  0  0  0
 40 43  1  0  0  0  0
 41 45  1  0  0  0  0
 42 47  1  0  0  0  0
 43 69  1  0  0  0  0
 44 47  1  0  0  0  0
 44 69  1  0  0  0  0
 45 72  1  0  0  0  0
 46 68  1  0  0  0  0
 47 67  1  0  0  0  0
 48 55  1  0  0  0  0
 49 62  1  0  0  0  0
 50 63  1  0  0  0  0
 51 63  1  0  0  0  0
 52 63  1  0  0  0  0
 53 75  1  0  0  0  0
 54 56  1  0  0  0  0
 55 58  1  0  0  0  0
 56 59  1  0  0  0  0
 57 60  1  0  0  0  0
 57 66  1  0  0  0  0
 58 74  1  0  0  0  0
 59 74  1  0  0  0  0
 60 82  1  0  0  0  0
 61 63  1  0  0  0  0
 61 73  1  0  0  0  0
 62 75  1  0  0  0  0
 64 66  1  0  0  0  0
 65 67  1  0  0  0  0
M  CHG  1  75   1
M  ISO  4  35 100  60 101  74 100  82 101
M  END
> <Batch ID>
0045

> <Smiles>
CCC[100N:0](CCCc1cnn(C[101CH2:1][101O:1]c2ccc3c(c2)CN(C(=O)C(NC(=O)C(C)NC)C(C)(C)C)C(C(=O)NC2CCCc4ccccc42)C3)c1)[100C:0](=O)N1CCCC(n2nc(-c3ccc(Oc4ccc(F)cc4F)cc3)c(C(N)=O)c2N)C1

> <Shape>
0.214

> <Color>
0.104

> <Negative vol penalty>
0.000

$$$$

  -OEChem-04052317193D

 81 89  0     1  0  0  0  0  0999 V2000
  -29.0282  -17.2175   18.5886 C   0  0  0  0  0  0  0  0  0  0  0  0
  -28.1395  -18.2575   18.3402 C   0  0  0  0  0  0  0  0  0  0  0  0
  -26.1686  -15.0998   20.2654 C   0  0  0  0  0  0  0  0  0  0  0  0
  -23.7916  -14.6891   20.1314 C   0  0  0  0  0  0  0  0  0  0  0  0
  -30.0181  -17.3682   19.5574 C   0  0  0  0  0  0  0  0  0  0  0  0
  -28.2479  -19.4527   19.0519 C   0  0  0  0  0  0  0  0  0  0  0  0
  -24.7353  -24.4312   18.9920 C   0  0  0  0  0  0  0  0  0  0  0  0
  -26.3959  -13.7328   20.4245 C   0  0  0  0  0  0  0  0  0  0  0  0
  -24.0188  -13.3221   20.2905 C   0  0  0  0  0  0  0  0  0  0  0  0
  -23.6315  -24.9203   19.6892 C   0  0  0  0  0  0  0  0  0  0  0  0
  -23.9445   -9.7626   21.0215 C   0  0  0  0  0  0  0  0  0  0  0  0
  -23.1252   -9.0685   21.9118 C   0  0  0  0  0  0  0  0  0  0  0  0
  -25.1033  -26.1961   21.1123 C   0  0  0  0  0  0  0  0  0  0  0  0
  -23.8771  -10.4918   23.7134 C   0  0  0  0  0  0  0  0  0  0  0  0
  -19.5481  -27.5523   21.5024 C   0  0  0  0  0  0  0  0  0  0  0  0
  -24.8664  -15.5780   20.1189 C   0  0  0  0  0  0  0  0  0  0  0  0
  -24.5750  -17.7078   18.7454 C   0  0  0  0  0  0  0  0  0  0  0  0
  -30.1301  -18.5617   20.2897 C   0  0  0  0  0  0  0  0  0  0  0  0
  -26.0342  -24.8130   19.3572 C   0  0  0  0  0  0  0  0  0  0  0  0
  -29.2553  -19.6329   20.0169 C   0  0  0  0  0  0  0  0  0  0  0  0
  -26.2218  -25.7124   20.4165 C   0  0  0  0  0  0  0  0  0  0  0  0
  -20.4036  -26.4927   21.8590 C   0  0  0  0  0  0  0  0  0  0  0  0
  -25.3210  -12.8440   20.4370 C   0  0  0  0  0  0  0  0  0  0  0  0
  -23.8155  -25.8006   20.7514 C   0  0  0  0  0  0  0  0  0  0  0  0
  -24.7301  -10.8213   21.4772 C   0  0  0  0  0  0  0  0  0  0  0  0
  -23.0915   -9.4330   23.2577 C   0  0  0  0  0  0  0  0  0  0  0  0
  -24.6964  -11.1859   22.8231 C   0  0  0  0  0  0  0  0  0  0  0  0
  -24.6310  -16.9900   19.9552 C   0  0  0  0  0  0  0  0  0  0  0  0
  -20.0620  -26.1972   23.1561 C   0  0  0  0  0  0  0  0  0  0  0  0
  -24.3287  -19.0042   19.1265 C   0  0  0  0  0  0  0  0  0  0  0  0
  -24.7315  -17.2442   17.3978 C   0  0  0  0  0  0  0  0  0  0  0  0
  -28.6101  -23.2785   20.4125 C   0  0  0  0  0  0  0  0  0  0  0  0
  -30.0016  -26.1898   20.0797 C   0  0  0  0  0  0  0  0  0  0  0  0
  -29.6299  -29.5792   19.9361 C   0  0  0  0  0  0  0  0  0  0  0  0
  -21.6968  -21.2677   23.9020 C   0  0  0  0  0  0  0  0  0  0  0  0
  -31.2250  -18.6738   21.3211 C   0  0  0  0  0  0  0  0  0  0  0  0
  -27.2129  -24.2974   18.5779 C   0  0  0  0  0  0  0  0  0  0  0  0
  -27.5945  -26.1692   20.8353 C   0  0  0  0  0  0  0  0  0  0  0  0
  -30.9836  -19.7967   22.3247 C   0  0  0  0  0  0  0  0  0  0  0  0
  -25.0420  -22.0400   22.7572 C   0  0  0  0  0  0  0  0  0  0  0  0
  -30.6401  -21.0845   21.5911 C   0  0  0  0  0  0  0  0  0  0  0  0
  -25.3050  -20.8873   21.7866 C   0  0  0  0  0  0  0  0  0  0  0  0
  -24.2456  -21.5700   23.9709 C   0  0  0  0  0  0  0  0  0  0  0  0
  -23.2172  -19.7469   22.6700 C   0  0  0  0  0  0  0  0  0  0  0  0
  -29.3348  -20.9309   20.8001 C   0  0  1  0  0  0  0  0  0  0  0  0
  -28.5190  -24.3514   19.3644 C   0  0  1  0  0  0  0  0  0  0  0  0
  -23.9992  -20.1623   21.4106 C   0  0  2  0  0  0  0  0  0  0  0  0
  -30.9535  -31.6976   19.6955 C   0  0  0  0  0  0  0  0  0  0  0  0
  -30.9135  -25.9467   22.9813 C   0  0  0  0  0  0  0  0  0  0  0  0
  -31.3720  -28.4080   22.9704 C   0  0  0  0  0  0  0  0  0  0  0  0
  -32.6243  -26.9009   21.4266 C   0  0  0  0  0  0  0  0  0  0  0  0
  -18.3670  -27.1493   24.7485 C   0  0  0  0  0  0  0  0  0  0  0  0
  -28.2289  -30.3071   17.4328 C   0  0  0  0  0  0  0  0  0  0  0  0
  -21.4515  -25.8372   21.0084 C   0  0  0  0  0  0  0  0  0  1  0  0
  -20.5871  -25.1884   24.0956 C   0  0  0  0  0  0  0  0  0  0  0  0
  -19.7181  -23.9154   24.2417 C   0  0  0  0  0  0  0  0  0  0  0  0
  -20.3021  -22.8678   25.1871 C   0  0  0  0  0  0  0  0  0  0  0  0
  -30.1869  -27.3943   20.9707 C   0  0  1  0  0  0  0  0  0  0  0  0
  -30.1761  -30.6122   18.9671 C   0  0  2  0  0  0  0  0  0  0  0  0
  -31.2483  -27.1525   22.0808 C   0  0  0  0  0  0  0  0  0  0  0  0
  -18.7248  -27.9060   22.4930 N   0  0  0  0  0  0  0  0  0  0  0  0
  -24.4362  -17.7660   21.0247 N   0  0  0  0  0  0  0  0  0  0  0  0
  -19.0614  -27.0638   23.4847 N   0  0  0  0  0  0  0  0  0  0  0  0
  -24.2554  -18.9849   20.4883 N   0  0  0  0  0  0  0  0  0  0  0  0
  -28.7156  -25.6322   20.0464 N   0  0  0  0  0  0  0  0  0  0  0  0
  -23.0061  -20.9052   23.5446 N   0  0  0  0  0  0  0  0  0  0  0  0
  -24.1699  -20.1473   18.4262 N   0  0  0  0  0  0  0  0  0  0  0  0
  -24.9797  -15.8813   17.1846 N   0  0  0  0  0  0  0  0  0  0  0  0
  -29.1540  -22.0924   19.9576 N   0  0  0  0  0  0  0  0  0  0  0  0
  -30.4919  -28.5134   20.0859 N   0  0  0  0  0  0  0  0  0  0  0  0
  -21.5840  -22.3714   24.7385 N   0  0  0  0  0  0  0  0  0  0  0  0
  -29.0627  -31.2562   18.2145 N   0  3  0  0  0  0  0  0  0  0  0  0
  -24.6698  -18.0184   16.4127 O   0  0  0  0  0  0  0  0  0  0  0  0
  -28.2176  -23.5101   21.5500 O   0  0  0  0  0  0  0  0  0  0  0  0
  -30.9608  -25.7638   19.4315 O   0  0  0  0  0  0  0  0  0  0  0  0
  -28.5486  -29.7067   20.5061 O   0  0  0  0  0  0  0  0  0  0  0  0
  -20.7008  -20.6560   23.5007 O   0  0  0  0  0  0  0  0  0  0  0  0
  -25.5423  -11.5100   20.5919 O   0  0  0  0  0  0  0  0  0  0  0  0
  -22.7399  -26.2790   21.4341 O   0  0  0  0  0  0  0  0  0  1  0  0
  -22.3036   -8.7674   24.1122 F   0  0  0  0  0  0  0  0  0  0  0  0
  -25.4480  -12.2029   23.2666 F   0  0  0  0  0  0  0  0  0  0  0  0
  1  2  1  0  0  0  0
  1  5  2  0  0  0  0
  2  6  2  0  0  0  0
  3  8  2  0  0  0  0
  3 16  1  0  0  0  0
  4  9  1  0  0  0  0
  4 16  2  0  0  0  0
  5 18  1  0  0  0  0
  6 20  1  0  0  0  0
  7 10  2  0  0  0  0
  7 19  1  0  0  0  0
  8 23  1  0  0  0  0
  9 23  2  0  0  0  0
 10 24  1  0  0  0  0
 11 12  2  0  0  0  0
 11 25  1  0  0  0  0
 12 26  1  0  0  0  0
 13 21  1  0  0  0  0
 13 24  2  0  0  0  0
 14 26  2  0  0  0  0
 14 27  1  0  0  0  0
 15 22  1  0  0  0  0
 15 61  2  0  0  0  0
 16 28  1  0  0  0  0
 17 28  1  0  0  0  0
 17 30  2  0  0  0  0
 17 31  1  0  0  0  0
 18 20  2  0  0  0  0
 18 36  1  0  0  0  0
 19 21  2  0  0  0  0
 19 37  1  0  0  0  0
 20 45  1  0  0  0  0
 21 38  1  0  0  0  0
 22 29  2  0  0  0  0
 22 54  1  0  0  0  0
 23 78  1  0  0  0  0
 24 79  1  0  0  0  0
 25 27  2  0  0  0  0
 25 78  1  0  0  0  0
 26 80  1  0  0  0  0
 27 81  1  0  0  0  0
 28 62  2  0  0  0  0
 29 55  1  0  0  0  0
 29 63  1  0  0  0  0
 30 64  1  0  0  0  0
 30 67  1  0  0  0  0
 31 68  1  0  0  0  0
 31 73  2  0  0  0  0
 32 46  1  0  0  0  0
 32 69  1  0  0  0  0
 32 74  2  0  0  0  0
 33 58  1  0  0  0  0
 33 65  1  0  0  0  0
 33 75  2  0  0  0  0
 34 59  1  0  0  0  0
 34 70  1  0  0  0  0
 34 76  2  0  0  0  0
 35 66  1  0  0  0  0
 35 71  1  0  0  0  0
 35 77  2  0  0  0  0
 36 39  1  0  0  0  0
 37 46  1  0  0  0  0
 38 65  1  0  0  0  0
 39 41  1  0  0  0  0
 40 42  1  0  0  0  0
 40 43  1  0  0  0  0
 41 45  1  0  0  0  0
 42 47  1  0  0  0  0
 43 66  1  0  0  0  0
 44 47  1  0  0  0  0
 44 66  1  0  0  0  0
 45 69  1  0  0  0  0
 46 65  1  0  0  0  0
 47 64  1  0  0  0  0
 48 59  1  0  0  0  0
 49 60  1  0  0  0  0
 50 60  1  0  0  0  0
 51 60  1  0  0  0  0
 52 63  1  0  0  0  0
 53 72  1  0  0  0  0
 54 79  1  0  0  0  0
 55 56  1  0  0  0  0
 56 57  1  0  0  0  0
 57 71  1  0  0  0  0
 58 60  1  0  0  0  0
 58 70  1  0  0  0  0
 59 72  1  0  0  0  0
 61 63  1  0  0  0  0
 62 64  1  0  0  0  0
M  CHG  1  72   1
M  ISO  4  35 100  54 101  71 100  79 101
M  END
> <Batch ID>
0045

> <Smiles>
CNC(C)C(=O)NC(C(=O)N1Cc2cc([101O:1][101CH2:1]c3cnn(C)c3CCC[100NH:0][100C:0](=O)N3CCCC(n4nc(-c5ccc(Oc6ccc(F)cc6F)cc5)c(C(N)=O)c4N)C3)ccc2CC1C(=O)NC1CCCc2ccccc21)C(C)(C)C

> <Shape>
0.196

> <Color>
0.047

> <Negative vol penalty>
0.000

$$$$

  -OEChem-04052317193D

 82 90  0     1  0  0  0  0  0999 V2000
  -17.9352  -28.0544   22.7122 C   0  0  0  0  0  0  0  0  0  0  0  0
  -18.8376  -27.1676   22.1336 C   0  0  0  0  0  0  0  0  0  0  0  0
  -23.1996   -9.6910   19.9681 C   0  0  0  0  0  0  0  0  0  0  0  0
  -23.8199   -9.8952   22.2942 C   0  0  0  0  0  0  0  0  0  0  0  0
  -18.4032  -29.1563   23.4268 C   0  0  0  0  0  0  0  0  0  0  0  0
  -20.2087  -27.3829   22.2685 C   0  0  0  0  0  0  0  0  0  0  0  0
  -22.7341  -23.1516   23.4361 C   0  0  0  0  0  0  0  0  0  0  0  0
  -22.4832   -8.5306   20.2610 C   0  0  0  0  0  0  0  0  0  0  0  0
  -23.1034   -8.7347   22.5871 C   0  0  0  0  0  0  0  0  0  0  0  0
  -22.9845  -22.2531   22.3999 C   0  0  0  0  0  0  0  0  0  0  0  0
  -19.4831   -7.7257   21.5969 C   0  0  0  0  0  0  0  0  0  0  0  0
  -18.2102   -7.5926   21.0426 C   0  0  0  0  0  0  0  0  0  0  0  0
  -25.2342  -23.1036   22.2140 C   0  0  0  0  0  0  0  0  0  0  0  0
  -27.0212  -19.5412   20.3280 C   0  0  0  0  0  0  0  0  0  0  0  0
  -18.9163   -5.5820   19.9041 C   0  0  0  0  0  0  0  0  0  0  0  0
  -27.1624  -17.6464   22.2864 C   0  0  0  0  0  0  0  0  0  0  0  0
  -23.8680  -10.3733   20.9848 C   0  0  0  0  0  0  0  0  0  0  0  0
  -24.1272  -12.8945   20.6953 C   0  0  0  0  0  0  0  0  0  0  0  0
  -19.7807  -29.3799   23.5787 C   0  0  0  0  0  0  0  0  0  0  0  0
  -23.7302  -24.0419   23.8624 C   0  0  0  0  0  0  0  0  0  0  0  0
  -20.6956  -28.4896   22.9847 C   0  0  0  0  0  0  0  0  0  0  0  0
  -24.9948  -24.0107   23.2576 C   0  0  0  0  0  0  0  0  0  0  0  0
  -28.2392  -19.2943   20.9517 C   0  0  0  0  0  0  0  0  0  0  0  0
  -28.3196  -18.3304   21.9506 C   0  0  0  0  0  0  0  0  0  0  0  0
  -22.4351   -8.0525   21.5704 C   0  0  0  0  0  0  0  0  0  0  0  0
  -24.2337  -22.2309   21.7867 C   0  0  0  0  0  0  0  0  0  0  0  0
  -20.4728   -6.7871   21.3048 C   0  0  0  0  0  0  0  0  0  0  0  0
  -17.9267   -6.5207   20.1962 C   0  0  0  0  0  0  0  0  0  0  0  0
  -20.1893   -5.7152   20.4584 C   0  0  0  0  0  0  0  0  0  0  0  0
  -24.6087  -11.5717   20.6828 C   0  0  0  0  0  0  0  0  0  0  0  0
  -25.9222  -18.8029   20.7364 C   0  0  0  0  0  0  0  0  0  0  0  0
  -25.2121  -13.6582   20.3399 C   0  0  0  0  0  0  0  0  0  0  0  0
  -22.8165  -13.3888   21.0009 C   0  0  0  0  0  0  0  0  0  0  0  0
  -24.0237  -27.2058   23.9480 C   0  0  0  0  0  0  0  0  0  0  0  0
  -26.7659  -26.5182   25.5388 C   0  0  0  0  0  0  0  0  0  0  0  0
  -29.2553  -24.2753   26.1860 C   0  0  0  0  0  0  0  0  0  0  0  0
  -30.6353  -14.9046   20.7646 C   0  0  0  0  0  0  0  0  0  0  0  0
  -20.2389  -30.6108   24.3200 C   0  0  0  0  0  0  0  0  0  0  0  0
  -23.4527  -24.9867   24.9995 C   0  0  0  0  0  0  0  0  0  0  0  0
  -26.1045  -24.9317   23.6919 C   0  0  0  0  0  0  0  0  0  0  0  0
  -21.7074  -30.5612   24.7339 C   0  0  0  0  0  0  0  0  0  0  0  0
  -29.7277  -12.3093   18.5024 C   0  0  0  0  0  0  0  0  0  0  0  0
  -22.5747  -30.0935   23.5695 C   0  0  0  0  0  0  0  0  0  0  0  0
  -28.2781  -11.9913   18.8732 C   0  0  0  0  0  0  0  0  0  0  0  0
  -30.5628  -12.6532   19.7338 C   0  0  0  0  0  0  0  0  0  0  0  0
  -28.5567  -13.4075   20.9505 C   0  0  0  0  0  0  0  0  0  0  0  0
  -22.1904  -28.6756   23.1300 C   0  0  1  0  0  0  0  0  0  0  0  0
  -24.3772  -26.2002   25.0071 C   0  0  1  0  0  0  0  0  0  0  0  0
  -27.6617  -13.1091   19.7355 C   0  0  2  0  0  0  0  0  0  0  0  0
  -29.4426  -20.0727   20.5344 C   0  0  0  0  0  0  0  0  0  0  0  0
  -31.3780  -24.0128   27.4985 C   0  0  0  0  0  0  0  0  0  0  0  0
  -28.2322  -28.2650   23.5118 C   0  0  0  0  0  0  0  0  0  0  0  0
  -30.3782  -27.2213   24.2694 C   0  0  0  0  0  0  0  0  0  0  0  0
  -29.0000  -28.5414   25.8759 C   0  0  0  0  0  0  0  0  0  0  0  0
  -28.1536  -22.0070   27.7353 C   0  0  0  0  0  0  0  0  0  0  0  0
  -29.5981  -18.0264   22.6513 C   0  0  0  0  0  0  0  0  0  0  0  0
  -24.5836  -19.0442   20.0819 C   0  0  0  0  0  0  0  0  0  0  0  0
  -30.5510  -17.1405   21.8383 C   0  0  0  0  0  0  0  0  0  0  0  0
  -23.7721  -20.1169   20.8000 C   0  0  0  0  0  0  0  0  0  1  0  0
  -28.1982  -26.2600   25.1381 C   0  0  1  0  0  0  0  0  0  0  0  0
  -29.8717  -23.8033   27.4905 C   0  0  2  0  0  0  0  0  0  0  0  0
  -28.9309  -27.5558   24.6891 C   0  0  0  0  0  0  0  0  0  0  0  0
  -25.9615  -17.8585   21.7030 N   0  0  0  0  0  0  0  0  0  0  0  0
  -25.8990  -11.4958   20.3459 N   0  0  0  0  0  0  0  0  0  0  0  0
  -26.2374  -12.7806   20.1434 N   0  0  0  0  0  0  0  0  0  0  0  0
  -25.7823  -25.8417   24.8035 N   0  0  0  0  0  0  0  0  0  0  0  0
  -29.9241  -13.7210   20.5071 N   0  0  0  0  0  0  0  0  0  0  0  0
  -25.3794  -14.9881   20.1793 N   0  0  0  0  0  0  0  0  0  0  0  0
  -21.8188  -12.4673   21.3471 N   0  0  0  0  0  0  0  0  0  0  0  0
  -22.7359  -27.6971   24.0461 N   0  0  0  0  0  0  0  0  0  0  0  0
  -28.8225  -25.5819   26.2689 N   0  0  0  0  0  0  0  0  0  0  0  0
  -29.9544  -15.8678   21.4989 N   0  0  0  0  0  0  0  0  0  0  0  0
  -29.5978  -22.3532   27.6981 N   0  3  0  0  0  0  0  0  0  0  0  0
  -22.5340  -14.6100   20.9521 O   0  0  0  0  0  0  0  0  0  0  0  0
  -24.8581  -27.5142   23.1052 O   0  0  0  0  0  0  0  0  0  0  0  0
  -26.5287  -27.2863   26.4745 O   0  0  0  0  0  0  0  0  0  0  0  0
  -29.1698  -23.5580   25.1917 O   0  0  0  0  0  0  0  0  0  0  0  0
  -31.7895  -15.0914   20.3648 O   0  0  0  0  0  0  0  0  0  0  0  0
  -21.7359   -6.9203   21.8566 O   0  0  0  0  0  0  0  0  0  0  0  0
  -24.4805  -21.3553   20.7747 O   0  0  0  0  0  0  0  0  0  1  0  0
  -16.7038   -6.3921   19.6651 F   0  0  0  0  0  0  0  0  0  0  0  0
  -21.1356   -4.8097   20.1751 F   0  0  0  0  0  0  0  0  0  0  0  0
  1  2  1  0  0  0  0
  1  5  2  0  0  0  0
  2  6  2  0  0  0  0
  3  8  2  0  0  0  0
  3 17  1  0  0  0  0
  4  9  1  0  0  0  0
  4 17  2  0  0  0  0
  5 19  1  0  0  0  0
  6 21  1  0  0  0  0
  7 10  2  0  0  0  0
  7 20  1  0  0  0  0
  8 25  1  0  0  0  0
  9 25  2  0  0  0  0
 10 26  1  0  0  0  0
 11 12  2  0  0  0  0
 11 27  1  0  0  0  0
 12 28  1  0  0  0  0
 13 22  1  0  0  0  0
 13 26  2  0  0  0  0
 14 23  2  0  0  0  0
 14 31  1  0  0  0  0
 15 28  2  0  0  0  0
 15 29  1  0  0  0  0
 16 24  2  0  0  0  0
 16 63  1  0  0  0  0
 17 30  1  0  0  0  0
 18 30  1  0  0  0  0
 18 32  2  0  0  0  0
 18 33  1  0  0  0  0
 19 21  2  0  0  0  0
 19 38  1  0  0  0  0
 20 22  2  0  0  0  0
 20 39  1  0  0  0  0
 21 47  1  0  0  0  0
 22 40  1  0  0  0  0
 23 24  1  0  0  0  0
 23 50  1  0  0  0  0
 24 56  1  0  0  0  0
 25 79  1  0  0  0  0
 26 80  1  0  0  0  0
 27 29  2  0  0  0  0
 27 79  1  0  0  0  0
 28 81  1  0  0  0  0
 29 82  1  0  0  0  0
 30 64  2  0  0  0  0
 31 57  1  0  0  0  0
 31 63  2  0  0  0  0
 32 65  1  0  0  0  0
 32 68  1  0  0  0  0
 33 69  1  0  0  0  0
 33 74  2  0  0  0  0
 34 48  1  0  0  0  0
 34 70  1  0  0  0  0
 34 75  2  0  0  0  0
 35 60  1  0  0  0  0
 35 66  1  0  0  0  0
 35 76  2  0  0  0  0
 36 61  1  0  0  0  0
 36 71  1  0  0  0  0
 36 77  2  0  0  0  0
 37 67  1  0  0  0  0
 37 72  1  0  0  0  0
 37 78  2  0  0  0  0
 38 41  1  0  0  0  0
 39 48  1  0  0  0  0
 40 66  1  0  0  0  0
 41 43  1  0  0  0  0
 42 44  1  0  0  0  0
 42 45  1  0  0  0  0
 43 47  1  0  0  0  0
 44 49  1  0  0  0  0
 45 67  1  0  0  0  0
 46 49  1  0  0  0  0
 46 67  1  0  0  0  0
 47 70  1  0  0  0  0
 48 66  1  0  0  0  0
 49 65  1  0  0  0  0
 51 61  1  0  0  0  0
 52 62  1  0  0  0  0
 53 62  1  0  0  0  0
 54 62  1  0  0  0  0
 55 73  1  0  0  0  0
 56 58  1  0  0  0  0
 57 59  1  0  0  0  0
 58 72  1  0  0  0  0
 59 80  1  0  0  0  0
 60 62  1  0  0  0  0
 60 71  1  0  0  0  0
 61 73  1  0  0  0  0
 64 65  1  0  0  0  0
M  CHG  1  73   1
M  ISO  4  37 100  59 101  72 100  80 101
M  END
> <Batch ID>
0045

> <Smiles>
CNC(C)C(=O)NC(C(=O)N1Cc2cc([101O:1][101CH2:1]Cc3cc(C)c(CC[100NH:0][100C:0](=O)N4CCCC(n5nc(-c6ccc(Oc7ccc(F)cc7F)cc6)c(C(N)=O)c5N)C4)cn3)ccc2CC1C(=O)NC1CCCc2ccccc21)C(C)(C)C

> <Shape>
0.229

> <Color>
0.204

> <Negative vol penalty>
0.000

$$$$

  -OEChem-04052317193D

 83 91  0     1  0  0  0  0  0999 V2000
  -17.9992  -30.8139   26.0219 C   0  0  0  0  0  0  0  0  0  0  0  0
  -17.6413  -30.0281   24.9311 C   0  0  0  0  0  0  0  0  0  0  0  0
  -23.2382  -10.4492   18.5731 C   0  0  0  0  0  0  0  0  0  0  0  0
  -22.9027  -10.0725   20.9359 C   0  0  0  0  0  0  0  0  0  0  0  0
  -19.1513  -31.5972   25.9671 C   0  0  0  0  0  0  0  0  0  0  0  0
  -18.4347  -30.0260   23.7844 C   0  0  0  0  0  0  0  0  0  0  0  0
  -21.3557  -23.9249   21.3073 C   0  0  0  0  0  0  0  0  0  0  0  0
  -22.3546   -9.4100   18.2819 C   0  0  0  0  0  0  0  0  0  0  0  0
  -22.0190   -9.0332   20.6447 C   0  0  0  0  0  0  0  0  0  0  0  0
  -21.7762  -22.7676   20.6516 C   0  0  0  0  0  0  0  0  0  0  0  0
  -22.2090   -5.7931   19.6978 C   0  0  0  0  0  0  0  0  0  0  0  0
  -22.3430   -4.6071   20.4195 C   0  0  0  0  0  0  0  0  0  0  0  0
  -22.8475  -24.1089   18.9484 C   0  0  0  0  0  0  0  0  0  0  0  0
  -20.0875   -4.8568   21.2487 C   0  0  0  0  0  0  0  0  0  0  0  0
  -29.9538  -15.8379   17.5793 C   0  0  0  0  0  0  0  0  0  0  0  0
  -23.5123  -10.7804   19.9001 C   0  0  0  0  0  0  0  0  0  0  0  0
  -24.1104  -13.2146   20.3741 C   0  0  0  0  0  0  0  0  0  0  0  0
  -19.9645  -31.5973   24.8228 C   0  0  0  0  0  0  0  0  0  0  0  0
  -21.6931  -25.1802   20.7937 C   0  0  0  0  0  0  0  0  0  0  0  0
  -19.5980  -30.8111   23.7138 C   0  0  0  0  0  0  0  0  0  0  0  0
  -22.4398  -25.2716   19.6075 C   0  0  0  0  0  0  0  0  0  0  0  0
  -21.7450   -8.7020   19.3177 C   0  0  0  0  0  0  0  0  0  0  0  0
  -22.5200  -22.8594   19.4750 C   0  0  0  0  0  0  0  0  0  0  0  0
  -21.0143   -6.5111   19.7516 C   0  0  0  0  0  0  0  0  0  0  0  0
  -21.2823   -4.1389   21.1950 C   0  0  0  0  0  0  0  0  0  0  0  0
  -19.9536   -6.0429   20.5270 C   0  0  0  0  0  0  0  0  0  0  0  0
  -24.4255  -11.8534   20.2016 C   0  0  0  0  0  0  0  0  0  0  0  0
  -30.0782  -15.6816   18.9423 C   0  0  0  0  0  0  0  0  0  0  0  0
  -29.0221  -17.6836   19.2683 C   0  0  0  0  0  0  0  0  0  0  0  0
  -28.8980  -17.8401   17.9053 C   0  0  0  0  0  0  0  0  0  0  0  0
  -25.3164  -13.8149   20.6420 C   0  0  0  0  0  0  0  0  0  0  0  0
  -22.8411  -13.8771   20.2990 C   0  0  0  0  0  0  0  0  0  0  0  0
  -30.7281  -14.4986   19.5210 C   0  0  0  0  0  0  0  0  0  0  0  0
  -21.4935  -28.9070   21.1771 C   0  0  0  0  0  0  0  0  0  0  0  0
  -24.3369  -28.2602   20.2248 C   0  0  0  0  0  0  0  0  0  0  0  0
  -27.4781  -27.0959   19.5808 C   0  0  0  0  0  0  0  0  0  0  0  0
  -21.1748  -32.4967   24.7924 C   0  0  0  0  0  0  0  0  0  0  0  0
  -21.2093  -26.4534   21.4331 C   0  0  0  0  0  0  0  0  0  0  0  0
  -22.7499  -26.6432   19.0730 C   0  0  0  0  0  0  0  0  0  0  0  0
  -22.1630  -32.1506   23.6815 C   0  0  0  0  0  0  0  0  0  0  0  0
  -29.8398  -11.8183   21.7048 C   0  0  0  0  0  0  0  0  0  0  0  0
  -21.4290  -31.9360   22.3617 C   0  0  0  0  0  0  0  0  0  0  0  0
  -28.3284  -11.6848   21.5100 C   0  0  0  0  0  0  0  0  0  0  0  0
  -30.5443  -12.1974   20.4046 C   0  0  0  0  0  0  0  0  0  0  0  0
  -28.4920  -13.2752   19.5494 C   0  0  0  0  0  0  0  0  0  0  0  0
  -20.4463  -30.7630   22.4615 C   0  0  1  0  0  0  0  0  0  0  0  0
  -22.2246  -27.6054   21.3275 C   0  0  1  0  0  0  0  0  0  0  0  0
  -27.7379  -12.9438   20.8476 C   0  0  1  0  0  0  0  0  0  0  0  0
  -28.5068  -18.7095   20.2188 C   0  0  0  0  0  0  0  0  0  0  0  0
  -29.8214  -27.8842   19.1510 C   0  0  0  0  0  0  0  0  0  0  0  0
  -23.5451  -29.0560   17.3887 C   0  0  0  0  0  0  0  0  0  0  0  0
  -25.9615  -28.9119   16.7496 C   0  0  0  0  0  0  0  0  0  0  0  0
  -25.2236  -30.5650   18.4658 C   0  0  0  0  0  0  0  0  0  0  0  0
  -28.5132  -25.6898   21.9705 C   0  0  0  0  0  0  0  0  0  0  0  0
  -26.1164  -18.0549   16.4726 C   0  0  0  0  0  0  0  0  0  0  0  0
  -28.2382  -19.0506   17.3136 C   0  0  0  0  0  0  0  0  0  0  0  0
  -24.8072  -20.4257   18.1048 C   0  0  0  0  0  0  0  0  0  0  0  0
  -26.1338  -20.3811   17.3617 C   0  0  0  0  0  0  0  0  0  0  0  0
  -24.1499  -21.8004   18.1040 C   0  0  0  0  0  0  0  0  0  1  0  0
  -25.2746  -28.1067   19.0541 C   0  0  1  0  0  0  0  0  0  0  0  0
  -28.8226  -27.4272   20.2028 C   0  0  2  0  0  0  0  0  0  0  0  0
  -24.9879  -29.1375   17.9260 C   0  0  0  0  0  0  0  0  0  0  0  0
  -29.3613  -16.9200   17.0363 N   0  0  0  0  0  0  0  0  0  0  0  0
  -25.7294  -11.6035   20.3475 N   0  0  0  0  0  0  0  0  0  0  0  0
  -29.6146  -16.6016   19.8113 N   0  0  0  0  0  0  0  0  0  0  0  0
  -26.2444  -12.8158   20.6143 N   0  0  0  0  0  0  0  0  0  0  0  0
  -29.9336  -13.3873   19.8131 N   0  0  0  0  0  0  0  0  0  0  0  0
  -23.1398  -27.5357   20.1757 N   0  0  0  0  0  0  0  0  0  0  0  0
  -25.6629  -15.0947   20.8960 N   0  0  0  0  0  0  0  0  0  0  0  0
  -21.7030  -13.1103   20.0144 N   0  0  0  0  0  0  0  0  0  0  0  0
  -21.1530  -29.5029   22.3764 N   0  0  0  0  0  0  0  0  0  0  0  0
  -26.6253  -28.1792   19.6007 N   0  0  0  0  0  0  0  0  0  0  0  0
  -29.3822  -26.2314   20.8942 N   0  3  0  0  0  0  0  0  0  0  0  0
  -26.7343  -19.0292   17.4465 N   0  3  1  0  0  0  0  0  0  0  0  0
  -22.7221  -15.1151   20.4628 O   0  0  0  0  0  0  0  0  0  0  0  0
  -31.9393  -14.5854   19.7174 O   0  0  0  0  0  0  0  0  0  0  0  0
  -21.2563  -29.3407   20.0558 O   0  0  0  0  0  0  0  0  0  0  0  0
  -24.6522  -29.0061   21.1563 O   0  0  0  0  0  0  0  0  0  0  0  0
  -27.2123  -25.9880   19.1198 O   0  0  0  0  0  0  0  0  0  0  0  0
  -20.8825   -7.6881   19.0339 O   0  0  0  0  0  0  0  0  0  0  0  0
  -22.9311  -21.7255   18.8424 O   0  0  0  0  0  0  0  0  0  1  0  0
  -21.4106   -2.9991   21.8868 F   0  0  0  0  0  0  0  0  0  0  0  0
  -18.8029   -6.7277   20.5817 F   0  0  0  0  0  0  0  0  0  0  0  0
  1  2  1  0  0  0  0
  1  5  2  0  0  0  0
  2  6  2  0  0  0  0
  3  8  2  0  0  0  0
  3 16  1  0  0  0  0
  4  9  1  0  0  0  0
  4 16  2  0  0  0  0
  5 18  1  0  0  0  0
  6 20  1  0  0  0  0
  7 10  2  0  0  0  0
  7 19  1  0  0  0  0
  8 22  1  0  0  0  0
  9 22  2  0  0  0  0
 10 23  1  0  0  0  0
 11 12  2  0  0  0  0
 11 24  1  0  0  0  0
 12 25  1  0  0  0  0
 13 21  1  0  0  0  0
 13 23  2  0  0  0  0
 14 25  2  0  0  0  0
 14 26  1  0  0  0  0
 15 28  1  0  0  0  0
 15 63  2  0  0  0  0
 16 27  1  0  0  0  0
 17 27  1  0  0  0  0
 17 31  2  0  0  0  0
 17 32  1  0  0  0  0
 18 20  2  0  0  0  0
 18 37  1  0  0  0  0
 19 21  2  0  0  0  0
 19 38  1  0  0  0  0
 20 46  1  0  0  0  0
 21 39  1  0  0  0  0
 22 80  1  0  0  0  0
 23 81  1  0  0  0  0
 24 26  2  0  0  0  0
 24 80  1  0  0  0  0
 25 82  1  0  0  0  0
 26 83  1  0  0  0  0
 27 64  2  0  0  0  0
 28 33  1  0  0  0  0
 28 65  2  0  0  0  0
 29 30  2  0  0  0  0
 29 49  1  0  0  0  0
 29 65  1  0  0  0  0
 30 56  1  0  0  0  0
 30 63  1  0  0  0  0
 31 66  1  0  0  0  0
 31 69  1  0  0  0  0
 32 70  1  0  0  0  0
 32 75  2  0  0  0  0
 33 67  1  0  0  0  0
 33 76  2  0  0  0  0
 34 47  1  0  0  0  0
 34 71  1  0  0  0  0
 34 77  2  0  0  0  0
 35 60  1  0  0  0  0
 35 68  1  0  0  0  0
 35 78  2  0  0  0  0
 36 61  1  0  0  0  0
 36 72  1  0  0  0  0
 36 79  2  0  0  0  0
 37 40  1  0  0  0  0
 38 47  1  0  0  0  0
 39 68  1  0  0  0  0
 40 42  1  0  0  0  0
 41 43  1  0  0  0  0
 41 44  1  0  0  0  0
 42 46  1  0  0  0  0
 43 48  1  0  0  0  0
 44 67  1  0  0  0  0
 45 48  1  0  0  0  0
 45 67  1  0  0  0  0
 46 71  1  0  0  0  0
 47 68  1  0  0  0  0
 48 66  1  0  0  0  0
 50 61  1  0  0  0  0
 51 62  1  0  0  0  0
 52 62  1  0  0  0  0
 53 62  1  0  0  0  0
 54 73  1  0  0  0  0
 55 74  1  0  0  0  0
 56 74  1  0  0  0  0
 57 58  1  0  0  0  0
 57 59  1  0  0  0  0
 58 74  1  0  0  0  0
 59 81  1  0  0  0  0
 60 62  1  0  0  0  0
 60 72  1  0  0  0  0
 61 73  1  0  0  0  0
 64 66  1  0  0  0  0
M  CHG  2  73   1  74   1
M  ISO  4  28 100  33 100  59 101  81 101
M  END
> <Batch ID>
0045

> <Smiles>
CNC(C)C(=O)NC(C(=O)N1Cc2cc([101O:1][101CH2:1]CCN(C)Cc3nc[100c:0]([100C:0](=O)N4CCCC(n5nc(-c6ccc(Oc7ccc(F)cc7F)cc6)c(C(N)=O)c5N)C4)nc3C)ccc2CC1C(=O)NC1CCCc2ccccc21)C(C)(C)C

> <Shape>
0.240

> <Color>
0.126

> <Negative vol penalty>
0.000

$$$$

  -OEChem-04052317193D

 82 90  0     1  0  0  0  0  0999 V2000
  -28.4993  -22.8051   19.0890 C   0  0  0  0  0  0  0  0  0  0  0  0
  -27.3976  -23.6530   19.0790 C   0  0  0  0  0  0  0  0  0  0  0  0
  -27.5993  -14.3414   22.1723 C   0  0  0  0  0  0  0  0  0  0  0  0
  -26.0824  -15.1792   20.4888 C   0  0  0  0  0  0  0  0  0  0  0  0
  -29.4845  -22.9601   20.0619 C   0  0  0  0  0  0  0  0  0  0  0  0
  -27.2865  -24.6637   20.0346 C   0  0  0  0  0  0  0  0  0  0  0  0
  -23.5865  -27.8597   19.4877 C   0  0  0  0  0  0  0  0  0  0  0  0
  -20.9172  -22.2173   23.2658 C   0  0  0  0  0  0  0  0  0  0  0  0
  -27.2170  -13.0352   21.8668 C   0  0  0  0  0  0  0  0  0  0  0  0
  -25.7001  -13.8729   20.1832 C   0  0  0  0  0  0  0  0  0  0  0  0
  -22.2552  -27.5190   19.7230 C   0  0  0  0  0  0  0  0  0  0  0  0
  -24.0595  -10.7801   19.2073 C   0  0  0  0  0  0  0  0  0  0  0  0
  -22.6975  -10.5228   19.0513 C   0  0  0  0  0  0  0  0  0  0  0  0
  -19.9077  -23.1680   23.1645 C   0  0  0  0  0  0  0  0  0  0  0  0
  -22.3348  -28.6890   21.8311 C   0  0  0  0  0  0  0  0  0  0  0  0
  -22.3005  -11.2473   21.3217 C   0  0  0  0  0  0  0  0  0  0  0  0
  -27.0319  -15.4134   21.4834 C   0  0  0  0  0  0  0  0  0  0  0  0
  -28.4761  -17.4996   21.2189 C   0  0  0  0  0  0  0  0  0  0  0  0
  -29.3785  -23.9655   21.0371 C   0  0  0  0  0  0  0  0  0  0  0  0
  -24.3064  -28.6096   20.4288 C   0  0  0  0  0  0  0  0  0  0  0  0
  -28.2823  -24.8515   21.0102 C   0  0  0  0  0  0  0  0  0  0  0  0
  -23.6743  -29.0401   21.6041 C   0  0  0  0  0  0  0  0  0  0  0  0
  -22.2480  -22.6150   23.2023 C   0  0  0  0  0  0  0  0  0  0  0  0
  -26.2675  -12.8010   20.8723 C   0  0  0  0  0  0  0  0  0  0  0  0
  -21.6300  -27.9311   20.8962 C   0  0  0  0  0  0  0  0  0  0  0  0
  -24.5421  -11.2709   20.4206 C   0  0  0  0  0  0  0  0  0  0  0  0
  -21.8180  -10.7564   20.1084 C   0  0  0  0  0  0  0  0  0  0  0  0
  -23.6626  -11.5045   21.4777 C   0  0  0  0  0  0  0  0  0  0  0  0
  -27.4259  -16.7630   21.7989 C   0  0  0  0  0  0  0  0  0  0  0  0
  -20.2786  -24.4931   23.0019 C   0  0  0  0  0  0  0  0  0  0  0  0
  -22.5142  -23.9648   23.0378 C   0  0  0  0  0  0  0  0  0  0  0  0
  -28.4368  -18.7148   21.8578 C   0  0  0  0  0  0  0  0  0  0  0  0
  -29.4041  -17.1193   20.1943 C   0  0  0  0  0  0  0  0  0  0  0  0
  -26.8971  -28.0971   22.1977 C   0  0  0  0  0  0  0  0  0  0  0  0
  -23.9947  -21.6310   24.6641 C   0  0  0  0  0  0  0  0  0  0  0  0
  -26.4971  -31.2171   22.9899 C   0  0  0  0  0  0  0  0  0  0  0  0
  -24.3883  -33.8842   23.2840 C   0  0  0  0  0  0  0  0  0  0  0  0
  -30.4777  -24.0936   22.0621 C   0  0  0  0  0  0  0  0  0  0  0  0
  -25.7338  -28.9917   20.1478 C   0  0  0  0  0  0  0  0  0  0  0  0
  -24.3970  -29.8642   22.6371 C   0  0  0  0  0  0  0  0  0  0  0  0
  -30.0563  -24.8966   23.2884 C   0  0  0  0  0  0  0  0  0  0  0  0
  -27.1951  -20.7357   26.0042 C   0  0  0  0  0  0  0  0  0  0  0  0
  -29.4077  -26.2032   22.8565 C   0  0  0  0  0  0  0  0  0  0  0  0
  -27.7000  -19.6621   25.0410 C   0  0  0  0  0  0  0  0  0  0  0  0
  -25.6825  -20.6563   26.1858 C   0  0  0  0  0  0  0  0  0  0  0  0
  -25.4160  -19.6487   23.9418 C   0  0  0  0  0  0  0  0  0  0  0  0
  -28.1250  -25.9384   22.0581 C   0  0  1  0  0  0  0  0  0  0  0  0
  -26.5238  -29.3213   21.4106 C   0  0  1  0  0  0  0  0  0  0  0  0
  -26.9355  -19.7131   23.7064 C   0  0  2  0  0  0  0  0  0  0  0  0
  -24.2371  -25.4824   24.0454 C   0  0  0  0  0  0  0  0  0  0  0  0
  -24.3431  -36.2908   23.9938 C   0  0  0  0  0  0  0  0  0  0  0  0
  -26.5611  -30.3529   25.9155 C   0  0  0  0  0  0  0  0  0  0  0  0
  -25.5809  -32.5757   26.5212 C   0  0  0  0  0  0  0  0  0  0  0  0
  -27.8172  -32.4584   25.4220 C   0  0  0  0  0  0  0  0  0  0  0  0
  -23.5634  -34.7844   20.5881 C   0  0  0  0  0  0  0  0  0  0  0  0
  -23.3339  -21.6010   23.3089 C   0  0  0  0  0  0  0  0  0  0  0  0
  -19.2100  -25.5510   22.8903 C   0  0  0  0  0  0  0  0  0  0  0  0
  -23.9249  -24.4502   22.9661 C   0  0  0  0  0  0  0  0  0  0  0  0
  -18.7561  -25.8188   21.4537 C   0  0  0  0  0  0  0  0  0  0  0  0
  -19.8622  -26.3752   20.5648 C   0  0  0  0  0  0  0  0  0  1  0  0
  -25.7422  -31.9584   24.0668 C   0  0  1  0  0  0  0  0  0  0  0  0
  -24.5198  -35.3271   22.8308 C   0  0  2  0  0  0  0  0  0  0  0  0
  -26.4120  -31.8192   25.4630 C   0  0  0  0  0  0  0  0  0  0  0  0
  -26.7677  -17.4525   22.7344 N   0  0  0  0  0  0  0  0  0  0  0  0
  -21.5605  -24.9175   22.9357 N   0  0  0  0  0  0  0  0  0  0  0  0
  -27.4059  -18.6352   22.7472 N   0  0  0  0  0  0  0  0  0  0  0  0
  -25.7931  -30.2069   22.3194 N   0  0  0  0  0  0  0  0  0  0  0  0
  -24.9939  -20.6851   24.8942 N   0  0  0  0  0  0  0  0  0  0  0  0
  -29.1839  -19.8330   21.7400 N   0  0  0  0  0  0  0  0  0  0  0  0
  -29.3039  -15.8335   19.6458 N   0  0  0  0  0  0  0  0  0  0  0  0
  -27.6562  -27.1837   21.4913 N   0  0  0  0  0  0  0  0  0  0  0  0
  -25.6127  -33.3348   23.6008 N   0  0  0  0  0  0  0  0  0  0  0  0
  -23.4913  -35.6417   21.7992 N   0  3  0  0  0  0  0  0  0  0  0  0
  -30.3061  -17.8911   19.7890 O   0  0  0  0  0  0  0  0  0  0  0  0
  -26.5254  -27.9898   23.3605 O   0  0  0  0  0  0  0  0  0  0  0  0
  -23.6342  -22.4726   25.4911 O   0  0  0  0  0  0  0  0  0  0  0  0
  -27.6660  -31.5279   22.7477 O   0  0  0  0  0  0  0  0  0  0  0  0
  -23.3072  -33.3039   23.3539 O   0  0  0  0  0  0  0  0  0  0  0  0
  -25.8944  -11.5265   20.5737 O   0  0  0  0  0  0  0  0  0  0  0  0
  -20.3309  -27.5994   21.1287 O   0  0  0  0  0  0  0  0  0  1  0  0
  -20.5099  -10.5108   19.9579 F   0  0  0  0  0  0  0  0  0  0  0  0
  -24.1201  -11.9771   22.6453 F   0  0  0  0  0  0  0  0  0  0  0  0
  1  2  1  0  0  0  0
  1  5  2  0  0  0  0
  2  6  2  0  0  0  0
  3  9  2  0  0  0  0
  3 17  1  0  0  0  0
  4 10  1  0  0  0  0
  4 17  2  0  0  0  0
  5 19  1  0  0  0  0
  6 21  1  0  0  0  0
  7 11  2  0  0  0  0
  7 20  1  0  0  0  0
  8 14  2  0  0  0  0
  8 23  1  0  0  0  0
  9 24  1  0  0  0  0
 10 24  2  0  0  0  0
 11 25  1  0  0  0  0
 12 13  2  0  0  0  0
 12 26  1  0  0  0  0
 13 27  1  0  0  0  0
 14 30  1  0  0  0  0
 15 22  1  0  0  0  0
 15 25  2  0  0  0  0
 16 27  2  0  0  0  0
 16 28  1  0  0  0  0
 17 29  1  0  0  0  0
 18 29  1  0  0  0  0
 18 32  2  0  0  0  0
 18 33  1  0  0  0  0
 19 21  2  0  0  0  0
 19 38  1  0  0  0  0
 20 22  2  0  0  0  0
 20 39  1  0  0  0  0
 21 47  1  0  0  0  0
 22 40  1  0  0  0  0
 23 31  2  0  0  0  0
 23 56  1  0  0  0  0
 24 79  1  0  0  0  0
 25 80  1  0  0  0  0
 26 28  2  0  0  0  0
 26 79  1  0  0  0  0
 27 81  1  0  0  0  0
 28 82  1  0  0  0  0
 29 64  2  0  0  0  0
 30 57  1  0  0  0  0
 30 65  2  0  0  0  0
 31 58  1  0  0  0  0
 31 65  1  0  0  0  0
 32 66  1  0  0  0  0
 32 69  1  0  0  0  0
 33 70  1  0  0  0  0
 33 74  2  0  0  0  0
 34 48  1  0  0  0  0
 34 71  1  0  0  0  0
 34 75  2  0  0  0  0
 35 56  1  0  0  0  0
 35 68  1  0  0  0  0
 35 76  2  0  0  0  0
 36 61  1  0  0  0  0
 36 67  1  0  0  0  0
 36 77  2  0  0  0  0
 37 62  1  0  0  0  0
 37 72  1  0  0  0  0
 37 78  2  0  0  0  0
 38 41  1  0  0  0  0
 39 48  1  0  0  0  0
 40 67  1  0  0  0  0
 41 43  1  0  0  0  0
 42 44  1  0  0  0  0
 42 45  1  0  0  0  0
 43 47  1  0  0  0  0
 44 49  1  0  0  0  0
 45 68  1  0  0  0  0
 46 49  1  0  0  0  0
 46 68  1  0  0  0  0
 47 71  1  0  0  0  0
 48 67  1  0  0  0  0
 49 66  1  0  0  0  0
 50 58  1  0  0  0  0
 51 62  1  0  0  0  0
 52 63  1  0  0  0  0
 53 63  1  0  0  0  0
 54 63  1  0  0  0  0
 55 73  1  0  0  0  0
 57 59  1  0  0  0  0
 59 60  1  0  0  0  0
 60 80  1  0  0  0  0
 61 63  1  0  0  0  0
 61 72  1  0  0  0  0
 62 73  1  0  0  0  0
 64 66  1  0  0  0  0
M  CHG  1  73   1
M  ISO  4  35 100  56 100  60 101  80 101
M  END
> <Batch ID>
0045

> <Smiles>
CCc1nc(CC[101CH2:1][101O:1]c2ccc3c(c2)CN(C(=O)C(NC(=O)C(C)NC)C(C)(C)C)C(C(=O)NC2CCCc4ccccc42)C3)ccc1[100CH2:0][100C:0](=O)N1CCCC(n2nc(-c3ccc(Oc4ccc(F)cc4F)cc3)c(C(N)=O)c2N)C1

> <Shape>
0.251

> <Color>
0.074

> <Negative vol penalty>
0.000

$$$$

  -OEChem-04052317193D

 85 93  0     1  0  0  0  0  0999 V2000
  -27.2995  -34.1246   25.0447 C   0  0  0  0  0  0  0  0  0  0  0  0
  -27.6334  -32.9062   24.4620 C   0  0  0  0  0  0  0  0  0  0  0  0
  -25.9957  -14.9098   22.7606 C   0  0  0  0  0  0  0  0  0  0  0  0
  -25.5072  -14.6085   20.4137 C   0  0  0  0  0  0  0  0  0  0  0  0
  -26.0291  -34.3112   25.5880 C   0  0  0  0  0  0  0  0  0  0  0  0
  -26.6973  -31.8734   24.4232 C   0  0  0  0  0  0  0  0  0  0  0  0
  -26.5137  -29.5867   19.9085 C   0  0  0  0  0  0  0  0  0  0  0  0
  -25.0859  -13.9018   23.0794 C   0  0  0  0  0  0  0  0  0  0  0  0
  -24.5974  -13.6004   20.7326 C   0  0  0  0  0  0  0  0  0  0  0  0
  -27.5244  -28.6718   19.6166 C   0  0  0  0  0  0  0  0  0  0  0  0
  -24.7017  -10.3330   21.5892 C   0  0  0  0  0  0  0  0  0  0  0  0
  -24.7423   -9.1623   20.8321 C   0  0  0  0  0  0  0  0  0  0  0  0
  -26.0380  -26.8581   20.1825 C   0  0  0  0  0  0  0  0  0  0  0  0
  -28.5424  -23.1837   13.8595 C   0  0  0  0  0  0  0  0  0  0  0  0
  -22.4548   -9.5269   20.1456 C   0  0  0  0  0  0  0  0  0  0  0  0
  -26.2063  -15.2633   21.4277 C   0  0  0  0  0  0  0  0  0  0  0  0
  -28.5198  -16.1570   20.8305 C   0  0  0  0  0  0  0  0  0  0  0  0
  -25.0738  -33.2834   25.5472 C   0  0  0  0  0  0  0  0  0  0  0  0
  -25.2588  -29.1438   20.3508 C   0  0  0  0  0  0  0  0  0  0  0  0
  -25.4134  -32.0461   24.9676 C   0  0  0  0  0  0  0  0  0  0  0  0
  -25.0122  -27.7692   20.4769 C   0  0  0  0  0  0  0  0  0  0  0  0
  -28.6064  -22.2426   14.9166 C   0  0  0  0  0  0  0  0  0  0  0  0
  -24.3868  -13.2470   22.0655 C   0  0  0  0  0  0  0  0  0  0  0  0
  -27.2876  -27.3075   19.7563 C   0  0  0  0  0  0  0  0  0  0  0  0
  -23.5376  -11.1007   21.6247 C   0  0  0  0  0  0  0  0  0  0  0  0
  -23.6189   -8.7592   20.1103 C   0  0  0  0  0  0  0  0  0  0  0  0
  -22.4141  -10.6976   20.9028 C   0  0  0  0  0  0  0  0  0  0  0  0
  -27.1456  -16.3049   21.0977 C   0  0  0  0  0  0  0  0  0  0  0  0
  -29.4904  -24.1507   14.1117 C   0  0  0  0  0  0  0  0  0  0  0  0
  -29.5914  -22.6633   15.7827 C   0  0  0  0  0  0  0  0  0  0  0  0
  -28.9590  -17.4329   20.5743 C   0  0  0  0  0  0  0  0  0  0  0  0
  -29.3270  -14.9722   20.8150 C   0  0  0  0  0  0  0  0  0  0  0  0
  -23.5493  -29.5330   23.0022 C   0  0  0  0  0  0  0  0  0  0  0  0
  -21.2832  -27.9458   21.3087 C   0  0  0  0  0  0  0  0  0  0  0  0
  -20.5445  -25.7891   18.7691 C   0  0  0  0  0  0  0  0  0  0  0  0
  -26.2084  -22.3743   18.6078 C   0  0  0  0  0  0  0  0  0  0  0  0
  -23.7293  -33.5162   26.1897 C   0  0  0  0  0  0  0  0  0  0  0  0
  -24.1706  -30.1422   20.6360 C   0  0  0  0  0  0  0  0  0  0  0  0
  -23.6759  -27.2414   20.9288 C   0  0  0  0  0  0  0  0  0  0  0  0
  -22.6709  -32.4978   25.7735 C   0  0  0  0  0  0  0  0  0  0  0  0
  -28.0245  -22.0008   21.6473 C   0  0  0  0  0  0  0  0  0  0  0  0
  -23.2347  -31.0823   25.8453 C   0  0  0  0  0  0  0  0  0  0  0  0
  -28.1292  -20.4853   21.8270 C   0  0  0  0  0  0  0  0  0  0  0  0
  -26.6837  -22.4057   21.0387 C   0  0  0  0  0  0  0  0  0  0  0  0
  -26.4473  -20.2031   19.9587 C   0  0  0  0  0  0  0  0  0  0  0  0
  -24.4171  -30.9100   24.8841 C   0  0  1  0  0  0  0  0  0  0  0  0
  -23.0940  -29.6016   21.5720 C   0  0  1  0  0  0  0  0  0  0  0  0
  -27.8042  -19.7416   20.5176 C   0  0  2  0  0  0  0  0  0  0  0  0
  -29.8443  -25.3551   13.3327 C   0  0  0  0  0  0  0  0  0  0  0  0
  -30.0731  -22.0592   17.0433 C   0  0  0  0  0  0  0  0  0  0  0  0
  -18.6067  -24.6528   17.6506 C   0  0  0  0  0  0  0  0  0  0  0  0
  -21.0811  -25.9951   23.6461 C   0  0  0  0  0  0  0  0  0  0  0  0
  -19.8858  -24.4054   22.1255 C   0  0  0  0  0  0  0  0  0  0  0  0
  -18.8879  -26.6355   22.6292 C   0  0  0  0  0  0  0  0  0  0  0  0
  -21.1286  -27.0903   16.1759 C   0  0  0  0  0  0  0  0  0  0  0  0
  -27.7682  -21.0352   15.0563 C   0  0  0  0  0  0  0  0  0  0  0  0
  -26.2424  -21.2936   15.0370 C   0  0  0  0  0  0  0  0  0  0  0  0
  -30.7428  -25.8585   16.6866 C   0  0  0  0  0  0  0  0  0  0  0  0
  -29.7075  -25.5295   17.7633 C   0  0  0  0  0  0  0  0  0  0  0  0
  -31.2300  -24.6209   15.9246 C   0  0  0  0  0  0  0  0  0  0  0  0
  -25.7460  -22.1801   16.1772 C   0  0  0  0  0  0  0  0  0  0  0  0
  -29.2214  -26.7855   18.4740 C   0  0  0  0  0  0  0  0  0  1  0  0
  -20.9107  -26.4953   21.1189 C   0  0  1  0  0  0  0  0  0  0  0  0
  -19.5245  -25.8653   17.6474 C   0  0  2  0  0  0  0  0  0  0  0  0
  -20.2173  -25.8925   22.3733 C   0  0  0  0  0  0  0  0  0  0  0  0
  -26.7387  -17.5746   21.0189 N   0  0  0  0  0  0  0  0  0  0  0  0
  -30.1217  -23.8242   15.2835 N   0  0  0  0  0  0  0  0  0  0  0  0
  -27.8639  -18.2362   20.6992 N   0  0  0  0  0  0  0  0  0  0  0  0
  -22.6460  -28.2575   21.2016 N   0  0  0  0  0  0  0  0  0  0  0  0
  -26.4367  -21.6656   19.7989 N   0  0  0  0  0  0  0  0  0  0  0  0
  -30.1713  -17.9348   20.2568 N   0  0  0  0  0  0  0  0  0  0  0  0
  -28.7160  -13.7436   21.1007 N   0  0  0  0  0  0  0  0  0  0  0  0
  -23.9449  -30.7492   23.5256 N   0  0  0  0  0  0  0  0  0  0  0  0
  -20.1046  -26.4363   19.9044 N   0  0  0  0  0  0  0  0  0  0  0  0
  -25.9892  -21.5963   17.4775 N   0  0  0  0  0  0  0  0  0  0  0  0
  -20.2112  -25.9315   16.3264 N   0  3  0  0  0  0  0  0  0  0  0  0
  -30.5572  -15.0041   20.5716 O   0  0  0  0  0  0  0  0  0  0  0  0
  -23.5409  -28.4567   23.5880 O   0  0  0  0  0  0  0  0  0  0  0  0
  -20.3969  -28.7731   21.5362 O   0  0  0  0  0  0  0  0  0  0  0  0
  -21.6221  -25.2098   18.6513 O   0  0  0  0  0  0  0  0  0  0  0  0
  -26.2058  -23.6088   18.5544 O   0  0  0  0  0  0  0  0  0  0  0  0
  -23.4991  -12.2632   22.3762 O   0  0  0  0  0  0  0  0  0  0  0  0
  -28.2727  -26.4124   19.4726 O   0  0  0  0  0  0  0  0  0  1  0  0
  -23.6586   -7.6357   19.3820 F   0  0  0  0  0  0  0  0  0  0  0  0
  -21.2933  -11.4316   20.9320 F   0  0  0  0  0  0  0  0  0  0  0  0
  1  2  1  0  0  0  0
  1  5  2  0  0  0  0
  2  6  2  0  0  0  0
  3  8  2  0  0  0  0
  3 16  1  0  0  0  0
  4  9  1  0  0  0  0
  4 16  2  0  0  0  0
  5 18  1  0  0  0  0
  6 20  1  0  0  0  0
  7 10  2  0  0  0  0
  7 19  1  0  0  0  0
  8 23  1  0  0  0  0
  9 23  2  0  0  0  0
 10 24  1  0  0  0  0
 11 12  2  0  0  0  0
 11 25  1  0  0  0  0
 12 26  1  0  0  0  0
 13 21  1  0  0  0  0
 13 24  2  0  0  0  0
 14 22  1  0  0  0  0
 14 29  2  0  0  0  0
 15 26  2  0  0  0  0
 15 27  1  0  0  0  0
 16 28  1  0  0  0  0
 17 28  1  0  0  0  0
 17 31  2  0  0  0  0
 17 32  1  0  0  0  0
 18 20  2  0  0  0  0
 18 37  1  0  0  0  0
 19 21  2  0  0  0  0
 19 38  1  0  0  0  0
 20 46  1  0  0  0  0
 21 39  1  0  0  0  0
 22 30  2  0  0  0  0
 22 56  1  0  0  0  0
 23 82  1  0  0  0  0
 24 83  1  0  0  0  0
 25 27  2  0  0  0  0
 25 82  1  0  0  0  0
 26 84  1  0  0  0  0
 27 85  1  0  0  0  0
 28 66  2  0  0  0  0
 29 49  1  0  0  0  0
 29 67  1  0  0  0  0
 30 50  1  0  0  0  0
 30 67  1  0  0  0  0
 31 68  1  0  0  0  0
 31 71  1  0  0  0  0
 32 72  1  0  0  0  0
 32 77  2  0  0  0  0
 33 47  1  0  0  0  0
 33 73  1  0  0  0  0
 33 78  2  0  0  0  0
 34 63  1  0  0  0  0
 34 69  1  0  0  0  0
 34 79  2  0  0  0  0
 35 64  1  0  0  0  0
 35 74  1  0  0  0  0
 35 80  2  0  0  0  0
 36 70  1  0  0  0  0
 36 75  1  0  0  0  0
 36 81  2  0  0  0  0
 37 40  1  0  0  0  0
 38 47  1  0  0  0  0
 39 69  1  0  0  0  0
 40 42  1  0  0  0  0
 41 43  1  0  0  0  0
 41 44  1  0  0  0  0
 42 46  1  0  0  0  0
 43 48  1  0  0  0  0
 44 70  1  0  0  0  0
 45 48  1  0  0  0  0
 45 70  1  0  0  0  0
 46 73  1  0  0  0  0
 47 69  1  0  0  0  0
 48 68  1  0  0  0  0
 51 64  1  0  0  0  0
 52 65  1  0  0  0  0
 53 65  1  0  0  0  0
 54 65  1  0  0  0  0
 55 76  1  0  0  0  0
 56 57  1  0  0  0  0
 57 61  1  0  0  0  0
 58 59  1  0  0  0  0
 58 60  1  0  0  0  0
 59 62  1  0  0  0  0
 60 67  1  0  0  0  0
 61 75  1  0  0  0  0
 62 83  1  0  0  0  0
 63 65  1  0  0  0  0
 63 74  1  0  0  0  0
 64 76  1  0  0  0  0
 66 68  1  0  0  0  0
M  CHG  1  76   1
M  ISO  4  36 100  62 101  75 100  83 101
M  END
> <Batch ID>
0045

> <Smiles>
CNC(C)C(=O)NC(C(=O)N1Cc2cc([101O:1][101CH2:1]CCCn3c(C)cc(CCC[100NH:0][100C:0](=O)N4CCCC(n5nc(-c6ccc(Oc7ccc(F)cc7F)cc6)c(C(N)=O)c5N)C4)c3C)ccc2CC1C(=O)NC1CCCc2ccccc21)C(C)(C)C

> <Shape>
0.269

> <Color>
0.079

> <Negative vol penalty>
0.000

$$$$

  -OEChem-04052317193D

 83 91  0     1  0  0  0  0  0999 V2000
  -22.7312  -20.3007   23.6199 C   0  0  0  0  0  0  0  0  0  0  0  0
  -23.9798  -20.8060   23.2719 C   0  0  0  0  0  0  0  0  0  0  0  0
  -24.3039  -11.9250   19.8468 C   0  0  0  0  0  0  0  0  0  0  0  0
  -25.3929  -12.1937   21.9866 C   0  0  0  0  0  0  0  0  0  0  0  0
  -21.5750  -20.9857   23.2486 C   0  0  0  0  0  0  0  0  0  0  0  0
  -24.0729  -21.9962   22.5514 C   0  0  0  0  0  0  0  0  0  0  0  0
  -28.4236  -26.2763   23.0590 C   0  0  0  0  0  0  0  0  0  0  0  0
  -24.4270  -10.5401   19.9580 C   0  0  0  0  0  0  0  0  0  0  0  0
  -25.5159  -10.8087   22.0979 C   0  0  0  0  0  0  0  0  0  0  0  0
  -29.5717  -26.5399   22.3132 C   0  0  0  0  0  0  0  0  0  0  0  0
  -24.1307   -6.9187   19.8452 C   0  0  0  0  0  0  0  0  0  0  0  0
  -23.0191   -6.1407   19.5214 C   0  0  0  0  0  0  0  0  0  0  0  0
  -28.3563  -28.1860   21.0355 C   0  0  0  0  0  0  0  0  0  0  0  0
  -21.7438   -7.2423   21.2526 C   0  0  0  0  0  0  0  0  0  0  0  0
  -30.9103  -24.5143   16.8939 C   0  0  0  0  0  0  0  0  0  0  0  0
  -24.7869  -12.7518   20.8611 C   0  0  0  0  0  0  0  0  0  0  0  0
  -23.5891  -14.9797   21.1919 C   0  0  0  0  0  0  0  0  0  0  0  0
  -21.6543  -22.1899   22.5315 C   0  0  0  0  0  0  0  0  0  0  0  0
  -27.2284  -26.9590   22.7910 C   0  0  0  0  0  0  0  0  0  0  0  0
  -22.9166  -22.6973   22.1690 C   0  0  0  0  0  0  0  0  0  0  0  0
  -27.1952  -27.9311   21.7810 C   0  0  0  0  0  0  0  0  0  0  0  0
  -25.0330   -9.9819   21.0836 C   0  0  0  0  0  0  0  0  0  0  0  0
  -29.5374  -27.4928   21.2993 C   0  0  0  0  0  0  0  0  0  0  0  0
  -24.0488   -7.8584   20.8728 C   0  0  0  0  0  0  0  0  0  0  0  0
  -21.8257   -6.3025   20.2251 C   0  0  0  0  0  0  0  0  0  0  0  0
  -22.8554   -8.0202   21.5765 C   0  0  0  0  0  0  0  0  0  0  0  0
  -24.6605  -14.1826   20.7465 C   0  0  0  0  0  0  0  0  0  0  0  0
  -30.6041  -25.6220   17.6329 C   0  0  0  0  0  0  0  0  0  0  0  0
  -23.9483  -16.2604   20.8492 C   0  0  0  0  0  0  0  0  0  0  0  0
  -28.9418  -24.1760   17.8484 C   0  0  0  0  0  0  0  0  0  0  0  0
  -22.3775  -14.5969   21.8560 C   0  0  0  0  0  0  0  0  0  0  0  0
  -24.3191  -26.1001   21.8413 C   0  0  0  0  0  0  0  0  0  0  0  0
  -23.6463  -29.2285   22.3725 C   0  0  0  0  0  0  0  0  0  0  0  0
  -24.7867  -32.4353   22.6229 C   0  0  0  0  0  0  0  0  0  0  0  0
  -27.6608  -20.2777   20.6891 C   0  0  0  0  0  0  0  0  0  0  0  0
  -20.3754  -22.8702   22.1114 C   0  0  0  0  0  0  0  0  0  0  0  0
  -26.0058  -26.6822   23.6223 C   0  0  0  0  0  0  0  0  0  0  0  0
  -25.9425  -28.7060   21.4671 C   0  0  0  0  0  0  0  0  0  0  0  0
  -20.5718  -24.3193   21.6735 C   0  0  0  0  0  0  0  0  0  0  0  0
  -27.7041  -17.9550   17.9142 C   0  0  0  0  0  0  0  0  0  0  0  0
  -21.7591  -24.4335   20.7227 C   0  0  0  0  0  0  0  0  0  0  0  0
  -26.8203  -16.8264   18.4484 C   0  0  0  0  0  0  0  0  0  0  0  0
  -28.5695  -18.5504   19.0208 C   0  0  0  0  0  0  0  0  0  0  0  0
  -26.9228  -17.9123   20.7398 C   0  0  0  0  0  0  0  0  0  0  0  0
  -23.0594  -23.9983   21.4092 C   0  0  1  0  0  0  0  0  0  0  0  0
  -24.7069  -27.0692   22.9220 C   0  0  1  0  0  0  0  0  0  0  0  0
  -26.0070  -17.2838   19.6738 C   0  0  2  0  0  0  0  0  0  0  0  0
  -23.9946  -34.7819   23.0274 C   0  0  0  0  0  0  0  0  0  0  0  0
  -22.5522  -29.3473   19.5267 C   0  0  0  0  0  0  0  0  0  0  0  0
  -22.6672  -31.8447   19.6611 C   0  0  0  0  0  0  0  0  0  0  0  0
  -21.1874  -30.5802   21.2213 C   0  0  0  0  0  0  0  0  0  0  0  0
  -29.7799  -22.3265   16.4298 C   0  0  0  0  0  0  0  0  0  0  0  0
  -26.4459  -32.6990   25.0594 C   0  0  0  0  0  0  0  0  0  0  0  0
  -31.3567  -26.9092   17.8572 C   0  0  0  0  0  0  0  0  0  0  0  0
  -27.6582  -23.5624   18.2712 C   0  0  0  0  0  0  0  0  0  0  0  0
  -32.3004  -26.8691   19.0611 C   0  0  0  0  0  0  0  0  0  0  0  0
  -27.4584  -23.4729   19.8001 C   0  0  0  0  0  0  0  0  0  0  0  0
  -28.4935  -22.6088   20.5170 C   0  0  0  0  0  0  0  0  0  0  0  0
  -31.5772  -26.6764   20.3890 C   0  0  0  0  0  0  0  0  0  1  0  0
  -23.6936  -30.4883   21.5420 C   0  0  1  0  0  0  0  0  0  0  0  0
  -24.5416  -33.5133   23.6633 C   0  0  2  0  0  0  0  0  0  0  0  0
  -22.5484  -30.5493   20.4921 C   0  0  0  0  0  0  0  0  0  0  0  0
  -25.6278  -14.8969   20.1651 N   0  0  0  0  0  0  0  0  0  0  0  0
  -29.8647  -23.6358   17.0459 N   0  0  0  0  0  0  0  0  0  0  0  0
  -25.1655  -16.1564   20.2427 N   0  0  0  0  0  0  0  0  0  0  0  0
  -29.3808  -25.3853   18.2122 N   0  3  0  0  0  0  0  0  0  0  0  0
  -24.7715  -28.3950   22.3036 N   0  0  0  0  0  0  0  0  0  0  0  0
  -27.7330  -18.9829   20.1493 N   0  0  0  0  0  0  0  0  0  0  0  0
  -23.3386  -17.4539   21.0104 N   0  0  0  0  0  0  0  0  0  0  0  0
  -22.1675  -13.2390   22.1325 N   0  0  0  0  0  0  0  0  0  0  0  0
  -23.5442  -25.0449   22.2834 N   0  0  0  0  0  0  0  0  0  0  0  0
  -23.6981  -31.6001   22.4866 N   0  0  0  0  0  0  0  0  0  0  0  0
  -28.4645  -21.2317   20.0770 N   0  0  0  0  0  0  0  0  0  0  0  0
  -25.8103  -33.8505   24.3687 N   0  3  0  0  0  0  0  0  0  0  0  0
  -21.4994  -15.4322   22.1796 O   0  0  0  0  0  0  0  0  0  0  0  0
  -24.6939  -26.2960   20.6911 O   0  0  0  0  0  0  0  0  0  0  0  0
  -22.6506  -28.9963   23.0628 O   0  0  0  0  0  0  0  0  0  0  0  0
  -25.8373  -32.3457   21.9914 O   0  0  0  0  0  0  0  0  0  0  0  0
  -26.9296  -20.5642   21.6433 O   0  0  0  0  0  0  0  0  0  0  0  0
  -25.1530   -8.6305   21.1925 O   0  0  0  0  0  0  0  0  0  0  0  0
  -30.6564  -27.7515   20.5694 O   0  0  0  0  0  0  0  0  0  1  0  0
  -20.7579   -5.5565   19.9130 F   0  0  0  0  0  0  0  0  0  0  0  0
  -22.7704   -8.9222   22.5639 F   0  0  0  0  0  0  0  0  0  0  0  0
  1  2  1  0  0  0  0
  1  5  2  0  0  0  0
  2  6  2  0  0  0  0
  3  8  2  0  0  0  0
  3 16  1  0  0  0  0
  4  9  1  0  0  0  0
  4 16  2  0  0  0  0
  5 18  1  0  0  0  0
  6 20  1  0  0  0  0
  7 10  2  0  0  0  0
  7 19  1  0  0  0  0
  8 22  1  0  0  0  0
  9 22  2  0  0  0  0
 10 23  1  0  0  0  0
 11 12  2  0  0  0  0
 11 24  1  0  0  0  0
 12 25  1  0  0  0  0
 13 21  1  0  0  0  0
 13 23  2  0  0  0  0
 14 25  2  0  0  0  0
 14 26  1  0  0  0  0
 15 28  2  0  0  0  0
 15 64  1  0  0  0  0
 16 27  1  0  0  0  0
 17 27  1  0  0  0  0
 17 29  2  0  0  0  0
 17 31  1  0  0  0  0
 18 20  2  0  0  0  0
 18 36  1  0  0  0  0
 19 21  2  0  0  0  0
 19 37  1  0  0  0  0
 20 45  1  0  0  0  0
 21 38  1  0  0  0  0
 22 80  1  0  0  0  0
 23 81  1  0  0  0  0
 24 26  2  0  0  0  0
 24 80  1  0  0  0  0
 25 82  1  0  0  0  0
 26 83  1  0  0  0  0
 27 63  2  0  0  0  0
 28 54  1  0  0  0  0
 28 66  1  0  0  0  0
 29 65  1  0  0  0  0
 29 69  1  0  0  0  0
 30 55  1  0  0  0  0
 30 64  1  0  0  0  0
 30 66  2  0  0  0  0
 31 70  1  0  0  0  0
 31 75  2  0  0  0  0
 32 46  1  0  0  0  0
 32 71  1  0  0  0  0
 32 76  2  0  0  0  0
 33 60  1  0  0  0  0
 33 67  1  0  0  0  0
 33 77  2  0  0  0  0
 34 61  1  0  0  0  0
 34 72  1  0  0  0  0
 34 78  2  0  0  0  0
 35 68  1  0  0  0  0
 35 73  1  0  0  0  0
 35 79  2  0  0  0  0
 36 39  1  0  0  0  0
 37 46  1  0  0  0  0
 38 67  1  0  0  0  0
 39 41  1  0  0  0  0
 40 42  1  0  0  0  0
 40 43  1  0  0  0  0
 41 45  1  0  0  0  0
 42 47  1  0  0  0  0
 43 68  1  0  0  0  0
 44 47  1  0  0  0  0
 44 68  1  0  0  0  0
 45 71  1  0  0  0  0
 46 67  1  0  0  0  0
 47 65  1  0  0  0  0
 48 61  1  0  0  0  0
 49 62  1  0  0  0  0
 50 62  1  0  0  0  0
 51 62  1  0  0  0  0
 52 64  1  0  0  0  0
 53 74  1  0  0  0  0
 54 56  1  0  0  0  0
 55 57  1  0  0  0  0
 56 59  1  0  0  0  0
 57 58  1  0  0  0  0
 58 73  1  0  0  0  0
 59 81  1  0  0  0  0
 60 62  1  0  0  0  0
 60 72  1  0  0  0  0
 61 74  1  0  0  0  0
 63 65  1  0  0  0  0
M  CHG  2  66   1  74   1
M  ISO  4  35 100  59 101  73 100  81 101
M  END
> <Batch ID>
0045

> <Smiles>
CNC(C)C(=O)NC(C(=O)N1Cc2cc([101O:1][101CH2:1]CCc3cn(C)c(CCC[100NH:0][100C:0](=O)N4CCCC(n5nc(-c6ccc(Oc7ccc(F)cc7F)cc6)c(C(N)=O)c5N)C4)n3)ccc2CC1C(=O)NC1CCCc2ccccc21)C(C)(C)C

> <Shape>
0.259

> <Color>
0.062

> <Negative vol penalty>
0.000

$$$$

  -OEChem-04052317193D

 83 91  0     1  0  0  0  0  0999 V2000
  -29.6481  -23.0803   18.4133 C   0  0  0  0  0  0  0  0  0  0  0  0
  -28.2706  -23.1777   18.5823 C   0  0  0  0  0  0  0  0  0  0  0  0
  -26.7036  -15.6347   20.9235 C   0  0  0  0  0  0  0  0  0  0  0  0
  -24.3882  -15.3159   20.3117 C   0  0  0  0  0  0  0  0  0  0  0  0
  -30.5060  -23.7122   19.3125 C   0  0  0  0  0  0  0  0  0  0  0  0
  -27.7503  -23.9064   19.6512 C   0  0  0  0  0  0  0  0  0  0  0  0
  -22.6037  -27.2256   19.6857 C   0  0  0  0  0  0  0  0  0  0  0  0
  -26.8917  -14.2526   20.9319 C   0  0  0  0  0  0  0  0  0  0  0  0
  -24.5763  -13.9337   20.3201 C   0  0  0  0  0  0  0  0  0  0  0  0
  -21.3144  -26.9524   20.1405 C   0  0  0  0  0  0  0  0  0  0  0  0
  -27.3626  -11.7890   18.6644 C   0  0  0  0  0  0  0  0  0  0  0  0
  -28.5057  -11.2865   18.0427 C   0  0  0  0  0  0  0  0  0  0  0  0
  -21.8230  -28.0536   22.2256 C   0  0  0  0  0  0  0  0  0  0  0  0
  -29.2179  -10.3154   20.1372 C   0  0  0  0  0  0  0  0  0  0  0  0
  -25.4518  -16.1663   20.6134 C   0  0  0  0  0  0  0  0  0  0  0  0
  -25.4242  -18.4685   19.5148 C   0  0  0  0  0  0  0  0  0  0  0  0
  -29.9958  -24.4570   20.3875 C   0  0  0  0  0  0  0  0  0  0  0  0
  -23.5174  -27.9064   20.5031 C   0  0  0  0  0  0  0  0  0  0  0  0
  -28.6021  -24.5478   20.5664 C   0  0  0  0  0  0  0  0  0  0  0  0
  -23.1225  -28.3365   21.7779 C   0  0  0  0  0  0  0  0  0  0  0  0
  -25.8281  -13.4021   20.6301 C   0  0  0  0  0  0  0  0  0  0  0  0
  -20.9248  -27.3639   21.4117 C   0  0  0  0  0  0  0  0  0  0  0  0
  -27.1471  -11.5547   20.0225 C   0  0  0  0  0  0  0  0  0  0  0  0
  -29.4333  -10.5497   18.7791 C   0  0  0  0  0  0  0  0  0  0  0  0
  -28.0747  -10.8178   20.7588 C   0  0  0  0  0  0  0  0  0  0  0  0
  -25.2567  -17.5939   20.6051 C   0  0  0  0  0  0  0  0  0  0  0  0
  -25.1192  -19.7089   20.0196 C   0  0  0  0  0  0  0  0  0  0  0  0
  -18.4439  -23.2886   21.1365 C   0  0  0  0  0  0  0  0  0  0  0  0
  -18.4751  -24.6417   22.9266 C   0  0  0  0  0  0  0  0  0  0  0  0
  -18.9485  -22.4604   23.1604 C   0  0  0  0  0  0  0  0  0  0  0  0
  -25.8200  -18.1849   18.1662 C   0  0  0  0  0  0  0  0  0  0  0  0
  -26.3373  -27.1993   21.7883 C   0  0  0  0  0  0  0  0  0  0  0  0
  -26.2655  -30.3120   22.6982 C   0  0  0  0  0  0  0  0  0  0  0  0
  -24.4010  -33.0821   23.4035 C   0  0  0  0  0  0  0  0  0  0  0  0
  -21.7266  -21.5222   24.6080 C   0  0  0  0  0  0  0  0  0  0  0  0
  -30.9630  -25.0832   21.3607 C   0  0  0  0  0  0  0  0  0  0  0  0
  -24.8958  -28.2169   19.9875 C   0  0  0  0  0  0  0  0  0  0  0  0
  -24.0591  -29.0885   22.6866 C   0  0  0  0  0  0  0  0  0  0  0  0
  -30.3273  -26.1474   22.2516 C   0  0  0  0  0  0  0  0  0  0  0  0
  -25.1821  -22.2113   24.0969 C   0  0  0  0  0  0  0  0  0  0  0  0
  -29.0032  -25.6466   22.8198 C   0  0  0  0  0  0  0  0  0  0  0  0
  -25.6082  -21.1849   23.0457 C   0  0  0  0  0  0  0  0  0  0  0  0
  -24.1579  -21.6309   25.0697 C   0  0  0  0  0  0  0  0  0  0  0  0
  -23.3967  -20.0040   23.3822 C   0  0  0  0  0  0  0  0  0  0  0  0
  -27.9992  -25.3497   21.6994 C   0  0  1  0  0  0  0  0  0  0  0  0
  -25.9085  -28.4649   21.1013 C   0  0  1  0  0  0  0  0  0  0  0  0
  -24.3869  -20.5602   22.3447 C   0  0  2  0  0  0  0  0  0  0  0  0
  -19.3563  -22.7227   17.4280 C   0  0  0  0  0  0  0  0  0  0  0  0
  -24.6215  -35.4655   24.1572 C   0  0  0  0  0  0  0  0  0  0  0  0
  -26.7773  -29.3598   25.5515 C   0  0  0  0  0  0  0  0  0  0  0  0
  -26.0496  -31.6147   26.3603 C   0  0  0  0  0  0  0  0  0  0  0  0
  -28.0538  -31.4061   24.8899 C   0  0  0  0  0  0  0  0  0  0  0  0
  -23.1823  -34.1056   20.9083 C   0  0  0  0  0  0  0  0  0  0  0  0
  -18.2383  -23.0872   19.6737 C   0  0  0  0  0  0  0  0  0  0  0  0
  -18.3035  -26.0141   23.5311 C   0  0  0  0  0  0  0  0  0  0  0  0
  -19.3236  -21.3063   24.0264 C   0  0  0  0  0  0  0  0  0  0  0  0
  -19.5683  -22.9624   18.9145 C   0  0  0  0  0  0  0  0  0  0  0  0
  -19.5014  -26.9191   23.2643 C   0  0  0  0  0  0  0  0  0  1  0  0
  -25.7515  -31.0620   23.9034 C   0  0  1  0  0  0  0  0  0  0  0  0
  -24.5388  -34.5281   22.9626 C   0  0  2  0  0  0  0  0  0  0  0  0
  -26.6408  -30.8448   25.1601 C   0  0  0  0  0  0  0  0  0  0  0  0
  -24.8751  -18.2252   21.7186 N   0  0  0  0  0  0  0  0  0  0  0  0
  -18.2740  -24.5362   21.6033 N   0  0  0  0  0  0  0  0  0  0  0  0
  -18.7802  -22.2040   21.8532 N   0  0  0  0  0  0  0  0  0  0  0  0
  -18.8134  -23.6507   23.7671 N   0  0  0  0  0  0  0  0  0  0  0  0
  -24.8003  -19.5097   21.3306 N   0  0  0  0  0  0  0  0  0  0  0  0
  -25.3982  -29.3625   22.1396 N   0  0  0  0  0  0  0  0  0  0  0  0
  -23.0245  -21.0559   24.3413 N   0  0  0  0  0  0  0  0  0  0  0  0
  -25.0953  -20.9396   19.4654 N   0  0  0  0  0  0  0  0  0  0  0  0
  -26.0962  -16.8562   17.8163 N   0  0  0  0  0  0  0  0  0  0  0  0
  -27.4223  -26.5790   21.1989 N   0  0  0  0  0  0  0  0  0  0  0  0
  -25.6265  -32.4565   23.4936 N   0  0  0  0  0  0  0  0  0  0  0  0
  -20.7105  -20.9284   23.8693 N   0  0  0  0  0  0  0  0  0  0  0  0
  -23.3696  -34.9295   22.1302 N   0  3  0  0  0  0  0  0  0  0  0  0
  -25.9415  -19.0855   17.3015 O   0  0  0  0  0  0  0  0  0  0  0  0
  -25.7296  -26.8148   22.7806 O   0  0  0  0  0  0  0  0  0  0  0  0
  -27.3921  -30.5646   22.2640 O   0  0  0  0  0  0  0  0  0  0  0  0
  -23.3151  -32.5607   23.6476 O   0  0  0  0  0  0  0  0  0  0  0  0
  -21.4914  -22.4063   25.4387 O   0  0  0  0  0  0  0  0  0  0  0  0
  -26.0114  -12.0535   20.6380 O   0  0  0  0  0  0  0  0  0  0  0  0
  -19.6671  -27.0979   21.8583 O   0  0  0  0  0  0  0  0  0  1  0  0
  -30.5302  -10.0660   18.1816 F   0  0  0  0  0  0  0  0  0  0  0  0
  -27.8726  -10.5885   22.0636 F   0  0  0  0  0  0  0  0  0  0  0  0
  1  2  1  0  0  0  0
  1  5  2  0  0  0  0
  2  6  2  0  0  0  0
  3  8  2  0  0  0  0
  3 15  1  0  0  0  0
  4  9  1  0  0  0  0
  4 15  2  0  0  0  0
  5 17  1  0  0  0  0
  6 19  1  0  0  0  0
  7 10  2  0  0  0  0
  7 18  1  0  0  0  0
  8 21  1  0  0  0  0
  9 21  2  0  0  0  0
 10 22  1  0  0  0  0
 11 12  2  0  0  0  0
 11 23  1  0  0  0  0
 12 24  1  0  0  0  0
 13 20  1  0  0  0  0
 13 22  2  0  0  0  0
 14 24  2  0  0  0  0
 14 25  1  0  0  0  0
 15 26  1  0  0  0  0
 16 26  1  0  0  0  0
 16 27  2  0  0  0  0
 16 31  1  0  0  0  0
 17 19  2  0  0  0  0
 17 36  1  0  0  0  0
 18 20  2  0  0  0  0
 18 37  1  0  0  0  0
 19 45  1  0  0  0  0
 20 38  1  0  0  0  0
 21 80  1  0  0  0  0
 22 81  1  0  0  0  0
 23 25  2  0  0  0  0
 23 80  1  0  0  0  0
 24 82  1  0  0  0  0
 25 83  1  0  0  0  0
 26 62  2  0  0  0  0
 27 66  1  0  0  0  0
 27 69  1  0  0  0  0
 28 54  1  0  0  0  0
 28 63  2  0  0  0  0
 28 64  1  0  0  0  0
 29 55  1  0  0  0  0
 29 63  1  0  0  0  0
 29 65  2  0  0  0  0
 30 56  1  0  0  0  0
 30 64  2  0  0  0  0
 30 65  1  0  0  0  0
 31 70  1  0  0  0  0
 31 75  2  0  0  0  0
 32 46  1  0  0  0  0
 32 71  1  0  0  0  0
 32 76  2  0  0  0  0
 33 59  1  0  0  0  0
 33 67  1  0  0  0  0
 33 77  2  0  0  0  0
 34 60  1  0  0  0  0
 34 72  1  0  0  0  0
 34 78  2  0  0  0  0
 35 68  1  0  0  0  0
 35 73  1  0  0  0  0
 35 79  2  0  0  0  0
 36 39  1  0  0  0  0
 37 46  1  0  0  0  0
 38 67  1  0  0  0  0
 39 41  1  0  0  0  0
 40 42  1  0  0  0  0
 40 43  1  0  0  0  0
 41 45  1  0  0  0  0
 42 47  1  0  0  0  0
 43 68  1  0  0  0  0
 44 47  1  0  0  0  0
 44 68  1  0  0  0  0
 45 71  1  0  0  0  0
 46 67  1  0  0  0  0
 47 66  1  0  0  0  0
 48 57  1  0  0  0  0
 49 60  1  0  0  0  0
 50 61  1  0  0  0  0
 51 61  1  0  0  0  0
 52 61  1  0  0  0  0
 53 74  1  0  0  0  0
 54 57  1  0  0  0  0
 55 58  1  0  0  0  0
 56 73  1  0  0  0  0
 58 81  1  0  0  0  0
 59 61  1  0  0  0  0
 59 72  1  0  0  0  0
 60 74  1  0  0  0  0
 62 66  1  0  0  0  0
M  CHG  1  74   1
M  ISO  4  35 100  58 101  73 100  81 101
M  END
> <Batch ID>
0045

> <Smiles>
CCCc1nc(C[100NH:0][100C:0](=O)N2CCCC(n3nc(-c4ccc(Oc5ccc(F)cc5F)cc4)c(C(N)=O)c3N)C2)nc(C[101CH2:1][101O:1]c2ccc3c(c2)CN(C(=O)C(NC(=O)C(C)NC)C(C)(C)C)C(C(=O)NC2CCCc4ccccc42)C3)n1

> <Shape>
0.213

> <Color>
0.044

> <Negative vol penalty>
0.000

$$$$

  -OEChem-04052317193D

 88 96  0     1  0  0  0  0  0999 V2000
  -30.7230  -21.1376   16.5928 C   0  0  0  0  0  0  0  0  0  0  0  0
  -30.4180  -21.3646   17.9310 C   0  0  0  0  0  0  0  0  0  0  0  0
  -28.7441  -14.4106   19.0144 C   0  0  0  0  0  0  0  0  0  0  0  0
  -28.5498  -13.1732   21.0804 C   0  0  0  0  0  0  0  0  0  0  0  0
  -30.7744  -22.2070   15.6996 C   0  0  0  0  0  0  0  0  0  0  0  0
  -30.1652  -22.6613   18.3771 C   0  0  0  0  0  0  0  0  0  0  0  0
  -26.1206  -22.9173   21.4136 C   0  0  0  0  0  0  0  0  0  0  0  0
  -29.0150  -13.2257   18.3301 C   0  0  0  0  0  0  0  0  0  0  0  0
  -28.8206  -11.9882   20.3961 C   0  0  0  0  0  0  0  0  0  0  0  0
  -26.2887  -22.5035   22.7343 C   0  0  0  0  0  0  0  0  0  0  0  0
  -31.6538  -11.1651   17.8663 C   0  0  0  0  0  0  0  0  0  0  0  0
  -32.7045  -11.1730   16.9490 C   0  0  0  0  0  0  0  0  0  0  0  0
  -26.4908  -24.8063   23.4238 C   0  0  0  0  0  0  0  0  0  0  0  0
  -31.1667  -10.5802   15.1824 C   0  0  0  0  0  0  0  0  0  0  0  0
  -28.5116  -14.3843   20.3895 C   0  0  0  0  0  0  0  0  0  0  0  0
  -26.9704  -16.1885   21.3263 C   0  0  0  0  0  0  0  0  0  0  0  0
  -30.5127  -23.5163   16.1330 C   0  0  0  0  0  0  0  0  0  0  0  0
  -26.1472  -24.2806   21.0860 C   0  0  0  0  0  0  0  0  0  0  0  0
  -30.2144  -23.7494   17.4891 C   0  0  0  0  0  0  0  0  0  0  0  0
  -26.3202  -25.2350   22.0985 C   0  0  0  0  0  0  0  0  0  0  0  0
  -29.0532  -12.0145   19.0209 C   0  0  0  0  0  0  0  0  0  0  0  0
  -26.4768  -23.4479   23.7392 C   0  0  0  0  0  0  0  0  0  0  0  0
  -30.3595  -10.8647   17.4417 C   0  0  0  0  0  0  0  0  0  0  0  0
  -32.4610  -10.8806   15.6071 C   0  0  0  0  0  0  0  0  0  0  0  0
  -30.1159  -10.5723   16.0998 C   0  0  0  0  0  0  0  0  0  0  0  0
  -28.2323  -15.6081   21.0970 C   0  0  0  0  0  0  0  0  0  0  0  0
  -26.7662  -22.2481   28.8796 C   0  0  0  0  0  0  0  0  0  0  0  0
  -27.0908  -20.1589   27.2495 C   0  0  0  0  0  0  0  0  0  0  0  0
  -27.0758  -21.0008   29.3756 C   0  0  0  0  0  0  0  0  0  0  0  0
  -26.7804  -21.4059   26.7534 C   0  0  0  0  0  0  0  0  0  0  0  0
  -27.2423  -17.3316   22.0375 C   0  0  0  0  0  0  0  0  0  0  0  0
  -25.6688  -15.7349   20.9316 C   0  0  0  0  0  0  0  0  0  0  0  0
  -27.9950  -26.1132   19.2609 C   0  0  0  0  0  0  0  0  0  0  0  0
  -25.7968  -28.3839   19.9917 C   0  0  0  0  0  0  0  0  0  0  0  0
  -23.3919  -29.5036   22.1387 C   0  0  0  0  0  0  0  0  0  0  0  0
  -31.7854  -18.9390   25.5911 C   0  0  0  0  0  0  0  0  0  0  0  0
  -30.6265  -24.6460   15.1402 C   0  0  0  0  0  0  0  0  0  0  0  0
  -25.9376  -24.7119   19.6604 C   0  0  0  0  0  0  0  0  0  0  0  0
  -26.3364  -26.7116   21.8021 C   0  0  0  0  0  0  0  0  0  0  0  0
  -29.9779  -25.9431   15.6166 C   0  0  0  0  0  0  0  0  0  0  0  0
  -30.6531  -20.6271   22.6679 C   0  0  0  0  0  0  0  0  0  0  0  0
  -30.3830  -26.2453   17.0559 C   0  0  0  0  0  0  0  0  0  0  0  0
  -29.7904  -19.5846   21.9545 C   0  0  0  0  0  0  0  0  0  0  0  0
  -31.8619  -19.9890   23.3487 C   0  0  0  0  0  0  0  0  0  0  0  0
  -30.6793  -17.8364   23.5522 C   0  0  0  0  0  0  0  0  0  0  0  0
  -29.9098  -25.1386   18.0061 C   0  0  1  0  0  0  0  0  0  0  0  0
  -26.4963  -26.1011   19.3681 C   0  0  1  0  0  0  0  0  0  0  0  0
  -29.4177  -18.4249   22.8976 C   0  0  2  0  0  0  0  0  0  0  0  0
  -26.5838  -23.4202   29.7820 C   0  0  0  0  0  0  0  0  0  0  0  0
  -27.2736  -18.9866   26.3474 C   0  0  0  0  0  0  0  0  0  0  0  0
  -21.7974  -31.4092   22.4901 C   0  0  0  0  0  0  0  0  0  0  0  0
  -28.1081  -30.1420   20.9281 C   0  0  0  0  0  0  0  0  0  0  0  0
  -26.4396  -31.5831   22.1146 C   0  0  0  0  0  0  0  0  0  0  0  0
  -26.3395  -31.3462   19.6334 C   0  0  0  0  0  0  0  0  0  0  0  0
  -21.0393  -27.7136   21.9963 C   0  0  0  0  0  0  0  0  0  0  0  0
  -29.6791  -18.5923   32.3080 C   0  0  0  0  0  0  0  0  0  0  0  0
  -27.2424  -20.7654   30.8380 C   0  0  0  0  0  0  0  0  0  0  0  0
  -26.6114  -21.6425   25.2814 C   0  0  0  0  0  0  0  0  0  1  0  0
  -28.6099  -21.1983   31.4026 C   0  0  0  0  0  0  0  0  0  0  0  0
  -30.5244  -18.4279   28.6195 C   0  0  0  0  0  0  0  0  0  0  0  0
  -31.6112  -17.7721   27.7745 C   0  0  0  0  0  0  0  0  0  0  0  0
  -29.8194  -20.5326   30.7536 C   0  0  0  0  0  0  0  0  0  0  0  0
  -30.8252  -18.3472   30.1107 C   0  0  0  0  0  0  0  0  0  0  0  0
  -25.6394  -29.4043   21.0931 C   0  0  1  0  0  0  0  0  0  0  0  0
  -21.9863  -30.0226   21.8948 C   0  0  2  0  0  0  0  0  0  0  0  0
  -26.6333  -30.5911   20.9479 C   0  0  0  0  0  0  0  0  0  0  0  0
  -29.2316  -16.3235   21.6201 N   0  0  0  0  0  0  0  0  0  0  0  0
  -27.2440  -19.9339   28.5695 N   0  0  0  0  0  0  0  0  0  0  0  0
  -26.6126  -22.4729   27.5596 N   0  0  0  0  0  0  0  0  0  0  0  0
  -28.5978  -17.3653   22.1850 N   0  0  0  0  0  0  0  0  0  0  0  0
  -26.1335  -27.0831   20.3920 N   0  0  0  0  0  0  0  0  0  0  0  0
  -31.4398  -18.8978   24.2303 N   0  0  0  0  0  0  0  0  0  0  0  0
  -26.4519  -18.3013   22.5448 N   0  0  0  0  0  0  0  0  0  0  0  0
  -25.5693  -14.5401   20.2058 N   0  0  0  0  0  0  0  0  0  0  0  0
  -28.4957  -25.2783   18.2802 N   0  0  0  0  0  0  0  0  0  0  0  0
  -24.2344  -29.7975   21.0876 N   0  0  0  0  0  0  0  0  0  0  0  0
  -31.3404  -17.8687   26.3574 N   0  0  0  0  0  0  0  0  0  0  0  0
  -20.9825  -29.1073   22.5076 N   0  3  0  0  0  0  0  0  0  0  0  0
  -29.7329  -19.0584   30.8729 N   0  3  1  0  0  0  0  0  0  0  0  0
  -24.6263  -16.3787   21.2001 O   0  0  0  0  0  0  0  0  0  0  0  0
  -28.6487  -26.8283   20.0114 O   0  0  0  0  0  0  0  0  0  0  0  0
  -25.6202  -28.7267   18.8200 O   0  0  0  0  0  0  0  0  0  0  0  0
  -23.7114  -28.9012   23.1613 O   0  0  0  0  0  0  0  0  0  0  0  0
  -32.4372  -19.8640   26.0876 O   0  0  0  0  0  0  0  0  0  0  0  0
  -29.3172  -10.8580   18.3535 O   0  0  0  0  0  0  0  0  0  0  0  0
  -26.6418  -23.0467   25.0291 O   0  0  0  0  0  0  0  0  0  1  0  0
  -33.4698  -10.8897   14.7260 F   0  0  0  0  0  0  0  0  0  0  0  0
  -28.8744  -10.2841   15.6857 F   0  0  0  0  0  0  0  0  0  0  0  0
  1  2  1  0  0  0  0
  1  5  2  0  0  0  0
  2  6  2  0  0  0  0
  3  8  2  0  0  0  0
  3 15  1  0  0  0  0
  4  9  1  0  0  0  0
  4 15  2  0  0  0  0
  5 17  1  0  0  0  0
  6 19  1  0  0  0  0
  7 10  2  0  0  0  0
  7 18  1  0  0  0  0
  8 21  1  0  0  0  0
  9 21  2  0  0  0  0
 10 22  1  0  0  0  0
 11 12  2  0  0  0  0
 11 23  1  0  0  0  0
 12 24  1  0  0  0  0
 13 20  1  0  0  0  0
 13 22  2  0  0  0  0
 14 24  2  0  0  0  0
 14 25  1  0  0  0  0
 15 26  1  0  0  0  0
 16 26  1  0  0  0  0
 16 31  2  0  0  0  0
 16 32  1  0  0  0  0
 17 19  2  0  0  0  0
 17 37  1  0  0  0  0
 18 20  2  0  0  0  0
 18 38  1  0  0  0  0
 19 46  1  0  0  0  0
 20 39  1  0  0  0  0
 21 85  1  0  0  0  0
 22 86  1  0  0  0  0
 23 25  2  0  0  0  0
 23 85  1  0  0  0  0
 24 87  1  0  0  0  0
 25 88  1  0  0  0  0
 26 67  2  0  0  0  0
 27 29  1  0  0  0  0
 27 49  1  0  0  0  0
 27 69  2  0  0  0  0
 28 30  2  0  0  0  0
 28 50  1  0  0  0  0
 28 68  1  0  0  0  0
 29 57  1  0  0  0  0
 29 68  2  0  0  0  0
 30 58  1  0  0  0  0
 30 69  1  0  0  0  0
 31 70  1  0  0  0  0
 31 73  1  0  0  0  0
 32 74  1  0  0  0  0
 32 80  2  0  0  0  0
 33 47  1  0  0  0  0
 33 75  1  0  0  0  0
 33 81  2  0  0  0  0
 34 64  1  0  0  0  0
 34 71  1  0  0  0  0
 34 82  2  0  0  0  0
 35 65  1  0  0  0  0
 35 76  1  0  0  0  0
 35 83  2  0  0  0  0
 36 72  1  0  0  0  0
 36 77  1  0  0  0  0
 36 84  2  0  0  0  0
 37 40  1  0  0  0  0
 38 47  1  0  0  0  0
 39 71  1  0  0  0  0
 40 42  1  0  0  0  0
 41 43  1  0  0  0  0
 41 44  1  0  0  0  0
 42 46  1  0  0  0  0
 43 48  1  0  0  0  0
 44 72  1  0  0  0  0
 45 48  1  0  0  0  0
 45 72  1  0  0  0  0
 46 75  1  0  0  0  0
 47 71  1  0  0  0  0
 48 70  1  0  0  0  0
 51 65  1  0  0  0  0
 52 66  1  0  0  0  0
 53 66  1  0  0  0  0
 54 66  1  0  0  0  0
 55 78  1  0  0  0  0
 56 79  1  0  0  0  0
 57 59  1  0  0  0  0
 58 86  1  0  0  0  0
 59 62  1  0  0  0  0
 60 61  1  0  0  0  0
 60 63  1  0  0  0  0
 61 77  1  0  0  0  0
 62 79  1  0  0  0  0
 63 79  1  0  0  0  0
 64 66  1  0  0  0  0
 64 76  1  0  0  0  0
 65 78  1  0  0  0  0
 67 70  1  0  0  0  0
M  CHG  2  78   1  79   1
M  ISO  4  36 100  58 101  77 100  86 101
M  END
> <Batch ID>
0045

> <Smiles>
CNC(C)C(=O)NC(C(=O)N1Cc2cc([101O:1][101CH2:1]c3nc(C)c(CCCN(C)CCC[100NH:0][100C:0](=O)N4CCCC(n5nc(-c6ccc(Oc7ccc(F)cc7F)cc6)c(C(N)=O)c5N)C4)nc3C)ccc2CC1C(=O)NC1CCCc2ccccc21)C(C)(C)C

> <Shape>
0.187

> <Color>
0.075

> <Negative vol penalty>
0.000

$$$$

  -OEChem-04052317193D

 82 90  0     1  0  0  0  0  0999 V2000
  -29.1086  -21.0699   28.0520 C   0  0  0  0  0  0  0  0  0  0  0  0
  -29.1958  -22.0733   27.0937 C   0  0  0  0  0  0  0  0  0  0  0  0
  -26.0404  -13.0693   21.8658 C   0  0  0  0  0  0  0  0  0  0  0  0
  -25.7918  -13.9358   19.6243 C   0  0  0  0  0  0  0  0  0  0  0  0
  -27.9582  -20.9516   28.8291 C   0  0  0  0  0  0  0  0  0  0  0  0
  -28.1376  -22.9661   26.9202 C   0  0  0  0  0  0  0  0  0  0  0  0
  -28.8773  -26.7396   23.8515 C   0  0  0  0  0  0  0  0  0  0  0  0
  -24.8958  -12.2913   21.6920 C   0  0  0  0  0  0  0  0  0  0  0  0
  -24.6472  -13.1579   19.4505 C   0  0  0  0  0  0  0  0  0  0  0  0
  -28.9457  -26.5835   22.4678 C   0  0  0  0  0  0  0  0  0  0  0  0
  -24.0660   -9.3844   20.1773 C   0  0  0  0  0  0  0  0  0  0  0  0
  -24.1156   -8.0554   20.5977 C   0  0  0  0  0  0  0  0  0  0  0  0
  -26.7089  -27.4637   22.2640 C   0  0  0  0  0  0  0  0  0  0  0  0
  -22.2946   -8.4721   22.1299 C   0  0  0  0  0  0  0  0  0  0  0  0
  -27.1436  -23.3971   19.4125 C   0  0  0  0  0  0  0  0  0  0  0  0
  -26.4884  -13.8916   20.8319 C   0  0  0  0  0  0  0  0  0  0  0  0
  -28.9990  -14.3307   20.7223 C   0  0  0  0  0  0  0  0  0  0  0  0
  -26.8808  -21.8360   28.6558 C   0  0  0  0  0  0  0  0  0  0  0  0
  -27.7181  -27.2495   24.4539 C   0  0  0  0  0  0  0  0  0  0  0  0
  -26.9778  -22.8779   27.7111 C   0  0  0  0  0  0  0  0  0  0  0  0
  -26.6293  -27.6276   23.6554 C   0  0  0  0  0  0  0  0  0  0  0  0
  -27.6284  -24.4163   18.6297 C   0  0  0  0  0  0  0  0  0  0  0  0
  -24.1992  -12.3356   20.4844 C   0  0  0  0  0  0  0  0  0  0  0  0
  -27.8603  -26.9429   21.6741 C   0  0  0  0  0  0  0  0  0  0  0  0
  -23.1308  -10.2574   20.7333 C   0  0  0  0  0  0  0  0  0  0  0  0
  -23.2299   -7.5992   21.5740 C   0  0  0  0  0  0  0  0  0  0  0  0
  -22.2451   -9.8012   21.7096 C   0  0  0  0  0  0  0  0  0  0  0  0
  -27.6704  -14.6959   21.0110 C   0  0  0  0  0  0  0  0  0  0  0  0
  -28.8579  -23.9326   18.1439 C   0  0  0  0  0  0  0  0  0  0  0  0
  -29.7409  -15.4343   21.0658 C   0  0  0  0  0  0  0  0  0  0  0  0
  -29.5162  -13.1035   20.1910 C   0  0  0  0  0  0  0  0  0  0  0  0
  -25.5969  -26.1315   26.5406 C   0  0  0  0  0  0  0  0  0  0  0  0
  -28.3133  -21.2564   21.4867 C   0  0  0  0  0  0  0  0  0  0  0  0
  -24.4367  -29.1570   26.3907 C   0  0  0  0  0  0  0  0  0  0  0  0
  -24.1438  -32.0635   24.6264 C   0  0  0  0  0  0  0  0  0  0  0  0
  -25.6627  -21.6672   29.5293 C   0  0  0  0  0  0  0  0  0  0  0  0
  -27.6702  -27.4367   25.9455 C   0  0  0  0  0  0  0  0  0  0  0  0
  -25.3695  -28.1988   24.2513 C   0  0  0  0  0  0  0  0  0  0  0  0
  -24.4298  -22.3717   28.9727 C   0  0  0  0  0  0  0  0  0  0  0  0
  -29.7438  -19.1788   24.0317 C   0  0  0  0  0  0  0  0  0  0  0  0
  -24.7748  -23.8056   28.5992 C   0  0  0  0  0  0  0  0  0  0  0  0
  -29.4698  -17.7605   23.5333 C   0  0  0  0  0  0  0  0  0  0  0  0
  -28.6066  -20.1282   23.6673 C   0  0  0  0  0  0  0  0  0  0  0  0
  -28.0095  -18.7405   21.7079 C   0  0  0  0  0  0  0  0  0  0  0  0
  -25.8270  -23.8414   27.4837 C   0  0  1  0  0  0  0  0  0  0  0  0
  -26.2483  -27.4848   26.4963 C   0  0  1  0  0  0  0  0  0  0  0  0
  -29.1481  -17.7559   22.0284 C   0  0  2  0  0  0  0  0  0  0  0  0
  -23.1042  -34.3444   24.7461 C   0  0  0  0  0  0  0  0  0  0  0  0
  -31.7534  -24.6160   18.9035 C   0  0  0  0  0  0  0  0  0  0  0  0
  -31.7861  -26.1907   16.9584 C   0  0  0  0  0  0  0  0  0  0  0  0
  -21.7117  -27.9462   25.7437 C   0  0  0  0  0  0  0  0  0  0  0  0
  -20.9736  -30.2045   24.9539 C   0  0  0  0  0  0  0  0  0  0  0  0
  -21.6451  -29.8755   27.3337 C   0  0  0  0  0  0  0  0  0  0  0  0
  -26.7811  -33.3998   24.4926 C   0  0  0  0  0  0  0  0  0  0  0  0
  -26.9782  -25.7514   18.3595 C   0  0  0  0  0  0  0  0  0  0  0  0
  -29.8086  -24.6178   17.2507 C   0  0  0  0  0  0  0  0  0  0  0  0
  -28.0099  -21.1243   20.0155 C   0  0  0  0  0  0  0  0  0  0  0  0
  -26.6987  -26.5300   19.6403 C   0  0  0  0  0  0  0  0  0  1  0  0
  -23.4198  -29.8708   25.5331 C   0  0  1  0  0  0  0  0  0  0  0  0
  -24.3449  -33.5126   25.0317 C   0  0  2  0  0  0  0  0  0  0  0  0
  -30.8917  -25.4716   17.9714 C   0  0  0  0  0  0  0  0  0  0  0  0
  -21.9604  -29.4617   25.8797 C   0  0  0  0  0  0  0  0  0  0  0  0
  -27.5710  -15.9347   21.5005 N   0  0  0  0  0  0  0  0  0  0  0  0
  -29.1371  -22.7019   18.5816 N   0  0  0  0  0  0  0  0  0  0  0  0
  -28.0762  -22.4037   19.3507 N   0  0  0  0  0  0  0  0  0  0  0  0
  -28.8465  -16.3575   21.5220 N   0  0  0  0  0  0  0  0  0  0  0  0
  -25.3687  -28.3567   25.7150 N   0  0  0  0  0  0  0  0  0  0  0  0
  -28.3166  -20.0780   22.2332 N   0  0  0  0  0  0  0  0  0  0  0  0
  -31.0645  -15.6955   21.0192 N   0  0  0  0  0  0  0  0  0  0  0  0
  -28.6152  -12.0721   19.8930 N   0  0  0  0  0  0  0  0  0  0  0  0
  -26.2788  -25.2036   27.3044 N   0  0  0  0  0  0  0  0  0  0  0  0
  -23.6915  -31.2967   25.6793 N   0  0  0  0  0  0  0  0  0  0  0  0
  -25.4903  -34.1052   24.2849 N   0  3  0  0  0  0  0  0  0  0  0  0
  -30.7427  -12.9209   20.0020 O   0  0  0  0  0  0  0  0  0  0  0  0
  -24.5522  -25.9435   25.9283 O   0  0  0  0  0  0  0  0  0  0  0  0
  -28.5432  -22.3741   21.9560 O   0  0  0  0  0  0  0  0  0  0  0  0
  -24.4095  -29.3097   27.6145 O   0  0  0  0  0  0  0  0  0  0  0  0
  -24.3623  -31.6537   23.4885 O   0  0  0  0  0  0  0  0  0  0  0  0
  -23.0824  -11.5764   20.3143 O   0  0  0  0  0  0  0  0  0  0  0  0
  -27.9242  -26.7910   20.3232 O   0  0  0  0  0  0  0  0  0  1  0  0
  -23.2765   -6.3225   21.9764 F   0  0  0  0  0  0  0  0  0  0  0  0
  -21.3437  -10.6349   22.2465 F   0  0  0  0  0  0  0  0  0  0  0  0
  1  2  1  0  0  0  0
  1  5  2  0  0  0  0
  2  6  2  0  0  0  0
  3  8  2  0  0  0  0
  3 16  1  0  0  0  0
  4  9  1  0  0  0  0
  4 16  2  0  0  0  0
  5 18  1  0  0  0  0
  6 20  1  0  0  0  0
  7 10  2  0  0  0  0
  7 19  1  0  0  0  0
  8 23  1  0  0  0  0
  9 23  2  0  0  0  0
 10 24  1  0  0  0  0
 11 12  2  0  0  0  0
 11 25  1  0  0  0  0
 12 26  1  0  0  0  0
 13 21  1  0  0  0  0
 13 24  2  0  0  0  0
 14 26  2  0  0  0  0
 14 27  1  0  0  0  0
 15 22  2  0  0  0  0
 15 65  1  0  0  0  0
 16 28  1  0  0  0  0
 17 28  1  0  0  0  0
 17 30  2  0  0  0  0
 17 31  1  0  0  0  0
 18 20  2  0  0  0  0
 18 36  1  0  0  0  0
 19 21  2  0  0  0  0
 19 37  1  0  0  0  0
 20 45  1  0  0  0  0
 21 38  1  0  0  0  0
 22 29  1  0  0  0  0
 22 55  1  0  0  0  0
 23 79  1  0  0  0  0
 24 80  1  0  0  0  0
 25 27  2  0  0  0  0
 25 79  1  0  0  0  0
 26 81  1  0  0  0  0
 27 82  1  0  0  0  0
 28 63  2  0  0  0  0
 29 56  1  0  0  0  0
 29 64  2  0  0  0  0
 30 66  1  0  0  0  0
 30 69  1  0  0  0  0
 31 70  1  0  0  0  0
 31 74  2  0  0  0  0
 32 46  1  0  0  0  0
 32 71  1  0  0  0  0
 32 75  2  0  0  0  0
 33 57  1  0  0  0  0
 33 68  1  0  0  0  0
 33 76  2  0  0  0  0
 34 59  1  0  0  0  0
 34 67  1  0  0  0  0
 34 77  2  0  0  0  0
 35 60  1  0  0  0  0
 35 72  1  0  0  0  0
 35 78  2  0  0  0  0
 36 39  1  0  0  0  0
 37 46  1  0  0  0  0
 38 67  1  0  0  0  0
 39 41  1  0  0  0  0
 40 42  1  0  0  0  0
 40 43  1  0  0  0  0
 41 45  1  0  0  0  0
 42 47  1  0  0  0  0
 43 68  1  0  0  0  0
 44 47  1  0  0  0  0
 44 68  1  0  0  0  0
 45 71  1  0  0  0  0
 46 67  1  0  0  0  0
 47 66  1  0  0  0  0
 48 60  1  0  0  0  0
 49 61  1  0  0  0  0
 50 61  1  0  0  0  0
 51 62  1  0  0  0  0
 52 62  1  0  0  0  0
 53 62  1  0  0  0  0
 54 73  1  0  0  0  0
 55 58  1  0  0  0  0
 56 61  1  0  0  0  0
 57 65  1  0  0  0  0
 58 80  1  0  0  0  0
 59 62  1  0  0  0  0
 59 72  1  0  0  0  0
 60 73  1  0  0  0  0
 63 66  1  0  0  0  0
 64 65  1  0  0  0  0
M  CHG  1  73   1
M  ISO  4  33 100  57 100  58 101  80 101
M  END
> <Batch ID>
0045

> <Smiles>
CNC(C)C(=O)NC(C(=O)N1Cc2cc([101O:1][101CH2:1]Cc3cn([100CH2:0][100C:0](=O)N4CCCC(n5nc(-c6ccc(Oc7ccc(F)cc7F)cc6)c(C(N)=O)c5N)C4)nc3CC(C)C)ccc2CC1C(=O)NC1CCCc2ccccc21)C(C)(C)C

> <Shape>
0.219

> <Color>
0.093

> <Negative vol penalty>
0.000

$$$$

  -OEChem-04052317193D

 90 98  0     1  0  0  0  0  0999 V2000
  -14.6331  -26.0815   30.8576 C   0  0  0  0  0  0  0  0  0  0  0  0
  -15.4912  -24.9899   30.7715 C   0  0  0  0  0  0  0  0  0  0  0  0
  -23.0763   -9.8665   19.9431 C   0  0  0  0  0  0  0  0  0  0  0  0
  -23.8373   -9.8779   22.2361 C   0  0  0  0  0  0  0  0  0  0  0  0
  -14.3751  -26.8549   29.7266 C   0  0  0  0  0  0  0  0  0  0  0  0
  -16.0910  -24.6703   29.5539 C   0  0  0  0  0  0  0  0  0  0  0  0
  -21.6929  -22.3447   28.7078 C   0  0  0  0  0  0  0  0  0  0  0  0
  -22.3339   -8.7129   20.1952 C   0  0  0  0  0  0  0  0  0  0  0  0
  -23.0949   -8.7243   22.4883 C   0  0  0  0  0  0  0  0  0  0  0  0
  -22.1450  -21.0448   28.4849 C   0  0  0  0  0  0  0  0  0  0  0  0
  -19.8679   -7.9236   23.0936 C   0  0  0  0  0  0  0  0  0  0  0  0
  -19.1116   -7.8846   24.2649 C   0  0  0  0  0  0  0  0  0  0  0  0
  -22.1578  -21.4631   26.1091 C   0  0  0  0  0  0  0  0  0  0  0  0
  -20.3556   -5.9498   25.0037 C   0  0  0  0  0  0  0  0  0  0  0  0
  -23.8281  -10.4490   20.9636 C   0  0  0  0  0  0  0  0  0  0  0  0
  -24.1668  -12.9744   20.8395 C   0  0  0  0  0  0  0  0  0  0  0  0
  -14.9796  -26.5505   28.4968 C   0  0  0  0  0  0  0  0  0  0  0  0
  -21.4590  -23.2115   27.6305 C   0  0  0  0  0  0  0  0  0  0  0  0
  -15.8398  -25.4396   28.4050 C   0  0  0  0  0  0  0  0  0  0  0  0
  -21.7052  -22.7743   26.3212 C   0  0  0  0  0  0  0  0  0  0  0  0
  -22.3432   -8.1418   21.4678 C   0  0  0  0  0  0  0  0  0  0  0  0
  -22.3748  -20.6029   27.1852 C   0  0  0  0  0  0  0  0  0  0  0  0
  -20.8681   -6.9757   22.8773 C   0  0  0  0  0  0  0  0  0  0  0  0
  -19.3554   -6.8977   25.2200 C   0  0  0  0  0  0  0  0  0  0  0  0
  -21.1120   -5.9888   23.8324 C   0  0  0  0  0  0  0  0  0  0  0  0
  -24.5956  -11.6404   20.7036 C   0  0  0  0  0  0  0  0  0  0  0  0
  -22.9909  -15.3257   25.1453 C   0  0  0  0  0  0  0  0  0  0  0  0
  -24.2724  -14.9686   25.5026 C   0  0  0  0  0  0  0  0  0  0  0  0
  -24.7640  -17.1608   25.9302 C   0  0  0  0  0  0  0  0  0  0  0  0
  -23.4826  -17.5179   25.5721 C   0  0  0  0  0  0  0  0  0  0  0  0
  -25.2579  -13.7246   20.4745 C   0  0  0  0  0  0  0  0  0  0  0  0
  -22.8959  -13.4894   21.2582 C   0  0  0  0  0  0  0  0  0  0  0  0
  -18.9099  -24.7211   26.4786 C   0  0  0  0  0  0  0  0  0  0  0  0
  -21.0933  -26.0838   24.5042 C   0  0  0  0  0  0  0  0  0  0  0  0
  -24.1422  -25.8913   22.9830 C   0  0  0  0  0  0  0  0  0  0  0  0
  -30.7405  -14.7504   20.6587 C   0  0  0  0  0  0  0  0  0  0  0  0
  -14.6333  -27.3873   27.2908 C   0  0  0  0  0  0  0  0  0  0  0  0
  -20.9969  -24.6193   27.8894 C   0  0  0  0  0  0  0  0  0  0  0  0
  -21.4890  -23.6723   25.1315 C   0  0  0  0  0  0  0  0  0  0  0  0
  -15.6018  -27.2056   26.1248 C   0  0  0  0  0  0  0  0  0  0  0  0
  -29.6046  -12.3609   18.2762 C   0  0  0  0  0  0  0  0  0  0  0  0
  -15.8735  -25.7243   25.8824 C   0  0  0  0  0  0  0  0  0  0  0  0
  -28.1678  -12.0661   18.7102 C   0  0  0  0  0  0  0  0  0  0  0  0
  -30.5221  -12.5847   19.4763 C   0  0  0  0  0  0  0  0  0  0  0  0
  -28.6201  -13.3156   20.8626 C   0  0  0  0  0  0  0  0  0  0  0  0
  -16.5289  -25.0759   27.1077 C   0  0  1  0  0  0  0  0  0  0  0  0
  -20.3007  -25.2501   26.6874 C   0  0  1  0  0  0  0  0  0  0  0  0
  -27.6456  -13.1381   19.6857 C   0  0  2  0  0  0  0  0  0  0  0  0
  -21.9942  -14.3086   24.7055 C   0  0  0  0  0  0  0  0  0  0  0  0
  -26.0491  -13.3391   26.1914 C   0  0  0  0  0  0  0  0  0  0  0  0
  -25.8071  -19.0176   21.7336 C   0  0  0  0  0  0  0  0  0  0  0  0
  -25.6346  -27.1383   21.3971 C   0  0  0  0  0  0  0  0  0  0  0  0
  -19.3514  -25.1884   22.1646 C   0  0  0  0  0  0  0  0  0  0  0  0
  -21.3010  -25.5958   20.6476 C   0  0  0  0  0  0  0  0  0  0  0  0
  -20.3068  -27.4880   21.9337 C   0  0  0  0  0  0  0  0  0  0  0  0
  -26.2731  -26.1626   25.0188 C   0  0  0  0  0  0  0  0  0  0  0  0
  -24.7221  -13.5481   25.4656 C   0  0  0  0  0  0  0  0  0  0  0  0
  -25.7603  -18.1782   26.3702 C   0  0  0  0  0  0  0  0  0  0  0  0
  -23.0302  -18.9480   25.6080 C   0  0  0  0  0  0  0  0  0  1  0  0
  -26.4270  -18.9582   25.2199 C   0  0  0  0  0  0  0  0  0  0  0  0
  -29.9456  -17.7587   22.8171 C   0  0  0  0  0  0  0  0  0  0  0  0
  -30.8044  -16.9030   21.8922 C   0  0  0  0  0  0  0  0  0  0  0  0
  -26.8316  -19.8582   22.4639 C   0  0  0  0  0  0  0  0  0  0  0  0
  -27.1630  -18.0999   24.1957 C   0  0  0  0  0  0  0  0  0  0  0  0
  -28.6195  -18.1487   22.1766 C   0  0  0  0  0  0  0  0  0  0  0  0
  -21.6716  -25.7430   23.1520 C   0  0  1  0  0  0  0  0  0  0  0  0
  -25.2690  -26.9002   22.8540 C   0  0  2  0  0  0  0  0  0  0  0  0
  -20.6600  -25.9860   21.9966 C   0  0  0  0  0  0  0  0  0  0  0  0
  -25.8604  -11.5454   20.2849 N   0  0  0  0  0  0  0  0  0  0  0  0
  -22.5730  -16.6068   25.1736 N   0  0  0  0  0  0  0  0  0  0  0  0
  -25.1819  -15.8797   25.9015 N   0  0  0  0  0  0  0  0  0  0  0  0
  -26.2357  -12.8293   20.1544 N   0  0  0  0  0  0  0  0  0  0  0  0
  -21.0306  -25.0379   25.4359 N   0  0  0  0  0  0  0  0  0  0  0  0
  -29.9707  -13.6139   20.3609 N   0  0  0  0  0  0  0  0  0  0  0  0
  -25.4667  -15.0562   20.3993 N   0  0  0  0  0  0  0  0  0  0  0  0
  -21.8853  -12.5795   21.5974 N   0  0  0  0  0  0  0  0  0  0  0  0
  -17.9344  -25.4156   27.1682 N   0  0  0  0  0  0  0  0  0  0  0  0
  -22.9091  -26.5064   23.0332 N   0  0  0  0  0  0  0  0  0  0  0  0
  -30.1407  -15.6799   21.4996 N   0  0  0  0  0  0  0  0  0  0  0  0
  -26.4828  -26.4155   23.5700 N   0  3  0  0  0  0  0  0  0  0  0  0
  -27.8098  -18.9491   23.1684 N   0  3  1  0  0  0  0  0  0  0  0  0
  -22.6582  -14.7198   21.3137 O   0  0  0  0  0  0  0  0  0  0  0  0
  -18.7347  -23.7553   25.7450 O   0  0  0  0  0  0  0  0  0  0  0  0
  -20.7179  -27.2373   24.7281 O   0  0  0  0  0  0  0  0  0  0  0  0
  -24.3361  -24.6786   23.0305 O   0  0  0  0  0  0  0  0  0  0  0  0
  -31.8761  -14.9265   20.2043 O   0  0  0  0  0  0  0  0  0  0  0  0
  -21.6187   -7.0162   21.7142 O   0  0  0  0  0  0  0  0  0  0  0  0
  -22.8155  -19.3344   26.9648 O   0  0  0  0  0  0  0  0  0  1  0  0
  -18.6301   -6.8613   26.3455 F   0  0  0  0  0  0  0  0  0  0  0  0
  -22.0723   -5.0761   23.6307 F   0  0  0  0  0  0  0  0  0  0  0  0
  1  2  1  0  0  0  0
  1  5  2  0  0  0  0
  2  6  2  0  0  0  0
  3  8  2  0  0  0  0
  3 15  1  0  0  0  0
  4  9  1  0  0  0  0
  4 15  2  0  0  0  0
  5 17  1  0  0  0  0
  6 19  1  0  0  0  0
  7 10  2  0  0  0  0
  7 18  1  0  0  0  0
  8 21  1  0  0  0  0
  9 21  2  0  0  0  0
 10 22  1  0  0  0  0
 11 12  2  0  0  0  0
 11 23  1  0  0  0  0
 12 24  1  0  0  0  0
 13 20  1  0  0  0  0
 13 22  2  0  0  0  0
 14 24  2  0  0  0  0
 14 25  1  0  0  0  0
 15 26  1  0  0  0  0
 16 26  1  0  0  0  0
 16 31  2  0  0  0  0
 16 32  1  0  0  0  0
 17 19  2  0  0  0  0
 17 37  1  0  0  0  0
 18 20  2  0  0  0  0
 18 38  1  0  0  0  0
 19 46  1  0  0  0  0
 20 39  1  0  0  0  0
 21 87  1  0  0  0  0
 22 88  1  0  0  0  0
 23 25  2  0  0  0  0
 23 87  1  0  0  0  0
 24 89  1  0  0  0  0
 25 90  1  0  0  0  0
 26 69  2  0  0  0  0
 27 28  2  0  0  0  0
 27 49  1  0  0  0  0
 27 70  1  0  0  0  0
 28 57  1  0  0  0  0
 28 71  1  0  0  0  0
 29 30  1  0  0  0  0
 29 58  1  0  0  0  0
 29 71  2  0  0  0  0
 30 59  1  0  0  0  0
 30 70  2  0  0  0  0
 31 72  1  0  0  0  0
 31 75  1  0  0  0  0
 32 76  1  0  0  0  0
 32 82  2  0  0  0  0
 33 47  1  0  0  0  0
 33 77  1  0  0  0  0
 33 83  2  0  0  0  0
 34 66  1  0  0  0  0
 34 73  1  0  0  0  0
 34 84  2  0  0  0  0
 35 67  1  0  0  0  0
 35 78  1  0  0  0  0
 35 85  2  0  0  0  0
 36 74  1  0  0  0  0
 36 79  1  0  0  0  0
 36 86  2  0  0  0  0
 37 40  1  0  0  0  0
 38 47  1  0  0  0  0
 39 73  1  0  0  0  0
 40 42  1  0  0  0  0
 41 43  1  0  0  0  0
 41 44  1  0  0  0  0
 42 46  1  0  0  0  0
 43 48  1  0  0  0  0
 44 74  1  0  0  0  0
 45 48  1  0  0  0  0
 45 74  1  0  0  0  0
 46 77  1  0  0  0  0
 47 73  1  0  0  0  0
 48 72  1  0  0  0  0
 50 57  1  0  0  0  0
 51 63  1  0  0  0  0
 52 67  1  0  0  0  0
 53 68  1  0  0  0  0
 54 68  1  0  0  0  0
 55 68  1  0  0  0  0
 56 80  1  0  0  0  0
 58 60  1  0  0  0  0
 59 88  1  0  0  0  0
 60 64  1  0  0  0  0
 61 62  1  0  0  0  0
 61 65  1  0  0  0  0
 62 79  1  0  0  0  0
 63 81  1  0  0  0  0
 64 81  1  0  0  0  0
 65 81  1  0  0  0  0
 66 68  1  0  0  0  0
 66 78  1  0  0  0  0
 67 80  1  0  0  0  0
 69 72  1  0  0  0  0
M  CHG  2  80   1  81   1
M  ISO  4  36 100  59 101  79 100  88 101
M  END
> <Batch ID>
0045

> <Smiles>
CCc1nc(CCCN(CC)CCC[100NH:0][100C:0](=O)N2CCCC(n3nc(-c4ccc(Oc5ccc(F)cc5F)cc4)c(C(N)=O)c3N)C2)c([101CH2:1][101O:1]c2ccc3c(c2)CN(C(=O)C(NC(=O)C(C)NC)C(C)(C)C)C(C(=O)NC2CCCc4ccccc42)C3)nc1C

> <Shape>
0.194

> <Color>
0.180

> <Negative vol penalty>
0.000

$$$$

  -OEChem-04052317193D

 87 95  0     1  0  0  0  0  0999 V2000
  -25.6960  -35.7007   22.0311 C   0  0  0  0  0  0  0  0  0  0  0  0
  -26.2829  -34.4394   22.0391 C   0  0  0  0  0  0  0  0  0  0  0  0
  -23.9879  -12.6228   21.0585 C   0  0  0  0  0  0  0  0  0  0  0  0
  -26.2277  -12.1636   20.2778 C   0  0  0  0  0  0  0  0  0  0  0  0
  -24.3782  -35.8578   22.4585 C   0  0  0  0  0  0  0  0  0  0  0  0
  -25.5527  -33.3346   22.4757 C   0  0  0  0  0  0  0  0  0  0  0  0
  -26.0960  -29.3219   19.4347 C   0  0  0  0  0  0  0  0  0  0  0  0
  -23.5783  -11.3619   20.6252 C   0  0  0  0  0  0  0  0  0  0  0  0
  -25.8181  -10.9026   19.8445 C   0  0  0  0  0  0  0  0  0  0  0  0
  -27.2725  -28.5840   19.5581 C   0  0  0  0  0  0  0  0  0  0  0  0
  -23.7848   -8.1663   21.7108 C   0  0  0  0  0  0  0  0  0  0  0  0
  -22.9902   -7.4111   22.5731 C   0  0  0  0  0  0  0  0  0  0  0  0
  -26.1008  -26.9502   20.8911 C   0  0  0  0  0  0  0  0  0  0  0  0
  -21.2332   -7.3668   20.9153 C   0  0  0  0  0  0  0  0  0  0  0  0
  -32.3127  -25.3994   21.3850 C   0  0  0  0  0  0  0  0  0  0  0  0
  -25.3126  -13.0238   20.8848 C   0  0  0  0  0  0  0  0  0  0  0  0
  -26.2476  -14.6658   22.5986 C   0  0  0  0  0  0  0  0  0  0  0  0
  -23.6283  -34.7528   22.8915 C   0  0  0  0  0  0  0  0  0  0  0  0
  -24.9137  -28.8843   20.0486 C   0  0  0  0  0  0  0  0  0  0  0  0
  -24.2241  -33.4773   22.9106 C   0  0  0  0  0  0  0  0  0  0  0  0
  -24.9100  -27.6830   20.7718 C   0  0  0  0  0  0  0  0  0  0  0  0
  -32.7776  -24.5583   20.3947 C   0  0  0  0  0  0  0  0  0  0  0  0
  -24.4934  -10.5018   20.0182 C   0  0  0  0  0  0  0  0  0  0  0  0
  -27.2757  -27.3995   20.2889 C   0  0  0  0  0  0  0  0  0  0  0  0
  -23.3037   -8.5219   20.4507 C   0  0  0  0  0  0  0  0  0  0  0  0
  -21.7144   -7.0113   22.1754 C   0  0  0  0  0  0  0  0  0  0  0  0
  -22.0279   -8.1222   20.0530 C   0  0  0  0  0  0  0  0  0  0  0  0
  -25.7362  -14.3264   21.3317 C   0  0  0  0  0  0  0  0  0  0  0  0
  -32.1214  -24.6422   19.1836 C   0  0  0  0  0  0  0  0  0  0  0  0
  -26.4970  -16.0140   22.5183 C   0  0  0  0  0  0  0  0  0  0  0  0
  -30.7301  -26.2480   19.9914 C   0  0  0  0  0  0  0  0  0  0  0  0
  -26.4768  -13.8364   23.7454 C   0  0  0  0  0  0  0  0  0  0  0  0
  -22.9827  -30.0535   22.2865 C   0  0  0  0  0  0  0  0  0  0  0  0
  -28.5685  -20.3743   19.6922 C   0  0  0  0  0  0  0  0  0  0  0  0
  -21.1616  -27.4853   21.5054 C   0  0  0  0  0  0  0  0  0  0  0  0
  -21.0002  -24.3406   20.1894 C   0  0  0  0  0  0  0  0  0  0  0  0
  -22.2227  -34.9794   23.3889 C   0  0  0  0  0  0  0  0  0  0  0  0
  -23.6466  -29.6779   19.8836 C   0  0  0  0  0  0  0  0  0  0  0  0
  -23.6623  -27.1593   21.4332 C   0  0  0  0  0  0  0  0  0  0  0  0
  -21.3960  -33.6995   23.4826 C   0  0  0  0  0  0  0  0  0  0  0  0
  -25.1830  -19.4115   19.0199 C   0  0  0  0  0  0  0  0  0  0  0  0
  -22.1987  -32.5939   24.1610 C   0  0  0  0  0  0  0  0  0  0  0  0
  -25.0763  -18.0185   19.6389 C   0  0  0  0  0  0  0  0  0  0  0  0
  -26.5681  -19.6553   18.4289 C   0  0  0  0  0  0  0  0  0  0  0  0
  -27.5825  -18.0518   20.0168 C   0  0  0  0  0  0  0  0  0  0  0  0
  -23.4565  -32.2506   23.3537 C   0  0  1  0  0  0  0  0  0  0  0  0
  -22.6226  -29.4035   20.9806 C   0  0  1  0  0  0  0  0  0  0  0  0
  -26.2085  -17.7758   20.6526 C   0  0  2  0  0  0  0  0  0  0  0  0
  -32.3680  -23.3829   15.5424 C   0  0  0  0  0  0  0  0  0  0  0  0
  -19.3803  -22.4824   19.7200 C   0  0  0  0  0  0  0  0  0  0  0  0
  -21.1521  -26.7489   24.4664 C   0  0  0  0  0  0  0  0  0  0  0  0
  -20.3702  -24.4592   23.8229 C   0  0  0  0  0  0  0  0  0  0  0  0
  -18.9552  -26.4484   23.3097 C   0  0  0  0  0  0  0  0  0  0  0  0
  -21.5188  -24.4677   17.2784 C   0  0  0  0  0  0  0  0  0  0  0  0
  -33.4169  -21.9817   23.3101 C   0  0  0  0  0  0  0  0  0  0  0  0
  -33.9117  -23.6321   20.6422 C   0  0  0  0  0  0  0  0  0  0  0  0
  -32.5383  -23.7797   18.0383 C   0  0  0  0  0  0  0  0  0  0  0  0
  -29.5864  -27.1927   19.7657 C   0  0  0  0  0  0  0  0  0  1  0  0
  -29.6143  -20.0317   20.7232 C   0  0  0  0  0  0  0  0  0  0  0  0
  -31.9157  -24.2417   16.7127 C   0  0  0  0  0  0  0  0  0  0  0  0
  -30.5845  -21.1914   20.9231 C   0  0  0  0  0  0  0  0  0  0  0  0
  -33.5035  -22.1672   20.8284 C   0  0  0  0  0  0  0  0  0  0  0  0
  -31.6895  -20.8530   21.9159 C   0  0  0  0  0  0  0  0  0  0  0  0
  -21.0699  -26.0554   21.9808 C   0  0  1  0  0  0  0  0  0  0  0  0
  -20.0632  -23.7235   19.1668 C   0  0  2  0  0  0  0  0  0  0  0  0
  -20.4110  -25.9386   23.3842 C   0  0  0  0  0  0  0  0  0  0  0  0
  -31.2873  -26.2601   21.2173 N   0  0  0  0  0  0  0  0  0  0  0  0
  -25.6642  -15.3747   20.5070 N   0  0  0  0  0  0  0  0  0  0  0  0
  -31.0899  -25.4788   18.9462 N   0  0  0  0  0  0  0  0  0  0  0  0
  -26.1336  -16.3859   21.2575 N   0  0  0  0  0  0  0  0  0  0  0  0
  -22.4502  -27.9742   21.2482 N   0  0  0  0  0  0  0  0  0  0  0  0
  -27.6167  -19.3925   19.4162 N   0  0  0  0  0  0  0  0  0  0  0  0
  -26.9893  -16.9060   23.4041 N   0  0  0  0  0  0  0  0  0  0  0  0
  -26.1655  -12.4727   23.6568 N   0  0  0  0  0  0  0  0  0  0  0  0
  -23.1160  -31.4269   22.2135 N   0  0  0  0  0  0  0  0  0  0  0  0
  -20.3736  -25.3200   20.9307 N   0  0  0  0  0  0  0  0  0  0  0  0
  -20.8166  -23.3381   17.9401 N   0  3  0  0  0  0  0  0  0  0  0  0
  -32.6328  -22.0261   22.0215 N   0  3  1  0  0  0  0  0  0  0  0  0
  -26.9285  -14.2942   24.8224 O   0  0  0  0  0  0  0  0  0  0  0  0
  -23.1274  -29.3604   23.2867 O   0  0  0  0  0  0  0  0  0  0  0  0
  -28.5965  -21.4830   19.1517 O   0  0  0  0  0  0  0  0  0  0  0  0
  -20.1274  -28.1419   21.3605 O   0  0  0  0  0  0  0  0  0  0  0  0
  -22.1698  -23.9865   20.3202 O   0  0  0  0  0  0  0  0  0  0  0  0
  -24.0941   -9.2712   19.5954 O   0  0  0  0  0  0  0  0  0  0  0  0
  -28.4228  -26.6777   20.4115 O   0  0  0  0  0  0  0  0  0  1  0  0
  -20.9520   -6.2847   23.0030 F   0  0  0  0  0  0  0  0  0  0  0  0
  -21.5606   -8.4597   18.8432 F   0  0  0  0  0  0  0  0  0  0  0  0
  1  2  1  0  0  0  0
  1  5  2  0  0  0  0
  2  6  2  0  0  0  0
  3  8  2  0  0  0  0
  3 16  1  0  0  0  0
  4  9  1  0  0  0  0
  4 16  2  0  0  0  0
  5 18  1  0  0  0  0
  6 20  1  0  0  0  0
  7 10  2  0  0  0  0
  7 19  1  0  0  0  0
  8 23  1  0  0  0  0
  9 23  2  0  0  0  0
 10 24  1  0  0  0  0
 11 12  2  0  0  0  0
 11 25  1  0  0  0  0
 12 26  1  0  0  0  0
 13 21  1  0  0  0  0
 13 24  2  0  0  0  0
 14 26  2  0  0  0  0
 14 27  1  0  0  0  0
 15 22  1  0  0  0  0
 15 67  2  0  0  0  0
 16 28  1  0  0  0  0
 17 28  1  0  0  0  0
 17 30  2  0  0  0  0
 17 32  1  0  0  0  0
 18 20  2  0  0  0  0
 18 37  1  0  0  0  0
 19 21  2  0  0  0  0
 19 38  1  0  0  0  0
 20 46  1  0  0  0  0
 21 39  1  0  0  0  0
 22 29  2  0  0  0  0
 22 56  1  0  0  0  0
 23 84  1  0  0  0  0
 24 85  1  0  0  0  0
 25 27  2  0  0  0  0
 25 84  1  0  0  0  0
 26 86  1  0  0  0  0
 27 87  1  0  0  0  0
 28 68  2  0  0  0  0
 29 57  1  0  0  0  0
 29 69  1  0  0  0  0
 30 70  1  0  0  0  0
 30 73  1  0  0  0  0
 31 58  1  0  0  0  0
 31 67  1  0  0  0  0
 31 69  2  0  0  0  0
 32 74  1  0  0  0  0
 32 79  2  0  0  0  0
 33 47  1  0  0  0  0
 33 75  1  0  0  0  0
 33 80  2  0  0  0  0
 34 59  1  0  0  0  0
 34 72  1  0  0  0  0
 34 81  2  0  0  0  0
 35 64  1  0  0  0  0
 35 71  1  0  0  0  0
 35 82  2  0  0  0  0
 36 65  1  0  0  0  0
 36 76  1  0  0  0  0
 36 83  2  0  0  0  0
 37 40  1  0  0  0  0
 38 47  1  0  0  0  0
 39 71  1  0  0  0  0
 40 42  1  0  0  0  0
 41 43  1  0  0  0  0
 41 44  1  0  0  0  0
 42 46  1  0  0  0  0
 43 48  1  0  0  0  0
 44 72  1  0  0  0  0
 45 48  1  0  0  0  0
 45 72  1  0  0  0  0
 46 75  1  0  0  0  0
 47 71  1  0  0  0  0
 48 70  1  0  0  0  0
 49 60  1  0  0  0  0
 50 65  1  0  0  0  0
 51 66  1  0  0  0  0
 52 66  1  0  0  0  0
 53 66  1  0  0  0  0
 54 77  1  0  0  0  0
 55 78  1  0  0  0  0
 56 62  1  0  0  0  0
 57 60  1  0  0  0  0
 58 85  1  0  0  0  0
 59 61  1  0  0  0  0
 61 63  1  0  0  0  0
 62 78  1  0  0  0  0
 63 78  1  0  0  0  0
 64 66  1  0  0  0  0
 64 76  1  0  0  0  0
 65 77  1  0  0  0  0
 68 70  1  0  0  0  0
M  CHG  2  77   1  78   1
M  ISO  4  34 100  58 101  59 100  85 101
M  END
> <Batch ID>
0045

> <Smiles>
CCCc1nc([101CH2:1][101O:1]c2ccc3c(c2)CN(C(=O)C(NC(=O)C(C)NC)C(C)(C)C)C(C(=O)NC2CCCc4ccccc42)C3)ncc1CCN(C)CC[100CH2:0][100C:0](=O)N1CCCC(n2nc(-c3ccc(Oc4ccc(F)cc4F)cc3)c(C(N)=O)c2N)C1

> <Shape>
0.260

> <Color>
0.090

> <Negative vol penalty>
0.000

$$$$

  -OEChem-04052317193D

 85 93  0     1  0  0  0  0  0999 V2000
  -28.6691  -33.3286   14.8735 C   0  0  0  0  0  0  0  0  0  0  0  0
  -28.7954  -31.9432   14.8810 C   0  0  0  0  0  0  0  0  0  0  0  0
  -23.2174   -9.8872   19.8772 C   0  0  0  0  0  0  0  0  0  0  0  0
  -23.7022   -9.9678   22.2427 C   0  0  0  0  0  0  0  0  0  0  0  0
  -28.7556  -34.0418   16.0685 C   0  0  0  0  0  0  0  0  0  0  0  0
  -29.0094  -31.2702   16.0833 C   0  0  0  0  0  0  0  0  0  0  0  0
  -26.9013  -25.7316   17.6281 C   0  0  0  0  0  0  0  0  0  0  0  0
  -22.4810   -8.7181   20.0679 C   0  0  0  0  0  0  0  0  0  0  0  0
  -22.9658   -8.7986   22.4334 C   0  0  0  0  0  0  0  0  0  0  0  0
  -27.4878  -24.4669   17.6125 C   0  0  0  0  0  0  0  0  0  0  0  0
  -23.4103   -5.4753   21.9988 C   0  0  0  0  0  0  0  0  0  0  0  0
  -23.9649   -4.4851   22.8096 C   0  0  0  0  0  0  0  0  0  0  0  0
  -28.0479  -24.7045   19.9468 C   0  0  0  0  0  0  0  0  0  0  0  0
  -28.9810  -19.7986   19.6446 C   0  0  0  0  0  0  0  0  0  0  0  0
  -22.0708   -4.6454   24.3008 C   0  0  0  0  0  0  0  0  0  0  0  0
  -31.6987  -19.6215   19.4755 C   0  0  0  0  0  0  0  0  0  0  0  0
  -23.8281  -10.5120   20.9645 C   0  0  0  0  0  0  0  0  0  0  0  0
  -24.1129  -13.0430   20.8209 C   0  0  0  0  0  0  0  0  0  0  0  0
  -28.9612  -33.3763   17.2873 C   0  0  0  0  0  0  0  0  0  0  0  0
  -26.8934  -26.4981   18.8023 C   0  0  0  0  0  0  0  0  0  0  0  0
  -29.1002  -31.9752   17.2955 C   0  0  0  0  0  0  0  0  0  0  0  0
  -27.4585  -25.9776   19.9753 C   0  0  0  0  0  0  0  0  0  0  0  0
  -29.5720  -18.5572   19.4371 C   0  0  0  0  0  0  0  0  0  0  0  0
  -30.9562  -18.4584   19.3498 C   0  0  0  0  0  0  0  0  0  0  0  0
  -22.3551   -8.1738   21.3460 C   0  0  0  0  0  0  0  0  0  0  0  0
  -28.0638  -23.9543   18.7712 C   0  0  0  0  0  0  0  0  0  0  0  0
  -22.1860   -6.0507   22.3390 C   0  0  0  0  0  0  0  0  0  0  0  0
  -23.2951   -4.0701   23.9606 C   0  0  0  0  0  0  0  0  0  0  0  0
  -21.5162   -5.6357   23.4900 C   0  0  0  0  0  0  0  0  0  0  0  0
  -24.5895  -11.7194   20.7681 C   0  0  0  0  0  0  0  0  0  0  0  0
  -29.8119  -20.9016   19.7574 C   0  0  0  0  0  0  0  0  0  0  0  0
  -25.2193  -13.8167   20.5686 C   0  0  0  0  0  0  0  0  0  0  0  0
  -22.7884  -13.5296   21.0753 C   0  0  0  0  0  0  0  0  0  0  0  0
  -28.1066  -29.3100   19.6539 C   0  0  0  0  0  0  0  0  0  0  0  0
  -26.4287  -28.7703   22.3771 C   0  0  0  0  0  0  0  0  0  0  0  0
  -30.8201  -13.8423   21.7717 C   0  0  0  0  0  0  0  0  0  0  0  0
  -24.9756  -26.5146   24.4858 C   0  0  0  0  0  0  0  0  0  0  0  0
  -29.0951  -34.1942   18.5474 C   0  0  0  0  0  0  0  0  0  0  0  0
  -26.2331  -27.8495   18.8096 C   0  0  0  0  0  0  0  0  0  0  0  0
  -27.4581  -26.7520   21.2671 C   0  0  0  0  0  0  0  0  0  0  0  0
  -28.9491  -33.3723   19.8254 C   0  0  0  0  0  0  0  0  0  0  0  0
  -29.6046  -13.0532   18.4360 C   0  0  0  0  0  0  0  0  0  0  0  0
  -29.7818  -32.0972   19.7381 C   0  0  0  0  0  0  0  0  0  0  0  0
  -28.1383  -12.7256   18.7146 C   0  0  0  0  0  0  0  0  0  0  0  0
  -30.5086  -12.5964   19.5780 C   0  0  0  0  0  0  0  0  0  0  0  0
  -28.6466  -12.8111   21.1940 C   0  0  0  0  0  0  0  0  0  0  0  0
  -29.3083  -31.2071   18.5827 C   0  0  1  0  0  0  0  0  0  0  0  0
  -26.7376  -28.7551   19.9288 C   0  0  1  0  0  0  0  0  0  0  0  0
  -27.6979  -13.2831   20.0794 C   0  0  2  0  0  0  0  0  0  0  0  0
  -27.6977  -17.4743   18.1719 C   0  0  0  0  0  0  0  0  0  0  0  0
  -23.7122  -26.3706   26.6493 C   0  0  0  0  0  0  0  0  0  0  0  0
  -32.9610  -12.7368   21.1971 C   0  0  0  0  0  0  0  0  0  0  0  0
  -32.9246  -14.8504   22.5359 C   0  0  0  0  0  0  0  0  0  0  0  0
  -29.0192  -29.2427   23.9185 C   0  0  0  0  0  0  0  0  0  0  0  0
  -27.9459  -28.1747   25.9123 C   0  0  0  0  0  0  0  0  0  0  0  0
  -26.9872  -30.2689   24.9540 C   0  0  0  0  0  0  0  0  0  0  0  0
  -22.6168  -25.3129   23.1625 C   0  0  0  0  0  0  0  0  0  0  0  0
  -28.7045  -17.3489   19.3117 C   0  0  0  0  0  0  0  0  0  0  0  0
  -31.6407  -17.1545   19.1278 C   0  0  0  0  0  0  0  0  0  0  0  0
  -29.2089  -22.2572   19.9814 C   0  0  0  0  0  0  0  0  0  1  0  0
  -32.2983  -14.9580   20.1187 C   0  0  0  0  0  0  0  0  0  0  0  0
  -26.7183  -28.0931   23.6948 C   0  0  1  0  0  0  0  0  0  0  0  0
  -23.6044  -26.4821   25.1365 C   0  0  2  0  0  0  0  0  0  0  0  0
  -32.2567  -14.0857   21.3835 C   0  0  0  0  0  0  0  0  0  0  0  0
  -27.6695  -28.9308   24.5952 C   0  0  0  0  0  0  0  0  0  0  0  0
  -31.1602  -20.8449   19.6778 N   0  0  0  0  0  0  0  0  0  0  0  0
  -25.8968  -11.6524   20.5029 N   0  0  0  0  0  0  0  0  0  0  0  0
  -26.2511  -12.9435   20.3868 N   0  0  0  0  0  0  0  0  0  0  0  0
  -26.8059  -28.0711   21.2218 N   0  0  0  0  0  0  0  0  0  0  0  0
  -30.0395  -13.1260   20.8641 N   0  0  0  0  0  0  0  0  0  0  0  0
  -25.4006  -15.1519   20.4867 N   0  0  0  0  0  0  0  0  0  0  0  0
  -21.7690  -12.5982   21.3152 N   0  0  0  0  0  0  0  0  0  0  0  0
  -28.1007  -30.5000   18.9515 N   0  0  0  0  0  0  0  0  0  0  0  0
  -25.4221  -27.8058   24.2997 N   0  0  0  0  0  0  0  0  0  0  0  0
  -22.8201  -25.3187   24.6341 N   0  3  0  0  0  0  0  0  0  0  0  0
  -31.6692  -16.2861   20.3381 N   0  3  0  0  0  0  0  0  0  0  0  0
  -22.5137  -14.7536   21.0733 O   0  0  0  0  0  0  0  0  0  0  0  0
  -29.0951  -28.7041   20.0510 O   0  0  0  0  0  0  0  0  0  0  0  0
  -25.8813  -29.8757   22.3727 O   0  0  0  0  0  0  0  0  0  0  0  0
  -30.4052  -14.2789   22.8485 O   0  0  0  0  0  0  0  0  0  0  0  0
  -25.5907  -25.4963   24.1773 O   0  0  0  0  0  0  0  0  0  0  0  0
  -21.6364   -7.0331   21.5325 O   0  0  0  0  0  0  0  0  0  0  0  0
  -28.6375  -22.7204   18.7585 O   0  0  0  0  0  0  0  0  0  1  0  0
  -23.8271   -3.1180   24.7383 F   0  0  0  0  0  0  0  0  0  0  0  0
  -20.3391   -6.1838   23.8213 F   0  0  0  0  0  0  0  0  0  0  0  0
  1  2  1  0  0  0  0
  1  5  2  0  0  0  0
  2  6  2  0  0  0  0
  3  8  2  0  0  0  0
  3 17  1  0  0  0  0
  4  9  1  0  0  0  0
  4 17  2  0  0  0  0
  5 19  1  0  0  0  0
  6 21  1  0  0  0  0
  7 10  2  0  0  0  0
  7 20  1  0  0  0  0
  8 25  1  0  0  0  0
  9 25  2  0  0  0  0
 10 26  1  0  0  0  0
 11 12  2  0  0  0  0
 11 27  1  0  0  0  0
 12 28  1  0  0  0  0
 13 22  1  0  0  0  0
 13 26  2  0  0  0  0
 14 23  1  0  0  0  0
 14 31  2  0  0  0  0
 15 28  2  0  0  0  0
 15 29  1  0  0  0  0
 16 24  1  0  0  0  0
 16 66  2  0  0  0  0
 17 30  1  0  0  0  0
 18 30  1  0  0  0  0
 18 32  2  0  0  0  0
 18 33  1  0  0  0  0
 19 21  2  0  0  0  0
 19 38  1  0  0  0  0
 20 22  2  0  0  0  0
 20 39  1  0  0  0  0
 21 47  1  0  0  0  0
 22 40  1  0  0  0  0
 23 24  2  0  0  0  0
 23 58  1  0  0  0  0
 24 59  1  0  0  0  0
 25 82  1  0  0  0  0
 26 83  1  0  0  0  0
 27 29  2  0  0  0  0
 27 82  1  0  0  0  0
 28 84  1  0  0  0  0
 29 85  1  0  0  0  0
 30 67  2  0  0  0  0
 31 60  1  0  0  0  0
 31 66  1  0  0  0  0
 32 68  1  0  0  0  0
 32 71  1  0  0  0  0
 33 72  1  0  0  0  0
 33 77  2  0  0  0  0
 34 48  1  0  0  0  0
 34 73  1  0  0  0  0
 34 78  2  0  0  0  0
 35 62  1  0  0  0  0
 35 69  1  0  0  0  0
 35 79  2  0  0  0  0
 36 64  1  0  0  0  0
 36 70  1  0  0  0  0
 36 80  2  0  0  0  0
 37 63  1  0  0  0  0
 37 74  1  0  0  0  0
 37 81  2  0  0  0  0
 38 41  1  0  0  0  0
 39 48  1  0  0  0  0
 40 69  1  0  0  0  0
 41 43  1  0  0  0  0
 42 44  1  0  0  0  0
 42 45  1  0  0  0  0
 43 47  1  0  0  0  0
 44 49  1  0  0  0  0
 45 70  1  0  0  0  0
 46 49  1  0  0  0  0
 46 70  1  0  0  0  0
 47 73  1  0  0  0  0
 48 69  1  0  0  0  0
 49 68  1  0  0  0  0
 50 58  1  0  0  0  0
 51 63  1  0  0  0  0
 52 64  1  0  0  0  0
 53 64  1  0  0  0  0
 54 65  1  0  0  0  0
 55 65  1  0  0  0  0
 56 65  1  0  0  0  0
 57 75  1  0  0  0  0
 59 76  1  0  0  0  0
 60 83  1  0  0  0  0
 61 64  1  0  0  0  0
 61 76  1  0  0  0  0
 62 65  1  0  0  0  0
 62 74  1  0  0  0  0
 63 75  1  0  0  0  0
 67 68  1  0  0  0  0
M  CHG  2  75   1  76   1
M  ISO  4  36 100  60 101  64 100  83 101
M  END
> <Batch ID>
0045

> <Smiles>
CCc1cc([101CH2:1][101O:1]c2ccc3c(c2)CN(C(=O)C(NC(=O)C(C)NC)C(C)(C)C)C(C(=O)NC2CCCc4ccccc42)C3)ncc1CNC[100C:0](C)(C)[100C:0](=O)N1CCCC(n2nc(-c3ccc(Oc4ccc(F)cc4F)cc3)c(C(N)=O)c2N)C1

> <Shape>
0.272

> <Color>
0.195

> <Negative vol penalty>
0.000

$$$$

  -OEChem-04052317193D

 85 94  0     1  0  0  0  0  0999 V2000
  -29.1377  -34.9673   18.1513 C   0  0  0  0  0  0  0  0  0  0  0  0
  -28.1407  -34.1609   18.6909 C   0  0  0  0  0  0  0  0  0  0  0  0
  -24.9711  -15.8570   22.0653 C   0  0  0  0  0  0  0  0  0  0  0  0
  -26.5941  -16.6885   20.4805 C   0  0  0  0  0  0  0  0  0  0  0  0
  -30.1227  -34.4068   17.3393 C   0  0  0  0  0  0  0  0  0  0  0  0
  -28.1276  -32.7935   18.4179 C   0  0  0  0  0  0  0  0  0  0  0  0
  -27.2537  -29.9961   22.5477 C   0  0  0  0  0  0  0  0  0  0  0  0
  -25.1613  -14.5628   21.5812 C   0  0  0  0  0  0  0  0  0  0  0  0
  -26.7844  -15.3942   19.9964 C   0  0  0  0  0  0  0  0  0  0  0  0
  -25.9352  -29.9126   22.9928 C   0  0  0  0  0  0  0  0  0  0  0  0
  -27.9630  -12.2569   18.5871 C   0  0  0  0  0  0  0  0  0  0  0  0
  -29.2735  -11.8298   18.3731 C   0  0  0  0  0  0  0  0  0  0  0  0
  -25.7220  -27.7539   21.9374 C   0  0  0  0  0  0  0  0  0  0  0  0
  -29.7694  -12.1801   20.7116 C   0  0  0  0  0  0  0  0  0  0  0  0
  -25.6874  -16.9199   21.5149 C   0  0  0  0  0  0  0  0  0  0  0  0
  -26.1918  -18.8852   23.0611 C   0  0  0  0  0  0  0  0  0  0  0  0
  -30.1273  -33.0302   17.0640 C   0  0  0  0  0  0  0  0  0  0  0  0
  -27.8139  -28.9624   21.7835 C   0  0  0  0  0  0  0  0  0  0  0  0
  -29.1129  -32.2143   17.6003 C   0  0  0  0  0  0  0  0  0  0  0  0
  -27.0488  -27.8256   21.4859 C   0  0  0  0  0  0  0  0  0  0  0  0
  -26.0680  -14.3314   20.5468 C   0  0  0  0  0  0  0  0  0  0  0  0
  -25.1682  -28.7926   22.6852 C   0  0  0  0  0  0  0  0  0  0  0  0
  -27.5557  -12.6456   19.8633 C   0  0  0  0  0  0  0  0  0  0  0  0
  -30.1767  -11.7914   19.4354 C   0  0  0  0  0  0  0  0  0  0  0  0
  -28.4589  -12.6072   20.9256 C   0  0  0  0  0  0  0  0  0  0  0  0
  -25.4909  -18.2571   22.0142 C   0  0  0  0  0  0  0  0  0  0  0  0
  -17.9433  -28.0898   22.8487 C   0  0  0  0  0  0  0  0  0  0  0  0
  -18.5747  -28.6669   23.9257 C   0  0  0  0  0  0  0  0  0  0  0  0
  -25.6337  -20.1374   23.1452 C   0  0  0  0  0  0  0  0  0  0  0  0
  -19.3494  -26.6534   23.5266 C   0  0  0  0  0  0  0  0  0  0  0  0
  -20.1749  -25.5346   23.7535 C   0  0  0  0  0  0  0  0  0  0  0  0
  -20.1978  -24.3615   23.0326 C   0  0  0  0  0  0  0  0  0  0  0  0
  -27.2525  -18.3818   23.8840 C   0  0  0  0  0  0  0  0  0  0  0  0
  -21.1342  -23.2774   23.3910 C   0  0  0  0  0  0  0  0  0  0  0  0
  -29.0036  -28.7368   18.8446 C   0  0  0  0  0  0  0  0  0  0  0  0
  -29.7801  -25.7386   19.8090 C   0  0  0  0  0  0  0  0  0  0  0  0
  -29.1620  -23.1188   21.9069 C   0  0  0  0  0  0  0  0  0  0  0  0
  -31.1855  -32.4777   16.1423 C   0  0  0  0  0  0  0  0  0  0  0  0
  -29.2461  -29.0558   21.3336 C   0  0  0  0  0  0  0  0  0  0  0  0
  -27.6096  -26.6794   20.6859 C   0  0  0  0  0  0  0  0  0  0  0  0
  -16.8934  -28.7723   22.0578 C   0  0  0  0  0  0  0  0  0  0  0  0
  -18.3029  -30.0034   24.4991 C   0  0  0  0  0  0  0  0  0  0  0  0
  -31.3161  -30.9582   16.2065 C   0  0  0  0  0  0  0  0  0  0  0  0
  -16.3499  -29.9966   22.8271 C   0  0  0  0  0  0  0  0  0  0  0  0
  -17.4721  -30.8262   23.4905 C   0  0  0  0  0  0  0  0  0  0  0  0
  -22.4710  -22.5613   20.0545 C   0  0  0  0  0  0  0  0  0  0  0  0
  -29.9406  -30.3013   16.1508 C   0  0  0  0  0  0  0  0  0  0  0  0
  -23.4020  -21.3901   20.3564 C   0  0  0  0  0  0  0  0  0  0  0  0
  -21.2302  -22.5499   20.9461 C   0  0  0  0  0  0  0  0  0  0  0  0
  -22.4752  -21.3270   22.7053 C   0  0  0  0  0  0  0  0  0  0  0  0
  -29.0791  -30.7226   17.3474 C   0  0  1  0  0  0  0  0  0  0  0  0
  -29.5517  -28.1752   20.1259 C   0  0  1  0  0  0  0  0  0  0  0  0
  -23.7531  -21.3452   21.8520 C   0  0  1  0  0  0  0  0  0  0  0  0
  -29.9362  -20.7900   22.4313 C   0  0  0  0  0  0  0  0  0  0  0  0
  -28.3293  -24.7013   17.3333 C   0  0  0  0  0  0  0  0  0  0  0  0
  -28.3050  -22.4294   18.3850 C   0  0  0  0  0  0  0  0  0  0  0  0
  -30.4782  -23.5310   17.8500 C   0  0  0  0  0  0  0  0  0  0  0  0
  -29.9266  -23.8697   24.6656 C   0  0  0  0  0  0  0  0  0  0  0  0
  -21.8451  -28.2442   25.1389 C   0  0  0  0  0  0  0  0  0  0  0  0
  -21.9408  -29.5083   24.2831 C   0  0  0  0  0  0  0  0  0  0  0  0
  -20.4056  -27.8938   25.5327 C   0  0  0  0  0  0  0  0  0  0  0  0
  -23.3798  -29.8046   23.8825 C   0  0  0  0  0  0  0  0  0  1  0  0
  -29.0929  -24.3948   19.7805 C   0  0  1  0  0  0  0  0  0  0  0  0
  -30.0891  -22.2679   22.7560 C   0  0  2  0  0  0  0  0  0  0  0  0
  -29.0399  -23.7864   18.3506 C   0  0  0  0  0  0  0  0  0  0  0  0
  -24.5587  -19.0452   21.4721 N   0  0  0  0  0  0  0  0  0  0  0  0
  -18.4314  -26.8369   22.5987 N   0  0  0  0  0  0  0  0  0  0  0  0
  -19.4730  -27.7382   24.3579 N   0  0  0  0  0  0  0  0  0  0  0  0
  -24.6698  -20.1814   22.1813 N   0  0  0  0  0  0  0  0  0  0  0  0
  -21.5902  -22.4476   22.3683 N   0  0  0  0  0  0  0  0  0  0  0  0
  -29.0128  -26.8206   20.2633 N   0  0  0  0  0  0  0  0  0  0  0  0
  -25.8783  -21.1941   23.9490 N   0  0  0  0  0  0  0  0  0  0  0  0
  -27.7060  -17.0741   23.6635 N   0  0  0  0  0  0  0  0  0  0  0  0
  -29.4758  -29.9982   18.5358 N   0  0  0  0  0  0  0  0  0  0  0  0
  -29.7841  -23.5620   20.7589 N   0  0  0  0  0  0  0  0  0  0  0  0
  -29.7921  -22.4643   24.2031 N   0  3  0  0  0  0  0  0  0  0  0  0
  -27.7713  -19.0655   24.7988 O   0  0  0  0  0  0  0  0  0  0  0  0
  -21.4522  -23.1696   24.5767 O   0  0  0  0  0  0  0  0  0  0  0  0
  -28.2121  -28.0742   18.1842 O   0  0  0  0  0  0  0  0  0  0  0  0
  -30.9567  -25.8239   19.4483 O   0  0  0  0  0  0  0  0  0  0  0  0
  -28.0010  -23.3625   22.2279 O   0  0  0  0  0  0  0  0  0  0  0  0
  -26.2541  -13.0686   20.0743 O   0  0  0  0  0  0  0  0  0  0  0  0
  -23.8807  -28.7088   23.1179 O   0  0  0  0  0  0  0  0  0  1  0  0
  -31.4347  -11.3798   19.2300 F   0  0  0  0  0  0  0  0  0  0  0  0
  -28.0731  -12.9782   22.1541 F   0  0  0  0  0  0  0  0  0  0  0  0
  1  2  1  0  0  0  0
  1  5  2  0  0  0  0
  2  6  2  0  0  0  0
  3  8  2  0  0  0  0
  3 15  1  0  0  0  0
  4  9  1  0  0  0  0
  4 15  2  0  0  0  0
  5 17  1  0  0  0  0
  6 19  1  0  0  0  0
  7 10  2  0  0  0  0
  7 18  1  0  0  0  0
  8 21  1  0  0  0  0
  9 21  2  0  0  0  0
 10 22  1  0  0  0  0
 11 12  2  0  0  0  0
 11 23  1  0  0  0  0
 12 24  1  0  0  0  0
 13 20  1  0  0  0  0
 13 22  2  0  0  0  0
 14 24  2  0  0  0  0
 14 25  1  0  0  0  0
 15 26  1  0  0  0  0
 16 26  1  0  0  0  0
 16 29  2  0  0  0  0
 16 33  1  0  0  0  0
 17 19  2  0  0  0  0
 17 38  1  0  0  0  0
 18 20  2  0  0  0  0
 18 39  1  0  0  0  0
 19 51  1  0  0  0  0
 20 40  1  0  0  0  0
 21 82  1  0  0  0  0
 22 83  1  0  0  0  0
 23 25  2  0  0  0  0
 23 82  1  0  0  0  0
 24 84  1  0  0  0  0
 25 85  1  0  0  0  0
 26 66  2  0  0  0  0
 27 28  2  0  0  0  0
 27 41  1  0  0  0  0
 27 67  1  0  0  0  0
 28 42  1  0  0  0  0
 28 68  1  0  0  0  0
 29 69  1  0  0  0  0
 29 72  1  0  0  0  0
 30 31  1  0  0  0  0
 30 67  2  0  0  0  0
 30 68  1  0  0  0  0
 31 32  2  0  0  0  0
 32 34  1  0  0  0  0
 33 73  1  0  0  0  0
 33 77  2  0  0  0  0
 34 70  1  0  0  0  0
 34 78  2  0  0  0  0
 35 52  1  0  0  0  0
 35 74  1  0  0  0  0
 35 79  2  0  0  0  0
 36 63  1  0  0  0  0
 36 71  1  0  0  0  0
 36 80  2  0  0  0  0
 37 64  1  0  0  0  0
 37 75  1  0  0  0  0
 37 81  2  0  0  0  0
 38 43  1  0  0  0  0
 39 52  1  0  0  0  0
 40 71  1  0  0  0  0
 41 44  1  0  0  0  0
 42 45  1  0  0  0  0
 43 47  1  0  0  0  0
 44 45  1  0  0  0  0
 46 48  1  0  0  0  0
 46 49  1  0  0  0  0
 47 51  1  0  0  0  0
 48 53  1  0  0  0  0
 49 70  1  0  0  0  0
 50 53  1  0  0  0  0
 50 70  1  0  0  0  0
 51 74  1  0  0  0  0
 52 71  1  0  0  0  0
 53 69  1  0  0  0  0
 54 64  1  0  0  0  0
 55 65  1  0  0  0  0
 56 65  1  0  0  0  0
 57 65  1  0  0  0  0
 58 76  1  0  0  0  0
 59 60  1  0  0  0  0
 59 61  1  0  0  0  0
 60 62  1  0  0  0  0
 61 68  1  0  0  0  0
 62 83  1  0  0  0  0
 63 65  1  0  0  0  0
 63 75  1  0  0  0  0
 64 76  1  0  0  0  0
 66 69  1  0  0  0  0
M  CHG  1  76   1
M  ISO  4  32 100  34 100  62 101  83 101
M  END
> <Batch ID>
0045

> <Smiles>
CNC(C)C(=O)NC(C(=O)N1Cc2cc([101O:1][101CH2:1]CCCn3c(C=[100CH:0][100C:0](=O)N4CCCC(n5nc(-c6ccc(Oc7ccc(F)cc7F)cc6)c(C(N)=O)c5N)C4)nc4c3CCCC4)ccc2CC1C(=O)NC1CCCc2ccccc21)C(C)(C)C

> <Shape>
0.210

> <Color>
0.069

> <Negative vol penalty>
0.000

$$$$

  -OEChem-04052317193D

 83 91  0     1  0  0  0  0  0999 V2000
  -29.8272  -17.0071   15.7303 C   0  0  0  0  0  0  0  0  0  0  0  0
  -29.5987  -17.4191   17.0393 C   0  0  0  0  0  0  0  0  0  0  0  0
  -23.0416   -9.8242   19.9583 C   0  0  0  0  0  0  0  0  0  0  0  0
  -23.7881   -9.8552   22.2559 C   0  0  0  0  0  0  0  0  0  0  0  0
  -30.2342  -17.9327   14.7703 C   0  0  0  0  0  0  0  0  0  0  0  0
  -29.7781  -18.7569   17.3893 C   0  0  0  0  0  0  0  0  0  0  0  0
  -26.0064  -20.5361   20.2623 C   0  0  0  0  0  0  0  0  0  0  0  0
  -22.3107   -8.6635   20.2113 C   0  0  0  0  0  0  0  0  0  0  0  0
  -23.0571   -8.6945   22.5090 C   0  0  0  0  0  0  0  0  0  0  0  0
  -26.0163  -20.1890   21.6125 C   0  0  0  0  0  0  0  0  0  0  0  0
  -23.3925   -5.3729   21.9745 C   0  0  0  0  0  0  0  0  0  0  0  0
  -24.0165   -4.3599   22.7025 C   0  0  0  0  0  0  0  0  0  0  0  0
  -26.9514  -22.3458   22.1539 C   0  0  0  0  0  0  0  0  0  0  0  0
  -22.3032   -4.5231   24.3982 C   0  0  0  0  0  0  0  0  0  0  0  0
  -29.6702  -18.6848   25.2001 C   0  0  0  0  0  0  0  0  0  0  0  0
  -23.7804  -10.4201   20.9805 C   0  0  0  0  0  0  0  0  0  0  0  0
  -24.0915  -12.9485   20.8463 C   0  0  0  0  0  0  0  0  0  0  0  0
  -30.4093  -19.2843   15.1065 C   0  0  0  0  0  0  0  0  0  0  0  0
  -26.4799  -21.7886   19.8458 C   0  0  0  0  0  0  0  0  0  0  0  0
  -30.1891  -19.7012   16.4332 C   0  0  0  0  0  0  0  0  0  0  0  0
  -26.9440  -22.7073   20.7980 C   0  0  0  0  0  0  0  0  0  0  0  0
  -22.3184   -8.0986   21.4867 C   0  0  0  0  0  0  0  0  0  0  0  0
  -26.4915  -21.0928   22.5583 C   0  0  0  0  0  0  0  0  0  0  0  0
  -22.2239   -5.9611   22.4583 C   0  0  0  0  0  0  0  0  0  0  0  0
  -23.4719   -3.9350   23.9143 C   0  0  0  0  0  0  0  0  0  0  0  0
  -21.6792   -5.5361   23.6701 C   0  0  0  0  0  0  0  0  0  0  0  0
  -24.5361  -11.6188   20.7196 C   0  0  0  0  0  0  0  0  0  0  0  0
  -28.3353  -19.0709   25.4251 C   0  0  0  0  0  0  0  0  0  0  0  0
  -29.5873  -17.3672   24.8212 C   0  0  0  0  0  0  0  0  0  0  0  0
  -25.1763  -13.7092   20.4845 C   0  0  0  0  0  0  0  0  0  0  0  0
  -22.8123  -13.4510   21.2546 C   0  0  0  0  0  0  0  0  0  0  0  0
  -28.8437  -22.7818   17.9671 C   0  0  0  0  0  0  0  0  0  0  0  0
  -27.4990  -25.6906   18.4699 C   0  0  0  0  0  0  0  0  0  0  0  0
  -25.5684  -27.6860   20.4544 C   0  0  0  0  0  0  0  0  0  0  0  0
  -30.6458  -14.7977   20.6977 C   0  0  0  0  0  0  0  0  0  0  0  0
  -30.8960  -20.2391   14.0453 C   0  0  0  0  0  0  0  0  0  0  0  0
  -26.4376  -22.1579   18.3884 C   0  0  0  0  0  0  0  0  0  0  0  0
  -27.4443  -24.0724   20.4048 C   0  0  0  0  0  0  0  0  0  0  0  0
  -30.7012  -21.7081   14.4120 C   0  0  0  0  0  0  0  0  0  0  0  0
  -29.5518  -12.3842   18.3198 C   0  0  0  0  0  0  0  0  0  0  0  0
  -31.1674  -21.9680   15.8410 C   0  0  0  0  0  0  0  0  0  0  0  0
  -28.1156  -12.0753   18.7463 C   0  0  0  0  0  0  0  0  0  0  0  0
  -30.4591  -12.6240   19.5245 C   0  0  0  0  0  0  0  0  0  0  0  0
  -28.5404  -13.3400   20.8955 C   0  0  0  0  0  0  0  0  0  0  0  0
  -30.3489  -21.1484   16.8460 C   0  0  1  0  0  0  0  0  0  0  0  0
  -27.4221  -23.2649   18.0237 C   0  0  1  0  0  0  0  0  0  0  0  0
  -27.5753  -13.1459   19.7134 C   0  0  2  0  0  0  0  0  0  0  0  0
  -31.5957  -16.1004   25.6296 C   0  0  0  0  0  0  0  0  0  0  0  0
  -24.6793  -30.0266   20.6237 C   0  0  0  0  0  0  0  0  0  0  0  0
  -30.2474  -26.6673   19.3657 C   0  0  0  0  0  0  0  0  0  0  0  0
  -29.1280  -28.6556   20.3961 C   0  0  0  0  0  0  0  0  0  0  0  0
  -28.9824  -28.2812   17.9342 C   0  0  0  0  0  0  0  0  0  0  0  0
  -27.6613  -15.7821   24.5174 C   0  0  0  0  0  0  0  0  0  0  0  0
  -22.7622  -26.7514   20.3510 C   0  0  0  0  0  0  0  0  0  0  0  0
  -27.8309  -20.4235   25.8662 C   0  0  0  0  0  0  0  0  0  0  0  0
  -31.4910  -16.8080   23.2073 C   0  0  0  0  0  0  0  0  0  0  0  0
  -30.6777  -16.9567   21.9212 C   0  0  0  0  0  0  0  0  0  0  0  0
  -27.5222  -21.3399   24.6873 C   0  0  0  0  0  0  0  0  0  1  0  0
  -30.6349  -16.3985   24.4500 C   0  0  2  0  0  0  0  0  0  0  0  0
  -27.6715  -26.7854   19.4950 C   0  0  1  0  0  0  0  0  0  0  0  0
  -24.4118  -28.6137   20.1286 C   0  0  2  0  0  0  0  0  0  0  0  0
  -28.9998  -27.5710   19.3053 C   0  0  0  0  0  0  0  0  0  0  0  0
  -25.8044  -11.5361   20.3092 N   0  0  0  0  0  0  0  0  0  0  0  0
  -27.4678  -18.0789   25.2071 N   0  0  0  0  0  0  0  0  0  0  0  0
  -28.2594  -17.0564   24.8411 N   0  0  0  0  0  0  0  0  0  0  0  0
  -26.1661  -12.8234   20.1748 N   0  0  0  0  0  0  0  0  0  0  0  0
  -27.3887  -24.3843   18.9670 N   0  0  0  0  0  0  0  0  0  0  0  0
  -29.8907  -13.6511   20.4007 N   0  0  0  0  0  0  0  0  0  0  0  0
  -25.3706  -15.0427   20.4042 N   0  0  0  0  0  0  0  0  0  0  0  0
  -21.8098  -12.5315   21.5919 N   0  0  0  0  0  0  0  0  0  0  0  0
  -29.0550  -21.7595   17.0618 N   0  0  0  0  0  0  0  0  0  0  0  0
  -26.4719  -27.6118   19.4154 N   0  0  0  0  0  0  0  0  0  0  0  0
  -30.0303  -15.7243   21.5304 N   0  0  0  0  0  0  0  0  0  0  0  0
  -23.1579  -28.1218   20.7663 N   0  3  0  0  0  0  0  0  0  0  0  0
  -22.5604  -14.6790   21.3028 O   0  0  0  0  0  0  0  0  0  0  0  0
  -29.6869  -23.2993   18.6903 O   0  0  0  0  0  0  0  0  0  0  0  0
  -27.4564  -25.9845   17.2726 O   0  0  0  0  0  0  0  0  0  0  0  0
  -25.6631  -27.0899   21.5250 O   0  0  0  0  0  0  0  0  0  0  0  0
  -31.7821  -14.9844   20.2495 O   0  0  0  0  0  0  0  0  0  0  0  0
  -21.6051   -6.9661   21.7340 O   0  0  0  0  0  0  0  0  0  0  0  0
  -26.5029  -20.7563   23.8768 O   0  0  0  0  0  0  0  0  0  1  0  0
  -24.0704   -2.9611   24.6126 F   0  0  0  0  0  0  0  0  0  0  0  0
  -20.5561   -6.0966   24.1394 F   0  0  0  0  0  0  0  0  0  0  0  0
  1  2  1  0  0  0  0
  1  5  2  0  0  0  0
  2  6  2  0  0  0  0
  3  8  2  0  0  0  0
  3 16  1  0  0  0  0
  4  9  1  0  0  0  0
  4 16  2  0  0  0  0
  5 18  1  0  0  0  0
  6 20  1  0  0  0  0
  7 10  2  0  0  0  0
  7 19  1  0  0  0  0
  8 22  1  0  0  0  0
  9 22  2  0  0  0  0
 10 23  1  0  0  0  0
 11 12  2  0  0  0  0
 11 24  1  0  0  0  0
 12 25  1  0  0  0  0
 13 21  1  0  0  0  0
 13 23  2  0  0  0  0
 14 25  2  0  0  0  0
 14 26  1  0  0  0  0
 15 28  1  0  0  0  0
 15 29  2  0  0  0  0
 16 27  1  0  0  0  0
 17 27  1  0  0  0  0
 17 30  2  0  0  0  0
 17 31  1  0  0  0  0
 18 20  2  0  0  0  0
 18 36  1  0  0  0  0
 19 21  2  0  0  0  0
 19 37  1  0  0  0  0
 20 45  1  0  0  0  0
 21 38  1  0  0  0  0
 22 80  1  0  0  0  0
 23 81  1  0  0  0  0
 24 26  2  0  0  0  0
 24 80  1  0  0  0  0
 25 82  1  0  0  0  0
 26 83  1  0  0  0  0
 27 63  2  0  0  0  0
 28 55  1  0  0  0  0
 28 64  2  0  0  0  0
 29 59  1  0  0  0  0
 29 65  1  0  0  0  0
 30 66  1  0  0  0  0
 30 69  1  0  0  0  0
 31 70  1  0  0  0  0
 31 75  2  0  0  0  0
 32 46  1  0  0  0  0
 32 71  1  0  0  0  0
 32 76  2  0  0  0  0
 33 60  1  0  0  0  0
 33 67  1  0  0  0  0
 33 77  2  0  0  0  0
 34 61  1  0  0  0  0
 34 72  1  0  0  0  0
 34 78  2  0  0  0  0
 35 68  1  0  0  0  0
 35 73  1  0  0  0  0
 35 79  2  0  0  0  0
 36 39  1  0  0  0  0
 37 46  1  0  0  0  0
 38 67  1  0  0  0  0
 39 41  1  0  0  0  0
 40 42  1  0  0  0  0
 40 43  1  0  0  0  0
 41 45  1  0  0  0  0
 42 47  1  0  0  0  0
 43 68  1  0  0  0  0
 44 47  1  0  0  0  0
 44 68  1  0  0  0  0
 45 71  1  0  0  0  0
 46 67  1  0  0  0  0
 47 66  1  0  0  0  0
 48 59  1  0  0  0  0
 49 61  1  0  0  0  0
 50 62  1  0  0  0  0
 51 62  1  0  0  0  0
 52 62  1  0  0  0  0
 53 65  1  0  0  0  0
 54 74  1  0  0  0  0
 55 58  1  0  0  0  0
 56 57  1  0  0  0  0
 56 59  1  0  0  0  0
 57 73  1  0  0  0  0
 58 81  1  0  0  0  0
 60 62  1  0  0  0  0
 60 72  1  0  0  0  0
 61 74  1  0  0  0  0
 63 66  1  0  0  0  0
 64 65  1  0  0  0  0
M  CHG  1  74   1
M  ISO  4  35 100  58 101  73 100  81 101
M  END
> <Batch ID>
0045

> <Smiles>
CNC(C)C(=O)NC(C(=O)N1Cc2cc([101O:1][101CH2:1]Cc3cc(C(C)CC[100NH:0][100C:0](=O)N4CCCC(n5nc(-c6ccc(Oc7ccc(F)cc7F)cc6)c(C(N)=O)c5N)C4)n(C)n3)ccc2CC1C(=O)NC1CCCc2ccccc21)C(C)(C)C

> <Shape>
0.263

> <Color>
0.208

> <Negative vol penalty>
0.000

$$$$

  -OEChem-04052317193D

 85 93  0     1  0  0  0  0  0999 V2000
  -16.9969  -30.2968   24.3742 C   0  0  0  0  0  0  0  0  0  0  0  0
  -18.3760  -30.3838   24.5346 C   0  0  0  0  0  0  0  0  0  0  0  0
  -29.1849  -17.4379   19.0215 C   0  0  0  0  0  0  0  0  0  0  0  0
  -29.6023  -17.9948   21.3351 C   0  0  0  0  0  0  0  0  0  0  0  0
  -16.4568  -29.3679   23.4857 C   0  0  0  0  0  0  0  0  0  0  0  0
  -19.2159  -29.5410   23.8074 C   0  0  0  0  0  0  0  0  0  0  0  0
  -24.7670  -30.8876   21.5987 C   0  0  0  0  0  0  0  0  0  0  0  0
  -29.8377  -16.2179   19.1974 C   0  0  0  0  0  0  0  0  0  0  0  0
  -30.2551  -16.7748   21.5110 C   0  0  0  0  0  0  0  0  0  0  0  0
  -26.0527  -30.6258   22.0698 C   0  0  0  0  0  0  0  0  0  0  0  0
  -29.1379  -13.1863   20.5212 C   0  0  0  0  0  0  0  0  0  0  0  0
  -28.5326  -12.0453   19.9946 C   0  0  0  0  0  0  0  0  0  0  0  0
  -26.1653  -28.6721   20.6593 C   0  0  0  0  0  0  0  0  0  0  0  0
  -30.4709  -11.6580   18.6054 C   0  0  0  0  0  0  0  0  0  0  0  0
  -30.9130  -24.9499   26.2012 C   0  0  0  0  0  0  0  0  0  0  0  0
  -29.0672  -18.3264   20.0904 C   0  0  0  0  0  0  0  0  0  0  0  0
  -27.0231  -19.8527   20.0927 C   0  0  0  0  0  0  0  0  0  0  0  0
  -17.2909  -28.5200   22.7401 C   0  0  0  0  0  0  0  0  0  0  0  0
  -24.1654  -30.0361   20.6609 C   0  0  0  0  0  0  0  0  0  0  0  0
  -18.6864  -28.5990   22.9092 C   0  0  0  0  0  0  0  0  0  0  0  0
  -24.8727  -28.9267   20.1759 C   0  0  0  0  0  0  0  0  0  0  0  0
  -29.9120  -25.8172   25.7943 C   0  0  0  0  0  0  0  0  0  0  0  0
  -29.9780  -26.3270   24.5024 C   0  0  0  0  0  0  0  0  0  0  0  0
  -31.0281  -25.9591   23.6686 C   0  0  0  0  0  0  0  0  0  0  0  0
  -30.3728  -15.8863   20.4421 C   0  0  0  0  0  0  0  0  0  0  0  0
  -26.7510  -29.5163   21.6023 C   0  0  0  0  0  0  0  0  0  0  0  0
  -30.4098  -13.5632   20.0898 C   0  0  0  0  0  0  0  0  0  0  0  0
  -29.1990  -11.2812   19.0368 C   0  0  0  0  0  0  0  0  0  0  0  0
  -31.0763  -12.7990   19.1320 C   0  0  0  0  0  0  0  0  0  0  0  0
  -28.3934  -19.5871   19.9092 C   0  0  0  0  0  0  0  0  0  0  0  0
  -31.9793  -25.0856   24.1707 C   0  0  0  0  0  0  0  0  0  0  0  0
  -26.8894  -21.1872   19.7965 C   0  0  0  0  0  0  0  0  0  0  0  0
  -25.9657  -18.9719   20.4950 C   0  0  0  0  0  0  0  0  0  0  0  0
  -21.5750  -28.1941   20.6408 C   0  0  0  0  0  0  0  0  0  0  0  0
  -22.3667  -27.7845   17.5219 C   0  0  0  0  0  0  0  0  0  0  0  0
  -24.7878  -27.8315   15.1172 C   0  0  0  0  0  0  0  0  0  0  0  0
  -30.7090  -25.7962   19.9301 C   0  0  0  0  0  0  0  0  0  0  0  0
  -16.6589  -27.4994   21.8271 C   0  0  0  0  0  0  0  0  0  0  0  0
  -22.7881  -30.3473   20.1427 C   0  0  0  0  0  0  0  0  0  0  0  0
  -24.2795  -27.9930   19.1538 C   0  0  0  0  0  0  0  0  0  0  0  0
  -17.6334  -26.8998   20.8166 C   0  0  0  0  0  0  0  0  0  0  0  0
  -28.8415  -24.6440   17.1263 C   0  0  0  0  0  0  0  0  0  0  0  0
  -18.9354  -26.4996   21.5033 C   0  0  0  0  0  0  0  0  0  0  0  0
  -28.3912  -23.2413   17.5381 C   0  0  0  0  0  0  0  0  0  0  0  0
  -30.2422  -24.9621   17.6447 C   0  0  0  0  0  0  0  0  0  0  0  0
  -29.9722  -23.3722   19.5084 C   0  0  0  0  0  0  0  0  0  0  0  0
  -19.6313  -27.7191   22.1199 C   0  0  1  0  0  0  0  0  0  0  0  0
  -22.0740  -29.1256   19.5727 C   0  0  1  0  0  0  0  0  0  0  0  0
  -28.5431  -23.0267   19.0561 C   0  0  2  0  0  0  0  0  0  0  0  0
  -27.7719  -25.0647   26.8622 C   0  0  0  0  0  0  0  0  0  0  0  0
  -34.4233  -25.3765   23.6924 C   0  0  0  0  0  0  0  0  0  0  0  0
  -25.1397  -27.4150   12.6676 C   0  0  0  0  0  0  0  0  0  0  0  0
  -22.2693  -24.7761   18.0219 C   0  0  0  0  0  0  0  0  0  0  0  0
  -23.5243  -24.4499   15.8802 C   0  0  0  0  0  0  0  0  0  0  0  0
  -21.2645  -25.5060   15.8511 C   0  0  0  0  0  0  0  0  0  0  0  0
  -25.6504  -30.6234   14.6479 C   0  0  0  0  0  0  0  0  0  0  0  0
  -28.8108  -26.1764   26.7310 C   0  0  0  0  0  0  0  0  0  0  0  0
  -28.9138  -27.2749   24.0099 C   0  0  0  0  0  0  0  0  0  0  0  0
  -31.1259  -26.4875   22.2769 C   0  0  0  0  0  0  0  0  0  0  0  0
  -33.1310  -24.6551   23.3223 C   0  0  0  0  0  0  0  0  0  0  0  0
  -29.3621  -28.7374   23.9704 C   0  0  0  0  0  0  0  0  0  0  0  0
  -28.3101  -29.6760   23.3911 C   0  0  0  0  0  0  0  0  0  1  0  0
  -23.2310  -26.8113   16.7573 C   0  0  1  0  0  0  0  0  0  0  0  0
  -24.8203  -28.4528   13.7325 C   0  0  2  0  0  0  0  0  0  0  0  0
  -22.5830  -25.4021   16.6483 C   0  0  0  0  0  0  0  0  0  0  0  0
  -31.9487  -24.5696   25.4199 N   0  0  0  0  0  0  0  0  0  0  0  0
  -29.0809  -20.6661   19.5260 N   0  0  0  0  0  0  0  0  0  0  0  0
  -28.1389  -21.6227   19.4662 N   0  0  0  0  0  0  0  0  0  0  0  0
  -22.9276  -28.3361   18.6825 N   0  0  0  0  0  0  0  0  0  0  0  0
  -30.3187  -24.7398   19.0907 N   0  0  0  0  0  0  0  0  0  0  0  0
  -25.8260  -22.0188   19.7889 N   0  0  0  0  0  0  0  0  0  0  0  0
  -26.2774  -17.6315   20.7606 N   0  0  0  0  0  0  0  0  0  0  0  0
  -20.3038  -28.4889   21.0954 N   0  0  0  0  0  0  0  0  0  0  0  0
  -23.5142  -27.4398   15.4715 N   0  0  0  0  0  0  0  0  0  0  0  0
  -30.7493  -25.5025   21.2876 N   0  0  0  0  0  0  0  0  0  0  0  0
  -25.8542  -29.5242   13.6696 N   0  3  0  0  0  0  0  0  0  0  0  0
  -24.7768  -19.3581   20.5995 O   0  0  0  0  0  0  0  0  0  0  0  0
  -22.2896  -27.2751   21.0232 O   0  0  0  0  0  0  0  0  0  0  0  0
  -21.2383  -28.0512   17.1010 O   0  0  0  0  0  0  0  0  0  0  0  0
  -25.7926  -27.7029   15.8133 O   0  0  0  0  0  0  0  0  0  0  0  0
  -30.9949  -26.9196   19.5020 O   0  0  0  0  0  0  0  0  0  0  0  0
  -31.0098  -14.6958   20.6141 O   0  0  0  0  0  0  0  0  0  0  0  0
  -28.0059  -29.2581   22.0610 O   0  0  0  0  0  0  0  0  0  1  0  0
  -28.6182  -10.1846   18.5324 F   0  0  0  0  0  0  0  0  0  0  0  0
  -32.2988  -13.1555   18.7146 F   0  0  0  0  0  0  0  0  0  0  0  0
  1  2  1  0  0  0  0
  1  5  2  0  0  0  0
  2  6  2  0  0  0  0
  3  8  2  0  0  0  0
  3 16  1  0  0  0  0
  4  9  1  0  0  0  0
  4 16  2  0  0  0  0
  5 18  1  0  0  0  0
  6 20  1  0  0  0  0
  7 10  2  0  0  0  0
  7 19  1  0  0  0  0
  8 25  1  0  0  0  0
  9 25  2  0  0  0  0
 10 26  1  0  0  0  0
 11 12  2  0  0  0  0
 11 27  1  0  0  0  0
 12 28  1  0  0  0  0
 13 21  1  0  0  0  0
 13 26  2  0  0  0  0
 14 28  2  0  0  0  0
 14 29  1  0  0  0  0
 15 22  1  0  0  0  0
 15 66  2  0  0  0  0
 16 30  1  0  0  0  0
 17 30  1  0  0  0  0
 17 32  2  0  0  0  0
 17 33  1  0  0  0  0
 18 20  2  0  0  0  0
 18 38  1  0  0  0  0
 19 21  2  0  0  0  0
 19 39  1  0  0  0  0
 20 47  1  0  0  0  0
 21 40  1  0  0  0  0
 22 23  2  0  0  0  0
 22 57  1  0  0  0  0
 23 24  1  0  0  0  0
 23 58  1  0  0  0  0
 24 31  2  0  0  0  0
 24 59  1  0  0  0  0
 25 82  1  0  0  0  0
 26 83  1  0  0  0  0
 27 29  2  0  0  0  0
 27 82  1  0  0  0  0
 28 84  1  0  0  0  0
 29 85  1  0  0  0  0
 30 67  2  0  0  0  0
 31 60  1  0  0  0  0
 31 66  1  0  0  0  0
 32 68  1  0  0  0  0
 32 71  1  0  0  0  0
 33 72  1  0  0  0  0
 33 77  2  0  0  0  0
 34 48  1  0  0  0  0
 34 73  1  0  0  0  0
 34 78  2  0  0  0  0
 35 63  1  0  0  0  0
 35 69  1  0  0  0  0
 35 79  2  0  0  0  0
 36 64  1  0  0  0  0
 36 74  1  0  0  0  0
 36 80  2  0  0  0  0
 37 70  1  0  0  0  0
 37 75  1  0  0  0  0
 37 81  2  0  0  0  0
 38 41  1  0  0  0  0
 39 48  1  0  0  0  0
 40 69  1  0  0  0  0
 41 43  1  0  0  0  0
 42 44  1  0  0  0  0
 42 45  1  0  0  0  0
 43 47  1  0  0  0  0
 44 49  1  0  0  0  0
 45 70  1  0  0  0  0
 46 49  1  0  0  0  0
 46 70  1  0  0  0  0
 47 73  1  0  0  0  0
 48 69  1  0  0  0  0
 49 68  1  0  0  0  0
 50 57  1  0  0  0  0
 51 60  1  0  0  0  0
 52 64  1  0  0  0  0
 53 65  1  0  0  0  0
 54 65  1  0  0  0  0
 55 65  1  0  0  0  0
 56 76  1  0  0  0  0
 58 61  1  0  0  0  0
 59 75  1  0  0  0  0
 61 62  1  0  0  0  0
 62 83  1  0  0  0  0
 63 65  1  0  0  0  0
 63 74  1  0  0  0  0
 64 76  1  0  0  0  0
 67 68  1  0  0  0  0
M  CHG  1  76   1
M  ISO  4  37 100  62 101  75 100  83 101
M  END
> <Batch ID>
0045

> <Smiles>
CCc1cnc(CC)c(C[100NH:0][100C:0](=O)N2CCCC(n3nc(-c4ccc(Oc5ccc(F)cc5F)cc4)c(C(N)=O)c3N)C2)c1CC[101CH2:1][101O:1]c1ccc2c(c1)CN(C(=O)C(NC(=O)C(C)NC)C(C)(C)C)C(C(=O)NC1CCCc3ccccc31)C2

> <Shape>
0.278

> <Color>
0.064

> <Negative vol penalty>
0.000

$$$$

  -OEChem-04052317193D

 81 89  0     1  0  0  0  0  0999 V2000
  -26.1926  -19.2884   14.3294 C   0  0  0  0  0  0  0  0  0  0  0  0
  -27.0888  -18.4610   14.9984 C   0  0  0  0  0  0  0  0  0  0  0  0
  -24.8885  -27.5582   20.5692 C   0  0  0  0  0  0  0  0  0  0  0  0
  -27.0950  -27.9225   19.6549 C   0  0  0  0  0  0  0  0  0  0  0  0
  -25.0382  -19.7299   14.9747 C   0  0  0  0  0  0  0  0  0  0  0  0
  -26.8317  -18.0755   16.3136 C   0  0  0  0  0  0  0  0  0  0  0  0
  -28.2105  -12.7040   18.9121 C   0  0  0  0  0  0  0  0  0  0  0  0
  -24.7517  -28.9294   20.7854 C   0  0  0  0  0  0  0  0  0  0  0  0
  -26.9582  -29.2937   19.8711 C   0  0  0  0  0  0  0  0  0  0  0  0
  -29.2660  -12.3005   19.7286 C   0  0  0  0  0  0  0  0  0  0  0  0
  -23.9660  -32.2973   21.9093 C   0  0  0  0  0  0  0  0  0  0  0  0
  -23.4493  -32.7136   23.1362 C   0  0  0  0  0  0  0  0  0  0  0  0
  -27.8977  -12.6856   21.6776 C   0  0  0  0  0  0  0  0  0  0  0  0
  -25.2829  -31.6295   24.2763 C   0  0  0  0  0  0  0  0  0  0  0  0
  -31.0211  -15.4940   22.1063 C   0  0  0  0  0  0  0  0  0  0  0  0
  -26.0602  -27.0547   20.0040 C   0  0  0  0  0  0  0  0  0  0  0  0
  -25.8424  -24.9194   18.6253 C   0  0  0  0  0  0  0  0  0  0  0  0
  -24.7620  -19.3418   16.2952 C   0  0  0  0  0  0  0  0  0  0  0  0
  -26.9921  -13.1124   19.4736 C   0  0  0  0  0  0  0  0  0  0  0  0
  -25.6732  -18.5134   16.9776 C   0  0  0  0  0  0  0  0  0  0  0  0
  -26.8274  -13.0914   20.8659 C   0  0  0  0  0  0  0  0  0  0  0  0
  -25.7865  -29.7971   20.4363 C   0  0  0  0  0  0  0  0  0  0  0  0
  -29.1107  -12.2940   21.1117 C   0  0  0  0  0  0  0  0  0  0  0  0
  -25.1411  -31.5471   21.8659 C   0  0  0  0  0  0  0  0  0  0  0  0
  -24.1077  -32.3797   24.3197 C   0  0  0  0  0  0  0  0  0  0  0  0
  -25.7996  -31.2132   23.0493 C   0  0  0  0  0  0  0  0  0  0  0  0
  -26.2023  -25.6384   19.7809 C   0  0  0  0  0  0  0  0  0  0  0  0
  -32.0454  -14.8496   22.8256 C   0  0  0  0  0  0  0  0  0  0  0  0
  -31.5855  -16.6742   21.6878 C   0  0  0  0  0  0  0  0  0  0  0  0
  -26.1769  -23.6186   18.9122 C   0  0  0  0  0  0  0  0  0  0  0  0
  -25.2580  -25.3859   17.4020 C   0  0  0  0  0  0  0  0  0  0  0  0
  -25.3161  -15.8133   19.4746 C   0  0  0  0  0  0  0  0  0  0  0  0
  -29.8353  -19.9897   20.8423 C   0  0  0  0  0  0  0  0  0  0  0  0
  -23.1117  -13.9878   21.0011 C   0  0  0  0  0  0  0  0  0  0  0  0
  -22.4476  -11.2387   22.9112 C   0  0  0  0  0  0  0  0  0  0  0  0
  -23.5249  -19.8828   16.9671 C   0  0  0  0  0  0  0  0  0  0  0  0
  -25.8543  -13.5193   18.5780 C   0  0  0  0  0  0  0  0  0  0  0  0
  -25.5328  -13.5011   21.5175 C   0  0  0  0  0  0  0  0  0  0  0  0
  -23.1393  -19.1248   18.2348 C   0  0  0  0  0  0  0  0  0  0  0  0
  -27.5389  -21.4408   23.2605 C   0  0  0  0  0  0  0  0  0  0  0  0
  -24.3635  -18.9031   19.1174 C   0  0  0  0  0  0  0  0  0  0  0  0
  -26.9788  -22.6269   22.4766 C   0  0  0  0  0  0  0  0  0  0  0  0
  -29.0065  -21.1888   22.9248 C   0  0  0  0  0  0  0  0  0  0  0  0
  -28.7079  -22.1860   20.6796 C   0  0  0  0  0  0  0  0  0  0  0  0
  -25.4169  -18.0534   18.3964 C   0  0  1  0  0  0  0  0  0  0  0  0
  -24.8293  -14.4053   19.2792 C   0  0  1  0  0  0  0  0  0  0  0  0
  -27.2212  -22.4545   20.9669 C   0  0  2  0  0  0  0  0  0  0  0  0
  -20.5563  -10.0295   24.0328 C   0  0  0  0  0  0  0  0  0  0  0  0
  -23.0683  -16.1015   23.2012 C   0  0  0  0  0  0  0  0  0  0  0  0
  -21.9362  -14.4331   24.6855 C   0  0  0  0  0  0  0  0  0  0  0  0
  -20.8222  -15.1900   22.5858 C   0  0  0  0  0  0  0  0  0  0  0  0
  -33.8634  -17.6926   21.9850 C   0  0  0  0  0  0  0  0  0  0  0  0
  -22.9043   -8.7950   21.3054 C   0  0  0  0  0  0  0  0  0  0  0  0
  -31.9811  -13.5105   23.5158 C   0  0  0  0  0  0  0  0  0  0  0  0
  -31.0300  -17.7853   20.8938 C   0  0  0  0  0  0  0  0  0  0  0  0
  -30.3569  -18.8894   21.7318 C   0  0  0  0  0  0  0  0  0  0  0  0
  -32.3892  -12.3370   22.6225 C   0  0  0  0  0  0  0  0  0  0  0  0
  -31.4623  -12.1356   21.4293 C   0  0  0  0  0  0  0  0  0  1  0  0
  -22.8192  -13.6463   22.4422 C   0  0  1  0  0  0  0  0  0  0  0  0
  -21.4028  -10.1459   22.7748 C   0  0  2  0  0  0  0  0  0  0  0  0
  -22.1866  -14.8368   23.2168 C   0  0  0  0  0  0  0  0  0  0  0  0
  -26.7253  -24.8589   20.7312 N   0  0  0  0  0  0  0  0  0  0  0  0
  -33.1750  -15.5613   22.8637 N   0  0  0  0  0  0  0  0  0  0  0  0
  -32.8639  -16.6651   22.1630 N   0  0  0  0  0  0  0  0  0  0  0  0
  -26.6963  -23.6366   20.1732 N   0  0  0  0  0  0  0  0  0  0  0  0
  -24.4519  -13.8969   20.5996 N   0  0  0  0  0  0  0  0  0  0  0  0
  -29.1995  -21.0577   21.4757 N   0  0  0  0  0  0  0  0  0  0  0  0
  -26.0744  -22.4724   18.2063 N   0  0  0  0  0  0  0  0  0  0  0  0
  -24.9784  -26.7532   17.2738 N   0  0  0  0  0  0  0  0  0  0  0  0
  -25.0390  -16.6565   18.4156 N   0  0  0  0  0  0  0  0  0  0  0  0
  -21.9939  -12.4435   22.4173 N   0  0  0  0  0  0  0  0  0  0  0  0
  -22.0582   -8.8308   22.5260 N   0  3  0  0  0  0  0  0  0  0  0  0
  -24.9766  -24.6105   16.4569 O   0  0  0  0  0  0  0  0  0  0  0  0
  -25.8988  -16.1129   20.5103 O   0  0  0  0  0  0  0  0  0  0  0  0
  -29.9869  -19.8994   19.6212 O   0  0  0  0  0  0  0  0  0  0  0  0
  -22.1840  -14.3161   20.2572 O   0  0  0  0  0  0  0  0  0  0  0  0
  -23.5540  -11.0440   23.4096 O   0  0  0  0  0  0  0  0  0  0  0  0
  -25.6533  -31.1352   20.6469 O   0  0  0  0  0  0  0  0  0  0  0  0
  -30.1397  -11.9013   21.9110 O   0  0  0  0  0  0  0  0  0  1  0  0
  -23.6122  -32.7808   25.4977 F   0  0  0  0  0  0  0  0  0  0  0  0
  -26.9295  -30.4936   23.0138 F   0  0  0  0  0  0  0  0  0  0  0  0
  1  2  1  0  0  0  0
  1  5  2  0  0  0  0
  2  6  2  0  0  0  0
  3  8  2  0  0  0  0
  3 16  1  0  0  0  0
  4  9  1  0  0  0  0
  4 16  2  0  0  0  0
  5 18  1  0  0  0  0
  6 20  1  0  0  0  0
  7 10  2  0  0  0  0
  7 19  1  0  0  0  0
  8 22  1  0  0  0  0
  9 22  2  0  0  0  0
 10 23  1  0  0  0  0
 11 12  2  0  0  0  0
 11 24  1  0  0  0  0
 12 25  1  0  0  0  0
 13 21  1  0  0  0  0
 13 23  2  0  0  0  0
 14 25  2  0  0  0  0
 14 26  1  0  0  0  0
 15 28  1  0  0  0  0
 15 29  2  0  0  0  0
 16 27  1  0  0  0  0
 17 27  1  0  0  0  0
 17 30  2  0  0  0  0
 17 31  1  0  0  0  0
 18 20  2  0  0  0  0
 18 36  1  0  0  0  0
 19 21  2  0  0  0  0
 19 37  1  0  0  0  0
 20 45  1  0  0  0  0
 21 38  1  0  0  0  0
 22 78  1  0  0  0  0
 23 79  1  0  0  0  0
 24 26  2  0  0  0  0
 24 78  1  0  0  0  0
 25 80  1  0  0  0  0
 26 81  1  0  0  0  0
 27 62  2  0  0  0  0
 28 54  1  0  0  0  0
 28 63  2  0  0  0  0
 29 55  1  0  0  0  0
 29 64  1  0  0  0  0
 30 65  1  0  0  0  0
 30 68  1  0  0  0  0
 31 69  1  0  0  0  0
 31 73  2  0  0  0  0
 32 46  1  0  0  0  0
 32 70  1  0  0  0  0
 32 74  2  0  0  0  0
 33 56  1  0  0  0  0
 33 67  1  0  0  0  0
 33 75  2  0  0  0  0
 34 59  1  0  0  0  0
 34 66  1  0  0  0  0
 34 76  2  0  0  0  0
 35 60  1  0  0  0  0
 35 71  1  0  0  0  0
 35 77  2  0  0  0  0
 36 39  1  0  0  0  0
 37 46  1  0  0  0  0
 38 66  1  0  0  0  0
 39 41  1  0  0  0  0
 40 42  1  0  0  0  0
 40 43  1  0  0  0  0
 41 45  1  0  0  0  0
 42 47  1  0  0  0  0
 43 67  1  0  0  0  0
 44 47  1  0  0  0  0
 44 67  1  0  0  0  0
 45 70  1  0  0  0  0
 46 66  1  0  0  0  0
 47 65  1  0  0  0  0
 48 60  1  0  0  0  0
 49 61  1  0  0  0  0
 50 61  1  0  0  0  0
 51 61  1  0  0  0  0
 52 64  1  0  0  0  0
 53 72  1  0  0  0  0
 54 57  1  0  0  0  0
 55 56  1  0  0  0  0
 57 58  1  0  0  0  0
 58 79  1  0  0  0  0
 59 61  1  0  0  0  0
 59 71  1  0  0  0  0
 60 72  1  0  0  0  0
 62 65  1  0  0  0  0
 63 64  1  0  0  0  0
M  CHG  1  72   1
M  ISO  4  33 100  56 100  58 101  79 101
M  END
> <Batch ID>
0045

> <Smiles>
CNC(C)C(=O)NC(C(=O)N1Cc2cc([101O:1][101CH2:1]CCc3cc(C[100CH2:0][100C:0](=O)N4CCCC(n5nc(-c6ccc(Oc7ccc(F)cc7F)cc6)c(C(N)=O)c5N)C4)n(C)n3)ccc2CC1C(=O)NC1CCCc2ccccc21)C(C)(C)C

> <Shape>
0.226

> <Color>
0.074

> <Negative vol penalty>
0.000

$$$$

  -OEChem-04052317193D

 85 93  0     1  0  0  0  0  0999 V2000
  -33.5439  -18.7529   20.6957 C   0  0  0  0  0  0  0  0  0  0  0  0
  -32.5631  -19.5328   21.2999 C   0  0  0  0  0  0  0  0  0  0  0  0
  -28.6397  -26.6116   19.8422 C   0  0  0  0  0  0  0  0  0  0  0  0
  -26.6105  -25.5591   19.0600 C   0  0  0  0  0  0  0  0  0  0  0  0
  -33.2153  -17.9354   19.6151 C   0  0  0  0  0  0  0  0  0  0  0  0
  -31.2532  -19.4965   20.8231 C   0  0  0  0  0  0  0  0  0  0  0  0
  -24.4743  -20.0140   23.0802 C   0  0  0  0  0  0  0  0  0  0  0  0
  -29.3579  -25.4565   19.5334 C   0  0  0  0  0  0  0  0  0  0  0  0
  -27.3288  -24.4040   18.7510 C   0  0  0  0  0  0  0  0  0  0  0  0
  -23.2988  -20.7126   22.8081 C   0  0  0  0  0  0  0  0  0  0  0  0
  -30.6492  -23.9892   16.7742 C   0  0  0  0  0  0  0  0  0  0  0  0
  -31.8654  -24.1407   16.1083 C   0  0  0  0  0  0  0  0  0  0  0  0
  -21.4895  -25.5663   20.5866 C   0  0  0  0  0  0  0  0  0  0  0  0
  -22.8307  -19.2031   20.9857 C   0  0  0  0  0  0  0  0  0  0  0  0
  -33.0060  -23.0652   17.9466 C   0  0  0  0  0  0  0  0  0  0  0  0
  -22.5640  -24.7673   20.1520 C   0  0  0  0  0  0  0  0  0  0  0  0
  -27.2660  -26.6629   19.6056 C   0  0  0  0  0  0  0  0  0  0  0  0
  -26.2779  -28.9556   19.0814 C   0  0  0  0  0  0  0  0  0  0  0  0
  -31.8988  -17.8817   19.1310 C   0  0  0  0  0  0  0  0  0  0  0  0
  -24.8429  -18.9094   22.2989 C   0  0  0  0  0  0  0  0  0  0  0  0
  -30.9070  -18.6785   19.7342 C   0  0  0  0  0  0  0  0  0  0  0  0
  -24.0100  -18.4906   21.2516 C   0  0  0  0  0  0  0  0  0  0  0  0
  -28.7025  -24.3527   18.9878 C   0  0  0  0  0  0  0  0  0  0  0  0
  -22.4783  -20.3090   21.7589 C   0  0  0  0  0  0  0  0  0  0  0  0
  -30.6114  -23.3758   18.0265 C   0  0  0  0  0  0  0  0  0  0  0  0
  -33.0438  -23.6787   16.6944 C   0  0  0  0  0  0  0  0  0  0  0  0
  -31.7898  -22.9138   18.6126 C   0  0  0  0  0  0  0  0  0  0  0  0
  -26.5234  -27.8557   19.9249 C   0  0  0  0  0  0  0  0  0  0  0  0
  -20.4002  -24.7309   20.5415 C   0  0  0  0  0  0  0  0  0  0  0  0
  -25.5337  -29.8177   19.8491 C   0  0  0  0  0  0  0  0  0  0  0  0
  -26.6859  -29.1781   17.7250 C   0  0  0  0  0  0  0  0  0  0  0  0
  -27.3028  -18.2206   20.4074 C   0  0  0  0  0  0  0  0  0  0  0  0
  -21.9773  -28.9043   24.6061 C   0  0  0  0  0  0  0  0  0  0  0  0
  -25.8900  -15.3032   20.2849 C   0  0  0  0  0  0  0  0  0  0  0  0
  -23.0420  -13.4481   20.5927 C   0  0  0  0  0  0  0  0  0  0  0  0
  -31.6014  -17.0188   17.9303 C   0  0  0  0  0  0  0  0  0  0  0  0
  -26.1005  -18.1503   22.6222 C   0  0  0  0  0  0  0  0  0  0  0  0
  -24.3504  -17.2989   20.3958 C   0  0  0  0  0  0  0  0  0  0  0  0
  -30.1121  -16.7542   17.7243 C   0  0  0  0  0  0  0  0  0  0  0  0
  -24.7902  -31.1132   24.3864 C   0  0  0  0  0  0  0  0  0  0  0  0
  -29.3164  -18.0487   17.8583 C   0  0  0  0  0  0  0  0  0  0  0  0
  -25.5464  -30.6103   23.1574 C   0  0  0  0  0  0  0  0  0  0  0  0
  -24.1435  -29.9638   25.1531 C   0  0  0  0  0  0  0  0  0  0  0  0
  -23.9987  -28.6040   23.0912 C   0  0  0  0  0  0  0  0  0  0  0  0
  -29.4697  -18.6477   19.2616 C   0  0  1  0  0  0  0  0  0  0  0  0
  -26.6380  -17.3526   21.4381 C   0  0  1  0  0  0  0  0  0  0  0  0
  -24.6415  -29.7364   22.2709 C   0  0  2  0  0  0  0  0  0  0  0  0
  -16.9936  -26.8745   24.6176 C   0  0  0  0  0  0  0  0  0  0  0  0
  -22.1931  -11.0948   20.3960 C   0  0  0  0  0  0  0  0  0  0  0  0
  -25.9665  -15.5324   17.2433 C   0  0  0  0  0  0  0  0  0  0  0  0
  -24.2981  -13.6691   17.1305 C   0  0  0  0  0  0  0  0  0  0  0  0
  -26.5466  -13.2685   18.1338 C   0  0  0  0  0  0  0  0  0  0  0  0
  -22.2140  -13.3861   23.4334 C   0  0  0  0  0  0  0  0  0  0  0  0
  -18.9834  -24.9679   20.8733 C   0  0  0  0  0  0  0  0  0  0  0  0
  -21.1815  -28.0549   23.6473 C   0  0  0  0  0  0  0  0  0  0  0  0
  -18.5993  -24.6824   22.3457 C   0  0  0  0  0  0  0  0  0  0  0  0
  -20.0701  -22.2689   19.8765 C   0  0  0  0  0  0  0  0  0  0  0  0
  -17.5138  -27.2479   23.2467 C   0  0  0  0  0  0  0  0  0  0  0  0
  -19.7546  -27.8754   24.1330 C   0  0  0  0  0  0  0  0  0  0  0  0
  -19.3238  -25.5423   23.3768 C   0  0  0  0  0  0  0  0  0  0  0  0
  -20.8890  -21.0086   20.1340 C   0  0  0  0  0  0  0  0  0  1  0  0
  -24.8530  -14.6538   19.4006 C   0  0  1  0  0  0  0  0  0  0  0  0
  -22.7588  -12.1523   21.3311 C   0  0  2  0  0  0  0  0  0  0  0  0
  -25.4103  -14.3046   17.9918 C   0  0  0  0  0  0  0  0  0  0  0  0
  -22.1912  -23.5200   19.8530 N   0  0  0  0  0  0  0  0  0  0  0  0
  -25.9795  -28.0031   21.1359 N   0  0  0  0  0  0  0  0  0  0  0  0
  -20.8703  -23.5290   20.1002 N   0  0  0  0  0  0  0  0  0  0  0  0
  -25.3848  -29.2058   21.0589 N   0  0  0  0  0  0  0  0  0  0  0  0
  -25.5937  -16.5932   20.7474 N   0  0  0  0  0  0  0  0  0  0  0  0
  -23.3101  -29.1445   24.2715 N   0  0  0  0  0  0  0  0  0  0  0  0
  -24.9988  -31.0321   19.6007 N   0  0  0  0  0  0  0  0  0  0  0  0
  -27.4461  -28.1896   17.0853 N   0  0  0  0  0  0  0  0  0  0  0  0
  -28.6401  -17.9345   20.2089 N   0  0  0  0  0  0  0  0  0  0  0  0
  -24.3443  -13.5057   20.1433 N   0  0  0  0  0  0  0  0  0  0  0  0
  -21.7761  -12.3848   22.4271 N   0  3  0  0  0  0  0  0  0  0  0  0
  -18.9976  -26.9749   23.1865 N   0  3  1  0  0  0  0  0  0  0  0  0
  -26.3992  -30.2297   17.1043 O   0  0  0  0  0  0  0  0  0  0  0  0
  -26.6505  -19.0848   19.8336 O   0  0  0  0  0  0  0  0  0  0  0  0
  -21.4281  -29.3428   25.6202 O   0  0  0  0  0  0  0  0  0  0  0  0
  -26.9215  -14.6857   20.5611 O   0  0  0  0  0  0  0  0  0  0  0  0
  -22.1919  -14.3202   20.4276 O   0  0  0  0  0  0  0  0  0  0  0  0
  -29.4031  -23.2254   18.6860 O   0  0  0  0  0  0  0  0  0  0  0  0
  -21.3308  -20.9895   21.4907 O   0  0  0  0  0  0  0  0  0  1  0  0
  -34.2114  -23.8229   16.0541 F   0  0  0  0  0  0  0  0  0  0  0  0
  -31.7596  -22.3226   19.8148 F   0  0  0  0  0  0  0  0  0  0  0  0
  1  2  1  0  0  0  0
  1  5  2  0  0  0  0
  2  6  2  0  0  0  0
  3  8  2  0  0  0  0
  3 17  1  0  0  0  0
  4  9  1  0  0  0  0
  4 17  2  0  0  0  0
  5 19  1  0  0  0  0
  6 21  1  0  0  0  0
  7 10  2  0  0  0  0
  7 20  1  0  0  0  0
  8 23  1  0  0  0  0
  9 23  2  0  0  0  0
 10 24  1  0  0  0  0
 11 12  2  0  0  0  0
 11 25  1  0  0  0  0
 12 26  1  0  0  0  0
 13 16  1  0  0  0  0
 13 29  2  0  0  0  0
 14 22  1  0  0  0  0
 14 24  2  0  0  0  0
 15 26  2  0  0  0  0
 15 27  1  0  0  0  0
 16 65  2  0  0  0  0
 17 28  1  0  0  0  0
 18 28  1  0  0  0  0
 18 30  2  0  0  0  0
 18 31  1  0  0  0  0
 19 21  2  0  0  0  0
 19 36  1  0  0  0  0
 20 22  2  0  0  0  0
 20 37  1  0  0  0  0
 21 45  1  0  0  0  0
 22 38  1  0  0  0  0
 23 82  1  0  0  0  0
 24 83  1  0  0  0  0
 25 27  2  0  0  0  0
 25 82  1  0  0  0  0
 26 84  1  0  0  0  0
 27 85  1  0  0  0  0
 28 66  2  0  0  0  0
 29 54  1  0  0  0  0
 29 67  1  0  0  0  0
 30 68  1  0  0  0  0
 30 71  1  0  0  0  0
 31 72  1  0  0  0  0
 31 77  2  0  0  0  0
 32 46  1  0  0  0  0
 32 73  1  0  0  0  0
 32 78  2  0  0  0  0
 33 55  1  0  0  0  0
 33 70  1  0  0  0  0
 33 79  2  0  0  0  0
 34 62  1  0  0  0  0
 34 69  1  0  0  0  0
 34 80  2  0  0  0  0
 35 63  1  0  0  0  0
 35 74  1  0  0  0  0
 35 81  2  0  0  0  0
 36 39  1  0  0  0  0
 37 46  1  0  0  0  0
 38 69  1  0  0  0  0
 39 41  1  0  0  0  0
 40 42  1  0  0  0  0
 40 43  1  0  0  0  0
 41 45  1  0  0  0  0
 42 47  1  0  0  0  0
 43 70  1  0  0  0  0
 44 47  1  0  0  0  0
 44 70  1  0  0  0  0
 45 73  1  0  0  0  0
 46 69  1  0  0  0  0
 47 68  1  0  0  0  0
 48 58  1  0  0  0  0
 49 63  1  0  0  0  0
 50 64  1  0  0  0  0
 51 64  1  0  0  0  0
 52 64  1  0  0  0  0
 53 75  1  0  0  0  0
 54 56  1  0  0  0  0
 55 59  1  0  0  0  0
 56 60  1  0  0  0  0
 57 61  1  0  0  0  0
 57 67  1  0  0  0  0
 58 76  1  0  0  0  0
 59 76  1  0  0  0  0
 60 76  1  0  0  0  0
 61 83  1  0  0  0  0
 62 64  1  0  0  0  0
 62 74  1  0  0  0  0
 63 75  1  0  0  0  0
 65 67  1  0  0  0  0
 66 68  1  0  0  0  0
M  CHG  2  75   1  76   1
M  ISO  4  33 100  55 100  61 101  83 101
M  END
> <Batch ID>
0045

> <Smiles>
CCN(CCCc1ccnn1C[101CH2:1][101O:1]c1ccc2c(c1)CN(C(=O)C(NC(=O)C(C)NC)C(C)(C)C)C(C(=O)NC1CCCc3ccccc31)C2)C[100CH2:0][100C:0](=O)N1CCCC(n2nc(-c3ccc(Oc4ccc(F)cc4F)cc3)c(C(N)=O)c2N)C1

> <Shape>
0.206

> <Color>
0.059

> <Negative vol penalty>
0.000

$$$$

  -OEChem-04052317193D

 82 90  0     1  0  0  0  0  0999 V2000
  -29.3425  -30.8637   22.7229 C   0  0  0  0  0  0  0  0  0  0  0  0
  -28.8786  -29.6005   23.0757 C   0  0  0  0  0  0  0  0  0  0  0  0
  -23.0689   -9.8803   19.9282 C   0  0  0  0  0  0  0  0  0  0  0  0
  -23.8402   -9.8593   22.2176 C   0  0  0  0  0  0  0  0  0  0  0  0
  -29.5820  -31.1682   21.3835 C   0  0  0  0  0  0  0  0  0  0  0  0
  -28.6529  -28.6412   22.0891 C   0  0  0  0  0  0  0  0  0  0  0  0
  -30.4711  -24.0875   23.3549 C   0  0  0  0  0  0  0  0  0  0  0  0
  -22.3259   -8.7245   20.1678 C   0  0  0  0  0  0  0  0  0  0  0  0
  -23.0971   -8.7034   22.4573 C   0  0  0  0  0  0  0  0  0  0  0  0
  -29.7210  -23.3296   24.2532 C   0  0  0  0  0  0  0  0  0  0  0  0
  -19.8717   -7.8993   23.0662 C   0  0  0  0  0  0  0  0  0  0  0  0
  -19.1206   -7.8454   24.2403 C   0  0  0  0  0  0  0  0  0  0  0  0
  -28.8234  -22.0506   22.4153 C   0  0  0  0  0  0  0  0  0  0  0  0
  -20.3650   -5.8988   24.9470 C   0  0  0  0  0  0  0  0  0  0  0  0
  -29.8338  -18.3104   25.7295 C   0  0  0  0  0  0  0  0  0  0  0  0
  -23.8261  -10.4478   20.9531 C   0  0  0  0  0  0  0  0  0  0  0  0
  -24.1682  -12.9741   20.8619 C   0  0  0  0  0  0  0  0  0  0  0  0
  -29.3684  -30.2090   20.3810 C   0  0  0  0  0  0  0  0  0  0  0  0
  -30.3945  -23.8393   21.9769 C   0  0  0  0  0  0  0  0  0  0  0  0
  -28.8885  -28.9336   20.7349 C   0  0  0  0  0  0  0  0  0  0  0  0
  -29.5755  -22.8051   21.5019 C   0  0  0  0  0  0  0  0  0  0  0  0
  -22.3400   -8.1360   21.4324 C   0  0  0  0  0  0  0  0  0  0  0  0
  -28.8948  -22.3130   23.7832 C   0  0  0  0  0  0  0  0  0  0  0  0
  -20.8695   -6.9529   22.8325 C   0  0  0  0  0  0  0  0  0  0  0  0
  -19.3672   -6.8452   25.1807 C   0  0  0  0  0  0  0  0  0  0  0  0
  -21.1161   -5.9527   23.7729 C   0  0  0  0  0  0  0  0  0  0  0  0
  -24.5943  -11.6415   20.7060 C   0  0  0  0  0  0  0  0  0  0  0  0
  -29.7802  -17.2553   24.8630 C   0  0  0  0  0  0  0  0  0  0  0  0
  -25.2588  -13.7276   20.5024 C   0  0  0  0  0  0  0  0  0  0  0  0
  -27.7807  -18.2043   24.9087 C   0  0  0  0  0  0  0  0  0  0  0  0
  -22.9000  -13.4851   21.2934 C   0  0  0  0  0  0  0  0  0  0  0  0
  -29.4708  -25.5212   19.4428 C   0  0  0  0  0  0  0  0  0  0  0  0
  -30.5826  -22.9452   17.8148 C   0  0  0  0  0  0  0  0  0  0  0  0
  -31.3318  -19.6157   17.8221 C   0  0  0  0  0  0  0  0  0  0  0  0
  -30.7438  -14.7427   20.6758 C   0  0  0  0  0  0  0  0  0  0  0  0
  -29.5964  -30.5997   18.9422 C   0  0  0  0  0  0  0  0  0  0  0  0
  -31.2303  -24.6482   21.0232 C   0  0  0  0  0  0  0  0  0  0  0  0
  -29.4733  -22.4852   20.0337 C   0  0  0  0  0  0  0  0  0  0  0  0
  -29.6890  -29.4066   17.9944 C   0  0  0  0  0  0  0  0  0  0  0  0
  -29.5935  -12.3876   18.2660 C   0  0  0  0  0  0  0  0  0  0  0  0
  -28.5620  -28.4165   18.2708 C   0  0  0  0  0  0  0  0  0  0  0  0
  -28.1581  -12.0891   18.7024 C   0  0  0  0  0  0  0  0  0  0  0  0
  -30.5167  -12.5936   19.4649 C   0  0  0  0  0  0  0  0  0  0  0  0
  -28.6221  -13.3084   20.8697 C   0  0  0  0  0  0  0  0  0  0  0  0
  -28.6553  -27.8582   19.6960 C   0  0  1  0  0  0  0  0  0  0  0  0
  -30.6825  -24.6466   19.5994 C   0  0  1  0  0  0  0  0  0  0  0  0
  -27.6420  -13.1484   19.6949 C   0  0  2  0  0  0  0  0  0  0  0  0
  -26.3519  -18.4869   24.6234 C   0  0  0  0  0  0  0  0  0  0  0  0
  -32.1876  -17.7859   16.3332 C   0  0  0  0  0  0  0  0  0  0  0  0
  -27.8676  -22.8057   16.4296 C   0  0  0  0  0  0  0  0  0  0  0  0
  -28.4343  -20.4768   15.7062 C   0  0  0  0  0  0  0  0  0  0  0  0
  -29.8263  -22.3956   14.9297 C   0  0  0  0  0  0  0  0  0  0  0  0
  -33.6808  -19.1425   19.5591 C   0  0  0  0  0  0  0  0  0  0  0  0
  -30.8005  -16.2877   24.4515 C   0  0  0  0  0  0  0  0  0  0  0  0
  -31.6405  -16.6952   23.2110 C   0  0  0  0  0  0  0  0  0  0  0  0
  -28.1823  -20.0817   26.5578 C   0  0  0  0  0  0  0  0  0  0  0  0
  -30.8165  -16.8781   21.9383 C   0  0  0  0  0  0  0  0  0  0  0  0
  -28.7019  -21.3871   25.9653 C   0  0  0  0  0  0  0  0  0  1  0  0
  -29.9863  -21.6429   17.3379 C   0  0  1  0  0  0  0  0  0  0  0  0
  -32.5581  -18.8581   17.3461 C   0  0  2  0  0  0  0  0  0  0  0  0
  -29.0288  -21.8373   16.1284 C   0  0  0  0  0  0  0  0  0  0  0  0
  -25.8571  -11.5503   20.2803 N   0  0  0  0  0  0  0  0  0  0  0  0
  -28.5832  -18.8796   25.7379 N   0  0  0  0  0  0  0  0  0  0  0  0
  -26.2338  -12.8353   20.1656 N   0  0  0  0  0  0  0  0  0  0  0  0
  -28.4982  -17.2131   24.3702 N   0  3  0  0  0  0  0  0  0  0  0  0
  -30.3053  -23.3082   19.1404 N   0  0  0  0  0  0  0  0  0  0  0  0
  -29.9709  -13.6115   20.3660 N   0  0  0  0  0  0  0  0  0  0  0  0
  -25.4693  -15.0598   20.4444 N   0  0  0  0  0  0  0  0  0  0  0  0
  -21.8895  -12.5722   21.6247 N   0  0  0  0  0  0  0  0  0  0  0  0
  -29.6856  -26.8450   19.7755 N   0  0  0  0  0  0  0  0  0  0  0  0
  -31.1106  -20.7519   17.0728 N   0  0  0  0  0  0  0  0  0  0  0  0
  -30.1491  -15.6614   21.5320 N   0  0  0  0  0  0  0  0  0  0  0  0
  -33.2406  -18.2018   18.4969 N   0  3  0  0  0  0  0  0  0  0  0  0
  -22.6645  -14.7150   21.3668 O   0  0  0  0  0  0  0  0  0  0  0  0
  -28.4191  -25.0315   19.0478 O   0  0  0  0  0  0  0  0  0  0  0  0
  -31.2751  -23.6121   17.0420 O   0  0  0  0  0  0  0  0  0  0  0  0
  -30.6371  -19.2354   18.7620 O   0  0  0  0  0  0  0  0  0  0  0  0
  -31.8775  -14.9234   20.2187 O   0  0  0  0  0  0  0  0  0  0  0  0
  -21.6149   -7.0082   21.6667 O   0  0  0  0  0  0  0  0  0  0  0  0
  -28.1612  -21.5722   24.6578 O   0  0  0  0  0  0  0  0  0  1  0  0
  -18.6469   -6.7945   26.3088 F   0  0  0  0  0  0  0  0  0  0  0  0
  -22.0741   -5.0415   23.5544 F   0  0  0  0  0  0  0  0  0  0  0  0
  1  2  1  0  0  0  0
  1  5  2  0  0  0  0
  2  6  2  0  0  0  0
  3  8  2  0  0  0  0
  3 16  1  0  0  0  0
  4  9  1  0  0  0  0
  4 16  2  0  0  0  0
  5 18  1  0  0  0  0
  6 20  1  0  0  0  0
  7 10  2  0  0  0  0
  7 19  1  0  0  0  0
  8 22  1  0  0  0  0
  9 22  2  0  0  0  0
 10 23  1  0  0  0  0
 11 12  2  0  0  0  0
 11 24  1  0  0  0  0
 12 25  1  0  0  0  0
 13 21  1  0  0  0  0
 13 23  2  0  0  0  0
 14 25  2  0  0  0  0
 14 26  1  0  0  0  0
 15 28  2  0  0  0  0
 15 63  1  0  0  0  0
 16 27  1  0  0  0  0
 17 27  1  0  0  0  0
 17 29  2  0  0  0  0
 17 31  1  0  0  0  0
 18 20  2  0  0  0  0
 18 36  1  0  0  0  0
 19 21  2  0  0  0  0
 19 37  1  0  0  0  0
 20 45  1  0  0  0  0
 21 38  1  0  0  0  0
 22 79  1  0  0  0  0
 23 80  1  0  0  0  0
 24 26  2  0  0  0  0
 24 79  1  0  0  0  0
 25 81  1  0  0  0  0
 26 82  1  0  0  0  0
 27 62  2  0  0  0  0
 28 54  1  0  0  0  0
 28 65  1  0  0  0  0
 29 64  1  0  0  0  0
 29 68  1  0  0  0  0
 30 48  1  0  0  0  0
 30 63  1  0  0  0  0
 30 65  2  0  0  0  0
 31 69  1  0  0  0  0
 31 74  2  0  0  0  0
 32 46  1  0  0  0  0
 32 70  1  0  0  0  0
 32 75  2  0  0  0  0
 33 59  1  0  0  0  0
 33 66  1  0  0  0  0
 33 76  2  0  0  0  0
 34 60  1  0  0  0  0
 34 71  1  0  0  0  0
 34 77  2  0  0  0  0
 35 67  1  0  0  0  0
 35 72  1  0  0  0  0
 35 78  2  0  0  0  0
 36 39  1  0  0  0  0
 37 46  1  0  0  0  0
 38 66  1  0  0  0  0
 39 41  1  0  0  0  0
 40 42  1  0  0  0  0
 40 43  1  0  0  0  0
 41 45  1  0  0  0  0
 42 47  1  0  0  0  0
 43 67  1  0  0  0  0
 44 47  1  0  0  0  0
 44 67  1  0  0  0  0
 45 70  1  0  0  0  0
 46 66  1  0  0  0  0
 47 64  1  0  0  0  0
 49 60  1  0  0  0  0
 50 61  1  0  0  0  0
 51 61  1  0  0  0  0
 52 61  1  0  0  0  0
 53 73  1  0  0  0  0
 54 55  1  0  0  0  0
 55 57  1  0  0  0  0
 56 58  1  0  0  0  0
 56 63  1  0  0  0  0
 57 72  1  0  0  0  0
 58 80  1  0  0  0  0
 59 61  1  0  0  0  0
 59 71  1  0  0  0  0
 60 73  1  0  0  0  0
 62 64  1  0  0  0  0
M  CHG  2  65   1  73   1
M  ISO  4  35 100  58 101  72 100  80 101
M  END
> <Batch ID>
0045

> <Smiles>
CNC(C)C(=O)NC(C(=O)N1Cc2cc([101O:1][101CH2:1]Cn3cc(CCC[100NH:0][100C:0](=O)N4CCCC(n5nc(-c6ccc(Oc7ccc(F)cc7F)cc6)c(C(N)=O)c5N)C4)nc3C)ccc2CC1C(=O)NC1CCCc2ccccc21)C(C)(C)C

> <Shape>
0.253

> <Color>
0.193

> <Negative vol penalty>
0.000

$$$$

  -OEChem-04052317193D

 82 89  0     1  0  0  0  0  0999 V2000
  -28.6916  -17.5706   16.7456 C   0  0  0  0  0  0  0  0  0  0  0  0
  -29.7914  -18.0986   17.4142 C   0  0  0  0  0  0  0  0  0  0  0  0
  -23.0893   -9.8671   19.9402 C   0  0  0  0  0  0  0  0  0  0  0  0
  -23.7037   -9.9554   22.2751 C   0  0  0  0  0  0  0  0  0  0  0  0
  -28.2577  -18.1498   15.5539 C   0  0  0  0  0  0  0  0  0  0  0  0
  -30.4586  -19.2056   16.8909 C   0  0  0  0  0  0  0  0  0  0  0  0
  -31.5145  -22.6835   20.4172 C   0  0  0  0  0  0  0  0  0  0  0  0
  -22.3330   -8.7204   20.1826 C   0  0  0  0  0  0  0  0  0  0  0  0
  -22.9473   -8.8088   22.5175 C   0  0  0  0  0  0  0  0  0  0  0  0
  -32.6015  -22.4327   21.2534 C   0  0  0  0  0  0  0  0  0  0  0  0
  -23.2777   -5.4708   22.0942 C   0  0  0  0  0  0  0  0  0  0  0  0
  -23.8484   -4.4729   22.8842 C   0  0  0  0  0  0  0  0  0  0  0  0
  -33.9622  -23.9104   19.9177 C   0  0  0  0  0  0  0  0  0  0  0  0
  -22.0430   -4.6986   24.4737 C   0  0  0  0  0  0  0  0  0  0  0  0
  -23.7747  -10.4846   20.9865 C   0  0  0  0  0  0  0  0  0  0  0  0
  -24.1195  -13.0054   20.8013 C   0  0  0  0  0  0  0  0  0  0  0  0
  -28.9140  -19.2703   15.0207 C   0  0  0  0  0  0  0  0  0  0  0  0
  -31.6463  -23.5425   19.3167 C   0  0  0  0  0  0  0  0  0  0  0  0
  -30.0339  -19.7995   15.6902 C   0  0  0  0  0  0  0  0  0  0  0  0
  -32.8747  -24.1724   19.0705 C   0  0  0  0  0  0  0  0  0  0  0  0
  -22.2619   -8.1913   21.4712 C   0  0  0  0  0  0  0  0  0  0  0  0
  -33.8264  -23.0439   21.0021 C   0  0  0  0  0  0  0  0  0  0  0  0
  -22.0896   -6.0826   22.4939 C   0  0  0  0  0  0  0  0  0  0  0  0
  -23.2311   -4.0868   24.0739 C   0  0  0  0  0  0  0  0  0  0  0  0
  -21.4722   -5.6965   23.6837 C   0  0  0  0  0  0  0  0  0  0  0  0
  -24.5566  -11.6687   20.7366 C   0  0  0  0  0  0  0  0  0  0  0  0
  -25.2312  -13.7460   20.4816 C   0  0  0  0  0  0  0  0  0  0  0  0
  -22.8245  -13.5305   21.1217 C   0  0  0  0  0  0  0  0  0  0  0  0
  -31.3636  -23.2137   16.1678 C   0  0  0  0  0  0  0  0  0  0  0  0
  -30.5950  -14.7649   21.1670 C   0  0  0  0  0  0  0  0  0  0  0  0
  -31.7748  -26.4313   16.1868 C   0  0  0  0  0  0  0  0  0  0  0  0
  -32.9846  -29.1880   17.7942 C   0  0  0  0  0  0  0  0  0  0  0  0
  -28.4373  -19.8330   13.7051 C   0  0  0  0  0  0  0  0  0  0  0  0
  -30.4570  -23.8235   18.4398 C   0  0  0  0  0  0  0  0  0  0  0  0
  -33.0629  -25.1188   17.9141 C   0  0  0  0  0  0  0  0  0  0  0  0
  -28.9699  -21.2334   13.4128 C   0  0  0  0  0  0  0  0  0  0  0  0
  -29.7046  -12.3449   18.6023 C   0  0  0  0  0  0  0  0  0  0  0  0
  -30.4680  -21.3037   13.6915 C   0  0  0  0  0  0  0  0  0  0  0  0
  -28.2498  -12.0425   18.9592 C   0  0  0  0  0  0  0  0  0  0  0  0
  -30.5490  -12.5913   19.8498 C   0  0  0  0  0  0  0  0  0  0  0  0
  -28.5565  -13.3645   21.0973 C   0  0  0  0  0  0  0  0  0  0  0  0
  -30.7687  -21.0147   15.1672 C   0  0  1  0  0  0  0  0  0  0  0  0
  -30.8434  -24.3146   17.0481 C   0  0  1  0  0  0  0  0  0  0  0  0
  -27.6643  -13.1400   19.8650 C   0  0  2  0  0  0  0  0  0  0  0  0
  -33.2050  -31.6753   17.5448 C   0  0  0  0  0  0  0  0  0  0  0  0
  -35.9358  -20.4402   19.2832 C   0  0  0  0  0  0  0  0  0  0  0  0
  -36.9835  -23.9757   21.9031 C   0  0  0  0  0  0  0  0  0  0  0  0
  -34.0449  -26.0273   14.1884 C   0  0  0  0  0  0  0  0  0  0  0  0
  -34.8192  -28.3517   14.7042 C   0  0  0  0  0  0  0  0  0  0  0  0
  -32.5640  -27.9834   13.7036 C   0  0  0  0  0  0  0  0  0  0  0  0
  -31.3744  -29.6911   20.2259 C   0  0  0  0  0  0  0  0  0  0  0  0
  -32.0350  -14.9380   20.7546 C   0  0  0  0  0  0  0  0  0  0  0  0
  -36.0671  -17.7302   20.7254 C   0  0  0  0  0  0  0  0  0  0  0  0
  -36.8893  -21.5111   21.3811 C   0  0  0  0  0  0  0  0  0  0  0  0
  -32.6175  -16.2158   21.3311 C   0  0  0  0  0  0  0  0  0  0  0  0
  -34.6651  -17.6462   21.3212 C   0  0  0  0  0  0  0  0  0  0  0  0
  -32.9651  -27.3574   16.1200 C   0  0  1  0  0  0  0  0  0  0  0  0
  -32.3562  -30.5377   18.0909 C   0  0  2  0  0  0  0  0  0  0  0  0
  -36.1076  -20.3036   20.8016 C   0  0  2  0  0  0  0  0  0  0  0  0
  -36.1874  -22.8667   21.2255 C   0  0  1  0  0  0  0  0  0  1  0  0
  -36.8204  -18.9836   21.1981 C   0  0  2  0  0  0  0  0  0  0  0  0
  -33.5956  -27.4107   14.6998 C   0  0  0  0  0  0  0  0  0  0  0  0
  -25.8454  -11.5633   20.4020 N   0  0  0  0  0  0  0  0  0  0  0  0
  -26.2277  -12.8431   20.2535 N   0  0  0  0  0  0  0  0  0  0  0  0
  -31.8719  -25.3564   17.0818 N   0  0  0  0  0  0  0  0  0  0  0  0
  -29.9432  -13.6234   20.6995 N   0  0  0  0  0  0  0  0  0  0  0  0
  -25.4437  -15.0749   20.3762 N   0  0  0  0  0  0  0  0  0  0  0  0
  -21.7948  -12.6297   21.4259 N   0  0  0  0  0  0  0  0  0  0  0  0
  -30.4721  -22.1747   15.9800 N   0  0  0  0  0  0  0  0  0  0  0  0
  -32.5058  -28.6491   16.6187 N   0  0  0  0  0  0  0  0  0  0  0  0
  -32.2064  -30.7272   19.5615 N   0  3  0  0  0  0  0  0  0  0  0  0
  -34.0192  -16.3913   20.8628 N   0  3  0  0  0  0  0  0  0  0  0  0
  -22.5832  -14.7615   21.1217 O   0  0  0  0  0  0  0  0  0  0  0  0
  -32.4899  -23.3011   15.6928 O   0  0  0  0  0  0  0  0  0  0  0  0
  -30.0662  -15.6208   21.8811 O   0  0  0  0  0  0  0  0  0  0  0  0
  -30.7920  -26.6574   15.4764 O   0  0  0  0  0  0  0  0  0  0  0  0
  -33.8195  -28.6658   18.5295 O   0  0  0  0  0  0  0  0  0  0  0  0
  -38.1421  -18.9816   20.6614 O   0  0  0  0  0  0  0  0  0  0  0  0
  -21.5238   -7.0726   21.7081 O   0  0  0  0  0  0  0  0  0  0  0  0
  -34.8959  -22.7988   21.8215 O   0  0  0  0  0  0  0  0  0  1  0  0
  -23.7785   -3.1275   24.8317 F   0  0  0  0  0  0  0  0  0  0  0  0
  -20.3301   -6.2799   24.0723 F   0  0  0  0  0  0  0  0  0  0  0  0
  1  2  1  0  0  0  0
  1  5  2  0  0  0  0
  2  6  2  0  0  0  0
  3  8  2  0  0  0  0
  3 15  1  0  0  0  0
  4  9  1  0  0  0  0
  4 15  2  0  0  0  0
  5 17  1  0  0  0  0
  6 19  1  0  0  0  0
  7 10  2  0  0  0  0
  7 18  1  0  0  0  0
  8 21  1  0  0  0  0
  9 21  2  0  0  0  0
 10 22  1  0  0  0  0
 11 12  2  0  0  0  0
 11 23  1  0  0  0  0
 12 24  1  0  0  0  0
 13 20  1  0  0  0  0
 13 22  2  0  0  0  0
 14 24  2  0  0  0  0
 14 25  1  0  0  0  0
 15 26  1  0  0  0  0
 16 26  1  0  0  0  0
 16 27  2  0  0  0  0
 16 28  1  0  0  0  0
 17 19  2  0  0  0  0
 17 33  1  0  0  0  0
 18 20  2  0  0  0  0
 18 34  1  0  0  0  0
 19 42  1  0  0  0  0
 20 35  1  0  0  0  0
 21 79  1  0  0  0  0
 22 80  1  0  0  0  0
 23 25  2  0  0  0  0
 23 79  1  0  0  0  0
 24 81  1  0  0  0  0
 25 82  1  0  0  0  0
 26 63  2  0  0  0  0
 27 64  1  0  0  0  0
 27 67  1  0  0  0  0
 28 68  1  0  0  0  0
 28 73  2  0  0  0  0
 29 43  1  0  0  0  0
 29 69  1  0  0  0  0
 29 74  2  0  0  0  0
 30 52  1  0  0  0  0
 30 66  1  0  0  0  0
 30 75  2  0  0  0  0
 31 57  1  0  0  0  0
 31 65  1  0  0  0  0
 31 76  2  0  0  0  0
 32 58  1  0  0  0  0
 32 70  1  0  0  0  0
 32 77  2  0  0  0  0
 33 36  1  0  0  0  0
 34 43  1  0  0  0  0
 35 65  1  0  0  0  0
 36 38  1  0  0  0  0
 37 39  1  0  0  0  0
 37 40  1  0  0  0  0
 38 42  1  0  0  0  0
 39 44  1  0  0  0  0
 40 66  1  0  0  0  0
 41 44  1  0  0  0  0
 41 66  1  0  0  0  0
 42 69  1  0  0  0  0
 43 65  1  0  0  0  0
 44 64  1  0  0  0  0
 45 58  1  0  0  0  0
 46 59  1  0  0  0  0
 47 60  1  0  0  0  0
 48 62  1  0  0  0  0
 49 62  1  0  0  0  0
 50 62  1  0  0  0  0
 51 71  1  0  0  0  0
 52 55  1  0  0  0  0
 53 56  1  0  0  0  0
 53 61  1  0  0  0  0
 54 59  1  0  0  0  0
 54 60  1  0  0  0  0
 55 72  1  0  0  0  0
 56 72  1  0  0  0  0
 57 62  1  0  0  0  0
 57 70  1  0  0  0  0
 58 71  1  0  0  0  0
 59 61  1  0  0  0  0
 60 80  1  0  0  0  0
 61 78  1  0  0  0  0
 63 64  1  0  0  0  0
M  CHG  2  71   1  72   1
M  ISO  4  30 100  52 100  60 101  80 101
M  END
> <Batch ID>
0045

> <Smiles>
CNC(C)C(=O)NC(C(=O)N1Cc2cc([101O:1][101CH:1](C)CC(C)C(O)CCNC[100CH2:0][100C:0](=O)N3CCCC(n4nc(-c5ccc(Oc6ccc(F)cc6F)cc5)c(C(N)=O)c4N)C3)ccc2CC1C(=O)NC1CCCc2ccccc21)C(C)(C)C

> <Shape>
0.190

> <Color>
0.172

> <Negative vol penalty>
0.000

$$$$

  -OEChem-04052317193D

 84 92  0     1  0  0  0  0  0999 V2000
  -25.2661  -33.2201   26.0654 C   0  0  0  0  0  0  0  0  0  0  0  0
  -25.2552  -31.8645   26.3781 C   0  0  0  0  0  0  0  0  0  0  0  0
  -22.9387   -9.9086   19.9931 C   0  0  0  0  0  0  0  0  0  0  0  0
  -23.6739   -9.9234   22.2945 C   0  0  0  0  0  0  0  0  0  0  0  0
  -25.1037  -33.6306   24.7429 C   0  0  0  0  0  0  0  0  0  0  0  0
  -25.0807  -30.9187   25.3685 C   0  0  0  0  0  0  0  0  0  0  0  0
  -27.6191  -25.3539   25.0586 C   0  0  0  0  0  0  0  0  0  0  0  0
  -22.1463   -8.7906   20.2534 C   0  0  0  0  0  0  0  0  0  0  0  0
  -22.8815   -8.8053   22.5548 C   0  0  0  0  0  0  0  0  0  0  0  0
  -27.1399  -24.0851   25.3814 C   0  0  0  0  0  0  0  0  0  0  0  0
  -23.0441   -5.4655   22.0548 C   0  0  0  0  0  0  0  0  0  0  0  0
  -23.6102   -4.4284   22.7962 C   0  0  0  0  0  0  0  0  0  0  0  0
  -26.5289  -23.7355   23.0740 C   0  0  0  0  0  0  0  0  0  0  0  0
  -27.7042  -17.7093   22.6815 C   0  0  0  0  0  0  0  0  0  0  0  0
  -21.8991   -4.6987   24.4804 C   0  0  0  0  0  0  0  0  0  0  0  0
  -23.7025  -10.4750   21.0137 C   0  0  0  0  0  0  0  0  0  0  0  0
  -24.1471  -12.9820   20.8565 C   0  0  0  0  0  0  0  0  0  0  0  0
  -24.9367  -32.6889   23.7153 C   0  0  0  0  0  0  0  0  0  0  0  0
  -27.5467  -25.8282   23.7409 C   0  0  0  0  0  0  0  0  0  0  0  0
  -24.9145  -31.3170   24.0312 C   0  0  0  0  0  0  0  0  0  0  0  0
  -27.0102  -25.0097   22.7367 C   0  0  0  0  0  0  0  0  0  0  0  0
  -27.0653  -18.0948   23.8547 C   0  0  0  0  0  0  0  0  0  0  0  0
  -28.5410  -18.6052   22.0255 C   0  0  0  0  0  0  0  0  0  0  0  0
  -22.1177   -8.2389   21.5342 C   0  0  0  0  0  0  0  0  0  0  0  0
  -26.5921  -23.2768   24.3896 C   0  0  0  0  0  0  0  0  0  0  0  0
  -21.9057   -6.1192   22.5262 C   0  0  0  0  0  0  0  0  0  0  0  0
  -23.0377   -4.0450   24.0090 C   0  0  0  0  0  0  0  0  0  0  0  0
  -21.3332   -5.7358   23.7390 C   0  0  0  0  0  0  0  0  0  0  0  0
  -24.5217  -11.6296   20.7453 C   0  0  0  0  0  0  0  0  0  0  0  0
  -27.2947  -19.3770   24.3270 C   0  0  0  0  0  0  0  0  0  0  0  0
  -28.7042  -19.8647   22.5795 C   0  0  0  0  0  0  0  0  0  0  0  0
  -25.2724  -13.6809   20.4934 C   0  0  0  0  0  0  0  0  0  0  0  0
  -22.8941  -13.5553   21.2526 C   0  0  0  0  0  0  0  0  0  0  0  0
  -26.0923  -28.2662   22.3111 C   0  0  0  0  0  0  0  0  0  0  0  0
  -27.7704  -27.2468   19.7290 C   0  0  0  0  0  0  0  0  0  0  0  0
  -29.3756  -24.6864   18.1434 C   0  0  0  0  0  0  0  0  0  0  0  0
  -30.7905  -14.4820   20.7269 C   0  0  0  0  0  0  0  0  0  0  0  0
  -24.7175  -33.1823   22.3070 C   0  0  0  0  0  0  0  0  0  0  0  0
  -28.0924  -27.1888   23.4041 C   0  0  0  0  0  0  0  0  0  0  0  0
  -26.9279  -25.4641   21.3031 C   0  0  0  0  0  0  0  0  0  0  0  0
  -24.9131  -32.1024   21.2459 C   0  0  0  0  0  0  0  0  0  0  0  0
  -29.5830  -12.1056   18.3665 C   0  0  0  0  0  0  0  0  0  0  0  0
  -24.1904  -30.8209   21.6489 C   0  0  0  0  0  0  0  0  0  0  0  0
  -28.1304  -11.8771   18.7879 C   0  0  0  0  0  0  0  0  0  0  0  0
  -30.4955  -12.3095   19.5739 C   0  0  0  0  0  0  0  0  0  0  0  0
  -28.6102  -13.1393   20.9269 C   0  0  0  0  0  0  0  0  0  0  0  0
  -24.7525  -30.2597   22.9606 C   0  0  1  0  0  0  0  0  0  0  0  0
  -27.4986  -27.7708   22.1251 C   0  0  1  0  0  0  0  0  0  0  0  0
  -27.6423  -12.9843   19.7414 C   0  0  2  0  0  0  0  0  0  0  0  0
  -26.1676  -17.1395   24.5623 C   0  0  0  0  0  0  0  0  0  0  0  0
  -29.5924  -20.8672   21.9182 C   0  0  0  0  0  0  0  0  0  0  0  0
  -30.6157  -24.1474   16.0294 C   0  0  0  0  0  0  0  0  0  0  0  0
  -25.1279  -27.1499   18.2065 C   0  0  0  0  0  0  0  0  0  0  0  0
  -26.2578  -25.7387   16.4744 C   0  0  0  0  0  0  0  0  0  0  0  0
  -27.0528  -28.0649   16.8981 C   0  0  0  0  0  0  0  0  0  0  0  0
  -31.8446  -24.0078   19.6275 C   0  0  0  0  0  0  0  0  0  0  0  0
  -29.2282  -18.1986   20.7679 C   0  0  0  0  0  0  0  0  0  0  0  0
  -26.6279  -19.8519   25.5951 C   0  0  0  0  0  0  0  0  0  0  0  0
  -30.7063  -17.7968   20.9476 C   0  0  0  0  0  0  0  0  0  0  0  0
  -30.9299  -16.6486   21.9293 C   0  0  0  0  0  0  0  0  0  0  0  0
  -26.7540  -21.3593   25.7871 C   0  0  0  0  0  0  0  0  0  1  0  0
  -27.5193  -26.2644   18.6106 C   0  0  1  0  0  0  0  0  0  0  0  0
  -30.7354  -24.6117   17.4726 C   0  0  2  0  0  0  0  0  0  0  0  0
  -26.4891  -26.7964   17.5747 C   0  0  0  0  0  0  0  0  0  0  0  0
  -25.7860  -11.4761   20.3429 N   0  0  0  0  0  0  0  0  0  0  0  0
  -28.1006  -20.2751   23.7174 N   0  0  0  0  0  0  0  0  0  0  0  0
  -26.2157  -12.7412   20.1980 N   0  0  0  0  0  0  0  0  0  0  0  0
  -27.4690  -26.8048   21.0250 N   0  0  0  0  0  0  0  0  0  0  0  0
  -29.9775  -13.3739   20.4368 N   0  0  0  0  0  0  0  0  0  0  0  0
  -25.5371  -15.0015   20.4011 N   0  0  0  0  0  0  0  0  0  0  0  0
  -21.8429  -12.6933   21.5932 N   0  0  0  0  0  0  0  0  0  0  0  0
  -26.0093  -29.5826   22.7232 N   0  0  0  0  0  0  0  0  0  0  0  0
  -28.8261  -25.9472   18.0450 N   0  0  0  0  0  0  0  0  0  0  0  0
  -30.2204  -15.4481   21.5469 N   0  0  0  0  0  0  0  0  0  0  0  0
  -31.6206  -23.6593   18.2009 N   0  3  0  0  0  0  0  0  0  0  0  0
  -22.7071  -14.7952   21.2873 O   0  0  0  0  0  0  0  0  0  0  0  0
  -25.1520  -27.5105   22.0953 O   0  0  0  0  0  0  0  0  0  0  0  0
  -28.2241  -28.3627   19.4633 O   0  0  0  0  0  0  0  0  0  0  0  0
  -28.8516  -23.7217   18.6960 O   0  0  0  0  0  0  0  0  0  0  0  0
  -31.9373  -14.6042   20.2833 O   0  0  0  0  0  0  0  0  0  0  0  0
  -21.3444   -7.1481   21.7886 O   0  0  0  0  0  0  0  0  0  0  0  0
  -26.1230  -22.0381   24.7020 O   0  0  0  0  0  0  0  0  0  1  0  0
  -23.5804   -3.0480   24.7201 F   0  0  0  0  0  0  0  0  0  0  0  0
  -20.2387   -6.3593   24.1965 F   0  0  0  0  0  0  0  0  0  0  0  0
  1  2  1  0  0  0  0
  1  5  2  0  0  0  0
  2  6  2  0  0  0  0
  3  8  2  0  0  0  0
  3 16  1  0  0  0  0
  4  9  1  0  0  0  0
  4 16  2  0  0  0  0
  5 18  1  0  0  0  0
  6 20  1  0  0  0  0
  7 10  2  0  0  0  0
  7 19  1  0  0  0  0
  8 24  1  0  0  0  0
  9 24  2  0  0  0  0
 10 25  1  0  0  0  0
 11 12  2  0  0  0  0
 11 26  1  0  0  0  0
 12 27  1  0  0  0  0
 13 21  1  0  0  0  0
 13 25  2  0  0  0  0
 14 22  1  0  0  0  0
 14 23  2  0  0  0  0
 15 27  2  0  0  0  0
 15 28  1  0  0  0  0
 16 29  1  0  0  0  0
 17 29  1  0  0  0  0
 17 32  2  0  0  0  0
 17 33  1  0  0  0  0
 18 20  2  0  0  0  0
 18 38  1  0  0  0  0
 19 21  2  0  0  0  0
 19 39  1  0  0  0  0
 20 47  1  0  0  0  0
 21 40  1  0  0  0  0
 22 30  2  0  0  0  0
 22 50  1  0  0  0  0
 23 31  1  0  0  0  0
 23 57  1  0  0  0  0
 24 81  1  0  0  0  0
 25 82  1  0  0  0  0
 26 28  2  0  0  0  0
 26 81  1  0  0  0  0
 27 83  1  0  0  0  0
 28 84  1  0  0  0  0
 29 65  2  0  0  0  0
 30 58  1  0  0  0  0
 30 66  1  0  0  0  0
 31 51  1  0  0  0  0
 31 66  2  0  0  0  0
 32 67  1  0  0  0  0
 32 70  1  0  0  0  0
 33 71  1  0  0  0  0
 33 76  2  0  0  0  0
 34 48  1  0  0  0  0
 34 72  1  0  0  0  0
 34 77  2  0  0  0  0
 35 62  1  0  0  0  0
 35 68  1  0  0  0  0
 35 78  2  0  0  0  0
 36 63  1  0  0  0  0
 36 73  1  0  0  0  0
 36 79  2  0  0  0  0
 37 69  1  0  0  0  0
 37 74  1  0  0  0  0
 37 80  2  0  0  0  0
 38 41  1  0  0  0  0
 39 48  1  0  0  0  0
 40 68  1  0  0  0  0
 41 43  1  0  0  0  0
 42 44  1  0  0  0  0
 42 45  1  0  0  0  0
 43 47  1  0  0  0  0
 44 49  1  0  0  0  0
 45 69  1  0  0  0  0
 46 49  1  0  0  0  0
 46 69  1  0  0  0  0
 47 72  1  0  0  0  0
 48 68  1  0  0  0  0
 49 67  1  0  0  0  0
 52 63  1  0  0  0  0
 53 64  1  0  0  0  0
 54 64  1  0  0  0  0
 55 64  1  0  0  0  0
 56 75  1  0  0  0  0
 57 59  1  0  0  0  0
 58 61  1  0  0  0  0
 59 60  1  0  0  0  0
 60 74  1  0  0  0  0
 61 82  1  0  0  0  0
 62 64  1  0  0  0  0
 62 73  1  0  0  0  0
 63 75  1  0  0  0  0
 65 67  1  0  0  0  0
M  CHG  1  75   1
M  ISO  4  37 100  61 101  74 100  82 101
M  END
> <Batch ID>
0045

> <Smiles>
CNC(C)C(=O)NC(C(=O)N1Cc2cc([101O:1][101CH2:1]Cc3nc(C)c(CCC[100NH:0][100C:0](=O)N4CCCC(n5nc(-c6ccc(Oc7ccc(F)cc7F)cc6)c(C(N)=O)c5N)C4)cc3C)ccc2CC1C(=O)NC1CCCc2ccccc21)C(C)(C)C

> <Shape>
0.325

> <Color>
0.215

> <Negative vol penalty>
0.000

$$$$

  -OEChem-04052317193D

 78 86  0     1  0  0  0  0  0999 V2000
  -24.8598  -35.2196   22.8847 C   0  0  0  0  0  0  0  0  0  0  0  0
  -25.5978  -34.0574   22.6850 C   0  0  0  0  0  0  0  0  0  0  0  0
  -25.4726  -13.3758   21.9571 C   0  0  0  0  0  0  0  0  0  0  0  0
  -26.6651  -13.2777   19.8582 C   0  0  0  0  0  0  0  0  0  0  0  0
  -23.5753  -35.1448   23.4216 C   0  0  0  0  0  0  0  0  0  0  0  0
  -25.0520  -32.8195   23.0232 C   0  0  0  0  0  0  0  0  0  0  0  0
  -25.8227  -29.3150   19.4498 C   0  0  0  0  0  0  0  0  0  0  0  0
  -25.1101  -12.0365   21.8137 C   0  0  0  0  0  0  0  0  0  0  0  0
  -26.3026  -11.9384   19.7148 C   0  0  0  0  0  0  0  0  0  0  0  0
  -27.0882  -28.7329   19.3912 C   0  0  0  0  0  0  0  0  0  0  0  0
  -22.8232  -10.2470   20.0840 C   0  0  0  0  0  0  0  0  0  0  0  0
  -21.4984   -9.9027   20.3522 C   0  0  0  0  0  0  0  0  0  0  0  0
  -26.2505  -26.8067   20.5775 C   0  0  0  0  0  0  0  0  0  0  0  0
  -22.2413   -8.3993   22.0915 C   0  0  0  0  0  0  0  0  0  0  0  0
  -29.2092  -23.8072   19.0094 C   0  0  0  0  0  0  0  0  0  0  0  0
  -26.2501  -13.9964   20.9793 C   0  0  0  0  0  0  0  0  0  0  0  0
  -27.7766  -15.8864   21.7573 C   0  0  0  0  0  0  0  0  0  0  0  0
  -23.0098  -33.9046   23.7575 C   0  0  0  0  0  0  0  0  0  0  0  0
  -24.7624  -28.6509   20.0832 C   0  0  0  0  0  0  0  0  0  0  0  0
  -23.7592  -32.7281   23.5663 C   0  0  0  0  0  0  0  0  0  0  0  0
  -24.9719  -27.3814   20.6405 C   0  0  0  0  0  0  0  0  0  0  0  0
  -25.5251  -11.3178   20.6926 C   0  0  0  0  0  0  0  0  0  0  0  0
  -27.3030  -27.4799   19.9577 C   0  0  0  0  0  0  0  0  0  0  0  0
  -23.8571   -9.6674   20.8194 C   0  0  0  0  0  0  0  0  0  0  0  0
  -21.2075   -8.9789   21.3559 C   0  0  0  0  0  0  0  0  0  0  0  0
  -23.5661   -8.7436   21.8232 C   0  0  0  0  0  0  0  0  0  0  0  0
  -26.6244  -15.3800   21.1266 C   0  0  0  0  0  0  0  0  0  0  0  0
  -29.6199  -24.8095   18.1669 C   0  0  0  0  0  0  0  0  0  0  0  0
  -27.6665  -17.2496   21.6301 C   0  0  0  0  0  0  0  0  0  0  0  0
  -28.8504  -15.1872   22.4005 C   0  0  0  0  0  0  0  0  0  0  0  0
  -22.9043  -29.2694   22.5869 C   0  0  0  0  0  0  0  0  0  0  0  0
  -26.5288  -21.7207   18.4671 C   0  0  0  0  0  0  0  0  0  0  0  0
  -21.3560  -26.5930   21.6061 C   0  0  0  0  0  0  0  0  0  0  0  0
  -21.4731  -23.6382   19.9026 C   0  0  0  0  0  0  0  0  0  0  0  0
  -21.6359  -33.8778   24.3790 C   0  0  0  0  0  0  0  0  0  0  0  0
  -23.3968  -29.2807   20.1144 C   0  0  0  0  0  0  0  0  0  0  0  0
  -23.8619  -26.6181   21.3141 C   0  0  0  0  0  0  0  0  0  0  0  0
  -20.9865  -32.4964   24.3620 C   0  0  0  0  0  0  0  0  0  0  0  0
  -23.7907  -20.1235   20.1380 C   0  0  0  0  0  0  0  0  0  0  0  0
  -21.9770  -31.4351   24.8302 C   0  0  0  0  0  0  0  0  0  0  0  0
  -24.3696  -18.7767   20.5692 C   0  0  0  0  0  0  0  0  0  0  0  0
  -24.3631  -20.5740   18.7977 C   0  0  0  0  0  0  0  0  0  0  0  0
  -26.4372  -19.2844   19.1936 C   0  0  0  0  0  0  0  0  0  0  0  0
  -23.1922  -31.3647   23.8975 C   0  0  1  0  0  0  0  0  0  0  0  0
  -22.5150  -28.7399   21.2357 C   0  0  1  0  0  0  0  0  0  0  0  0
  -25.9083  -18.8072   20.5577 C   0  0  2  0  0  0  0  0  0  0  0  0
  -20.0625  -21.6493   19.3090 C   0  0  0  0  0  0  0  0  0  0  0  0
  -21.6977  -25.5087   24.4376 C   0  0  0  0  0  0  0  0  0  0  0  0
  -21.1538  -23.2295   23.5556 C   0  0  0  0  0  0  0  0  0  0  0  0
  -19.4626  -25.0574   23.4103 C   0  0  0  0  0  0  0  0  0  0  0  0
  -21.7149  -24.1857   17.0042 C   0  0  0  0  0  0  0  0  0  0  0  0
  -30.3286  -26.0999   18.4997 C   0  0  0  0  0  0  0  0  0  0  0  0
  -28.0336  -21.6387   18.5184 C   0  0  0  0  0  0  0  0  0  0  0  0
  -29.3558  -27.2399   18.7811 C   0  0  0  0  0  0  0  0  0  1  0  0
  -21.4852  -25.1168   21.8945 C   0  0  1  0  0  0  0  0  0  0  0  0
  -20.5344  -23.0289   18.8768 C   0  0  2  0  0  0  0  0  0  0  0  0
  -20.9714  -24.7431   23.3136 C   0  0  0  0  0  0  0  0  0  0  0  0
  -25.8400  -16.3430   20.6354 N   0  0  0  0  0  0  0  0  0  0  0  0
  -29.2949  -24.4885   16.8782 N   0  0  0  0  0  0  0  0  0  0  0  0
  -28.6880  -23.3067   16.8925 N   0  0  0  0  0  0  0  0  0  0  0  0
  -28.6375  -22.9000   18.1713 N   0  0  0  0  0  0  0  0  0  0  0  0
  -26.5004  -17.4683   20.9575 N   0  0  0  0  0  0  0  0  0  0  0  0
  -22.5462  -27.2786   21.3246 N   0  0  0  0  0  0  0  0  0  0  0  0
  -25.8269  -20.5680   18.8204 N   0  0  0  0  0  0  0  0  0  0  0  0
  -28.4544  -18.2705   22.0293 N   0  0  0  0  0  0  0  0  0  0  0  0
  -28.8060  -13.7870   22.4416 N   0  0  0  0  0  0  0  0  0  0  0  0
  -22.8585  -30.6469   22.6860 N   0  0  0  0  0  0  0  0  0  0  0  0
  -20.7967  -24.4270   20.8089 N   0  0  0  0  0  0  0  0  0  0  0  0
  -21.2196  -22.9001   17.5597 N   0  3  0  0  0  0  0  0  0  0  0  0
  -29.8122  -15.7870   22.9378 O   0  0  0  0  0  0  0  0  0  0  0  0
  -23.2212  -28.4861   23.4744 O   0  0  0  0  0  0  0  0  0  0  0  0
  -25.9948  -22.7793   18.1259 O   0  0  0  0  0  0  0  0  0  0  0  0
  -20.2394  -27.1170   21.6227 O   0  0  0  0  0  0  0  0  0  0  0  0
  -22.6846  -23.4317   19.9022 O   0  0  0  0  0  0  0  0  0  0  0  0
  -25.1718  -10.0109   20.5525 O   0  0  0  0  0  0  0  0  0  0  0  0
  -28.5374  -26.9097   19.9025 O   0  0  0  0  0  0  0  0  0  1  0  0
  -19.9351   -8.6494   21.6144 F   0  0  0  0  0  0  0  0  0  0  0  0
  -24.5550   -8.1844   22.5339 F   0  0  0  0  0  0  0  0  0  0  0  0
  1  2  1  0  0  0  0
  1  5  2  0  0  0  0
  2  6  2  0  0  0  0
  3  8  2  0  0  0  0
  3 16  1  0  0  0  0
  4  9  1  0  0  0  0
  4 16  2  0  0  0  0
  5 18  1  0  0  0  0
  6 20  1  0  0  0  0
  7 10  2  0  0  0  0
  7 19  1  0  0  0  0
  8 22  1  0  0  0  0
  9 22  2  0  0  0  0
 10 23  1  0  0  0  0
 11 12  2  0  0  0  0
 11 24  1  0  0  0  0
 12 25  1  0  0  0  0
 13 21  1  0  0  0  0
 13 23  2  0  0  0  0
 14 25  2  0  0  0  0
 14 26  1  0  0  0  0
 15 28  2  0  0  0  0
 15 61  1  0  0  0  0
 16 27  1  0  0  0  0
 17 27  1  0  0  0  0
 17 29  2  0  0  0  0
 17 30  1  0  0  0  0
 18 20  2  0  0  0  0
 18 35  1  0  0  0  0
 19 21  2  0  0  0  0
 19 36  1  0  0  0  0
 20 44  1  0  0  0  0
 21 37  1  0  0  0  0
 22 75  1  0  0  0  0
 23 76  1  0  0  0  0
 24 26  2  0  0  0  0
 24 75  1  0  0  0  0
 25 77  1  0  0  0  0
 26 78  1  0  0  0  0
 27 58  2  0  0  0  0
 28 52  1  0  0  0  0
 28 59  1  0  0  0  0
 29 62  1  0  0  0  0
 29 65  1  0  0  0  0
 30 66  1  0  0  0  0
 30 70  2  0  0  0  0
 31 45  1  0  0  0  0
 31 67  1  0  0  0  0
 31 71  2  0  0  0  0
 32 53  1  0  0  0  0
 32 64  1  0  0  0  0
 32 72  2  0  0  0  0
 33 55  1  0  0  0  0
 33 63  1  0  0  0  0
 33 73  2  0  0  0  0
 34 56  1  0  0  0  0
 34 68  1  0  0  0  0
 34 74  2  0  0  0  0
 35 38  1  0  0  0  0
 36 45  1  0  0  0  0
 37 63  1  0  0  0  0
 38 40  1  0  0  0  0
 39 41  1  0  0  0  0
 39 42  1  0  0  0  0
 40 44  1  0  0  0  0
 41 46  1  0  0  0  0
 42 64  1  0  0  0  0
 43 46  1  0  0  0  0
 43 64  1  0  0  0  0
 44 67  1  0  0  0  0
 45 63  1  0  0  0  0
 46 62  1  0  0  0  0
 47 56  1  0  0  0  0
 48 57  1  0  0  0  0
 49 57  1  0  0  0  0
 50 57  1  0  0  0  0
 51 69  1  0  0  0  0
 52 54  1  0  0  0  0
 53 61  1  0  0  0  0
 54 76  1  0  0  0  0
 55 57  1  0  0  0  0
 55 68  1  0  0  0  0
 56 69  1  0  0  0  0
 58 62  1  0  0  0  0
 59 60  2  0  0  0  0
 60 61  1  0  0  0  0
M  CHG  1  69   1
M  ISO  4  32 100  53 100  54 101  76 101
M  END
> <Batch ID>
0045

> <Smiles>
CNC(C)C(=O)NC(C(=O)N1Cc2cc([101O:1][101CH2:1]Cc3cn([100CH2:0][100C:0](=O)N4CCCC(n5nc(-c6ccc(Oc7ccc(F)cc7F)cc6)c(C(N)=O)c5N)C4)nn3)ccc2CC1C(=O)NC1CCCc2ccccc21)C(C)(C)C

> <Shape>
0.237

> <Color>
0.085

> <Negative vol penalty>
0.000

$$$$

  -OEChem-04052317193D

 83 91  0     1  0  0  0  0  0999 V2000
  -38.2962  -30.5902   23.8287 C   0  0  0  0  0  0  0  0  0  0  0  0
  -38.2593  -29.2249   24.0933 C   0  0  0  0  0  0  0  0  0  0  0  0
  -22.9971   -9.8966   19.9878 C   0  0  0  0  0  0  0  0  0  0  0  0
  -23.7568   -9.9395   22.2808 C   0  0  0  0  0  0  0  0  0  0  0  0
  -37.1632  -31.3724   24.0478 C   0  0  0  0  0  0  0  0  0  0  0  0
  -37.0895  -28.6412   24.5783 C   0  0  0  0  0  0  0  0  0  0  0  0
  -34.9892  -23.0239   23.3375 C   0  0  0  0  0  0  0  0  0  0  0  0
  -22.2383   -8.7584   20.2604 C   0  0  0  0  0  0  0  0  0  0  0  0
  -22.9981   -8.8012   22.5535 C   0  0  0  0  0  0  0  0  0  0  0  0
  -35.0609  -21.8199   24.0369 C   0  0  0  0  0  0  0  0  0  0  0  0
  -23.2461   -5.4653   22.0625 C   0  0  0  0  0  0  0  0  0  0  0  0
  -23.8482   -4.4466   22.8009 C   0  0  0  0  0  0  0  0  0  0  0  0
  -32.8733  -22.2355   24.9646 C   0  0  0  0  0  0  0  0  0  0  0  0
  -31.1833  -17.8643   21.2049 C   0  0  0  0  0  0  0  0  0  0  0  0
  -31.9224  -16.5885   23.1051 C   0  0  0  0  0  0  0  0  0  0  0  0
  -22.1491   -4.6762   24.5031 C   0  0  0  0  0  0  0  0  0  0  0  0
  -23.7564  -10.4872   20.9980 C   0  0  0  0  0  0  0  0  0  0  0  0
  -24.1308  -13.0048   20.8278 C   0  0  0  0  0  0  0  0  0  0  0  0
  -35.9759  -30.7964   24.5267 C   0  0  0  0  0  0  0  0  0  0  0  0
  -33.8617  -23.8493   23.4551 C   0  0  0  0  0  0  0  0  0  0  0  0
  -35.9398  -29.4168   24.8054 C   0  0  0  0  0  0  0  0  0  0  0  0
  -32.7886  -23.4481   24.2636 C   0  0  0  0  0  0  0  0  0  0  0  0
  -31.1006  -16.7206   21.9913 C   0  0  0  0  0  0  0  0  0  0  0  0
  -22.2388   -8.2107   21.5432 C   0  0  0  0  0  0  0  0  0  0  0  0
  -34.0041  -21.4269   24.8528 C   0  0  0  0  0  0  0  0  0  0  0  0
  -22.0955   -6.0895   22.5443 C   0  0  0  0  0  0  0  0  0  0  0  0
  -23.2997   -4.0520   24.0212 C   0  0  0  0  0  0  0  0  0  0  0  0
  -21.5470   -5.6949   23.7646 C   0  0  0  0  0  0  0  0  0  0  0  0
  -24.5408  -11.6626   20.7168 C   0  0  0  0  0  0  0  0  0  0  0  0
  -32.0968  -18.8392   21.5722 C   0  0  0  0  0  0  0  0  0  0  0  0
  -32.8030  -17.6204   23.3871 C   0  0  0  0  0  0  0  0  0  0  0  0
  -25.2325  -13.7327   20.4500 C   0  0  0  0  0  0  0  0  0  0  0  0
  -22.8670  -13.5452   21.2359 C   0  0  0  0  0  0  0  0  0  0  0  0
  -33.3445  -26.8037   24.5075 C   0  0  0  0  0  0  0  0  0  0  0  0
  -30.7490  -14.6197   20.7181 C   0  0  0  0  0  0  0  0  0  0  0  0
  -30.3489  -26.2605   23.3876 C   0  0  0  0  0  0  0  0  0  0  0  0
  -27.9331  -23.9983   22.5551 C   0  0  0  0  0  0  0  0  0  0  0  0
  -34.7910  -31.6908   24.7929 C   0  0  0  0  0  0  0  0  0  0  0  0
  -33.7883  -25.1321   22.6732 C   0  0  0  0  0  0  0  0  0  0  0  0
  -31.5471  -24.2886   24.4081 C   0  0  0  0  0  0  0  0  0  0  0  0
  -33.4774  -30.9299   24.9532 C   0  0  0  0  0  0  0  0  0  0  0  0
  -29.5547  -12.2891   18.2722 C   0  0  0  0  0  0  0  0  0  0  0  0
  -33.6629  -29.7346   25.8825 C   0  0  0  0  0  0  0  0  0  0  0  0
  -28.1204  -12.0057   18.7167 C   0  0  0  0  0  0  0  0  0  0  0  0
  -30.4777  -12.5037   19.4677 C   0  0  0  0  0  0  0  0  0  0  0  0
  -28.5839  -13.2907   20.8518 C   0  0  0  0  0  0  0  0  0  0  0  0
  -34.6820  -28.7427   25.3089 C   0  0  1  0  0  0  0  0  0  0  0  0
  -32.8109  -26.1402   23.2694 C   0  0  1  0  0  0  0  0  0  0  0  0
  -27.6123  -13.0982   19.6740 C   0  0  2  0  0  0  0  0  0  0  0  0
  -33.3404  -21.1906   18.7741 C   0  0  0  0  0  0  0  0  0  0  0  0
  -25.5762  -23.8563   21.7051 C   0  0  0  0  0  0  0  0  0  0  0  0
  -29.3094  -27.0542   26.1443 C   0  0  0  0  0  0  0  0  0  0  0  0
  -27.1184  -26.0019   25.5443 C   0  0  0  0  0  0  0  0  0  0  0  0
  -27.9697  -27.9428   24.2286 C   0  0  0  0  0  0  0  0  0  0  0  0
  -28.7717  -22.5129   20.1366 C   0  0  0  0  0  0  0  0  0  0  0  0
  -30.1338  -15.6404   21.6420 C   0  0  0  0  0  0  0  0  0  0  0  0
  -32.2118  -20.0809   20.7526 C   0  0  0  0  0  0  0  0  0  0  0  0
  -33.7106  -17.5102   24.5862 C   0  0  0  0  0  0  0  0  0  0  0  0
  -33.2490  -19.9366   19.6290 C   0  0  0  0  0  0  0  0  0  0  0  0
  -33.1063  -18.0817   25.8706 C   0  0  0  0  0  0  0  0  0  0  0  0
  -32.8402  -19.5808   25.7977 C   0  0  0  0  0  0  0  0  0  1  0  0
  -29.0788  -25.6859   23.9671 C   0  0  1  0  0  0  0  0  0  0  0  0
  -27.0492  -23.8746   21.3271 C   0  0  2  0  0  0  0  0  0  0  0  0
  -28.3932  -26.6561   24.9701 C   0  0  0  0  0  0  0  0  0  0  0  0
  -25.8043  -11.5422   20.3009 N   0  0  0  0  0  0  0  0  0  0  0  0
  -32.9117  -18.7464   22.6469 N   0  0  0  0  0  0  0  0  0  0  0  0
  -26.1978  -12.8179   20.1472 N   0  0  0  0  0  0  0  0  0  0  0  0
  -31.5257  -25.5372   23.6283 N   0  0  0  0  0  0  0  0  0  0  0  0
  -29.9489  -13.5330   20.3644 N   0  0  0  0  0  0  0  0  0  0  0  0
  -25.4601  -15.0596   20.3506 N   0  0  0  0  0  0  0  0  0  0  0  0
  -21.8434  -12.6561   21.5909 N   0  0  0  0  0  0  0  0  0  0  0  0
  -34.0788  -27.9479   24.2605 N   0  0  0  0  0  0  0  0  0  0  0  0
  -28.2437  -25.3132   22.8304 N   0  0  0  0  0  0  0  0  0  0  0  0
  -27.3607  -22.6179   20.5892 N   0  3  0  0  0  0  0  0  0  0  0  0
  -22.6467  -14.7797   21.2687 O   0  0  0  0  0  0  0  0  0  0  0  0
  -33.1063  -26.3146   25.6055 O   0  0  0  0  0  0  0  0  0  0  0  0
  -31.9052  -14.7864   20.3212 O   0  0  0  0  0  0  0  0  0  0  0  0
  -30.2977  -27.3085   22.7391 O   0  0  0  0  0  0  0  0  0  0  0  0
  -28.3072  -23.0261   23.2072 O   0  0  0  0  0  0  0  0  0  0  0  0
  -21.4984   -7.1001   21.8097 O   0  0  0  0  0  0  0  0  0  0  0  0
  -34.0719  -20.2526   25.5371 O   0  0  0  0  0  0  0  0  0  1  0  0
  -23.8772   -3.0727   24.7294 F   0  0  0  0  0  0  0  0  0  0  0  0
  -20.4410   -6.2900   24.2322 F   0  0  0  0  0  0  0  0  0  0  0  0
  1  2  1  0  0  0  0
  1  5  2  0  0  0  0
  2  6  2  0  0  0  0
  3  8  2  0  0  0  0
  3 17  1  0  0  0  0
  4  9  1  0  0  0  0
  4 17  2  0  0  0  0
  5 19  1  0  0  0  0
  6 21  1  0  0  0  0
  7 10  2  0  0  0  0
  7 20  1  0  0  0  0
  8 24  1  0  0  0  0
  9 24  2  0  0  0  0
 10 25  1  0  0  0  0
 11 12  2  0  0  0  0
 11 26  1  0  0  0  0
 12 27  1  0  0  0  0
 13 22  1  0  0  0  0
 13 25  2  0  0  0  0
 14 23  2  0  0  0  0
 14 30  1  0  0  0  0
 15 23  1  0  0  0  0
 15 31  2  0  0  0  0
 16 27  2  0  0  0  0
 16 28  1  0  0  0  0
 17 29  1  0  0  0  0
 18 29  1  0  0  0  0
 18 32  2  0  0  0  0
 18 33  1  0  0  0  0
 19 21  2  0  0  0  0
 19 38  1  0  0  0  0
 20 22  2  0  0  0  0
 20 39  1  0  0  0  0
 21 47  1  0  0  0  0
 22 40  1  0  0  0  0
 23 56  1  0  0  0  0
 24 80  1  0  0  0  0
 25 81  1  0  0  0  0
 26 28  2  0  0  0  0
 26 80  1  0  0  0  0
 27 82  1  0  0  0  0
 28 83  1  0  0  0  0
 29 65  2  0  0  0  0
 30 57  1  0  0  0  0
 30 66  2  0  0  0  0
 31 58  1  0  0  0  0
 31 66  1  0  0  0  0
 32 67  1  0  0  0  0
 32 70  1  0  0  0  0
 33 71  1  0  0  0  0
 33 75  2  0  0  0  0
 34 48  1  0  0  0  0
 34 72  1  0  0  0  0
 34 76  2  0  0  0  0
 35 56  1  0  0  0  0
 35 69  1  0  0  0  0
 35 77  2  0  0  0  0
 36 62  1  0  0  0  0
 36 68  1  0  0  0  0
 36 78  2  0  0  0  0
 37 63  1  0  0  0  0
 37 73  1  0  0  0  0
 37 79  2  0  0  0  0
 38 41  1  0  0  0  0
 39 48  1  0  0  0  0
 40 68  1  0  0  0  0
 41 43  1  0  0  0  0
 42 44  1  0  0  0  0
 42 45  1  0  0  0  0
 43 47  1  0  0  0  0
 44 49  1  0  0  0  0
 45 69  1  0  0  0  0
 46 49  1  0  0  0  0
 46 69  1  0  0  0  0
 47 72  1  0  0  0  0
 48 68  1  0  0  0  0
 49 67  1  0  0  0  0
 50 59  1  0  0  0  0
 51 63  1  0  0  0  0
 52 64  1  0  0  0  0
 53 64  1  0  0  0  0
 54 64  1  0  0  0  0
 55 74  1  0  0  0  0
 57 59  1  0  0  0  0
 58 60  1  0  0  0  0
 60 61  1  0  0  0  0
 61 81  1  0  0  0  0
 62 64  1  0  0  0  0
 62 73  1  0  0  0  0
 63 74  1  0  0  0  0
 65 67  1  0  0  0  0
M  CHG  1  74   1
M  ISO  4  35 100  56 100  61 101  81 101
M  END
> <Batch ID>
0045

> <Smiles>
CCCc1cc([100CH2:0][100C:0](=O)N2CCCC(n3nc(-c4ccc(Oc5ccc(F)cc5F)cc4)c(C(N)=O)c3N)C2)cc(CC[101CH2:1][101O:1]c2ccc3c(c2)CN(C(=O)C(NC(=O)C(C)NC)C(C)(C)C)C(C(=O)NC2CCCc4ccccc42)C3)n1

> <Shape>
0.190

> <Color>
0.200

> <Negative vol penalty>
0.000

$$$$

  -OEChem-04052317193D

 83 90  0     1  0  0  0  0  0999 V2000
  -20.0359  -22.3387   26.0505 C   0  0  0  0  0  0  0  0  0  0  0  0
  -21.3659  -22.0063   25.8138 C   0  0  0  0  0  0  0  0  0  0  0  0
  -27.0617  -13.3907   21.1777 C   0  0  0  0  0  0  0  0  0  0  0  0
  -26.9051  -13.8850   18.8180 C   0  0  0  0  0  0  0  0  0  0  0  0
  -19.3745  -23.2160   25.1922 C   0  0  0  0  0  0  0  0  0  0  0  0
  -22.0349  -22.5502   24.7179 C   0  0  0  0  0  0  0  0  0  0  0  0
  -28.5439  -24.7312   22.6704 C   0  0  0  0  0  0  0  0  0  0  0  0
  -26.2961  -12.2404   20.9876 C   0  0  0  0  0  0  0  0  0  0  0  0
  -26.1396  -12.7346   18.6279 C   0  0  0  0  0  0  0  0  0  0  0  0
  -29.4678  -24.5468   21.6427 C   0  0  0  0  0  0  0  0  0  0  0  0
  -24.0796   -9.3642   21.1825 C   0  0  0  0  0  0  0  0  0  0  0  0
  -23.0528   -9.1091   22.0915 C   0  0  0  0  0  0  0  0  0  0  0  0
  -28.2476  -26.1132   20.2728 C   0  0  0  0  0  0  0  0  0  0  0  0
  -22.0039  -11.2019   21.4940 C   0  0  0  0  0  0  0  0  0  0  0  0
  -27.3661  -14.2131   20.0930 C   0  0  0  0  0  0  0  0  0  0  0  0
  -29.5581  -15.5120   20.2187 C   0  0  0  0  0  0  0  0  0  0  0  0
  -20.0386  -23.7785   24.0907 C   0  0  0  0  0  0  0  0  0  0  0  0
  -27.4570  -25.6012   22.5027 C   0  0  0  0  0  0  0  0  0  0  0  0
  -21.3813  -23.4348   23.8432 C   0  0  0  0  0  0  0  0  0  0  0  0
  -27.3128  -26.3088   21.3008 C   0  0  0  0  0  0  0  0  0  0  0  0
  -25.8351  -11.9123   19.7127 C   0  0  0  0  0  0  0  0  0  0  0  0
  -29.3181  -25.2356   20.4426 C   0  0  0  0  0  0  0  0  0  0  0  0
  -24.0686  -10.5382   20.4293 C   0  0  0  0  0  0  0  0  0  0  0  0
  -22.0149  -10.0279   22.2472 C   0  0  0  0  0  0  0  0  0  0  0  0
  -23.0307  -11.4570   20.5851 C   0  0  0  0  0  0  0  0  0  0  0  0
  -28.1564  -15.4019   20.2888 C   0  0  0  0  0  0  0  0  0  0  0  0
  -29.8119  -16.8366   20.4784 C   0  0  0  0  0  0  0  0  0  0  0  0
  -30.5427  -14.5068   19.9432 C   0  0  0  0  0  0  0  0  0  0  0  0
  -24.2960  -25.2674   22.5019 C   0  0  0  0  0  0  0  0  0  0  0  0
  -24.3446  -28.5045   22.2994 C   0  0  0  0  0  0  0  0  0  0  0  0
  -26.0430  -31.3263   21.4051 C   0  0  0  0  0  0  0  0  0  0  0  0
  -26.5460  -21.8147   19.8436 C   0  0  0  0  0  0  0  0  0  0  0  0
  -19.2680  -24.6851   23.1639 C   0  0  0  0  0  0  0  0  0  0  0  0
  -26.4841  -25.8094   23.6307 C   0  0  0  0  0  0  0  0  0  0  0  0
  -26.1746  -27.2698   21.0780 C   0  0  0  0  0  0  0  0  0  0  0  0
  -20.1591  -25.5100   22.2389 C   0  0  0  0  0  0  0  0  0  0  0  0
  -28.0320  -20.5969   22.8412 C   0  0  0  0  0  0  0  0  0  0  0  0
  -21.2337  -24.6301   21.6083 C   0  0  0  0  0  0  0  0  0  0  0  0
  -28.3589  -19.1373   22.5206 C   0  0  0  0  0  0  0  0  0  0  0  0
  -26.7235  -21.0385   22.1894 C   0  0  0  0  0  0  0  0  0  0  0  0
  -26.9741  -19.3474   20.4142 C   0  0  0  0  0  0  0  0  0  0  0  0
  -22.1484  -24.0234   22.6791 C   0  0  1  0  0  0  0  0  0  0  0  0
  -25.1286  -26.3296   23.1623 C   0  0  1  0  0  0  0  0  0  0  0  0
  -28.3133  -18.8726   21.0037 C   0  0  2  0  0  0  0  0  0  0  0  0
  -25.8095  -33.8235   21.3236 C   0  0  0  0  0  0  0  0  0  0  0  0
  -22.5420  -28.2536   19.8504 C   0  0  0  0  0  0  0  0  0  0  0  0
  -23.1171  -30.6204   19.2711 C   0  0  0  0  0  0  0  0  0  0  0  0
  -21.9333  -30.1135   21.4076 C   0  0  0  0  0  0  0  0  0  0  0  0
  -32.3204  -23.9020   14.6420 C   0  0  0  0  0  0  0  0  0  0  0  0
  -30.2201  -23.7845   13.3092 C   0  0  0  0  0  0  0  0  0  0  0  0
  -28.3320  -31.7165   23.2401 C   0  0  0  0  0  0  0  0  0  0  0  0
  -29.2244  -20.0452   14.9104 C   0  0  0  0  0  0  0  0  0  0  0  0
  -30.5660  -24.3211   17.1784 C   0  0  0  0  0  0  0  0  0  0  0  0
  -30.0866  -24.4277   15.7279 C   0  0  0  0  0  0  0  0  0  0  0  0
  -27.1698  -22.0739   16.1777 C   0  0  0  0  0  0  0  0  0  0  0  0
  -26.4074  -22.4410   17.4462 C   0  0  0  0  0  0  0  0  0  0  0  0
  -28.6680  -21.9445   16.4216 C   0  0  0  0  0  0  0  0  0  0  0  0
  -30.7424  -22.0148   15.0459 C   0  0  0  0  0  0  0  0  0  0  0  0
  -29.7387  -25.2075   18.1020 C   0  0  0  0  0  0  0  0  0  1  0  0
  -24.3756  -29.5047   21.1691 C   0  0  1  0  0  0  0  0  0  0  0  0
  -26.2848  -32.6321   22.1406 C   0  0  2  0  0  0  0  0  0  0  0  0
  -23.0125  -29.6035   20.4277 C   0  0  0  0  0  0  0  0  0  0  0  0
  -30.8267  -23.5195   14.7049 C   0  0  0  0  0  0  0  0  0  0  0  0
  -27.5614  -16.5639   20.5712 N   0  0  0  0  0  0  0  0  0  0  0  0
  -28.5943  -17.4167   20.6809 N   0  0  0  0  0  0  0  0  0  0  0  0
  -25.2460  -27.4345   22.2086 N   0  0  0  0  0  0  0  0  0  0  0  0
  -26.7457  -20.7613   20.7511 N   0  0  0  0  0  0  0  0  0  0  0  0
  -30.9557  -17.5500   20.5512 N   0  0  0  0  0  0  0  0  0  0  0  0
  -30.1095  -13.1966   19.6983 N   0  0  0  0  0  0  0  0  0  0  0  0
  -23.1015  -25.0073   23.1461 N   0  0  0  0  0  0  0  0  0  0  0  0
  -24.8327  -30.7627   21.7495 N   0  0  0  0  0  0  0  0  0  0  0  0
  -26.5888  -21.4667   18.4991 N   0  0  0  0  0  0  0  0  0  0  0  0
  -27.7376  -32.8059   22.4236 N   0  3  0  0  0  0  0  0  0  0  0  0
  -29.3426  -21.5329   15.1357 N   0  3  1  0  0  0  0  0  0  0  0  0
  -31.7713  -14.7595   19.9313 O   0  0  0  0  0  0  0  0  0  0  0  0
  -24.7061  -24.7251   21.4824 O   0  0  0  0  0  0  0  0  0  0  0  0
  -23.5548  -28.6706   23.2323 O   0  0  0  0  0  0  0  0  0  0  0  0
  -26.8458  -30.8554   20.6024 O   0  0  0  0  0  0  0  0  0  0  0  0
  -26.3499  -22.9801   20.2048 O   0  0  0  0  0  0  0  0  0  0  0  0
  -25.0882  -10.7897   19.5268 O   0  0  0  0  0  0  0  0  0  0  0  0
  -30.2181  -25.0569   19.4376 O   0  0  0  0  0  0  0  0  0  1  0  0
  -21.0282   -9.7820   23.1190 F   0  0  0  0  0  0  0  0  0  0  0  0
  -23.0140  -12.5861   19.8634 F   0  0  0  0  0  0  0  0  0  0  0  0
  1  2  1  0  0  0  0
  1  5  2  0  0  0  0
  2  6  2  0  0  0  0
  3  8  2  0  0  0  0
  3 15  1  0  0  0  0
  4  9  1  0  0  0  0
  4 15  2  0  0  0  0
  5 17  1  0  0  0  0
  6 19  1  0  0  0  0
  7 10  2  0  0  0  0
  7 18  1  0  0  0  0
  8 21  1  0  0  0  0
  9 21  2  0  0  0  0
 10 22  1  0  0  0  0
 11 12  2  0  0  0  0
 11 23  1  0  0  0  0
 12 24  1  0  0  0  0
 13 20  1  0  0  0  0
 13 22  2  0  0  0  0
 14 24  2  0  0  0  0
 14 25  1  0  0  0  0
 15 26  1  0  0  0  0
 16 26  1  0  0  0  0
 16 27  2  0  0  0  0
 16 28  1  0  0  0  0
 17 19  2  0  0  0  0
 17 33  1  0  0  0  0
 18 20  2  0  0  0  0
 18 34  1  0  0  0  0
 19 42  1  0  0  0  0
 20 35  1  0  0  0  0
 21 80  1  0  0  0  0
 22 81  1  0  0  0  0
 23 25  2  0  0  0  0
 23 80  1  0  0  0  0
 24 82  1  0  0  0  0
 25 83  1  0  0  0  0
 26 64  2  0  0  0  0
 27 65  1  0  0  0  0
 27 68  1  0  0  0  0
 28 69  1  0  0  0  0
 28 75  2  0  0  0  0
 29 43  1  0  0  0  0
 29 70  1  0  0  0  0
 29 76  2  0  0  0  0
 30 60  1  0  0  0  0
 30 66  1  0  0  0  0
 30 77  2  0  0  0  0
 31 61  1  0  0  0  0
 31 71  1  0  0  0  0
 31 78  2  0  0  0  0
 32 67  1  0  0  0  0
 32 72  1  0  0  0  0
 32 79  2  0  0  0  0
 33 36  1  0  0  0  0
 34 43  1  0  0  0  0
 35 66  1  0  0  0  0
 36 38  1  0  0  0  0
 37 39  1  0  0  0  0
 37 40  1  0  0  0  0
 38 42  1  0  0  0  0
 39 44  1  0  0  0  0
 40 67  1  0  0  0  0
 41 44  1  0  0  0  0
 41 67  1  0  0  0  0
 42 70  1  0  0  0  0
 43 66  1  0  0  0  0
 44 65  1  0  0  0  0
 45 61  1  0  0  0  0
 46 62  1  0  0  0  0
 47 62  1  0  0  0  0
 48 62  1  0  0  0  0
 49 63  1  0  0  0  0
 50 63  1  0  0  0  0
 51 73  1  0  0  0  0
 52 74  1  0  0  0  0
 53 54  1  0  0  0  0
 53 59  1  0  0  0  0
 54 63  1  0  0  0  0
 55 56  1  0  0  0  0
 55 57  1  0  0  0  0
 56 72  1  0  0  0  0
 57 74  1  0  0  0  0
 58 63  1  0  0  0  0
 58 74  1  0  0  0  0
 59 81  1  0  0  0  0
 60 62  1  0  0  0  0
 60 71  1  0  0  0  0
 61 73  1  0  0  0  0
 64 65  1  0  0  0  0
M  CHG  2  73   1  74   1
M  ISO  4  32 100  59 101  72 100  81 101
M  END
> <Batch ID>
0045

> <Smiles>
CNC(C)C(=O)NC(C(=O)N1Cc2cc([101O:1][101CH2:1]CCC(C)(C)CN(C)CCC[100NH:0][100C:0](=O)N3CCCC(n4nc(-c5ccc(Oc6ccc(F)cc6F)cc5)c(C(N)=O)c4N)C3)ccc2CC1C(=O)NC1CCCc2ccccc21)C(C)(C)C

> <Shape>
0.215

> <Color>
0.068

> <Negative vol penalty>
0.000

$$$$

  -OEChem-04052317193D

 84 92  0     1  0  0  0  0  0999 V2000
  -19.0996  -33.0856   20.1453 C   0  0  0  0  0  0  0  0  0  0  0  0
  -20.3522  -32.6110   19.7694 C   0  0  0  0  0  0  0  0  0  0  0  0
  -26.0096  -14.9319   22.5917 C   0  0  0  0  0  0  0  0  0  0  0  0
  -25.5779  -14.4376   20.2665 C   0  0  0  0  0  0  0  0  0  0  0  0
  -18.5931  -32.7873   21.4096 C   0  0  0  0  0  0  0  0  0  0  0  0
  -21.0995  -31.8388   20.6580 C   0  0  0  0  0  0  0  0  0  0  0  0
  -24.8438  -27.2001   19.2553 C   0  0  0  0  0  0  0  0  0  0  0  0
  -25.1004  -13.9443   22.9705 C   0  0  0  0  0  0  0  0  0  0  0  0
  -24.6687  -13.4499   20.6453 C   0  0  0  0  0  0  0  0  0  0  0  0
  -26.2277  -27.1245   19.1039 C   0  0  0  0  0  0  0  0  0  0  0  0
  -24.7782  -10.2634   21.7656 C   0  0  0  0  0  0  0  0  0  0  0  0
  -24.8453   -9.0359   21.1067 C   0  0  0  0  0  0  0  0  0  0  0  0
  -26.4291  -26.3589   21.3826 C   0  0  0  0  0  0  0  0  0  0  0  0
  -30.8259  -25.6309   18.3460 C   0  0  0  0  0  0  0  0  0  0  0  0
  -22.5715   -9.3221   20.3417 C   0  0  0  0  0  0  0  0  0  0  0  0
  -26.2483  -15.1787   21.2397 C   0  0  0  0  0  0  0  0  0  0  0  0
  -28.5681  -16.0432   20.6243 C   0  0  0  0  0  0  0  0  0  0  0  0
  -19.3304  -32.0030   22.3106 C   0  0  0  0  0  0  0  0  0  0  0  0
  -24.2421  -26.8654   20.4769 C   0  0  0  0  0  0  0  0  0  0  0  0
  -20.6029  -31.5309   21.9361 C   0  0  0  0  0  0  0  0  0  0  0  0
  -25.0371  -26.4286   21.5461 C   0  0  0  0  0  0  0  0  0  0  0  0
  -31.0612  -24.7260   17.3169 C   0  0  0  0  0  0  0  0  0  0  0  0
  -31.3136  -23.3918   17.6159 C   0  0  0  0  0  0  0  0  0  0  0  0
  -24.4300  -13.2033   21.9973 C   0  0  0  0  0  0  0  0  0  0  0  0
  -27.0208  -26.7067   20.1685 C   0  0  0  0  0  0  0  0  0  0  0  0
  -23.6077  -11.0204   21.7126 C   0  0  0  0  0  0  0  0  0  0  0  0
  -23.7420   -8.5652   20.3947 C   0  0  0  0  0  0  0  0  0  0  0  0
  -22.5044  -10.5497   21.0006 C   0  0  0  0  0  0  0  0  0  0  0  0
  -27.1870  -16.1992   20.8478 C   0  0  0  0  0  0  0  0  0  0  0  0
  -30.8536  -25.1550   19.6470 C   0  0  0  0  0  0  0  0  0  0  0  0
  -31.3197  -23.0162   18.9496 C   0  0  0  0  0  0  0  0  0  0  0  0
  -29.0034  -17.2984   20.2757 C   0  0  0  0  0  0  0  0  0  0  0  0
  -29.3845  -14.8688   20.7229 C   0  0  0  0  0  0  0  0  0  0  0  0
  -22.4970  -28.4334   22.6217 C   0  0  0  0  0  0  0  0  0  0  0  0
  -22.2368  -25.4990   23.9797 C   0  0  0  0  0  0  0  0  0  0  0  0
  -23.5317  -22.3670   24.3808 C   0  0  0  0  0  0  0  0  0  0  0  0
  -28.3808  -22.0417   17.4019 C   0  0  0  0  0  0  0  0  0  0  0  0
  -18.7617  -31.7465   23.6837 C   0  0  0  0  0  0  0  0  0  0  0  0
  -22.7456  -26.9266   20.6157 C   0  0  0  0  0  0  0  0  0  0  0  0
  -24.4384  -26.0386   22.8720 C   0  0  0  0  0  0  0  0  0  0  0  0
  -19.4559  -30.6085   24.4277 C   0  0  0  0  0  0  0  0  0  0  0  0
  -26.6641  -21.7772   20.5100 C   0  0  0  0  0  0  0  0  0  0  0  0
  -20.9712  -30.7484   24.3230 C   0  0  0  0  0  0  0  0  0  0  0  0
  -26.7557  -20.2893   20.8529 C   0  0  0  0  0  0  0  0  0  0  0  0
  -26.4959  -22.0010   19.0088 C   0  0  0  0  0  0  0  0  0  0  0  0
  -27.6060  -19.8580   18.5099 C   0  0  0  0  0  0  0  0  0  0  0  0
  -21.4330  -30.6695   22.8629 C   0  0  1  0  0  0  0  0  0  0  0  0
  -22.2847  -27.0542   22.0644 C   0  0  1  0  0  0  0  0  0  0  0  0
  -27.8325  -19.5840   20.0065 C   0  0  2  0  0  0  0  0  0  0  0  0
  -31.0403  -25.2111   15.9050 C   0  0  0  0  0  0  0  0  0  0  0  0
  -31.2386  -21.3186   20.7931 C   0  0  0  0  0  0  0  0  0  0  0  0
  -23.6537  -19.9769   25.1356 C   0  0  0  0  0  0  0  0  0  0  0  0
  -23.2379  -26.7498   26.5765 C   0  0  0  0  0  0  0  0  0  0  0  0
  -23.7036  -24.4416   27.4271 C   0  0  0  0  0  0  0  0  0  0  0  0
  -21.3689  -25.1124   26.8599 C   0  0  0  0  0  0  0  0  0  0  0  0
  -22.1176  -21.4101   21.9635 C   0  0  0  0  0  0  0  0  0  0  0  0
  -31.5671  -22.3981   16.5326 C   0  0  0  0  0  0  0  0  0  0  0  0
  -30.6012  -26.1082   20.7898 C   0  0  0  0  0  0  0  0  0  0  0  0
  -31.5832  -21.5966   19.3332 C   0  0  0  0  0  0  0  0  0  0  0  0
  -30.2927  -21.9240   15.8240 C   0  0  0  0  0  0  0  0  0  0  0  0
  -29.1236  -26.1966   21.1555 C   0  0  0  0  0  0  0  0  0  1  0  0
  -23.0323  -24.7175   24.9973 C   0  0  1  0  0  0  0  0  0  0  0  0
  -22.8894  -20.9938   24.3022 C   0  0  2  0  0  0  0  0  0  0  0  0
  -22.8475  -25.2644   26.4410 C   0  0  0  0  0  0  0  0  0  0  0  0
  -26.7723  -17.4545   20.6574 N   0  0  0  0  0  0  0  0  0  0  0  0
  -31.0953  -23.8664   19.9765 N   0  0  0  0  0  0  0  0  0  0  0  0
  -27.8996  -18.0988   20.3106 N   0  0  0  0  0  0  0  0  0  0  0  0
  -22.9712  -26.1213   22.9602 N   0  0  0  0  0  0  0  0  0  0  0  0
  -27.5493  -21.3075   18.2636 N   0  0  0  0  0  0  0  0  0  0  0  0
  -30.2188  -17.7846   19.9460 N   0  0  0  0  0  0  0  0  0  0  0  0
  -28.7765  -13.6615   21.0932 N   0  0  0  0  0  0  0  0  0  0  0  0
  -21.4386  -29.2956   22.4081 N   0  0  0  0  0  0  0  0  0  0  0  0
  -22.6446  -23.3207   24.8333 N   0  0  0  0  0  0  0  0  0  0  0  0
  -29.3573  -21.3085   16.7390 N   0  0  0  0  0  0  0  0  0  0  0  0
  -22.8583  -20.5165   22.8908 N   0  3  0  0  0  0  0  0  0  0  0  0
  -30.6197  -14.8927   20.5054 O   0  0  0  0  0  0  0  0  0  0  0  0
  -23.5431  -28.6953   23.2038 O   0  0  0  0  0  0  0  0  0  0  0  0
  -21.0085  -25.5493   24.0814 O   0  0  0  0  0  0  0  0  0  0  0  0
  -24.7043  -22.5724   24.0751 O   0  0  0  0  0  0  0  0  0  0  0  0
  -28.2651  -23.2613   17.2398 O   0  0  0  0  0  0  0  0  0  0  0  0
  -23.5429  -12.2393   22.3666 O   0  0  0  0  0  0  0  0  0  0  0  0
  -28.3719  -26.6327   20.0236 O   0  0  0  0  0  0  0  0  0  1  0  0
  -23.8071   -7.3871   19.7608 F   0  0  0  0  0  0  0  0  0  0  0  0
  -21.3776  -11.2730   20.9452 F   0  0  0  0  0  0  0  0  0  0  0  0
  1  2  1  0  0  0  0
  1  5  2  0  0  0  0
  2  6  2  0  0  0  0
  3  8  2  0  0  0  0
  3 16  1  0  0  0  0
  4  9  1  0  0  0  0
  4 16  2  0  0  0  0
  5 18  1  0  0  0  0
  6 20  1  0  0  0  0
  7 10  2  0  0  0  0
  7 19  1  0  0  0  0
  8 24  1  0  0  0  0
  9 24  2  0  0  0  0
 10 25  1  0  0  0  0
 11 12  2  0  0  0  0
 11 26  1  0  0  0  0
 12 27  1  0  0  0  0
 13 21  1  0  0  0  0
 13 25  2  0  0  0  0
 14 22  2  0  0  0  0
 14 30  1  0  0  0  0
 15 27  2  0  0  0  0
 15 28  1  0  0  0  0
 16 29  1  0  0  0  0
 17 29  1  0  0  0  0
 17 32  2  0  0  0  0
 17 33  1  0  0  0  0
 18 20  2  0  0  0  0
 18 38  1  0  0  0  0
 19 21  2  0  0  0  0
 19 39  1  0  0  0  0
 20 47  1  0  0  0  0
 21 40  1  0  0  0  0
 22 23  1  0  0  0  0
 22 50  1  0  0  0  0
 23 31  2  0  0  0  0
 23 57  1  0  0  0  0
 24 81  1  0  0  0  0
 25 82  1  0  0  0  0
 26 28  2  0  0  0  0
 26 81  1  0  0  0  0
 27 83  1  0  0  0  0
 28 84  1  0  0  0  0
 29 65  2  0  0  0  0
 30 58  1  0  0  0  0
 30 66  2  0  0  0  0
 31 59  1  0  0  0  0
 31 66  1  0  0  0  0
 32 67  1  0  0  0  0
 32 70  1  0  0  0  0
 33 71  1  0  0  0  0
 33 76  2  0  0  0  0
 34 48  1  0  0  0  0
 34 72  1  0  0  0  0
 34 77  2  0  0  0  0
 35 62  1  0  0  0  0
 35 68  1  0  0  0  0
 35 78  2  0  0  0  0
 36 63  1  0  0  0  0
 36 73  1  0  0  0  0
 36 79  2  0  0  0  0
 37 69  1  0  0  0  0
 37 74  1  0  0  0  0
 37 80  2  0  0  0  0
 38 41  1  0  0  0  0
 39 48  1  0  0  0  0
 40 68  1  0  0  0  0
 41 43  1  0  0  0  0
 42 44  1  0  0  0  0
 42 45  1  0  0  0  0
 43 47  1  0  0  0  0
 44 49  1  0  0  0  0
 45 69  1  0  0  0  0
 46 49  1  0  0  0  0
 46 69  1  0  0  0  0
 47 72  1  0  0  0  0
 48 68  1  0  0  0  0
 49 67  1  0  0  0  0
 51 59  1  0  0  0  0
 52 63  1  0  0  0  0
 53 64  1  0  0  0  0
 54 64  1  0  0  0  0
 55 64  1  0  0  0  0
 56 75  1  0  0  0  0
 57 60  1  0  0  0  0
 58 61  1  0  0  0  0
 60 74  1  0  0  0  0
 61 82  1  0  0  0  0
 62 64  1  0  0  0  0
 62 73  1  0  0  0  0
 63 75  1  0  0  0  0
 65 67  1  0  0  0  0
M  CHG  1  75   1
M  ISO  4  37 100  61 101  74 100  82 101
M  END
> <Batch ID>
0045

> <Smiles>
CCc1nc(C[101CH2:1][101O:1]c2ccc3c(c2)CN(C(=O)C(NC(=O)C(C)NC)C(C)(C)C)C(C(=O)NC2CCCc4ccccc42)C3)cc(C)c1CC[100NH:0][100C:0](=O)N1CCCC(n2nc(-c3ccc(Oc4ccc(F)cc4F)cc3)c(C(N)=O)c2N)C1

> <Shape>
0.216

> <Color>
0.096

> <Negative vol penalty>
0.000

$$$$

  -OEChem-04052317193D

 82 90  0     1  0  0  0  0  0999 V2000
  -23.2663   -7.8986   21.3052 C   0  0  0  0  0  0  0  0  0  0  0  0
  -24.0071   -8.8731   20.6440 C   0  0  0  0  0  0  0  0  0  0  0  0
  -22.6161  -29.0669   21.4368 C   0  0  0  0  0  0  0  0  0  0  0  0
  -23.6820  -28.6462   23.5638 C   0  0  0  0  0  0  0  0  0  0  0  0
  -22.0499   -8.2326   21.8991 C   0  0  0  0  0  0  0  0  0  0  0  0
  -23.5312  -10.1820   20.5754 C   0  0  0  0  0  0  0  0  0  0  0  0
  -27.1269  -13.6103   21.5563 C   0  0  0  0  0  0  0  0  0  0  0  0
  -21.5001  -29.5801   22.0975 C   0  0  0  0  0  0  0  0  0  0  0  0
  -22.5660  -29.1595   24.2245 C   0  0  0  0  0  0  0  0  0  0  0  0
  -28.0323  -13.8936   20.5346 C   0  0  0  0  0  0  0  0  0  0  0  0
  -18.2222  -30.6696   23.2342 C   0  0  0  0  0  0  0  0  0  0  0  0
  -16.9624  -30.2645   22.7932 C   0  0  0  0  0  0  0  0  0  0  0  0
  -26.7922  -15.8919   19.9979 C   0  0  0  0  0  0  0  0  0  0  0  0
  -17.5305  -27.9673   23.2807 C   0  0  0  0  0  0  0  0  0  0  0  0
  -23.7071  -28.5999   22.1699 C   0  0  0  0  0  0  0  0  0  0  0  0
  -25.9966  -28.7807   21.0594 C   0  0  0  0  0  0  0  0  0  0  0  0
  -21.5636   -9.5484   21.8460 C   0  0  0  0  0  0  0  0  0  0  0  0
  -26.0394  -14.4615   21.7998 C   0  0  0  0  0  0  0  0  0  0  0  0
  -22.3065  -10.5336   21.1679 C   0  0  0  0  0  0  0  0  0  0  0  0
  -25.8759  -15.6186   21.0249 C   0  0  0  0  0  0  0  0  0  0  0  0
  -21.4750  -29.6265   23.4914 C   0  0  0  0  0  0  0  0  0  0  0  0
  -27.8634  -15.0330   19.7534 C   0  0  0  0  0  0  0  0  0  0  0  0
  -19.1362  -29.7236   23.6983 C   0  0  0  0  0  0  0  0  0  0  0  0
  -16.6165  -28.9134   22.8165 C   0  0  0  0  0  0  0  0  0  0  0  0
  -18.7903  -28.3725   23.7216 C   0  0  0  0  0  0  0  0  0  0  0  0
  -24.8601  -28.0691   21.4880 C   0  0  0  0  0  0  0  0  0  0  0  0
  -31.5599  -18.2211   17.8979 C   0  0  0  0  0  0  0  0  0  0  0  0
  -30.2898  -18.7164   20.1933 C   0  0  0  0  0  0  0  0  0  0  0  0
  -30.9808  -17.2036   18.6238 C   0  0  0  0  0  0  0  0  0  0  0  0
  -30.8695  -19.7339   19.4679 C   0  0  0  0  0  0  0  0  0  0  0  0
  -26.7955  -27.8303   20.4720 C   0  0  0  0  0  0  0  0  0  0  0  0
  -26.3028  -30.1761   21.1814 C   0  0  0  0  0  0  0  0  0  0  0  0
  -22.8780  -14.1440   21.7076 C   0  0  0  0  0  0  0  0  0  0  0  0
  -22.9310  -17.1504   22.9248 C   0  0  0  0  0  0  0  0  0  0  0  0
  -24.6205  -20.0903   23.3110 C   0  0  0  0  0  0  0  0  0  0  0  0
  -29.1690  -22.9001   20.5548 C   0  0  0  0  0  0  0  0  0  0  0  0
  -20.2207   -9.8514   22.4621 C   0  0  0  0  0  0  0  0  0  0  0  0
  -25.0867  -14.1560   22.9230 C   0  0  0  0  0  0  0  0  0  0  0  0
  -24.7365  -16.5753   21.2590 C   0  0  0  0  0  0  0  0  0  0  0  0
  -19.9671  -11.3427   22.6671 C   0  0  0  0  0  0  0  0  0  0  0  0
  -25.8165  -23.0334   19.1982 C   0  0  0  0  0  0  0  0  0  0  0  0
  -20.3440  -12.1255   21.4133 C   0  0  0  0  0  0  0  0  0  0  0  0
  -25.3636  -24.4252   19.6428 C   0  0  0  0  0  0  0  0  0  0  0  0
  -26.6746  -22.3635   20.2673 C   0  0  0  0  0  0  0  0  0  0  0  0
  -27.4121  -24.5489   21.1356 C   0  0  0  0  0  0  0  0  0  0  0  0
  -21.8356  -11.9699   21.0934 C   0  0  1  0  0  0  0  0  0  0  0  0
  -23.7246  -14.8204   22.7485 C   0  0  1  0  0  0  0  0  0  0  0  0
  -26.5592  -25.2879   20.0884 C   0  0  2  0  0  0  0  0  0  0  0  0
  -32.2704  -17.9542   16.6152 C   0  0  0  0  0  0  0  0  0  0  0  0
  -29.5790  -18.9830   21.4759 C   0  0  0  0  0  0  0  0  0  0  0  0
  -24.3917  -22.3757   24.3218 C   0  0  0  0  0  0  0  0  0  0  0  0
  -21.0855  -17.9740   20.6389 C   0  0  0  0  0  0  0  0  0  0  0  0
  -21.6561  -20.3615   21.1310 C   0  0  0  0  0  0  0  0  0  0  0  0
  -20.5085  -18.9739   22.8574 C   0  0  0  0  0  0  0  0  0  0  0  0
  -26.9421  -19.6604   25.0955 C   0  0  0  0  0  0  0  0  0  0  0  0
  -31.0389  -15.7703   18.1543 C   0  0  0  0  0  0  0  0  0  0  0  0
  -30.8132  -21.1491   19.9323 C   0  0  0  0  0  0  0  0  0  0  0  0
  -30.0894  -14.8662   18.9329 C   0  0  0  0  0  0  0  0  0  1  0  0
  -22.9448  -18.5412   22.3381 C   0  0  1  0  0  0  0  0  0  0  0  0
  -24.8783  -20.9507   24.5348 C   0  0  2  0  0  0  0  0  0  0  0  0
  -21.5692  -18.9438   21.7354 C   0  0  0  0  0  0  0  0  0  0  0  0
  -24.9270  -26.7671   21.1975 N   0  0  0  0  0  0  0  0  0  0  0  0
  -30.3351  -17.4330   19.7843 N   0  0  0  0  0  0  0  0  0  0  0  0
  -31.5149  -19.5045   18.3072 N   0  0  0  0  0  0  0  0  0  0  0  0
  -26.1152  -26.6531   20.5800 N   0  0  0  0  0  0  0  0  0  0  0  0
  -23.8281  -16.2298   22.3649 N   0  0  0  0  0  0  0  0  0  0  0  0
  -27.8053  -23.2282   20.6333 N   0  0  0  0  0  0  0  0  0  0  0  0
  -28.0064  -27.8951   19.8789 N   0  0  0  0  0  0  0  0  0  0  0  0
  -25.3714  -31.0118   21.8125 N   0  0  0  0  0  0  0  0  0  0  0  0
  -22.6297  -12.8092   21.9648 N   0  0  0  0  0  0  0  0  0  0  0  0
  -23.4150  -19.4267   23.3979 N   0  0  0  0  0  0  0  0  0  0  0  0
  -29.4563  -21.6280   20.0754 N   0  0  0  0  0  0  0  0  0  0  0  0
  -26.3362  -20.9927   24.8408 N   0  3  0  0  0  0  0  0  0  0  0  0
  -27.3634  -30.6701   20.7290 O   0  0  0  0  0  0  0  0  0  0  0  0
  -22.4783  -14.7860   20.7434 O   0  0  0  0  0  0  0  0  0  0  0  0
  -22.1580  -16.8923   23.8508 O   0  0  0  0  0  0  0  0  0  0  0  0
  -25.4081  -20.0172   22.3702 O   0  0  0  0  0  0  0  0  0  0  0  0
  -30.0652  -23.6853   20.8827 O   0  0  0  0  0  0  0  0  0  0  0  0
  -20.3862  -30.1274   24.1365 O   0  0  0  0  0  0  0  0  0  0  0  0
  -28.7453  -15.3114   18.7551 O   0  0  0  0  0  0  0  0  0  1  0  0
  -15.4062  -28.5246   22.3945 F   0  0  0  0  0  0  0  0  0  0  0  0
  -19.6637  -27.4592   24.1675 F   0  0  0  0  0  0  0  0  0  0  0  0
  1  2  1  0  0  0  0
  1  5  2  0  0  0  0
  2  6  2  0  0  0  0
  3  8  2  0  0  0  0
  3 15  1  0  0  0  0
  4  9  1  0  0  0  0
  4 15  2  0  0  0  0
  5 17  1  0  0  0  0
  6 19  1  0  0  0  0
  7 10  2  0  0  0  0
  7 18  1  0  0  0  0
  8 21  1  0  0  0  0
  9 21  2  0  0  0  0
 10 22  1  0  0  0  0
 11 12  2  0  0  0  0
 11 23  1  0  0  0  0
 12 24  1  0  0  0  0
 13 20  1  0  0  0  0
 13 22  2  0  0  0  0
 14 24  2  0  0  0  0
 14 25  1  0  0  0  0
 15 26  1  0  0  0  0
 16 26  1  0  0  0  0
 16 31  2  0  0  0  0
 16 32  1  0  0  0  0
 17 19  2  0  0  0  0
 17 37  1  0  0  0  0
 18 20  2  0  0  0  0
 18 38  1  0  0  0  0
 19 46  1  0  0  0  0
 20 39  1  0  0  0  0
 21 79  1  0  0  0  0
 22 80  1  0  0  0  0
 23 25  2  0  0  0  0
 23 79  1  0  0  0  0
 24 81  1  0  0  0  0
 25 82  1  0  0  0  0
 26 62  2  0  0  0  0
 27 29  2  0  0  0  0
 27 49  1  0  0  0  0
 27 64  1  0  0  0  0
 28 30  1  0  0  0  0
 28 50  1  0  0  0  0
 28 63  2  0  0  0  0
 29 56  1  0  0  0  0
 29 63  1  0  0  0  0
 30 57  1  0  0  0  0
 30 64  2  0  0  0  0
 31 65  1  0  0  0  0
 31 68  1  0  0  0  0
 32 69  1  0  0  0  0
 32 74  2  0  0  0  0
 33 47  1  0  0  0  0
 33 70  1  0  0  0  0
 33 75  2  0  0  0  0
 34 59  1  0  0  0  0
 34 66  1  0  0  0  0
 34 76  2  0  0  0  0
 35 60  1  0  0  0  0
 35 71  1  0  0  0  0
 35 77  2  0  0  0  0
 36 67  1  0  0  0  0
 36 72  1  0  0  0  0
 36 78  2  0  0  0  0
 37 40  1  0  0  0  0
 38 47  1  0  0  0  0
 39 66  1  0  0  0  0
 40 42  1  0  0  0  0
 41 43  1  0  0  0  0
 41 44  1  0  0  0  0
 42 46  1  0  0  0  0
 43 48  1  0  0  0  0
 44 67  1  0  0  0  0
 45 48  1  0  0  0  0
 45 67  1  0  0  0  0
 46 70  1  0  0  0  0
 47 66  1  0  0  0  0
 48 65  1  0  0  0  0
 51 60  1  0  0  0  0
 52 61  1  0  0  0  0
 53 61  1  0  0  0  0
 54 61  1  0  0  0  0
 55 73  1  0  0  0  0
 56 58  1  0  0  0  0
 57 72  1  0  0  0  0
 58 80  1  0  0  0  0
 59 61  1  0  0  0  0
 59 71  1  0  0  0  0
 60 73  1  0  0  0  0
 62 65  1  0  0  0  0
M  CHG  1  73   1
M  ISO  4  36 100  58 101  72 100  80 101
M  END
> <Batch ID>
0045

> <Smiles>
CNC(C)C(=O)NC(C(=O)N1Cc2cc([101O:1][101CH2:1]Cc3nc(C)c(C[100NH:0][100C:0](=O)N4CCCC(n5nc(-c6ccc(Oc7ccc(F)cc7F)cc6)c(C(N)=O)c5N)C4)nc3C)ccc2CC1C(=O)NC1CCCc2ccccc21)C(C)(C)C

> <Shape>
0.234

> <Color>
0.097

> <Negative vol penalty>
0.000

$$$$

  -OEChem-04052317193D

 83 91  0     1  0  0  0  0  0999 V2000
  -31.5049  -24.3562   18.1833 C   0  0  0  0  0  0  0  0  0  0  0  0
  -30.1857  -23.9591   18.3700 C   0  0  0  0  0  0  0  0  0  0  0  0
  -28.0634  -15.7134   19.0430 C   0  0  0  0  0  0  0  0  0  0  0  0
  -28.0918  -16.0094   21.4406 C   0  0  0  0  0  0  0  0  0  0  0  0
  -31.9995  -25.4629   18.8701 C   0  0  0  0  0  0  0  0  0  0  0  0
  -29.3573  -24.6756   19.2344 C   0  0  0  0  0  0  0  0  0  0  0  0
  -24.6042  -23.4101   19.3358 C   0  0  0  0  0  0  0  0  0  0  0  0
  -29.0775  -16.6624   18.9138 C   0  0  0  0  0  0  0  0  0  0  0  0
  -29.1060  -16.9583   21.3115 C   0  0  0  0  0  0  0  0  0  0  0  0
  -24.1517  -22.2261   19.9165 C   0  0  0  0  0  0  0  0  0  0  0  0
  -31.4520  -19.7207   21.5852 C   0  0  0  0  0  0  0  0  0  0  0  0
  -31.3352  -20.8990   22.3225 C   0  0  0  0  0  0  0  0  0  0  0  0
  -23.3795  -23.4688   21.8344 C   0  0  0  0  0  0  0  0  0  0  0  0
  -29.2571  -21.3980   21.1957 C   0  0  0  0  0  0  0  0  0  0  0  0
  -20.8842  -19.4810   26.9530 C   0  0  0  0  0  0  0  0  0  0  0  0
  -27.5705  -15.3870   20.3064 C   0  0  0  0  0  0  0  0  0  0  0  0
  -26.6742  -13.0180   20.6104 C   0  0  0  0  0  0  0  0  0  0  0  0
  -31.1797  -26.1853   19.7526 C   0  0  0  0  0  0  0  0  0  0  0  0
  -24.4573  -24.6330   20.0061 C   0  0  0  0  0  0  0  0  0  0  0  0
  -29.8310  -25.8098   19.9185 C   0  0  0  0  0  0  0  0  0  0  0  0
  -23.8287  -24.6672   21.2590 C   0  0  0  0  0  0  0  0  0  0  0  0
  -29.5988  -17.2848   20.0480 C   0  0  0  0  0  0  0  0  0  0  0  0
  -23.5419  -22.2549   21.1672 C   0  0  0  0  0  0  0  0  0  0  0  0
  -30.4715  -19.3811   20.6530 C   0  0  0  0  0  0  0  0  0  0  0  0
  -30.2377  -21.7376   22.1278 C   0  0  0  0  0  0  0  0  0  0  0  0
  -29.3740  -20.2198   20.4583 C   0  0  0  0  0  0  0  0  0  0  0  0
  -26.5225  -14.4072   20.4405 C   0  0  0  0  0  0  0  0  0  0  0  0
  -20.1338  -21.0845   25.7715 C   0  0  0  0  0  0  0  0  0  0  0  0
  -20.2528  -20.0185   24.9112 C   0  0  0  0  0  0  0  0  0  0  0  0
  -25.3892  -12.5389   20.6856 C   0  0  0  0  0  0  0  0  0  0  0  0
  -27.8699  -12.2310   20.6929 C   0  0  0  0  0  0  0  0  0  0  0  0
  -26.4609  -26.8311   21.1276 C   0  0  0  0  0  0  0  0  0  0  0  0
  -23.7213  -28.4619   21.7254 C   0  0  0  0  0  0  0  0  0  0  0  0
  -20.3581  -28.3653   22.2967 C   0  0  0  0  0  0  0  0  0  0  0  0
  -20.1941  -15.0381   22.3030 C   0  0  0  0  0  0  0  0  0  0  0  0
  -31.7643  -27.3799   20.4643 C   0  0  0  0  0  0  0  0  0  0  0  0
  -24.9267  -25.9048   19.3544 C   0  0  0  0  0  0  0  0  0  0  0  0
  -23.6287  -25.9568   22.0109 C   0  0  0  0  0  0  0  0  0  0  0  0
  -30.9510  -27.8021   21.6836 C   0  0  0  0  0  0  0  0  0  0  0  0
  -20.9456  -13.4877   19.1872 C   0  0  0  0  0  0  0  0  0  0  0  0
  -29.4798  -27.9154   21.3133 C   0  0  0  0  0  0  0  0  0  0  0  0
  -22.4738  -13.4222   19.1704 C   0  0  0  0  0  0  0  0  0  0  0  0
  -20.4428  -14.7666   19.8533 C   0  0  0  0  0  0  0  0  0  0  0  0
  -22.5063  -14.9467   21.1887 C   0  0  0  0  0  0  0  0  0  0  0  0
  -28.9202  -26.5555   20.8769 C   0  0  1  0  0  0  0  0  0  0  0  0
  -25.1878  -27.0273   20.3540 C   0  0  1  0  0  0  0  0  0  0  0  0
  -23.0602  -13.6486   20.5769 C   0  0  2  0  0  0  0  0  0  0  0  0
  -19.6603  -22.4471   25.4808 C   0  0  0  0  0  0  0  0  0  0  0  0
  -18.4000  -29.8556   22.7891 C   0  0  0  0  0  0  0  0  0  0  0  0
  -24.6725  -28.7545   24.6098 C   0  0  0  0  0  0  0  0  0  0  0  0
  -22.3322  -29.3775   25.2449 C   0  0  0  0  0  0  0  0  0  0  0  0
  -23.6113  -30.8048   23.6482 C   0  0  0  0  0  0  0  0  0  0  0  0
  -18.9648  -27.5489   19.8165 C   0  0  0  0  0  0  0  0  0  0  0  0
  -19.9545  -19.8749   23.4402 C   0  0  0  0  0  0  0  0  0  0  0  0
  -21.2028  -19.8811   22.5551 C   0  0  0  0  0  0  0  0  0  0  0  0
  -19.7990  -16.7529   25.1221 C   0  0  0  0  0  0  0  0  0  0  0  0
  -21.0348  -17.6533   25.2529 C   0  0  0  0  0  0  0  0  0  0  0  0
  -20.1075  -15.2994   24.7695 C   0  0  0  0  0  0  0  0  0  0  0  0
  -21.9729  -21.1956   22.6066 C   0  0  0  0  0  0  0  0  0  1  0  0
  -22.7607  -28.5490   22.8867 C   0  0  1  0  0  0  0  0  0  0  0  0
  -19.2123  -29.1657   21.7042 C   0  0  2  0  0  0  0  0  0  0  0  0
  -23.3495  -29.3467   24.0843 C   0  0  0  0  0  0  0  0  0  0  0  0
  -20.5287  -20.7435   27.0408 N   0  0  0  0  0  0  0  0  0  0  0  0
  -25.2421  -14.7861   20.4094 N   0  0  0  0  0  0  0  0  0  0  0  0
  -20.7351  -18.9988   25.6824 N   0  0  0  0  0  0  0  0  0  0  0  0
  -24.5775  -13.6279   20.5607 N   0  0  0  0  0  0  0  0  0  0  0  0
  -24.1103  -27.1727   21.3348 N   0  0  0  0  0  0  0  0  0  0  0  0
  -21.0353  -14.9210   21.1842 N   0  0  0  0  0  0  0  0  0  0  0  0
  -24.8857  -11.2966   20.8456 N   0  0  0  0  0  0  0  0  0  0  0  0
  -29.1068  -12.8829   20.5970 N   0  0  0  0  0  0  0  0  0  0  0  0
  -27.5913  -26.7428   20.3377 N   0  0  0  0  0  0  0  0  0  0  0  0
  -21.5218  -29.1028   22.3511 N   0  0  0  0  0  0  0  0  0  0  0  0
  -20.8370  -15.1746   23.5273 N   0  0  0  0  0  0  0  0  0  0  0  0
  -18.3024  -28.2736   20.9314 N   0  3  0  0  0  0  0  0  0  0  0  0
  -27.8419  -10.9845   20.8306 O   0  0  0  0  0  0  0  0  0  0  0  0
  -26.4208  -26.7662   22.3506 O   0  0  0  0  0  0  0  0  0  0  0  0
  -24.1065  -29.4992   21.1802 O   0  0  0  0  0  0  0  0  0  0  0  0
  -20.2323  -27.2034   22.6769 O   0  0  0  0  0  0  0  0  0  0  0  0
  -18.9615  -15.0169   22.2178 O   0  0  0  0  0  0  0  0  0  0  0  0
  -30.5886  -18.2106   19.9224 O   0  0  0  0  0  0  0  0  0  0  0  0
  -23.0999  -21.1006   21.7365 O   0  0  0  0  0  0  0  0  0  1  0  0
  -30.1248  -22.8683   22.8370 F   0  0  0  0  0  0  0  0  0  0  0  0
  -28.4282  -19.8982   19.5651 F   0  0  0  0  0  0  0  0  0  0  0  0
  1  2  1  0  0  0  0
  1  5  2  0  0  0  0
  2  6  2  0  0  0  0
  3  8  2  0  0  0  0
  3 16  1  0  0  0  0
  4  9  1  0  0  0  0
  4 16  2  0  0  0  0
  5 18  1  0  0  0  0
  6 20  1  0  0  0  0
  7 10  2  0  0  0  0
  7 19  1  0  0  0  0
  8 22  1  0  0  0  0
  9 22  2  0  0  0  0
 10 23  1  0  0  0  0
 11 12  2  0  0  0  0
 11 24  1  0  0  0  0
 12 25  1  0  0  0  0
 13 21  1  0  0  0  0
 13 23  2  0  0  0  0
 14 25  2  0  0  0  0
 14 26  1  0  0  0  0
 15 63  2  0  0  0  0
 15 65  1  0  0  0  0
 16 27  1  0  0  0  0
 17 27  1  0  0  0  0
 17 30  2  0  0  0  0
 17 31  1  0  0  0  0
 18 20  2  0  0  0  0
 18 36  1  0  0  0  0
 19 21  2  0  0  0  0
 19 37  1  0  0  0  0
 20 45  1  0  0  0  0
 21 38  1  0  0  0  0
 22 80  1  0  0  0  0
 23 81  1  0  0  0  0
 24 26  2  0  0  0  0
 24 80  1  0  0  0  0
 25 82  1  0  0  0  0
 26 83  1  0  0  0  0
 27 64  2  0  0  0  0
 28 29  2  0  0  0  0
 28 48  1  0  0  0  0
 28 63  1  0  0  0  0
 29 54  1  0  0  0  0
 29 65  1  0  0  0  0
 30 66  1  0  0  0  0
 30 69  1  0  0  0  0
 31 70  1  0  0  0  0
 31 75  2  0  0  0  0
 32 46  1  0  0  0  0
 32 71  1  0  0  0  0
 32 76  2  0  0  0  0
 33 60  1  0  0  0  0
 33 67  1  0  0  0  0
 33 77  2  0  0  0  0
 34 61  1  0  0  0  0
 34 72  1  0  0  0  0
 34 78  2  0  0  0  0
 35 68  1  0  0  0  0
 35 73  1  0  0  0  0
 35 79  2  0  0  0  0
 36 39  1  0  0  0  0
 37 46  1  0  0  0  0
 38 67  1  0  0  0  0
 39 41  1  0  0  0  0
 40 42  1  0  0  0  0
 40 43  1  0  0  0  0
 41 45  1  0  0  0  0
 42 47  1  0  0  0  0
 43 68  1  0  0  0  0
 44 47  1  0  0  0  0
 44 68  1  0  0  0  0
 45 71  1  0  0  0  0
 46 67  1  0  0  0  0
 47 66  1  0  0  0  0
 49 61  1  0  0  0  0
 50 62  1  0  0  0  0
 51 62  1  0  0  0  0
 52 62  1  0  0  0  0
 53 74  1  0  0  0  0
 54 55  1  0  0  0  0
 55 59  1  0  0  0  0
 56 57  1  0  0  0  0
 56 58  1  0  0  0  0
 57 65  1  0  0  0  0
 58 73  1  0  0  0  0
 59 81  1  0  0  0  0
 60 62  1  0  0  0  0
 60 72  1  0  0  0  0
 61 74  1  0  0  0  0
 64 66  1  0  0  0  0
M  CHG  1  74   1
M  ISO  4  35 100  59 101  73 100  81 101
M  END
> <Batch ID>
0045

> <Smiles>
CNC(C)C(=O)NC(C(=O)N1Cc2cc([101O:1][101CH2:1]CCc3c(C)ncn3CCC[100NH:0][100C:0](=O)N3CCCC(n4nc(-c5ccc(Oc6ccc(F)cc6F)cc5)c(C(N)=O)c4N)C3)ccc2CC1C(=O)NC1CCCc2ccccc21)C(C)(C)C

> <Shape>
0.232

> <Color>
0.058

> <Negative vol penalty>
0.000

$$$$

  -OEChem-04052317193D

 85 93  0     1  0  0  0  0  0999 V2000
  -21.9026   -8.8004   20.8117 C   0  0  0  0  0  0  0  0  0  0  0  0
  -21.7792  -10.1372   21.1765 C   0  0  0  0  0  0  0  0  0  0  0  0
  -25.3916  -29.2268   19.6015 C   0  0  0  0  0  0  0  0  0  0  0  0
  -25.5458  -29.0656   22.0072 C   0  0  0  0  0  0  0  0  0  0  0  0
  -23.1493   -8.1781   20.8598 C   0  0  0  0  0  0  0  0  0  0  0  0
  -22.9023  -10.8522   21.5908 C   0  0  0  0  0  0  0  0  0  0  0  0
  -24.0662  -16.7815   20.5930 C   0  0  0  0  0  0  0  0  0  0  0  0
  -24.2278  -29.9854   19.7270 C   0  0  0  0  0  0  0  0  0  0  0  0
  -24.3820  -29.8242   22.1327 C   0  0  0  0  0  0  0  0  0  0  0  0
  -23.9040  -17.9158   21.3873 C   0  0  0  0  0  0  0  0  0  0  0  0
  -21.0476  -29.3340   21.8645 C   0  0  0  0  0  0  0  0  0  0  0  0
  -20.0837  -28.8966   22.7729 C   0  0  0  0  0  0  0  0  0  0  0  0
  -26.2139  -17.7636   22.0657 C   0  0  0  0  0  0  0  0  0  0  0  0
  -20.2870  -30.9743   23.9890 C   0  0  0  0  0  0  0  0  0  0  0  0
  -26.0506  -28.7669   20.7417 C   0  0  0  0  0  0  0  0  0  0  0  0
  -28.5764  -28.4585   20.5599 C   0  0  0  0  0  0  0  0  0  0  0  0
  -24.2901   -8.8885   21.2656 C   0  0  0  0  0  0  0  0  0  0  0  0
  -25.3026  -16.1222   20.5375 C   0  0  0  0  0  0  0  0  0  0  0  0
  -24.1653  -10.2385   21.6456 C   0  0  0  0  0  0  0  0  0  0  0  0
  -26.3899  -16.6226   21.2680 C   0  0  0  0  0  0  0  0  0  0  0  0
  -25.0984  -21.0451   25.9651 C   0  0  0  0  0  0  0  0  0  0  0  0
  -23.7230  -30.2842   20.9925 C   0  0  0  0  0  0  0  0  0  0  0  0
  -24.9772  -18.4053   22.1260 C   0  0  0  0  0  0  0  0  0  0  0  0
  -21.6313  -30.5915   22.0184 C   0  0  0  0  0  0  0  0  0  0  0  0
  -19.7034  -29.7167   23.8351 C   0  0  0  0  0  0  0  0  0  0  0  0
  -21.2510  -31.4116   23.0806 C   0  0  0  0  0  0  0  0  0  0  0  0
  -27.2525  -27.9827   20.6127 C   0  0  0  0  0  0  0  0  0  0  0  0
  -23.8725  -20.8788   25.2933 C   0  0  0  0  0  0  0  0  0  0  0  0
  -24.8864  -20.4979   27.2069 C   0  0  0  0  0  0  0  0  0  0  0  0
  -29.3435  -27.3260   20.4357 C   0  0  0  0  0  0  0  0  0  0  0  0
  -29.0686  -29.8039   20.6181 C   0  0  0  0  0  0  0  0  0  0  0  0
  -26.3300  -13.2133   21.3033 C   0  0  0  0  0  0  0  0  0  0  0  0
  -29.0866  -14.2541   19.9465 C   0  0  0  0  0  0  0  0  0  0  0  0
  -31.0662  -16.8901   19.0637 C   0  0  0  0  0  0  0  0  0  0  0  0
  -28.4497  -21.6072   21.9678 C   0  0  0  0  0  0  0  0  0  0  0  0
  -25.6082   -8.1601   21.3467 C   0  0  0  0  0  0  0  0  0  0  0  0
  -25.4684  -14.9155   19.6552 C   0  0  0  0  0  0  0  0  0  0  0  0
  -27.7435  -15.9634   21.2270 C   0  0  0  0  0  0  0  0  0  0  0  0
  -26.8141   -9.0915   21.4387 C   0  0  0  0  0  0  0  0  0  0  0  0
  -29.1818  -22.8636   18.7178 C   0  0  0  0  0  0  0  0  0  0  0  0
  -26.5656  -10.1864   22.4713 C   0  0  0  0  0  0  0  0  0  0  0  0
  -28.8898  -24.3609   18.8302 C   0  0  0  0  0  0  0  0  0  0  0  0
  -28.1987  -22.0336   19.5405 C   0  0  0  0  0  0  0  0  0  0  0  0
  -27.7991  -23.9241   21.0703 C   0  0  0  0  0  0  0  0  0  0  0  0
  -25.3646  -11.0545   22.0768 C   0  0  1  0  0  0  0  0  0  0  0  0
  -26.6330  -14.0238   20.0749 C   0  0  1  0  0  0  0  0  0  0  0  0
  -28.7988  -24.8056   20.3023 C   0  0  2  0  0  0  0  0  0  0  0  0
  -25.7762  -20.3599   28.3753 C   0  0  0  0  0  0  0  0  0  0  0  0
  -22.5498  -17.2611   29.5640 C   0  0  0  0  0  0  0  0  0  0  0  0
  -33.2775  -17.4251   18.0049 C   0  0  0  0  0  0  0  0  0  0  0  0
  -30.5117  -13.4468   22.5209 C   0  0  0  0  0  0  0  0  0  0  0  0
  -32.4611  -14.8410   21.7966 C   0  0  0  0  0  0  0  0  0  0  0  0
  -31.7503  -12.8842   20.4223 C   0  0  0  0  0  0  0  0  0  0  0  0
  -29.7794  -18.3880   16.8593 C   0  0  0  0  0  0  0  0  0  0  0  0
  -26.3328  -21.6663   25.4546 C   0  0  0  0  0  0  0  0  0  0  0  0
  -23.5245  -21.2965   23.8852 C   0  0  0  0  0  0  0  0  0  0  0  0
  -23.3005  -17.9342   28.4268 C   0  0  0  0  0  0  0  0  0  0  0  0
  -27.4236  -20.6708   24.9867 C   0  0  0  0  0  0  0  0  0  0  0  0
  -22.9001  -19.4013   28.2875 C   0  0  0  0  0  0  0  0  0  0  0  0
  -28.6762  -21.3396   24.4247 C   0  0  0  0  0  0  0  0  0  0  0  0
  -23.5312  -20.1214   22.9134 C   0  0  0  0  0  0  0  0  0  1  0  0
  -30.3197  -14.9687   20.4441 C   0  0  1  0  0  0  0  0  0  0  0  0
  -31.7894  -17.2177   17.7698 C   0  0  2  0  0  0  0  0  0  0  0  0
  -31.2348  -14.0467   21.2985 C   0  0  0  0  0  0  0  0  0  0  0  0
  -27.1792  -26.6517   20.5287 N   0  0  0  0  0  0  0  0  0  0  0  0
  -22.9501  -20.2732   26.0458 N   0  0  0  0  0  0  0  0  0  0  0  0
  -23.5967  -20.0541   27.2034 N   0  0  0  0  0  0  0  0  0  0  0  0
  -28.4667  -26.2815   20.4218 N   0  0  0  0  0  0  0  0  0  0  0  0
  -27.8537  -14.7827   20.3544 N   0  0  0  0  0  0  0  0  0  0  0  0
  -28.1611  -22.5052   20.9269 N   0  0  0  0  0  0  0  0  0  0  0  0
  -30.6759  -27.1318   20.3380 N   0  0  0  0  0  0  0  0  0  0  0  0
  -28.1435  -30.8488   20.7467 N   0  0  0  0  0  0  0  0  0  0  0  0
  -25.7381  -11.9927   21.0401 N   0  0  0  0  0  0  0  0  0  0  0  0
  -30.9704  -15.5293   19.2648 N   0  0  0  0  0  0  0  0  0  0  0  0
  -28.3979  -22.1373   23.2512 N   0  0  0  0  0  0  0  0  0  0  0  0
  -31.2315  -18.4601   17.1648 N   0  3  0  0  0  0  0  0  0  0  0  0
  -30.2915  -30.0725   20.5413 O   0  0  0  0  0  0  0  0  0  0  0  0
  -26.6137  -13.6615   22.4080 O   0  0  0  0  0  0  0  0  0  0  0  0
  -29.2124  -13.2675   19.2168 O   0  0  0  0  0  0  0  0  0  0  0  0
  -30.6330  -17.7548   19.8220 O   0  0  0  0  0  0  0  0  0  0  0  0
  -28.7377  -20.4223   21.7678 O   0  0  0  0  0  0  0  0  0  0  0  0
  -22.5876  -31.0246   21.1153 O   0  0  0  0  0  0  0  0  0  0  0  0
  -24.8214  -19.5119   22.9025 O   0  0  0  0  0  0  0  0  0  1  0  0
  -18.7766  -29.2972   24.7064 F   0  0  0  0  0  0  0  0  0  0  0  0
  -21.8074  -32.6212   23.2330 F   0  0  0  0  0  0  0  0  0  0  0  0
  1  2  1  0  0  0  0
  1  5  2  0  0  0  0
  2  6  2  0  0  0  0
  3  8  2  0  0  0  0
  3 15  1  0  0  0  0
  4  9  1  0  0  0  0
  4 15  2  0  0  0  0
  5 17  1  0  0  0  0
  6 19  1  0  0  0  0
  7 10  2  0  0  0  0
  7 18  1  0  0  0  0
  8 22  1  0  0  0  0
  9 22  2  0  0  0  0
 10 23  1  0  0  0  0
 11 12  2  0  0  0  0
 11 24  1  0  0  0  0
 12 25  1  0  0  0  0
 13 20  1  0  0  0  0
 13 23  2  0  0  0  0
 14 25  2  0  0  0  0
 14 26  1  0  0  0  0
 15 27  1  0  0  0  0
 16 27  1  0  0  0  0
 16 30  2  0  0  0  0
 16 31  1  0  0  0  0
 17 19  2  0  0  0  0
 17 36  1  0  0  0  0
 18 20  2  0  0  0  0
 18 37  1  0  0  0  0
 19 45  1  0  0  0  0
 20 38  1  0  0  0  0
 21 28  1  0  0  0  0
 21 29  2  0  0  0  0
 21 55  1  0  0  0  0
 22 82  1  0  0  0  0
 23 83  1  0  0  0  0
 24 26  2  0  0  0  0
 24 82  1  0  0  0  0
 25 84  1  0  0  0  0
 26 85  1  0  0  0  0
 27 65  2  0  0  0  0
 28 56  1  0  0  0  0
 28 66  2  0  0  0  0
 29 48  1  0  0  0  0
 29 67  1  0  0  0  0
 30 68  1  0  0  0  0
 30 71  1  0  0  0  0
 31 72  1  0  0  0  0
 31 77  2  0  0  0  0
 32 46  1  0  0  0  0
 32 73  1  0  0  0  0
 32 78  2  0  0  0  0
 33 62  1  0  0  0  0
 33 69  1  0  0  0  0
 33 79  2  0  0  0  0
 34 63  1  0  0  0  0
 34 74  1  0  0  0  0
 34 80  2  0  0  0  0
 35 70  1  0  0  0  0
 35 75  1  0  0  0  0
 35 81  2  0  0  0  0
 36 39  1  0  0  0  0
 37 46  1  0  0  0  0
 38 69  1  0  0  0  0
 39 41  1  0  0  0  0
 40 42  1  0  0  0  0
 40 43  1  0  0  0  0
 41 45  1  0  0  0  0
 42 47  1  0  0  0  0
 43 70  1  0  0  0  0
 44 47  1  0  0  0  0
 44 70  1  0  0  0  0
 45 73  1  0  0  0  0
 46 69  1  0  0  0  0
 47 68  1  0  0  0  0
 49 57  1  0  0  0  0
 50 63  1  0  0  0  0
 51 64  1  0  0  0  0
 52 64  1  0  0  0  0
 53 64  1  0  0  0  0
 54 76  1  0  0  0  0
 55 58  1  0  0  0  0
 56 61  1  0  0  0  0
 57 59  1  0  0  0  0
 58 60  1  0  0  0  0
 59 67  1  0  0  0  0
 60 75  1  0  0  0  0
 61 83  1  0  0  0  0
 62 64  1  0  0  0  0
 62 74  1  0  0  0  0
 63 76  1  0  0  0  0
 65 68  1  0  0  0  0
 66 67  1  0  0  0  0
M  CHG  1  76   1
M  ISO  4  35 100  61 101  75 100  83 101
M  END
> <Batch ID>
0045

> <Smiles>
CCCn1nc(C[101CH2:1][101O:1]c2ccc3c(c2)CN(C(=O)C(NC(=O)C(C)NC)C(C)(C)C)C(C(=O)NC2CCCc4ccccc42)C3)c(CCC[100NH:0][100C:0](=O)N2CCCC(n3nc(-c4ccc(Oc5ccc(F)cc5F)cc4)c(C(N)=O)c3N)C2)c1C

> <Shape>
0.252

> <Color>
0.051

> <Negative vol penalty>
0.000

$$$$

  -OEChem-04052317193D

 85 93  0     1  0  0  0  0  0999 V2000
  -26.3636  -32.0055   21.5490 C   0  0  0  0  0  0  0  0  0  0  0  0
  -26.3369  -30.7484   20.9535 C   0  0  0  0  0  0  0  0  0  0  0  0
  -23.1066   -9.8554   21.4188 C   0  0  0  0  0  0  0  0  0  0  0  0
  -23.8638  -10.7080   23.5488 C   0  0  0  0  0  0  0  0  0  0  0  0
  -26.6240  -32.1238   22.9136 C   0  0  0  0  0  0  0  0  0  0  0  0
  -26.5716  -29.6090   21.7222 C   0  0  0  0  0  0  0  0  0  0  0  0
  -24.6721  -22.7196   22.2169 C   0  0  0  0  0  0  0  0  0  0  0  0
  -22.3884   -8.8554   22.0744 C   0  0  0  0  0  0  0  0  0  0  0  0
  -23.1456   -9.7081   24.2044 C   0  0  0  0  0  0  0  0  0  0  0  0
  -25.2400  -21.4489   22.2987 C   0  0  0  0  0  0  0  0  0  0  0  0
  -20.6451   -5.8592   23.1732 C   0  0  0  0  0  0  0  0  0  0  0  0
  -20.7323   -4.5608   22.6712 C   0  0  0  0  0  0  0  0  0  0  0  0
  -25.6008  -21.7690   24.6623 C   0  0  0  0  0  0  0  0  0  0  0  0
  -23.1200   -4.5786   23.0399 C   0  0  0  0  0  0  0  0  0  0  0  0
  -23.8444  -10.7817   22.1560 C   0  0  0  0  0  0  0  0  0  0  0  0
  -24.1298  -13.0989   21.1279 C   0  0  0  0  0  0  0  0  0  0  0  0
  -26.8525  -30.9845   23.7013 C   0  0  0  0  0  0  0  0  0  0  0  0
  -24.5740  -23.5301   23.3570 C   0  0  0  0  0  0  0  0  0  0  0  0
  -26.8366  -29.7122   23.0984 C   0  0  0  0  0  0  0  0  0  0  0  0
  -25.0289  -23.0485   24.5928 C   0  0  0  0  0  0  0  0  0  0  0  0
  -22.4079   -8.7818   23.4672 C   0  0  0  0  0  0  0  0  0  0  0  0
  -25.7071  -20.9746   23.5209 C   0  0  0  0  0  0  0  0  0  0  0  0
  -21.7954   -6.5175   23.6085 C   0  0  0  0  0  0  0  0  0  0  0  0
  -21.9698   -3.9204   22.6046 C   0  0  0  0  0  0  0  0  0  0  0  0
  -23.0328   -5.8771   23.5419 C   0  0  0  0  0  0  0  0  0  0  0  0
  -24.5869  -11.8146   21.4793 C   0  0  0  0  0  0  0  0  0  0  0  0
  -29.6776  -20.0659   23.0298 C   0  0  0  0  0  0  0  0  0  0  0  0
  -29.6226  -18.7056   23.2233 C   0  0  0  0  0  0  0  0  0  0  0  0
  -25.2053  -13.6890   20.5103 C   0  0  0  0  0  0  0  0  0  0  0  0
  -27.6291  -19.6272   23.4065 C   0  0  0  0  0  0  0  0  0  1  0  0
  -22.8477  -13.7043   21.3409 C   0  0  0  0  0  0  0  0  0  0  0  0
  -25.7487  -26.3591   24.2058 C   0  0  0  0  0  0  0  0  0  0  0  0
  -23.8357  -25.9413   26.7919 C   0  0  0  0  0  0  0  0  0  0  0  0
  -22.1755  -23.7830   28.8491 C   0  0  0  0  0  0  0  0  0  0  0  0
  -30.6648  -14.8231   20.2779 C   0  0  0  0  0  0  0  0  0  0  0  0
  -27.1765  -31.1657   25.1631 C   0  0  0  0  0  0  0  0  0  0  0  0
  -23.9345  -24.8878   23.2572 C   0  0  0  0  0  0  0  0  0  0  0  0
  -24.9283  -23.8714   25.8503 C   0  0  0  0  0  0  0  0  0  0  0  0
  -27.0442  -29.8828   25.9798 C   0  0  0  0  0  0  0  0  0  0  0  0
  -29.5831  -11.7129   18.9239 C   0  0  0  0  0  0  0  0  0  0  0  0
  -27.7218  -28.7203   25.2613 C   0  0  0  0  0  0  0  0  0  0  0  0
  -28.1521  -11.5654   19.4440 C   0  0  0  0  0  0  0  0  0  0  0  0
  -30.4938  -12.3727   19.9569 C   0  0  0  0  0  0  0  0  0  0  0  0
  -28.5749  -13.5156   20.9985 C   0  0  0  0  0  0  0  0  0  0  0  0
  -27.0618  -28.4509   23.9036 C   0  0  1  0  0  0  0  0  0  0  0  0
  -24.3536  -25.8298   24.3817 C   0  0  1  0  0  0  0  0  0  0  0  0
  -27.6060  -12.9060   19.9709 C   0  0  2  0  0  0  0  0  0  0  0  0
  -30.8519  -20.9023   22.7344 C   0  0  0  0  0  0  0  0  0  0  0  0
  -20.7290  -23.7349   30.8992 C   0  0  0  0  0  0  0  0  0  0  0  0
  -25.8603  -15.2889   25.3143 C   0  0  0  0  0  0  0  0  0  0  0  0
  -27.7420  -14.8999   26.9171 C   0  0  0  0  0  0  0  0  0  0  0  0
  -26.2906  -26.4441   28.5327 C   0  0  0  0  0  0  0  0  0  0  0  0
  -25.0351  -25.4642   30.4645 C   0  0  0  0  0  0  0  0  0  0  0  0
  -24.1917  -27.5306   29.3504 C   0  0  0  0  0  0  0  0  0  0  0  0
  -19.9225  -22.5574   27.3723 C   0  0  0  0  0  0  0  0  0  0  0  0
  -30.6679  -17.6666   23.2030 C   0  0  0  0  0  0  0  0  0  0  0  0
  -31.5013  -17.6007   21.8992 C   0  0  0  0  0  0  0  0  0  0  0  0
  -27.9892  -16.6843   25.1664 C   0  0  0  0  0  0  0  0  0  0  0  0
  -27.7246  -17.1431   23.7309 C   0  0  0  0  0  0  0  0  0  0  0  0
  -30.6813  -17.2764   20.6522 C   0  0  0  0  0  0  0  0  0  0  0  0
  -24.0015  -25.3115   28.1538 C   0  0  1  0  0  0  0  0  0  0  0  0
  -20.7531  -23.7900   29.3796 C   0  0  2  0  0  0  0  0  0  0  0  0
  -27.3797  -15.3078   25.4871 C   0  0  0  0  0  0  0  0  0  0  0  0
  -24.8835  -26.1726   29.1015 C   0  0  0  0  0  0  0  0  0  0  0  0
  -25.8540  -11.6007   21.1150 N   0  0  0  0  0  0  0  0  0  0  0  0
  -28.4334  -20.6336   23.1451 N   0  0  0  0  0  0  0  0  0  0  0  0
  -28.3040  -18.4396   23.4636 N   0  0  0  0  0  0  0  0  0  0  0  0
  -26.2023  -12.7585   20.5282 N   0  0  0  0  0  0  0  0  0  0  0  0
  -24.3009  -25.1947   25.7001 N   0  0  0  0  0  0  0  0  0  0  0  0
  -29.9196  -13.6402   20.4146 N   0  0  0  0  0  0  0  0  0  0  0  0
  -25.3860  -14.9079   19.9589 N   0  0  0  0  0  0  0  0  0  0  0  0
  -21.8560  -12.9576   21.9915 N   0  0  0  0  0  0  0  0  0  0  0  0
  -25.8173  -27.7335   24.0800 N   0  0  0  0  0  0  0  0  0  0  0  0
  -22.6543  -25.0613   28.6546 N   0  0  0  0  0  0  0  0  0  0  0  0
  -30.0442  -15.9808   20.7310 N   0  0  0  0  0  0  0  0  0  0  0  0
  -19.9987  -22.6168   28.8547 N   0  3  0  0  0  0  0  0  0  0  0  0
  -22.5840  -14.8670   20.9507 O   0  0  0  0  0  0  0  0  0  0  0  0
  -26.6932  -25.5785   24.1870 O   0  0  0  0  0  0  0  0  0  0  0  0
  -23.3061  -27.0516   26.6995 O   0  0  0  0  0  0  0  0  0  0  0  0
  -22.8006  -22.7472   28.6326 O   0  0  0  0  0  0  0  0  0  0  0  0
  -31.7970  -14.8465   19.7834 O   0  0  0  0  0  0  0  0  0  0  0  0
  -21.7070   -7.8063   24.1073 O   0  0  0  0  0  0  0  0  0  0  0  0
  -26.2625  -19.7350   23.6034 O   0  0  0  0  0  0  0  0  0  1  0  0
  -22.0531   -2.6730   22.1240 F   0  0  0  0  0  0  0  0  0  0  0  0
  -24.1411   -6.5039   23.9596 F   0  0  0  0  0  0  0  0  0  0  0  0
  1  2  1  0  0  0  0
  1  5  2  0  0  0  0
  2  6  2  0  0  0  0
  3  8  2  0  0  0  0
  3 15  1  0  0  0  0
  4  9  1  0  0  0  0
  4 15  2  0  0  0  0
  5 17  1  0  0  0  0
  6 19  1  0  0  0  0
  7 10  2  0  0  0  0
  7 18  1  0  0  0  0
  8 21  1  0  0  0  0
  9 21  2  0  0  0  0
 10 22  1  0  0  0  0
 11 12  2  0  0  0  0
 11 23  1  0  0  0  0
 12 24  1  0  0  0  0
 13 20  1  0  0  0  0
 13 22  2  0  0  0  0
 14 24  2  0  0  0  0
 14 25  1  0  0  0  0
 15 26  1  0  0  0  0
 16 26  1  0  0  0  0
 16 29  2  0  0  0  0
 16 31  1  0  0  0  0
 17 19  2  0  0  0  0
 17 36  1  0  0  0  0
 18 20  2  0  0  0  0
 18 37  1  0  0  0  0
 19 45  1  0  0  0  0
 20 38  1  0  0  0  0
 21 82  1  0  0  0  0
 22 83  1  0  0  0  0
 23 25  2  0  0  0  0
 23 82  1  0  0  0  0
 24 84  1  0  0  0  0
 25 85  1  0  0  0  0
 26 65  2  0  0  0  0
 27 28  2  0  0  0  0
 27 48  1  0  0  0  0
 27 66  1  0  0  0  0
 28 56  1  0  0  0  0
 28 67  1  0  0  0  0
 29 68  1  0  0  0  0
 29 71  1  0  0  0  0
 30 66  2  0  0  0  0
 30 67  1  0  0  0  0
 30 83  1  0  0  0  0
 31 72  1  0  0  0  0
 31 77  2  0  0  0  0
 32 46  1  0  0  0  0
 32 73  1  0  0  0  0
 32 78  2  0  0  0  0
 33 61  1  0  0  0  0
 33 69  1  0  0  0  0
 33 79  2  0  0  0  0
 34 62  1  0  0  0  0
 34 74  1  0  0  0  0
 34 80  2  0  0  0  0
 35 70  1  0  0  0  0
 35 75  1  0  0  0  0
 35 81  2  0  0  0  0
 36 39  1  0  0  0  0
 37 46  1  0  0  0  0
 38 69  1  0  0  0  0
 39 41  1  0  0  0  0
 40 42  1  0  0  0  0
 40 43  1  0  0  0  0
 41 45  1  0  0  0  0
 42 47  1  0  0  0  0
 43 70  1  0  0  0  0
 44 47  1  0  0  0  0
 44 70  1  0  0  0  0
 45 73  1  0  0  0  0
 46 69  1  0  0  0  0
 47 68  1  0  0  0  0
 49 62  1  0  0  0  0
 50 63  1  0  0  0  0
 51 63  1  0  0  0  0
 52 64  1  0  0  0  0
 53 64  1  0  0  0  0
 54 64  1  0  0  0  0
 55 76  1  0  0  0  0
 56 57  1  0  0  0  0
 57 60  1  0  0  0  0
 58 59  1  0  0  0  0
 58 63  1  0  0  0  0
 59 67  1  0  0  0  0
 60 75  1  0  0  0  0
 61 64  1  0  0  0  0
 61 74  1  0  0  0  0
 62 76  1  0  0  0  0
 65 68  1  0  0  0  0
M  CHG  1  76   1
M  ISO  4  30 101  35 100  75 100  83 101
M  END
> <Batch ID>
0045

> <Smiles>
CNC(C)C(=O)NC(C(=O)N1Cc2cc([101O:1][101c:1]3nc(C)c(CCC[100NH:0][100C:0](=O)N4CCCC(n5nc(-c6ccc(Oc7ccc(F)cc7F)cc6)c(C(N)=O)c5N)C4)n3CCC(C)C)ccc2CC1C(=O)NC1CCCc2ccccc21)C(C)(C)C

> <Shape>
0.208

> <Color>
0.150

> <Negative vol penalty>
0.000

$$$$

  -OEChem-04052317193D

 85 93  0     1  0  0  0  0  0999 V2000
  -31.2431  -31.4392   24.2292 C   0  0  0  0  0  0  0  0  0  0  0  0
  -31.4125  -30.0587   24.1991 C   0  0  0  0  0  0  0  0  0  0  0  0
  -23.5192   -9.6968   20.2986 C   0  0  0  0  0  0  0  0  0  0  0  0
  -24.0777  -10.1520   22.6047 C   0  0  0  0  0  0  0  0  0  0  0  0
  -30.2707  -32.0386   23.4297 C   0  0  0  0  0  0  0  0  0  0  0  0
  -30.6089  -29.2767   23.3703 C   0  0  0  0  0  0  0  0  0  0  0  0
  -32.2414  -24.1676   20.4143 C   0  0  0  0  0  0  0  0  0  0  0  0
  -22.9296   -8.4914   20.6793 C   0  0  0  0  0  0  0  0  0  0  0  0
  -23.4880   -8.9466   22.9854 C   0  0  0  0  0  0  0  0  0  0  0  0
  -32.0621  -22.8164   20.7073 C   0  0  0  0  0  0  0  0  0  0  0  0
  -20.3682   -7.7576   23.5087 C   0  0  0  0  0  0  0  0  0  0  0  0
  -19.5304   -7.7715   24.6238 C   0  0  0  0  0  0  0  0  0  0  0  0
  -30.0967  -22.7802   19.3092 C   0  0  0  0  0  0  0  0  0  0  0  0
  -20.9705   -6.1751   25.7258 C   0  0  0  0  0  0  0  0  0  0  0  0
  -28.6253  -17.7737   24.5035 C   0  0  0  0  0  0  0  0  0  0  0  0
  -24.0933  -10.5271   21.2613 C   0  0  0  0  0  0  0  0  0  0  0  0
  -24.0797  -13.0305   20.7713 C   0  0  0  0  0  0  0  0  0  0  0  0
  -29.4612  -31.2645   22.5835 C   0  0  0  0  0  0  0  0  0  0  0  0
  -31.3420  -24.8391   19.5737 C   0  0  0  0  0  0  0  0  0  0  0  0
  -29.6238  -29.8661   22.5598 C   0  0  0  0  0  0  0  0  0  0  0  0
  -30.2682  -24.1393   19.0050 C   0  0  0  0  0  0  0  0  0  0  0  0
  -29.8817  -17.5032   24.0008 C   0  0  0  0  0  0  0  0  0  0  0  0
  -22.9140   -8.1163   22.0227 C   0  0  0  0  0  0  0  0  0  0  0  0
  -30.9880  -22.1232   20.1571 C   0  0  0  0  0  0  0  0  0  0  0  0
  -21.5072   -6.9524   23.5021 C   0  0  0  0  0  0  0  0  0  0  0  0
  -19.8315   -6.9803   25.7323 C   0  0  0  0  0  0  0  0  0  0  0  0
  -21.8083   -6.1611   24.6107 C   0  0  0  0  0  0  0  0  0  0  0  0
  -24.7031  -11.7721   20.8685 C   0  0  0  0  0  0  0  0  0  0  0  0
  -30.2387  -16.1705   23.9716 C   0  0  0  0  0  0  0  0  0  0  0  0
  -25.0799  -13.8785   20.3625 C   0  0  0  0  0  0  0  0  0  0  0  0
  -28.2389  -15.5631   24.8653 C   0  0  0  0  0  0  0  0  0  0  0  0
  -22.7182  -13.4000   21.0276 C   0  0  0  0  0  0  0  0  0  0  0  0
  -29.3525  -27.2936   19.9213 C   0  0  0  0  0  0  0  0  0  0  0  0
  -28.9413  -26.9100   16.7266 C   0  0  0  0  0  0  0  0  0  0  0  0
  -29.0917  -24.8452   14.0135 C   0  0  0  0  0  0  0  0  0  0  0  0
  -31.0415  -13.7059   20.8913 C   0  0  0  0  0  0  0  0  0  0  0  0
  -28.3916  -31.9526   21.7729 C   0  0  0  0  0  0  0  0  0  0  0  0
  -31.5645  -26.2901   19.2461 C   0  0  0  0  0  0  0  0  0  0  0  0
  -29.2858  -24.8091   18.0804 C   0  0  0  0  0  0  0  0  0  0  0  0
  -27.8341  -31.0904   20.6433 C   0  0  0  0  0  0  0  0  0  0  0  0
  -29.1654  -13.9247   17.8732 C   0  0  0  0  0  0  0  0  0  0  0  0
  -27.5210  -29.6856   21.1487 C   0  0  0  0  0  0  0  0  0  0  0  0
  -27.7528  -13.5113   18.2898 C   0  0  0  0  0  0  0  0  0  0  0  0
  -30.2308  -13.1279   18.6230 C   0  0  0  0  0  0  0  0  0  0  0  0
  -28.6920  -12.7416   20.5089 C   0  0  0  0  0  0  0  0  0  0  0  0
  -28.7882  -28.9864   21.6554 C   0  0  1  0  0  0  0  0  0  0  0  0
  -30.2947  -27.0008   18.7881 C   0  0  1  0  0  0  0  0  0  0  0  0
  -27.5838  -13.5566   19.8204 C   0  0  2  0  0  0  0  0  0  0  0  0
  -27.9083  -13.7103   26.5421 C   0  0  0  0  0  0  0  0  0  0  0  0
  -26.9373  -13.5015   24.2250 C   0  0  0  0  0  0  0  0  0  0  0  0
  -28.6584  -24.8053   11.5420 C   0  0  0  0  0  0  0  0  0  0  0  0
  -25.9405  -26.7588   17.2575 C   0  0  0  0  0  0  0  0  0  0  0  0
  -25.6546  -25.7893   14.9670 C   0  0  0  0  0  0  0  0  0  0  0  0
  -26.5769  -28.0910   15.2390 C   0  0  0  0  0  0  0  0  0  0  0  0
  -31.9214  -24.2227   13.4101 C   0  0  0  0  0  0  0  0  0  0  0  0
  -30.7860  -18.6105   23.5217 C   0  0  0  0  0  0  0  0  0  0  0  0
  -31.5750  -15.7587   23.4478 C   0  0  0  0  0  0  0  0  0  0  0  0
  -30.3990  -19.1727   22.1521 C   0  0  0  0  0  0  0  0  0  0  0  0
  -31.7048  -14.2486   23.2204 C   0  0  0  0  0  0  0  0  0  0  0  0
  -31.2657  -20.3479   21.7150 C   0  0  0  0  0  0  0  0  0  1  0  0
  -27.3263  -14.4854   25.3448 C   0  0  0  0  0  0  0  0  0  0  0  0
  -28.0082  -26.1011   15.8583 C   0  0  1  0  0  0  0  0  0  0  0  0
  -29.6922  -25.0384   12.6327 C   0  0  2  0  0  0  0  0  0  0  0  0
  -26.5623  -26.6726   15.8494 C   0  0  0  0  0  0  0  0  0  0  0  0
  -27.7747  -16.8246   24.9461 N   0  0  0  0  0  0  0  0  0  0  0  0
  -25.9989  -11.8124   20.5473 N   0  0  0  0  0  0  0  0  0  0  0  0
  -29.4392  -15.1707   24.3975 N   0  0  0  0  0  0  0  0  0  0  0  0
  -26.1979  -13.1064   20.2441 N   0  0  0  0  0  0  0  0  0  0  0  0
  -29.5425  -26.2305   17.7956 N   0  0  0  0  0  0  0  0  0  0  0  0
  -30.0146  -13.2132   20.0693 N   0  0  0  0  0  0  0  0  0  0  0  0
  -25.1032  -15.2018   20.0964 N   0  0  0  0  0  0  0  0  0  0  0  0
  -21.8221  -12.4045   21.4403 N   0  0  0  0  0  0  0  0  0  0  0  0
  -29.5799  -28.5066   20.5430 N   0  0  0  0  0  0  0  0  0  0  0  0
  -28.6321  -26.0333   14.5413 N   0  0  0  0  0  0  0  0  0  0  0  0
  -30.7518  -13.7594   22.2492 N   0  0  0  0  0  0  0  0  0  0  0  0
  -30.8209  -24.0884   12.4213 N   0  3  0  0  0  0  0  0  0  0  0  0
  -22.3047  -14.5749   20.8787 O   0  0  0  0  0  0  0  0  0  0  0  0
  -28.4825  -26.4800   20.2093 O   0  0  0  0  0  0  0  0  0  0  0  0
  -29.1354  -28.0990   16.4618 O   0  0  0  0  0  0  0  0  0  0  0  0
  -29.0325  -23.7494   14.5668 O   0  0  0  0  0  0  0  0  0  0  0  0
  -32.1337  -14.0759   20.4473 O   0  0  0  0  0  0  0  0  0  0  0  0
  -22.3385   -6.9403   22.3946 O   0  0  0  0  0  0  0  0  0  0  0  0
  -30.8103  -20.8044   20.4420 O   0  0  0  0  0  0  0  0  0  1  0  0
  -19.0276   -6.9949   26.8037 F   0  0  0  0  0  0  0  0  0  0  0  0
  -22.9018   -5.3864   24.6107 F   0  0  0  0  0  0  0  0  0  0  0  0
  1  2  1  0  0  0  0
  1  5  2  0  0  0  0
  2  6  2  0  0  0  0
  3  8  2  0  0  0  0
  3 16  1  0  0  0  0
  4  9  1  0  0  0  0
  4 16  2  0  0  0  0
  5 18  1  0  0  0  0
  6 20  1  0  0  0  0
  7 10  2  0  0  0  0
  7 19  1  0  0  0  0
  8 23  1  0  0  0  0
  9 23  2  0  0  0  0
 10 24  1  0  0  0  0
 11 12  2  0  0  0  0
 11 25  1  0  0  0  0
 12 26  1  0  0  0  0
 13 21  1  0  0  0  0
 13 24  2  0  0  0  0
 14 26  2  0  0  0  0
 14 27  1  0  0  0  0
 15 22  1  0  0  0  0
 15 65  2  0  0  0  0
 16 28  1  0  0  0  0
 17 28  1  0  0  0  0
 17 30  2  0  0  0  0
 17 32  1  0  0  0  0
 18 20  2  0  0  0  0
 18 37  1  0  0  0  0
 19 21  2  0  0  0  0
 19 38  1  0  0  0  0
 20 46  1  0  0  0  0
 21 39  1  0  0  0  0
 22 29  2  0  0  0  0
 22 56  1  0  0  0  0
 23 82  1  0  0  0  0
 24 83  1  0  0  0  0
 25 27  2  0  0  0  0
 25 82  1  0  0  0  0
 26 84  1  0  0  0  0
 27 85  1  0  0  0  0
 28 66  2  0  0  0  0
 29 57  1  0  0  0  0
 29 67  1  0  0  0  0
 30 68  1  0  0  0  0
 30 71  1  0  0  0  0
 31 61  1  0  0  0  0
 31 65  1  0  0  0  0
 31 67  2  0  0  0  0
 32 72  1  0  0  0  0
 32 77  2  0  0  0  0
 33 47  1  0  0  0  0
 33 73  1  0  0  0  0
 33 78  2  0  0  0  0
 34 62  1  0  0  0  0
 34 69  1  0  0  0  0
 34 79  2  0  0  0  0
 35 63  1  0  0  0  0
 35 74  1  0  0  0  0
 35 80  2  0  0  0  0
 36 70  1  0  0  0  0
 36 75  1  0  0  0  0
 36 81  2  0  0  0  0
 37 40  1  0  0  0  0
 38 47  1  0  0  0  0
 39 69  1  0  0  0  0
 40 42  1  0  0  0  0
 41 43  1  0  0  0  0
 41 44  1  0  0  0  0
 42 46  1  0  0  0  0
 43 48  1  0  0  0  0
 44 70  1  0  0  0  0
 45 48  1  0  0  0  0
 45 70  1  0  0  0  0
 46 73  1  0  0  0  0
 47 69  1  0  0  0  0
 48 68  1  0  0  0  0
 49 61  1  0  0  0  0
 50 61  1  0  0  0  0
 51 63  1  0  0  0  0
 52 64  1  0  0  0  0
 53 64  1  0  0  0  0
 54 64  1  0  0  0  0
 55 76  1  0  0  0  0
 56 58  1  0  0  0  0
 57 59  1  0  0  0  0
 58 60  1  0  0  0  0
 59 75  1  0  0  0  0
 60 83  1  0  0  0  0
 62 64  1  0  0  0  0
 62 74  1  0  0  0  0
 63 76  1  0  0  0  0
 66 68  1  0  0  0  0
M  CHG  1  76   1
M  ISO  4  36 100  60 101  75 100  83 101
M  END
> <Batch ID>
0045

> <Smiles>
CNC(C)C(=O)NC(C(=O)N1Cc2cc([101O:1][101CH2:1]CCc3cnc(C(C)C)nc3CC[100NH:0][100C:0](=O)N3CCCC(n4nc(-c5ccc(Oc6ccc(F)cc6F)cc5)c(C(N)=O)c4N)C3)ccc2CC1C(=O)NC1CCCc2ccccc21)C(C)(C)C

> <Shape>
0.233

> <Color>
0.169

> <Negative vol penalty>
0.000

$$$$

  -OEChem-04052317193D

 88 97  0     1  0  0  0  0  0999 V2000
  -27.9409  -18.1021   18.2377 C   0  0  0  0  0  0  0  0  0  0  0  0
  -26.8579  -18.9474   18.0182 C   0  0  0  0  0  0  0  0  0  0  0  0
  -24.4394  -15.5827   20.3274 C   0  0  0  0  0  0  0  0  0  0  0  0
  -25.4082  -14.3408   22.1594 C   0  0  0  0  0  0  0  0  0  0  0  0
  -28.8505  -18.3863   19.2554 C   0  0  0  0  0  0  0  0  0  0  0  0
  -26.6833  -20.0768   18.8172 C   0  0  0  0  0  0  0  0  0  0  0  0
  -24.2147  -26.7951   18.5244 C   0  0  0  0  0  0  0  0  0  0  0  0
  -25.1124  -14.7666   19.4182 C   0  0  0  0  0  0  0  0  0  0  0  0
  -26.0812  -13.5247   21.2502 C   0  0  0  0  0  0  0  0  0  0  0  0
  -23.3303  -27.6473   19.1842 C   0  0  0  0  0  0  0  0  0  0  0  0
  -28.3374  -11.3421   19.4184 C   0  0  0  0  0  0  0  0  0  0  0  0
  -29.6800  -11.0600   19.6707 C   0  0  0  0  0  0  0  0  0  0  0  0
  -25.0089  -28.0811   20.8614 C   0  0  0  0  0  0  0  0  0  0  0  0
  -20.8153  -27.2432   23.1717 C   0  0  0  0  0  0  0  0  0  0  0  0
  -30.1942  -13.4186   19.5711 C   0  0  0  0  0  0  0  0  0  0  0  0
  -24.5873  -15.3699   21.6980 C   0  0  0  0  0  0  0  0  0  0  0  0
  -22.6089  -16.0068   23.1772 C   0  0  0  0  0  0  0  0  0  0  0  0
  -28.6923  -19.5249   20.0610 C   0  0  0  0  0  0  0  0  0  0  0  0
  -25.5013  -26.5707   19.0350 C   0  0  0  0  0  0  0  0  0  0  0  0
  -27.5909  -20.3757   19.8476 C   0  0  0  0  0  0  0  0  0  0  0  0
  -25.9087  -27.2276   20.2049 C   0  0  0  0  0  0  0  0  0  0  0  0
  -20.5963  -28.5583   22.7769 C   0  0  0  0  0  0  0  0  0  0  0  0
  -19.4076  -28.8985   22.1409 C   0  0  0  0  0  0  0  0  0  0  0  0
  -25.9333  -13.7376   19.8796 C   0  0  0  0  0  0  0  0  0  0  0  0
  -23.7263  -28.2882   20.3545 C   0  0  0  0  0  0  0  0  0  0  0  0
  -27.9233  -12.6624   19.2424 C   0  0  0  0  0  0  0  0  0  0  0  0
  -30.6083  -12.0983   19.7471 C   0  0  0  0  0  0  0  0  0  0  0  0
  -28.8517  -13.7007   19.3188 C   0  0  0  0  0  0  0  0  0  0  0  0
  -23.8928  -16.2129   22.6377 C   0  0  0  0  0  0  0  0  0  0  0  0
  -19.8222  -26.3133   22.9094 C   0  0  0  0  0  0  0  0  0  0  0  0
  -18.4776  -27.8945   21.9245 C   0  0  0  0  0  0  0  0  0  0  0  0
  -22.4105  -17.0802   24.0109 C   0  0  0  0  0  0  0  0  0  0  0  0
  -21.6790  -14.9405   22.9456 C   0  0  0  0  0  0  0  0  0  0  0  0
  -27.0780  -24.0259   20.1036 C   0  0  0  0  0  0  0  0  0  0  0  0
  -29.5648  -26.1049   20.2302 C   0  0  0  0  0  0  0  0  0  0  0  0
  -30.6280  -29.3397   20.4597 C   0  0  0  0  0  0  0  0  0  0  0  0
  -22.7104  -22.4151   25.2233 C   0  0  0  0  0  0  0  0  0  0  0  0
  -29.6751  -19.7651   21.1796 C   0  0  0  0  0  0  0  0  0  0  0  0
  -26.4526  -25.6693   18.2969 C   0  0  0  0  0  0  0  0  0  0  0  0
  -27.2861  -27.0361   20.7832 C   0  0  0  0  0  0  0  0  0  0  0  0
  -29.6265  -21.1846   21.7388 C   0  0  0  0  0  0  0  0  0  0  0  0
  -25.6210  -20.6062   25.6757 C   0  0  0  0  0  0  0  0  0  0  0  0
  -28.1831  -21.6126   21.9842 C   0  0  0  0  0  0  0  0  0  0  0  0
  -25.3366  -19.2786   24.9736 C   0  0  0  0  0  0  0  0  0  0  0  0
  -21.2245  -24.2241   22.6085 C   0  0  0  0  0  0  0  0  0  0  0  0
  -20.1654  -24.7237   24.8531 C   0  0  0  0  0  0  0  0  0  0  0  0
  -25.0766  -21.7784   24.8676 C   0  0  0  0  0  0  0  0  0  0  0  0
  -21.4438  -22.7769   23.0587 C   0  0  0  0  0  0  0  0  0  0  0  0
  -20.3849  -23.2638   25.2392 C   0  0  0  0  0  0  0  0  0  0  0  0
  -23.3149  -20.3578   23.8696 C   0  0  0  0  0  0  0  0  0  0  0  0
  -27.3812  -21.6239   20.6772 C   0  0  1  0  0  0  0  0  0  0  0  0
  -20.0256  -24.8691   23.3270 C   0  0  0  0  0  0  0  0  0  0  0  0
  -27.5607  -25.1135   19.1861 C   0  0  1  0  0  0  0  0  0  0  0  0
  -23.8392  -19.1345   24.6488 C   0  0  1  0  0  0  0  0  0  0  0  0
  -18.7486  -31.2037   22.8744 C   0  0  0  0  0  0  0  0  0  0  0  0
  -16.1760  -27.0596   21.3837 C   0  0  0  0  0  0  0  0  0  0  0  0
  -32.7188  -30.7224   20.5782 C   0  0  0  0  0  0  0  0  0  0  0  0
  -29.9372  -25.2874   23.1462 C   0  0  0  0  0  0  0  0  0  0  0  0
  -31.3570  -27.3250   23.4635 C   0  0  0  0  0  0  0  0  0  0  0  0
  -32.0639  -25.5522   21.8572 C   0  0  0  0  0  0  0  0  0  0  0  0
  -29.9621  -30.7711   17.9563 C   0  0  0  0  0  0  0  0  0  0  0  0
  -21.6503  -29.5814   23.0441 C   0  0  0  0  0  0  0  0  0  0  0  0
  -19.1440  -30.3016   21.7084 C   0  0  0  0  0  0  0  0  0  0  0  0
  -17.1813  -28.1990   21.2473 C   0  0  0  0  0  0  0  0  0  0  0  0
  -23.0005  -29.2243   22.4167 C   0  0  0  0  0  0  0  0  0  1  0  0
  -30.1150  -27.0516   21.2695 C   0  0  1  0  0  0  0  0  0  0  0  0
  -31.6616  -30.1190   19.6667 C   0  0  2  0  0  0  0  0  0  0  0  0
  -30.8416  -26.3064   22.4245 C   0  0  0  0  0  0  0  0  0  0  0  0
  -24.4692  -17.3295   23.0905 N   0  0  0  0  0  0  0  0  0  0  0  0
  -18.6548  -26.6061   22.2938 N   0  0  0  0  0  0  0  0  0  0  0  0
  -23.5433  -17.8347   23.9232 N   0  0  0  0  0  0  0  0  0  0  0  0
  -28.1778  -26.1402   20.0284 N   0  0  0  0  0  0  0  0  0  0  0  0
  -23.6539  -21.6025   24.5767 N   0  0  0  0  0  0  0  0  0  0  0  0
  -21.5272  -22.6960   24.5236 N   0  0  0  0  0  0  0  0  0  0  0  0
  -21.3792  -17.4428   24.8030 N   0  0  0  0  0  0  0  0  0  0  0  0
  -22.0425  -13.9177   22.0590 N   0  0  0  0  0  0  0  0  0  0  0  0
  -27.6941  -22.8055   19.9025 N   0  0  0  0  0  0  0  0  0  0  0  0
  -30.9552  -28.0034   20.5507 N   0  0  0  0  0  0  0  0  0  0  0  0
  -31.0083  -31.2236   18.9091 N   0  3  0  0  0  0  0  0  0  0  0  0
  -20.5521  -14.9044   23.4955 O   0  0  0  0  0  0  0  0  0  0  0  0
  -26.2119  -24.2759   20.9337 O   0  0  0  0  0  0  0  0  0  0  0  0
  -30.3381  -25.3667   19.6149 O   0  0  0  0  0  0  0  0  0  0  0  0
  -29.6320  -29.8647   20.9525 O   0  0  0  0  0  0  0  0  0  0  0  0
  -22.9122  -22.8629   26.3591 O   0  0  0  0  0  0  0  0  0  0  0  0
  -26.5899  -12.9409   18.9927 O   0  0  0  0  0  0  0  0  0  0  0  0
  -22.8588  -29.1259   21.0054 O   0  0  0  0  0  0  0  0  0  1  0  0
  -31.8973  -11.8274   19.9909 F   0  0  0  0  0  0  0  0  0  0  0  0
  -28.4596  -14.9712   19.1517 F   0  0  0  0  0  0  0  0  0  0  0  0
  1  2  1  0  0  0  0
  1  5  2  0  0  0  0
  2  6  2  0  0  0  0
  3  8  2  0  0  0  0
  3 16  1  0  0  0  0
  4  9  1  0  0  0  0
  4 16  2  0  0  0  0
  5 18  1  0  0  0  0
  6 20  1  0  0  0  0
  7 10  2  0  0  0  0
  7 19  1  0  0  0  0
  8 24  1  0  0  0  0
  9 24  2  0  0  0  0
 10 25  1  0  0  0  0
 11 12  2  0  0  0  0
 11 26  1  0  0  0  0
 12 27  1  0  0  0  0
 13 21  1  0  0  0  0
 13 25  2  0  0  0  0
 14 22  2  0  0  0  0
 14 30  1  0  0  0  0
 15 27  2  0  0  0  0
 15 28  1  0  0  0  0
 16 29  1  0  0  0  0
 17 29  1  0  0  0  0
 17 32  2  0  0  0  0
 17 33  1  0  0  0  0
 18 20  2  0  0  0  0
 18 38  1  0  0  0  0
 19 21  2  0  0  0  0
 19 39  1  0  0  0  0
 20 51  1  0  0  0  0
 21 40  1  0  0  0  0
 22 23  1  0  0  0  0
 22 62  1  0  0  0  0
 23 31  2  0  0  0  0
 23 63  1  0  0  0  0
 24 85  1  0  0  0  0
 25 86  1  0  0  0  0
 26 28  2  0  0  0  0
 26 85  1  0  0  0  0
 27 87  1  0  0  0  0
 28 88  1  0  0  0  0
 29 69  2  0  0  0  0
 30 52  1  0  0  0  0
 30 70  2  0  0  0  0
 31 64  1  0  0  0  0
 31 70  1  0  0  0  0
 32 71  1  0  0  0  0
 32 75  1  0  0  0  0
 33 76  1  0  0  0  0
 33 80  2  0  0  0  0
 34 53  1  0  0  0  0
 34 77  1  0  0  0  0
 34 81  2  0  0  0  0
 35 66  1  0  0  0  0
 35 72  1  0  0  0  0
 35 82  2  0  0  0  0
 36 67  1  0  0  0  0
 36 78  1  0  0  0  0
 36 83  2  0  0  0  0
 37 73  1  0  0  0  0
 37 74  1  0  0  0  0
 37 84  2  0  0  0  0
 38 41  1  0  0  0  0
 39 53  1  0  0  0  0
 40 72  1  0  0  0  0
 41 43  1  0  0  0  0
 42 44  1  0  0  0  0
 42 47  1  0  0  0  0
 43 51  1  0  0  0  0
 44 54  1  0  0  0  0
 45 48  1  0  0  0  0
 45 52  1  0  0  0  0
 46 49  1  0  0  0  0
 46 52  1  0  0  0  0
 47 73  1  0  0  0  0
 48 74  1  0  0  0  0
 49 74  1  0  0  0  0
 50 54  1  0  0  0  0
 50 73  1  0  0  0  0
 51 77  1  0  0  0  0
 53 72  1  0  0  0  0
 54 71  1  0  0  0  0
 55 63  1  0  0  0  0
 56 64  1  0  0  0  0
 57 67  1  0  0  0  0
 58 68  1  0  0  0  0
 59 68  1  0  0  0  0
 60 68  1  0  0  0  0
 61 79  1  0  0  0  0
 62 65  1  0  0  0  0
 65 86  1  0  0  0  0
 66 68  1  0  0  0  0
 66 78  1  0  0  0  0
 67 79  1  0  0  0  0
 69 71  1  0  0  0  0
M  CHG  1  79   1
M  ISO  4  37 100  65 101  74 100  86 101
M  END
> <Batch ID>
0045

> <Smiles>
CCc1nc(C2CC[100N:0]([100C:0](=O)N3CCCC(n4nc(-c5ccc(Oc6ccc(F)cc6F)cc5)c(C(N)=O)c4N)C3)CC2)cc(C[101CH2:1][101O:1]c2ccc3c(c2)CN(C(=O)C(NC(=O)C(C)NC)C(C)(C)C)C(C(=O)NC2CCCc4ccccc42)C3)c1CC

> <Shape>
0.246

> <Color>
0.054

> <Negative vol penalty>
0.000

$$$$

  -OEChem-04052317193D

 83 91  0     1  0  0  0  0  0999 V2000
  -27.7419  -23.6099   18.2575 C   0  0  0  0  0  0  0  0  0  0  0  0
  -26.5580  -23.9984   18.8763 C   0  0  0  0  0  0  0  0  0  0  0  0
  -27.1495  -16.6735   21.8959 C   0  0  0  0  0  0  0  0  0  0  0  0
  -25.4178  -18.0670   20.9491 C   0  0  0  0  0  0  0  0  0  0  0  0
  -28.9601  -24.1227   18.7012 C   0  0  0  0  0  0  0  0  0  0  0  0
  -26.5918  -24.8993   19.9401 C   0  0  0  0  0  0  0  0  0  0  0  0
  -23.0464  -28.4946   19.5545 C   0  0  0  0  0  0  0  0  0  0  0  0
  -26.5235  -15.5413   21.3746 C   0  0  0  0  0  0  0  0  0  0  0  0
  -24.7918  -16.9348   20.4278 C   0  0  0  0  0  0  0  0  0  0  0  0
  -21.7429  -28.1434   19.9027 C   0  0  0  0  0  0  0  0  0  0  0  0
  -25.5759  -12.3177   19.9870 C   0  0  0  0  0  0  0  0  0  0  0  0
  -26.3770  -11.3673   19.3541 C   0  0  0  0  0  0  0  0  0  0  0  0
  -22.0429  -29.1891   22.0558 C   0  0  0  0  0  0  0  0  0  0  0  0
  -27.0838  -13.0306   17.7507 C   0  0  0  0  0  0  0  0  0  0  0  0
  -21.9288  -23.7658   23.2856 C   0  0  0  0  0  0  0  0  0  0  0  0
  -26.5967  -17.9364   21.6831 C   0  0  0  0  0  0  0  0  0  0  0  0
  -28.2228  -19.9000   21.5965 C   0  0  0  0  0  0  0  0  0  0  0  0
  -29.0080  -25.0378   19.7647 C   0  0  0  0  0  0  0  0  0  0  0  0
  -23.8630  -29.1873   20.4599 C   0  0  0  0  0  0  0  0  0  0  0  0
  -27.8119  -25.4239   20.3994 C   0  0  0  0  0  0  0  0  0  0  0  0
  -23.3555  -29.5502   21.7156 C   0  0  0  0  0  0  0  0  0  0  0  0
  -25.3446  -15.6719   20.6406 C   0  0  0  0  0  0  0  0  0  0  0  0
  -21.2419  -28.4881   21.1546 C   0  0  0  0  0  0  0  0  0  0  0  0
  -25.5288  -13.6246   19.5017 C   0  0  0  0  0  0  0  0  0  0  0  0
  -27.1309  -11.7237   18.2360 C   0  0  0  0  0  0  0  0  0  0  0  0
  -26.2827  -13.9811   18.3836 C   0  0  0  0  0  0  0  0  0  0  0  0
  -27.2426  -19.1063   22.2218 C   0  0  0  0  0  0  0  0  0  0  0  0
  -21.1592  -23.8810   24.4588 C   0  0  0  0  0  0  0  0  0  0  0  0
  -21.1745  -24.3834   22.3182 C   0  0  0  0  0  0  0  0  0  0  0  0
  -28.5082  -20.8803   22.5152 C   0  0  0  0  0  0  0  0  0  0  0  0
  -28.8218  -19.7634   20.3010 C   0  0  0  0  0  0  0  0  0  0  0  0
  -26.6142  -28.5682   21.9264 C   0  0  0  0  0  0  0  0  0  0  0  0
  -26.3200  -31.6378   22.9329 C   0  0  0  0  0  0  0  0  0  0  0  0
  -24.2722  -34.2875   23.5907 C   0  0  0  0  0  0  0  0  0  0  0  0
  -25.3845  -23.2728   27.0285 C   0  0  0  0  0  0  0  0  0  0  0  0
  -30.3525  -25.5286   20.2401 C   0  0  0  0  0  0  0  0  0  0  0  0
  -25.2578  -29.5823   20.0589 C   0  0  0  0  0  0  0  0  0  0  0  0
  -24.1846  -30.3117   22.7162 C   0  0  0  0  0  0  0  0  0  0  0  0
  -30.2694  -26.7664   21.1296 C   0  0  0  0  0  0  0  0  0  0  0  0
  -28.5677  -21.6907   27.2302 C   0  0  0  0  0  0  0  0  0  0  0  0
  -29.1846  -26.5916   22.1876 C   0  0  0  0  0  0  0  0  0  0  0  0
  -28.6775  -20.9205   25.9130 C   0  0  0  0  0  0  0  0  0  0  0  0
  -27.1386  -21.6877   27.7682 C   0  0  0  0  0  0  0  0  0  0  0  0
  -26.2268  -21.3901   25.4980 C   0  0  0  0  0  0  0  0  0  0  0  0
  -27.8054  -26.4181   21.5403 C   0  0  1  0  0  0  0  0  0  0  0  0
  -26.1732  -29.8367   21.2525 C   0  0  1  0  0  0  0  0  0  0  0  0
  -27.6386  -21.4126   24.8875 C   0  0  2  0  0  0  0  0  0  0  0  0
  -21.4278  -24.5956   20.8813 C   0  0  0  0  0  0  0  0  0  0  0  0
  -24.3170  -36.6489   24.4386 C   0  0  0  0  0  0  0  0  0  0  0  0
  -26.6708  -30.6054   25.7826 C   0  0  0  0  0  0  0  0  0  0  0  0
  -25.7737  -32.7912   26.6107 C   0  0  0  0  0  0  0  0  0  0  0  0
  -27.8872  -32.7336   25.2869 C   0  0  0  0  0  0  0  0  0  0  0  0
  -23.1876  -35.3440   21.0478 C   0  0  0  0  0  0  0  0  0  0  0  0
  -21.4946  -23.3852   25.8043 C   0  0  0  0  0  0  0  0  0  0  0  0
  -22.2704  -24.3850   26.6982 C   0  0  0  0  0  0  0  0  0  0  0  0
  -18.5790  -26.8945   22.9991 C   0  0  0  0  0  0  0  0  0  0  0  0
  -18.8879  -25.5567   22.3233 C   0  0  0  0  0  0  0  0  0  0  0  0
  -23.6330  -24.7902   26.1402 C   0  0  0  0  0  0  0  0  0  0  0  0
  -19.7122  -27.9070   22.8804 C   0  0  0  0  0  0  0  0  0  1  0  0
  -25.6828  -32.3169   24.1211 C   0  0  1  0  0  0  0  0  0  0  0  0
  -24.3686  -35.7539   23.2102 C   0  0  2  0  0  0  0  0  0  0  0  0
  -26.4884  -32.0957   25.4324 C   0  0  0  0  0  0  0  0  0  0  0  0
  -26.9266  -19.5445   23.4434 N   0  0  0  0  0  0  0  0  0  0  0  0
  -20.0047  -24.5216   24.2573 N   0  0  0  0  0  0  0  0  0  0  0  0
  -20.0432  -24.8146   22.9462 N   0  0  0  0  0  0  0  0  0  0  0  0
  -27.7128  -20.6240   23.5931 N   0  0  0  0  0  0  0  0  0  0  0  0
  -25.5444  -30.6695   22.2797 N   0  0  0  0  0  0  0  0  0  0  0  0
  -26.2032  -22.1666   26.7475 N   0  0  0  0  0  0  0  0  0  0  0  0
  -29.3595  -21.9279   22.4981 N   0  0  0  0  0  0  0  0  0  0  0  0
  -28.4133  -18.6998   19.4849 N   0  0  0  0  0  0  0  0  0  0  0  0
  -27.2914  -27.6959   21.0958 N   0  0  0  0  0  0  0  0  0  0  0  0
  -25.5178  -33.7183   23.7504 N   0  0  0  0  0  0  0  0  0  0  0  0
  -24.5315  -23.6654   26.0043 N   0  0  0  0  0  0  0  0  0  0  0  0
  -23.2441  -36.1297   22.3073 N   0  3  0  0  0  0  0  0  0  0  0  0
  -29.7054  -20.5513   19.8862 O   0  0  0  0  0  0  0  0  0  0  0  0
  -26.3603  -28.3944   23.1126 O   0  0  0  0  0  0  0  0  0  0  0  0
  -27.4610  -31.9599   22.5924 O   0  0  0  0  0  0  0  0  0  0  0  0
  -23.1991  -33.7061   23.7357 O   0  0  0  0  0  0  0  0  0  0  0  0
  -25.4155  -23.8699   28.1099 O   0  0  0  0  0  0  0  0  0  0  0  0
  -24.7336  -14.5673   20.1316 O   0  0  0  0  0  0  0  0  0  0  0  0
  -19.9702  -28.1459   21.4974 O   0  0  0  0  0  0  0  0  0  1  0  0
  -27.9013  -10.8112   17.6293 F   0  0  0  0  0  0  0  0  0  0  0  0
  -26.2424  -15.2353   17.9135 F   0  0  0  0  0  0  0  0  0  0  0  0
  1  2  1  0  0  0  0
  1  5  2  0  0  0  0
  2  6  2  0  0  0  0
  3  8  2  0  0  0  0
  3 16  1  0  0  0  0
  4  9  1  0  0  0  0
  4 16  2  0  0  0  0
  5 18  1  0  0  0  0
  6 20  1  0  0  0  0
  7 10  2  0  0  0  0
  7 19  1  0  0  0  0
  8 22  1  0  0  0  0
  9 22  2  0  0  0  0
 10 23  1  0  0  0  0
 11 12  2  0  0  0  0
 11 24  1  0  0  0  0
 12 25  1  0  0  0  0
 13 21  1  0  0  0  0
 13 23  2  0  0  0  0
 14 25  2  0  0  0  0
 14 26  1  0  0  0  0
 15 28  1  0  0  0  0
 15 29  2  0  0  0  0
 16 27  1  0  0  0  0
 17 27  1  0  0  0  0
 17 30  2  0  0  0  0
 17 31  1  0  0  0  0
 18 20  2  0  0  0  0
 18 36  1  0  0  0  0
 19 21  2  0  0  0  0
 19 37  1  0  0  0  0
 20 45  1  0  0  0  0
 21 38  1  0  0  0  0
 22 80  1  0  0  0  0
 23 81  1  0  0  0  0
 24 26  2  0  0  0  0
 24 80  1  0  0  0  0
 25 82  1  0  0  0  0
 26 83  1  0  0  0  0
 27 63  2  0  0  0  0
 28 54  1  0  0  0  0
 28 64  2  0  0  0  0
 29 48  1  0  0  0  0
 29 65  1  0  0  0  0
 30 66  1  0  0  0  0
 30 69  1  0  0  0  0
 31 70  1  0  0  0  0
 31 75  2  0  0  0  0
 32 46  1  0  0  0  0
 32 71  1  0  0  0  0
 32 76  2  0  0  0  0
 33 60  1  0  0  0  0
 33 67  1  0  0  0  0
 33 77  2  0  0  0  0
 34 61  1  0  0  0  0
 34 72  1  0  0  0  0
 34 78  2  0  0  0  0
 35 68  1  0  0  0  0
 35 73  1  0  0  0  0
 35 79  2  0  0  0  0
 36 39  1  0  0  0  0
 37 46  1  0  0  0  0
 38 67  1  0  0  0  0
 39 41  1  0  0  0  0
 40 42  1  0  0  0  0
 40 43  1  0  0  0  0
 41 45  1  0  0  0  0
 42 47  1  0  0  0  0
 43 68  1  0  0  0  0
 44 47  1  0  0  0  0
 44 68  1  0  0  0  0
 45 71  1  0  0  0  0
 46 67  1  0  0  0  0
 47 66  1  0  0  0  0
 49 61  1  0  0  0  0
 50 62  1  0  0  0  0
 51 62  1  0  0  0  0
 52 62  1  0  0  0  0
 53 74  1  0  0  0  0
 54 55  1  0  0  0  0
 55 58  1  0  0  0  0
 56 57  1  0  0  0  0
 56 59  1  0  0  0  0
 57 65  1  0  0  0  0
 58 73  1  0  0  0  0
 59 81  1  0  0  0  0
 60 62  1  0  0  0  0
 60 72  1  0  0  0  0
 61 74  1  0  0  0  0
 63 66  1  0  0  0  0
 64 65  1  0  0  0  0
M  CHG  1  74   1
M  ISO  4  35 100  59 101  73 100  81 101
M  END
> <Batch ID>
0045

> <Smiles>
CNC(C)C(=O)NC(C(=O)N1Cc2cc([101O:1][101CH2:1]CCn3nc(CCC[100NH:0][100C:0](=O)N4CCCC(n5nc(-c6ccc(Oc7ccc(F)cc7F)cc6)c(C(N)=O)c5N)C4)cc3C)ccc2CC1C(=O)NC1CCCc2ccccc21)C(C)(C)C

> <Shape>
0.262

> <Color>
0.068

> <Negative vol penalty>
0.000

$$$$

  -OEChem-04052317193D

 83 91  0     1  0  0  0  0  0999 V2000
  -29.6033  -35.6797   21.3110 C   0  0  0  0  0  0  0  0  0  0  0  0
  -30.1194  -34.4772   20.8389 C   0  0  0  0  0  0  0  0  0  0  0  0
  -23.0499  -10.3347   20.8793 C   0  0  0  0  0  0  0  0  0  0  0  0
  -24.6497   -8.9917   22.0936 C   0  0  0  0  0  0  0  0  0  0  0  0
  -28.5430  -35.6743   22.2163 C   0  0  0  0  0  0  0  0  0  0  0  0
  -29.5762  -33.2684   21.2728 C   0  0  0  0  0  0  0  0  0  0  0  0
  -28.2712  -26.6002   19.0038 C   0  0  0  0  0  0  0  0  0  0  0  0
  -22.1984   -9.2341   20.7838 C   0  0  0  0  0  0  0  0  0  0  0  0
  -23.7981   -7.8911   21.9981 C   0  0  0  0  0  0  0  0  0  0  0  0
  -28.4910  -25.2742   19.3739 C   0  0  0  0  0  0  0  0  0  0  0  0
  -21.0091   -6.7609   23.5358 C   0  0  0  0  0  0  0  0  0  0  0  0
  -20.8125   -5.9941   24.6842 C   0  0  0  0  0  0  0  0  0  0  0  0
  -26.6091  -25.3885   20.8787 C   0  0  0  0  0  0  0  0  0  0  0  0
  -21.6907   -4.0557   23.5401 C   0  0  0  0  0  0  0  0  0  0  0  0
  -29.4892  -21.0133   21.8274 C   0  0  0  0  0  0  0  0  0  0  0  0
  -24.2756  -10.2135   21.5341 C   0  0  0  0  0  0  0  0  0  0  0  0
  -25.1877  -12.3143   22.6577 C   0  0  0  0  0  0  0  0  0  0  0  0
  -27.9802  -34.4651   22.6541 C   0  0  0  0  0  0  0  0  0  0  0  0
  -27.2236  -27.3350   19.5773 C   0  0  0  0  0  0  0  0  0  0  0  0
  -28.5083  -33.2468   22.1858 C   0  0  0  0  0  0  0  0  0  0  0  0
  -26.3765  -26.7230   20.5122 C   0  0  0  0  0  0  0  0  0  0  0  0
  -22.5725   -8.0123   21.3432 C   0  0  0  0  0  0  0  0  0  0  0  0
  -27.6617  -24.6690   20.3137 C   0  0  0  0  0  0  0  0  0  0  0  0
  -21.5464   -6.1752   22.3895 C   0  0  0  0  0  0  0  0  0  0  0  0
  -21.1533   -4.6415   24.6864 C   0  0  0  0  0  0  0  0  0  0  0  0
  -21.8872   -4.8227   22.3917 C   0  0  0  0  0  0  0  0  0  0  0  0
  -25.1559  -11.3499   21.6326 C   0  0  0  0  0  0  0  0  0  0  0  0
  -29.0167  -21.2853   20.5624 C   0  0  0  0  0  0  0  0  0  0  0  0
  -28.6460  -19.0546   20.2212 C   0  0  0  0  0  0  0  0  0  0  0  0
  -29.1193  -18.7826   21.4859 C   0  0  0  0  0  0  0  0  0  0  0  0
  -26.1921  -13.1752   22.2882 C   0  0  0  0  0  0  0  0  0  0  0  0
  -24.3815  -12.4222   23.8384 C   0  0  0  0  0  0  0  0  0  0  0  0
  -27.0385  -29.9581   21.3630 C   0  0  0  0  0  0  0  0  0  0  0  0
  -23.8494  -29.5649   20.9189 C   0  0  0  0  0  0  0  0  0  0  0  0
  -21.2605  -27.4554   20.2157 C   0  0  0  0  0  0  0  0  0  0  0  0
  -31.5363  -13.6000   20.3970 C   0  0  0  0  0  0  0  0  0  0  0  0
  -26.8661  -34.5086   23.6697 C   0  0  0  0  0  0  0  0  0  0  0  0
  -26.9833  -28.7562   19.1475 C   0  0  0  0  0  0  0  0  0  0  0  0
  -25.2254  -27.4620   21.1424 C   0  0  0  0  0  0  0  0  0  0  0  0
  -26.1015  -33.1930   23.7919 C   0  0  0  0  0  0  0  0  0  0  0  0
  -28.7520  -13.6109   17.9578 C   0  0  0  0  0  0  0  0  0  0  0  0
  -27.0708  -32.0185   23.8801 C   0  0  0  0  0  0  0  0  0  0  0  0
  -27.5945  -13.0342   18.7712 C   0  0  0  0  0  0  0  0  0  0  0  0
  -30.1021  -13.0998   18.4516 C   0  0  0  0  0  0  0  0  0  0  0  0
  -29.1782  -12.7459   20.7178 C   0  0  0  0  0  0  0  0  0  0  0  0
  -27.9297  -31.9156   22.6139 C   0  0  1  0  0  0  0  0  0  0  0  0
  -26.2028  -29.5679   20.1768 C   0  0  1  0  0  0  0  0  0  0  0  0
  -27.8064  -13.2772   20.2756 C   0  0  2  0  0  0  0  0  0  0  0  0
  -28.1727  -17.9674   19.3181 C   0  0  0  0  0  0  0  0  0  0  0  0
  -18.7644  -27.4171   19.9599 C   0  0  0  0  0  0  0  0  0  0  0  0
  -23.5392  -29.6831   23.9520 C   0  0  0  0  0  0  0  0  0  0  0  0
  -21.2484  -28.7087   23.6859 C   0  0  0  0  0  0  0  0  0  0  0  0
  -21.7842  -30.9252   22.6747 C   0  0  0  0  0  0  0  0  0  0  0  0
  -32.9009  -14.7449   22.1019 C   0  0  0  0  0  0  0  0  0  0  0  0
  -21.4467  -26.5804   17.3946 C   0  0  0  0  0  0  0  0  0  0  0  0
  -29.1800  -17.3884   22.0099 C   0  0  0  0  0  0  0  0  0  0  0  0
  -28.9656  -22.6968   20.0560 C   0  0  0  0  0  0  0  0  0  1  0  0
  -30.3828  -16.5674   21.5035 C   0  0  0  0  0  0  0  0  0  0  0  0
  -30.4686  -15.1567   22.0821 C   0  0  0  0  0  0  0  0  0  0  0  0
  -22.7515  -28.8276   21.6469 C   0  0  1  0  0  0  0  0  0  0  0  0
  -20.0981  -27.5754   19.2466 C   0  0  2  0  0  0  0  0  0  0  0  0
  -22.3536  -29.5226   22.9797 C   0  0  0  0  0  0  0  0  0  0  0  0
  -29.5491  -19.7570   22.3119 N   0  0  0  0  0  0  0  0  0  0  0  0
  -26.0676  -11.5765   20.6831 N   0  0  0  0  0  0  0  0  0  0  0  0
  -28.5865  -20.3109   19.7366 N   0  0  0  0  0  0  0  0  0  0  0  0
  -26.6816  -12.6931   21.1100 N   0  0  0  0  0  0  0  0  0  0  0  0
  -25.0352  -28.8514   20.6942 N   0  0  0  0  0  0  0  0  0  0  0  0
  -30.2595  -13.3041   19.8920 N   0  0  0  0  0  0  0  0  0  0  0  0
  -26.6955  -14.2900   22.8594 N   0  0  0  0  0  0  0  0  0  0  0  0
  -23.3948  -11.4529   24.0646 N   0  0  0  0  0  0  0  0  0  0  0  0
  -27.1695  -31.3230   21.5344 N   0  0  0  0  0  0  0  0  0  0  0  0
  -21.6542  -28.6865   20.6958 N   0  0  0  0  0  0  0  0  0  0  0  0
  -31.5993  -14.4011   21.5472 N   0  0  0  0  0  0  0  0  0  0  0  0
  -20.1937  -26.5278   18.1909 N   0  3  0  0  0  0  0  0  0  0  0  0
  -24.5205  -13.3600   24.6598 O   0  0  0  0  0  0  0  0  0  0  0  0
  -27.5270  -29.0855   22.0713 O   0  0  0  0  0  0  0  0  0  0  0  0
  -23.6591  -30.7286   20.5565 O   0  0  0  0  0  0  0  0  0  0  0  0
  -21.7659  -26.3771   20.5194 O   0  0  0  0  0  0  0  0  0  0  0  0
  -32.5618  -13.1803   19.8454 O   0  0  0  0  0  0  0  0  0  0  0  0
  -21.7417   -6.9381   21.2504 O   0  0  0  0  0  0  0  0  0  0  0  0
  -27.8745  -23.3750   20.6772 O   0  0  0  0  0  0  0  0  0  1  0  0
  -20.9659   -3.9055   25.7897 F   0  0  0  0  0  0  0  0  0  0  0  0
  -22.4049   -4.2547   21.2939 F   0  0  0  0  0  0  0  0  0  0  0  0
  1  2  1  0  0  0  0
  1  5  2  0  0  0  0
  2  6  2  0  0  0  0
  3  8  2  0  0  0  0
  3 16  1  0  0  0  0
  4  9  1  0  0  0  0
  4 16  2  0  0  0  0
  5 18  1  0  0  0  0
  6 20  1  0  0  0  0
  7 10  2  0  0  0  0
  7 19  1  0  0  0  0
  8 22  1  0  0  0  0
  9 22  2  0  0  0  0
 10 23  1  0  0  0  0
 11 12  2  0  0  0  0
 11 24  1  0  0  0  0
 12 25  1  0  0  0  0
 13 21  1  0  0  0  0
 13 23  2  0  0  0  0
 14 25  2  0  0  0  0
 14 26  1  0  0  0  0
 15 28  1  0  0  0  0
 15 63  2  0  0  0  0
 16 27  1  0  0  0  0
 17 27  1  0  0  0  0
 17 31  2  0  0  0  0
 17 32  1  0  0  0  0
 18 20  2  0  0  0  0
 18 37  1  0  0  0  0
 19 21  2  0  0  0  0
 19 38  1  0  0  0  0
 20 46  1  0  0  0  0
 21 39  1  0  0  0  0
 22 80  1  0  0  0  0
 23 81  1  0  0  0  0
 24 26  2  0  0  0  0
 24 80  1  0  0  0  0
 25 82  1  0  0  0  0
 26 83  1  0  0  0  0
 27 64  2  0  0  0  0
 28 57  1  0  0  0  0
 28 65  2  0  0  0  0
 29 30  2  0  0  0  0
 29 49  1  0  0  0  0
 29 65  1  0  0  0  0
 30 56  1  0  0  0  0
 30 63  1  0  0  0  0
 31 66  1  0  0  0  0
 31 69  1  0  0  0  0
 32 70  1  0  0  0  0
 32 75  2  0  0  0  0
 33 47  1  0  0  0  0
 33 71  1  0  0  0  0
 33 76  2  0  0  0  0
 34 60  1  0  0  0  0
 34 67  1  0  0  0  0
 34 77  2  0  0  0  0
 35 61  1  0  0  0  0
 35 72  1  0  0  0  0
 35 78  2  0  0  0  0
 36 68  1  0  0  0  0
 36 73  1  0  0  0  0
 36 79  2  0  0  0  0
 37 40  1  0  0  0  0
 38 47  1  0  0  0  0
 39 67  1  0  0  0  0
 40 42  1  0  0  0  0
 41 43  1  0  0  0  0
 41 44  1  0  0  0  0
 42 46  1  0  0  0  0
 43 48  1  0  0  0  0
 44 68  1  0  0  0  0
 45 48  1  0  0  0  0
 45 68  1  0  0  0  0
 46 71  1  0  0  0  0
 47 67  1  0  0  0  0
 48 66  1  0  0  0  0
 50 61  1  0  0  0  0
 51 62  1  0  0  0  0
 52 62  1  0  0  0  0
 53 62  1  0  0  0  0
 54 73  1  0  0  0  0
 55 74  1  0  0  0  0
 56 58  1  0  0  0  0
 57 81  1  0  0  0  0
 58 59  1  0  0  0  0
 59 73  1  0  0  0  0
 60 62  1  0  0  0  0
 60 72  1  0  0  0  0
 61 74  1  0  0  0  0
 64 66  1  0  0  0  0
M  CHG  1  74   1
M  ISO  4  36 100  57 101  73 100  81 101
M  END
> <Batch ID>
0045

> <Smiles>
CNC(C)C(=O)NC(C(=O)N1Cc2cc([101O:1][101CH2:1]c3cnc(CCC[100N:0](C)[100C:0](=O)N4CCCC(n5nc(-c6ccc(Oc7ccc(F)cc7F)cc6)c(C(N)=O)c5N)C4)c(C)n3)ccc2CC1C(=O)NC1CCCc2ccccc21)C(C)(C)C

> <Shape>
0.353

> <Color>
0.128

> <Negative vol penalty>
0.000

$$$$

  -OEChem-04052317193D

 83 91  0     1  0  0  0  0  0999 V2000
  -16.3090  -23.8915   24.7653 C   0  0  0  0  0  0  0  0  0  0  0  0
  -17.2317  -23.2407   23.9525 C   0  0  0  0  0  0  0  0  0  0  0  0
  -26.1314  -12.8020   19.5647 C   0  0  0  0  0  0  0  0  0  0  0  0
  -24.7356  -13.7698   21.2829 C   0  0  0  0  0  0  0  0  0  0  0  0
  -16.2248  -25.2831   24.7466 C   0  0  0  0  0  0  0  0  0  0  0  0
  -18.0700  -23.9812   23.1198 C   0  0  0  0  0  0  0  0  0  0  0  0
  -23.8598  -22.6684   21.6162 C   0  0  0  0  0  0  0  0  0  0  0  0
  -25.7619  -11.5241   19.9843 C   0  0  0  0  0  0  0  0  0  0  0  0
  -24.3661  -12.4919   21.7025 C   0  0  0  0  0  0  0  0  0  0  0  0
  -24.4232  -22.0624   20.4941 C   0  0  0  0  0  0  0  0  0  0  0  0
  -22.7737   -9.4898   22.9948 C   0  0  0  0  0  0  0  0  0  0  0  0
  -21.4236   -9.2578   23.2574 C   0  0  0  0  0  0  0  0  0  0  0  0
  -24.8620  -24.2373   19.5474 C   0  0  0  0  0  0  0  0  0  0  0  0
  -20.8809   -9.8318   20.9742 C   0  0  0  0  0  0  0  0  0  0  0  0
  -29.8285  -24.7861   16.9794 C   0  0  0  0  0  0  0  0  0  0  0  0
  -25.6183  -13.9248   20.2141 C   0  0  0  0  0  0  0  0  0  0  0  0
  -25.3593  -16.0409   18.8130 C   0  0  0  0  0  0  0  0  0  0  0  0
  -17.0691  -26.0414   23.9204 C   0  0  0  0  0  0  0  0  0  0  0  0
  -23.7833  -24.0656   21.7076 C   0  0  0  0  0  0  0  0  0  0  0  0
  -17.9960  -25.3841   23.0891 C   0  0  0  0  0  0  0  0  0  0  0  0
  -24.2995  -24.8586   20.6728 C   0  0  0  0  0  0  0  0  0  0  0  0
  -30.6954  -25.1070   17.9953 C   0  0  0  0  0  0  0  0  0  0  0  0
  -24.8792  -11.3690   21.0532 C   0  0  0  0  0  0  0  0  0  0  0  0
  -24.9218  -22.8468   19.4582 C   0  0  0  0  0  0  0  0  0  0  0  0
  -23.1774   -9.8930   21.7220 C   0  0  0  0  0  0  0  0  0  0  0  0
  -20.4772   -9.4287   22.2471 C   0  0  0  0  0  0  0  0  0  0  0  0
  -22.2310  -10.0639   20.7116 C   0  0  0  0  0  0  0  0  0  0  0  0
  -26.0001  -15.2452   19.7815 C   0  0  0  0  0  0  0  0  0  0  0  0
  -30.8489  -23.9090   18.7186 C   0  0  0  0  0  0  0  0  0  0  0  0
  -26.1036  -17.1944   18.7691 C   0  0  0  0  0  0  0  0  0  0  0  0
  -24.1952  -15.7622   18.0237 C   0  0  0  0  0  0  0  0  0  0  0  0
  -21.4137  -26.1728   21.9270 C   0  0  0  0  0  0  0  0  0  0  0  0
  -23.8467  -28.2827   22.3156 C   0  0  0  0  0  0  0  0  0  0  0  0
  -27.1350  -29.0393   21.8042 C   0  0  0  0  0  0  0  0  0  0  0  0
  -28.6673  -21.3010   21.3206 C   0  0  0  0  0  0  0  0  0  0  0  0
  -16.9086  -27.5409   23.8994 C   0  0  0  0  0  0  0  0  0  0  0  0
  -23.1969  -24.7043   22.9367 C   0  0  0  0  0  0  0  0  0  0  0  0
  -24.2599  -26.3631   20.7314 C   0  0  0  0  0  0  0  0  0  0  0  0
  -18.0901  -28.2711   23.2659 C   0  0  0  0  0  0  0  0  0  0  0  0
  -30.6056  -18.2895   20.7997 C   0  0  0  0  0  0  0  0  0  0  0  0
  -18.4912  -27.6012   21.9555 C   0  0  0  0  0  0  0  0  0  0  0  0
  -29.5159  -17.2907   20.4058 C   0  0  0  0  0  0  0  0  0  0  0  0
  -30.1109  -19.2515   21.8758 C   0  0  0  0  0  0  0  0  0  0  0  0
  -27.7785  -18.9960   21.1222 C   0  0  0  0  0  0  0  0  0  0  0  0
  -18.9396  -26.1537   22.1905 C   0  0  1  0  0  0  0  0  0  0  0  0
  -22.7052  -26.1278   22.6936 C   0  0  1  0  0  0  0  0  0  0  0  0
  -28.2093  -18.0098   20.0214 C   0  0  2  0  0  0  0  0  0  0  0  0
  -31.3178  -26.4155   18.2582 C   0  0  0  0  0  0  0  0  0  0  0  0
  -28.8241  -30.8523   22.2013 C   0  0  0  0  0  0  0  0  0  0  0  0
  -22.6378  -29.9058   20.0321 C   0  0  0  0  0  0  0  0  0  0  0  0
  -24.8121  -31.1329   19.8460 C   0  0  0  0  0  0  0  0  0  0  0  0
  -23.4801  -31.2712   21.9506 C   0  0  0  0  0  0  0  0  0  0  0  0
  -28.8202  -27.2648   23.4686 C   0  0  0  0  0  0  0  0  0  0  0  0
  -31.6734  -23.6772   19.9175 C   0  0  0  0  0  0  0  0  0  0  0  0
  -31.0505  -24.1702   21.2474 C   0  0  0  0  0  0  0  0  0  0  0  0
  -27.4662  -21.9777   17.0578 C   0  0  0  0  0  0  0  0  0  0  0  0
  -28.6087  -22.6404   16.2850 C   0  0  0  0  0  0  0  0  0  0  0  0
  -29.6939  -23.5464   21.5678 C   0  0  0  0  0  0  0  0  0  0  0  0
  -26.5020  -22.9775   17.6857 C   0  0  0  0  0  0  0  0  0  1  0  0
  -24.6907  -29.1239   21.3887 C   0  0  1  0  0  0  0  0  0  0  0  0
  -28.2033  -29.5733   22.7413 C   0  0  2  0  0  0  0  0  0  0  0  0
  -23.9043  -30.3301   20.8021 C   0  0  0  0  0  0  0  0  0  0  0  0
  -27.0693  -15.8425   20.3143 N   0  0  0  0  0  0  0  0  0  0  0  0
  -30.1365  -22.9022   18.2058 N   0  0  0  0  0  0  0  0  0  0  0  0
  -29.5269  -23.4669   17.1495 N   0  0  0  0  0  0  0  0  0  0  0  0
  -27.1061  -17.0259   19.6784 N   0  0  0  0  0  0  0  0  0  0  0  0
  -23.6710  -26.9403   21.9511 N   0  0  0  0  0  0  0  0  0  0  0  0
  -28.8750  -19.9168   21.4399 N   0  0  0  0  0  0  0  0  0  0  0  0
  -25.9918  -18.3261   18.0418 N   0  0  0  0  0  0  0  0  0  0  0  0
  -23.5517  -14.5290   18.1944 N   0  0  0  0  0  0  0  0  0  0  0  0
  -20.2851  -26.1215   22.7226 N   0  0  0  0  0  0  0  0  0  0  0  0
  -25.8803  -29.4975   22.1462 N   0  0  0  0  0  0  0  0  0  0  0  0
  -29.7534  -22.1038   21.6470 N   0  0  0  0  0  0  0  0  0  0  0  0
  -29.2858  -28.5649   22.9210 N   0  3  0  0  0  0  0  0  0  0  0  0
  -23.7489  -16.5760   17.1798 O   0  0  0  0  0  0  0  0  0  0  0  0
  -21.4392  -26.2500   20.7042 O   0  0  0  0  0  0  0  0  0  0  0  0
  -23.3671  -28.7960   23.3296 O   0  0  0  0  0  0  0  0  0  0  0  0
  -27.3887  -28.2935   20.8609 O   0  0  0  0  0  0  0  0  0  0  0  0
  -27.5943  -21.7859   20.9455 O   0  0  0  0  0  0  0  0  0  0  0  0
  -24.5183  -10.1222   21.4627 O   0  0  0  0  0  0  0  0  0  0  0  0
  -25.4715  -22.2579   18.3615 O   0  0  0  0  0  0  0  0  0  1  0  0
  -19.1809   -9.2044   22.4989 F   0  0  0  0  0  0  0  0  0  0  0  0
  -22.6130  -10.4499   19.4865 F   0  0  0  0  0  0  0  0  0  0  0  0
  1  2  1  0  0  0  0
  1  5  2  0  0  0  0
  2  6  2  0  0  0  0
  3  8  2  0  0  0  0
  3 16  1  0  0  0  0
  4  9  1  0  0  0  0
  4 16  2  0  0  0  0
  5 18  1  0  0  0  0
  6 20  1  0  0  0  0
  7 10  2  0  0  0  0
  7 19  1  0  0  0  0
  8 23  1  0  0  0  0
  9 23  2  0  0  0  0
 10 24  1  0  0  0  0
 11 12  2  0  0  0  0
 11 25  1  0  0  0  0
 12 26  1  0  0  0  0
 13 21  1  0  0  0  0
 13 24  2  0  0  0  0
 14 26  2  0  0  0  0
 14 27  1  0  0  0  0
 15 22  2  0  0  0  0
 15 65  1  0  0  0  0
 16 28  1  0  0  0  0
 17 28  1  0  0  0  0
 17 30  2  0  0  0  0
 17 31  1  0  0  0  0
 18 20  2  0  0  0  0
 18 36  1  0  0  0  0
 19 21  2  0  0  0  0
 19 37  1  0  0  0  0
 20 45  1  0  0  0  0
 21 38  1  0  0  0  0
 22 29  1  0  0  0  0
 22 48  1  0  0  0  0
 23 80  1  0  0  0  0
 24 81  1  0  0  0  0
 25 27  2  0  0  0  0
 25 80  1  0  0  0  0
 26 82  1  0  0  0  0
 27 83  1  0  0  0  0
 28 63  2  0  0  0  0
 29 54  1  0  0  0  0
 29 64  2  0  0  0  0
 30 66  1  0  0  0  0
 30 69  1  0  0  0  0
 31 70  1  0  0  0  0
 31 75  2  0  0  0  0
 32 46  1  0  0  0  0
 32 71  1  0  0  0  0
 32 76  2  0  0  0  0
 33 60  1  0  0  0  0
 33 67  1  0  0  0  0
 33 77  2  0  0  0  0
 34 61  1  0  0  0  0
 34 72  1  0  0  0  0
 34 78  2  0  0  0  0
 35 68  1  0  0  0  0
 35 73  1  0  0  0  0
 35 79  2  0  0  0  0
 36 39  1  0  0  0  0
 37 46  1  0  0  0  0
 38 67  1  0  0  0  0
 39 41  1  0  0  0  0
 40 42  1  0  0  0  0
 40 43  1  0  0  0  0
 41 45  1  0  0  0  0
 42 47  1  0  0  0  0
 43 68  1  0  0  0  0
 44 47  1  0  0  0  0
 44 68  1  0  0  0  0
 45 71  1  0  0  0  0
 46 67  1  0  0  0  0
 47 66  1  0  0  0  0
 49 61  1  0  0  0  0
 50 62  1  0  0  0  0
 51 62  1  0  0  0  0
 52 62  1  0  0  0  0
 53 74  1  0  0  0  0
 54 55  1  0  0  0  0
 55 58  1  0  0  0  0
 56 57  1  0  0  0  0
 56 59  1  0  0  0  0
 57 65  1  0  0  0  0
 58 73  1  0  0  0  0
 59 81  1  0  0  0  0
 60 62  1  0  0  0  0
 60 72  1  0  0  0  0
 61 74  1  0  0  0  0
 63 66  1  0  0  0  0
 64 65  1  0  0  0  0
M  CHG  1  74   1
M  ISO  4  35 100  59 101  73 100  81 101
M  END
> <Batch ID>
0045

> <Smiles>
CNC(C)C(=O)NC(C(=O)N1Cc2cc([101O:1][101CH2:1]CCn3cc(C)c(CCC[100NH:0][100C:0](=O)N4CCCC(n5nc(-c6ccc(Oc7ccc(F)cc7F)cc6)c(C(N)=O)c5N)C4)n3)ccc2CC1C(=O)NC1CCCc2ccccc21)C(C)(C)C

> <Shape>
0.250

> <Color>
0.045

> <Negative vol penalty>
0.000

$$$$

  -OEChem-04052317193D

 82 90  0     1  0  0  0  0  0999 V2000
  -28.6511  -35.3775   20.7928 C   0  0  0  0  0  0  0  0  0  0  0  0
  -29.2086  -34.1030   20.7780 C   0  0  0  0  0  0  0  0  0  0  0  0
  -22.4731  -10.6368   22.2514 C   0  0  0  0  0  0  0  0  0  0  0  0
  -22.4224  -10.3318   19.8553 C   0  0  0  0  0  0  0  0  0  0  0  0
  -27.3731  -35.5720   21.3153 C   0  0  0  0  0  0  0  0  0  0  0  0
  -28.4889  -33.0224   21.2866 C   0  0  0  0  0  0  0  0  0  0  0  0
  -28.5578  -27.2558   19.2256 C   0  0  0  0  0  0  0  0  0  0  0  0
  -21.9530   -9.3543   22.4257 C   0  0  0  0  0  0  0  0  0  0  0  0
  -21.9023   -9.0493   20.0295 C   0  0  0  0  0  0  0  0  0  0  0  0
  -29.2387  -26.1159   19.6506 C   0  0  0  0  0  0  0  0  0  0  0  0
  -23.0947   -6.1724   22.3548 C   0  0  0  0  0  0  0  0  0  0  0  0
  -23.6828   -5.3607   23.3247 C   0  0  0  0  0  0  0  0  0  0  0  0
  -27.3051  -25.4442   20.9270 C   0  0  0  0  0  0  0  0  0  0  0  0
  -21.5674   -5.2111   24.4822 C   0  0  0  0  0  0  0  0  0  0  0  0
  -28.6647  -20.7279   18.8372 C   0  0  0  0  0  0  0  0  0  0  0  0
  -22.7077  -11.1255   20.9662 C   0  0  0  0  0  0  0  0  0  0  0  0
  -24.6022  -12.8147   20.7102 C   0  0  0  0  0  0  0  0  0  0  0  0
  -26.6335  -34.4917   21.8217 C   0  0  0  0  0  0  0  0  0  0  0  0
  -27.2471  -27.5045   19.6575 C   0  0  0  0  0  0  0  0  0  0  0  0
  -27.2004  -33.2028   21.8175 C   0  0  0  0  0  0  0  0  0  0  0  0
  -26.6088  -26.5867   20.5039 C   0  0  0  0  0  0  0  0  0  0  0  0
  -21.6676   -8.5605   21.3148 C   0  0  0  0  0  0  0  0  0  0  0  0
  -28.6134  -25.2113   20.5038 C   0  0  0  0  0  0  0  0  0  0  0  0
  -21.7429   -6.5036   22.4486 C   0  0  0  0  0  0  0  0  0  0  0  0
  -22.9192   -4.8800   24.3884 C   0  0  0  0  0  0  0  0  0  0  0  0
  -20.9793   -6.0229   23.5123 C   0  0  0  0  0  0  0  0  0  0  0  0
  -23.2444  -12.4505   20.7855 C   0  0  0  0  0  0  0  0  0  0  0  0
  -29.1073  -21.3064   20.0419 C   0  0  0  0  0  0  0  0  0  0  0  0
  -27.4482  -20.1722   19.1497 C   0  0  0  0  0  0  0  0  0  0  0  0
  -24.5831  -14.1770   20.5363 C   0  0  0  0  0  0  0  0  0  0  0  0
  -25.7757  -11.9949   20.7902 C   0  0  0  0  0  0  0  0  0  0  0  0
  -25.8391  -29.8003   21.3459 C   0  0  0  0  0  0  0  0  0  0  0  0
  -23.1373  -28.1914   20.5496 C   0  0  0  0  0  0  0  0  0  0  0  0
  -21.6893  -25.2485   19.6065 C   0  0  0  0  0  0  0  0  0  0  0  0
  -22.5173  -18.7408   18.0768 C   0  0  0  0  0  0  0  0  0  0  0  0
  -25.2748  -34.7588   22.4194 C   0  0  0  0  0  0  0  0  0  0  0  0
  -26.5168  -28.7251   19.1685 C   0  0  0  0  0  0  0  0  0  0  0  0
  -25.1956  -26.7972   20.9802 C   0  0  0  0  0  0  0  0  0  0  0  0
  -24.4291  -33.5003   22.5963 C   0  0  0  0  0  0  0  0  0  0  0  0
  -20.7827  -17.4926   20.9245 C   0  0  0  0  0  0  0  0  0  0  0  0
  -25.2558  -32.3864   23.2309 C   0  0  0  0  0  0  0  0  0  0  0  0
  -21.3759  -16.0979   21.1318 C   0  0  0  0  0  0  0  0  0  0  0  0
  -20.6580  -17.8382   19.4423 C   0  0  0  0  0  0  0  0  0  0  0  0
  -22.4968  -16.2991   18.8731 C   0  0  0  0  0  0  0  0  0  0  0  0
  -26.4411  -32.0015   22.3374 C   0  0  1  0  0  0  0  0  0  0  0  0
  -25.3671  -29.1394   20.0817 C   0  0  1  0  0  0  0  0  0  0  0  0
  -22.6940  -15.9277   20.3528 C   0  0  2  0  0  0  0  0  0  0  0  0
  -19.4579  -24.2347   19.0679 C   0  0  0  0  0  0  0  0  0  0  0  0
  -22.4601  -28.1082   23.5236 C   0  0  0  0  0  0  0  0  0  0  0  0
  -20.7861  -26.3156   23.0210 C   0  0  0  0  0  0  0  0  0  0  0  0
  -20.5166  -28.5863   22.0240 C   0  0  0  0  0  0  0  0  0  0  0  0
  -26.0994  -20.0629   21.2671 C   0  0  0  0  0  0  0  0  0  0  0  0
  -22.5277  -24.5827   16.8473 C   0  0  0  0  0  0  0  0  0  0  0  0
  -30.3953  -22.0552   20.2839 C   0  0  0  0  0  0  0  0  0  0  0  0
  -26.4838  -19.4244   18.3223 C   0  0  0  0  0  0  0  0  0  0  0  0
  -25.4180  -20.2942   17.6111 C   0  0  0  0  0  0  0  0  0  0  0  0
  -24.4565  -19.5020   16.7279 C   0  0  0  0  0  0  0  0  0  0  0  0
  -30.2513  -23.5524   20.0335 C   0  0  0  0  0  0  0  0  0  1  0  0
  -22.3436  -27.0643   21.1650 C   0  0  1  0  0  0  0  0  0  0  0  0
  -20.6934  -24.9224   18.5082 C   0  0  2  0  0  0  0  0  0  0  0  0
  -21.5539  -27.5153   22.4262 C   0  0  0  0  0  0  0  0  0  0  0  0
  -22.4226  -13.4969   20.6692 N   0  0  0  0  0  0  0  0  0  0  0  0
  -28.2421  -21.1343   21.0449 N   0  0  0  0  0  0  0  0  0  0  0  0
  -27.2438  -20.4414   20.4710 N   0  0  0  0  0  0  0  0  0  0  0  0
  -23.2664  -14.5321   20.5191 N   0  0  0  0  0  0  0  0  0  0  0  0
  -24.5257  -28.0088   20.4795 N   0  0  0  0  0  0  0  0  0  0  0  0
  -21.9426  -17.6575   18.7617 N   0  0  0  0  0  0  0  0  0  0  0  0
  -25.5643  -15.0938   20.3982 N   0  0  0  0  0  0  0  0  0  0  0  0
  -25.6152  -10.6142   20.9701 N   0  0  0  0  0  0  0  0  0  0  0  0
  -25.9973  -31.1689   21.2400 N   0  0  0  0  0  0  0  0  0  0  0  0
  -21.5078  -26.5238   20.0984 N   0  0  0  0  0  0  0  0  0  0  0  0
  -23.7385  -18.4860   17.4648 N   0  0  0  0  0  0  0  0  0  0  0  0
  -21.3146  -24.0220   17.4962 N   0  3  0  0  0  0  0  0  0  0  0  0
  -26.9327  -12.4746   20.7211 O   0  0  0  0  0  0  0  0  0  0  0  0
  -26.0433  -29.1191   22.3439 O   0  0  0  0  0  0  0  0  0  0  0  0
  -22.5465  -29.1936   20.1396 O   0  0  0  0  0  0  0  0  0  0  0  0
  -22.5406  -24.4503   19.9922 O   0  0  0  0  0  0  0  0  0  0  0  0
  -21.9845  -19.8543   18.0197 O   0  0  0  0  0  0  0  0  0  0  0  0
  -21.1603   -7.3090   21.4844 O   0  0  0  0  0  0  0  0  0  0  0  0
  -29.2760  -24.0982   20.9207 O   0  0  0  0  0  0  0  0  0  1  0  0
  -23.4837   -4.0992   25.3189 F   0  0  0  0  0  0  0  0  0  0  0  0
  -19.6799   -6.3367   23.6071 F   0  0  0  0  0  0  0  0  0  0  0  0
  1  2  1  0  0  0  0
  1  5  2  0  0  0  0
  2  6  2  0  0  0  0
  3  8  2  0  0  0  0
  3 16  1  0  0  0  0
  4  9  1  0  0  0  0
  4 16  2  0  0  0  0
  5 18  1  0  0  0  0
  6 20  1  0  0  0  0
  7 10  2  0  0  0  0
  7 19  1  0  0  0  0
  8 22  1  0  0  0  0
  9 22  2  0  0  0  0
 10 23  1  0  0  0  0
 11 12  2  0  0  0  0
 11 24  1  0  0  0  0
 12 25  1  0  0  0  0
 13 21  1  0  0  0  0
 13 23  2  0  0  0  0
 14 25  2  0  0  0  0
 14 26  1  0  0  0  0
 15 28  1  0  0  0  0
 15 29  2  0  0  0  0
 16 27  1  0  0  0  0
 17 27  1  0  0  0  0
 17 30  2  0  0  0  0
 17 31  1  0  0  0  0
 18 20  2  0  0  0  0
 18 36  1  0  0  0  0
 19 21  2  0  0  0  0
 19 37  1  0  0  0  0
 20 45  1  0  0  0  0
 21 38  1  0  0  0  0
 22 79  1  0  0  0  0
 23 80  1  0  0  0  0
 24 26  2  0  0  0  0
 24 79  1  0  0  0  0
 25 81  1  0  0  0  0
 26 82  1  0  0  0  0
 27 62  2  0  0  0  0
 28 54  1  0  0  0  0
 28 63  2  0  0  0  0
 29 55  1  0  0  0  0
 29 64  1  0  0  0  0
 30 65  1  0  0  0  0
 30 68  1  0  0  0  0
 31 69  1  0  0  0  0
 31 74  2  0  0  0  0
 32 46  1  0  0  0  0
 32 70  1  0  0  0  0
 32 75  2  0  0  0  0
 33 59  1  0  0  0  0
 33 66  1  0  0  0  0
 33 76  2  0  0  0  0
 34 60  1  0  0  0  0
 34 71  1  0  0  0  0
 34 77  2  0  0  0  0
 35 67  1  0  0  0  0
 35 72  1  0  0  0  0
 35 78  2  0  0  0  0
 36 39  1  0  0  0  0
 37 46  1  0  0  0  0
 38 66  1  0  0  0  0
 39 41  1  0  0  0  0
 40 42  1  0  0  0  0
 40 43  1  0  0  0  0
 41 45  1  0  0  0  0
 42 47  1  0  0  0  0
 43 67  1  0  0  0  0
 44 47  1  0  0  0  0
 44 67  1  0  0  0  0
 45 70  1  0  0  0  0
 46 66  1  0  0  0  0
 47 65  1  0  0  0  0
 48 60  1  0  0  0  0
 49 61  1  0  0  0  0
 50 61  1  0  0  0  0
 51 61  1  0  0  0  0
 52 64  1  0  0  0  0
 53 73  1  0  0  0  0
 54 58  1  0  0  0  0
 55 56  1  0  0  0  0
 56 57  1  0  0  0  0
 57 72  1  0  0  0  0
 58 80  1  0  0  0  0
 59 61  1  0  0  0  0
 59 71  1  0  0  0  0
 60 73  1  0  0  0  0
 62 65  1  0  0  0  0
 63 64  1  0  0  0  0
M  CHG  1  73   1
M  ISO  4  35 100  58 101  72 100  80 101
M  END
> <Batch ID>
0045

> <Smiles>
CNC(C)C(=O)NC(C(=O)N1Cc2cc([101O:1][101CH2:1]Cc3cc(CCC[100NH:0][100C:0](=O)N4CCCC(n5nc(-c6ccc(Oc7ccc(F)cc7F)cc6)c(C(N)=O)c5N)C4)n(C)n3)ccc2CC1C(=O)NC1CCCc2ccccc21)C(C)(C)C

> <Shape>
0.262

> <Color>
0.094

> <Negative vol penalty>
0.000

$$$$

  -OEChem-04052317193D

 86 94  0     1  0  0  0  0  0999 V2000
  -31.5493  -28.7178   14.8912 C   0  0  0  0  0  0  0  0  0  0  0  0
  -30.2022  -28.7284   15.2384 C   0  0  0  0  0  0  0  0  0  0  0  0
  -28.4249  -18.4848   21.5652 C   0  0  0  0  0  0  0  0  0  0  0  0
  -27.5274  -17.8445   19.4154 C   0  0  0  0  0  0  0  0  0  0  0  0
  -32.5037  -28.3015   15.8184 C   0  0  0  0  0  0  0  0  0  0  0  0
  -29.8086  -28.3217   16.5128 C   0  0  0  0  0  0  0  0  0  0  0  0
  -25.1734  -30.5672   19.8262 C   0  0  0  0  0  0  0  0  0  0  0  0
  -28.3680  -17.1558   21.9848 C   0  0  0  0  0  0  0  0  0  0  0  0
  -27.4705  -16.5154   19.8350 C   0  0  0  0  0  0  0  0  0  0  0  0
  -23.8677  -30.1245   20.0333 C   0  0  0  0  0  0  0  0  0  0  0  0
  -29.6141  -13.9300   20.2111 C   0  0  0  0  0  0  0  0  0  0  0  0
  -30.0745  -12.9531   19.3284 C   0  0  0  0  0  0  0  0  0  0  0  0
  -24.5642  -29.0443   22.0747 C   0  0  0  0  0  0  0  0  0  0  0  0
  -27.8895  -11.9222   19.3296 C   0  0  0  0  0  0  0  0  0  0  0  0
  -20.0401  -27.2539   23.7196 C   0  0  0  0  0  0  0  0  0  0  0  0
  -28.0045  -18.8292   20.2805 C   0  0  0  0  0  0  0  0  0  0  0  0
  -29.1376  -20.8462   19.2056 C   0  0  0  0  0  0  0  0  0  0  0  0
  -32.1225  -27.8986   17.1080 C   0  0  0  0  0  0  0  0  0  0  0  0
  -26.1882  -30.2420   20.7376 C   0  0  0  0  0  0  0  0  0  0  0  0
  -30.7587  -27.8983   17.4577 C   0  0  0  0  0  0  0  0  0  0  0  0
  -25.8814  -29.4862   21.8781 C   0  0  0  0  0  0  0  0  0  0  0  0
  -27.8909  -16.1711   21.1197 C   0  0  0  0  0  0  0  0  0  0  0  0
  -23.5635  -29.3605   21.1562 C   0  0  0  0  0  0  0  0  0  0  0  0
  -28.2913  -13.9031   20.6531 C   0  0  0  0  0  0  0  0  0  0  0  0
  -29.2122  -11.9492   18.8877 C   0  0  0  0  0  0  0  0  0  0  0  0
  -27.4290  -12.8992   20.2123 C   0  0  0  0  0  0  0  0  0  0  0  0
  -28.0625  -20.2019   19.8466 C   0  0  0  0  0  0  0  0  0  0  0  0
  -20.6044  -27.7440   22.5625 C   0  0  0  0  0  0  0  0  0  0  0  0
  -18.0369  -27.0169   22.6424 C   0  0  0  0  0  0  0  0  0  0  0  0
  -18.6009  -27.5076   21.4855 C   0  0  0  0  0  0  0  0  0  0  0  0
  -28.6974  -22.1318   19.0055 C   0  0  0  0  0  0  0  0  0  0  0  0
  -30.4194  -20.3289   18.8250 C   0  0  0  0  0  0  0  0  0  0  0  0
  -28.9072  -28.6034   20.5766 C   0  0  0  0  0  0  0  0  0  0  0  0
  -23.2044  -24.3286   18.4807 C   0  0  0  0  0  0  0  0  0  0  0  0
  -29.2852  -29.6857   23.6112 C   0  0  0  0  0  0  0  0  0  0  0  0
  -27.8366  -30.8518   26.4727 C   0  0  0  0  0  0  0  0  0  0  0  0
  -33.1858  -27.4119   18.0604 C   0  0  0  0  0  0  0  0  0  0  0  0
  -27.5862  -30.7498   20.5137 C   0  0  0  0  0  0  0  0  0  0  0  0
  -26.9306  -29.1271   22.8973 C   0  0  0  0  0  0  0  0  0  0  0  0
  -32.7211  -27.3525   19.5133 C   0  0  0  0  0  0  0  0  0  0  0  0
  -25.7521  -25.4174   20.8367 C   0  0  0  0  0  0  0  0  0  0  0  0
  -31.3516  -26.6876   19.6090 C   0  0  0  0  0  0  0  0  0  0  0  0
  -26.7207  -24.2359   20.8071 C   0  0  0  0  0  0  0  0  0  0  0  0
  -24.3038  -24.9599   20.6840 C   0  0  0  0  0  0  0  0  0  0  0  0
  -25.0262  -22.9511   19.4320 C   0  0  0  0  0  0  0  0  0  0  0  0
  -30.2947  -27.4880   18.8384 C   0  0  1  0  0  0  0  0  0  0  0  0
  -28.6448  -29.9258   21.2401 C   0  0  1  0  0  0  0  0  0  0  0  0
  -26.5002  -23.3728   19.5525 C   0  0  2  0  0  0  0  0  0  0  0  0
  -14.9758  -24.6664   22.7436 C   0  0  0  0  0  0  0  0  0  0  0  0
  -28.3998  -31.6162   28.7956 C   0  0  0  0  0  0  0  0  0  0  0  0
  -29.7151  -26.7861   24.4585 C   0  0  0  0  0  0  0  0  0  0  0  0
  -29.3227  -27.4934   26.8279 C   0  0  0  0  0  0  0  0  0  0  0  0
  -31.2498  -28.4308   25.5512 C   0  0  0  0  0  0  0  0  0  0  0  0
  -26.7235  -33.5494   25.9798 C   0  0  0  0  0  0  0  0  0  0  0  0
  -16.6043  -26.6087   22.6964 C   0  0  0  0  0  0  0  0  0  0  0  0
  -17.8047  -27.6532   20.2338 C   0  0  0  0  0  0  0  0  0  0  0  0
  -22.0491  -28.1480   22.5318 C   0  0  0  0  0  0  0  0  0  1  0  0
  -22.2968  -25.5227   18.6373 C   0  0  0  0  0  0  0  0  0  0  0  0
  -16.4357  -25.0820   22.6538 C   0  0  0  0  0  0  0  0  0  0  0  0
  -21.3283  -25.6300   17.4640 C   0  0  0  0  0  0  0  0  0  0  0  0
  -18.6470  -27.8792   18.9770 C   0  0  0  0  0  0  0  0  0  0  0  0
  -20.4375  -26.8619   17.5635 C   0  0  0  0  0  0  0  0  0  0  0  0
  -28.9035  -29.1806   24.9816 C   0  0  1  0  0  0  0  0  0  0  0  0
  -28.1650  -32.0428   27.3549 C   0  0  2  0  0  0  0  0  0  0  0  0
  -29.7782  -27.9777   25.4348 C   0  0  0  0  0  0  0  0  0  0  0  0
  -18.7462  -26.8815   23.7804 N   0  0  0  0  0  0  0  0  0  0  0  0
  -27.0180  -21.0115   20.0410 N   0  0  0  0  0  0  0  0  0  0  0  0
  -19.8949  -27.8797   21.4247 N   0  0  0  0  0  0  0  0  0  0  0  0
  -27.4348  -22.1777   19.5191 N   0  0  0  0  0  0  0  0  0  0  0  0
  -28.2840  -29.6417   22.6306 N   0  0  0  0  0  0  0  0  0  0  0  0
  -24.1412  -24.1179   19.4928 N   0  0  0  0  0  0  0  0  0  0  0  0
  -29.2712  -23.2162   18.4421 N   0  0  0  0  0  0  0  0  0  0  0  0
  -30.7081  -18.9863   19.1053 N   0  0  0  0  0  0  0  0  0  0  0  0
  -29.8842  -28.6478   19.6005 N   0  0  0  0  0  0  0  0  0  0  0  0
  -28.9651  -30.3337   25.8733 N   0  0  0  0  0  0  0  0  0  0  0  0
  -27.0469  -33.0278   27.3327 N   0  3  0  0  0  0  0  0  0  0  0  0
  -19.6075  -26.7630   18.7949 N   0  3  0  0  0  0  0  0  0  0  0  0
  -31.2894  -21.0406   18.2682 O   0  0  0  0  0  0  0  0  0  0  0  0
  -28.2714  -27.6157   20.9256 O   0  0  0  0  0  0  0  0  0  0  0  0
  -23.0846  -23.6076   17.4868 O   0  0  0  0  0  0  0  0  0  0  0  0
  -30.4273  -30.1104   23.4196 O   0  0  0  0  0  0  0  0  0  0  0  0
  -26.6939  -30.4217   26.3325 O   0  0  0  0  0  0  0  0  0  0  0  0
  -27.8355  -14.8741   21.5288 O   0  0  0  0  0  0  0  0  0  0  0  0
  -22.2900  -28.9265   21.3604 O   0  0  0  0  0  0  0  0  0  1  0  0
  -29.6541  -11.0119   18.0388 F   0  0  0  0  0  0  0  0  0  0  0  0
  -26.1569  -12.8687   20.6325 F   0  0  0  0  0  0  0  0  0  0  0  0
  1  2  1  0  0  0  0
  1  5  2  0  0  0  0
  2  6  2  0  0  0  0
  3  8  2  0  0  0  0
  3 16  1  0  0  0  0
  4  9  1  0  0  0  0
  4 16  2  0  0  0  0
  5 18  1  0  0  0  0
  6 20  1  0  0  0  0
  7 10  2  0  0  0  0
  7 19  1  0  0  0  0
  8 22  1  0  0  0  0
  9 22  2  0  0  0  0
 10 23  1  0  0  0  0
 11 12  2  0  0  0  0
 11 24  1  0  0  0  0
 12 25  1  0  0  0  0
 13 21  1  0  0  0  0
 13 23  2  0  0  0  0
 14 25  2  0  0  0  0
 14 26  1  0  0  0  0
 15 28  1  0  0  0  0
 15 66  2  0  0  0  0
 16 27  1  0  0  0  0
 17 27  1  0  0  0  0
 17 31  2  0  0  0  0
 17 32  1  0  0  0  0
 18 20  2  0  0  0  0
 18 37  1  0  0  0  0
 19 21  2  0  0  0  0
 19 38  1  0  0  0  0
 20 46  1  0  0  0  0
 21 39  1  0  0  0  0
 22 83  1  0  0  0  0
 23 84  1  0  0  0  0
 24 26  2  0  0  0  0
 24 83  1  0  0  0  0
 25 85  1  0  0  0  0
 26 86  1  0  0  0  0
 27 67  2  0  0  0  0
 28 57  1  0  0  0  0
 28 68  2  0  0  0  0
 29 30  2  0  0  0  0
 29 55  1  0  0  0  0
 29 66  1  0  0  0  0
 30 56  1  0  0  0  0
 30 68  1  0  0  0  0
 31 69  1  0  0  0  0
 31 72  1  0  0  0  0
 32 73  1  0  0  0  0
 32 78  2  0  0  0  0
 33 47  1  0  0  0  0
 33 74  1  0  0  0  0
 33 79  2  0  0  0  0
 34 58  1  0  0  0  0
 34 71  1  0  0  0  0
 34 80  2  0  0  0  0
 35 63  1  0  0  0  0
 35 70  1  0  0  0  0
 35 81  2  0  0  0  0
 36 64  1  0  0  0  0
 36 75  1  0  0  0  0
 36 82  2  0  0  0  0
 37 40  1  0  0  0  0
 38 47  1  0  0  0  0
 39 70  1  0  0  0  0
 40 42  1  0  0  0  0
 41 43  1  0  0  0  0
 41 44  1  0  0  0  0
 42 46  1  0  0  0  0
 43 48  1  0  0  0  0
 44 71  1  0  0  0  0
 45 48  1  0  0  0  0
 45 71  1  0  0  0  0
 46 74  1  0  0  0  0
 47 70  1  0  0  0  0
 48 69  1  0  0  0  0
 49 59  1  0  0  0  0
 50 64  1  0  0  0  0
 51 65  1  0  0  0  0
 52 65  1  0  0  0  0
 53 65  1  0  0  0  0
 54 76  1  0  0  0  0
 55 59  1  0  0  0  0
 56 61  1  0  0  0  0
 57 84  1  0  0  0  0
 58 60  1  0  0  0  0
 60 62  1  0  0  0  0
 61 77  1  0  0  0  0
 62 77  1  0  0  0  0
 63 65  1  0  0  0  0
 63 75  1  0  0  0  0
 64 76  1  0  0  0  0
 67 69  1  0  0  0  0
M  CHG  2  76   1  77   1
M  ISO  4  34 100  57 101  58 100  84 101
M  END
> <Batch ID>
0045

> <Smiles>
CCCc1ncc([101CH2:1][101O:1]c2ccc3c(c2)CN(C(=O)C(NC(=O)C(C)NC)C(C)(C)C)C(C(=O)NC2CCCc4ccccc42)C3)nc1CCNCC[100CH2:0][100C:0](=O)N1CCCC(n2nc(-c3ccc(Oc4ccc(F)cc4F)cc3)c(C(N)=O)c2N)C1

> <Shape>
0.251

> <Color>
0.067

> <Negative vol penalty>
0.000

$$$$

  -OEChem-04052317193D

 81 89  0     1  0  0  0  0  0999 V2000
  -29.4765  -23.5884   18.3367 C   0  0  0  0  0  0  0  0  0  0  0  0
  -28.1039  -23.6964   18.5364 C   0  0  0  0  0  0  0  0  0  0  0  0
  -26.4118  -14.8785   21.7570 C   0  0  0  0  0  0  0  0  0  0  0  0
  -26.1773  -15.0999   19.3626 C   0  0  0  0  0  0  0  0  0  0  0  0
  -30.3590  -24.2187   19.2129 C   0  0  0  0  0  0  0  0  0  0  0  0
  -27.6131  -24.4339   19.6133 C   0  0  0  0  0  0  0  0  0  0  0  0
  -22.4918  -27.7895   19.7482 C   0  0  0  0  0  0  0  0  0  0  0  0
  -26.2931  -13.4936   21.6406 C   0  0  0  0  0  0  0  0  0  0  0  0
  -26.0587  -13.7149   19.2462 C   0  0  0  0  0  0  0  0  0  0  0  0
  -21.2113  -27.5276   20.2336 C   0  0  0  0  0  0  0  0  0  0  0  0
  -25.6916   -9.9264   22.0106 C   0  0  0  0  0  0  0  0  0  0  0  0
  -24.8565   -9.2674   22.9128 C   0  0  0  0  0  0  0  0  0  0  0  0
  -21.7750  -28.6353   22.3010 C   0  0  0  0  0  0  0  0  0  0  0  0
  -22.9798  -10.5707   22.1276 C   0  0  0  0  0  0  0  0  0  0  0  0
  -20.1210  -22.3201   23.6251 C   0  0  0  0  0  0  0  0  0  0  0  0
  -26.3538  -15.6817   20.6180 C   0  0  0  0  0  0  0  0  0  0  0  0
  -21.4821  -22.5445   23.5872 C   0  0  0  0  0  0  0  0  0  0  0  0
  -27.6604  -17.8714   20.6916 C   0  0  0  0  0  0  0  0  0  0  0  0
  -29.8786  -24.9723   20.2955 C   0  0  0  0  0  0  0  0  0  0  0  0
  -23.4286  -28.4678   20.5411 C   0  0  0  0  0  0  0  0  0  0  0  0
  -28.4901  -25.0738   20.5056 C   0  0  0  0  0  0  0  0  0  0  0  0
  -23.0658  -28.9068   21.8224 C   0  0  0  0  0  0  0  0  0  0  0  0
  -26.1166  -12.9118   20.3853 C   0  0  0  0  0  0  0  0  0  0  0  0
  -20.8537  -27.9479   21.5112 C   0  0  0  0  0  0  0  0  0  0  0  0
  -25.1708  -10.9076   21.1670 C   0  0  0  0  0  0  0  0  0  0  0  0
  -23.5006   -9.5895   22.9713 C   0  0  0  0  0  0  0  0  0  0  0  0
  -23.8149  -11.2297   21.2254 C   0  0  0  0  0  0  0  0  0  0  0  0
  -26.4757  -17.1124   20.7377 C   0  0  0  0  0  0  0  0  0  0  0  0
  -21.8716  -23.8662   23.6627 C   0  0  0  0  0  0  0  0  0  0  0  0
  -27.2427  -19.1700   20.8517 C   0  0  0  0  0  0  0  0  0  0  0  0
  -19.7075  -24.5489   23.7944 C   0  0  0  0  0  0  0  0  0  0  0  0
  -22.4286  -21.4284   23.4700 C   0  0  0  0  0  0  0  0  0  0  0  0
  -29.0172  -17.4411   20.5194 C   0  0  0  0  0  0  0  0  0  0  0  0
  -26.2721  -27.7471   21.7653 C   0  0  0  0  0  0  0  0  0  0  0  0
  -26.2426  -30.8647   22.6610 C   0  0  0  0  0  0  0  0  0  0  0  0
  -24.4140  -33.6512   23.3946 C   0  0  0  0  0  0  0  0  0  0  0  0
  -30.8720  -25.5965   21.2432 C   0  0  0  0  0  0  0  0  0  0  0  0
  -24.7971  -28.7661   19.9927 C   0  0  0  0  0  0  0  0  0  0  0  0
  -24.0281  -29.6567   22.7057 C   0  0  0  0  0  0  0  0  0  0  0  0
  -30.2643  -26.6694   22.1430 C   0  0  0  0  0  0  0  0  0  0  0  0
  -23.4946  -22.0301   20.0541 C   0  0  0  0  0  0  0  0  0  0  0  0
  -28.9500  -26.1807   22.7437 C   0  0  0  0  0  0  0  0  0  0  0  0
  -24.4835  -20.8838   19.8381 C   0  0  0  0  0  0  0  0  0  0  0  0
  -22.3233  -21.5960   20.9300 C   0  0  0  0  0  0  0  0  0  0  0  0
  -23.7175  -19.8801   22.0370 C   0  0  0  0  0  0  0  0  0  0  0  0
  -27.9187  -25.8855   21.6479 C   0  0  1  0  0  0  0  0  0  0  0  0
  -25.8365  -29.0123   21.0819 C   0  0  1  0  0  0  0  0  0  0  0  0
  -24.9323  -20.2752   21.1795 C   0  0  1  0  0  0  0  0  0  0  0  0
  -23.7485  -25.0141   24.8653 C   0  0  0  0  0  0  0  0  0  0  0  0
  -24.6681  -36.0366   24.1311 C   0  0  0  0  0  0  0  0  0  0  0  0
  -26.8128  -29.9228   25.5066 C   0  0  0  0  0  0  0  0  0  0  0  0
  -26.1193  -32.1866   26.3205 C   0  0  0  0  0  0  0  0  0  0  0  0
  -28.0880  -31.9568   24.8058 C   0  0  0  0  0  0  0  0  0  0  0  0
  -23.1458  -34.6710   20.9227 C   0  0  0  0  0  0  0  0  0  0  0  0
  -23.3191  -24.2321   23.6276 C   0  0  0  0  0  0  0  0  0  0  0  0
  -18.7107  -25.6747   23.9067 C   0  0  0  0  0  0  0  0  0  0  0  0
  -18.0067  -26.0077   22.5895 C   0  0  0  0  0  0  0  0  0  0  0  0
  -18.9550  -26.5159   21.5097 C   0  0  0  0  0  0  0  0  0  1  0  0
  -25.7615  -31.6241   23.8737 C   0  0  1  0  0  0  0  0  0  0  0  0
  -24.5517  -35.0940   22.9433 C   0  0  2  0  0  0  0  0  0  0  0  0
  -26.6777  -31.4068   25.1110 C   0  0  0  0  0  0  0  0  0  0  0  0
  -19.2020  -23.3024   23.7286 N   0  0  0  0  0  0  0  0  0  0  0  0
  -25.3870  -17.8660   20.9134 N   0  0  0  0  0  0  0  0  0  0  0  0
  -21.0080  -24.8974   23.7674 N   0  0  0  0  0  0  0  0  0  0  0  0
  -25.8860  -19.1121   20.9793 N   0  0  0  0  0  0  0  0  0  0  0  0
  -22.8049  -21.0150   22.1896 N   0  0  0  0  0  0  0  0  0  0  0  0
  -25.3563  -29.9186   22.1270 N   0  0  0  0  0  0  0  0  0  0  0  0
  -27.9071  -20.3443   20.8945 N   0  0  0  0  0  0  0  0  0  0  0  0
  -29.2696  -16.0707   20.3688 N   0  0  0  0  0  0  0  0  0  0  0  0
  -27.3391  -27.1163   21.1545 N   0  0  0  0  0  0  0  0  0  0  0  0
  -25.6369  -33.0175   23.4598 N   0  0  0  0  0  0  0  0  0  0  0  0
  -23.3667  -35.4996   22.1358 N   0  3  0  0  0  0  0  0  0  0  0  0
  -22.8299  -20.9441   24.5272 O   0  0  0  0  0  0  0  0  0  0  0  0
  -29.9790  -18.2464   20.5162 O   0  0  0  0  0  0  0  0  0  0  0  0
  -25.6846  -27.3717   22.7731 O   0  0  0  0  0  0  0  0  0  0  0  0
  -27.3608  -31.1071   22.2000 O   0  0  0  0  0  0  0  0  0  0  0  0
  -23.3304  -33.1386   23.6659 O   0  0  0  0  0  0  0  0  0  0  0  0
  -26.0011  -11.5604   20.2713 O   0  0  0  0  0  0  0  0  0  0  0  0
  -19.6047  -27.6930   21.9877 O   0  0  0  0  0  0  0  0  0  1  0  0
  -22.6985   -8.9555   23.8366 F   0  0  0  0  0  0  0  0  0  0  0  0
  -23.3087  -12.1707   20.4166 F   0  0  0  0  0  0  0  0  0  0  0  0
  1  2  1  0  0  0  0
  1  5  2  0  0  0  0
  2  6  2  0  0  0  0
  3  8  2  0  0  0  0
  3 16  1  0  0  0  0
  4  9  1  0  0  0  0
  4 16  2  0  0  0  0
  5 19  1  0  0  0  0
  6 21  1  0  0  0  0
  7 10  2  0  0  0  0
  7 20  1  0  0  0  0
  8 23  1  0  0  0  0
  9 23  2  0  0  0  0
 10 24  1  0  0  0  0
 11 12  2  0  0  0  0
 11 25  1  0  0  0  0
 12 26  1  0  0  0  0
 13 22  1  0  0  0  0
 13 24  2  0  0  0  0
 14 26  2  0  0  0  0
 14 27  1  0  0  0  0
 15 17  1  0  0  0  0
 15 62  2  0  0  0  0
 16 28  1  0  0  0  0
 17 29  2  0  0  0  0
 17 32  1  0  0  0  0
 18 28  1  0  0  0  0
 18 30  2  0  0  0  0
 18 33  1  0  0  0  0
 19 21  2  0  0  0  0
 19 37  1  0  0  0  0
 20 22  2  0  0  0  0
 20 38  1  0  0  0  0
 21 46  1  0  0  0  0
 22 39  1  0  0  0  0
 23 78  1  0  0  0  0
 24 79  1  0  0  0  0
 25 27  2  0  0  0  0
 25 78  1  0  0  0  0
 26 80  1  0  0  0  0
 27 81  1  0  0  0  0
 28 63  2  0  0  0  0
 29 55  1  0  0  0  0
 29 64  1  0  0  0  0
 30 65  1  0  0  0  0
 30 68  1  0  0  0  0
 31 56  1  0  0  0  0
 31 62  1  0  0  0  0
 31 64  2  0  0  0  0
 32 66  1  0  0  0  0
 32 73  2  0  0  0  0
 33 69  1  0  0  0  0
 33 74  2  0  0  0  0
 34 47  1  0  0  0  0
 34 70  1  0  0  0  0
 34 75  2  0  0  0  0
 35 59  1  0  0  0  0
 35 67  1  0  0  0  0
 35 76  2  0  0  0  0
 36 60  1  0  0  0  0
 36 71  1  0  0  0  0
 36 77  2  0  0  0  0
 37 40  1  0  0  0  0
 38 47  1  0  0  0  0
 39 67  1  0  0  0  0
 40 42  1  0  0  0  0
 41 43  1  0  0  0  0
 41 44  1  0  0  0  0
 42 46  1  0  0  0  0
 43 48  1  0  0  0  0
 44 66  1  0  0  0  0
 45 48  1  0  0  0  0
 45 66  1  0  0  0  0
 46 70  1  0  0  0  0
 47 67  1  0  0  0  0
 48 65  1  0  0  0  0
 49 55  1  0  0  0  0
 50 60  1  0  0  0  0
 51 61  1  0  0  0  0
 52 61  1  0  0  0  0
 53 61  1  0  0  0  0
 54 72  1  0  0  0  0
 56 57  1  0  0  0  0
 57 58  1  0  0  0  0
 58 79  1  0  0  0  0
 59 61  1  0  0  0  0
 59 71  1  0  0  0  0
 60 72  1  0  0  0  0
 63 65  1  0  0  0  0
M  CHG  1  72   1
M  ISO  4  17 100  32 100  58 101  79 101
M  END
> <Batch ID>
0045

> <Smiles>
CCc1nc(CC[101CH2:1][101O:1]c2ccc3c(c2)CN(C(=O)C(NC(=O)C(C)NC)C(C)(C)C)C(C(=O)NC2CCCc4ccccc42)C3)nc[100c:0]1[100C:0](=O)N1CCCC(n2nc(-c3ccc(Oc4ccc(F)cc4F)cc3)c(C(N)=O)c2N)C1

> <Shape>
0.271

> <Color>
0.062

> <Negative vol penalty>
0.000

$$$$

  -OEChem-04052317193D

 86 95  0     1  0  0  0  0  0999 V2000
  -15.9474  -23.2976   24.2201 C   0  0  0  0  0  0  0  0  0  0  0  0
  -17.1246  -23.4801   23.5015 C   0  0  0  0  0  0  0  0  0  0  0  0
  -23.1894   -9.8198   19.9318 C   0  0  0  0  0  0  0  0  0  0  0  0
  -23.5677   -9.9999   22.3112 C   0  0  0  0  0  0  0  0  0  0  0  0
  -15.9986  -22.8304   25.5327 C   0  0  0  0  0  0  0  0  0  0  0  0
  -18.3538  -23.1965   24.0956 C   0  0  0  0  0  0  0  0  0  0  0  0
  -30.5114  -17.3695   24.2212 C   0  0  0  0  0  0  0  0  0  0  0  0
  -24.9016  -20.7722   22.4937 C   0  0  0  0  0  0  0  0  0  0  0  0
  -30.1266  -16.0285   24.2735 C   0  0  0  0  0  0  0  0  0  0  0  0
  -22.4229   -8.6733   20.1404 C   0  0  0  0  0  0  0  0  0  0  0  0
  -22.8012   -8.8534   22.5199 C   0  0  0  0  0  0  0  0  0  0  0  0
  -26.2443  -21.1152   22.6465 C   0  0  0  0  0  0  0  0  0  0  0  0
  -21.2430   -5.7698   23.6485 C   0  0  0  0  0  0  0  0  0  0  0  0
  -21.7392   -4.8098   24.5304 C   0  0  0  0  0  0  0  0  0  0  0  0
  -30.5185  -16.0148   26.6472 C   0  0  0  0  0  0  0  0  0  0  0  0
  -26.2064  -20.2380   24.8934 C   0  0  0  0  0  0  0  0  0  0  0  0
  -23.6978   -4.5455   23.1407 C   0  0  0  0  0  0  0  0  0  0  0  0
  -23.7619  -10.4831   21.0172 C   0  0  0  0  0  0  0  0  0  0  0  0
  -24.1012  -12.9997   20.7736 C   0  0  0  0  0  0  0  0  0  0  0  0
  -17.2286  -22.5318   26.1399 C   0  0  0  0  0  0  0  0  0  0  0  0
  -24.1970  -20.1685   23.5452 C   0  0  0  0  0  0  0  0  0  0  0  0
  -30.8882  -18.0657   25.3838 C   0  0  0  0  0  0  0  0  0  0  0  0
  -18.4217  -22.7262   25.4180 C   0  0  0  0  0  0  0  0  0  0  0  0
  -30.9207  -17.3608   26.6055 C   0  0  0  0  0  0  0  0  0  0  0  0
  -24.8555  -19.8861   24.7505 C   0  0  0  0  0  0  0  0  0  0  0  0
  -30.1232  -15.3529   25.4876 C   0  0  0  0  0  0  0  0  0  0  0  0
  -22.2287   -8.1901   21.4345 C   0  0  0  0  0  0  0  0  0  0  0  0
  -26.8961  -20.8507   23.8475 C   0  0  0  0  0  0  0  0  0  0  0  0
  -21.9742   -6.1177   22.5126 C   0  0  0  0  0  0  0  0  0  0  0  0
  -22.9666   -4.1977   24.2765 C   0  0  0  0  0  0  0  0  0  0  0  0
  -23.2016   -5.5055   22.2588 C   0  0  0  0  0  0  0  0  0  0  0  0
  -24.5543  -11.6671   20.8022 C   0  0  0  0  0  0  0  0  0  0  0  0
  -25.2325  -13.7421   20.5384 C   0  0  0  0  0  0  0  0  0  0  0  0
  -22.7761  -13.5199   20.9445 C   0  0  0  0  0  0  0  0  0  0  0  0
  -21.6663  -20.9625   25.2969 C   0  0  0  0  0  0  0  0  0  0  0  0
  -22.0391  -17.9685   26.4881 C   0  0  0  0  0  0  0  0  0  0  0  0
  -24.1128  -15.3235   27.0806 C   0  0  0  0  0  0  0  0  0  0  0  0
  -31.0471  -12.7508   21.5675 C   0  0  0  0  0  0  0  0  0  0  0  0
  -17.2365  -22.0742   27.5770 C   0  0  0  0  0  0  0  0  0  0  0  0
  -22.7563  -19.7804   23.3551 C   0  0  0  0  0  0  0  0  0  0  0  0
  -31.3359  -18.0206   27.8964 C   0  0  0  0  0  0  0  0  0  0  0  0
  -24.1495  -19.2210   25.9028 C   0  0  0  0  0  0  0  0  0  0  0  0
  -18.5572  -21.4408   28.0073 C   0  0  0  0  0  0  0  0  0  0  0  0
  -32.1468  -19.2913   27.6764 C   0  0  0  0  0  0  0  0  0  0  0  0
  -29.5198  -13.4687   18.4324 C   0  0  0  0  0  0  0  0  0  0  0  0
  -31.4320  -20.1930   26.6819 C   0  0  0  0  0  0  0  0  0  0  0  0
  -19.7339  -22.2961   27.5485 C   0  0  0  0  0  0  0  0  0  0  0  0
  -28.0332  -13.2087   18.6817 C   0  0  0  0  0  0  0  0  0  0  0  0
  -30.4009  -12.4791   19.1915 C   0  0  0  0  0  0  0  0  0  0  0  0
  -28.6473  -12.1366   20.8890 C   0  0  0  0  0  0  0  0  0  0  0  0
  -31.3306  -19.5212   25.3001 C   0  0  2  0  0  0  0  0  0  0  0  0
  -19.7729  -22.4061   26.0194 C   0  0  1  0  0  0  0  0  0  0  0  0
  -21.9975  -19.6374   24.6708 C   0  0  1  0  0  0  0  0  0  0  0  0
  -27.7201  -13.1446   20.1887 C   0  0  2  0  0  0  0  0  0  0  0  0
  -24.1400  -13.0325   28.1042 C   0  0  0  0  0  0  0  0  0  0  0  0
  -22.0724  -19.2155   29.2727 C   0  0  0  0  0  0  0  0  0  0  0  0
  -23.0340  -17.0744   30.1440 C   0  0  0  0  0  0  0  0  0  0  0  0
  -20.7694  -17.0880   29.0979 C   0  0  0  0  0  0  0  0  0  0  0  0
  -24.8460  -14.0565   24.5085 C   0  0  0  0  0  0  0  0  0  0  0  0
  -29.7042  -13.9240   25.5479 C   0  0  0  0  0  0  0  0  0  0  0  0
  -30.4315  -20.3875   24.4075 C   0  0  0  0  0  0  0  0  0  0  0  0
  -30.8513  -12.9134   25.3490 C   0  0  0  0  0  0  0  0  0  0  0  0
  -31.5373  -13.0016   23.9874 C   0  0  0  0  0  0  0  0  0  0  0  0
  -28.9855  -20.3752   24.8791 C   0  0  0  0  0  0  0  0  0  1  0  0
  -22.8126  -17.3625   27.6342 C   0  0  1  0  0  0  0  0  0  0  0  0
  -23.9455  -13.8361   26.8278 C   0  0  2  0  0  0  0  0  0  0  0  0
  -22.1852  -17.6994   29.0163 C   0  0  0  0  0  0  0  0  0  0  0  0
  -25.8709  -11.5658   20.6011 N   0  0  0  0  0  0  0  0  0  0  0  0
  -26.2547  -12.8441   20.4437 N   0  0  0  0  0  0  0  0  0  0  0  0
  -22.7397  -18.8665   25.6704 N   0  0  0  0  0  0  0  0  0  0  0  0
  -30.0544  -12.4679   20.6148 N   0  0  0  0  0  0  0  0  0  0  0  0
  -25.4428  -15.0689   20.4052 N   0  0  0  0  0  0  0  0  0  0  0  0
  -21.7292  -12.6178   21.1785 N   0  0  0  0  0  0  0  0  0  0  0  0
  -20.3116  -21.1947   25.4392 N   0  0  0  0  0  0  0  0  0  0  0  0
  -22.9068  -15.9341   27.3530 N   0  0  0  0  0  0  0  0  0  0  0  0
  -30.6329  -12.7254   22.8936 N   0  0  0  0  0  0  0  0  0  0  0  0
  -24.9390  -13.3668   25.8210 N   0  3  0  0  0  0  0  0  0  0  0  0
  -22.5251  -14.7469   20.8749 O   0  0  0  0  0  0  0  0  0  0  0  0
  -22.5728  -21.7178   25.6278 O   0  0  0  0  0  0  0  0  0  0  0  0
  -20.8590  -17.6511   26.3202 O   0  0  0  0  0  0  0  0  0  0  0  0
  -25.2045  -15.8868   27.0441 O   0  0  0  0  0  0  0  0  0  0  0  0
  -32.2147  -13.0122   21.2588 O   0  0  0  0  0  0  0  0  0  0  0  0
  -21.4806   -7.0715   21.6384 O   0  0  0  0  0  0  0  0  0  0  0  0
  -28.2064  -21.1849   23.9995 O   0  0  0  0  0  0  0  0  0  1  0  0
  -23.4437   -3.2769   25.1243 F   0  0  0  0  0  0  0  0  0  0  0  0
  -23.9091   -5.8364   21.1698 F   0  0  0  0  0  0  0  0  0  0  0  0
  1  2  1  0  0  0  0
  1  5  2  0  0  0  0
  2  6  2  0  0  0  0
  3 10  2  0  0  0  0
  3 18  1  0  0  0  0
  4 11  1  0  0  0  0
  4 18  2  0  0  0  0
  5 20  1  0  0  0  0
  6 23  1  0  0  0  0
  7  9  2  0  0  0  0
  7 22  1  0  0  0  0
  8 12  2  0  0  0  0
  8 21  1  0  0  0  0
  9 26  1  0  0  0  0
 10 27  1  0  0  0  0
 11 27  2  0  0  0  0
 12 28  1  0  0  0  0
 13 14  2  0  0  0  0
 13 29  1  0  0  0  0
 14 30  1  0  0  0  0
 15 24  1  0  0  0  0
 15 26  2  0  0  0  0
 16 25  1  0  0  0  0
 16 28  2  0  0  0  0
 17 30  2  0  0  0  0
 17 31  1  0  0  0  0
 18 32  1  0  0  0  0
 19 32  1  0  0  0  0
 19 33  2  0  0  0  0
 19 34  1  0  0  0  0
 20 23  2  0  0  0  0
 20 39  1  0  0  0  0
 21 25  2  0  0  0  0
 21 40  1  0  0  0  0
 22 24  2  0  0  0  0
 22 51  1  0  0  0  0
 23 52  1  0  0  0  0
 24 41  1  0  0  0  0
 25 42  1  0  0  0  0
 26 60  1  0  0  0  0
 27 83  1  0  0  0  0
 28 84  1  0  0  0  0
 29 31  2  0  0  0  0
 29 83  1  0  0  0  0
 30 85  1  0  0  0  0
 31 86  1  0  0  0  0
 32 68  2  0  0  0  0
 33 69  1  0  0  0  0
 33 72  1  0  0  0  0
 34 73  1  0  0  0  0
 34 78  2  0  0  0  0
 35 53  1  0  0  0  0
 35 74  1  0  0  0  0
 35 79  2  0  0  0  0
 36 65  1  0  0  0  0
 36 70  1  0  0  0  0
 36 80  2  0  0  0  0
 37 66  1  0  0  0  0
 37 75  1  0  0  0  0
 37 81  2  0  0  0  0
 38 71  1  0  0  0  0
 38 76  1  0  0  0  0
 38 82  2  0  0  0  0
 39 43  1  0  0  0  0
 40 53  1  0  0  0  0
 41 44  1  0  0  0  0
 42 70  1  0  0  0  0
 43 47  1  0  0  0  0
 44 46  1  0  0  0  0
 45 48  1  0  0  0  0
 45 49  1  0  0  0  0
 46 51  1  0  0  0  0
 47 52  1  0  0  0  0
 48 54  1  0  0  0  0
 49 71  1  0  0  0  0
 50 54  1  0  0  0  0
 50 71  1  0  0  0  0
 51 61  1  0  0  0  0
 52 74  1  0  0  0  0
 53 70  1  0  0  0  0
 54 69  1  0  0  0  0
 55 66  1  0  0  0  0
 56 67  1  0  0  0  0
 57 67  1  0  0  0  0
 58 67  1  0  0  0  0
 59 77  1  0  0  0  0
 60 62  1  0  0  0  0
 61 64  1  0  0  0  0
 62 63  1  0  0  0  0
 63 76  1  0  0  0  0
 64 84  1  0  0  0  0
 65 67  1  0  0  0  0
 65 75  1  0  0  0  0
 66 77  1  0  0  0  0
 68 69  1  0  0  0  0
M  CHG  1  77   1
M  ISO  4  38 100  64 101  76 100  84 101
M  END
> <Batch ID>
0045

> <Smiles>
CNC(C)C(=O)NC(C(=O)N1Cc2cc([101O:1][101CH2:1]CC3CCCc4cc(CCC[100NH:0][100C:0](=O)N5CCCC(n6nc(-c7ccc(Oc8ccc(F)cc8F)cc7)c(C(N)=O)c6N)C5)ccc43)ccc2CC1C(=O)NC1CCCc2ccccc21)C(C)(C)C

> <Shape>
0.141

> <Color>
0.186

> <Negative vol penalty>
0.000

$$$$

  -OEChem-04052317193D

 82 90  0     1  0  0  0  0  0999 V2000
  -21.7603  -11.7890   19.5209 C   0  0  0  0  0  0  0  0  0  0  0  0
  -21.5848  -12.9014   20.3377 C   0  0  0  0  0  0  0  0  0  0  0  0
  -25.0169  -29.6986   20.3347 C   0  0  0  0  0  0  0  0  0  0  0  0
  -25.6725  -27.4527   20.9372 C   0  0  0  0  0  0  0  0  0  0  0  0
  -23.0425  -11.2961   19.2823 C   0  0  0  0  0  0  0  0  0  0  0  0
  -22.6915  -13.5210   20.9172 C   0  0  0  0  0  0  0  0  0  0  0  0
  -22.5014  -18.5687   20.5584 C   0  0  0  0  0  0  0  0  0  0  0  0
  -26.1644  -29.8235   19.5516 C   0  0  0  0  0  0  0  0  0  0  0  0
  -26.8200  -27.5776   20.1540 C   0  0  0  0  0  0  0  0  0  0  0  0
  -21.6672  -19.2396   21.4516 C   0  0  0  0  0  0  0  0  0  0  0  0
  -29.8680  -29.0176   20.4124 C   0  0  0  0  0  0  0  0  0  0  0  0
  -31.0748  -28.5775   20.9561 C   0  0  0  0  0  0  0  0  0  0  0  0
  -23.5779  -19.7786   22.8220 C   0  0  0  0  0  0  0  0  0  0  0  0
  -20.8833  -23.1074   25.7925 C   0  0  0  0  0  0  0  0  0  0  0  0
  -31.3125  -26.9941   19.1469 C   0  0  0  0  0  0  0  0  0  0  0  0
  -24.7710  -28.5132   21.0276 C   0  0  0  0  0  0  0  0  0  0  0  0
  -22.3260  -27.9064   21.4296 C   0  0  0  0  0  0  0  0  0  0  0  0
  -24.1662  -11.9157   19.8514 C   0  0  0  0  0  0  0  0  0  0  0  0
  -23.8810  -18.4883   20.7964 C   0  0  0  0  0  0  0  0  0  0  0  0
  -23.9898  -13.0351   20.6871 C   0  0  0  0  0  0  0  0  0  0  0  0
  -24.4278  -19.1083   21.9290 C   0  0  0  0  0  0  0  0  0  0  0  0
  -20.9547  -21.7348   25.4489 C   0  0  0  0  0  0  0  0  0  0  0  0
  -27.0659  -28.7630   19.4612 C   0  0  0  0  0  0  0  0  0  0  0  0
  -22.2049  -19.8422   22.5851 C   0  0  0  0  0  0  0  0  0  0  0  0
  -29.3834  -28.4459   19.2359 C   0  0  0  0  0  0  0  0  0  0  0  0
  -31.7971  -27.5658   20.3234 C   0  0  0  0  0  0  0  0  0  0  0  0
  -30.1057  -27.4342   18.6032 C   0  0  0  0  0  0  0  0  0  0  0  0
  -23.5861  -28.3838   21.8372 C   0  0  0  0  0  0  0  0  0  0  0  0
  -19.7669  -23.2764   26.5814 C   0  0  0  0  0  0  0  0  0  0  0  0
  -19.8796  -21.1069   26.0382 C   0  0  0  0  0  0  0  0  0  0  0  0
  -21.5485  -27.9817   22.5594 C   0  0  0  0  0  0  0  0  0  0  0  0
  -21.8967  -27.4369   20.1447 C   0  0  0  0  0  0  0  0  0  0  0  0
  -25.9362  -16.1159   21.2980 C   0  0  0  0  0  0  0  0  0  0  0  0
  -28.1263  -18.5049   21.1640 C   0  0  0  0  0  0  0  0  0  0  0  0
  -28.8108  -21.8305   21.5087 C   0  0  0  0  0  0  0  0  0  0  0  0
  -21.9222  -27.2968   28.2957 C   0  0  0  0  0  0  0  0  0  0  0  0
  -25.5285  -11.3182   19.6027 C   0  0  0  0  0  0  0  0  0  0  0  0
  -24.7710  -17.7839   19.8094 C   0  0  0  0  0  0  0  0  0  0  0  0
  -25.9051  -19.0682   22.2196 C   0  0  0  0  0  0  0  0  0  0  0  0
  -26.6791  -12.2584   19.9526 C   0  0  0  0  0  0  0  0  0  0  0  0
  -21.7919  -30.5222   26.7936 C   0  0  0  0  0  0  0  0  0  0  0  0
  -26.4462  -12.9031   21.3153 C   0  0  0  0  0  0  0  0  0  0  0  0
  -22.1242  -30.2552   25.3245 C   0  0  0  0  0  0  0  0  0  0  0  0
  -22.5893  -29.6136   27.7267 C   0  0  0  0  0  0  0  0  0  0  0  0
  -22.8095  -27.9057   25.9637 C   0  0  0  0  0  0  0  0  0  0  0  0
  -25.1675  -13.7495   21.3139 C   0  0  1  0  0  0  0  0  0  0  0  0
  -26.0920  -17.3239   20.4182 C   0  0  1  0  0  0  0  0  0  0  0  0
  -21.9888  -28.7594   24.9819 C   0  0  2  0  0  0  0  0  0  0  0  0
  -19.4720  -19.6860   26.0071 C   0  0  0  0  0  0  0  0  0  0  0  0
  -30.6992  -23.4775   21.3720 C   0  0  0  0  0  0  0  0  0  0  0  0
  -29.1634  -17.5365   23.8652 C   0  0  0  0  0  0  0  0  0  0  0  0
  -30.3583  -19.7228   24.1119 C   0  0  0  0  0  0  0  0  0  0  0  0
  -30.9456  -18.1871   22.2359 C   0  0  0  0  0  0  0  0  0  0  0  0
  -17.9573  -21.8018   27.4826 C   0  0  0  0  0  0  0  0  0  0  0  0
  -27.4947  -23.3343   19.3257 C   0  0  0  0  0  0  0  0  0  0  0  0
  -22.0110  -21.0915   24.5994 C   0  0  0  0  0  0  0  0  0  1  0  0
  -19.2280  -24.5005   27.2090 C   0  0  0  0  0  0  0  0  0  0  0  0
  -19.7624  -24.7936   28.6313 C   0  0  0  0  0  0  0  0  0  0  0  0
  -21.2809  -24.9354   28.7098 C   0  0  0  0  0  0  0  0  0  0  0  0
  -28.7509  -19.4405   22.1708 C   0  0  1  0  0  0  0  0  0  0  0  0
  -29.5647  -22.8014   20.6179 C   0  0  2  0  0  0  0  0  0  0  0  0
  -29.7764  -18.7210   23.0918 C   0  0  0  0  0  0  0  0  0  0  0  0
  -23.6120  -28.7364   23.1252 N   0  0  0  0  0  0  0  0  0  0  0  0
  -19.1644  -22.0537   26.7238 N   0  0  0  0  0  0  0  0  0  0  0  0
  -22.3586  -28.4804   23.5368 N   0  0  0  0  0  0  0  0  0  0  0  0
  -26.7330  -18.3620   21.2279 N   0  0  0  0  0  0  0  0  0  0  0  0
  -22.4167  -28.2089   27.3488 N   0  0  0  0  0  0  0  0  0  0  0  0
  -20.2579  -27.6692   22.8021 N   0  0  0  0  0  0  0  0  0  0  0  0
  -22.8235  -27.4262   19.0934 N   0  0  0  0  0  0  0  0  0  0  0  0
  -25.4007  -15.0165   20.6545 N   0  0  0  0  0  0  0  0  0  0  0  0
  -29.3102  -20.5494   21.4055 N   0  0  0  0  0  0  0  0  0  0  0  0
  -21.7831  -25.9869   27.8536 N   0  0  0  0  0  0  0  0  0  0  0  0
  -28.6450  -23.8569   20.1072 N   0  3  0  0  0  0  0  0  0  0  0  0
  -20.7215  -27.0541   19.9310 O   0  0  0  0  0  0  0  0  0  0  0  0
  -26.2779  -16.1762   22.4733 O   0  0  0  0  0  0  0  0  0  0  0  0
  -28.8473  -17.9279   20.3462 O   0  0  0  0  0  0  0  0  0  0  0  0
  -27.8751  -22.1749   22.2272 O   0  0  0  0  0  0  0  0  0  0  0  0
  -21.6216  -27.6266   29.4480 O   0  0  0  0  0  0  0  0  0  0  0  0
  -28.1856  -28.8844   18.6969 O   0  0  0  0  0  0  0  0  0  0  0  0
  -21.3928  -20.4971   23.4588 O   0  0  0  0  0  0  0  0  0  1  0  0
  -32.9567  -27.1444   20.8448 F   0  0  0  0  0  0  0  0  0  0  0  0
  -29.6459  -26.8820   17.4721 F   0  0  0  0  0  0  0  0  0  0  0  0
  1  2  1  0  0  0  0
  1  5  2  0  0  0  0
  2  6  2  0  0  0  0
  3  8  2  0  0  0  0
  3 16  1  0  0  0  0
  4  9  1  0  0  0  0
  4 16  2  0  0  0  0
  5 18  1  0  0  0  0
  6 20  1  0  0  0  0
  7 10  2  0  0  0  0
  7 19  1  0  0  0  0
  8 23  1  0  0  0  0
  9 23  2  0  0  0  0
 10 24  1  0  0  0  0
 11 12  2  0  0  0  0
 11 25  1  0  0  0  0
 12 26  1  0  0  0  0
 13 21  1  0  0  0  0
 13 24  2  0  0  0  0
 14 22  1  0  0  0  0
 14 29  2  0  0  0  0
 15 26  2  0  0  0  0
 15 27  1  0  0  0  0
 16 28  1  0  0  0  0
 17 28  1  0  0  0  0
 17 31  2  0  0  0  0
 17 32  1  0  0  0  0
 18 20  2  0  0  0  0
 18 37  1  0  0  0  0
 19 21  2  0  0  0  0
 19 38  1  0  0  0  0
 20 46  1  0  0  0  0
 21 39  1  0  0  0  0
 22 30  2  0  0  0  0
 22 56  1  0  0  0  0
 23 79  1  0  0  0  0
 24 80  1  0  0  0  0
 25 27  2  0  0  0  0
 25 79  1  0  0  0  0
 26 81  1  0  0  0  0
 27 82  1  0  0  0  0
 28 63  2  0  0  0  0
 29 57  1  0  0  0  0
 29 64  1  0  0  0  0
 30 49  1  0  0  0  0
 30 64  1  0  0  0  0
 31 65  1  0  0  0  0
 31 68  1  0  0  0  0
 32 69  1  0  0  0  0
 32 74  2  0  0  0  0
 33 47  1  0  0  0  0
 33 70  1  0  0  0  0
 33 75  2  0  0  0  0
 34 60  1  0  0  0  0
 34 66  1  0  0  0  0
 34 76  2  0  0  0  0
 35 61  1  0  0  0  0
 35 71  1  0  0  0  0
 35 77  2  0  0  0  0
 36 67  1  0  0  0  0
 36 72  1  0  0  0  0
 36 78  2  0  0  0  0
 37 40  1  0  0  0  0
 38 47  1  0  0  0  0
 39 66  1  0  0  0  0
 40 42  1  0  0  0  0
 41 43  1  0  0  0  0
 41 44  1  0  0  0  0
 42 46  1  0  0  0  0
 43 48  1  0  0  0  0
 44 67  1  0  0  0  0
 45 48  1  0  0  0  0
 45 67  1  0  0  0  0
 46 70  1  0  0  0  0
 47 66  1  0  0  0  0
 48 65  1  0  0  0  0
 50 61  1  0  0  0  0
 51 62  1  0  0  0  0
 52 62  1  0  0  0  0
 53 62  1  0  0  0  0
 54 64  1  0  0  0  0
 55 73  1  0  0  0  0
 56 80  1  0  0  0  0
 57 58  1  0  0  0  0
 58 59  1  0  0  0  0
 59 72  1  0  0  0  0
 60 62  1  0  0  0  0
 60 71  1  0  0  0  0
 61 73  1  0  0  0  0
 63 65  1  0  0  0  0
M  CHG  1  73   1
M  ISO  4  36 100  56 101  72 100  80 101
M  END
> <Batch ID>
0045

> <Smiles>
CNC(C)C(=O)NC(C(=O)N1Cc2cc([101O:1][101CH2:1]c3cc(CCC[100NH:0][100C:0](=O)N4CCCC(n5nc(-c6ccc(Oc7ccc(F)cc7F)cc6)c(C(N)=O)c5N)C4)n(C)c3C)ccc2CC1C(=O)NC1CCCc2ccccc21)C(C)(C)C

> <Shape>
0.180

> <Color>
0.074

> <Negative vol penalty>
0.000

$$$$

  -OEChem-04052317193D

 86 94  0     1  0  0  0  0  0999 V2000
  -26.0663  -29.3444   24.0234 C   0  0  0  0  0  0  0  0  0  0  0  0
  -26.2340  -28.0609   24.5333 C   0  0  0  0  0  0  0  0  0  0  0  0
  -22.2382  -23.4516   21.1765 C   0  0  0  0  0  0  0  0  0  0  0  0
  -20.5858  -21.7599   21.6713 C   0  0  0  0  0  0  0  0  0  0  0  0
  -26.0292  -29.5460   22.6443 C   0  0  0  0  0  0  0  0  0  0  0  0
  -26.3636  -26.9781   23.6643 C   0  0  0  0  0  0  0  0  0  0  0  0
  -29.6282  -20.6260   23.1077 C   0  0  0  0  0  0  0  0  0  0  0  0
  -21.2298  -24.4114   21.0903 C   0  0  0  0  0  0  0  0  0  0  0  0
  -19.5774  -22.7197   21.5852 C   0  0  0  0  0  0  0  0  0  0  0  0
  -29.3424  -19.2879   22.8405 C   0  0  0  0  0  0  0  0  0  0  0  0
  -19.3415  -26.2385   23.2185 C   0  0  0  0  0  0  0  0  0  0  0  0
  -19.5546  -27.4615   23.8545 C   0  0  0  0  0  0  0  0  0  0  0  0
  -29.3426  -19.7661   20.4761 C   0  0  0  0  0  0  0  0  0  0  0  0
  -19.3391  -28.6011   21.7351 C   0  0  0  0  0  0  0  0  0  0  0  0
  -27.3520  -14.6353   22.2491 C   0  0  0  0  0  0  0  0  0  0  0  0
  -21.9163  -22.1258   21.4669 C   0  0  0  0  0  0  0  0  0  0  0  0
  -24.0510  -21.1259   22.4420 C   0  0  0  0  0  0  0  0  0  0  0  0
  -26.1681  -28.4664   21.7579 C   0  0  0  0  0  0  0  0  0  0  0  0
  -29.7629  -21.5481   22.0597 C   0  0  0  0  0  0  0  0  0  0  0  0
  -26.3270  -27.1653   22.2720 C   0  0  0  0  0  0  0  0  0  0  0  0
  -29.6327  -21.1149   20.7325 C   0  0  0  0  0  0  0  0  0  0  0  0
  -19.8994  -24.0455   21.2947 C   0  0  0  0  0  0  0  0  0  0  0  0
  -29.1967  -18.8583   21.5247 C   0  0  0  0  0  0  0  0  0  0  0  0
  -19.1273  -26.1968   21.8408 C   0  0  0  0  0  0  0  0  0  0  0  0
  -19.5534  -28.6428   23.1128 C   0  0  0  0  0  0  0  0  0  0  0  0
  -19.1261  -27.3781   21.0991 C   0  0  0  0  0  0  0  0  0  0  0  0
  -22.9574  -21.1337   21.5555 C   0  0  0  0  0  0  0  0  0  0  0  0
  -28.5092  -15.2885   21.8865 C   0  0  0  0  0  0  0  0  0  0  0  0
  -29.1512  -13.4692   20.6583 C   0  0  0  0  0  0  0  0  0  0  0  0
  -27.9942  -12.8158   21.0216 C   0  0  0  0  0  0  0  0  0  0  0  0
  -24.7406  -19.9808   22.1265 C   0  0  0  0  0  0  0  0  0  0  0  0
  -24.4111  -22.0693   23.4599 C   0  0  0  0  0  0  0  0  0  0  0  0
  -28.2242  -24.1876   21.1828 C   0  0  0  0  0  0  0  0  0  0  0  0
  -30.6020  -24.3757   18.9843 C   0  0  0  0  0  0  0  0  0  0  0  0
  -32.9836  -22.7631   17.1474 C   0  0  0  0  0  0  0  0  0  0  0  0
  -23.0032  -14.8834   19.7071 C   0  0  0  0  0  0  0  0  0  0  0  0
  -26.0741  -28.7276   20.2755 C   0  0  0  0  0  0  0  0  0  0  0  0
  -30.0978  -22.9826   22.3634 C   0  0  0  0  0  0  0  0  0  0  0  0
  -29.7878  -22.0609   19.5708 C   0  0  0  0  0  0  0  0  0  0  0  0
  -26.5943  -27.5754   19.4198 C   0  0  0  0  0  0  0  0  0  0  0  0
  -25.6315  -17.0361   18.4600 C   0  0  0  0  0  0  0  0  0  0  0  0
  -26.0423  -26.2453   19.9229 C   0  0  0  0  0  0  0  0  0  0  0  0
  -25.3385  -18.3382   19.2076 C   0  0  0  0  0  0  0  0  0  0  0  0
  -24.3416  -16.3269   18.0585 C   0  0  0  0  0  0  0  0  0  0  0  0
  -23.1194  -17.3482   19.9392 C   0  0  0  0  0  0  0  0  0  0  0  0
  -26.4959  -25.9685   21.3614 C   0  0  1  0  0  0  0  0  0  0  0  0
  -29.7048  -23.9384   21.2412 C   0  0  1  0  0  0  0  0  0  0  0  0
  -24.3833  -18.1014   20.3923 C   0  0  2  0  0  0  0  0  0  0  0  0
  -30.0971  -13.3545   18.3391 C   0  0  0  0  0  0  0  0  0  0  0  0
  -34.7456  -23.1767   15.4090 C   0  0  0  0  0  0  0  0  0  0  0  0
  -28.4370  -24.5943   16.8454 C   0  0  0  0  0  0  0  0  0  0  0  0
  -30.1760  -24.0499   15.1285 C   0  0  0  0  0  0  0  0  0  0  0  0
  -30.3929  -26.1161   16.5093 C   0  0  0  0  0  0  0  0  0  0  0  0
  -35.1407  -21.8263   18.9441 C   0  0  0  0  0  0  0  0  0  0  0  0
  -26.1048   -9.5381   20.7921 C   0  0  0  0  0  0  0  0  0  0  0  0
  -30.1608  -12.8261   19.7702 C   0  0  0  0  0  0  0  0  0  0  0  0
  -27.6983  -11.4354   20.5434 C   0  0  0  0  0  0  0  0  0  0  0  0
  -28.7862  -16.6778   22.3808 C   0  0  0  0  0  0  0  0  0  1  0  0
  -23.9588  -11.7610   20.3043 C   0  0  0  0  0  0  0  0  0  0  0  0
  -22.9781  -12.4285   19.3463 C   0  0  0  0  0  0  0  0  0  0  0  0
  -25.3601  -11.6568   19.7159 C   0  0  0  0  0  0  0  0  0  0  0  0
  -30.8017  -23.8620   17.5789 C   0  0  1  0  0  0  0  0  0  0  0  0
  -34.4473  -23.0783   16.8970 C   0  0  2  0  0  0  0  0  0  0  0  0
  -29.9470  -24.6379   16.5373 C   0  0  0  0  0  0  0  0  0  0  0  0
  -27.0737  -13.3872   21.8232 N   0  0  0  0  0  0  0  0  0  0  0  0
  -22.9488  -20.0775   20.7380 N   0  0  0  0  0  0  0  0  0  0  0  0
  -29.4296  -14.7172   21.0845 N   0  0  0  0  0  0  0  0  0  0  0  0
  -24.0455  -19.3953   21.1095 N   0  0  0  0  0  0  0  0  0  0  0  0
  -30.1089  -23.4547   19.9194 N   0  0  0  0  0  0  0  0  0  0  0  0
  -23.4856  -16.1152   19.2343 N   0  0  0  0  0  0  0  0  0  0  0  0
  -25.8678  -19.4277   22.6224 N   0  0  0  0  0  0  0  0  0  0  0  0
  -23.9092  -21.8794   24.7546 N   0  0  0  0  0  0  0  0  0  0  0  0
  -27.8678  -25.5082   21.3791 N   0  0  0  0  0  0  0  0  0  0  0  0
  -32.2380  -23.9090   17.3273 N   0  0  0  0  0  0  0  0  0  0  0  0
  -23.3903  -13.7650   18.9790 N   0  0  0  0  0  0  0  0  0  0  0  0
  -35.3133  -22.0151   17.4807 N   0  3  0  0  0  0  0  0  0  0  0  0
  -26.2771  -11.0341   20.7368 N   0  3  1  0  0  0  0  0  0  0  0  0
  -25.1426  -23.0607   23.2242 O   0  0  0  0  0  0  0  0  0  0  0  0
  -27.4618  -23.2514   20.9736 O   0  0  0  0  0  0  0  0  0  0  0  0
  -30.8802  -25.5490   19.2446 O   0  0  0  0  0  0  0  0  0  0  0  0
  -32.5448  -21.6154   17.1764 O   0  0  0  0  0  0  0  0  0  0  0  0
  -22.2847  -14.7866   20.7078 O   0  0  0  0  0  0  0  0  0  0  0  0
  -18.9152  -24.9819   21.2109 O   0  0  0  0  0  0  0  0  0  0  0  0
  -28.9170  -17.5529   21.2612 O   0  0  0  0  0  0  0  0  0  1  0  0
  -19.7565  -29.8173   23.7239 F   0  0  0  0  0  0  0  0  0  0  0  0
  -18.9197  -27.3445   19.7754 F   0  0  0  0  0  0  0  0  0  0  0  0
  1  2  1  0  0  0  0
  1  5  2  0  0  0  0
  2  6  2  0  0  0  0
  3  8  2  0  0  0  0
  3 16  1  0  0  0  0
  4  9  1  0  0  0  0
  4 16  2  0  0  0  0
  5 18  1  0  0  0  0
  6 20  1  0  0  0  0
  7 10  2  0  0  0  0
  7 19  1  0  0  0  0
  8 22  1  0  0  0  0
  9 22  2  0  0  0  0
 10 23  1  0  0  0  0
 11 12  2  0  0  0  0
 11 24  1  0  0  0  0
 12 25  1  0  0  0  0
 13 21  1  0  0  0  0
 13 23  2  0  0  0  0
 14 25  2  0  0  0  0
 14 26  1  0  0  0  0
 15 28  1  0  0  0  0
 15 65  2  0  0  0  0
 16 27  1  0  0  0  0
 17 27  1  0  0  0  0
 17 31  2  0  0  0  0
 17 32  1  0  0  0  0
 18 20  2  0  0  0  0
 18 37  1  0  0  0  0
 19 21  2  0  0  0  0
 19 38  1  0  0  0  0
 20 46  1  0  0  0  0
 21 39  1  0  0  0  0
 22 83  1  0  0  0  0
 23 84  1  0  0  0  0
 24 26  2  0  0  0  0
 24 83  1  0  0  0  0
 25 85  1  0  0  0  0
 26 86  1  0  0  0  0
 27 66  2  0  0  0  0
 28 58  1  0  0  0  0
 28 67  2  0  0  0  0
 29 30  2  0  0  0  0
 29 56  1  0  0  0  0
 29 67  1  0  0  0  0
 30 57  1  0  0  0  0
 30 65  1  0  0  0  0
 31 68  1  0  0  0  0
 31 71  1  0  0  0  0
 32 72  1  0  0  0  0
 32 78  2  0  0  0  0
 33 47  1  0  0  0  0
 33 73  1  0  0  0  0
 33 79  2  0  0  0  0
 34 62  1  0  0  0  0
 34 69  1  0  0  0  0
 34 80  2  0  0  0  0
 35 63  1  0  0  0  0
 35 74  1  0  0  0  0
 35 81  2  0  0  0  0
 36 70  1  0  0  0  0
 36 75  1  0  0  0  0
 36 82  2  0  0  0  0
 37 40  1  0  0  0  0
 38 47  1  0  0  0  0
 39 69  1  0  0  0  0
 40 42  1  0  0  0  0
 41 43  1  0  0  0  0
 41 44  1  0  0  0  0
 42 46  1  0  0  0  0
 43 48  1  0  0  0  0
 44 70  1  0  0  0  0
 45 48  1  0  0  0  0
 45 70  1  0  0  0  0
 46 73  1  0  0  0  0
 47 69  1  0  0  0  0
 48 68  1  0  0  0  0
 49 56  1  0  0  0  0
 50 63  1  0  0  0  0
 51 64  1  0  0  0  0
 52 64  1  0  0  0  0
 53 64  1  0  0  0  0
 54 76  1  0  0  0  0
 55 77  1  0  0  0  0
 57 77  1  0  0  0  0
 58 84  1  0  0  0  0
 59 60  1  0  0  0  0
 59 61  1  0  0  0  0
 60 75  1  0  0  0  0
 61 77  1  0  0  0  0
 62 64  1  0  0  0  0
 62 74  1  0  0  0  0
 63 76  1  0  0  0  0
 66 68  1  0  0  0  0
M  CHG  2  76   1  77   1
M  ISO  4  36 100  58 101  75 100  84 101
M  END
> <Batch ID>
0045

> <Smiles>
CCc1nc([101CH2:1][101O:1]c2ccc3c(c2)CN(C(=O)C(NC(=O)C(C)NC)C(C)(C)C)C(C(=O)NC2CCCc4ccccc42)C3)cnc1CN(C)CCC[100NH:0][100C:0](=O)N1CCCC(n2nc(-c3ccc(Oc4ccc(F)cc4F)cc3)c(C(N)=O)c2N)C1

> <Shape>
0.212

> <Color>
0.055

> <Negative vol penalty>
0.000

$$$$

  -OEChem-04052317193D

 84 92  0     1  0  0  0  0  0999 V2000
  -18.9276  -30.7534   24.5753 C   0  0  0  0  0  0  0  0  0  0  0  0
  -20.2981  -30.5677   24.4246 C   0  0  0  0  0  0  0  0  0  0  0  0
  -24.9778  -15.0853   21.5786 C   0  0  0  0  0  0  0  0  0  0  0  0
  -27.3691  -14.8348   21.3417 C   0  0  0  0  0  0  0  0  0  0  0  0
  -18.0364  -29.8242   24.0403 C   0  0  0  0  0  0  0  0  0  0  0  0
  -20.7782  -29.4520   23.7396 C   0  0  0  0  0  0  0  0  0  0  0  0
  -25.7635  -29.1729   20.1936 C   0  0  0  0  0  0  0  0  0  0  0  0
  -24.7983  -13.7667   21.1607 C   0  0  0  0  0  0  0  0  0  0  0  0
  -27.1896  -13.5162   20.9238 C   0  0  0  0  0  0  0  0  0  0  0  0
  -27.0618  -28.7253   20.4342 C   0  0  0  0  0  0  0  0  0  0  0  0
  -25.0594  -10.6722   22.4983 C   0  0  0  0  0  0  0  0  0  0  0  0
  -24.1671   -9.8794   23.2199 C   0  0  0  0  0  0  0  0  0  0  0  0
  -31.1986  -23.8955   24.1156 C   0  0  0  0  0  0  0  0  0  0  0  0
  -26.4913  -26.5809   19.4880 C   0  0  0  0  0  0  0  0  0  0  0  0
  -22.8401   -9.5589   21.2265 C   0  0  0  0  0  0  0  0  0  0  0  0
  -32.0493  -22.7936   23.9064 C   0  0  0  0  0  0  0  0  0  0  0  0
  -26.2632  -15.6194   21.6690 C   0  0  0  0  0  0  0  0  0  0  0  0
  -26.6281  -17.4389   23.4195 C   0  0  0  0  0  0  0  0  0  0  0  0
  -18.5055  -28.7016   23.3401 C   0  0  0  0  0  0  0  0  0  0  0  0
  -24.8147  -28.3229   19.6075 C   0  0  0  0  0  0  0  0  0  0  0  0
  -19.8924  -28.5062   23.1959 C   0  0  0  0  0  0  0  0  0  0  0  0
  -25.1824  -27.0210   19.2388 C   0  0  0  0  0  0  0  0  0  0  0  0
  -25.9042  -12.9821   20.8333 C   0  0  0  0  0  0  0  0  0  0  0  0
  -27.4251  -27.4282   20.0840 C   0  0  0  0  0  0  0  0  0  0  0  0
  -24.8421  -10.9085   21.1409 C   0  0  0  0  0  0  0  0  0  0  0  0
  -23.0574   -9.3227   22.5839 C   0  0  0  0  0  0  0  0  0  0  0  0
  -23.7325  -10.3518   20.5050 C   0  0  0  0  0  0  0  0  0  0  0  0
  -26.4493  -16.9816   22.1001 C   0  0  0  0  0  0  0  0  0  0  0  0
  -30.6744  -24.1649   22.8750 C   0  0  0  0  0  0  0  0  0  0  0  0
  -26.7593  -18.8005   23.2961 C   0  0  0  0  0  0  0  0  0  0  0  0
  -26.6717  -16.6989   24.6468 C   0  0  0  0  0  0  0  0  0  0  0  0
  -22.0243  -27.1062   20.5224 C   0  0  0  0  0  0  0  0  0  0  0  0
  -21.9456  -26.0070   17.4715 C   0  0  0  0  0  0  0  0  0  0  0  0
  -23.6746  -25.1185   14.6665 C   0  0  0  0  0  0  0  0  0  0  0  0
  -28.4440  -22.0327   18.3714 C   0  0  0  0  0  0  0  0  0  0  0  0
  -17.5050  -27.6998   22.8204 C   0  0  0  0  0  0  0  0  0  0  0  0
  -23.4259  -28.8296   19.3302 C   0  0  0  0  0  0  0  0  0  0  0  0
  -24.2069  -26.0756   18.5882 C   0  0  0  0  0  0  0  0  0  0  0  0
  -18.0855  -26.7404   21.7847 C   0  0  0  0  0  0  0  0  0  0  0  0
  -25.4581  -22.4631   20.5163 C   0  0  0  0  0  0  0  0  0  0  0  0
  -19.4286  -26.1932   22.2575 C   0  0  0  0  0  0  0  0  0  0  0  0
  -25.3565  -21.1114   21.2210 C   0  0  0  0  0  0  0  0  0  0  0  0
  -26.1216  -22.3409   19.1479 C   0  0  0  0  0  0  0  0  0  0  0  0
  -27.3527  -20.3276   19.8862 C   0  0  0  0  0  0  0  0  0  0  0  0
  -20.4512  -27.3215   22.4380 C   0  0  1  0  0  0  0  0  0  0  0  0
  -22.3970  -27.7110   19.1984 C   0  0  1  0  0  0  0  0  0  0  0  0
  -26.7308  -20.4228   21.2876 C   0  0  2  0  0  0  0  0  0  0  0  0
  -23.3390  -24.2223   12.3468 C   0  0  0  0  0  0  0  0  0  0  0  0
  -30.5742  -19.9229   17.6158 C   0  0  0  0  0  0  0  0  0  0  0  0
  -31.1132  -22.2522   16.8364 C   0  0  0  0  0  0  0  0  0  0  0  0
  -21.4639  -23.2215   18.6200 C   0  0  0  0  0  0  0  0  0  0  0  0
  -22.0811  -22.2704   16.3878 C   0  0  0  0  0  0  0  0  0  0  0  0
  -20.0966  -23.7671   16.5983 C   0  0  0  0  0  0  0  0  0  0  0  0
  -24.8572  -27.5365   13.4361 C   0  0  0  0  0  0  0  0  0  0  0  0
  -29.6990  -25.2208   22.4197 C   0  0  0  0  0  0  0  0  0  0  0  0
  -30.3657  -26.5236   21.9727 C   0  0  0  0  0  0  0  0  0  0  0  0
  -30.9798  -23.1142   20.6128 C   0  0  0  0  0  0  0  0  0  0  0  0
  -30.0125  -21.9833   20.2732 C   0  0  0  0  0  0  0  0  0  0  0  0
  -29.3789  -27.5530   21.4341 C   0  0  0  0  0  0  0  0  0  1  0  0
  -22.4176  -24.7541   16.7740 C   0  0  1  0  0  0  0  0  0  0  0  0
  -23.4716  -25.4713   13.2041 C   0  0  2  0  0  0  0  0  0  0  0  0
  -30.8602  -21.3572   18.0427 C   0  0  0  0  0  0  0  0  0  0  0  0
  -21.5329  -23.5202   17.1090 C   0  0  0  0  0  0  0  0  0  0  0  0
  -32.0674  -22.3904   22.6332 N   0  0  0  0  0  0  0  0  0  0  0  0
  -26.4648  -17.9724   21.2044 N   0  0  0  0  0  0  0  0  0  0  0  0
  -31.2214  -23.2436   22.0311 N   0  0  0  0  0  0  0  0  0  0  0  0
  -26.6548  -19.0658   21.9624 N   0  0  0  0  0  0  0  0  0  0  0  0
  -22.8593  -26.6157   18.3435 N   0  0  0  0  0  0  0  0  0  0  0  0
  -27.4057  -21.6446   19.2340 N   0  0  0  0  0  0  0  0  0  0  0  0
  -26.9526  -19.7848   24.1996 N   0  0  0  0  0  0  0  0  0  0  0  0
  -26.5199  -15.3067   24.5933 N   0  0  0  0  0  0  0  0  0  0  0  0
  -20.9726  -27.7412   21.1549 N   0  0  0  0  0  0  0  0  0  0  0  0
  -22.4793  -25.0768   15.3526 N   0  0  0  0  0  0  0  0  0  0  0  0
  -29.7569  -21.8837   18.8432 N   0  0  0  0  0  0  0  0  0  0  0  0
  -24.6251  -26.2681   12.6985 N   0  3  0  0  0  0  0  0  0  0  0  0
  -26.8240  -17.2576   25.7595 O   0  0  0  0  0  0  0  0  0  0  0  0
  -22.6441  -26.1344   20.9385 O   0  0  0  0  0  0  0  0  0  0  0  0
  -20.8106  -26.4340   17.2453 O   0  0  0  0  0  0  0  0  0  0  0  0
  -24.7825  -24.8981   15.1510 O   0  0  0  0  0  0  0  0  0  0  0  0
  -28.2104  -22.4953   17.2474 O   0  0  0  0  0  0  0  0  0  0  0  0
  -25.7294  -11.6953   20.4258 O   0  0  0  0  0  0  0  0  0  0  0  0
  -28.6915  -26.9885   20.3183 O   0  0  0  0  0  0  0  0  0  1  0  0
  -22.2014   -8.5600   23.2766 F   0  0  0  0  0  0  0  0  0  0  0  0
  -23.5190  -10.5743   19.2008 F   0  0  0  0  0  0  0  0  0  0  0  0
  1  2  1  0  0  0  0
  1  5  2  0  0  0  0
  2  6  2  0  0  0  0
  3  8  2  0  0  0  0
  3 17  1  0  0  0  0
  4  9  1  0  0  0  0
  4 17  2  0  0  0  0
  5 19  1  0  0  0  0
  6 21  1  0  0  0  0
  7 10  2  0  0  0  0
  7 20  1  0  0  0  0
  8 23  1  0  0  0  0
  9 23  2  0  0  0  0
 10 24  1  0  0  0  0
 11 12  2  0  0  0  0
 11 25  1  0  0  0  0
 12 26  1  0  0  0  0
 13 16  1  0  0  0  0
 13 29  2  0  0  0  0
 14 22  1  0  0  0  0
 14 24  2  0  0  0  0
 15 26  2  0  0  0  0
 15 27  1  0  0  0  0
 16 64  2  0  0  0  0
 17 28  1  0  0  0  0
 18 28  1  0  0  0  0
 18 30  2  0  0  0  0
 18 31  1  0  0  0  0
 19 21  2  0  0  0  0
 19 36  1  0  0  0  0
 20 22  2  0  0  0  0
 20 37  1  0  0  0  0
 21 45  1  0  0  0  0
 22 38  1  0  0  0  0
 23 81  1  0  0  0  0
 24 82  1  0  0  0  0
 25 27  2  0  0  0  0
 25 81  1  0  0  0  0
 26 83  1  0  0  0  0
 27 84  1  0  0  0  0
 28 65  2  0  0  0  0
 29 55  1  0  0  0  0
 29 66  1  0  0  0  0
 30 67  1  0  0  0  0
 30 70  1  0  0  0  0
 31 71  1  0  0  0  0
 31 76  2  0  0  0  0
 32 46  1  0  0  0  0
 32 72  1  0  0  0  0
 32 77  2  0  0  0  0
 33 60  1  0  0  0  0
 33 68  1  0  0  0  0
 33 78  2  0  0  0  0
 34 61  1  0  0  0  0
 34 73  1  0  0  0  0
 34 79  2  0  0  0  0
 35 69  1  0  0  0  0
 35 74  1  0  0  0  0
 35 80  2  0  0  0  0
 36 39  1  0  0  0  0
 37 46  1  0  0  0  0
 38 68  1  0  0  0  0
 39 41  1  0  0  0  0
 40 42  1  0  0  0  0
 40 43  1  0  0  0  0
 41 45  1  0  0  0  0
 42 47  1  0  0  0  0
 43 69  1  0  0  0  0
 44 47  1  0  0  0  0
 44 69  1  0  0  0  0
 45 72  1  0  0  0  0
 46 68  1  0  0  0  0
 47 67  1  0  0  0  0
 48 61  1  0  0  0  0
 49 62  1  0  0  0  0
 50 62  1  0  0  0  0
 51 63  1  0  0  0  0
 52 63  1  0  0  0  0
 53 63  1  0  0  0  0
 54 75  1  0  0  0  0
 55 56  1  0  0  0  0
 56 59  1  0  0  0  0
 57 58  1  0  0  0  0
 57 66  1  0  0  0  0
 58 74  1  0  0  0  0
 59 82  1  0  0  0  0
 60 63  1  0  0  0  0
 60 73  1  0  0  0  0
 61 75  1  0  0  0  0
 62 74  1  0  0  0  0
 64 66  1  0  0  0  0
 65 67  1  0  0  0  0
M  CHG  1  75   1
M  ISO  4  35 100  59 101  74 100  82 101
M  END
> <Batch ID>
0045

> <Smiles>
CNC(C)C(=O)NC(C(=O)N1Cc2cc([101O:1][101CH2:1]CCc3ccnn3CC[100N:0](C(C)C)[100C:0](=O)N3CCCC(n4nc(-c5ccc(Oc6ccc(F)cc6F)cc5)c(C(N)=O)c4N)C3)ccc2CC1C(=O)NC1CCCc2ccccc21)C(C)(C)C

> <Shape>
0.214

> <Color>
0.072

> <Negative vol penalty>
0.000

$$$$

  -OEChem-04052317193D

 79 87  0     1  0  0  0  0  0999 V2000
  -16.7259  -27.6074   22.5154 C   0  0  0  0  0  0  0  0  0  0  0  0
  -17.8060  -27.4328   21.6562 C   0  0  0  0  0  0  0  0  0  0  0  0
  -29.6790  -17.8872   19.4550 C   0  0  0  0  0  0  0  0  0  0  0  0
  -31.2275  -18.0721   21.3003 C   0  0  0  0  0  0  0  0  0  0  0  0
  -16.9052  -28.2577   23.7356 C   0  0  0  0  0  0  0  0  0  0  0  0
  -19.0660  -27.9095   22.0163 C   0  0  0  0  0  0  0  0  0  0  0  0
  -22.7481  -24.5577   21.0929 C   0  0  0  0  0  0  0  0  0  0  0  0
  -30.0165  -16.5420   19.3066 C   0  0  0  0  0  0  0  0  0  0  0  0
  -31.5649  -16.7269   21.1519 C   0  0  0  0  0  0  0  0  0  0  0  0
  -23.1801  -24.4339   19.7731 C   0  0  0  0  0  0  0  0  0  0  0  0
  -29.2730  -13.6067   20.8113 C   0  0  0  0  0  0  0  0  0  0  0  0
  -28.2338  -12.6934   20.6334 C   0  0  0  0  0  0  0  0  0  0  0  0
  -25.0829  -25.8304   20.2712 C   0  0  0  0  0  0  0  0  0  0  0  0
  -29.1632  -12.0518   18.4976 C   0  0  0  0  0  0  0  0  0  0  0  0
  -30.0227  -23.3013   15.2761 C   0  0  0  0  0  0  0  0  0  0  0  0
  -28.8107  -25.1075   15.5992 C   0  0  0  0  0  0  0  0  0  0  0  0
  -30.2845  -18.6523   20.4518 C   0  0  0  0  0  0  0  0  0  0  0  0
  -30.0408  -24.5688   15.8886 C   0  0  0  0  0  0  0  0  0  0  0  0
  -28.9139  -20.5787   21.4100 C   0  0  0  0  0  0  0  0  0  0  0  0
  -18.1700  -28.7341   24.1150 C   0  0  0  0  0  0  0  0  0  0  0  0
  -23.4757  -25.3291   22.0106 C   0  0  0  0  0  0  0  0  0  0  0  0
  -19.2621  -28.5681   23.2421 C   0  0  0  0  0  0  0  0  0  0  0  0
  -24.6594  -25.9603   21.6027 C   0  0  0  0  0  0  0  0  0  0  0  0
  -30.9594  -15.9618   20.1550 C   0  0  0  0  0  0  0  0  0  0  0  0
  -24.3461  -25.0726   19.3614 C   0  0  0  0  0  0  0  0  0  0  0  0
  -30.2573  -13.7425   19.8323 C   0  0  0  0  0  0  0  0  0  0  0  0
  -28.1789  -11.9160   19.4766 C   0  0  0  0  0  0  0  0  0  0  0  0
  -30.2024  -12.9651   18.6755 C   0  0  0  0  0  0  0  0  0  0  0  0
  -29.9368  -20.0422   20.6052 C   0  0  0  0  0  0  0  0  0  0  0  0
  -28.9939  -21.9349   21.2081 C   0  0  0  0  0  0  0  0  0  0  0  0
  -31.1036  -25.2144   16.6699 C   0  0  0  0  0  0  0  0  0  0  0  0
  -27.9755  -19.9108   22.2639 C   0  0  0  0  0  0  0  0  0  0  0  0
  -22.8684  -27.9305   23.7332 C   0  0  0  0  0  0  0  0  0  0  0  0
  -25.7824  -27.2925   25.0075 C   0  0  0  0  0  0  0  0  0  0  0  0
  -28.8377  -25.8133   24.6553 C   0  0  0  0  0  0  0  0  0  0  0  0
  -18.3051  -29.4726   25.4231 C   0  0  0  0  0  0  0  0  0  0  0  0
  -23.0107  -25.4309   23.4374 C   0  0  0  0  0  0  0  0  0  0  0  0
  -25.4876  -26.7834   22.5541 C   0  0  0  0  0  0  0  0  0  0  0  0
  -19.7497  -29.6163   25.8950 C   0  0  0  0  0  0  0  0  0  0  0  0
  -32.1151  -25.3863   20.0888 C   0  0  0  0  0  0  0  0  0  0  0  0
  -20.6432  -30.0758   24.7472 C   0  0  0  0  0  0  0  0  0  0  0  0
  -31.5928  -24.0766   20.6822 C   0  0  0  0  0  0  0  0  0  0  0  0
  -32.5858  -25.2041   18.6480 C   0  0  0  0  0  0  0  0  0  0  0  0
  -31.0565  -23.2883   18.3388 C   0  0  0  0  0  0  0  0  0  0  0  0
  -20.6495  -29.0492   23.6081 C   0  0  1  0  0  0  0  0  0  0  0  0
  -23.5536  -26.6620   24.1563 C   0  0  1  0  0  0  0  0  0  0  0  0
  -30.5248  -23.4394   19.7735 C   0  0  1  0  0  0  0  0  0  0  0  0
  -31.1291  -25.0202   25.3017 C   0  0  0  0  0  0  0  0  0  0  0  0
  -26.5729  -30.1575   24.3170 C   0  0  0  0  0  0  0  0  0  0  0  0
  -28.9672  -29.5007   24.6395 C   0  0  0  0  0  0  0  0  0  0  0  0
  -27.3702  -29.3649   26.5510 C   0  0  0  0  0  0  0  0  0  0  0  0
  -27.7832  -23.2535   25.7013 C   0  0  0  0  0  0  0  0  0  0  0  0
  -25.6900  -24.5680   15.3581 C   0  0  0  0  0  0  0  0  0  0  0  0
  -25.5378  -23.4387   16.3783 C   0  0  0  0  0  0  0  0  0  0  0  0
  -26.7609  -24.2803   14.2997 C   0  0  0  0  0  0  0  0  0  0  0  0
  -24.4425  -23.7440   17.3912 C   0  0  0  0  0  0  0  0  0  1  0  0
  -27.2030  -27.6793   24.6740 C   0  0  1  0  0  0  0  0  0  0  0  0
  -29.6386  -24.9218   25.5871 C   0  0  2  0  0  0  0  0  0  0  0  0
  -27.5119  -29.1618   25.0267 C   0  0  0  0  0  0  0  0  0  0  0  0
  -28.8726  -23.0497   14.6452 N   0  0  0  0  0  0  0  0  0  0  0  0
  -30.6165  -20.9809   19.9414 N   0  0  0  0  0  0  0  0  0  0  0  0
  -28.1564  -24.1664   14.8597 N   0  0  0  0  0  0  0  0  0  0  0  0
  -30.0196  -22.1210   20.3286 N   0  0  0  0  0  0  0  0  0  0  0  0
  -31.5399  -24.5823   17.8368 N   0  0  0  0  0  0  0  0  0  0  0  0
  -24.9881  -26.8579   23.9370 N   0  0  0  0  0  0  0  0  0  0  0  0
  -28.2861  -22.9745   21.6988 N   0  0  0  0  0  0  0  0  0  0  0  0
  -28.0323  -18.5134   22.3553 N   0  0  0  0  0  0  0  0  0  0  0  0
  -21.5025  -27.9288   23.9421 N   0  0  0  0  0  0  0  0  0  0  0  0
  -28.0593  -26.7127   25.3528 N   0  0  0  0  0  0  0  0  0  0  0  0
  -29.2225  -23.4996   25.4278 N   0  3  0  0  0  0  0  0  0  0  0  0
  -31.5247  -26.2849   16.2342 O   0  0  0  0  0  0  0  0  0  0  0  0
  -27.1015  -20.5335   22.9135 O   0  0  0  0  0  0  0  0  0  0  0  0
  -23.5302  -28.8438   23.2540 O   0  0  0  0  0  0  0  0  0  0  0  0
  -25.3940  -27.3662   26.1760 O   0  0  0  0  0  0  0  0  0  0  0  0
  -28.8994  -25.7236   23.4311 O   0  0  0  0  0  0  0  0  0  0  0  0
  -31.2888  -14.6491   20.0107 O   0  0  0  0  0  0  0  0  0  0  0  0
  -24.7696  -24.9538   18.0736 O   0  0  0  0  0  0  0  0  0  1  0  0
  -27.1817  -11.0379   19.3067 F   0  0  0  0  0  0  0  0  0  0  0  0
  -31.1458  -13.0903   17.7320 F   0  0  0  0  0  0  0  0  0  0  0  0
  1  2  1  0  0  0  0
  1  5  2  0  0  0  0
  2  6  2  0  0  0  0
  3  8  2  0  0  0  0
  3 17  1  0  0  0  0
  4  9  1  0  0  0  0
  4 17  2  0  0  0  0
  5 20  1  0  0  0  0
  6 22  1  0  0  0  0
  7 10  2  0  0  0  0
  7 21  1  0  0  0  0
  8 24  1  0  0  0  0
  9 24  2  0  0  0  0
 10 25  1  0  0  0  0
 11 12  2  0  0  0  0
 11 26  1  0  0  0  0
 12 27  1  0  0  0  0
 13 23  1  0  0  0  0
 13 25  2  0  0  0  0
 14 27  2  0  0  0  0
 14 28  1  0  0  0  0
 15 18  1  0  0  0  0
 15 60  2  0  0  0  0
 16 18  2  0  0  0  0
 16 62  1  0  0  0  0
 17 29  1  0  0  0  0
 18 31  1  0  0  0  0
 19 29  1  0  0  0  0
 19 30  2  0  0  0  0
 19 32  1  0  0  0  0
 20 22  2  0  0  0  0
 20 36  1  0  0  0  0
 21 23  2  0  0  0  0
 21 37  1  0  0  0  0
 22 45  1  0  0  0  0
 23 38  1  0  0  0  0
 24 76  1  0  0  0  0
 25 77  1  0  0  0  0
 26 28  2  0  0  0  0
 26 76  1  0  0  0  0
 27 78  1  0  0  0  0
 28 79  1  0  0  0  0
 29 61  2  0  0  0  0
 30 63  1  0  0  0  0
 30 66  1  0  0  0  0
 31 64  1  0  0  0  0
 31 71  2  0  0  0  0
 32 67  1  0  0  0  0
 32 72  2  0  0  0  0
 33 46  1  0  0  0  0
 33 68  1  0  0  0  0
 33 73  2  0  0  0  0
 34 57  1  0  0  0  0
 34 65  1  0  0  0  0
 34 74  2  0  0  0  0
 35 58  1  0  0  0  0
 35 69  1  0  0  0  0
 35 75  2  0  0  0  0
 36 39  1  0  0  0  0
 37 46  1  0  0  0  0
 38 65  1  0  0  0  0
 39 41  1  0  0  0  0
 40 42  1  0  0  0  0
 40 43  1  0  0  0  0
 41 45  1  0  0  0  0
 42 47  1  0  0  0  0
 43 64  1  0  0  0  0
 44 47  1  0  0  0  0
 44 64  1  0  0  0  0
 45 68  1  0  0  0  0
 46 65  1  0  0  0  0
 47 63  1  0  0  0  0
 48 58  1  0  0  0  0
 49 59  1  0  0  0  0
 50 59  1  0  0  0  0
 51 59  1  0  0  0  0
 52 70  1  0  0  0  0
 53 54  1  0  0  0  0
 53 55  1  0  0  0  0
 54 56  1  0  0  0  0
 55 62  1  0  0  0  0
 56 77  1  0  0  0  0
 57 59  1  0  0  0  0
 57 69  1  0  0  0  0
 58 70  1  0  0  0  0
 60 62  1  0  0  0  0
 61 63  1  0  0  0  0
M  CHG  1  70   1
M  ISO  4  18 100  31 100  56 101  77 101
M  END
> <Batch ID>
0045

> <Smiles>
CNC(C)C(=O)NC(C(=O)N1Cc2cc([101O:1][101CH2:1]CCCn3c[100c:0]([100C:0](=O)N4CCCC(n5nc(-c6ccc(Oc7ccc(F)cc7F)cc6)c(C(N)=O)c5N)C4)cn3)ccc2CC1C(=O)NC1CCCc2ccccc21)C(C)(C)C

> <Shape>
0.204

> <Color>
0.062

> <Negative vol penalty>
0.000

$$$$

  -OEChem-04052317193D

 82 90  0     1  0  0  0  0  0999 V2000
  -27.2814  -29.3173   26.8880 C   0  0  0  0  0  0  0  0  0  0  0  0
  -26.6876  -28.2845   26.1695 C   0  0  0  0  0  0  0  0  0  0  0  0
  -23.0321   -9.9166   19.9478 C   0  0  0  0  0  0  0  0  0  0  0  0
  -23.8043   -9.8924   22.2369 C   0  0  0  0  0  0  0  0  0  0  0  0
  -27.9558  -30.3352   26.2149 C   0  0  0  0  0  0  0  0  0  0  0  0
  -26.7669  -28.2696   24.7775 C   0  0  0  0  0  0  0  0  0  0  0  0
  -27.9244  -23.6923   22.9463 C   0  0  0  0  0  0  0  0  0  0  0  0
  -22.2606   -8.7814   20.1960 C   0  0  0  0  0  0  0  0  0  0  0  0
  -23.0327   -8.7572   22.4852 C   0  0  0  0  0  0  0  0  0  0  0  0
  -26.8979  -22.7505   22.8907 C   0  0  0  0  0  0  0  0  0  0  0  0
  -22.7500   -5.4480   20.4671 C   0  0  0  0  0  0  0  0  0  0  0  0
  -22.7857   -4.4219   19.5229 C   0  0  0  0  0  0  0  0  0  0  0  0
  -26.6112  -23.2107   20.5402 C   0  0  0  0  0  0  0  0  0  0  0  0
  -20.4042   -4.6500   19.1852 C   0  0  0  0  0  0  0  0  0  0  0  0
  -27.3581  -18.9829   21.9018 C   0  0  0  0  0  0  0  0  0  0  0  0
  -27.3989  -18.6349   19.5923 C   0  0  0  0  0  0  0  0  0  0  0  0
  -23.8040  -10.4721   20.9682 C   0  0  0  0  0  0  0  0  0  0  0  0
  -24.2092  -12.9884   20.8590 C   0  0  0  0  0  0  0  0  0  0  0  0
  -28.0517  -30.3277   24.8144 C   0  0  0  0  0  0  0  0  0  0  0  0
  -28.2953  -24.4094   21.7998 C   0  0  0  0  0  0  0  0  0  0  0  0
  -27.4420  -29.2891   24.0849 C   0  0  0  0  0  0  0  0  0  0  0  0
  -27.6444  -24.1592   20.5833 C   0  0  0  0  0  0  0  0  0  0  0  0
  -26.6712  -19.0042   20.7051 C   0  0  0  0  0  0  0  0  0  0  0  0
  -22.2608   -8.2017   21.4647 C   0  0  0  0  0  0  0  0  0  0  0  0
  -26.2391  -22.5117   21.6882 C   0  0  0  0  0  0  0  0  0  0  0  0
  -21.5415   -6.0751   20.7704 C   0  0  0  0  0  0  0  0  0  0  0  0
  -21.6128   -4.0229   18.8820 C   0  0  0  0  0  0  0  0  0  0  0  0
  -20.3686   -5.6761   20.1295 C   0  0  0  0  0  0  0  0  0  0  0  0
  -24.6017  -11.6444   20.7122 C   0  0  0  0  0  0  0  0  0  0  0  0
  -25.3181  -13.7118   20.4935 C   0  0  0  0  0  0  0  0  0  0  0  0
  -29.2552  -18.2906   20.8583 C   0  0  0  0  0  0  0  0  0  0  0  0
  -22.9545  -13.5341   21.2875 C   0  0  0  0  0  0  0  0  0  0  0  0
  -28.3061  -27.4807   20.9808 C   0  0  0  0  0  0  0  0  0  0  0  0
  -29.8070  -26.3666   18.3296 C   0  0  0  0  0  0  0  0  0  0  0  0
  -30.4060  -23.7485   16.2241 C   0  0  0  0  0  0  0  0  0  0  0  0
  -30.8269  -14.5904   20.6566 C   0  0  0  0  0  0  0  0  0  0  0  0
  -28.7504  -31.4748   24.1284 C   0  0  0  0  0  0  0  0  0  0  0  0
  -29.4226  -25.4027   21.8703 C   0  0  0  0  0  0  0  0  0  0  0  0
  -28.0184  -24.8878   19.3193 C   0  0  0  0  0  0  0  0  0  0  0  0
  -29.1102  -31.1862   22.6732 C   0  0  0  0  0  0  0  0  0  0  0  0
  -29.6162  -12.2479   18.2642 C   0  0  0  0  0  0  0  0  0  0  0  0
  -27.9239  -30.5645   21.9432 C   0  0  0  0  0  0  0  0  0  0  0  0
  -28.1741  -11.9885   18.7036 C   0  0  0  0  0  0  0  0  0  0  0  0
  -30.5451  -12.4392   19.4611 C   0  0  0  0  0  0  0  0  0  0  0  0
  -28.6701  -13.2111   20.8619 C   0  0  0  0  0  0  0  0  0  0  0  0
  -27.5276  -29.2248   22.5754 C   0  0  1  0  0  0  0  0  0  0  0  0
  -29.3713  -26.4448   20.7573 C   0  0  1  0  0  0  0  0  0  0  0  0
  -27.6854  -13.0673   19.6888 C   0  0  2  0  0  0  0  0  0  0  0  0
  -31.6434  -23.1530   14.1236 C   0  0  0  0  0  0  0  0  0  0  0  0
  -23.6510  -21.2329   19.8730 C   0  0  0  0  0  0  0  0  0  0  0  0
  -27.6920  -27.8162   16.6757 C   0  0  0  0  0  0  0  0  0  0  0  0
  -28.3898  -26.4392   14.7046 C   0  0  0  0  0  0  0  0  0  0  0  0
  -30.0197  -27.9926   15.7784 C   0  0  0  0  0  0  0  0  0  0  0  0
  -32.0406  -21.7174   17.6247 C   0  0  0  0  0  0  0  0  0  0  0  0
  -25.2182  -19.4080   20.6190 C   0  0  0  0  0  0  0  0  0  0  0  0
  -30.6910  -17.8973   20.9422 C   0  0  0  0  0  0  0  0  0  0  0  0
  -30.9540  -16.7322   21.9040 C   0  0  0  0  0  0  0  0  0  0  0  0
  -29.3584  -25.8673   16.9774 C   0  0  1  0  0  0  0  0  0  0  0  0
  -31.6958  -23.1980   15.6428 C   0  0  2  0  0  0  0  0  0  0  0  0
  -25.0477  -20.9138   20.3909 C   0  0  2  0  0  0  0  0  0  1  0  0
  -28.8564  -27.0163   16.0581 C   0  0  0  0  0  0  0  0  0  0  0  0
  -28.6553  -18.6300   22.0153 N   0  0  0  0  0  0  0  0  0  0  0  0
  -28.6975  -18.2711   19.6327 N   0  0  0  0  0  0  0  0  0  0  0  0
  -25.8615  -11.5187   20.2865 N   0  0  0  0  0  0  0  0  0  0  0  0
  -26.2701  -12.7929   20.1625 N   0  0  0  0  0  0  0  0  0  0  0  0
  -29.1227  -25.8538   19.4408 N   0  0  0  0  0  0  0  0  0  0  0  0
  -30.0256  -13.4767   20.3553 N   0  0  0  0  0  0  0  0  0  0  0  0
  -25.5618  -15.0378   20.4260 N   0  0  0  0  0  0  0  0  0  0  0  0
  -21.9217  -12.6491   21.6258 N   0  0  0  0  0  0  0  0  0  0  0  0
  -28.4423  -28.1815   22.1639 N   0  0  0  0  0  0  0  0  0  0  0  0
  -30.4787  -25.1100   16.4297 N   0  0  0  0  0  0  0  0  0  0  0  0
  -30.2560  -15.5298   21.5066 N   0  0  0  0  0  0  0  0  0  0  0  0
  -31.9426  -21.8170   16.1457 N   0  3  0  0  0  0  0  0  0  0  0  0
  -22.7499  -14.7700   21.3524 O   0  0  0  0  0  0  0  0  0  0  0  0
  -27.4267  -27.6339   20.1412 O   0  0  0  0  0  0  0  0  0  0  0  0
  -30.7352  -27.1761   18.3979 O   0  0  0  0  0  0  0  0  0  0  0  0
  -29.4302  -23.0420   16.4675 O   0  0  0  0  0  0  0  0  0  0  0  0
  -31.9644  -14.7394   20.1976 O   0  0  0  0  0  0  0  0  0  0  0  0
  -21.5079   -7.0942   21.7074 O   0  0  0  0  0  0  0  0  0  0  0  0
  -25.2364  -21.5934   21.6313 O   0  0  0  0  0  0  0  0  0  1  0  0
  -21.6474   -3.0386   17.9742 F   0  0  0  0  0  0  0  0  0  0  0  0
  -19.2048   -6.2755   20.4158 F   0  0  0  0  0  0  0  0  0  0  0  0
  1  2  1  0  0  0  0
  1  5  2  0  0  0  0
  2  6  2  0  0  0  0
  3  8  2  0  0  0  0
  3 17  1  0  0  0  0
  4  9  1  0  0  0  0
  4 17  2  0  0  0  0
  5 19  1  0  0  0  0
  6 21  1  0  0  0  0
  7 10  2  0  0  0  0
  7 20  1  0  0  0  0
  8 24  1  0  0  0  0
  9 24  2  0  0  0  0
 10 25  1  0  0  0  0
 11 12  2  0  0  0  0
 11 26  1  0  0  0  0
 12 27  1  0  0  0  0
 13 22  1  0  0  0  0
 13 25  2  0  0  0  0
 14 27  2  0  0  0  0
 14 28  1  0  0  0  0
 15 23  1  0  0  0  0
 15 62  2  0  0  0  0
 16 23  2  0  0  0  0
 16 63  1  0  0  0  0
 17 29  1  0  0  0  0
 18 29  1  0  0  0  0
 18 30  2  0  0  0  0
 18 32  1  0  0  0  0
 19 21  2  0  0  0  0
 19 37  1  0  0  0  0
 20 22  2  0  0  0  0
 20 38  1  0  0  0  0
 21 46  1  0  0  0  0
 22 39  1  0  0  0  0
 23 55  1  0  0  0  0
 24 79  1  0  0  0  0
 25 80  1  0  0  0  0
 26 28  2  0  0  0  0
 26 79  1  0  0  0  0
 27 81  1  0  0  0  0
 28 82  1  0  0  0  0
 29 64  2  0  0  0  0
 30 65  1  0  0  0  0
 30 68  1  0  0  0  0
 31 56  1  0  0  0  0
 31 62  1  0  0  0  0
 31 63  2  0  0  0  0
 32 69  1  0  0  0  0
 32 74  2  0  0  0  0
 33 47  1  0  0  0  0
 33 70  1  0  0  0  0
 33 75  2  0  0  0  0
 34 58  1  0  0  0  0
 34 66  1  0  0  0  0
 34 76  2  0  0  0  0
 35 59  1  0  0  0  0
 35 71  1  0  0  0  0
 35 77  2  0  0  0  0
 36 67  1  0  0  0  0
 36 72  1  0  0  0  0
 36 78  2  0  0  0  0
 37 40  1  0  0  0  0
 38 47  1  0  0  0  0
 39 66  1  0  0  0  0
 40 42  1  0  0  0  0
 41 43  1  0  0  0  0
 41 44  1  0  0  0  0
 42 46  1  0  0  0  0
 43 48  1  0  0  0  0
 44 67  1  0  0  0  0
 45 48  1  0  0  0  0
 45 67  1  0  0  0  0
 46 70  1  0  0  0  0
 47 66  1  0  0  0  0
 48 65  1  0  0  0  0
 49 59  1  0  0  0  0
 50 60  1  0  0  0  0
 51 61  1  0  0  0  0
 52 61  1  0  0  0  0
 53 61  1  0  0  0  0
 54 73  1  0  0  0  0
 55 60  1  0  0  0  0
 56 57  1  0  0  0  0
 57 72  1  0  0  0  0
 58 61  1  0  0  0  0
 58 71  1  0  0  0  0
 59 73  1  0  0  0  0
 60 80  1  0  0  0  0
 64 65  1  0  0  0  0
M  CHG  1  73   1
M  ISO  4  36 100  60 101  72 100  80 101
M  END
> <Batch ID>
0045

> <Smiles>
CNC(C)C(=O)NC(C(=O)N1Cc2cc([101O:1][101CH:1](C)Cc3cnc(CC[100NH:0][100C:0](=O)N4CCCC(n5nc(-c6ccc(Oc7ccc(F)cc7F)cc6)c(C(N)=O)c5N)C4)nc3)ccc2CC1C(=O)NC1CCCc2ccccc21)C(C)(C)C

> <Shape>
0.274

> <Color>
0.195

> <Negative vol penalty>
0.000

$$$$
