
  -OEChem-04052317213D

 88 96  0     1  0  0  0  0  0999 V2000
  -18.5377  -26.2279   18.5971 C   0  0  0  0  0  0  0  0  0  0  0  0
  -19.8533  -26.5090   18.2426 C   0  0  0  0  0  0  0  0  0  0  0  0
  -25.2124  -13.1910   21.8901 C   0  0  0  0  0  0  0  0  0  0  0  0
  -26.8496  -12.8570   20.1451 C   0  0  0  0  0  0  0  0  0  0  0  0
  -17.7838  -27.1784   19.2842 C   0  0  0  0  0  0  0  0  0  0  0  0
  -20.4154  -27.7413   18.5740 C   0  0  0  0  0  0  0  0  0  0  0  0
  -25.0913  -27.2975   20.4672 C   0  0  0  0  0  0  0  0  0  0  0  0
  -24.9170  -11.8279   21.8739 C   0  0  0  0  0  0  0  0  0  0  0  0
  -26.5543  -11.4938   20.1289 C   0  0  0  0  0  0  0  0  0  0  0  0
  -26.1271  -27.0771   19.5604 C   0  0  0  0  0  0  0  0  0  0  0  0
  -23.4767   -8.4930   22.0401 C   0  0  0  0  0  0  0  0  0  0  0  0
  -22.1332   -8.1186   22.0604 C   0  0  0  0  0  0  0  0  0  0  0  0
  -26.7067  -29.4165   19.6630 C   0  0  0  0  0  0  0  0  0  0  0  0
  -30.9784  -23.8970   12.6921 C   0  0  0  0  0  0  0  0  0  0  0  0
  -30.7290  -21.7211   13.6859 C   0  0  0  0  0  0  0  0  0  0  0  0
  -21.7683   -9.3160   19.9940 C   0  0  0  0  0  0  0  0  0  0  0  0
  -26.1786  -13.7056   21.0256 C   0  0  0  0  0  0  0  0  0  0  0  0
  -27.4539  -15.7645   21.8270 C   0  0  0  0  0  0  0  0  0  0  0  0
  -18.3401  -28.4193   19.6327 C   0  0  0  0  0  0  0  0  0  0  0  0
  -24.8481  -28.5833   20.9712 C   0  0  0  0  0  0  0  0  0  0  0  0
  -19.6678  -28.7098   19.2653 C   0  0  0  0  0  0  0  0  0  0  0  0
  -25.6688  -29.6501   20.5780 C   0  0  0  0  0  0  0  0  0  0  0  0
  -31.5236  -22.6694   13.0514 C   0  0  0  0  0  0  0  0  0  0  0  0
  -25.5880  -10.9793   20.9934 C   0  0  0  0  0  0  0  0  0  0  0  0
  -26.9332  -28.1371   19.1559 C   0  0  0  0  0  0  0  0  0  0  0  0
  -23.9660   -9.2789   20.9967 C   0  0  0  0  0  0  0  0  0  0  0  0
  -21.2790   -8.5301   21.0374 C   0  0  0  0  0  0  0  0  0  0  0  0
  -23.1118   -9.6904   19.9736 C   0  0  0  0  0  0  0  0  0  0  0  0
  -26.4838  -15.1137   21.0415 C   0  0  0  0  0  0  0  0  0  0  0  0
  -29.6440  -24.1253   12.9872 C   0  0  0  0  0  0  0  0  0  0  0  0
  -29.4059  -22.0469   13.9367 C   0  0  0  0  0  0  0  0  0  0  0  0
  -27.3496  -17.0879   21.4746 C   0  0  0  0  0  0  0  0  0  0  0  0
  -28.3678  -15.2213   22.7890 C   0  0  0  0  0  0  0  0  0  0  0  0
  -22.4100  -30.6187   20.8432 C   0  0  0  0  0  0  0  0  0  0  0  0
  -24.2416  -32.3355   22.8975 C   0  0  0  0  0  0  0  0  0  0  0  0
  -27.3530  -33.0387   24.1105 C   0  0  0  0  0  0  0  0  0  0  0  0
  -26.3314  -20.4825   17.0185 C   0  0  0  0  0  0  0  0  0  0  0  0
  -17.4711  -29.4331   20.3339 C   0  0  0  0  0  0  0  0  0  0  0  0
  -23.7437  -28.7995   21.9692 C   0  0  0  0  0  0  0  0  0  0  0  0
  -25.4621  -31.0457   21.1052 C   0  0  0  0  0  0  0  0  0  0  0  0
  -18.2601  -30.5707   20.9770 C   0  0  0  0  0  0  0  0  0  0  0  0
  -23.8645  -19.8841   19.3811 C   0  0  0  0  0  0  0  0  0  0  0  0
  -19.3053  -31.1109   20.0062 C   0  0  0  0  0  0  0  0  0  0  0  0
  -24.3688  -18.6548   20.1358 C   0  0  0  0  0  0  0  0  0  0  0  0
  -24.1313  -19.7526   17.8864 C   0  0  0  0  0  0  0  0  0  0  0  0
  -26.0932  -18.3025   18.2976 C   0  0  0  0  0  0  0  0  0  0  0  0
  -20.3208  -30.0257   19.6288 C   0  0  1  0  0  0  0  0  0  0  0  0
  -23.2621  -30.2460   22.0234 C   0  0  1  0  0  0  0  0  0  0  0  0
  -25.8497  -18.3826   19.8186 C   0  0  2  0  0  0  0  0  0  0  0  0
  -32.9545  -22.3708   12.7565 C   0  0  0  0  0  0  0  0  0  0  0  0
  -29.3615  -17.1013   18.3367 C   0  0  0  0  0  0  0  0  0  0  0  0
  -28.5376  -34.5147   25.7584 C   0  0  0  0  0  0  0  0  0  0  0  0
  -23.9428  -34.6994   20.9914 C   0  0  0  0  0  0  0  0  0  0  0  0
  -25.8660  -35.7957   22.1608 C   0  0  0  0  0  0  0  0  0  0  0  0
  -23.7716  -35.2865   23.4164 C   0  0  0  0  0  0  0  0  0  0  0  0
  -28.3550  -30.7160   25.6466 C   0  0  0  0  0  0  0  0  0  0  0  0
  -29.0181  -25.4447   12.6109 C   0  0  0  0  0  0  0  0  0  0  0  0
  -28.5248  -21.0536   14.6177 C   0  0  0  0  0  0  0  0  0  0  0  0
  -28.7513  -18.4935   18.2526 C   0  0  0  0  0  0  0  0  0  0  0  0
  -29.1257  -26.5153   13.7027 C   0  0  0  0  0  0  0  0  0  0  0  0
  -28.3797  -26.1390   14.9867 C   0  0  0  0  0  0  0  0  0  0  0  0
  -28.5392  -27.2186   16.0558 C   0  0  0  0  0  0  0  0  0  0  0  0
  -28.5309  -21.1745   16.1460 C   0  0  0  0  0  0  0  0  0  0  0  0
  -28.2410  -18.8297   16.8565 C   0  0  0  0  0  0  0  0  0  0  0  0
  -27.7669  -26.8741   17.3214 C   0  0  0  0  0  0  0  0  0  1  0  0
  -25.3088  -33.3930   22.7503 C   0  0  1  0  0  0  0  0  0  0  0  0
  -27.8760  -33.1646   25.5300 C   0  0  2  0  0  0  0  0  0  0  0  0
  -24.7252  -34.7678   22.3181 C   0  0  0  0  0  0  0  0  0  0  0  0
  -25.8124  -15.9544   20.2500 N   0  0  0  0  0  0  0  0  0  0  0  0
  -28.8408  -23.2287   13.6025 N   0  0  0  0  0  0  0  0  0  0  0  0
  -26.3615  -17.1471   20.5364 N   0  0  0  0  0  0  0  0  0  0  0  0
  -24.3653  -31.2075   22.0740 N   0  0  0  0  0  0  0  0  0  0  0  0
  -25.5461  -19.4893   17.6222 N   0  0  0  0  0  0  0  0  0  0  0  0
  -28.0076  -18.1952   21.8791 N   0  0  0  0  0  0  0  0  0  0  0  0
  -28.3419  -13.8409   23.0299 N   0  0  0  0  0  0  0  0  0  0  0  0
  -21.2796  -29.8375   20.6964 N   0  0  0  0  0  0  0  0  0  0  0  0
  -26.0319  -33.4224   24.0170 N   0  0  0  0  0  0  0  0  0  0  0  0
  -27.6797  -20.1771   16.7789 N   0  0  0  0  0  0  0  0  0  0  0  0
  -28.8776  -32.0970   25.8096 N   0  3  0  0  0  0  0  0  0  0  0  0
  -29.1720  -15.9411   23.4283 O   0  0  0  0  0  0  0  0  0  0  0  0
  -22.7519  -31.5471   20.1202 O   0  0  0  0  0  0  0  0  0  0  0  0
  -23.3356  -32.5008   23.7181 O   0  0  0  0  0  0  0  0  0  0  0  0
  -28.0481  -32.6435   23.1771 O   0  0  0  0  0  0  0  0  0  0  0  0
  -25.8535  -21.5800   16.7032 O   0  0  0  0  0  0  0  0  0  0  0  0
  -25.3003   -9.6491   20.9775 O   0  0  0  0  0  0  0  0  0  0  0  0
  -27.9445  -27.9249   18.2704 O   0  0  0  0  0  0  0  0  0  1  0  0
  -19.9892   -8.1693   21.0563 F   0  0  0  0  0  0  0  0  0  0  0  0
  -23.5763  -10.4445   18.9680 F   0  0  0  0  0  0  0  0  0  0  0  0
  1  2  1  0  0  0  0
  1  5  2  0  0  0  0
  2  6  2  0  0  0  0
  3  8  2  0  0  0  0
  3 17  1  0  0  0  0
  4  9  1  0  0  0  0
  4 17  2  0  0  0  0
  5 19  1  0  0  0  0
  6 21  1  0  0  0  0
  7 10  2  0  0  0  0
  7 20  1  0  0  0  0
  8 24  1  0  0  0  0
  9 24  2  0  0  0  0
 10 25  1  0  0  0  0
 11 12  2  0  0  0  0
 11 26  1  0  0  0  0
 12 27  1  0  0  0  0
 13 22  1  0  0  0  0
 13 25  2  0  0  0  0
 14 23  1  0  0  0  0
 14 30  2  0  0  0  0
 15 23  2  0  0  0  0
 15 31  1  0  0  0  0
 16 27  2  0  0  0  0
 16 28  1  0  0  0  0
 17 29  1  0  0  0  0
 18 29  1  0  0  0  0
 18 32  2  0  0  0  0
 18 33  1  0  0  0  0
 19 21  2  0  0  0  0
 19 38  1  0  0  0  0
 20 22  2  0  0  0  0
 20 39  1  0  0  0  0
 21 47  1  0  0  0  0
 22 40  1  0  0  0  0
 23 50  1  0  0  0  0
 24 85  1  0  0  0  0
 25 86  1  0  0  0  0
 26 28  2  0  0  0  0
 26 85  1  0  0  0  0
 27 87  1  0  0  0  0
 28 88  1  0  0  0  0
 29 69  2  0  0  0  0
 30 57  1  0  0  0  0
 30 70  1  0  0  0  0
 31 58  1  0  0  0  0
 31 70  2  0  0  0  0
 32 71  1  0  0  0  0
 32 74  1  0  0  0  0
 33 75  1  0  0  0  0
 33 80  2  0  0  0  0
 34 48  1  0  0  0  0
 34 76  1  0  0  0  0
 34 81  2  0  0  0  0
 35 66  1  0  0  0  0
 35 72  1  0  0  0  0
 35 82  2  0  0  0  0
 36 67  1  0  0  0  0
 36 77  1  0  0  0  0
 36 83  2  0  0  0  0
 37 73  1  0  0  0  0
 37 78  1  0  0  0  0
 37 84  2  0  0  0  0
 38 41  1  0  0  0  0
 39 48  1  0  0  0  0
 40 72  1  0  0  0  0
 41 43  1  0  0  0  0
 42 44  1  0  0  0  0
 42 45  1  0  0  0  0
 43 47  1  0  0  0  0
 44 49  1  0  0  0  0
 45 73  1  0  0  0  0
 46 49  1  0  0  0  0
 46 73  1  0  0  0  0
 47 76  1  0  0  0  0
 48 72  1  0  0  0  0
 49 71  1  0  0  0  0
 51 59  1  0  0  0  0
 52 67  1  0  0  0  0
 53 68  1  0  0  0  0
 54 68  1  0  0  0  0
 55 68  1  0  0  0  0
 56 79  1  0  0  0  0
 57 60  1  0  0  0  0
 58 63  1  0  0  0  0
 59 64  1  0  0  0  0
 60 61  1  0  0  0  0
 61 62  1  0  0  0  0
 62 65  1  0  0  0  0
 63 78  1  0  0  0  0
 64 78  1  0  0  0  0
 65 86  1  0  0  0  0
 66 68  1  0  0  0  0
 66 77  1  0  0  0  0
 67 79  1  0  0  0  0
 69 71  1  0  0  0  0
M  CHG  1  79   1
M  ISO  4  37 100  65 101  78 100  86 101
M  END
> <Batch ID>
0046

> <Smiles>
CCC[100N:0](CCc1cc(C)cc(CCCC[101CH2:1][101O:1]c2ccc3c(c2)CN(C(=O)C(NC(=O)C(C)NC)C(C)(C)C)C(C(=O)NC2CCCc4ccccc42)C3)n1)[100C:0](=O)N1CCCC(n2nc(-c3ccc(Oc4ccc(F)cc4F)cc3)c(C(N)=O)c2N)C1

> <Shape>
0.210

> <Color>
0.096

> <Negative vol penalty>
0.000

$$$$

  -OEChem-04052317213D

 82 90  0     1  0  0  0  0  0999 V2000
  -27.3429  -34.6063   25.0704 C   0  0  0  0  0  0  0  0  0  0  0  0
  -27.6447  -33.3798   24.4874 C   0  0  0  0  0  0  0  0  0  0  0  0
  -26.8488  -14.9510   21.5910 C   0  0  0  0  0  0  0  0  0  0  0  0
  -26.7866  -14.9579   19.1758 C   0  0  0  0  0  0  0  0  0  0  0  0
  -26.0778  -34.8262   25.6136 C   0  0  0  0  0  0  0  0  0  0  0  0
  -26.6818  -32.3720   24.4482 C   0  0  0  0  0  0  0  0  0  0  0  0
  -26.4387  -30.0920   19.9329 C   0  0  0  0  0  0  0  0  0  0  0  0
  -26.4118  -13.6265   21.5985 C   0  0  0  0  0  0  0  0  0  0  0  0
  -26.3496  -13.6333   19.1833 C   0  0  0  0  0  0  0  0  0  0  0  0
  -27.4251  -29.1510   19.6409 C   0  0  0  0  0  0  0  0  0  0  0  0
  -25.6587  -10.1292   22.2444 C   0  0  0  0  0  0  0  0  0  0  0  0
  -26.3060   -9.2376   23.0998 C   0  0  0  0  0  0  0  0  0  0  0  0
  -25.8914  -27.3768   20.2061 C   0  0  0  0  0  0  0  0  0  0  0  0
  -28.3957   -9.6667   21.9657 C   0  0  0  0  0  0  0  0  0  0  0  0
  -28.6166  -23.7949   17.0399 C   0  0  0  0  0  0  0  0  0  0  0  0
  -27.0362  -15.6168   20.3796 C   0  0  0  0  0  0  0  0  0  0  0  0
  -28.8184  -17.4415   20.3380 C   0  0  0  0  0  0  0  0  0  0  0  0
  -25.0958  -33.8239   25.5724 C   0  0  0  0  0  0  0  0  0  0  0  0
  -25.1726  -29.6821   20.3750 C   0  0  0  0  0  0  0  0  0  0  0  0
  -25.4028  -32.5781   24.9925 C   0  0  0  0  0  0  0  0  0  0  0  0
  -24.8899  -28.3145   20.5007 C   0  0  0  0  0  0  0  0  0  0  0  0
  -26.1623  -12.9676   20.3947 C   0  0  0  0  0  0  0  0  0  0  0  0
  -27.1525  -27.7933   19.7802 C   0  0  0  0  0  0  0  0  0  0  0  0
  -26.3799  -10.7895   21.2496 C   0  0  0  0  0  0  0  0  0  0  0  0
  -27.6745   -9.0064   22.9605 C   0  0  0  0  0  0  0  0  0  0  0  0
  -27.7484  -10.5582   21.1103 C   0  0  0  0  0  0  0  0  0  0  0  0
  -27.4870  -16.9853   20.3712 C   0  0  0  0  0  0  0  0  0  0  0  0
  -28.5203  -25.1647   17.1486 C   0  0  0  0  0  0  0  0  0  0  0  0
  -26.5159  -25.1110   16.0487 C   0  0  0  0  0  0  0  0  0  0  0  0
  -26.6127  -23.7412   15.9395 C   0  0  0  0  0  0  0  0  0  0  0  0
  -28.7123  -18.8109   20.3438 C   0  0  0  0  0  0  0  0  0  0  0  0
  -30.0416  -16.6943   20.3048 C   0  0  0  0  0  0  0  0  0  0  0  0
  -23.4736  -30.1155   23.0263 C   0  0  0  0  0  0  0  0  0  0  0  0
  -21.1668  -28.5888   21.3321 C   0  0  0  0  0  0  0  0  0  0  0  0
  -20.3719  -26.4529   18.7919 C   0  0  0  0  0  0  0  0  0  0  0  0
  -24.3868  -22.5729   18.6152 C   0  0  0  0  0  0  0  0  0  0  0  0
  -23.7578  -34.0917   26.2148 C   0  0  0  0  0  0  0  0  0  0  0  0
  -24.1109  -30.7087   20.6603 C   0  0  0  0  0  0  0  0  0  0  0  0
  -23.5401  -27.8219   20.9523 C   0  0  0  0  0  0  0  0  0  0  0  0
  -22.6731  -33.1016   25.7982 C   0  0  0  0  0  0  0  0  0  0  0  0
  -25.8535  -22.3388   21.8510 C   0  0  0  0  0  0  0  0  0  0  0  0
  -23.1995  -31.6717   25.8697 C   0  0  0  0  0  0  0  0  0  0  0  0
  -26.5586  -20.9814   21.8357 C   0  0  0  0  0  0  0  0  0  0  0  0
  -24.5402  -22.3014   21.0727 C   0  0  0  0  0  0  0  0  0  0  0  0
  -25.3591  -20.4446   19.6742 C   0  0  0  0  0  0  0  0  0  0  0  0
  -24.3770  -31.4687   24.9087 C   0  0  1  0  0  0  0  0  0  0  0  0
  -23.0204  -30.1963   21.5960 C   0  0  1  0  0  0  0  0  0  0  0  0
  -26.7158  -20.4474   20.3992 C   0  0  2  0  0  0  0  0  0  0  0  0
  -25.3464  -25.8538   15.4989 C   0  0  0  0  0  0  0  0  0  0  0  0
  -18.4050  -25.3682   17.6729 C   0  0  0  0  0  0  0  0  0  0  0  0
  -20.9131  -26.6435   23.6690 C   0  0  0  0  0  0  0  0  0  0  0  0
  -19.6766  -25.0861   22.1478 C   0  0  0  0  0  0  0  0  0  0  0  0
  -18.7376  -27.3415   22.6520 C   0  0  0  0  0  0  0  0  0  0  0  0
  -20.9902  -27.7390   16.1991 C   0  0  0  0  0  0  0  0  0  0  0  0
  -29.6070  -25.9568   17.8341 C   0  0  0  0  0  0  0  0  0  0  0  0
  -25.5524  -22.9384   15.2663 C   0  0  0  0  0  0  0  0  0  0  0  0
  -24.3126  -22.7029   16.1379 C   0  0  0  0  0  0  0  0  0  0  0  0
  -29.0720  -27.2210   18.4980 C   0  0  0  0  0  0  0  0  0  1  0  0
  -20.7562  -27.1486   21.1419 C   0  0  1  0  0  0  0  0  0  0  0  0
  -19.3544  -26.5562   17.6701 C   0  0  2  0  0  0  0  0  0  0  0  0
  -20.0471  -26.5640   22.3960 C   0  0  0  0  0  0  0  0  0  0  0  0
  -27.6645  -23.0585   16.4333 N   0  0  0  0  0  0  0  0  0  0  0  0
  -26.6003  -17.9838   20.3964 N   0  0  0  0  0  0  0  0  0  0  0  0
  -27.4682  -25.8473   16.6550 N   0  0  0  0  0  0  0  0  0  0  0  0
  -27.3760  -19.0811   20.3791 N   0  0  0  0  0  0  0  0  0  0  0  0
  -22.5373  -28.8646   21.2252 N   0  0  0  0  0  0  0  0  0  0  0  0
  -24.7588  -21.7872   19.7185 N   0  0  0  0  0  0  0  0  0  0  0  0
  -29.6328  -19.7982   20.3222 N   0  0  0  0  0  0  0  0  0  0  0  0
  -29.9697  -15.2946   20.3034 N   0  0  0  0  0  0  0  0  0  0  0  0
  -23.9009  -31.3207   23.5501 N   0  0  0  0  0  0  0  0  0  0  0  0
  -19.9490  -27.1112   19.9272 N   0  0  0  0  0  0  0  0  0  0  0  0
  -24.6344  -22.0135   17.3676 N   0  0  0  0  0  0  0  0  0  0  0  0
  -20.0428  -26.6046   16.3492 N   0  3  0  0  0  0  0  0  0  0  0  0
  -31.1655  -17.2513   20.2937 O   0  0  0  0  0  0  0  0  0  0  0  0
  -23.4368  -29.0396   23.6118 O   0  0  0  0  0  0  0  0  0  0  0  0
  -20.3025  -29.4390   21.5598 O   0  0  0  0  0  0  0  0  0  0  0  0
  -21.4339  -25.8455   18.6741 O   0  0  0  0  0  0  0  0  0  0  0  0
  -23.8769  -23.6923   18.7332 O   0  0  0  0  0  0  0  0  0  0  0  0
  -25.7361  -11.6749   20.4016 O   0  0  0  0  0  0  0  0  0  0  0  0
  -28.1137  -26.8727   19.4964 O   0  0  0  0  0  0  0  0  0  1  0  0
  -28.2962   -8.1513   23.7830 F   0  0  0  0  0  0  0  0  0  0  0  0
  -28.4468  -11.1905   20.1572 F   0  0  0  0  0  0  0  0  0  0  0  0
  1  2  1  0  0  0  0
  1  5  2  0  0  0  0
  2  6  2  0  0  0  0
  3  8  2  0  0  0  0
  3 16  1  0  0  0  0
  4  9  1  0  0  0  0
  4 16  2  0  0  0  0
  5 18  1  0  0  0  0
  6 20  1  0  0  0  0
  7 10  2  0  0  0  0
  7 19  1  0  0  0  0
  8 22  1  0  0  0  0
  9 22  2  0  0  0  0
 10 23  1  0  0  0  0
 11 12  2  0  0  0  0
 11 24  1  0  0  0  0
 12 25  1  0  0  0  0
 13 21  1  0  0  0  0
 13 23  2  0  0  0  0
 14 25  2  0  0  0  0
 14 26  1  0  0  0  0
 15 28  1  0  0  0  0
 15 62  2  0  0  0  0
 16 27  1  0  0  0  0
 17 27  1  0  0  0  0
 17 31  2  0  0  0  0
 17 32  1  0  0  0  0
 18 20  2  0  0  0  0
 18 37  1  0  0  0  0
 19 21  2  0  0  0  0
 19 38  1  0  0  0  0
 20 46  1  0  0  0  0
 21 39  1  0  0  0  0
 22 79  1  0  0  0  0
 23 80  1  0  0  0  0
 24 26  2  0  0  0  0
 24 79  1  0  0  0  0
 25 81  1  0  0  0  0
 26 82  1  0  0  0  0
 27 63  2  0  0  0  0
 28 55  1  0  0  0  0
 28 64  2  0  0  0  0
 29 30  2  0  0  0  0
 29 49  1  0  0  0  0
 29 64  1  0  0  0  0
 30 56  1  0  0  0  0
 30 62  1  0  0  0  0
 31 65  1  0  0  0  0
 31 68  1  0  0  0  0
 32 69  1  0  0  0  0
 32 74  2  0  0  0  0
 33 47  1  0  0  0  0
 33 70  1  0  0  0  0
 33 75  2  0  0  0  0
 34 59  1  0  0  0  0
 34 66  1  0  0  0  0
 34 76  2  0  0  0  0
 35 60  1  0  0  0  0
 35 71  1  0  0  0  0
 35 77  2  0  0  0  0
 36 67  1  0  0  0  0
 36 72  1  0  0  0  0
 36 78  2  0  0  0  0
 37 40  1  0  0  0  0
 38 47  1  0  0  0  0
 39 66  1  0  0  0  0
 40 42  1  0  0  0  0
 41 43  1  0  0  0  0
 41 44  1  0  0  0  0
 42 46  1  0  0  0  0
 43 48  1  0  0  0  0
 44 67  1  0  0  0  0
 45 48  1  0  0  0  0
 45 67  1  0  0  0  0
 46 70  1  0  0  0  0
 47 66  1  0  0  0  0
 48 65  1  0  0  0  0
 50 60  1  0  0  0  0
 51 61  1  0  0  0  0
 52 61  1  0  0  0  0
 53 61  1  0  0  0  0
 54 73  1  0  0  0  0
 55 58  1  0  0  0  0
 56 57  1  0  0  0  0
 57 72  1  0  0  0  0
 58 80  1  0  0  0  0
 59 61  1  0  0  0  0
 59 71  1  0  0  0  0
 60 73  1  0  0  0  0
 63 65  1  0  0  0  0
M  CHG  1  73   1
M  ISO  4  36 100  58 101  72 100  80 101
M  END
> <Batch ID>
0046

> <Smiles>
CNC(C)C(=O)NC(C(=O)N1Cc2cc([101O:1][101CH2:1]Cc3cnc(CC[100NH:0][100C:0](=O)N4CCCC(n5nc(-c6ccc(Oc7ccc(F)cc7F)cc6)c(C(N)=O)c5N)C4)c(C)n3)ccc2CC1C(=O)NC1CCCc2ccccc21)C(C)(C)C

> <Shape>
0.239

> <Color>
0.086

> <Negative vol penalty>
0.000

$$$$

  -OEChem-04052317213D

 86 94  0     1  0  0  0  0  0999 V2000
  -21.2941  -29.0638   25.1917 C   0  0  0  0  0  0  0  0  0  0  0  0
  -22.0168  -27.8806   25.0771 C   0  0  0  0  0  0  0  0  0  0  0  0
  -28.8824  -22.2500   19.4535 C   0  0  0  0  0  0  0  0  0  0  0  0
  -31.1807  -21.6140   19.0660 C   0  0  0  0  0  0  0  0  0  0  0  0
  -20.1492  -29.2575   24.4200 C   0  0  0  0  0  0  0  0  0  0  0  0
  -21.5944  -26.8899   24.1914 C   0  0  0  0  0  0  0  0  0  0  0  0
  -25.1421  -23.1020   20.9401 C   0  0  0  0  0  0  0  0  0  0  0  0
  -29.2580  -23.5931   19.4772 C   0  0  0  0  0  0  0  0  0  0  0  0
  -31.5564  -22.9571   19.0897 C   0  0  0  0  0  0  0  0  0  0  0  0
  -25.5399  -21.7816   21.1456 C   0  0  0  0  0  0  0  0  0  0  0  0
  -29.6676  -27.1686   19.9981 C   0  0  0  0  0  0  0  0  0  0  0  0
  -29.1425  -27.9727   21.0097 C   0  0  0  0  0  0  0  0  0  0  0  0
  -23.7431  -21.0254   19.7247 C   0  0  0  0  0  0  0  0  0  0  0  0
  -30.1634  -26.5477   22.6723 C   0  0  0  0  0  0  0  0  0  0  0  0
  -25.9017  -13.8579   19.4124 C   0  0  0  0  0  0  0  0  0  0  0  0
  -29.8438  -21.2604   19.2479 C   0  0  0  0  0  0  0  0  0  0  0  0
  -29.0594  -19.1203   18.1023 C   0  0  0  0  0  0  0  0  0  0  0  0
  -19.7179  -28.2727   23.5173 C   0  0  0  0  0  0  0  0  0  0  0  0
  -24.0333  -23.3938   20.1327 C   0  0  0  0  0  0  0  0  0  0  0  0
  -20.4418  -27.0700   23.4078 C   0  0  0  0  0  0  0  0  0  0  0  0
  -23.3348  -22.3504   19.5085 C   0  0  0  0  0  0  0  0  0  0  0  0
  -30.5950  -23.9467   19.2953 C   0  0  0  0  0  0  0  0  0  0  0  0
  -24.8387  -20.7430   20.5402 C   0  0  0  0  0  0  0  0  0  0  0  0
  -30.4406  -26.0540   20.3236 C   0  0  0  0  0  0  0  0  0  0  0  0
  -29.3904  -27.6623   22.3468 C   0  0  0  0  0  0  0  0  0  0  0  0
  -30.6885  -25.7436   21.6607 C   0  0  0  0  0  0  0  0  0  0  0  0
  -29.4565  -19.8728   19.2239 C   0  0  0  0  0  0  0  0  0  0  0  0
  -26.0537  -12.6758   20.1616 C   0  0  0  0  0  0  0  0  0  0  0  0
  -24.9303  -14.5642   20.0789 C   0  0  0  0  0  0  0  0  0  0  0  0
  -28.7984  -17.8685   18.6036 C   0  0  0  0  0  0  0  0  0  0  0  0
  -28.9374  -19.5174   16.7300 C   0  0  0  0  0  0  0  0  0  0  0  0
  -21.2147  -24.7835   20.6101 C   0  0  0  0  0  0  0  0  0  0  0  0
  -20.9500  -24.4636   17.3929 C   0  0  0  0  0  0  0  0  0  0  0  0
  -21.8967  -22.8170   14.5575 C   0  0  0  0  0  0  0  0  0  0  0  0
  -30.6778  -13.6818   21.9587 C   0  0  0  0  0  0  0  0  0  0  0  0
  -18.4477  -28.5076   22.7389 C   0  0  0  0  0  0  0  0  0  0  0  0
  -23.6332  -24.8249   19.8995 C   0  0  0  0  0  0  0  0  0  0  0  0
  -22.1499  -22.6118   18.6162 C   0  0  0  0  0  0  0  0  0  0  0  0
  -18.2780  -27.5642   21.5509 C   0  0  0  0  0  0  0  0  0  0  0  0
  -28.3858  -16.2277   23.3610 C   0  0  0  0  0  0  0  0  0  0  0  0
  -18.5791  -26.1269   21.9633 C   0  0  0  0  0  0  0  0  0  0  0  0
  -28.4903  -17.3650   22.3463 C   0  0  0  0  0  0  0  0  0  0  0  0
  -29.6643  -15.3970   23.4155 C   0  0  0  0  0  0  0  0  0  0  0  0
  -30.1991  -16.0033   21.0787 C   0  0  0  0  0  0  0  0  0  0  0  0
  -20.0294  -25.9821   22.4402 C   0  0  1  0  0  0  0  0  0  0  0  0
  -22.1766  -24.9760   19.4719 C   0  0  1  0  0  0  0  0  0  0  0  0
  -28.9103  -16.8315   20.9656 C   0  0  2  0  0  0  0  0  0  0  0  0
  -22.2839  -13.3503   21.9303 C   0  0  0  0  0  0  0  0  0  0  0  0
  -32.4874  -12.7734   19.3753 C   0  0  0  0  0  0  0  0  0  0  0  0
  -21.4811  -22.7556   12.0835 C   0  0  0  0  0  0  0  0  0  0  0  0
  -18.2863  -23.0565   17.8778 C   0  0  0  0  0  0  0  0  0  0  0  0
  -18.3908  -22.1995   15.5277 C   0  0  0  0  0  0  0  0  0  0  0  0
  -18.2868  -24.6550   15.9545 C   0  0  0  0  0  0  0  0  0  0  0  0
  -24.7221  -23.4548   13.9499 C   0  0  0  0  0  0  0  0  0  0  0  0
  -26.9690  -11.5541   19.8921 C   0  0  0  0  0  0  0  0  0  0  0  0
  -24.3105  -15.9085   19.7921 C   0  0  0  0  0  0  0  0  0  0  0  0
  -28.3655  -11.6727   20.5525 C   0  0  0  0  0  0  0  0  0  0  0  0
  -25.0428  -17.0781   20.4535 C   0  0  0  0  0  0  0  0  0  0  0  0
  -23.5841  -14.1043   22.1503 C   0  0  0  0  0  0  0  0  0  0  0  0
  -31.4938  -12.0717   20.2790 C   0  0  0  0  0  0  0  0  0  0  0  0
  -29.1721  -12.8835   20.0883 C   0  0  0  0  0  0  0  0  0  0  0  0
  -24.4606  -18.4388   20.0887 C   0  0  0  0  0  0  0  0  0  1  0  0
  -20.4200  -23.3976   16.4646 C   0  0  1  0  0  0  0  0  0  0  0  0
  -22.3434  -23.3258   13.1989 C   0  0  2  0  0  0  0  0  0  0  0  0
  -18.8671  -23.3218   16.4744 C   0  0  0  0  0  0  0  0  0  0  0  0
  -29.4497  -19.1586   20.3526 N   0  0  0  0  0  0  0  0  0  0  0  0
  -25.2439  -12.6301   21.2228 N   0  0  0  0  0  0  0  0  0  0  0  0
  -24.5737  -13.7924   21.1453 N   0  0  0  0  0  0  0  0  0  0  0  0
  -29.0450  -17.9444   19.9428 N   0  0  0  0  0  0  0  0  0  0  0  0
  -21.7938  -24.0273   18.4242 N   0  0  0  0  0  0  0  0  0  0  0  0
  -30.0643  -14.9390   22.0846 N   0  0  0  0  0  0  0  0  0  0  0  0
  -28.3842  -16.7213   18.0250 N   0  0  0  0  0  0  0  0  0  0  0  0
  -29.2452  -20.8412   16.3877 N   0  0  0  0  0  0  0  0  0  0  0  0
  -20.9315  -25.9413   21.3093 N   0  0  0  0  0  0  0  0  0  0  0  0
  -20.9964  -23.6748   15.1534 N   0  0  0  0  0  0  0  0  0  0  0  0
  -30.4660  -12.9839   20.7600 N   0  0  0  0  0  0  0  0  0  0  0  0
  -23.7599  -22.9405   12.9416 N   0  3  0  0  0  0  0  0  0  0  0  0
  -28.5508  -18.7263   15.8367 O   0  0  0  0  0  0  0  0  0  0  0  0
  -20.7617  -23.6675   20.8361 O   0  0  0  0  0  0  0  0  0  0  0  0
  -20.6329  -25.6408   17.2056 O   0  0  0  0  0  0  0  0  0  0  0  0
  -22.3026  -21.7622   15.0403 O   0  0  0  0  0  0  0  0  0  0  0  0
  -31.3673  -13.2059   22.8697 O   0  0  0  0  0  0  0  0  0  0  0  0
  -30.9618  -25.2572   19.3181 O   0  0  0  0  0  0  0  0  0  0  0  0
  -25.2244  -19.4533   20.7397 O   0  0  0  0  0  0  0  0  0  1  0  0
  -28.8874  -28.4354   23.3180 F   0  0  0  0  0  0  0  0  0  0  0  0
  -31.4314  -24.6748   21.9795 F   0  0  0  0  0  0  0  0  0  0  0  0
  1  2  1  0  0  0  0
  1  5  2  0  0  0  0
  2  6  2  0  0  0  0
  3  8  2  0  0  0  0
  3 16  1  0  0  0  0
  4  9  1  0  0  0  0
  4 16  2  0  0  0  0
  5 18  1  0  0  0  0
  6 20  1  0  0  0  0
  7 10  2  0  0  0  0
  7 19  1  0  0  0  0
  8 22  1  0  0  0  0
  9 22  2  0  0  0  0
 10 23  1  0  0  0  0
 11 12  2  0  0  0  0
 11 24  1  0  0  0  0
 12 25  1  0  0  0  0
 13 21  1  0  0  0  0
 13 23  2  0  0  0  0
 14 25  2  0  0  0  0
 14 26  1  0  0  0  0
 15 28  1  0  0  0  0
 15 29  2  0  0  0  0
 16 27  1  0  0  0  0
 17 27  1  0  0  0  0
 17 30  2  0  0  0  0
 17 31  1  0  0  0  0
 18 20  2  0  0  0  0
 18 36  1  0  0  0  0
 19 21  2  0  0  0  0
 19 37  1  0  0  0  0
 20 45  1  0  0  0  0
 21 38  1  0  0  0  0
 22 83  1  0  0  0  0
 23 84  1  0  0  0  0
 24 26  2  0  0  0  0
 24 83  1  0  0  0  0
 25 85  1  0  0  0  0
 26 86  1  0  0  0  0
 27 66  2  0  0  0  0
 28 55  1  0  0  0  0
 28 67  2  0  0  0  0
 29 56  1  0  0  0  0
 29 68  1  0  0  0  0
 30 69  1  0  0  0  0
 30 72  1  0  0  0  0
 31 73  1  0  0  0  0
 31 78  2  0  0  0  0
 32 46  1  0  0  0  0
 32 74  1  0  0  0  0
 32 79  2  0  0  0  0
 33 63  1  0  0  0  0
 33 70  1  0  0  0  0
 33 80  2  0  0  0  0
 34 64  1  0  0  0  0
 34 75  1  0  0  0  0
 34 81  2  0  0  0  0
 35 71  1  0  0  0  0
 35 76  1  0  0  0  0
 35 82  2  0  0  0  0
 36 39  1  0  0  0  0
 37 46  1  0  0  0  0
 38 70  1  0  0  0  0
 39 41  1  0  0  0  0
 40 42  1  0  0  0  0
 40 43  1  0  0  0  0
 41 45  1  0  0  0  0
 42 47  1  0  0  0  0
 43 71  1  0  0  0  0
 44 47  1  0  0  0  0
 44 71  1  0  0  0  0
 45 74  1  0  0  0  0
 46 70  1  0  0  0  0
 47 69  1  0  0  0  0
 48 59  1  0  0  0  0
 49 60  1  0  0  0  0
 50 64  1  0  0  0  0
 51 65  1  0  0  0  0
 52 65  1  0  0  0  0
 53 65  1  0  0  0  0
 54 77  1  0  0  0  0
 55 57  1  0  0  0  0
 56 58  1  0  0  0  0
 57 61  1  0  0  0  0
 58 62  1  0  0  0  0
 59 68  1  0  0  0  0
 60 76  1  0  0  0  0
 61 76  1  0  0  0  0
 62 84  1  0  0  0  0
 63 65  1  0  0  0  0
 63 75  1  0  0  0  0
 64 77  1  0  0  0  0
 66 69  1  0  0  0  0
 67 68  1  0  0  0  0
M  CHG  1  77   1
M  ISO  4  35 100  62 101  76 100  84 101
M  END
> <Batch ID>
0046

> <Smiles>
CCn1nc(CCC[100N:0](CC)[100C:0](=O)N2CCCC(n3nc(-c4ccc(Oc5ccc(F)cc5F)cc4)c(C(N)=O)c3N)C2)cc1CC[101CH2:1][101O:1]c1ccc2c(c1)CN(C(=O)C(NC(=O)C(C)NC)C(C)(C)C)C(C(=O)NC1CCCc3ccccc31)C2

> <Shape>
0.226

> <Color>
0.051

> <Negative vol penalty>
0.000

$$$$

  -OEChem-04052317213D

 84 92  0     1  0  0  0  0  0999 V2000
  -29.4673  -35.6950   19.1361 C   0  0  0  0  0  0  0  0  0  0  0  0
  -29.6556  -34.4574   18.5293 C   0  0  0  0  0  0  0  0  0  0  0  0
  -24.4349   -8.8705   21.7072 C   0  0  0  0  0  0  0  0  0  0  0  0
  -23.3342  -10.1269   19.9616 C   0  0  0  0  0  0  0  0  0  0  0  0
  -28.9314  -35.7656   20.4213 C   0  0  0  0  0  0  0  0  0  0  0  0
  -29.3090  -33.2895   19.2079 C   0  0  0  0  0  0  0  0  0  0  0  0
  -26.7981  -26.6846   18.0302 C   0  0  0  0  0  0  0  0  0  0  0  0
  -23.2237   -8.2593   22.0310 C   0  0  0  0  0  0  0  0  0  0  0  0
  -22.1229   -9.5156   20.2854 C   0  0  0  0  0  0  0  0  0  0  0  0
  -27.0968  -25.3524   18.3130 C   0  0  0  0  0  0  0  0  0  0  0  0
  -21.2958   -5.7567   20.8255 C   0  0  0  0  0  0  0  0  0  0  0  0
  -21.3014   -4.3779   21.0362 C   0  0  0  0  0  0  0  0  0  0  0  0
  -26.1055  -25.6003   20.4982 C   0  0  0  0  0  0  0  0  0  0  0  0
  -20.4985   -4.7189   23.2892 C   0  0  0  0  0  0  0  0  0  0  0  0
  -29.5360  -19.6294   23.7441 C   0  0  0  0  0  0  0  0  0  0  0  0
  -24.4901   -9.8044   20.6725 C   0  0  0  0  0  0  0  0  0  0  0  0
  -26.6992   -9.9870   19.4097 C   0  0  0  0  0  0  0  0  0  0  0  0
  -28.5691  -34.5986   21.1122 C   0  0  0  0  0  0  0  0  0  0  0  0
  -26.1595  -27.4890   18.9850 C   0  0  0  0  0  0  0  0  0  0  0  0
  -28.7690  -33.3445   20.5040 C   0  0  0  0  0  0  0  0  0  0  0  0
  -25.7975  -26.9416   20.2241 C   0  0  0  0  0  0  0  0  0  0  0  0
  -28.6485  -19.3393   22.7368 C   0  0  0  0  0  0  0  0  0  0  0  0
  -22.0677   -8.5818   21.3201 C   0  0  0  0  0  0  0  0  0  0  0  0
  -26.7531  -24.8109   19.5482 C   0  0  0  0  0  0  0  0  0  0  0  0
  -20.8915   -6.6167   21.8467 C   0  0  0  0  0  0  0  0  0  0  0  0
  -20.9028   -3.8590   22.2680 C   0  0  0  0  0  0  0  0  0  0  0  0
  -20.4928   -6.0977   23.0785 C   0  0  0  0  0  0  0  0  0  0  0  0
  -25.7409  -10.4366   20.3378 C   0  0  0  0  0  0  0  0  0  0  0  0
  -29.4513  -18.8420   21.6928 C   0  0  0  0  0  0  0  0  0  0  0  0
  -27.6953  -10.9312   19.4600 C   0  0  0  0  0  0  0  0  0  0  0  0
  -26.6896   -8.8202   18.5766 C   0  0  0  0  0  0  0  0  0  0  0  0
  -26.9285  -30.1411   20.5595 C   0  0  0  0  0  0  0  0  0  0  0  0
  -23.8677  -29.9369   21.6143 C   0  0  0  0  0  0  0  0  0  0  0  0
  -21.1415  -27.9799   22.2344 C   0  0  0  0  0  0  0  0  0  0  0  0
  -29.4517  -16.0172   19.5541 C   0  0  0  0  0  0  0  0  0  0  0  0
  -28.0375  -34.7227   22.5181 C   0  0  0  0  0  0  0  0  0  0  0  0
  -25.8203  -28.9166   18.6546 C   0  0  0  0  0  0  0  0  0  0  0  0
  -25.0925  -27.7573   21.2759 C   0  0  0  0  0  0  0  0  0  0  0  0
  -27.3478  -33.4576   23.0224 C   0  0  0  0  0  0  0  0  0  0  0  0
  -28.4942  -14.7225   22.6972 C   0  0  0  0  0  0  0  0  0  0  0  0
  -28.1942  -32.2276   22.7103 C   0  0  0  0  0  0  0  0  0  0  0  0
  -27.7563  -13.4487   22.2877 C   0  0  0  0  0  0  0  0  0  0  0  0
  -28.1933  -15.8892   21.7544 C   0  0  0  0  0  0  0  0  0  0  0  0
  -27.6970  -14.3080   19.9170 C   0  0  0  0  0  0  0  0  0  0  0  0
  -28.3823  -32.0566   21.1981 C   0  0  1  0  0  0  0  0  0  0  0  0
  -25.6293  -29.7873   19.8926 C   0  0  1  0  0  0  0  0  0  0  0  0
  -28.0290  -13.1048   20.8131 C   0  0  2  0  0  0  0  0  0  0  0  0
  -30.9834  -18.4050   17.9036 C   0  0  0  0  0  0  0  0  0  0  0  0
  -18.8004  -28.0902   23.1315 C   0  0  0  0  0  0  0  0  0  0  0  0
  -24.9672  -30.1125   24.4551 C   0  0  0  0  0  0  0  0  0  0  0  0
  -22.7590  -29.2758   25.2869 C   0  0  0  0  0  0  0  0  0  0  0  0
  -22.8870  -31.4426   24.0575 C   0  0  0  0  0  0  0  0  0  0  0  0
  -32.0246  -19.4301   23.9600 C   0  0  0  0  0  0  0  0  0  0  0  0
  -19.9907  -27.0592   19.6679 C   0  0  0  0  0  0  0  0  0  0  0  0
  -27.1514  -19.5186   22.7575 C   0  0  0  0  0  0  0  0  0  0  0  0
  -29.0179  -18.3753   20.3641 C   0  0  0  0  0  0  0  0  0  0  0  0
  -26.6995  -20.9730   22.5850 C   0  0  0  0  0  0  0  0  0  0  0  0
  -27.0934  -21.5657   21.2314 C   0  0  0  0  0  0  0  0  0  0  0  0
  -31.1504  -17.7821   19.2748 C   0  0  0  0  0  0  0  0  0  0  0  0
  -26.6634  -23.0215   21.1122 C   0  0  0  0  0  0  0  0  0  1  0  0
  -23.1828  -29.2771   22.7867 C   0  0  1  0  0  0  0  0  0  0  0  0
  -19.6741  -28.1580   21.8886 C   0  0  2  0  0  0  0  0  0  0  0  0
  -23.4640  -30.0119   24.1277 C   0  0  0  0  0  0  0  0  0  0  0  0
  -26.0964  -11.5776   20.9342 N   0  0  0  0  0  0  0  0  0  0  0  0
  -30.7490  -18.8164   22.0076 N   0  0  0  0  0  0  0  0  0  0  0  0
  -30.7685  -19.3014   23.2608 N   0  0  0  0  0  0  0  0  0  0  0  0
  -27.2892  -11.8529   20.3796 N   0  0  0  0  0  0  0  0  0  0  0  0
  -24.7881  -29.1498   20.9076 N   0  0  0  0  0  0  0  0  0  0  0  0
  -28.4210  -15.5038   20.3550 N   0  0  0  0  0  0  0  0  0  0  0  0
  -28.8704  -11.0547   18.8069 N   0  0  0  0  0  0  0  0  0  0  0  0
  -25.5887   -7.9559   18.6498 N   0  0  0  0  0  0  0  0  0  0  0  0
  -27.1888  -31.4975   20.6003 N   0  0  0  0  0  0  0  0  0  0  0  0
  -21.7688  -29.1909   22.4376 N   0  0  0  0  0  0  0  0  0  0  0  0
  -29.8782  -17.3274   19.8182 N   0  0  0  0  0  0  0  0  0  0  0  0
  -19.2316  -27.0932   20.9444 N   0  3  0  0  0  0  0  0  0  0  0  0
  -27.6371   -8.5433   17.8025 O   0  0  0  0  0  0  0  0  0  0  0  0
  -27.6412  -29.2494   21.0052 O   0  0  0  0  0  0  0  0  0  0  0  0
  -23.5910  -31.1052   21.3315 O   0  0  0  0  0  0  0  0  0  0  0  0
  -21.6767  -26.8768   22.3197 O   0  0  0  0  0  0  0  0  0  0  0  0
  -29.9588  -15.3455   18.6465 O   0  0  0  0  0  0  0  0  0  0  0  0
  -20.8857   -7.9853   21.6357 O   0  0  0  0  0  0  0  0  0  0  0  0
  -27.0441  -23.5111   19.8270 O   0  0  0  0  0  0  0  0  0  1  0  0
  -20.9068   -2.5348   22.4697 F   0  0  0  0  0  0  0  0  0  0  0  0
  -20.1023   -6.9188   24.0629 F   0  0  0  0  0  0  0  0  0  0  0  0
  1  2  1  0  0  0  0
  1  5  2  0  0  0  0
  2  6  2  0  0  0  0
  3  8  2  0  0  0  0
  3 16  1  0  0  0  0
  4  9  1  0  0  0  0
  4 16  2  0  0  0  0
  5 18  1  0  0  0  0
  6 20  1  0  0  0  0
  7 10  2  0  0  0  0
  7 19  1  0  0  0  0
  8 23  1  0  0  0  0
  9 23  2  0  0  0  0
 10 24  1  0  0  0  0
 11 12  2  0  0  0  0
 11 25  1  0  0  0  0
 12 26  1  0  0  0  0
 13 21  1  0  0  0  0
 13 24  2  0  0  0  0
 14 26  2  0  0  0  0
 14 27  1  0  0  0  0
 15 22  2  0  0  0  0
 15 66  1  0  0  0  0
 16 28  1  0  0  0  0
 17 28  1  0  0  0  0
 17 30  2  0  0  0  0
 17 31  1  0  0  0  0
 18 20  2  0  0  0  0
 18 36  1  0  0  0  0
 19 21  2  0  0  0  0
 19 37  1  0  0  0  0
 20 45  1  0  0  0  0
 21 38  1  0  0  0  0
 22 29  1  0  0  0  0
 22 55  1  0  0  0  0
 23 81  1  0  0  0  0
 24 82  1  0  0  0  0
 25 27  2  0  0  0  0
 25 81  1  0  0  0  0
 26 83  1  0  0  0  0
 27 84  1  0  0  0  0
 28 64  2  0  0  0  0
 29 56  1  0  0  0  0
 29 65  2  0  0  0  0
 30 67  1  0  0  0  0
 30 70  1  0  0  0  0
 31 71  1  0  0  0  0
 31 76  2  0  0  0  0
 32 46  1  0  0  0  0
 32 72  1  0  0  0  0
 32 77  2  0  0  0  0
 33 61  1  0  0  0  0
 33 68  1  0  0  0  0
 33 78  2  0  0  0  0
 34 62  1  0  0  0  0
 34 73  1  0  0  0  0
 34 79  2  0  0  0  0
 35 69  1  0  0  0  0
 35 74  1  0  0  0  0
 35 80  2  0  0  0  0
 36 39  1  0  0  0  0
 37 46  1  0  0  0  0
 38 68  1  0  0  0  0
 39 41  1  0  0  0  0
 40 42  1  0  0  0  0
 40 43  1  0  0  0  0
 41 45  1  0  0  0  0
 42 47  1  0  0  0  0
 43 69  1  0  0  0  0
 44 47  1  0  0  0  0
 44 69  1  0  0  0  0
 45 72  1  0  0  0  0
 46 68  1  0  0  0  0
 47 67  1  0  0  0  0
 48 59  1  0  0  0  0
 49 62  1  0  0  0  0
 50 63  1  0  0  0  0
 51 63  1  0  0  0  0
 52 63  1  0  0  0  0
 53 66  1  0  0  0  0
 54 75  1  0  0  0  0
 55 57  1  0  0  0  0
 56 74  1  0  0  0  0
 57 58  1  0  0  0  0
 58 60  1  0  0  0  0
 59 74  1  0  0  0  0
 60 82  1  0  0  0  0
 61 63  1  0  0  0  0
 61 73  1  0  0  0  0
 62 75  1  0  0  0  0
 64 67  1  0  0  0  0
 65 66  1  0  0  0  0
M  CHG  1  75   1
M  ISO  4  35 100  60 101  74 100  82 101
M  END
> <Batch ID>
0046

> <Smiles>
CC[100N:0](Cc1nn(C)cc1CCC[101CH2:1][101O:1]c1ccc2c(c1)CN(C(=O)C(NC(=O)C(C)NC)C(C)(C)C)C(C(=O)NC1CCCc3ccccc31)C2)[100C:0](=O)N1CCCC(n2nc(-c3ccc(Oc4ccc(F)cc4F)cc3)c(C(N)=O)c2N)C1

> <Shape>
0.257

> <Color>
0.073

> <Negative vol penalty>
0.000

$$$$

  -OEChem-04052317213D

 85 93  0     1  0  0  0  0  0999 V2000
  -35.2614  -12.5397   19.1535 C   0  0  0  0  0  0  0  0  0  0  0  0
  -34.5458  -13.7209   18.9859 C   0  0  0  0  0  0  0  0  0  0  0  0
  -23.7410  -31.2291   25.3414 C   0  0  0  0  0  0  0  0  0  0  0  0
  -25.7935  -29.9782   25.0976 C   0  0  0  0  0  0  0  0  0  0  0  0
  -34.6218  -11.3105   18.9986 C   0  0  0  0  0  0  0  0  0  0  0  0
  -33.1903  -13.6736   18.6621 C   0  0  0  0  0  0  0  0  0  0  0  0
  -30.4260  -16.9205   21.3935 C   0  0  0  0  0  0  0  0  0  0  0  0
  -24.1843  -31.7170   26.5707 C   0  0  0  0  0  0  0  0  0  0  0  0
  -26.2369  -30.4662   26.3268 C   0  0  0  0  0  0  0  0  0  0  0  0
  -30.4620  -18.2621   21.0157 C   0  0  0  0  0  0  0  0  0  0  0  0
  -27.5932  -33.3179   27.5303 C   0  0  0  0  0  0  0  0  0  0  0  0
  -28.9088  -33.7748   27.6081 C   0  0  0  0  0  0  0  0  0  0  0  0
  -28.3501  -17.9930   19.8813 C   0  0  0  0  0  0  0  0  0  0  0  0
  -28.0683  -22.9266   19.5032 C   0  0  0  0  0  0  0  0  0  0  0  0
  -29.2950  -23.7651   21.3943 C   0  0  0  0  0  0  0  0  0  0  0  0
  -29.3812  -32.1249   29.3087 C   0  0  0  0  0  0  0  0  0  0  0  0
  -24.5456  -30.3597   24.6049 C   0  0  0  0  0  0  0  0  0  0  0  0
  -24.2900  -30.4332   22.0678 C   0  0  0  0  0  0  0  0  0  0  0  0
  -33.2556  -11.2481   18.6822 C   0  0  0  0  0  0  0  0  0  0  0  0
  -29.3553  -16.1010   21.0082 C   0  0  0  0  0  0  0  0  0  0  0  0
  -32.5322  -12.4424   18.5015 C   0  0  0  0  0  0  0  0  0  0  0  0
  -28.3017  -16.6421   20.2577 C   0  0  0  0  0  0  0  0  0  0  0  0
  -29.2526  -23.0114   20.2267 C   0  0  0  0  0  0  0  0  0  0  0  0
  -25.4323  -31.3356   27.0634 C   0  0  0  0  0  0  0  0  0  0  0  0
  -29.4254  -18.7978   20.2571 C   0  0  0  0  0  0  0  0  0  0  0  0
  -27.1715  -32.2646   28.3417 C   0  0  0  0  0  0  0  0  0  0  0  0
  -29.8028  -33.1783   28.4973 C   0  0  0  0  0  0  0  0  0  0  0  0
  -28.0655  -31.6680   29.2308 C   0  0  0  0  0  0  0  0  0  0  0  0
  -24.0879  -29.8549   23.3353 C   0  0  0  0  0  0  0  0  0  0  0  0
  -26.9631  -23.6088   19.9859 C   0  0  0  0  0  0  0  0  0  0  0  0
  -28.1350  -24.4099   21.7923 C   0  0  0  0  0  0  0  0  0  0  0  0
  -23.6649  -29.5758   21.1957 C   0  0  0  0  0  0  0  0  0  0  0  0
  -24.9811  -31.6376   21.7107 C   0  0  0  0  0  0  0  0  0  0  0  0
  -29.0623  -13.4792   19.2352 C   0  0  0  0  0  0  0  0  0  0  0  0
  -25.9891  -13.5957   20.2667 C   0  0  0  0  0  0  0  0  0  0  0  0
  -23.4084  -15.4725   21.4766 C   0  0  0  0  0  0  0  0  0  0  0  0
  -22.3225  -23.7470   21.4666 C   0  0  0  0  0  0  0  0  0  0  0  0
  -32.6187   -9.8963   18.4783 C   0  0  0  0  0  0  0  0  0  0  0  0
  -29.3182  -14.6626   21.4465 C   0  0  0  0  0  0  0  0  0  0  0  0
  -27.1195  -15.8097   19.8356 C   0  0  0  0  0  0  0  0  0  0  0  0
  -31.0928   -9.9318   18.5033 C   0  0  0  0  0  0  0  0  0  0  0  0
  -20.0544  -26.4451   20.9643 C   0  0  0  0  0  0  0  0  0  0  0  0
  -30.5714  -11.0777   17.6420 C   0  0  0  0  0  0  0  0  0  0  0  0
  -20.8491  -27.6771   21.4007 C   0  0  0  0  0  0  0  0  0  0  0  0
  -20.3732  -25.2308   21.8338 C   0  0  0  0  0  0  0  0  0  0  0  0
  -22.6020  -26.1339   22.3726 C   0  0  0  0  0  0  0  0  0  0  0  0
  -31.0547  -12.4322   18.1744 C   0  0  1  0  0  0  0  0  0  0  0  0
  -28.4312  -13.7913   20.5625 C   0  0  1  0  0  0  0  0  0  0  0  0
  -22.3560  -27.3696   21.4900 C   0  0  2  0  0  0  0  0  0  0  0  0
  -27.1767  -24.6863   24.1072 C   0  0  0  0  0  0  0  0  0  0  0  0
  -27.8458  -26.7155   22.7694 C   0  0  0  0  0  0  0  0  0  0  0  0
  -21.0085  -15.2957   22.1883 C   0  0  0  0  0  0  0  0  0  0  0  0
  -25.1336  -13.4639   17.3408 C   0  0  0  0  0  0  0  0  0  0  0  0
  -22.8585  -14.2373   18.0436 C   0  0  0  0  0  0  0  0  0  0  0  0
  -23.7554  -12.0707   18.8945 C   0  0  0  0  0  0  0  0  0  0  0  0
  -24.0401  -16.3486   24.2320 C   0  0  0  0  0  0  0  0  0  0  0  0
  -30.4870  -22.2873   19.7470 C   0  0  0  0  0  0  0  0  0  0  0  0
  -25.6747  -23.5392   19.2364 C   0  0  0  0  0  0  0  0  0  0  0  0
  -24.7530  -22.3788   19.6598 C   0  0  0  0  0  0  0  0  0  0  0  0
  -24.3718  -22.3862   21.1387 C   0  0  0  0  0  0  0  0  0  0  0  0
  -30.5852  -20.8734   20.3094 C   0  0  0  0  0  0  0  0  0  1  0  0
  -28.1449  -25.2291   23.0396 C   0  0  0  0  0  0  0  0  0  0  0  0
  -24.7178  -14.2392   19.7682 C   0  0  1  0  0  0  0  0  0  0  0  0
  -22.4597  -15.2494   22.6405 C   0  0  2  0  0  0  0  0  0  0  0  0
  -24.1394  -13.5182   18.5179 C   0  0  0  0  0  0  0  0  0  0  0  0
  -23.3889  -28.7182   23.2780 N   0  0  0  0  0  0  0  0  0  0  0  0
  -26.9660  -24.3509   21.1159 N   0  0  0  0  0  0  0  0  0  0  0  0
  -23.1463  -28.5753   21.9639 N   0  0  0  0  0  0  0  0  0  0  0  0
  -27.1323  -14.4072   20.2834 N   0  0  0  0  0  0  0  0  0  0  0  0
  -21.8180  -24.9925   21.8754 N   0  0  0  0  0  0  0  0  0  0  0  0
  -23.5136  -29.5877   19.8542 N   0  0  0  0  0  0  0  0  0  0  0  0
  -25.5660  -32.3999   22.7310 N   0  0  0  0  0  0  0  0  0  0  0  0
  -30.2774  -12.8278   19.3292 N   0  0  0  0  0  0  0  0  0  0  0  0
  -23.8078  -14.2817   20.9077 N   0  0  0  0  0  0  0  0  0  0  0  0
  -23.7034  -23.6067   21.5313 N   0  0  0  0  0  0  0  0  0  0  0  0
  -22.6613  -16.2968   23.6813 N   0  3  0  0  0  0  0  0  0  0  0  0
  -25.0629  -32.0348   20.5237 O   0  0  0  0  0  0  0  0  0  0  0  0
  -28.4887  -13.8038   18.2021 O   0  0  0  0  0  0  0  0  0  0  0  0
  -25.9671  -12.4185   20.6347 O   0  0  0  0  0  0  0  0  0  0  0  0
  -23.7570  -16.5915   21.1066 O   0  0  0  0  0  0  0  0  0  0  0  0
  -21.5966  -22.8298   21.0681 O   0  0  0  0  0  0  0  0  0  0  0  0
  -25.8653  -31.8116   28.2627 O   0  0  0  0  0  0  0  0  0  0  0  0
  -29.4584  -20.1068   19.8864 O   0  0  0  0  0  0  0  0  0  1  0  0
  -31.0665  -33.6161   28.5708 F   0  0  0  0  0  0  0  0  0  0  0  0
  -27.6665  -30.6549   30.0120 F   0  0  0  0  0  0  0  0  0  0  0  0
  1  2  1  0  0  0  0
  1  5  2  0  0  0  0
  2  6  2  0  0  0  0
  3  8  2  0  0  0  0
  3 17  1  0  0  0  0
  4  9  1  0  0  0  0
  4 17  2  0  0  0  0
  5 19  1  0  0  0  0
  6 21  1  0  0  0  0
  7 10  2  0  0  0  0
  7 20  1  0  0  0  0
  8 24  1  0  0  0  0
  9 24  2  0  0  0  0
 10 25  1  0  0  0  0
 11 12  2  0  0  0  0
 11 26  1  0  0  0  0
 12 27  1  0  0  0  0
 13 22  1  0  0  0  0
 13 25  2  0  0  0  0
 14 23  1  0  0  0  0
 14 30  2  0  0  0  0
 15 23  2  0  0  0  0
 15 31  1  0  0  0  0
 16 27  2  0  0  0  0
 16 28  1  0  0  0  0
 17 29  1  0  0  0  0
 18 29  1  0  0  0  0
 18 32  2  0  0  0  0
 18 33  1  0  0  0  0
 19 21  2  0  0  0  0
 19 38  1  0  0  0  0
 20 22  2  0  0  0  0
 20 39  1  0  0  0  0
 21 47  1  0  0  0  0
 22 40  1  0  0  0  0
 23 57  1  0  0  0  0
 24 82  1  0  0  0  0
 25 83  1  0  0  0  0
 26 28  2  0  0  0  0
 26 82  1  0  0  0  0
 27 84  1  0  0  0  0
 28 85  1  0  0  0  0
 29 66  2  0  0  0  0
 30 58  1  0  0  0  0
 30 67  1  0  0  0  0
 31 62  1  0  0  0  0
 31 67  2  0  0  0  0
 32 68  1  0  0  0  0
 32 71  1  0  0  0  0
 33 72  1  0  0  0  0
 33 77  2  0  0  0  0
 34 48  1  0  0  0  0
 34 73  1  0  0  0  0
 34 78  2  0  0  0  0
 35 63  1  0  0  0  0
 35 69  1  0  0  0  0
 35 79  2  0  0  0  0
 36 64  1  0  0  0  0
 36 74  1  0  0  0  0
 36 80  2  0  0  0  0
 37 70  1  0  0  0  0
 37 75  1  0  0  0  0
 37 81  2  0  0  0  0
 38 41  1  0  0  0  0
 39 48  1  0  0  0  0
 40 69  1  0  0  0  0
 41 43  1  0  0  0  0
 42 44  1  0  0  0  0
 42 45  1  0  0  0  0
 43 47  1  0  0  0  0
 44 49  1  0  0  0  0
 45 70  1  0  0  0  0
 46 49  1  0  0  0  0
 46 70  1  0  0  0  0
 47 73  1  0  0  0  0
 48 69  1  0  0  0  0
 49 68  1  0  0  0  0
 50 62  1  0  0  0  0
 51 62  1  0  0  0  0
 52 64  1  0  0  0  0
 53 65  1  0  0  0  0
 54 65  1  0  0  0  0
 55 65  1  0  0  0  0
 56 76  1  0  0  0  0
 57 61  1  0  0  0  0
 58 59  1  0  0  0  0
 59 60  1  0  0  0  0
 60 75  1  0  0  0  0
 61 83  1  0  0  0  0
 63 65  1  0  0  0  0
 63 74  1  0  0  0  0
 64 76  1  0  0  0  0
 66 68  1  0  0  0  0
M  CHG  1  76   1
M  ISO  4  37 100  61 101  75 100  83 101
M  END
> <Batch ID>
0046

> <Smiles>
CNC(C)C(=O)NC(C(=O)N1Cc2cc([101O:1][101CH2:1]Cc3cc(CCC[100NH:0][100C:0](=O)N4CCCC(n5nc(-c6ccc(Oc7ccc(F)cc7F)cc6)c(C(N)=O)c5N)C4)nc(C(C)C)c3)ccc2CC1C(=O)NC1CCCc2ccccc21)C(C)(C)C

> <Shape>
0.232

> <Color>
0.047

> <Negative vol penalty>
0.000

$$$$

  -OEChem-04052317213D

 85 93  0     1  0  0  0  0  0999 V2000
  -26.7789  -20.2047   32.3551 C   0  0  0  0  0  0  0  0  0  0  0  0
  -27.2171  -18.9390   31.9790 C   0  0  0  0  0  0  0  0  0  0  0  0
  -23.1901   -9.8192   19.9311 C   0  0  0  0  0  0  0  0  0  0  0  0
  -23.5666   -9.9997   22.3107 C   0  0  0  0  0  0  0  0  0  0  0  0
  -25.4710  -20.3836   32.8036 C   0  0  0  0  0  0  0  0  0  0  0  0
  -26.3478  -17.8512   32.0522 C   0  0  0  0  0  0  0  0  0  0  0  0
  -26.5563  -14.9169   27.9301 C   0  0  0  0  0  0  0  0  0  0  0  0
  -22.4235   -8.6727   20.1394 C   0  0  0  0  0  0  0  0  0  0  0  0
  -22.8000   -8.8532   22.5190 C   0  0  0  0  0  0  0  0  0  0  0  0
  -27.6345  -14.0391   27.8273 C   0  0  0  0  0  0  0  0  0  0  0  0
  -21.2414   -5.7696   23.6470 C   0  0  0  0  0  0  0  0  0  0  0  0
  -21.7370   -4.8098   24.5294 C   0  0  0  0  0  0  0  0  0  0  0  0
  -26.2289  -12.2328   28.5894 C   0  0  0  0  0  0  0  0  0  0  0  0
  -30.8865  -10.6899   26.3217 C   0  0  0  0  0  0  0  0  0  0  0  0
  -29.5347   -8.7626   25.8290 C   0  0  0  0  0  0  0  0  0  0  0  0
  -23.6967   -4.5455   23.1412 C   0  0  0  0  0  0  0  0  0  0  0  0
  -23.7617  -10.4828   21.0168 C   0  0  0  0  0  0  0  0  0  0  0  0
  -24.1008  -12.9993   20.7731 C   0  0  0  0  0  0  0  0  0  0  0  0
  -24.5823  -19.2991   32.8732 C   0  0  0  0  0  0  0  0  0  0  0  0
  -25.3069  -14.4607   28.3745 C   0  0  0  0  0  0  0  0  0  0  0  0
  -25.0271  -18.0155   32.5033 C   0  0  0  0  0  0  0  0  0  0  0  0
  -25.1357  -13.1063   28.6945 C   0  0  0  0  0  0  0  0  0  0  0  0
  -30.0003   -9.7038   26.7405 C   0  0  0  0  0  0  0  0  0  0  0  0
  -22.2285   -8.1897   21.4333 C   0  0  0  0  0  0  0  0  0  0  0  0
  -27.4717  -12.6975   28.1597 C   0  0  0  0  0  0  0  0  0  0  0  0
  -21.9734   -6.1174   22.5116 C   0  0  0  0  0  0  0  0  0  0  0  0
  -22.9647   -4.1978   24.2765 C   0  0  0  0  0  0  0  0  0  0  0  0
  -23.2010   -5.5053   22.2587 C   0  0  0  0  0  0  0  0  0  0  0  0
  -24.5541  -11.6669   20.8023 C   0  0  0  0  0  0  0  0  0  0  0  0
  -31.2736  -10.6914   24.9912 C   0  0  0  0  0  0  0  0  0  0  0  0
  -29.9821   -8.8505   24.5206 C   0  0  0  0  0  0  0  0  0  0  0  0
  -25.2323  -13.7418   20.5386 C   0  0  0  0  0  0  0  0  0  0  0  0
  -22.7756  -13.5194   20.9429 C   0  0  0  0  0  0  0  0  0  0  0  0
  -23.4300  -15.1207   30.8535 C   0  0  0  0  0  0  0  0  0  0  0  0
  -21.3617  -13.1525   29.3136 C   0  0  0  0  0  0  0  0  0  0  0  0
  -20.8975  -10.6003   27.0960 C   0  0  0  0  0  0  0  0  0  0  0  0
  -31.0462  -12.7513   21.5721 C   0  0  0  0  0  0  0  0  0  0  0  0
  -23.1921  -19.5331   33.4092 C   0  0  0  0  0  0  0  0  0  0  0  0
  -24.1469  -15.4149   28.4544 C   0  0  0  0  0  0  0  0  0  0  0  0
  -23.8097  -12.5623   29.1573 C   0  0  0  0  0  0  0  0  0  0  0  0
  -22.2214  -18.3957   33.1018 C   0  0  0  0  0  0  0  0  0  0  0  0
  -29.5212  -13.4687   18.4358 C   0  0  0  0  0  0  0  0  0  0  0  0
  -22.8634  -17.0473   33.4126 C   0  0  0  0  0  0  0  0  0  0  0  0
  -28.0344  -13.2084   18.6840 C   0  0  0  0  0  0  0  0  0  0  0  0
  -30.4018  -12.4792   19.1957 C   0  0  0  0  0  0  0  0  0  0  0  0
  -28.6470  -12.1368   20.8920 C   0  0  0  0  0  0  0  0  0  0  0  0
  -24.1064  -16.8152   32.5452 C   0  0  1  0  0  0  0  0  0  0  0  0
  -23.0531  -14.9469   29.4094 C   0  0  1  0  0  0  0  0  0  0  0  0
  -27.7202  -13.1446   20.1908 C   0  0  2  0  0  0  0  0  0  0  0  0
  -19.6542   -8.9757   25.6427 C   0  0  0  0  0  0  0  0  0  0  0  0
  -27.9496   -7.9112   23.3664 C   0  0  0  0  0  0  0  0  0  0  0  0
  -29.8853   -6.4037   23.9288 C   0  0  0  0  0  0  0  0  0  0  0  0
  -30.0658   -8.0425   22.0679 C   0  0  0  0  0  0  0  0  0  0  0  0
  -21.1439  -11.5585   31.9061 C   0  0  0  0  0  0  0  0  0  0  0  0
  -20.1332   -9.6853   30.5878 C   0  0  0  0  0  0  0  0  0  0  0  0
  -18.9776  -11.8931   30.7021 C   0  0  0  0  0  0  0  0  0  0  0  0
  -20.8231  -12.5044   24.8316 C   0  0  0  0  0  0  0  0  0  0  0  0
  -29.5463   -9.6545   28.1792 C   0  0  0  0  0  0  0  0  0  0  0  0
  -32.2248  -11.7339   24.5066 C   0  0  0  0  0  0  0  0  0  0  0  0
  -31.5346  -13.0026   23.9923 C   0  0  0  0  0  0  0  0  0  0  0  0
  -28.2850  -10.4776   28.4176 C   0  0  0  0  0  0  0  0  0  1  0  0
  -21.0874  -11.6681   29.3272 C   0  0  1  0  0  0  0  0  0  0  0  0
  -19.9399  -10.4417   25.9288 C   0  0  2  0  0  0  0  0  0  0  0  0
  -29.5015   -7.8580   23.5153 C   0  0  0  0  0  0  0  0  0  0  0  0
  -20.3612  -11.2116   30.6240 C   0  0  0  0  0  0  0  0  0  0  0  0
  -25.8708  -11.5656   20.6021 N   0  0  0  0  0  0  0  0  0  0  0  0
  -30.8427   -9.7939   24.0767 N   0  0  0  0  0  0  0  0  0  0  0  0
  -26.2546  -12.8439   20.4448 N   0  0  0  0  0  0  0  0  0  0  0  0
  -22.7075  -13.5360   29.2251 N   0  0  0  0  0  0  0  0  0  0  0  0
  -30.0543  -12.4682   20.6188 N   0  0  0  0  0  0  0  0  0  0  0  0
  -25.4425  -15.0687   20.4054 N   0  0  0  0  0  0  0  0  0  0  0  0
  -21.7286  -12.6173   21.1763 N   0  0  0  0  0  0  0  0  0  0  0  0
  -23.7223  -16.4245   31.2057 N   0  0  0  0  0  0  0  0  0  0  0  0
  -20.3563  -11.3768   28.0988 N   0  0  0  0  0  0  0  0  0  0  0  0
  -30.6310  -12.7261   22.8979 N   0  0  0  0  0  0  0  0  0  0  0  0
  -20.5153  -11.0571   24.6995 N   0  3  0  0  0  0  0  0  0  0  0  0
  -22.5245  -14.7464   20.8730 O   0  0  0  0  0  0  0  0  0  0  0  0
  -23.4524  -14.1444   31.5937 O   0  0  0  0  0  0  0  0  0  0  0  0
  -20.4164  -13.9428   29.3718 O   0  0  0  0  0  0  0  0  0  0  0  0
  -22.0125  -10.0838   27.1178 O   0  0  0  0  0  0  0  0  0  0  0  0
  -32.2140  -13.0128   21.2643 O   0  0  0  0  0  0  0  0  0  0  0  0
  -21.4803   -7.0710   21.6369 O   0  0  0  0  0  0  0  0  0  0  0  0
  -28.5227  -11.8386   28.0608 O   0  0  0  0  0  0  0  0  0  1  0  0
  -23.4412   -3.2772   25.1248 F   0  0  0  0  0  0  0  0  0  0  0  0
  -23.9093   -5.8361   21.1703 F   0  0  0  0  0  0  0  0  0  0  0  0
  1  2  1  0  0  0  0
  1  5  2  0  0  0  0
  2  6  2  0  0  0  0
  3  8  2  0  0  0  0
  3 17  1  0  0  0  0
  4  9  1  0  0  0  0
  4 17  2  0  0  0  0
  5 19  1  0  0  0  0
  6 21  1  0  0  0  0
  7 10  2  0  0  0  0
  7 20  1  0  0  0  0
  8 24  1  0  0  0  0
  9 24  2  0  0  0  0
 10 25  1  0  0  0  0
 11 12  2  0  0  0  0
 11 26  1  0  0  0  0
 12 27  1  0  0  0  0
 13 22  1  0  0  0  0
 13 25  2  0  0  0  0
 14 23  1  0  0  0  0
 14 30  2  0  0  0  0
 15 23  2  0  0  0  0
 15 31  1  0  0  0  0
 16 27  2  0  0  0  0
 16 28  1  0  0  0  0
 17 29  1  0  0  0  0
 18 29  1  0  0  0  0
 18 32  2  0  0  0  0
 18 33  1  0  0  0  0
 19 21  2  0  0  0  0
 19 38  1  0  0  0  0
 20 22  2  0  0  0  0
 20 39  1  0  0  0  0
 21 47  1  0  0  0  0
 22 40  1  0  0  0  0
 23 58  1  0  0  0  0
 24 82  1  0  0  0  0
 25 83  1  0  0  0  0
 26 28  2  0  0  0  0
 26 82  1  0  0  0  0
 27 84  1  0  0  0  0
 28 85  1  0  0  0  0
 29 66  2  0  0  0  0
 30 59  1  0  0  0  0
 30 67  1  0  0  0  0
 31 64  1  0  0  0  0
 31 67  2  0  0  0  0
 32 68  1  0  0  0  0
 32 71  1  0  0  0  0
 33 72  1  0  0  0  0
 33 77  2  0  0  0  0
 34 48  1  0  0  0  0
 34 73  1  0  0  0  0
 34 78  2  0  0  0  0
 35 62  1  0  0  0  0
 35 69  1  0  0  0  0
 35 79  2  0  0  0  0
 36 63  1  0  0  0  0
 36 74  1  0  0  0  0
 36 80  2  0  0  0  0
 37 70  1  0  0  0  0
 37 75  1  0  0  0  0
 37 81  2  0  0  0  0
 38 41  1  0  0  0  0
 39 48  1  0  0  0  0
 40 69  1  0  0  0  0
 41 43  1  0  0  0  0
 42 44  1  0  0  0  0
 42 45  1  0  0  0  0
 43 47  1  0  0  0  0
 44 49  1  0  0  0  0
 45 70  1  0  0  0  0
 46 49  1  0  0  0  0
 46 70  1  0  0  0  0
 47 73  1  0  0  0  0
 48 69  1  0  0  0  0
 49 68  1  0  0  0  0
 50 63  1  0  0  0  0
 51 64  1  0  0  0  0
 52 64  1  0  0  0  0
 53 64  1  0  0  0  0
 54 65  1  0  0  0  0
 55 65  1  0  0  0  0
 56 65  1  0  0  0  0
 57 76  1  0  0  0  0
 58 61  1  0  0  0  0
 59 60  1  0  0  0  0
 60 75  1  0  0  0  0
 61 83  1  0  0  0  0
 62 65  1  0  0  0  0
 62 74  1  0  0  0  0
 63 76  1  0  0  0  0
 66 68  1  0  0  0  0
M  CHG  1  76   1
M  ISO  4  37 100  61 101  75 100  83 101
M  END
> <Batch ID>
0046

> <Smiles>
CNC(C)C(=O)NC(C(=O)N1Cc2cc([101O:1][101CH2:1]Cc3cc(CC[100NH:0][100C:0](=O)N4CCCC(n5nc(-c6ccc(Oc7ccc(F)cc7F)cc6)c(C(N)=O)c5N)C4)nc(C(C)(C)C)c3)ccc2CC1C(=O)NC1CCCc2ccccc21)C(C)(C)C

> <Shape>
0.138

> <Color>
0.182

> <Negative vol penalty>
0.000

$$$$

  -OEChem-04052317213D

 85 93  0     1  0  0  0  0  0999 V2000
  -19.5861  -14.9835   17.3911 C   0  0  0  0  0  0  0  0  0  0  0  0
  -20.4628  -16.0568   17.5124 C   0  0  0  0  0  0  0  0  0  0  0  0
  -24.3205  -30.7250   25.1827 C   0  0  0  0  0  0  0  0  0  0  0  0
  -26.6740  -30.6971   25.7279 C   0  0  0  0  0  0  0  0  0  0  0  0
  -19.7977  -13.8243   18.1365 C   0  0  0  0  0  0  0  0  0  0  0  0
  -21.5512  -15.9720   18.3799 C   0  0  0  0  0  0  0  0  0  0  0  0
  -27.0972  -18.4438   17.5811 C   0  0  0  0  0  0  0  0  0  0  0  0
  -24.0061  -30.5570   26.5312 C   0  0  0  0  0  0  0  0  0  0  0  0
  -26.3596  -30.5292   27.0764 C   0  0  0  0  0  0  0  0  0  0  0  0
  -27.6817  -19.6129   18.0662 C   0  0  0  0  0  0  0  0  0  0  0  0
  -26.1843  -29.7325   30.6182 C   0  0  0  0  0  0  0  0  0  0  0  0
  -26.9042  -28.7789   31.3379 C   0  0  0  0  0  0  0  0  0  0  0  0
  -28.7002  -18.3544   19.8545 C   0  0  0  0  0  0  0  0  0  0  0  0
  -26.1212  -27.0551   29.8370 C   0  0  0  0  0  0  0  0  0  0  0  0
  -25.6545  -30.7950   24.7810 C   0  0  0  0  0  0  0  0  0  0  0  0
  -26.1538  -32.1838   22.7003 C   0  0  0  0  0  0  0  0  0  0  0  0
  -20.8947  -13.7217   19.0064 C   0  0  0  0  0  0  0  0  0  0  0  0
  -27.3012  -17.2210   18.2366 C   0  0  0  0  0  0  0  0  0  0  0  0
  -21.7770  -14.8109   19.1386 C   0  0  0  0  0  0  0  0  0  0  0  0
  -28.1192  -17.1709   19.3743 C   0  0  0  0  0  0  0  0  0  0  0  0
  -28.2090  -25.1790   21.6120 C   0  0  0  0  0  0  0  0  0  0  0  0
  -25.0256  -30.4591   27.4781 C   0  0  0  0  0  0  0  0  0  0  0  0
  -28.4811  -19.5688   19.2047 C   0  0  0  0  0  0  0  0  0  0  0  0
  -25.4328  -29.3474   29.5080 C   0  0  0  0  0  0  0  0  0  0  0  0
  -26.8727  -27.4402   30.9473 C   0  0  0  0  0  0  0  0  0  0  0  0
  -25.4012  -28.0087   29.1174 C   0  0  0  0  0  0  0  0  0  0  0  0
  -25.9799  -30.9679   23.3880 C   0  0  0  0  0  0  0  0  0  0  0  0
  -27.5891  -25.0160   22.8341 C   0  0  0  0  0  0  0  0  0  0  0  0
  -29.0726  -26.2513   21.5189 C   0  0  0  0  0  0  0  0  0  0  0  0
  -26.4487  -31.8104   21.4118 C   0  0  0  0  0  0  0  0  0  0  0  0
  -28.6544  -26.8399   23.6743 C   0  0  0  0  0  0  0  0  0  0  0  0
  -26.0575  -33.5305   23.1829 C   0  0  0  0  0  0  0  0  0  0  0  0
  -25.4177  -15.1144   19.6919 C   0  0  0  0  0  0  0  0  0  0  0  0
  -28.1522  -13.3786   19.8703 C   0  0  0  0  0  0  0  0  0  0  0  0
  -28.8105  -26.7759   19.1341 C   0  0  0  0  0  0  0  0  0  0  0  0
  -31.5646  -13.3432   19.8998 C   0  0  0  0  0  0  0  0  0  0  0  0
  -21.0556  -12.4664   19.8267 C   0  0  0  0  0  0  0  0  0  0  0  0
  -26.6852  -15.9644   17.6852 C   0  0  0  0  0  0  0  0  0  0  0  0
  -28.3861  -15.8799   20.1028 C   0  0  0  0  0  0  0  0  0  0  0  0
  -22.4440  -12.3153   20.4430 C   0  0  0  0  0  0  0  0  0  0  0  0
  -25.6924  -28.3068   18.2542 C   0  0  0  0  0  0  0  0  0  0  0  0
  -22.8864  -13.6241   21.0896 C   0  0  0  0  0  0  0  0  0  0  0  0
  -25.4144  -29.2522   19.4222 C   0  0  0  0  0  0  0  0  0  0  0  0
  -26.3858  -27.0308   18.7215 C   0  0  0  0  0  0  0  0  0  0  0  0
  -27.3694  -28.2153   20.6583 C   0  0  0  0  0  0  0  0  0  0  0  0
  -22.9830  -14.7477   20.0506 C   0  0  1  0  0  0  0  0  0  0  0  0
  -26.5430  -14.8610   18.7290 C   0  0  1  0  0  0  0  0  0  0  0  0
  -26.6972  -29.5303   20.2255 C   0  0  2  0  0  0  0  0  0  0  0  0
  -26.6334  -23.8894   23.0528 C   0  0  0  0  0  0  0  0  0  0  0  0
  -28.9038  -27.7606   24.8204 C   0  0  0  0  0  0  0  0  0  0  0  0
  -31.7682  -24.9051   20.7667 C   0  0  0  0  0  0  0  0  0  0  0  0
  -33.5168  -11.7787   20.0962 C   0  0  0  0  0  0  0  0  0  0  0  0
  -30.6875  -27.8118   20.2319 C   0  0  0  0  0  0  0  0  0  0  0  0
  -27.6610  -13.1464   22.8728 C   0  0  0  0  0  0  0  0  0  0  0  0
  -30.0465  -12.4340   23.1374 C   0  0  0  0  0  0  0  0  0  0  0  0
  -28.4755  -11.0477   21.7836 C   0  0  0  0  0  0  0  0  0  0  0  0
  -32.5765  -14.0838   17.2190 C   0  0  0  0  0  0  0  0  0  0  0  0
  -27.9601  -24.2450   20.4548 C   0  0  0  0  0  0  0  0  0  0  0  0
  -30.6851  -25.3199   19.7760 C   0  0  0  0  0  0  0  0  0  0  0  0
  -28.6767  -22.8992   20.5843 C   0  0  0  0  0  0  0  0  0  0  0  0
  -28.3512  -21.9304   19.4533 C   0  0  0  0  0  0  0  0  0  1  0  0
  -29.2811  -13.2614   20.8658 C   0  0  1  0  0  0  0  0  0  0  0  0
  -32.5697  -12.4926   19.1443 C   0  0  2  0  0  0  0  0  0  0  0  0
  -29.8002  -26.5287   20.2447 C   0  0  1  0  0  0  0  0  0  0  0  0
  -28.8596  -12.4972   22.1525 C   0  0  0  0  0  0  0  0  0  0  0  0
  -26.1500  -29.9018   22.6016 N   0  0  0  0  0  0  0  0  0  0  0  0
  -27.7894  -25.8307   23.8907 N   0  0  0  0  0  0  0  0  0  0  0  0
  -29.3196  -27.1052   22.5338 N   0  0  0  0  0  0  0  0  0  0  0  0
  -26.4338  -30.4466   21.4063 N   0  0  0  0  0  0  0  0  0  0  0  0
  -27.7563  -14.6795   19.5285 N   0  0  0  0  0  0  0  0  0  0  0  0
  -27.5871  -27.3380   19.4997 N   0  0  0  0  0  0  0  0  0  0  0  0
  -26.7167  -32.5189   20.2944 N   0  0  0  0  0  0  0  0  0  0  0  0
  -25.7461  -33.7353   24.5340 N   0  0  0  0  0  0  0  0  0  0  0  0
  -24.1979  -14.6161   19.2753 N   0  0  0  0  0  0  0  0  0  0  0  0
  -30.3966  -12.6539   20.1483 N   0  0  0  0  0  0  0  0  0  0  0  0
  -33.3791  -13.3413   18.2247 N   0  3  0  0  0  0  0  0  0  0  0  0
  -26.2258  -34.5229   22.4344 O   0  0  0  0  0  0  0  0  0  0  0  0
  -25.6398  -15.7160   20.7361 O   0  0  0  0  0  0  0  0  0  0  0  0
  -27.6452  -12.3537   19.4075 O   0  0  0  0  0  0  0  0  0  0  0  0
  -29.1184  -26.4804   17.9765 O   0  0  0  0  0  0  0  0  0  0  0  0
  -31.7942  -14.5020   20.2391 O   0  0  0  0  0  0  0  0  0  0  0  0
  -24.7192  -30.2955   28.7941 O   0  0  0  0  0  0  0  0  0  0  0  0
  -29.0524  -20.7086   19.6807 O   0  0  0  0  0  0  0  0  0  1  0  0
  -27.5653  -26.5248   31.6376 F   0  0  0  0  0  0  0  0  0  0  0  0
  -24.6820  -27.6329   28.0510 F   0  0  0  0  0  0  0  0  0  0  0  0
  1  2  1  0  0  0  0
  1  5  2  0  0  0  0
  2  6  2  0  0  0  0
  3  8  2  0  0  0  0
  3 15  1  0  0  0  0
  4  9  1  0  0  0  0
  4 15  2  0  0  0  0
  5 17  1  0  0  0  0
  6 19  1  0  0  0  0
  7 10  2  0  0  0  0
  7 18  1  0  0  0  0
  8 22  1  0  0  0  0
  9 22  2  0  0  0  0
 10 23  1  0  0  0  0
 11 12  2  0  0  0  0
 11 24  1  0  0  0  0
 12 25  1  0  0  0  0
 13 20  1  0  0  0  0
 13 23  2  0  0  0  0
 14 25  2  0  0  0  0
 14 26  1  0  0  0  0
 15 27  1  0  0  0  0
 16 27  1  0  0  0  0
 16 30  2  0  0  0  0
 16 32  1  0  0  0  0
 17 19  2  0  0  0  0
 17 37  1  0  0  0  0
 18 20  2  0  0  0  0
 18 38  1  0  0  0  0
 19 46  1  0  0  0  0
 20 39  1  0  0  0  0
 21 28  1  0  0  0  0
 21 29  2  0  0  0  0
 21 58  1  0  0  0  0
 22 82  1  0  0  0  0
 23 83  1  0  0  0  0
 24 26  2  0  0  0  0
 24 82  1  0  0  0  0
 25 84  1  0  0  0  0
 26 85  1  0  0  0  0
 27 66  2  0  0  0  0
 28 49  1  0  0  0  0
 28 67  2  0  0  0  0
 29 64  1  0  0  0  0
 29 68  1  0  0  0  0
 30 69  1  0  0  0  0
 30 72  1  0  0  0  0
 31 50  1  0  0  0  0
 31 67  1  0  0  0  0
 31 68  2  0  0  0  0
 32 73  1  0  0  0  0
 32 77  2  0  0  0  0
 33 47  1  0  0  0  0
 33 74  1  0  0  0  0
 33 78  2  0  0  0  0
 34 62  1  0  0  0  0
 34 70  1  0  0  0  0
 34 79  2  0  0  0  0
 35 64  1  0  0  0  0
 35 71  1  0  0  0  0
 35 80  2  0  0  0  0
 36 63  1  0  0  0  0
 36 75  1  0  0  0  0
 36 81  2  0  0  0  0
 37 40  1  0  0  0  0
 38 47  1  0  0  0  0
 39 70  1  0  0  0  0
 40 42  1  0  0  0  0
 41 43  1  0  0  0  0
 41 44  1  0  0  0  0
 42 46  1  0  0  0  0
 43 48  1  0  0  0  0
 44 71  1  0  0  0  0
 45 48  1  0  0  0  0
 45 71  1  0  0  0  0
 46 74  1  0  0  0  0
 47 70  1  0  0  0  0
 48 69  1  0  0  0  0
 51 59  1  0  0  0  0
 52 63  1  0  0  0  0
 53 64  1  0  0  0  0
 54 65  1  0  0  0  0
 55 65  1  0  0  0  0
 56 65  1  0  0  0  0
 57 76  1  0  0  0  0
 58 60  1  0  0  0  0
 59 64  1  0  0  0  0
 60 61  1  0  0  0  0
 61 83  1  0  0  0  0
 62 65  1  0  0  0  0
 62 75  1  0  0  0  0
 63 76  1  0  0  0  0
 66 69  1  0  0  0  0
M  CHG  1  76   1
M  ISO  4  35 100  61 101  64 100  83 101
M  END
> <Batch ID>
0046

> <Smiles>
CC[100C:0](C)(c1nc(C)nc(C)c1CC[101CH2:1][101O:1]c1ccc2c(c1)CN(C(=O)C(NC(=O)C(C)NC)C(C)(C)C)C(C(=O)NC1CCCc3ccccc31)C2)[100C:0](=O)N1CCCC(n2nc(-c3ccc(Oc4ccc(F)cc4F)cc3)c(C(N)=O)c2N)C1

> <Shape>
0.259

> <Color>
0.087

> <Negative vol penalty>
0.000

$$$$

  -OEChem-04052317213D

 85 94  0     1  0  0  0  0  0999 V2000
  -27.7608  -11.7182   23.1000 C   0  0  0  0  0  0  0  0  0  0  0  0
  -28.3819  -12.9087   22.7363 C   0  0  0  0  0  0  0  0  0  0  0  0
  -23.3626  -30.4109   21.2867 C   0  0  0  0  0  0  0  0  0  0  0  0
  -22.8023  -28.3449   22.4068 C   0  0  0  0  0  0  0  0  0  0  0  0
  -26.5849  -11.3239   22.4631 C   0  0  0  0  0  0  0  0  0  0  0  0
  -27.8280  -13.7051   21.7346 C   0  0  0  0  0  0  0  0  0  0  0  0
  -27.8777  -19.8223   21.4458 C   0  0  0  0  0  0  0  0  0  0  0  0
  -22.2639  -31.0313   21.8812 C   0  0  0  0  0  0  0  0  0  0  0  0
  -21.7035  -28.9652   23.0014 C   0  0  0  0  0  0  0  0  0  0  0  0
  -28.6891  -20.7222   20.7562 C   0  0  0  0  0  0  0  0  0  0  0  0
  -18.5655  -29.8585   22.1149 C   0  0  0  0  0  0  0  0  0  0  0  0
  -17.3537  -29.1680   22.1161 C   0  0  0  0  0  0  0  0  0  0  0  0
  -27.0524  -20.8334   18.9875 C   0  0  0  0  0  0  0  0  0  0  0  0
  -17.3293  -29.2150   24.5315 C   0  0  0  0  0  0  0  0  0  0  0  0
  -31.6935  -23.2013   17.3772 C   0  0  0  0  0  0  0  0  0  0  0  0
  -29.4298  -28.7437   15.3257 C   0  0  0  0  0  0  0  0  0  0  0  0
  -23.6319  -29.0677   21.5495 C   0  0  0  0  0  0  0  0  0  0  0  0
  -26.0765  -28.3466   21.4441 C   0  0  0  0  0  0  0  0  0  0  0  0
  -26.0111  -12.1206   21.4598 C   0  0  0  0  0  0  0  0  0  0  0  0
  -26.6504  -19.4121   20.9054 C   0  0  0  0  0  0  0  0  0  0  0  0
  -26.6440  -13.3204   21.0828 C   0  0  0  0  0  0  0  0  0  0  0  0
  -26.2261  -19.9301   19.6734 C   0  0  0  0  0  0  0  0  0  0  0  0
  -21.4343  -30.3084   22.7386 C   0  0  0  0  0  0  0  0  0  0  0  0
  -28.2779  -21.2257   19.5256 C   0  0  0  0  0  0  0  0  0  0  0  0
  -19.1594  -30.2273   23.3220 C   0  0  0  0  0  0  0  0  0  0  0  0
  -16.7355  -28.8462   23.3244 C   0  0  0  0  0  0  0  0  0  0  0  0
  -18.5412  -29.9055   24.5303 C   0  0  0  0  0  0  0  0  0  0  0  0
  -24.7664  -28.4262   20.9352 C   0  0  0  0  0  0  0  0  0  0  0  0
  -29.1980  -27.4340   15.6844 C   0  0  0  0  0  0  0  0  0  0  0  0
  -31.0135  -23.4562   18.5832 C   0  0  0  0  0  0  0  0  0  0  0  0
  -31.2940  -28.7763   16.6504 C   0  0  0  0  0  0  0  0  0  0  0  0
  -31.0622  -27.4665   17.0089 C   0  0  0  0  0  0  0  0  0  0  0  0
  -32.1541  -24.4315   16.9761 C   0  0  0  0  0  0  0  0  0  0  0  0
  -26.7722  -27.6412   20.4928 C   0  0  0  0  0  0  0  0  0  0  0  0
  -26.6164  -28.8639   22.6675 C   0  0  0  0  0  0  0  0  0  0  0  0
  -28.0483  -26.6877   15.1568 C   0  0  0  0  0  0  0  0  0  0  0  0
  -25.4261  -16.6293   19.9777 C   0  0  0  0  0  0  0  0  0  0  0  0
  -22.7271  -18.3876   19.5955 C   0  0  0  0  0  0  0  0  0  0  0  0
  -21.3139  -21.4502   19.0756 C   0  0  0  0  0  0  0  0  0  0  0  0
  -24.7646  -11.6296   20.7670 C   0  0  0  0  0  0  0  0  0  0  0  0
  -25.7745  -18.4613   21.6743 C   0  0  0  0  0  0  0  0  0  0  0  0
  -24.9082  -19.5370   19.0595 C   0  0  0  0  0  0  0  0  0  0  0  0
  -24.0394  -12.7153   19.9762 C   0  0  0  0  0  0  0  0  0  0  0  0
  -25.1583  -25.0485   16.4616 C   0  0  0  0  0  0  0  0  0  0  0  0
  -25.0293  -13.5130   19.1331 C   0  0  0  0  0  0  0  0  0  0  0  0
  -24.8919  -25.7858   17.7751 C   0  0  0  0  0  0  0  0  0  0  0  0
  -25.6876  -25.9910   15.3836 C   0  0  0  0  0  0  0  0  0  0  0  0
  -26.6149  -27.5100   17.0975 C   0  0  0  0  0  0  0  0  0  0  0  0
  -26.0604  -14.2237   20.0180 C   0  0  1  0  0  0  0  0  0  0  0  0
  -24.7800  -17.7164   20.7891 C   0  0  1  0  0  0  0  0  0  0  0  0
  -26.1282  -26.5863   18.2261 C   0  0  1  0  0  0  0  0  0  0  0  0
  -32.4617  -29.5331   17.1849 C   0  0  0  0  0  0  0  0  0  0  0  0
  -32.9370  -24.8340   15.7934 C   0  0  0  0  0  0  0  0  0  0  0  0
  -19.0869  -22.5659   18.7705 C   0  0  0  0  0  0  0  0  0  0  0  0
  -22.5876  -17.3227   16.7395 C   0  0  0  0  0  0  0  0  0  0  0  0
  -20.9611  -19.1513   16.2113 C   0  0  0  0  0  0  0  0  0  0  0  0
  -20.3864  -17.4290   17.9220 C   0  0  0  0  0  0  0  0  0  0  0  0
  -21.6940  -23.1275   21.4842 C   0  0  0  0  0  0  0  0  0  0  0  0
  -31.9770  -26.7385   17.9563 C   0  0  0  0  0  0  0  0  0  0  0  0
  -30.3060  -22.4660   19.4608 C   0  0  0  0  0  0  0  0  0  1  0  0
  -22.1219  -19.1853   18.4657 C   0  0  1  0  0  0  0  0  0  0  0  0
  -20.1621  -22.1583   19.7658 C   0  0  2  0  0  0  0  0  0  0  0  0
  -21.5400  -18.2782   17.3450 C   0  0  0  0  0  0  0  0  0  0  0  0
  -30.4820  -29.4385   15.8024 N   0  0  0  0  0  0  0  0  0  0  0  0
  -24.6350  -27.8200   19.7523 N   0  0  0  0  0  0  0  0  0  0  0  0
  -30.0101  -26.7718   16.5324 N   0  0  0  0  0  0  0  0  0  0  0  0
  -31.0377  -24.7469   18.9259 N   0  0  0  0  0  0  0  0  0  0  0  0
  -31.7385  -25.3140   17.9293 N   0  0  0  0  0  0  0  0  0  0  0  0
  -25.8716  -27.3527   19.5100 N   0  0  0  0  0  0  0  0  0  0  0  0
  -26.8487  -26.7346   15.8711 N   0  0  0  0  0  0  0  0  0  0  0  0
  -24.0901  -18.5998   19.8468 N   0  0  0  0  0  0  0  0  0  0  0  0
  -28.0602  -27.2458   20.4094 N   0  0  0  0  0  0  0  0  0  0  0  0
  -25.7631  -29.5643   23.5309 N   0  0  0  0  0  0  0  0  0  0  0  0
  -25.4815  -15.4063   20.6186 N   0  0  0  0  0  0  0  0  0  0  0  0
  -21.1459  -20.0816   19.0760 N   0  0  0  0  0  0  0  0  0  0  0  0
  -20.6489  -23.3839   20.4600 N   0  3  0  0  0  0  0  0  0  0  0  0
  -27.8237  -28.7238   22.9778 O   0  0  0  0  0  0  0  0  0  0  0  0
  -28.2391  -26.0599   14.1163 O   0  0  0  0  0  0  0  0  0  0  0  0
  -25.8421  -16.8809   18.8529 O   0  0  0  0  0  0  0  0  0  0  0  0
  -22.0151  -17.6103   20.2362 O   0  0  0  0  0  0  0  0  0  0  0  0
  -22.2655  -22.0512   18.5820 O   0  0  0  0  0  0  0  0  0  0  0  0
  -20.3622  -30.9135   23.3191 O   0  0  0  0  0  0  0  0  0  0  0  0
  -29.0682  -22.1037   18.8501 O   0  0  0  0  0  0  0  0  0  1  0  0
  -15.5709  -28.1844   23.3253 F   0  0  0  0  0  0  0  0  0  0  0  0
  -19.1063  -30.2581   25.6931 F   0  0  0  0  0  0  0  0  0  0  0  0
  1  2  1  0  0  0  0
  1  5  2  0  0  0  0
  2  6  2  0  0  0  0
  3  8  2  0  0  0  0
  3 17  1  0  0  0  0
  4  9  1  0  0  0  0
  4 17  2  0  0  0  0
  5 19  1  0  0  0  0
  6 21  1  0  0  0  0
  7 10  2  0  0  0  0
  7 20  1  0  0  0  0
  8 23  1  0  0  0  0
  9 23  2  0  0  0  0
 10 24  1  0  0  0  0
 11 12  2  0  0  0  0
 11 25  1  0  0  0  0
 12 26  1  0  0  0  0
 13 22  1  0  0  0  0
 13 24  2  0  0  0  0
 14 26  2  0  0  0  0
 14 27  1  0  0  0  0
 15 30  1  0  0  0  0
 15 33  2  0  0  0  0
 16 29  1  0  0  0  0
 16 64  2  0  0  0  0
 17 28  1  0  0  0  0
 18 28  1  0  0  0  0
 18 34  2  0  0  0  0
 18 35  1  0  0  0  0
 19 21  2  0  0  0  0
 19 40  1  0  0  0  0
 20 22  2  0  0  0  0
 20 41  1  0  0  0  0
 21 49  1  0  0  0  0
 22 42  1  0  0  0  0
 23 82  1  0  0  0  0
 24 83  1  0  0  0  0
 25 27  2  0  0  0  0
 25 82  1  0  0  0  0
 26 84  1  0  0  0  0
 27 85  1  0  0  0  0
 28 65  2  0  0  0  0
 29 36  1  0  0  0  0
 29 66  2  0  0  0  0
 30 60  1  0  0  0  0
 30 67  2  0  0  0  0
 31 32  2  0  0  0  0
 31 52  1  0  0  0  0
 31 64  1  0  0  0  0
 32 59  1  0  0  0  0
 32 66  1  0  0  0  0
 33 53  1  0  0  0  0
 33 68  1  0  0  0  0
 34 69  1  0  0  0  0
 34 72  1  0  0  0  0
 35 73  1  0  0  0  0
 35 77  2  0  0  0  0
 36 70  1  0  0  0  0
 36 78  2  0  0  0  0
 37 50  1  0  0  0  0
 37 74  1  0  0  0  0
 37 79  2  0  0  0  0
 38 61  1  0  0  0  0
 38 71  1  0  0  0  0
 38 80  2  0  0  0  0
 39 62  1  0  0  0  0
 39 75  1  0  0  0  0
 39 81  2  0  0  0  0
 40 43  1  0  0  0  0
 41 50  1  0  0  0  0
 42 71  1  0  0  0  0
 43 45  1  0  0  0  0
 44 46  1  0  0  0  0
 44 47  1  0  0  0  0
 45 49  1  0  0  0  0
 46 51  1  0  0  0  0
 47 70  1  0  0  0  0
 48 51  1  0  0  0  0
 48 70  1  0  0  0  0
 49 74  1  0  0  0  0
 50 71  1  0  0  0  0
 51 69  1  0  0  0  0
 54 62  1  0  0  0  0
 55 63  1  0  0  0  0
 56 63  1  0  0  0  0
 57 63  1  0  0  0  0
 58 76  1  0  0  0  0
 59 68  1  0  0  0  0
 60 83  1  0  0  0  0
 61 63  1  0  0  0  0
 61 75  1  0  0  0  0
 62 76  1  0  0  0  0
 65 69  1  0  0  0  0
 67 68  1  0  0  0  0
M  CHG  1  76   1
M  ISO  4  29 100  36 100  60 101  83 101
M  END
> <Batch ID>
0046

> <Smiles>
CNC(C)C(=O)NC(C(=O)N1Cc2cc([101O:1][101CH2:1]c3cc(C)n(Cc4n[100c:0]([100C:0](=O)N5CCCC(n6nc(-c7ccc(Oc8ccc(F)cc8F)cc7)c(C(N)=O)c6N)C5)cnc4C)n3)ccc2CC1C(=O)NC1CCCc2ccccc21)C(C)(C)C

> <Shape>
0.198

> <Color>
0.095

> <Negative vol penalty>
0.000

$$$$

  -OEChem-04052317213D

 89 97  0     1  0  0  0  0  0999 V2000
  -16.3020  -29.3435   23.4630 C   0  0  0  0  0  0  0  0  0  0  0  0
  -17.1219  -29.2145   22.3464 C   0  0  0  0  0  0  0  0  0  0  0  0
  -27.0806  -12.6423   20.8157 C   0  0  0  0  0  0  0  0  0  0  0  0
  -27.3369  -12.5571   18.4148 C   0  0  0  0  0  0  0  0  0  0  0  0
  -16.7464  -30.0597   24.5736 C   0  0  0  0  0  0  0  0  0  0  0  0
  -18.3862  -29.8026   22.3395 C   0  0  0  0  0  0  0  0  0  0  0  0
  -23.4448  -27.6248   19.6612 C   0  0  0  0  0  0  0  0  0  0  0  0
  -26.4732  -11.3869   20.7954 C   0  0  0  0  0  0  0  0  0  0  0  0
  -26.7295  -11.3015   18.3946 C   0  0  0  0  0  0  0  0  0  0  0  0
  -24.0610  -27.9146   18.4446 C   0  0  0  0  0  0  0  0  0  0  0  0
  -24.5299   -8.3609   21.3346 C   0  0  0  0  0  0  0  0  0  0  0  0
  -23.3748   -8.1853   22.0964 C   0  0  0  0  0  0  0  0  0  0  0  0
  -25.5383  -29.4564   19.5670 C   0  0  0  0  0  0  0  0  0  0  0  0
  -26.7186  -23.0968   18.5340 C   0  0  0  0  0  0  0  0  0  0  0  0
  -22.2755   -9.9250   20.8307 C   0  0  0  0  0  0  0  0  0  0  0  0
  -26.2955  -24.6517   20.1066 C   0  0  0  0  0  0  0  0  0  0  0  0
  -27.5125  -13.2275   19.6253 C   0  0  0  0  0  0  0  0  0  0  0  0
  -29.5127  -14.8030   19.7820 C   0  0  0  0  0  0  0  0  0  0  0  0
  -18.0206  -30.6488   24.5840 C   0  0  0  0  0  0  0  0  0  0  0  0
  -23.8642  -28.2578   20.8401 C   0  0  0  0  0  0  0  0  0  0  0  0
  -18.8474  -30.5285   23.4508 C   0  0  0  0  0  0  0  0  0  0  0  0
  -24.9275  -29.1710   20.7976 C   0  0  0  0  0  0  0  0  0  0  0  0
  -27.2581  -24.2088   19.2266 C   0  0  0  0  0  0  0  0  0  0  0  0
  -26.2977  -10.7165   19.5849 C   0  0  0  0  0  0  0  0  0  0  0  0
  -25.1060  -28.8326   18.3969 C   0  0  0  0  0  0  0  0  0  0  0  0
  -24.5579   -9.3186   20.3208 C   0  0  0  0  0  0  0  0  0  0  0  0
  -22.2476   -8.9673   21.8445 C   0  0  0  0  0  0  0  0  0  0  0  0
  -23.4307  -10.1007   20.0689 C   0  0  0  0  0  0  0  0  0  0  0  0
  -28.1395  -14.5246   19.6455 C   0  0  0  0  0  0  0  0  0  0  0  0
  -25.4427  -22.8942   19.0119 C   0  0  0  0  0  0  0  0  0  0  0  0
  -29.5909  -16.1736   19.7409 C   0  0  0  0  0  0  0  0  0  0  0  0
  -30.6186  -13.9031   19.9325 C   0  0  0  0  0  0  0  0  0  0  0  0
  -22.4939  -30.1937   22.9563 C   0  0  0  0  0  0  0  0  0  0  0  0
  -25.2860  -29.7842   24.5558 C   0  0  0  0  0  0  0  0  0  0  0  0
  -28.6070  -29.0072   24.4353 C   0  0  0  0  0  0  0  0  0  0  0  0
  -25.5991  -20.0576   17.3121 C   0  0  0  0  0  0  0  0  0  0  0  0
  -18.4386  -31.4534   25.7892 C   0  0  0  0  0  0  0  0  0  0  0  0
  -23.2069  -27.9143   22.1487 C   0  0  0  0  0  0  0  0  0  0  0  0
  -25.4288  -29.8626   22.0381 C   0  0  0  0  0  0  0  0  0  0  0  0
  -19.9389  -31.7290   25.8471 C   0  0  0  0  0  0  0  0  0  0  0  0
  -27.0831  -20.1105   20.7453 C   0  0  0  0  0  0  0  0  0  0  0  0
  -20.4471  -32.2041   24.4896 C   0  0  0  0  0  0  0  0  0  0  0  0
  -27.5769  -18.6701   20.8717 C   0  0  0  0  0  0  0  0  0  0  0  0
  -25.8766  -20.2009   19.8187 C   0  0  0  0  0  0  0  0  0  0  0  0
  -26.6099  -18.1925   18.5757 C   0  0  0  0  0  0  0  0  0  0  0  0
  -20.2351  -31.1311   23.4148 C   0  0  1  0  0  0  0  0  0  0  0  0
  -23.3746  -29.0020   23.2052 C   0  0  1  0  0  0  0  0  0  0  0  0
  -27.8413  -18.0556   19.4866 C   0  0  2  0  0  0  0  0  0  0  0  0
  -21.5790  -21.5101   13.5580 C   0  0  0  0  0  0  0  0  0  0  0  0
  -30.6345  -28.7937   25.8985 C   0  0  0  0  0  0  0  0  0  0  0  0
  -25.5255  -32.8241   24.6632 C   0  0  0  0  0  0  0  0  0  0  0  0
  -27.9424  -32.5431   25.2532 C   0  0  0  0  0  0  0  0  0  0  0  0
  -26.1774  -31.6511   26.7736 C   0  0  0  0  0  0  0  0  0  0  0  0
  -23.9709  -23.9905   20.7223 C   0  0  0  0  0  0  0  0  0  0  0  0
  -28.9199  -26.1378   23.7813 C   0  0  0  0  0  0  0  0  0  0  0  0
  -28.6324  -24.7993   19.0367 C   0  0  0  0  0  0  0  0  0  0  0  0
  -24.4409  -21.8746   18.6374 C   0  0  0  0  0  0  0  0  0  0  0  0
  -22.8140  -22.1030   14.2184 C   0  0  0  0  0  0  0  0  0  0  0  0
  -29.1863  -24.6390   17.6147 C   0  0  0  0  0  0  0  0  0  0  0  0
  -23.1600  -21.3697   15.5163 C   0  0  0  0  0  0  0  0  0  0  0  0
  -27.7484  -29.0663   15.9495 C   0  0  0  0  0  0  0  0  0  0  0  0
  -24.4298  -21.9039   16.1705 C   0  0  0  0  0  0  0  0  0  0  0  0
  -28.3855  -25.3341   16.5179 C   0  0  0  0  0  0  0  0  0  0  0  0
  -27.6631  -27.5721   15.6764 C   0  0  0  0  0  0  0  0  0  0  0  0
  -27.0857  -29.4898   17.2546 C   0  0  0  0  0  0  0  0  0  1  0  0
  -26.6214  -30.4880   24.5731 C   0  0  1  0  0  0  0  0  0  0  0  0
  -29.4527  -28.0672   25.2754 C   0  0  2  0  0  0  0  0  0  0  0  0
  -26.5562  -31.8652   25.2919 C   0  0  0  0  0  0  0  0  0  0  0  0
  -27.3987  -15.6296   19.5267 N   0  0  0  0  0  0  0  0  0  0  0  0
  -25.1961  -23.8453   19.9672 N   0  0  0  0  0  0  0  0  0  0  0  0
  -28.3097  -16.6157   19.5885 N   0  0  0  0  0  0  0  0  0  0  0  0
  -24.7496  -29.4981   23.2924 N   0  0  0  0  0  0  0  0  0  0  0  0
  -26.1463  -19.5807   18.5147 N   0  0  0  0  0  0  0  0  0  0  0  0
  -30.6299  -17.0318   19.8206 N   0  0  0  0  0  0  0  0  0  0  0  0
  -30.3610  -12.5256   19.9547 N   0  0  0  0  0  0  0  0  0  0  0  0
  -21.2400  -30.0960   23.5289 N   0  0  0  0  0  0  0  0  0  0  0  0
  -27.5697  -29.5499   25.1639 N   0  0  0  0  0  0  0  0  0  0  0  0
  -24.7700  -21.1867   17.3910 N   0  0  0  0  0  0  0  0  0  0  0  0
  -29.9757  -26.9518   24.4368 N   0  3  0  0  0  0  0  0  0  0  0  0
  -28.3673  -26.8076   16.7324 N   0  3  0  0  0  0  0  0  0  0  0  0
  -31.7986  -14.3090   20.0605 O   0  0  0  0  0  0  0  0  0  0  0  0
  -22.9208  -31.1329   22.2950 O   0  0  0  0  0  0  0  0  0  0  0  0
  -24.7424  -29.4923   25.6240 O   0  0  0  0  0  0  0  0  0  0  0  0
  -28.8450  -29.2397   23.2522 O   0  0  0  0  0  0  0  0  0  0  0  0
  -25.8462  -19.5119   16.2290 O   0  0  0  0  0  0  0  0  0  0  0  0
  -25.7052   -9.4912   19.5648 O   0  0  0  0  0  0  0  0  0  0  0  0
  -25.7088  -29.1178   17.2106 O   0  0  0  0  0  0  0  0  0  1  0  0
  -21.1379   -8.7975   22.5752 F   0  0  0  0  0  0  0  0  0  0  0  0
  -23.4512  -11.0215   19.0956 F   0  0  0  0  0  0  0  0  0  0  0  0
  1  2  1  0  0  0  0
  1  5  2  0  0  0  0
  2  6  2  0  0  0  0
  3  8  2  0  0  0  0
  3 17  1  0  0  0  0
  4  9  1  0  0  0  0
  4 17  2  0  0  0  0
  5 19  1  0  0  0  0
  6 21  1  0  0  0  0
  7 10  2  0  0  0  0
  7 20  1  0  0  0  0
  8 24  1  0  0  0  0
  9 24  2  0  0  0  0
 10 25  1  0  0  0  0
 11 12  2  0  0  0  0
 11 26  1  0  0  0  0
 12 27  1  0  0  0  0
 13 22  1  0  0  0  0
 13 25  2  0  0  0  0
 14 23  1  0  0  0  0
 14 30  2  0  0  0  0
 15 27  2  0  0  0  0
 15 28  1  0  0  0  0
 16 23  2  0  0  0  0
 16 70  1  0  0  0  0
 17 29  1  0  0  0  0
 18 29  1  0  0  0  0
 18 31  2  0  0  0  0
 18 32  1  0  0  0  0
 19 21  2  0  0  0  0
 19 37  1  0  0  0  0
 20 22  2  0  0  0  0
 20 38  1  0  0  0  0
 21 46  1  0  0  0  0
 22 39  1  0  0  0  0
 23 56  1  0  0  0  0
 24 86  1  0  0  0  0
 25 87  1  0  0  0  0
 26 28  2  0  0  0  0
 26 86  1  0  0  0  0
 27 88  1  0  0  0  0
 28 89  1  0  0  0  0
 29 69  2  0  0  0  0
 30 57  1  0  0  0  0
 30 70  1  0  0  0  0
 31 71  1  0  0  0  0
 31 74  1  0  0  0  0
 32 75  1  0  0  0  0
 32 81  2  0  0  0  0
 33 47  1  0  0  0  0
 33 76  1  0  0  0  0
 33 82  2  0  0  0  0
 34 66  1  0  0  0  0
 34 72  1  0  0  0  0
 34 83  2  0  0  0  0
 35 67  1  0  0  0  0
 35 77  1  0  0  0  0
 35 84  2  0  0  0  0
 36 73  1  0  0  0  0
 36 78  1  0  0  0  0
 36 85  2  0  0  0  0
 37 40  1  0  0  0  0
 38 47  1  0  0  0  0
 39 72  1  0  0  0  0
 40 42  1  0  0  0  0
 41 43  1  0  0  0  0
 41 44  1  0  0  0  0
 42 46  1  0  0  0  0
 43 48  1  0  0  0  0
 44 73  1  0  0  0  0
 45 48  1  0  0  0  0
 45 73  1  0  0  0  0
 46 76  1  0  0  0  0
 47 72  1  0  0  0  0
 48 71  1  0  0  0  0
 49 58  1  0  0  0  0
 50 67  1  0  0  0  0
 51 68  1  0  0  0  0
 52 68  1  0  0  0  0
 53 68  1  0  0  0  0
 54 70  1  0  0  0  0
 55 79  1  0  0  0  0
 56 59  1  0  0  0  0
 57 78  1  0  0  0  0
 58 60  1  0  0  0  0
 59 63  1  0  0  0  0
 60 62  1  0  0  0  0
 61 64  1  0  0  0  0
 61 65  1  0  0  0  0
 62 78  1  0  0  0  0
 63 80  1  0  0  0  0
 64 80  1  0  0  0  0
 65 87  1  0  0  0  0
 66 68  1  0  0  0  0
 66 77  1  0  0  0  0
 67 79  1  0  0  0  0
 69 71  1  0  0  0  0
M  CHG  2  79   1  80   1
M  ISO  4  36 100  65 101  78 100  87 101
M  END
> <Batch ID>
0046

> <Smiles>
CCCC[100N:0](Cc1cc(CCCNCC[101CH2:1][101O:1]c2ccc3c(c2)CN(C(=O)C(NC(=O)C(C)NC)C(C)(C)C)C(C(=O)NC2CCCc4ccccc42)C3)cn1C)[100C:0](=O)N1CCCC(n2nc(-c3ccc(Oc4ccc(F)cc4F)cc3)c(C(N)=O)c2N)C1

> <Shape>
0.256

> <Color>
0.076

> <Negative vol penalty>
0.000

$$$$

  -OEChem-04052317213D

 84 92  0     1  0  0  0  0  0999 V2000
  -29.7011  -23.0354   18.3191 C   0  0  0  0  0  0  0  0  0  0  0  0
  -28.4839  -23.1786   18.9773 C   0  0  0  0  0  0  0  0  0  0  0  0
  -26.9224  -19.1730   20.4397 C   0  0  0  0  0  0  0  0  0  0  0  0
  -29.0402  -18.0102   20.4371 C   0  0  0  0  0  0  0  0  0  0  0  0
  -30.7854  -23.8343   18.6794 C   0  0  0  0  0  0  0  0  0  0  0  0
  -28.3506  -24.1203   19.9971 C   0  0  0  0  0  0  0  0  0  0  0  0
  -24.0647  -26.7921   19.6265 C   0  0  0  0  0  0  0  0  0  0  0  0
  -27.5221  -20.2639   21.0688 C   0  0  0  0  0  0  0  0  0  0  0  0
  -29.6400  -19.1012   21.0662 C   0  0  0  0  0  0  0  0  0  0  0  0
  -22.8902  -26.1740   20.0535 C   0  0  0  0  0  0  0  0  0  0  0  0
  -29.8346  -20.3777   24.1909 C   0  0  0  0  0  0  0  0  0  0  0  0
  -30.6886  -20.1186   25.2628 C   0  0  0  0  0  0  0  0  0  0  0  0
  -23.0237  -27.3761   22.1407 C   0  0  0  0  0  0  0  0  0  0  0  0
  -32.5052  -21.1750   24.0708 C   0  0  0  0  0  0  0  0  0  0  0  0
  -21.3506  -14.7458   22.4262 C   0  0  0  0  0  0  0  0  0  0  0  0
  -27.6815  -18.0461   20.1239 C   0  0  0  0  0  0  0  0  0  0  0  0
  -26.9394  -16.6973   18.0897 C   0  0  0  0  0  0  0  0  0  0  0  0
  -30.6626  -24.7929   19.6976 C   0  0  0  0  0  0  0  0  0  0  0  0
  -24.7346  -27.7000   20.4591 C   0  0  0  0  0  0  0  0  0  0  0  0
  -29.4347  -24.9319   20.3723 C   0  0  0  0  0  0  0  0  0  0  0  0
  -24.2052  -28.0062   21.7209 C   0  0  0  0  0  0  0  0  0  0  0  0
  -28.8809  -20.2281   21.3820 C   0  0  0  0  0  0  0  0  0  0  0  0
  -22.3711  -26.4638   21.3119 C   0  0  0  0  0  0  0  0  0  0  0  0
  -30.3158  -21.0354   23.0588 C   0  0  0  0  0  0  0  0  0  0  0  0
  -32.0239  -20.5173   25.2028 C   0  0  0  0  0  0  0  0  0  0  0  0
  -31.6512  -21.4341   22.9988 C   0  0  0  0  0  0  0  0  0  0  0  0
  -27.0624  -16.9186   19.4745 C   0  0  0  0  0  0  0  0  0  0  0  0
  -21.7027  -13.7793   21.5160 C   0  0  0  0  0  0  0  0  0  0  0  0
  -20.4992  -15.6092   21.7110 C   0  0  0  0  0  0  0  0  0  0  0  0
  -26.2807  -15.4961   17.9911 C   0  0  0  0  0  0  0  0  0  0  0  0
  -27.3812  -17.5053   16.9908 C   0  0  0  0  0  0  0  0  0  0  0  0
  -22.5783  -12.6155   21.7053 C   0  0  0  0  0  0  0  0  0  0  0  0
  -27.6077  -27.8012   21.8151 C   0  0  0  0  0  0  0  0  0  0  0  0
  -26.6570  -30.7744   22.6975 C   0  0  0  0  0  0  0  0  0  0  0  0
  -24.0835  -32.9228   23.3365 C   0  0  0  0  0  0  0  0  0  0  0  0
  -31.8761  -25.6008   20.0842 C   0  0  0  0  0  0  0  0  0  0  0  0
  -25.9860  -28.3784   19.9731 C   0  0  0  0  0  0  0  0  0  0  0  0
  -24.8751  -28.9891   22.6448 C   0  0  0  0  0  0  0  0  0  0  0  0
  -31.5455  -26.8341   20.9208 C   0  0  0  0  0  0  0  0  0  0  0  0
  -25.6267  -11.3704   20.3275 C   0  0  0  0  0  0  0  0  0  0  0  0
  -30.5701  -26.4758   22.0375 C   0  0  0  0  0  0  0  0  0  0  0  0
  -26.3399  -12.6326   19.8392 C   0  0  0  0  0  0  0  0  0  0  0  0
  -24.8421  -11.6274   21.6115 C   0  0  0  0  0  0  0  0  0  0  0  0
  -24.5999  -14.0197   21.0430 C   0  0  0  0  0  0  0  0  0  0  0  0
  -29.2438  -25.9593   21.4669 C   0  0  1  0  0  0  0  0  0  0  0  0
  -26.8632  -28.8981   21.1079 C   0  0  1  0  0  0  0  0  0  0  0  0
  -25.3614  -13.8165   19.7228 C   0  0  1  0  0  0  0  0  0  0  0  0
  -23.6187  -35.2755   24.0755 C   0  0  0  0  0  0  0  0  0  0  0  0
  -27.3416  -30.0050   25.5696 C   0  0  0  0  0  0  0  0  0  0  0  0
  -26.0000  -31.9723   26.3427 C   0  0  0  0  0  0  0  0  0  0  0  0
  -28.0194  -32.3232   24.9209 C   0  0  0  0  0  0  0  0  0  0  0  0
  -21.1215  -13.3953   19.1019 C   0  0  0  0  0  0  0  0  0  0  0  0
  -22.6911  -33.5660   20.8054 C   0  0  0  0  0  0  0  0  0  0  0  0
  -19.8139  -16.8523   22.2200 C   0  0  0  0  0  0  0  0  0  0  0  0
  -20.6405  -18.1315   22.0393 C   0  0  0  0  0  0  0  0  0  0  0  0
  -19.9206  -19.3839   22.5516 C   0  0  0  0  0  0  0  0  0  0  0  0
  -20.7338  -20.6688   22.3659 C   0  0  0  0  0  0  0  0  0  0  0  0
  -20.0487  -21.9094   22.9435 C   0  0  0  0  0  0  0  0  0  0  0  0
  -20.9126  -23.1581   22.7528 C   0  0  0  0  0  0  0  0  0  0  0  0
  -20.2470  -24.3923   23.3578 C   0  0  0  0  0  0  0  0  0  0  0  0
  -21.0809  -25.6460   23.1346 C   0  0  0  0  0  0  0  0  0  1  0  0
  -25.9265  -31.3551   23.8842 C   0  0  1  0  0  0  0  0  0  0  0  0
  -23.8275  -34.3499   22.8870 C   0  0  2  0  0  0  0  0  0  0  0  0
  -26.8101  -31.3939   25.1629 C   0  0  0  0  0  0  0  0  0  0  0  0
  -26.5248  -15.9369   20.2034 N   0  0  0  0  0  0  0  0  0  0  0  0
  -20.3210  -15.2251   20.4443 N   0  0  0  0  0  0  0  0  0  0  0  0
  -21.0655  -14.1096   20.3562 N   0  0  0  0  0  0  0  0  0  0  0  0
  -26.0576  -15.0871   19.2730 N   0  0  0  0  0  0  0  0  0  0  0  0
  -23.9428  -12.7691   21.4486 N   0  0  0  0  0  0  0  0  0  0  0  0
  -26.0995  -29.6215   22.1267 N   0  0  0  0  0  0  0  0  0  0  0  0
  -25.8764  -14.7605   16.9339 N   0  0  0  0  0  0  0  0  0  0  0  0
  -28.0418  -18.7094   17.2699 N   0  0  0  0  0  0  0  0  0  0  0  0
  -28.4347  -27.0612   20.9918 N   0  0  0  0  0  0  0  0  0  0  0  0
  -25.4315  -32.6602   23.4601 N   0  0  0  0  0  0  0  0  0  0  0  0
  -22.6137  -34.4115   22.0245 N   0  3  0  0  0  0  0  0  0  0  0  0
  -27.1810  -17.1774   15.7966 O   0  0  0  0  0  0  0  0  0  0  0  0
  -22.0299  -11.5764   22.0695 O   0  0  0  0  0  0  0  0  0  0  0  0
  -27.4451  -27.6393   23.0189 O   0  0  0  0  0  0  0  0  0  0  0  0
  -27.6804  -31.3277   22.2874 O   0  0  0  0  0  0  0  0  0  0  0  0
  -23.1781  -32.1221   23.5596 O   0  0  0  0  0  0  0  0  0  0  0  0
  -29.4665  -21.2925   21.9957 O   0  0  0  0  0  0  0  0  0  0  0  0
  -21.2252  -25.8615   21.7314 O   0  0  0  0  0  0  0  0  0  1  0  0
  -32.8435  -20.2699   26.2329 F   0  0  0  0  0  0  0  0  0  0  0  0
  -32.1190  -22.0673   21.9144 F   0  0  0  0  0  0  0  0  0  0  0  0
  1  2  1  0  0  0  0
  1  5  2  0  0  0  0
  2  6  2  0  0  0  0
  3  8  2  0  0  0  0
  3 16  1  0  0  0  0
  4  9  1  0  0  0  0
  4 16  2  0  0  0  0
  5 18  1  0  0  0  0
  6 20  1  0  0  0  0
  7 10  2  0  0  0  0
  7 19  1  0  0  0  0
  8 22  1  0  0  0  0
  9 22  2  0  0  0  0
 10 23  1  0  0  0  0
 11 12  2  0  0  0  0
 11 24  1  0  0  0  0
 12 25  1  0  0  0  0
 13 21  1  0  0  0  0
 13 23  2  0  0  0  0
 14 25  2  0  0  0  0
 14 26  1  0  0  0  0
 15 28  2  0  0  0  0
 15 29  1  0  0  0  0
 16 27  1  0  0  0  0
 17 27  1  0  0  0  0
 17 30  2  0  0  0  0
 17 31  1  0  0  0  0
 18 20  2  0  0  0  0
 18 36  1  0  0  0  0
 19 21  2  0  0  0  0
 19 37  1  0  0  0  0
 20 45  1  0  0  0  0
 21 38  1  0  0  0  0
 22 81  1  0  0  0  0
 23 82  1  0  0  0  0
 24 26  2  0  0  0  0
 24 81  1  0  0  0  0
 25 83  1  0  0  0  0
 26 84  1  0  0  0  0
 27 65  2  0  0  0  0
 28 32  1  0  0  0  0
 28 67  1  0  0  0  0
 29 54  1  0  0  0  0
 29 66  2  0  0  0  0
 30 68  1  0  0  0  0
 30 71  1  0  0  0  0
 31 72  1  0  0  0  0
 31 76  2  0  0  0  0
 32 69  1  0  0  0  0
 32 77  2  0  0  0  0
 33 46  1  0  0  0  0
 33 73  1  0  0  0  0
 33 78  2  0  0  0  0
 34 62  1  0  0  0  0
 34 70  1  0  0  0  0
 34 79  2  0  0  0  0
 35 63  1  0  0  0  0
 35 74  1  0  0  0  0
 35 80  2  0  0  0  0
 36 39  1  0  0  0  0
 37 46  1  0  0  0  0
 38 70  1  0  0  0  0
 39 41  1  0  0  0  0
 40 42  1  0  0  0  0
 40 43  1  0  0  0  0
 41 45  1  0  0  0  0
 42 47  1  0  0  0  0
 43 69  1  0  0  0  0
 44 47  1  0  0  0  0
 44 69  1  0  0  0  0
 45 73  1  0  0  0  0
 46 70  1  0  0  0  0
 47 68  1  0  0  0  0
 48 63  1  0  0  0  0
 49 64  1  0  0  0  0
 50 64  1  0  0  0  0
 51 64  1  0  0  0  0
 52 67  1  0  0  0  0
 53 75  1  0  0  0  0
 54 55  1  0  0  0  0
 55 56  1  0  0  0  0
 56 57  1  0  0  0  0
 57 58  1  0  0  0  0
 58 59  1  0  0  0  0
 59 60  1  0  0  0  0
 60 61  1  0  0  0  0
 61 82  1  0  0  0  0
 62 64  1  0  0  0  0
 62 74  1  0  0  0  0
 63 75  1  0  0  0  0
 65 68  1  0  0  0  0
 66 67  1  0  0  0  0
M  CHG  1  75   1
M  ISO  4  28 100  32 100  61 101  82 101
M  END
> <Batch ID>
0046

> <Smiles>
CNC(C)C(=O)NC(C(=O)N1Cc2cc([101O:1][101CH2:1]CCCCCCCc3c[100c:0]([100C:0](=O)N4CCCC(n5nc(-c6ccc(Oc7ccc(F)cc7F)cc6)c(C(N)=O)c5N)C4)n(C)n3)ccc2CC1C(=O)NC1CCCc2ccccc21)C(C)(C)C

> <Shape>
0.245

> <Color>
0.062

> <Negative vol penalty>
0.000

$$$$

  -OEChem-04052317213D

 82 90  0     1  0  0  0  0  0999 V2000
  -16.9213  -29.9823   24.0679 C   0  0  0  0  0  0  0  0  0  0  0  0
  -18.1080  -30.5516   24.5186 C   0  0  0  0  0  0  0  0  0  0  0  0
  -28.1640  -24.0177   29.3932 C   0  0  0  0  0  0  0  0  0  0  0  0
  -28.4150  -26.3917   29.0215 C   0  0  0  0  0  0  0  0  0  0  0  0
  -16.9564  -28.8357   23.2756 C   0  0  0  0  0  0  0  0  0  0  0  0
  -19.3305  -29.9738   24.1781 C   0  0  0  0  0  0  0  0  0  0  0  0
  -24.6012  -32.8910   23.0757 C   0  0  0  0  0  0  0  0  0  0  0  0
  -28.7864  -24.1464   30.6349 C   0  0  0  0  0  0  0  0  0  0  0  0
  -29.0374  -26.5204   30.2631 C   0  0  0  0  0  0  0  0  0  0  0  0
  -25.7215  -33.1359   23.8687 C   0  0  0  0  0  0  0  0  0  0  0  0
  -31.9362  -24.4537   31.8218 C   0  0  0  0  0  0  0  0  0  0  0  0
  -32.9116  -23.5148   32.1573 C   0  0  0  0  0  0  0  0  0  0  0  0
  -26.8061  -31.1994   22.9239 C   0  0  0  0  0  0  0  0  0  0  0  0
  -30.4578  -32.0202   23.1525 C   0  0  0  0  0  0  0  0  0  0  0  0
  -31.6106  -22.8512   34.0820 C   0  0  0  0  0  0  0  0  0  0  0  0
  -30.2489  -29.8315   23.6381 C   0  0  0  0  0  0  0  0  0  0  0  0
  -27.9783  -25.1404   28.5865 C   0  0  0  0  0  0  0  0  0  0  0  0
  -25.9594  -25.1106   27.0275 C   0  0  0  0  0  0  0  0  0  0  0  0
  -18.1803  -28.2491   22.9171 C   0  0  0  0  0  0  0  0  0  0  0  0
  -24.5707  -31.7904   22.2073 C   0  0  0  0  0  0  0  0  0  0  0  0
  -19.3820  -28.8175   23.3812 C   0  0  0  0  0  0  0  0  0  0  0  0
  -25.6853  -30.9443   22.1190 C   0  0  0  0  0  0  0  0  0  0  0  0
  -29.7629  -31.0810   23.9539 C   0  0  0  0  0  0  0  0  0  0  0  0
  -29.2231  -25.3977   31.0698 C   0  0  0  0  0  0  0  0  0  0  0  0
  -26.8230  -32.2884   23.7951 C   0  0  0  0  0  0  0  0  0  0  0  0
  -30.7980  -24.5915   32.6164 C   0  0  0  0  0  0  0  0  0  0  0  0
  -32.7488  -22.7135   33.2874 C   0  0  0  0  0  0  0  0  0  0  0  0
  -30.6353  -23.7902   33.7465 C   0  0  0  0  0  0  0  0  0  0  0  0
  -27.3360  -25.0081   27.3035 C   0  0  0  0  0  0  0  0  0  0  0  0
  -31.3472  -31.3159   22.3713 C   0  0  0  0  0  0  0  0  0  0  0  0
  -25.8650  -24.9092   25.6721 C   0  0  0  0  0  0  0  0  0  0  0  0
  -24.8638  -25.3652   27.9167 C   0  0  0  0  0  0  0  0  0  0  0  0
  -22.7697  -29.1837   21.9522 C   0  0  0  0  0  0  0  0  0  0  0  0
  -24.4838  -28.7388   19.2345 C   0  0  0  0  0  0  0  0  0  0  0  0
  -27.3470  -29.3527   17.4818 C   0  0  0  0  0  0  0  0  0  0  0  0
  -29.7224  -25.6773   21.1576 C   0  0  0  0  0  0  0  0  0  0  0  0
  -18.1662  -26.9828   22.0979 C   0  0  0  0  0  0  0  0  0  0  0  0
  -23.3653  -31.5554   21.3389 C   0  0  0  0  0  0  0  0  0  0  0  0
  -25.7107  -29.7607   21.1879 C   0  0  0  0  0  0  0  0  0  0  0  0
  -19.5170  -26.6479   21.4708 C   0  0  0  0  0  0  0  0  0  0  0  0
  -28.0544  -22.6637   22.0590 C   0  0  0  0  0  0  0  0  0  0  0  0
  -20.6337  -26.7921   22.4999 C   0  0  0  0  0  0  0  0  0  0  0  0
  -27.5569  -22.9320   23.4804 C   0  0  0  0  0  0  0  0  0  0  0  0
  -29.4166  -23.3064   21.8070 C   0  0  0  0  0  0  0  0  0  0  0  0
  -28.9883  -25.0171   23.5286 C   0  0  0  0  0  0  0  0  0  0  0  0
  -20.7288  -28.2342   23.0125 C   0  0  1  0  0  0  0  0  0  0  0  0
  -23.2413  -30.1099   20.8672 C   0  0  1  0  0  0  0  0  0  0  0  0
  -27.5926  -24.4360   23.8124 C   0  0  2  0  0  0  0  0  0  0  0  0
  -32.3130  -31.7998   21.3632 C   0  0  0  0  0  0  0  0  0  0  0  0
  -29.2630  -31.6623   26.3529 C   0  0  0  0  0  0  0  0  0  0  0  0
  -28.4756  -28.8226   15.3041 C   0  0  0  0  0  0  0  0  0  0  0  0
  -25.1631  -25.9495   20.2683 C   0  0  0  0  0  0  0  0  0  0  0  0
  -27.0022  -25.8449   18.5728 C   0  0  0  0  0  0  0  0  0  0  0  0
  -24.6312  -26.0564   17.8269 C   0  0  0  0  0  0  0  0  0  0  0  0
  -27.4221  -32.2043   16.6933 C   0  0  0  0  0  0  0  0  0  0  0  0
  -31.4497  -28.4786   20.6961 C   0  0  0  0  0  0  0  0  0  0  0  0
  -31.9599  -28.9006   22.0806 C   0  0  0  0  0  0  0  0  0  0  0  0
  -29.9722  -28.0946   20.6543 C   0  0  0  0  0  0  0  0  0  0  0  0
  -28.6867  -31.3915   24.9689 C   0  0  1  0  0  0  0  0  0  1  0  0
  -25.7784  -28.0434   18.8888 C   0  0  1  0  0  0  0  0  0  0  0  0
  -27.5749  -29.7962   16.0480 C   0  0  2  0  0  0  0  0  0  0  0  0
  -25.6428  -26.4947   18.9083 C   0  0  0  0  0  0  0  0  0  0  0  0
  -28.0639  -24.7606   26.2113 N   0  0  0  0  0  0  0  0  0  0  0  0
  -31.2113  -29.9864   22.6747 N   0  0  0  0  0  0  0  0  0  0  0  0
  -27.1411  -24.7058   25.2358 N   0  0  0  0  0  0  0  0  0  0  0  0
  -24.5057  -29.5692   20.3640 N   0  0  0  0  0  0  0  0  0  0  0  0
  -29.3823  -24.7326   22.1398 N   0  0  0  0  0  0  0  0  0  0  0  0
  -24.8158  -24.8878   24.8229 N   0  0  0  0  0  0  0  0  0  0  0  0
  -25.1378  -25.5488   29.2789 N   0  0  0  0  0  0  0  0  0  0  0  0
  -21.3951  -29.0734   22.0397 N   0  0  0  0  0  0  0  0  0  0  0  0
  -26.2051  -28.5898   17.6051 N   0  0  0  0  0  0  0  0  0  0  0  0
  -29.6577  -27.0074   21.5542 N   0  0  0  0  0  0  0  0  0  0  0  0
  -28.2120  -31.1431   16.0174 N   0  3  0  0  0  0  0  0  0  0  0  0
  -23.6755  -25.4118   27.5177 O   0  0  0  0  0  0  0  0  0  0  0  0
  -23.5921  -28.6103   22.6569 O   0  0  0  0  0  0  0  0  0  0  0  0
  -23.4917  -28.5575   18.5243 O   0  0  0  0  0  0  0  0  0  0  0  0
  -28.1081  -29.6500   18.3999 O   0  0  0  0  0  0  0  0  0  0  0  0
  -30.0537  -25.3592   20.0104 O   0  0  0  0  0  0  0  0  0  0  0  0
  -29.8302  -25.5236   32.2815 O   0  0  0  0  0  0  0  0  0  0  0  0
  -27.9174  -32.5247   24.5685 O   0  0  0  0  0  0  0  0  0  1  0  0
  -33.6848  -21.8108   33.6086 F   0  0  0  0  0  0  0  0  0  0  0  0
  -29.5434  -23.9171   34.5130 F   0  0  0  0  0  0  0  0  0  0  0  0
  1  2  1  0  0  0  0
  1  5  2  0  0  0  0
  2  6  2  0  0  0  0
  3  8  2  0  0  0  0
  3 17  1  0  0  0  0
  4  9  1  0  0  0  0
  4 17  2  0  0  0  0
  5 19  1  0  0  0  0
  6 21  1  0  0  0  0
  7 10  2  0  0  0  0
  7 20  1  0  0  0  0
  8 24  1  0  0  0  0
  9 24  2  0  0  0  0
 10 25  1  0  0  0  0
 11 12  2  0  0  0  0
 11 26  1  0  0  0  0
 12 27  1  0  0  0  0
 13 22  1  0  0  0  0
 13 25  2  0  0  0  0
 14 23  1  0  0  0  0
 14 30  2  0  0  0  0
 15 27  2  0  0  0  0
 15 28  1  0  0  0  0
 16 23  2  0  0  0  0
 16 64  1  0  0  0  0
 17 29  1  0  0  0  0
 18 29  1  0  0  0  0
 18 31  2  0  0  0  0
 18 32  1  0  0  0  0
 19 21  2  0  0  0  0
 19 37  1  0  0  0  0
 20 22  2  0  0  0  0
 20 38  1  0  0  0  0
 21 46  1  0  0  0  0
 22 39  1  0  0  0  0
 23 59  1  0  0  0  0
 24 79  1  0  0  0  0
 25 80  1  0  0  0  0
 26 28  2  0  0  0  0
 26 79  1  0  0  0  0
 27 81  1  0  0  0  0
 28 82  1  0  0  0  0
 29 63  2  0  0  0  0
 30 49  1  0  0  0  0
 30 64  1  0  0  0  0
 31 65  1  0  0  0  0
 31 68  1  0  0  0  0
 32 69  1  0  0  0  0
 32 74  2  0  0  0  0
 33 47  1  0  0  0  0
 33 70  1  0  0  0  0
 33 75  2  0  0  0  0
 34 60  1  0  0  0  0
 34 66  1  0  0  0  0
 34 76  2  0  0  0  0
 35 61  1  0  0  0  0
 35 71  1  0  0  0  0
 35 77  2  0  0  0  0
 36 67  1  0  0  0  0
 36 72  1  0  0  0  0
 36 78  2  0  0  0  0
 37 40  1  0  0  0  0
 38 47  1  0  0  0  0
 39 66  1  0  0  0  0
 40 42  1  0  0  0  0
 41 43  1  0  0  0  0
 41 44  1  0  0  0  0
 42 46  1  0  0  0  0
 43 48  1  0  0  0  0
 44 67  1  0  0  0  0
 45 48  1  0  0  0  0
 45 67  1  0  0  0  0
 46 70  1  0  0  0  0
 47 66  1  0  0  0  0
 48 65  1  0  0  0  0
 50 59  1  0  0  0  0
 51 61  1  0  0  0  0
 52 62  1  0  0  0  0
 53 62  1  0  0  0  0
 54 62  1  0  0  0  0
 55 73  1  0  0  0  0
 56 57  1  0  0  0  0
 56 58  1  0  0  0  0
 57 64  1  0  0  0  0
 58 72  1  0  0  0  0
 59 80  1  0  0  0  0
 60 62  1  0  0  0  0
 60 71  1  0  0  0  0
 61 73  1  0  0  0  0
 63 65  1  0  0  0  0
M  CHG  1  73   1
M  ISO  4  36 100  59 101  72 100  80 101
M  END
> <Batch ID>
0046

> <Smiles>
CNC(C)C(=O)NC(C(=O)N1Cc2cc([101O:1][101CH:1](C)c3cc(C)n(CCC[100NH:0][100C:0](=O)N4CCCC(n5nc(-c6ccc(Oc7ccc(F)cc7F)cc6)c(C(N)=O)c5N)C4)c3)ccc2CC1C(=O)NC1CCCc2ccccc21)C(C)(C)C

> <Shape>
0.194

> <Color>
0.088

> <Negative vol penalty>
0.000

$$$$

  -OEChem-04052317213D

 83 91  0     1  0  0  0  0  0999 V2000
  -18.2328  -24.6748   21.4682 C   0  0  0  0  0  0  0  0  0  0  0  0
  -19.6044  -24.4940   21.3217 C   0  0  0  0  0  0  0  0  0  0  0  0
  -25.7844  -12.9585   21.4158 C   0  0  0  0  0  0  0  0  0  0  0  0
  -25.2093  -13.5526   19.1457 C   0  0  0  0  0  0  0  0  0  0  0  0
  -17.7379  -25.8867   21.9481 C   0  0  0  0  0  0  0  0  0  0  0  0
  -20.4819  -25.5255   21.6539 C   0  0  0  0  0  0  0  0  0  0  0  0
  -24.4594  -23.9042   24.3364 C   0  0  0  0  0  0  0  0  0  0  0  0
  -29.2414  -24.4841   19.9244 C   0  0  0  0  0  0  0  0  0  0  0  0
  -25.4665  -11.6271   21.1479 C   0  0  0  0  0  0  0  0  0  0  0  0
  -24.8915  -12.2211   18.8778 C   0  0  0  0  0  0  0  0  0  0  0  0
  -25.4835  -23.2685   23.6358 C   0  0  0  0  0  0  0  0  0  0  0  0
  -22.6767   -9.7371   20.8848 C   0  0  0  0  0  0  0  0  0  0  0  0
  -21.9114   -9.0518   21.8283 C   0  0  0  0  0  0  0  0  0  0  0  0
  -29.2285  -25.6817   19.2179 C   0  0  0  0  0  0  0  0  0  0  0  0
  -26.7649  -25.3121   23.6664 C   0  0  0  0  0  0  0  0  0  0  0  0
  -23.6953   -7.4468   22.1094 C   0  0  0  0  0  0  0  0  0  0  0  0
  -25.6557  -13.9213   20.4147 C   0  0  0  0  0  0  0  0  0  0  0  0
  -27.2362  -15.9200   20.5364 C   0  0  0  0  0  0  0  0  0  0  0  0
  -18.6103  -26.9302   22.2955 C   0  0  0  0  0  0  0  0  0  0  0  0
  -24.5760  -25.2540   24.6984 C   0  0  0  0  0  0  0  0  0  0  0  0
  -19.9981  -26.7530   22.1376 C   0  0  0  0  0  0  0  0  0  0  0  0
  -25.7420  -25.9619   24.3739 C   0  0  0  0  0  0  0  0  0  0  0  0
  -28.1991  -23.5779   19.7645 C   0  0  0  0  0  0  0  0  0  0  0  0
  -25.0201  -11.2583   19.8789 C   0  0  0  0  0  0  0  0  0  0  0  0
  -26.6352  -23.9732   23.2981 C   0  0  0  0  0  0  0  0  0  0  0  0
  -23.9513   -9.2772   20.5535 C   0  0  0  0  0  0  0  0  0  0  0  0
  -22.4207   -7.9067   22.4407 C   0  0  0  0  0  0  0  0  0  0  0  0
  -24.4606   -8.1321   21.1658 C   0  0  0  0  0  0  0  0  0  0  0  0
  -25.9834  -15.2970   20.6910 C   0  0  0  0  0  0  0  0  0  0  0  0
  -28.1590  -25.9235   18.3710 C   0  0  0  0  0  0  0  0  0  0  0  0
  -27.1755  -23.9140   18.8933 C   0  0  0  0  0  0  0  0  0  0  0  0
  -27.0245  -17.2190   20.9291 C   0  0  0  0  0  0  0  0  0  0  0  0
  -28.4802  -15.3734   20.0788 C   0  0  0  0  0  0  0  0  0  0  0  0
  -22.9642  -27.9070   24.0147 C   0  0  0  0  0  0  0  0  0  0  0  0
  -24.9501  -29.2166   26.2200 C   0  0  0  0  0  0  0  0  0  0  0  0
  -27.9245  -29.0748   27.8874 C   0  0  0  0  0  0  0  0  0  0  0  0
  -22.9676  -21.3440   20.7282 C   0  0  0  0  0  0  0  0  0  0  0  0
  -18.0260  -28.2389   22.7652 C   0  0  0  0  0  0  0  0  0  0  0  0
  -23.4737  -25.9178   25.4774 C   0  0  0  0  0  0  0  0  0  0  0  0
  -25.9249  -27.4070   24.7570 C   0  0  0  0  0  0  0  0  0  0  0  0
  -19.0428  -29.1494   23.4489 C   0  0  0  0  0  0  0  0  0  0  0  0
  -23.6371  -19.5113   23.7064 C   0  0  0  0  0  0  0  0  0  0  0  0
  -20.3291  -29.2211   22.6322 C   0  0  0  0  0  0  0  0  0  0  0  0
  -24.4268  -18.2956   23.2180 C   0  0  0  0  0  0  0  0  0  0  0  0
  -22.5530  -19.9173   22.7104 C   0  0  0  0  0  0  0  0  0  0  0  0
  -23.8196  -18.9239   20.8442 C   0  0  0  0  0  0  0  0  0  0  0  0
  -20.9832  -27.8395   22.5107 C   0  0  1  0  0  0  0  0  0  0  0  0
  -23.4805  -27.4377   25.3455 C   0  0  1  0  0  0  0  0  0  0  0  0
  -24.9609  -18.5110   21.7892 C   0  0  2  0  0  0  0  0  0  0  0  0
  -28.1138  -27.1981   17.5960 C   0  0  0  0  0  0  0  0  0  0  0  0
  -29.2826  -30.3057   29.6013 C   0  0  0  0  0  0  0  0  0  0  0  0
  -25.6926  -31.3081   24.1261 C   0  0  0  0  0  0  0  0  0  0  0  0
  -27.6863  -31.8962   25.5216 C   0  0  0  0  0  0  0  0  0  0  0  0
  -25.3878  -32.2097   26.4388 C   0  0  0  0  0  0  0  0  0  0  0  0
  -27.9049  -26.7617   29.7334 C   0  0  0  0  0  0  0  0  0  0  0  0
  -28.2068  -22.2768   20.5297 C   0  0  0  0  0  0  0  0  0  0  0  0
  -26.0315  -22.9778   18.6796 C   0  0  0  0  0  0  0  0  0  0  0  0
  -24.6460  -23.5947   18.9501 C   0  0  0  0  0  0  0  0  0  0  0  0
  -23.4744  -22.6526   18.6812 C   0  0  0  0  0  0  0  0  0  0  0  0
  -27.2620  -22.3022   21.7263 C   0  0  0  0  0  0  0  0  0  1  0  0
  -26.3104  -29.8701   26.1796 C   0  0  1  0  0  0  0  0  0  0  0  0
  -28.2598  -29.2060   29.3621 C   0  0  2  0  0  0  0  0  0  0  0  0
  -26.2653  -31.2944   25.5575 C   0  0  0  0  0  0  0  0  0  0  0  0
  -25.0452  -16.1315   21.1465 N   0  0  0  0  0  0  0  0  0  0  0  0
  -27.1284  -25.0675   18.1898 N   0  0  0  0  0  0  0  0  0  0  0  0
  -25.7090  -17.2922   21.2816 N   0  0  0  0  0  0  0  0  0  0  0  0
  -24.8164  -28.0136   25.5125 N   0  0  0  0  0  0  0  0  0  0  0  0
  -23.1256  -20.1075   21.3755 N   0  0  0  0  0  0  0  0  0  0  0  0
  -27.8371  -18.2944   21.0039 N   0  0  0  0  0  0  0  0  0  0  0  0
  -28.5220  -14.0206   19.7150 N   0  0  0  0  0  0  0  0  0  0  0  0
  -21.6742  -27.4980   23.7357 N   0  0  0  0  0  0  0  0  0  0  0  0
  -26.8231  -29.8304   27.5448 N   0  0  0  0  0  0  0  0  0  0  0  0
  -23.5464  -21.4420   19.4688 N   0  0  0  0  0  0  0  0  0  0  0  0
  -28.8163  -27.9253   29.8827 N   0  3  0  0  0  0  0  0  0  0  0  0
  -29.5277  -16.0602   20.0105 O   0  0  0  0  0  0  0  0  0  0  0  0
  -23.6826  -28.5909   23.2950 O   0  0  0  0  0  0  0  0  0  0  0  0
  -24.0418  -29.7501   26.8619 O   0  0  0  0  0  0  0  0  0  0  0  0
  -28.5767  -28.3752   27.1156 O   0  0  0  0  0  0  0  0  0  0  0  0
  -22.3607  -22.2924   21.2374 O   0  0  0  0  0  0  0  0  0  0  0  0
  -24.7101   -9.9591   19.6171 O   0  0  0  0  0  0  0  0  0  0  0  0
  -27.6360  -23.3553   22.6137 O   0  0  0  0  0  0  0  0  0  1  0  0
  -21.6863   -7.2495   23.3479 F   0  0  0  0  0  0  0  0  0  0  0  0
  -25.6848   -7.6862   20.8525 F   0  0  0  0  0  0  0  0  0  0  0  0
  1  2  1  0  0  0  0
  1  5  2  0  0  0  0
  2  6  2  0  0  0  0
  3  9  2  0  0  0  0
  3 17  1  0  0  0  0
  4 10  1  0  0  0  0
  4 17  2  0  0  0  0
  5 19  1  0  0  0  0
  6 21  1  0  0  0  0
  7 11  2  0  0  0  0
  7 20  1  0  0  0  0
  8 14  2  0  0  0  0
  8 23  1  0  0  0  0
  9 24  1  0  0  0  0
 10 24  2  0  0  0  0
 11 25  1  0  0  0  0
 12 13  2  0  0  0  0
 12 26  1  0  0  0  0
 13 27  1  0  0  0  0
 14 30  1  0  0  0  0
 15 22  1  0  0  0  0
 15 25  2  0  0  0  0
 16 27  2  0  0  0  0
 16 28  1  0  0  0  0
 17 29  1  0  0  0  0
 18 29  1  0  0  0  0
 18 32  2  0  0  0  0
 18 33  1  0  0  0  0
 19 21  2  0  0  0  0
 19 38  1  0  0  0  0
 20 22  2  0  0  0  0
 20 39  1  0  0  0  0
 21 47  1  0  0  0  0
 22 40  1  0  0  0  0
 23 31  2  0  0  0  0
 23 56  1  0  0  0  0
 24 80  1  0  0  0  0
 25 81  1  0  0  0  0
 26 28  2  0  0  0  0
 26 80  1  0  0  0  0
 27 82  1  0  0  0  0
 28 83  1  0  0  0  0
 29 64  2  0  0  0  0
 30 50  1  0  0  0  0
 30 65  2  0  0  0  0
 31 57  1  0  0  0  0
 31 65  1  0  0  0  0
 32 66  1  0  0  0  0
 32 69  1  0  0  0  0
 33 70  1  0  0  0  0
 33 75  2  0  0  0  0
 34 48  1  0  0  0  0
 34 71  1  0  0  0  0
 34 76  2  0  0  0  0
 35 61  1  0  0  0  0
 35 67  1  0  0  0  0
 35 77  2  0  0  0  0
 36 62  1  0  0  0  0
 36 72  1  0  0  0  0
 36 78  2  0  0  0  0
 37 68  1  0  0  0  0
 37 73  1  0  0  0  0
 37 79  2  0  0  0  0
 38 41  1  0  0  0  0
 39 48  1  0  0  0  0
 40 67  1  0  0  0  0
 41 43  1  0  0  0  0
 42 44  1  0  0  0  0
 42 45  1  0  0  0  0
 43 47  1  0  0  0  0
 44 49  1  0  0  0  0
 45 68  1  0  0  0  0
 46 49  1  0  0  0  0
 46 68  1  0  0  0  0
 47 71  1  0  0  0  0
 48 67  1  0  0  0  0
 49 66  1  0  0  0  0
 51 62  1  0  0  0  0
 52 63  1  0  0  0  0
 53 63  1  0  0  0  0
 54 63  1  0  0  0  0
 55 74  1  0  0  0  0
 56 60  1  0  0  0  0
 57 58  1  0  0  0  0
 58 59  1  0  0  0  0
 59 73  1  0  0  0  0
 60 81  1  0  0  0  0
 61 63  1  0  0  0  0
 61 72  1  0  0  0  0
 62 74  1  0  0  0  0
 64 66  1  0  0  0  0
M  CHG  1  74   1
M  ISO  4  37 100  60 101  73 100  81 101
M  END
> <Batch ID>
0046

> <Smiles>
CNC(C)C(=O)NC(C(=O)N1Cc2cc([101O:1][101CH2:1]Cc3ccc(C)nc3CCC[100NH:0][100C:0](=O)N3CCCC(n4nc(-c5ccc(Oc6ccc(F)cc6F)cc5)c(C(N)=O)c4N)C3)ccc2CC1C(=O)NC1CCCc2ccccc21)C(C)(C)C

> <Shape>
0.208

> <Color>
0.082

> <Negative vol penalty>
0.000

$$$$

  -OEChem-04052317213D

 85 93  0     1  0  0  0  0  0999 V2000
  -18.8665  -33.7034   21.1811 C   0  0  0  0  0  0  0  0  0  0  0  0
  -20.2300  -33.5327   20.9642 C   0  0  0  0  0  0  0  0  0  0  0  0
  -27.4805  -11.6066   21.7346 C   0  0  0  0  0  0  0  0  0  0  0  0
  -26.7887  -12.3716   19.5498 C   0  0  0  0  0  0  0  0  0  0  0  0
  -18.1923  -32.8641   22.0671 C   0  0  0  0  0  0  0  0  0  0  0  0
  -20.9204  -32.5233   21.6341 C   0  0  0  0  0  0  0  0  0  0  0  0
  -25.6053  -29.2158   19.4851 C   0  0  0  0  0  0  0  0  0  0  0  0
  -26.4088  -10.7142   21.7615 C   0  0  0  0  0  0  0  0  0  0  0  0
  -25.7170  -11.4792   19.5767 C   0  0  0  0  0  0  0  0  0  0  0  0
  -26.9850  -29.3230   19.6547 C   0  0  0  0  0  0  0  0  0  0  0  0
  -22.6478  -11.3136   20.9851 C   0  0  0  0  0  0  0  0  0  0  0  0
  -21.3995  -11.7877   20.5819 C   0  0  0  0  0  0  0  0  0  0  0  0
  -26.8870  -27.6943   21.4315 C   0  0  0  0  0  0  0  0  0  0  0  0
  -21.3400  -10.1340   18.8215 C   0  0  0  0  0  0  0  0  0  0  0  0
  -27.6705  -12.4353   20.6288 C   0  0  0  0  0  0  0  0  0  0  0  0
  -30.0726  -13.1163   20.1056 C   0  0  0  0  0  0  0  0  0  0  0  0
  -18.8729  -31.8377   22.7409 C   0  0  0  0  0  0  0  0  0  0  0  0
  -24.8533  -28.3536   20.2960 C   0  0  0  0  0  0  0  0  0  0  0  0
  -20.2550  -31.6703   22.5310 C   0  0  0  0  0  0  0  0  0  0  0  0
  -25.4982  -27.5761   21.2684 C   0  0  0  0  0  0  0  0  0  0  0  0
  -25.5271  -10.6505   20.6826 C   0  0  0  0  0  0  0  0  0  0  0  0
  -27.6256  -28.5643   20.6299 C   0  0  0  0  0  0  0  0  0  0  0  0
  -23.2423  -10.2498   20.3064 C   0  0  0  0  0  0  0  0  0  0  0  0
  -20.7456  -11.1979   19.5001 C   0  0  0  0  0  0  0  0  0  0  0  0
  -22.5884   -9.6600   19.2247 C   0  0  0  0  0  0  0  0  0  0  0  0
  -28.7771  -13.3577   20.6006 C   0  0  0  0  0  0  0  0  0  0  0  0
  -29.4360  -23.9306   17.6052 C   0  0  0  0  0  0  0  0  0  0  0  0
  -29.8481  -26.1669   17.3636 C   0  0  0  0  0  0  0  0  0  0  0  0
  -30.0781  -23.9439   18.8239 C   0  0  0  0  0  0  0  0  0  0  0  0
  -30.4896  -26.1805   18.5825 C   0  0  0  0  0  0  0  0  0  0  0  0
  -30.7427  -14.2983   20.3064 C   0  0  0  0  0  0  0  0  0  0  0  0
  -30.6213  -11.9296   19.5169 C   0  0  0  0  0  0  0  0  0  0  0  0
  -22.4944  -28.7346   22.3923 C   0  0  0  0  0  0  0  0  0  0  0  0
  -22.4967  -25.4907   22.3955 C   0  0  0  0  0  0  0  0  0  0  0  0
  -24.2156  -22.5942   21.8460 C   0  0  0  0  0  0  0  0  0  0  0  0
  -28.8465  -19.8744   20.7142 C   0  0  0  0  0  0  0  0  0  0  0  0
  -18.1110  -30.9856   23.7249 C   0  0  0  0  0  0  0  0  0  0  0  0
  -23.3696  -28.2296   20.0825 C   0  0  0  0  0  0  0  0  0  0  0  0
  -24.7393  -26.6206   22.1513 C   0  0  0  0  0  0  0  0  0  0  0  0
  -18.8402  -29.7014   24.1110 C   0  0  0  0  0  0  0  0  0  0  0  0
  -30.8171  -18.1177   23.1898 C   0  0  0  0  0  0  0  0  0  0  0  0
  -20.3011  -29.9946   24.4377 C   0  0  0  0  0  0  0  0  0  0  0  0
  -30.6341  -16.6644   22.7488 C   0  0  0  0  0  0  0  0  0  0  0  0
  -29.5335  -18.9198   22.9966 C   0  0  0  0  0  0  0  0  0  0  0  0
  -28.8072  -17.4379   21.1663 C   0  0  0  0  0  0  0  0  0  0  0  0
  -21.0338  -30.5709   23.2201 C   0  0  1  0  0  0  0  0  0  0  0  0
  -22.6314  -27.7023   21.3091 C   0  0  1  0  0  0  0  0  0  0  0  0
  -30.0766  -16.5797   21.3155 C   0  0  2  0  0  0  0  0  0  0  0  0
  -28.8451  -22.6794   17.0513 C   0  0  0  0  0  0  0  0  0  0  0  0
  -29.7152  -27.4032   16.5415 C   0  0  0  0  0  0  0  0  0  0  0  0
  -32.5216  -27.6499   18.6286 C   0  0  0  0  0  0  0  0  0  0  0  0
  -23.9645  -20.1005   21.9711 C   0  0  0  0  0  0  0  0  0  0  0  0
  -22.7641  -25.6186   25.4323 C   0  0  0  0  0  0  0  0  0  0  0  0
  -23.4548  -23.2123   25.4031 C   0  0  0  0  0  0  0  0  0  0  0  0
  -21.1868  -23.8669   24.5968 C   0  0  0  0  0  0  0  0  0  0  0  0
  -24.7104  -22.2825   18.9448 C   0  0  0  0  0  0  0  0  0  0  0  0
  -30.2122  -22.7073   19.6452 C   0  0  0  0  0  0  0  0  0  0  0  0
  -31.0690  -27.5048   20.6869 C   0  0  0  0  0  0  0  0  0  0  0  0
  -28.9357  -22.3354   20.4099 C   0  0  0  0  0  0  0  0  0  0  0  0
  -29.6585  -27.5085   21.2690 C   0  0  0  0  0  0  0  0  0  1  0  0
  -31.0915  -27.4558   19.1469 C   0  0  2  0  0  0  0  0  0  0  0  0
  -23.2112  -24.4229   23.1881 C   0  0  1  0  0  0  0  0  0  0  0  0
  -23.8465  -21.3323   21.0871 C   0  0  2  0  0  0  0  0  0  0  0  0
  -22.6685  -24.2995   24.6399 C   0  0  0  0  0  0  0  0  0  0  0  0
  -28.6306  -14.5958   21.0800 N   0  0  0  0  0  0  0  0  0  0  0  0
  -29.3095  -25.0418   16.8532 N   0  0  0  0  0  0  0  0  0  0  0  0
  -30.6164  -25.0691   19.3344 N   0  0  0  0  0  0  0  0  0  0  0  0
  -29.8429  -15.1428   20.8872 N   0  0  0  0  0  0  0  0  0  0  0  0
  -23.2895  -26.5394   21.9082 N   0  0  0  0  0  0  0  0  0  0  0  0
  -29.0661  -18.8126   21.6074 N   0  0  0  0  0  0  0  0  0  0  0  0
  -32.0079  -14.6872   20.0412 N   0  0  0  0  0  0  0  0  0  0  0  0
  -29.7949  -10.8053   19.3857 N   0  0  0  0  0  0  0  0  0  0  0  0
  -21.3616  -29.5182   22.2826 N   0  0  0  0  0  0  0  0  0  0  0  0
  -23.1084  -23.1961   22.4054 N   0  0  0  0  0  0  0  0  0  0  0  0
  -29.1088  -21.1449   21.2121 N   0  0  0  0  0  0  0  0  0  0  0  0
  -24.7438  -21.1542   19.9107 N   0  3  0  0  0  0  0  0  0  0  0  0
  -31.8139  -11.8630   19.1339 O   0  0  0  0  0  0  0  0  0  0  0  0
  -23.3522  -28.8132   23.2639 O   0  0  0  0  0  0  0  0  0  0  0  0
  -21.2811  -25.3941   22.2094 O   0  0  0  0  0  0  0  0  0  0  0  0
  -25.3711  -23.0029   21.9368 O   0  0  0  0  0  0  0  0  0  0  0  0
  -28.4510  -19.7027   19.5561 O   0  0  0  0  0  0  0  0  0  0  0  0
  -24.4813   -9.7797   20.7084 O   0  0  0  0  0  0  0  0  0  0  0  0
  -28.9721  -28.6675   20.7981 O   0  0  0  0  0  0  0  0  0  1  0  0
  -19.5462  -11.6523   19.1141 F   0  0  0  0  0  0  0  0  0  0  0  0
  -23.1540   -8.6369   18.5696 F   0  0  0  0  0  0  0  0  0  0  0  0
  1  2  1  0  0  0  0
  1  5  2  0  0  0  0
  2  6  2  0  0  0  0
  3  8  2  0  0  0  0
  3 15  1  0  0  0  0
  4  9  1  0  0  0  0
  4 15  2  0  0  0  0
  5 17  1  0  0  0  0
  6 19  1  0  0  0  0
  7 10  2  0  0  0  0
  7 18  1  0  0  0  0
  8 21  1  0  0  0  0
  9 21  2  0  0  0  0
 10 22  1  0  0  0  0
 11 12  2  0  0  0  0
 11 23  1  0  0  0  0
 12 24  1  0  0  0  0
 13 20  1  0  0  0  0
 13 22  2  0  0  0  0
 14 24  2  0  0  0  0
 14 25  1  0  0  0  0
 15 26  1  0  0  0  0
 16 26  1  0  0  0  0
 16 31  2  0  0  0  0
 16 32  1  0  0  0  0
 17 19  2  0  0  0  0
 17 37  1  0  0  0  0
 18 20  2  0  0  0  0
 18 38  1  0  0  0  0
 19 46  1  0  0  0  0
 20 39  1  0  0  0  0
 21 82  1  0  0  0  0
 22 83  1  0  0  0  0
 23 25  2  0  0  0  0
 23 82  1  0  0  0  0
 24 84  1  0  0  0  0
 25 85  1  0  0  0  0
 26 65  2  0  0  0  0
 27 29  1  0  0  0  0
 27 49  1  0  0  0  0
 27 66  2  0  0  0  0
 28 30  2  0  0  0  0
 28 50  1  0  0  0  0
 28 66  1  0  0  0  0
 29 57  1  0  0  0  0
 29 67  2  0  0  0  0
 30 61  1  0  0  0  0
 30 67  1  0  0  0  0
 31 68  1  0  0  0  0
 31 71  1  0  0  0  0
 32 72  1  0  0  0  0
 32 77  2  0  0  0  0
 33 47  1  0  0  0  0
 33 73  1  0  0  0  0
 33 78  2  0  0  0  0
 34 62  1  0  0  0  0
 34 69  1  0  0  0  0
 34 79  2  0  0  0  0
 35 63  1  0  0  0  0
 35 74  1  0  0  0  0
 35 80  2  0  0  0  0
 36 70  1  0  0  0  0
 36 75  1  0  0  0  0
 36 81  2  0  0  0  0
 37 40  1  0  0  0  0
 38 47  1  0  0  0  0
 39 69  1  0  0  0  0
 40 42  1  0  0  0  0
 41 43  1  0  0  0  0
 41 44  1  0  0  0  0
 42 46  1  0  0  0  0
 43 48  1  0  0  0  0
 44 70  1  0  0  0  0
 45 48  1  0  0  0  0
 45 70  1  0  0  0  0
 46 73  1  0  0  0  0
 47 69  1  0  0  0  0
 48 68  1  0  0  0  0
 51 61  1  0  0  0  0
 52 63  1  0  0  0  0
 53 64  1  0  0  0  0
 54 64  1  0  0  0  0
 55 64  1  0  0  0  0
 56 76  1  0  0  0  0
 57 59  1  0  0  0  0
 58 60  1  0  0  0  0
 58 61  1  0  0  0  0
 59 75  1  0  0  0  0
 60 83  1  0  0  0  0
 62 64  1  0  0  0  0
 62 74  1  0  0  0  0
 63 76  1  0  0  0  0
 65 68  1  0  0  0  0
M  CHG  1  76   1
M  ISO  4  36 100  60 101  75 100  83 101
M  END
> <Batch ID>
0046

> <Smiles>
CNC(C)C(=O)NC(C(=O)N1Cc2cc([101O:1][101CH2:1]CC(C)c3nc(CC[100NH:0][100C:0](=O)N4CCCC(n5nc(-c6ccc(Oc7ccc(F)cc7F)cc6)c(C(N)=O)c5N)C4)c(C)nc3C)ccc2CC1C(=O)NC1CCCc2ccccc21)C(C)(C)C

> <Shape>
0.288

> <Color>
0.096

> <Negative vol penalty>
0.000

$$$$

  -OEChem-04052317213D

 84 92  0     1  0  0  0  0  0999 V2000
  -19.1820  -24.4324   24.4260 C   0  0  0  0  0  0  0  0  0  0  0  0
  -20.5674  -24.5559   24.3997 C   0  0  0  0  0  0  0  0  0  0  0  0
  -26.3882  -12.3477   21.6003 C   0  0  0  0  0  0  0  0  0  0  0  0
  -25.9004  -13.3543   19.4588 C   0  0  0  0  0  0  0  0  0  0  0  0
  -18.3835  -25.4319   23.8716 C   0  0  0  0  0  0  0  0  0  0  0  0
  -21.1553  -25.6786   23.8179 C   0  0  0  0  0  0  0  0  0  0  0  0
  -24.9041  -27.5890   26.6359 C   0  0  0  0  0  0  0  0  0  0  0  0
  -25.1728  -11.6647   21.5561 C   0  0  0  0  0  0  0  0  0  0  0  0
  -24.6850  -12.6713   19.4146 C   0  0  0  0  0  0  0  0  0  0  0  0
  -26.1328  -26.9316   26.5913 C   0  0  0  0  0  0  0  0  0  0  0  0
  -23.9146   -8.9143   20.0443 C   0  0  0  0  0  0  0  0  0  0  0  0
  -23.9171   -7.5636   20.3924 C   0  0  0  0  0  0  0  0  0  0  0  0
  -26.9546  -28.5852   25.0391 C   0  0  0  0  0  0  0  0  0  0  0  0
  -22.3647   -8.0230   22.1858 C   0  0  0  0  0  0  0  0  0  0  0  0
  -27.1070  -25.0871   22.5510 C   0  0  0  0  0  0  0  0  0  0  0  0
  -26.7520  -13.1926   20.5516 C   0  0  0  0  0  0  0  0  0  0  0  0
  -29.2498  -13.4562   20.1056 C   0  0  0  0  0  0  0  0  0  0  0  0
  -18.9616  -26.5720   23.2913 C   0  0  0  0  0  0  0  0  0  0  0  0
  -24.6876  -28.7453   25.8727 C   0  0  0  0  0  0  0  0  0  0  0  0
  -20.3638  -26.6936   23.2540 C   0  0  0  0  0  0  0  0  0  0  0  0
  -25.7231  -29.2569   25.0777 C   0  0  0  0  0  0  0  0  0  0  0  0
  -28.2727  -24.4304   22.9887 C   0  0  0  0  0  0  0  0  0  0  0  0
  -24.3212  -11.8265   20.4633 C   0  0  0  0  0  0  0  0  0  0  0  0
  -27.1573  -27.4280   25.7906 C   0  0  0  0  0  0  0  0  0  0  0  0
  -23.1373   -9.8194   20.7670 C   0  0  0  0  0  0  0  0  0  0  0  0
  -23.1421   -7.1179   21.4631 C   0  0  0  0  0  0  0  0  0  0  0  0
  -22.3623   -9.3737   21.8377 C   0  0  0  0  0  0  0  0  0  0  0  0
  -28.0070  -13.8988   20.5970 C   0  0  0  0  0  0  0  0  0  0  0  0
  -28.0753  -23.1152   22.6455 C   0  0  0  0  0  0  0  0  0  0  0  0
  -30.1168  -14.4829   20.3897 C   0  0  0  0  0  0  0  0  0  0  0  0
  -29.5900  -12.2270   19.4507 C   0  0  0  0  0  0  0  0  0  0  0  0
  -22.7024  -29.5419   23.5214 C   0  0  0  0  0  0  0  0  0  0  0  0
  -24.0102  -32.4810   23.9378 C   0  0  0  0  0  0  0  0  0  0  0  0
  -26.6511  -34.3495   25.0248 C   0  0  0  0  0  0  0  0  0  0  0  0
  -29.4535  -20.2041   21.0497 C   0  0  0  0  0  0  0  0  0  0  0  0
  -18.0588  -27.6036   22.6625 C   0  0  0  0  0  0  0  0  0  0  0  0
  -23.3653  -29.4579   25.9524 C   0  0  0  0  0  0  0  0  0  0  0  0
  -25.5481  -30.5063   24.2549 C   0  0  0  0  0  0  0  0  0  0  0  0
  -18.7502  -28.9389   22.3995 C   0  0  0  0  0  0  0  0  0  0  0  0
  -30.8262  -18.0485   23.4872 C   0  0  0  0  0  0  0  0  0  0  0  0
  -20.1080  -28.7163   21.7410 C   0  0  0  0  0  0  0  0  0  0  0  0
  -30.3690  -16.6831   22.9756 C   0  0  0  0  0  0  0  0  0  0  0  0
  -29.7421  -19.1156   23.3243 C   0  0  0  0  0  0  0  0  0  0  0  0
  -28.7558  -17.8594   21.4344 C   0  0  0  0  0  0  0  0  0  0  0  0
  -21.0381  -27.9083   22.6540 C   0  0  1  0  0  0  0  0  0  0  0  0
  -23.0862  -30.3371   24.7372 C   0  0  1  0  0  0  0  0  0  0  0  0
  -29.8479  -16.7830   21.5315 C   0  0  2  0  0  0  0  0  0  0  0  0
  -31.9802  -24.2879   20.5610 C   0  0  0  0  0  0  0  0  0  0  0  0
  -27.4454  -36.7235   25.1989 C   0  0  0  0  0  0  0  0  0  0  0  0
  -24.6364  -32.4879   20.9516 C   0  0  0  0  0  0  0  0  0  0  0  0
  -26.2250  -34.3794   21.3599 C   0  0  0  0  0  0  0  0  0  0  0  0
  -23.7952  -34.6666   21.8461 C   0  0  0  0  0  0  0  0  0  0  0  0
  -26.1935  -21.8973   21.5093 C   0  0  0  0  0  0  0  0  0  0  0  0
  -26.8075  -34.2029   27.9766 C   0  0  0  0  0  0  0  0  0  0  0  0
  -29.4669  -25.0396   23.6789 C   0  0  0  0  0  0  0  0  0  0  0  0
  -28.9239  -21.9227   22.8303 C   0  0  0  0  0  0  0  0  0  0  0  0
  -31.3986  -23.1548   21.3949 C   0  0  0  0  0  0  0  0  0  0  0  0
  -29.5160  -24.7635   25.1832 C   0  0  0  0  0  0  0  0  0  0  0  0
  -30.1393  -22.5567   20.7793 C   0  0  0  0  0  0  0  0  0  0  0  0
  -28.3481  -25.3754   25.9479 C   0  0  0  0  0  0  0  0  0  1  0  0
  -25.1997  -33.2129   23.3647 C   0  0  1  0  0  0  0  0  0  0  0  0
  -26.7162  -35.5880   25.9001 C   0  0  2  0  0  0  0  0  0  0  0  0
  -24.9670  -33.6620   21.8945 C   0  0  0  0  0  0  0  0  0  0  0  0
  -26.2338  -24.2576   21.9736 N   0  0  0  0  0  0  0  0  0  0  0  0
  -28.0743  -15.1121   21.1514 N   0  0  0  0  0  0  0  0  0  0  0  0
  -26.8512  -23.0661   22.0461 N   0  0  0  0  0  0  0  0  0  0  0  0
  -29.3698  -15.4406   21.0102 N   0  0  0  0  0  0  0  0  0  0  0  0
  -24.2351  -31.1636   24.3616 N   0  0  0  0  0  0  0  0  0  0  0  0
  -29.2394  -19.1448   21.9440 N   0  0  0  0  0  0  0  0  0  0  0  0
  -31.4376  -14.6508   20.1670 N   0  0  0  0  0  0  0  0  0  0  0  0
  -28.5780  -11.2811   19.2375 N   0  0  0  0  0  0  0  0  0  0  0  0
  -21.5818  -28.7525   23.6962 N   0  0  0  0  0  0  0  0  0  0  0  0
  -25.4881  -34.3072   24.2853 N   0  0  0  0  0  0  0  0  0  0  0  0
  -29.5759  -21.4906   21.5957 N   0  0  0  0  0  0  0  0  0  0  0  0
  -27.4303  -35.2859   27.1728 N   0  3  0  0  0  0  0  0  0  0  0  0
  -30.7603  -11.9679   19.0807 O   0  0  0  0  0  0  0  0  0  0  0  0
  -23.3724  -29.6386   22.5000 O   0  0  0  0  0  0  0  0  0  0  0  0
  -22.9233  -33.0595   24.0135 O   0  0  0  0  0  0  0  0  0  0  0  0
  -27.5444  -33.5058   24.9969 O   0  0  0  0  0  0  0  0  0  0  0  0
  -29.5236  -20.0132   19.8288 O   0  0  0  0  0  0  0  0  0  0  0  0
  -23.1353  -11.1599   20.4197 O   0  0  0  0  0  0  0  0  0  0  0  0
  -28.3573  -26.7878   25.7448 O   0  0  0  0  0  0  0  0  0  1  0  0
  -23.1434   -5.8206   21.7963 F   0  0  0  0  0  0  0  0  0  0  0  0
  -21.6125  -10.2383   22.5350 F   0  0  0  0  0  0  0  0  0  0  0  0
  1  2  1  0  0  0  0
  1  5  2  0  0  0  0
  2  6  2  0  0  0  0
  3  8  2  0  0  0  0
  3 16  1  0  0  0  0
  4  9  1  0  0  0  0
  4 16  2  0  0  0  0
  5 18  1  0  0  0  0
  6 20  1  0  0  0  0
  7 10  2  0  0  0  0
  7 19  1  0  0  0  0
  8 23  1  0  0  0  0
  9 23  2  0  0  0  0
 10 24  1  0  0  0  0
 11 12  2  0  0  0  0
 11 25  1  0  0  0  0
 12 26  1  0  0  0  0
 13 21  1  0  0  0  0
 13 24  2  0  0  0  0
 14 26  2  0  0  0  0
 14 27  1  0  0  0  0
 15 22  1  0  0  0  0
 15 64  2  0  0  0  0
 16 28  1  0  0  0  0
 17 28  1  0  0  0  0
 17 30  2  0  0  0  0
 17 31  1  0  0  0  0
 18 20  2  0  0  0  0
 18 36  1  0  0  0  0
 19 21  2  0  0  0  0
 19 37  1  0  0  0  0
 20 45  1  0  0  0  0
 21 38  1  0  0  0  0
 22 29  2  0  0  0  0
 22 55  1  0  0  0  0
 23 81  1  0  0  0  0
 24 82  1  0  0  0  0
 25 27  2  0  0  0  0
 25 81  1  0  0  0  0
 26 83  1  0  0  0  0
 27 84  1  0  0  0  0
 28 65  2  0  0  0  0
 29 56  1  0  0  0  0
 29 66  1  0  0  0  0
 30 67  1  0  0  0  0
 30 70  1  0  0  0  0
 31 71  1  0  0  0  0
 31 76  2  0  0  0  0
 32 46  1  0  0  0  0
 32 72  1  0  0  0  0
 32 77  2  0  0  0  0
 33 61  1  0  0  0  0
 33 68  1  0  0  0  0
 33 78  2  0  0  0  0
 34 62  1  0  0  0  0
 34 73  1  0  0  0  0
 34 79  2  0  0  0  0
 35 69  1  0  0  0  0
 35 74  1  0  0  0  0
 35 80  2  0  0  0  0
 36 39  1  0  0  0  0
 37 46  1  0  0  0  0
 38 68  1  0  0  0  0
 39 41  1  0  0  0  0
 40 42  1  0  0  0  0
 40 43  1  0  0  0  0
 41 45  1  0  0  0  0
 42 47  1  0  0  0  0
 43 69  1  0  0  0  0
 44 47  1  0  0  0  0
 44 69  1  0  0  0  0
 45 72  1  0  0  0  0
 46 68  1  0  0  0  0
 47 67  1  0  0  0  0
 48 57  1  0  0  0  0
 49 62  1  0  0  0  0
 50 63  1  0  0  0  0
 51 63  1  0  0  0  0
 52 63  1  0  0  0  0
 53 66  1  0  0  0  0
 54 75  1  0  0  0  0
 55 58  1  0  0  0  0
 56 74  1  0  0  0  0
 57 59  1  0  0  0  0
 58 60  1  0  0  0  0
 59 74  1  0  0  0  0
 60 82  1  0  0  0  0
 61 63  1  0  0  0  0
 61 73  1  0  0  0  0
 62 75  1  0  0  0  0
 64 66  1  0  0  0  0
 65 67  1  0  0  0  0
M  CHG  1  75   1
M  ISO  4  35 100  60 101  74 100  82 101
M  END
> <Batch ID>
0046

> <Smiles>
CCC[100N:0](Cc1c(CC[101CH2:1][101O:1]c2ccc3c(c2)CN(C(=O)C(NC(=O)C(C)NC)C(C)(C)C)C(C(=O)NC2CCCc4ccccc42)C3)cnn1C)[100C:0](=O)N1CCCC(n2nc(-c3ccc(Oc4ccc(F)cc4F)cc3)c(C(N)=O)c2N)C1

> <Shape>
0.281

> <Color>
0.113

> <Negative vol penalty>
0.000

$$$$

  -OEChem-04052317213D

 83 91  0     1  0  0  0  0  0999 V2000
  -20.0842  -33.6972   23.6906 C   0  0  0  0  0  0  0  0  0  0  0  0
  -21.3600  -33.3160   23.2876 C   0  0  0  0  0  0  0  0  0  0  0  0
  -26.7099  -14.0952   22.1040 C   0  0  0  0  0  0  0  0  0  0  0  0
  -26.7430  -12.8900   20.0103 C   0  0  0  0  0  0  0  0  0  0  0  0
  -19.1902  -32.7399   24.1683 C   0  0  0  0  0  0  0  0  0  0  0  0
  -21.7429  -31.9773   23.3631 C   0  0  0  0  0  0  0  0  0  0  0  0
  -25.4471  -28.9849   19.5121 C   0  0  0  0  0  0  0  0  0  0  0  0
  -26.0483  -13.0265   22.7087 C   0  0  0  0  0  0  0  0  0  0  0  0
  -26.0815  -11.8212   20.6151 C   0  0  0  0  0  0  0  0  0  0  0  0
  -26.8015  -28.6603   19.5754 C   0  0  0  0  0  0  0  0  0  0  0  0
  -22.9206  -11.0434   21.5288 C   0  0  0  0  0  0  0  0  0  0  0  0
  -21.8553  -10.4661   20.8379 C   0  0  0  0  0  0  0  0  0  0  0  0
  -26.2324  -26.4792   20.4347 C   0  0  0  0  0  0  0  0  0  0  0  0
  -23.0132   -8.3456   20.8244 C   0  0  0  0  0  0  0  0  0  0  0  0
  -29.9235  -24.3807   19.1531 C   0  0  0  0  0  0  0  0  0  0  0  0
  -30.0928  -25.2259   16.9821 C   0  0  0  0  0  0  0  0  0  0  0  0
  -27.0572  -14.0270   20.7547 C   0  0  0  0  0  0  0  0  0  0  0  0
  -29.1310  -15.3281   20.0376 C   0  0  0  0  0  0  0  0  0  0  0  0
  -19.5590  -31.3874   24.2406 C   0  0  0  0  0  0  0  0  0  0  0  0
  -24.4740  -28.0615   19.9205 C   0  0  0  0  0  0  0  0  0  0  0  0
  -20.8535  -31.0012   23.8435 C   0  0  0  0  0  0  0  0  0  0  0  0
  -24.8662  -26.7937   20.3731 C   0  0  0  0  0  0  0  0  0  0  0  0
  -30.1970  -25.4601   18.3380 C   0  0  0  0  0  0  0  0  0  0  0  0
  -25.7341  -11.8895   21.9643 C   0  0  0  0  0  0  0  0  0  0  0  0
  -27.1944  -27.4084   20.0395 C   0  0  0  0  0  0  0  0  0  0  0  0
  -24.0323  -10.2719   21.8675 C   0  0  0  0  0  0  0  0  0  0  0  0
  -21.9016   -9.1172   20.4857 C   0  0  0  0  0  0  0  0  0  0  0  0
  -24.0786   -8.9230   21.5153 C   0  0  0  0  0  0  0  0  0  0  0  0
  -27.7402  -15.1309   20.1293 C   0  0  0  0  0  0  0  0  0  0  0  0
  -29.2656  -16.5132   19.3565 C   0  0  0  0  0  0  0  0  0  0  0  0
  -29.5067  -23.0607   17.3501 C   0  0  0  0  0  0  0  0  0  0  0  0
  -30.2053  -14.5128   20.5244 C   0  0  0  0  0  0  0  0  0  0  0  0
  -22.2447  -28.0064   22.1856 C   0  0  0  0  0  0  0  0  0  0  0  0
  -21.3935  -25.2323   20.7356 C   0  0  0  0  0  0  0  0  0  0  0  0
  -22.3038  -22.5868   18.7813 C   0  0  0  0  0  0  0  0  0  0  0  0
  -27.5614  -19.5534   14.8655 C   0  0  0  0  0  0  0  0  0  0  0  0
  -18.5745  -30.3958   24.8083 C   0  0  0  0  0  0  0  0  0  0  0  0
  -23.0160  -28.4173   19.8209 C   0  0  0  0  0  0  0  0  0  0  0  0
  -23.8599  -25.7593   20.8043 C   0  0  0  0  0  0  0  0  0  0  0  0
  -18.9300  -28.9426   24.5048 C   0  0  0  0  0  0  0  0  0  0  0  0
  -25.8552  -20.0241   18.1165 C   0  0  0  0  0  0  0  0  0  0  0  0
  -20.4076  -28.6851   24.7830 C   0  0  0  0  0  0  0  0  0  0  0  0
  -26.2573  -18.7686   18.8885 C   0  0  0  0  0  0  0  0  0  0  0  0
  -25.8309  -19.7805   16.6106 C   0  0  0  0  0  0  0  0  0  0  0  0
  -27.5056  -17.9759   16.8406 C   0  0  0  0  0  0  0  0  0  0  0  0
  -21.2974  -29.5551   23.8871 C   0  0  1  0  0  0  0  0  0  0  0  0
  -22.1335  -27.5865   20.7472 C   0  0  1  0  0  0  0  0  0  0  0  0
  -27.5850  -18.2001   18.3582 C   0  0  2  0  0  0  0  0  0  0  0  0
  -21.4024  -20.4601   17.8003 C   0  0  0  0  0  0  0  0  0  0  0  0
  -21.6061  -23.8859   23.4654 C   0  0  0  0  0  0  0  0  0  0  0  0
  -21.6401  -21.6735   22.2940 C   0  0  0  0  0  0  0  0  0  0  0  0
  -19.6458  -23.1585   22.0933 C   0  0  0  0  0  0  0  0  0  0  0  0
  -29.4906  -19.9364   13.3785 C   0  0  0  0  0  0  0  0  0  0  0  0
  -22.7744  -23.5270   16.0148 C   0  0  0  0  0  0  0  0  0  0  0  0
  -30.5873  -26.8081   18.8938 C   0  0  0  0  0  0  0  0  0  0  0  0
  -29.1266  -21.7277   16.8006 C   0  0  0  0  0  0  0  0  0  0  0  0
  -30.3121  -20.8887   16.2834 C   0  0  0  0  0  0  0  0  0  0  0  0
  -29.9247  -19.5043   15.7682 C   0  0  0  0  0  0  0  0  0  0  0  0
  -29.3789  -27.7030   19.1466 C   0  0  0  0  0  0  0  0  0  1  0  0
  -21.7812  -23.7817   20.8916 C   0  0  1  0  0  0  0  0  0  0  0  0
  -21.6356  -21.9464   17.5780 C   0  0  2  0  0  0  0  0  0  0  0  0
  -21.1876  -23.1449   22.1798 C   0  0  0  0  0  0  0  0  0  0  0  0
  -29.5741  -23.1621   18.6912 N   0  0  0  0  0  0  0  0  0  0  0  0
  -29.7489  -24.0340   16.4515 N   0  0  0  0  0  0  0  0  0  0  0  0
  -27.0411  -16.1122   19.5528 N   0  0  0  0  0  0  0  0  0  0  0  0
  -27.9966  -16.9375   19.0923 N   0  0  0  0  0  0  0  0  0  0  0  0
  -22.4467  -26.1570   20.6943 N   0  0  0  0  0  0  0  0  0  0  0  0
  -27.0890  -19.2000   16.1402 N   0  0  0  0  0  0  0  0  0  0  0  0
  -30.3445  -17.2234   18.9640 N   0  0  0  0  0  0  0  0  0  0  0  0
  -29.8901  -13.3275   21.2026 N   0  0  0  0  0  0  0  0  0  0  0  0
  -21.3611  -29.0042   22.5503 N   0  0  0  0  0  0  0  0  0  0  0  0
  -21.3796  -23.1168   19.6567 N   0  0  0  0  0  0  0  0  0  0  0  0
  -28.9520  -19.5653   14.6793 N   0  0  0  0  0  0  0  0  0  0  0  0
  -22.4847  -22.1125   16.3646 N   0  3  0  0  0  0  0  0  0  0  0  0
  -31.4088  -14.8344   20.3771 O   0  0  0  0  0  0  0  0  0  0  0  0
  -23.0699  -27.4641   22.9113 O   0  0  0  0  0  0  0  0  0  0  0  0
  -20.2006  -25.5332   20.6462 O   0  0  0  0  0  0  0  0  0  0  0  0
  -23.5233  -22.6109   18.9316 O   0  0  0  0  0  0  0  0  0  0  0  0
  -26.7847  -19.8512   13.9490 O   0  0  0  0  0  0  0  0  0  0  0  0
  -25.0888  -10.8464   22.5542 O   0  0  0  0  0  0  0  0  0  0  0  0
  -28.5158  -27.0892   20.1029 O   0  0  0  0  0  0  0  0  0  1  0  0
  -20.8778   -8.5625   19.8235 F   0  0  0  0  0  0  0  0  0  0  0  0
  -25.1433   -8.1765   21.8390 F   0  0  0  0  0  0  0  0  0  0  0  0
  1  2  1  0  0  0  0
  1  5  2  0  0  0  0
  2  6  2  0  0  0  0
  3  8  2  0  0  0  0
  3 17  1  0  0  0  0
  4  9  1  0  0  0  0
  4 17  2  0  0  0  0
  5 19  1  0  0  0  0
  6 21  1  0  0  0  0
  7 10  2  0  0  0  0
  7 20  1  0  0  0  0
  8 24  1  0  0  0  0
  9 24  2  0  0  0  0
 10 25  1  0  0  0  0
 11 12  2  0  0  0  0
 11 26  1  0  0  0  0
 12 27  1  0  0  0  0
 13 22  1  0  0  0  0
 13 25  2  0  0  0  0
 14 27  2  0  0  0  0
 14 28  1  0  0  0  0
 15 23  1  0  0  0  0
 15 63  2  0  0  0  0
 16 23  2  0  0  0  0
 16 64  1  0  0  0  0
 17 29  1  0  0  0  0
 18 29  1  0  0  0  0
 18 30  2  0  0  0  0
 18 32  1  0  0  0  0
 19 21  2  0  0  0  0
 19 37  1  0  0  0  0
 20 22  2  0  0  0  0
 20 38  1  0  0  0  0
 21 46  1  0  0  0  0
 22 39  1  0  0  0  0
 23 55  1  0  0  0  0
 24 80  1  0  0  0  0
 25 81  1  0  0  0  0
 26 28  2  0  0  0  0
 26 80  1  0  0  0  0
 27 82  1  0  0  0  0
 28 83  1  0  0  0  0
 29 65  2  0  0  0  0
 30 66  1  0  0  0  0
 30 69  1  0  0  0  0
 31 56  1  0  0  0  0
 31 63  1  0  0  0  0
 31 64  2  0  0  0  0
 32 70  1  0  0  0  0
 32 75  2  0  0  0  0
 33 47  1  0  0  0  0
 33 71  1  0  0  0  0
 33 76  2  0  0  0  0
 34 60  1  0  0  0  0
 34 67  1  0  0  0  0
 34 77  2  0  0  0  0
 35 61  1  0  0  0  0
 35 72  1  0  0  0  0
 35 78  2  0  0  0  0
 36 68  1  0  0  0  0
 36 73  1  0  0  0  0
 36 79  2  0  0  0  0
 37 40  1  0  0  0  0
 38 47  1  0  0  0  0
 39 67  1  0  0  0  0
 40 42  1  0  0  0  0
 41 43  1  0  0  0  0
 41 44  1  0  0  0  0
 42 46  1  0  0  0  0
 43 48  1  0  0  0  0
 44 68  1  0  0  0  0
 45 48  1  0  0  0  0
 45 68  1  0  0  0  0
 46 71  1  0  0  0  0
 47 67  1  0  0  0  0
 48 66  1  0  0  0  0
 49 61  1  0  0  0  0
 50 62  1  0  0  0  0
 51 62  1  0  0  0  0
 52 62  1  0  0  0  0
 53 73  1  0  0  0  0
 54 74  1  0  0  0  0
 55 59  1  0  0  0  0
 56 57  1  0  0  0  0
 57 58  1  0  0  0  0
 58 73  1  0  0  0  0
 59 81  1  0  0  0  0
 60 62  1  0  0  0  0
 60 72  1  0  0  0  0
 61 74  1  0  0  0  0
 65 66  1  0  0  0  0
M  CHG  1  74   1
M  ISO  4  36 100  59 101  73 100  81 101
M  END
> <Batch ID>
0046

> <Smiles>
CNC(C)C(=O)NC(C(=O)N1Cc2cc([101O:1][101CH2:1]Cc3cnc(CCC[100N:0](C)[100C:0](=O)N4CCCC(n5nc(-c6ccc(Oc7ccc(F)cc7F)cc6)c(C(N)=O)c5N)C4)nc3)ccc2CC1C(=O)NC1CCCc2ccccc21)C(C)(C)C

> <Shape>
0.224

> <Color>
0.105

> <Negative vol penalty>
0.000

$$$$

  -OEChem-04052317213D

 82 90  0     1  0  0  0  0  0999 V2000
  -28.6933  -36.4290   21.2493 C   0  0  0  0  0  0  0  0  0  0  0  0
  -28.8762  -35.0512   21.3085 C   0  0  0  0  0  0  0  0  0  0  0  0
  -26.4900  -11.7075   21.1443 C   0  0  0  0  0  0  0  0  0  0  0  0
  -25.2168  -13.3741   19.9449 C   0  0  0  0  0  0  0  0  0  0  0  0
  -27.5611  -37.0061   21.8231 C   0  0  0  0  0  0  0  0  0  0  0  0
  -27.9276  -34.2497   21.9426 C   0  0  0  0  0  0  0  0  0  0  0  0
  -26.7959  -30.0977   19.2732 C   0  0  0  0  0  0  0  0  0  0  0  0
  -25.3155  -11.2272   21.7236 C   0  0  0  0  0  0  0  0  0  0  0  0
  -24.0423  -12.8937   20.5242 C   0  0  0  0  0  0  0  0  0  0  0  0
  -27.7068  -29.0433   19.3191 C   0  0  0  0  0  0  0  0  0  0  0  0
  -20.6665  -11.8746   21.4094 C   0  0  0  0  0  0  0  0  0  0  0  0
  -19.5586  -11.6984   20.5805 C   0  0  0  0  0  0  0  0  0  0  0  0
  -26.3215  -27.9251   20.9468 C   0  0  0  0  0  0  0  0  0  0  0  0
  -20.8109  -10.1252   19.2412 C   0  0  0  0  0  0  0  0  0  0  0  0
  -30.7844  -22.3563   21.0822 C   0  0  0  0  0  0  0  0  0  0  0  0
  -26.4406  -12.7810   20.2550 C   0  0  0  0  0  0  0  0  0  0  0  0
  -28.2399  -12.8566   18.4482 C   0  0  0  0  0  0  0  0  0  0  0  0
  -26.5934  -36.2102   22.4561 C   0  0  0  0  0  0  0  0  0  0  0  0
  -25.6443  -30.0788   20.0733 C   0  0  0  0  0  0  0  0  0  0  0  0
  -26.7821  -34.8167   22.5266 C   0  0  0  0  0  0  0  0  0  0  0  0
  -25.3961  -28.9793   20.9073 C   0  0  0  0  0  0  0  0  0  0  0  0
  -24.0917  -11.8202   21.4136 C   0  0  0  0  0  0  0  0  0  0  0  0
  -27.4712  -27.9581   20.1581 C   0  0  0  0  0  0  0  0  0  0  0  0
  -21.8467  -11.1762   21.1542 C   0  0  0  0  0  0  0  0  0  0  0  0
  -19.6308  -10.8237   19.4964 C   0  0  0  0  0  0  0  0  0  0  0  0
  -21.9189  -10.3015   20.0701 C   0  0  0  0  0  0  0  0  0  0  0  0
  -27.6535  -13.2780   19.6567 C   0  0  0  0  0  0  0  0  0  0  0  0
  -31.5052  -21.3222   20.4603 C   0  0  0  0  0  0  0  0  0  0  0  0
  -30.8803  -23.3978   20.1977 C   0  0  0  0  0  0  0  0  0  0  0  0
  -29.3676  -13.6309   18.3254 C   0  0  0  0  0  0  0  0  0  0  0  0
  -27.8042  -11.8548   17.5196 C   0  0  0  0  0  0  0  0  0  0  0  0
  -24.5065  -31.9079   22.4106 C   0  0  0  0  0  0  0  0  0  0  0  0
  -30.6653  -18.9943   20.5222 C   0  0  0  0  0  0  0  0  0  0  0  0
  -21.9126  -29.9808   22.1280 C   0  0  0  0  0  0  0  0  0  0  0  0
  -20.6334  -26.9673   21.1639 C   0  0  0  0  0  0  0  0  0  0  0  0
  -25.4095  -36.8841   23.1033 C   0  0  0  0  0  0  0  0  0  0  0  0
  -24.6580  -31.2115   19.9924 C   0  0  0  0  0  0  0  0  0  0  0  0
  -24.1648  -28.9012   21.7711 C   0  0  0  0  0  0  0  0  0  0  0  0
  -24.2662  -35.9263   23.4287 C   0  0  0  0  0  0  0  0  0  0  0  0
  -32.6240  -15.9578   20.9342 C   0  0  0  0  0  0  0  0  0  0  0  0
  -24.8002  -34.6684   24.1064 C   0  0  0  0  0  0  0  0  0  0  0  0
  -31.6024  -14.8827   20.5658 C   0  0  0  0  0  0  0  0  0  0  0  0
  -31.9682  -17.1306   21.6583 C   0  0  0  0  0  0  0  0  0  0  0  0
  -29.8110  -16.6723   20.5355 C   0  0  0  0  0  0  0  0  0  0  0  0
  -25.7632  -33.9113   23.1840 C   0  0  1  0  0  0  0  0  0  0  0  0
  -23.7772  -31.3265   21.2326 C   0  0  1  0  0  0  0  0  0  0  0  0
  -30.4273  -15.4855   19.7763 C   0  0  2  0  0  0  0  0  0  0  0  0
  -26.1713  -23.5849   17.6249 C   0  0  0  0  0  0  0  0  0  0  0  0
  -18.4859  -25.6709   21.0924 C   0  0  0  0  0  0  0  0  0  0  0  0
  -22.1350  -29.4518   25.1248 C   0  0  0  0  0  0  0  0  0  0  0  0
  -20.6245  -27.4788   24.8180 C   0  0  0  0  0  0  0  0  0  0  0  0
  -19.7986  -29.7734   24.2928 C   0  0  0  0  0  0  0  0  0  0  0  0
  -20.7192  -26.7642   18.2126 C   0  0  0  0  0  0  0  0  0  0  0  0
  -31.7388  -19.9581   20.9609 C   0  0  0  0  0  0  0  0  0  0  0  0
  -30.3608  -24.8157   20.1919 C   0  0  0  0  0  0  0  0  0  0  0  0
  -27.3690  -24.5228   17.6576 C   0  0  0  0  0  0  0  0  0  0  0  0
  -28.2778  -24.2251   18.8535 C   0  0  0  0  0  0  0  0  0  0  0  0
  -29.0983  -26.6527   19.0160 C   0  0  0  0  0  0  0  0  0  1  0  0
  -21.4763  -28.6770   22.7516 C   0  0  1  0  0  0  0  0  0  0  0  0
  -19.4124  -26.6098   20.3357 C   0  0  2  0  0  0  0  0  0  0  0  0
  -29.4996  -25.1688   18.9537 C   0  0  1  0  0  0  0  0  0  0  0  0
  -21.0329  -28.8473   24.2321 C   0  0  0  0  0  0  0  0  0  0  0  0
  -28.3511  -14.2449   20.2587 N   0  0  0  0  0  0  0  0  0  0  0  0
  -32.0095  -21.6938   19.2804 N   0  0  0  0  0  0  0  0  0  0  0  0
  -29.3875  -14.4374   19.4251 N   0  0  0  0  0  0  0  0  0  0  0  0
  -23.2336  -30.0362   21.6614 N   0  0  0  0  0  0  0  0  0  0  0  0
  -30.8367  -17.6587   20.8869 N   0  0  0  0  0  0  0  0  0  0  0  0
  -30.3343  -13.6938   17.3852 N   0  0  0  0  0  0  0  0  0  0  0  0
  -26.6236  -11.1530   17.7991 N   0  0  0  0  0  0  0  0  0  0  0  0
  -25.0263  -33.1681   22.1844 N   0  0  0  0  0  0  0  0  0  0  0  0
  -20.4434  -28.1319   21.8774 N   0  0  0  0  0  0  0  0  0  0  0  0
  -19.8237  -25.9433   19.0678 N   0  3  0  0  0  0  0  0  0  0  0  0
  -28.4515  -11.5784   16.4813 O   0  0  0  0  0  0  0  0  0  0  0  0
  -24.5901  -31.2617   23.4485 O   0  0  0  0  0  0  0  0  0  0  0  0
  -29.7054  -19.4172   19.8727 O   0  0  0  0  0  0  0  0  0  0  0  0
  -21.1086  -30.9132   22.0511 O   0  0  0  0  0  0  0  0  0  0  0  0
  -21.6522  -26.2801   21.1795 O   0  0  0  0  0  0  0  0  0  0  0  0
  -31.6091  -23.0147   19.1183 O   0  0  0  0  0  0  0  0  0  0  0  0
  -22.9455  -11.3517   21.9785 O   0  0  0  0  0  0  0  0  0  0  0  0
  -28.3591  -26.9280   20.2052 O   0  0  0  0  0  0  0  0  0  1  0  0
  -18.5663  -10.6534   18.7014 F   0  0  0  0  0  0  0  0  0  0  0  0
  -23.0495   -9.6268   19.8205 F   0  0  0  0  0  0  0  0  0  0  0  0
  1  2  1  0  0  0  0
  1  5  2  0  0  0  0
  2  6  2  0  0  0  0
  3  8  2  0  0  0  0
  3 16  1  0  0  0  0
  4  9  1  0  0  0  0
  4 16  2  0  0  0  0
  5 18  1  0  0  0  0
  6 20  1  0  0  0  0
  7 10  2  0  0  0  0
  7 19  1  0  0  0  0
  8 22  1  0  0  0  0
  9 22  2  0  0  0  0
 10 23  1  0  0  0  0
 11 12  2  0  0  0  0
 11 24  1  0  0  0  0
 12 25  1  0  0  0  0
 13 21  1  0  0  0  0
 13 23  2  0  0  0  0
 14 25  2  0  0  0  0
 14 26  1  0  0  0  0
 15 28  1  0  0  0  0
 15 29  2  0  0  0  0
 16 27  1  0  0  0  0
 17 27  1  0  0  0  0
 17 30  2  0  0  0  0
 17 31  1  0  0  0  0
 18 20  2  0  0  0  0
 18 36  1  0  0  0  0
 19 21  2  0  0  0  0
 19 37  1  0  0  0  0
 20 45  1  0  0  0  0
 21 38  1  0  0  0  0
 22 79  1  0  0  0  0
 23 80  1  0  0  0  0
 24 26  2  0  0  0  0
 24 79  1  0  0  0  0
 25 81  1  0  0  0  0
 26 82  1  0  0  0  0
 27 63  2  0  0  0  0
 28 54  1  0  0  0  0
 28 64  2  0  0  0  0
 29 55  1  0  0  0  0
 29 78  1  0  0  0  0
 30 65  1  0  0  0  0
 30 68  1  0  0  0  0
 31 69  1  0  0  0  0
 31 73  2  0  0  0  0
 32 46  1  0  0  0  0
 32 70  1  0  0  0  0
 32 74  2  0  0  0  0
 33 54  1  0  0  0  0
 33 67  1  0  0  0  0
 33 75  2  0  0  0  0
 34 59  1  0  0  0  0
 34 66  1  0  0  0  0
 34 76  2  0  0  0  0
 35 60  1  0  0  0  0
 35 71  1  0  0  0  0
 35 77  2  0  0  0  0
 36 39  1  0  0  0  0
 37 46  1  0  0  0  0
 38 66  1  0  0  0  0
 39 41  1  0  0  0  0
 40 42  1  0  0  0  0
 40 43  1  0  0  0  0
 41 45  1  0  0  0  0
 42 47  1  0  0  0  0
 43 67  1  0  0  0  0
 44 47  1  0  0  0  0
 44 67  1  0  0  0  0
 45 70  1  0  0  0  0
 46 66  1  0  0  0  0
 47 65  1  0  0  0  0
 48 56  1  0  0  0  0
 49 60  1  0  0  0  0
 50 62  1  0  0  0  0
 51 62  1  0  0  0  0
 52 62  1  0  0  0  0
 53 72  1  0  0  0  0
 55 61  1  0  0  0  0
 56 57  1  0  0  0  0
 57 61  1  0  0  0  0
 58 61  1  0  0  0  0
 58 80  1  0  0  0  0
 59 62  1  0  0  0  0
 59 71  1  0  0  0  0
 60 72  1  0  0  0  0
 63 65  1  0  0  0  0
 64 78  1  0  0  0  0
M  CHG  1  72   1
M  ISO  4  33 100  54 100  58 101  80 101
M  END
> <Batch ID>
0046

> <Smiles>
CCCC(Cc1cc([100CH2:0][100C:0](=O)N2CCCC(n3nc(-c4ccc(Oc5ccc(F)cc5F)cc4)c(C(N)=O)c3N)C2)no1)[101CH2:1][101O:1]c1ccc2c(c1)CN(C(=O)C(NC(=O)C(C)NC)C(C)(C)C)C(C(=O)NC1CCCc3ccccc31)C2

> <Shape>
0.326

> <Color>
0.078

> <Negative vol penalty>
0.000

$$$$

  -OEChem-04052317213D

 87 95  0     1  0  0  0  0  0999 V2000
  -32.7393  -33.5111   15.0775 C   0  0  0  0  0  0  0  0  0  0  0  0
  -31.8943  -32.4099   14.9826 C   0  0  0  0  0  0  0  0  0  0  0  0
  -22.9961   -9.9131   19.9730 C   0  0  0  0  0  0  0  0  0  0  0  0
  -23.7337   -9.9380   22.2736 C   0  0  0  0  0  0  0  0  0  0  0  0
  -34.0749  -33.3346   15.4364 C   0  0  0  0  0  0  0  0  0  0  0  0
  -32.3849  -31.1314   15.2456 C   0  0  0  0  0  0  0  0  0  0  0  0
  -29.3581  -26.4919   17.8570 C   0  0  0  0  0  0  0  0  0  0  0  0
  -22.2277   -8.7782   20.2316 C   0  0  0  0  0  0  0  0  0  0  0  0
  -22.9651   -8.8030   22.5322 C   0  0  0  0  0  0  0  0  0  0  0  0
  -28.7030  -25.3819   17.3255 C   0  0  0  0  0  0  0  0  0  0  0  0
  -23.1969   -5.4685   22.0243 C   0  0  0  0  0  0  0  0  0  0  0  0
  -23.7854   -4.4418   22.7627 C   0  0  0  0  0  0  0  0  0  0  0  0
  -30.6832  -24.0508   17.6806 C   0  0  0  0  0  0  0  0  0  0  0  0
  -27.7175  -19.4065   17.8446 C   0  0  0  0  0  0  0  0  0  0  0  0
  -22.0711   -4.6723   24.4495 C   0  0  0  0  0  0  0  0  0  0  0  0
  -23.7492  -10.4930   20.9940 C   0  0  0  0  0  0  0  0  0  0  0  0
  -24.1411  -13.0092   20.8421 C   0  0  0  0  0  0  0  0  0  0  0  0
  -34.5797  -32.0543   15.7133 C   0  0  0  0  0  0  0  0  0  0  0  0
  -30.6865  -26.3922   18.2950 C   0  0  0  0  0  0  0  0  0  0  0  0
  -33.7289  -30.9375   15.6073 C   0  0  0  0  0  0  0  0  0  0  0  0
  -31.3520  -25.1604   18.2197 C   0  0  0  0  0  0  0  0  0  0  0  0
  -28.2904  -18.7067   18.9007 C   0  0  0  0  0  0  0  0  0  0  0  0
  -28.6093  -19.3743   20.0780 C   0  0  0  0  0  0  0  0  0  0  0  0
  -22.2121   -8.2231   21.5112 C   0  0  0  0  0  0  0  0  0  0  0  0
  -29.3665  -24.1619   17.2345 C   0  0  0  0  0  0  0  0  0  0  0  0
  -22.0456   -6.0972   22.4986 C   0  0  0  0  0  0  0  0  0  0  0  0
  -23.2225   -4.0437   23.9752 C   0  0  0  0  0  0  0  0  0  0  0  0
  -21.4827   -5.6991   23.7111 C   0  0  0  0  0  0  0  0  0  0  0  0
  -24.5437  -11.6651   20.7273 C   0  0  0  0  0  0  0  0  0  0  0  0
  -27.4856  -20.7619   18.0146 C   0  0  0  0  0  0  0  0  0  0  0  0
  -28.3377  -20.7312   20.1480 C   0  0  0  0  0  0  0  0  0  0  0  0
  -25.2511  -13.7322   20.4793 C   0  0  0  0  0  0  0  0  0  0  0  0
  -22.8769  -13.5552   21.2410 C   0  0  0  0  0  0  0  0  0  0  0  0
  -33.4343  -27.7493   17.4517 C   0  0  0  0  0  0  0  0  0  0  0  0
  -34.5677  -26.1520   20.0375 C   0  0  0  0  0  0  0  0  0  0  0  0
  -34.2272  -23.5406   22.2081 C   0  0  0  0  0  0  0  0  0  0  0  0
  -30.7515  -14.6480   20.7083 C   0  0  0  0  0  0  0  0  0  0  0  0
  -36.0422  -31.9081   16.0515 C   0  0  0  0  0  0  0  0  0  0  0  0
  -31.3702  -27.5923   18.8907 C   0  0  0  0  0  0  0  0  0  0  0  0
  -32.7718  -24.9957   18.6948 C   0  0  0  0  0  0  0  0  0  0  0  0
  -36.3907  -30.5607   16.6786 C   0  0  0  0  0  0  0  0  0  0  0  0
  -29.5911  -12.2523   18.3438 C   0  0  0  0  0  0  0  0  0  0  0  0
  -35.7468  -29.4233   15.8921 C   0  0  0  0  0  0  0  0  0  0  0  0
  -28.1441  -11.9925   18.7664 C   0  0  0  0  0  0  0  0  0  0  0  0
  -30.5006  -12.4724   19.5506 C   0  0  0  0  0  0  0  0  0  0  0  0
  -28.6000  -13.2595   20.9078 C   0  0  0  0  0  0  0  0  0  0  0  0
  -34.2177  -29.5374   15.9090 C   0  0  1  0  0  0  0  0  0  0  0  0
  -32.8920  -27.5036   18.8312 C   0  0  1  0  0  0  0  0  0  0  0  0
  -27.6342  -13.0871   19.7230 C   0  0  2  0  0  0  0  0  0  0  0  0
  -28.5543  -17.2455   18.7449 C   0  0  0  0  0  0  0  0  0  0  0  0
  -28.6566  -21.5023   21.3871 C   0  0  0  0  0  0  0  0  0  0  0  0
  -35.3293  -22.4731   24.1939 C   0  0  0  0  0  0  0  0  0  0  0  0
  -32.9590  -18.4740   20.0774 C   0  0  0  0  0  0  0  0  0  0  0  0
  -32.2530  -19.4326   22.2797 C   0  0  0  0  0  0  0  0  0  0  0  0
  -36.7004  -24.9598   18.2099 C   0  0  0  0  0  0  0  0  0  0  0  0
  -37.1436  -23.2341   19.9689 C   0  0  0  0  0  0  0  0  0  0  0  0
  -37.5273  -25.6480   20.4676 C   0  0  0  0  0  0  0  0  0  0  0  0
  -31.8495  -23.9859   23.9131 C   0  0  0  0  0  0  0  0  0  0  0  0
  -29.2224  -18.6491   21.2284 C   0  0  0  0  0  0  0  0  0  0  0  0
  -26.8638  -21.5537   16.8900 C   0  0  0  0  0  0  0  0  0  0  0  0
  -30.8470  -16.8142   21.9156 C   0  0  0  0  0  0  0  0  0  0  0  0
  -27.3147  -23.0103   16.8881 C   0  0  0  0  0  0  0  0  0  1  0  0
  -35.1593  -24.7834   20.2739 C   0  0  1  0  0  0  0  0  0  0  0  0
  -34.2873  -23.4761   23.7236 C   0  0  2  0  0  0  0  0  0  0  0  0
  -31.7700  -18.9968   20.8937 C   0  0  0  0  0  0  0  0  0  0  0  0
  -30.5950  -17.9705   20.9261 C   0  0  2  0  0  0  0  0  0  0  0  0
  -36.6065  -24.6596   19.7193 C   0  0  0  0  0  0  0  0  0  0  0  0
  -25.8105  -11.5390   20.3231 N   0  0  0  0  0  0  0  0  0  0  0  0
  -27.7820  -21.4447   19.1431 N   0  0  0  0  0  0  0  0  0  0  0  0
  -26.2135  -12.8131   20.1806 N   0  0  0  0  0  0  0  0  0  0  0  0
  -33.3995  -26.1998   19.2636 N   0  0  0  0  0  0  0  0  0  0  0  0
  -29.9615  -13.5238   20.4166 N   0  0  0  0  0  0  0  0  0  0  0  0
  -25.4880  -15.0582   20.3898 N   0  0  0  0  0  0  0  0  0  0  0  0
  -21.8443  -12.6706   21.5808 N   0  0  0  0  0  0  0  0  0  0  0  0
  -33.6906  -29.0790   17.1765 N   0  0  0  0  0  0  0  0  0  0  0  0
  -35.0448  -24.5311   21.7063 N   0  0  0  0  0  0  0  0  0  0  0  0
  -30.1623  -15.6001   21.5312 N   0  0  0  0  0  0  0  0  0  0  0  0
  -32.9637  -23.0735   24.2777 N   0  3  0  0  0  0  0  0  0  0  0  0
  -22.6640  -14.7909   21.2787 O   0  0  0  0  0  0  0  0  0  0  0  0
  -33.6087  -26.8024   16.6935 O   0  0  0  0  0  0  0  0  0  0  0  0
  -35.1176  -27.1415   20.5276 O   0  0  0  0  0  0  0  0  0  0  0  0
  -33.5280  -22.7853   21.5364 O   0  0  0  0  0  0  0  0  0  0  0  0
  -31.8950  -14.7951   20.2636 O   0  0  0  0  0  0  0  0  0  0  0  0
  -21.4621   -7.1158   21.7640 O   0  0  0  0  0  0  0  0  0  0  0  0
  -28.7296  -23.0770   16.7154 O   0  0  0  0  0  0  0  0  0  1  0  0
  -23.7868   -3.0567   24.6834 F   0  0  0  0  0  0  0  0  0  0  0  0
  -20.3760   -6.2985   24.1713 F   0  0  0  0  0  0  0  0  0  0  0  0
  1  2  1  0  0  0  0
  1  5  2  0  0  0  0
  2  6  2  0  0  0  0
  3  8  2  0  0  0  0
  3 16  1  0  0  0  0
  4  9  1  0  0  0  0
  4 16  2  0  0  0  0
  5 18  1  0  0  0  0
  6 20  1  0  0  0  0
  7 10  2  0  0  0  0
  7 19  1  0  0  0  0
  8 24  1  0  0  0  0
  9 24  2  0  0  0  0
 10 25  1  0  0  0  0
 11 12  2  0  0  0  0
 11 26  1  0  0  0  0
 12 27  1  0  0  0  0
 13 21  1  0  0  0  0
 13 25  2  0  0  0  0
 14 22  2  0  0  0  0
 14 30  1  0  0  0  0
 15 27  2  0  0  0  0
 15 28  1  0  0  0  0
 16 29  1  0  0  0  0
 17 29  1  0  0  0  0
 17 32  2  0  0  0  0
 17 33  1  0  0  0  0
 18 20  2  0  0  0  0
 18 38  1  0  0  0  0
 19 21  2  0  0  0  0
 19 39  1  0  0  0  0
 20 47  1  0  0  0  0
 21 40  1  0  0  0  0
 22 23  1  0  0  0  0
 22 50  1  0  0  0  0
 23 31  2  0  0  0  0
 23 59  1  0  0  0  0
 24 84  1  0  0  0  0
 25 85  1  0  0  0  0
 26 28  2  0  0  0  0
 26 84  1  0  0  0  0
 27 86  1  0  0  0  0
 28 87  1  0  0  0  0
 29 68  2  0  0  0  0
 30 60  1  0  0  0  0
 30 69  2  0  0  0  0
 31 51  1  0  0  0  0
 31 69  1  0  0  0  0
 32 70  1  0  0  0  0
 32 73  1  0  0  0  0
 33 74  1  0  0  0  0
 33 79  2  0  0  0  0
 34 48  1  0  0  0  0
 34 75  1  0  0  0  0
 34 80  2  0  0  0  0
 35 63  1  0  0  0  0
 35 71  1  0  0  0  0
 35 81  2  0  0  0  0
 36 64  1  0  0  0  0
 36 76  1  0  0  0  0
 36 82  2  0  0  0  0
 37 72  1  0  0  0  0
 37 77  1  0  0  0  0
 37 83  2  0  0  0  0
 38 41  1  0  0  0  0
 39 48  1  0  0  0  0
 40 71  1  0  0  0  0
 41 43  1  0  0  0  0
 42 44  1  0  0  0  0
 42 45  1  0  0  0  0
 43 47  1  0  0  0  0
 44 49  1  0  0  0  0
 45 72  1  0  0  0  0
 46 49  1  0  0  0  0
 46 72  1  0  0  0  0
 47 75  1  0  0  0  0
 48 71  1  0  0  0  0
 49 70  1  0  0  0  0
 52 64  1  0  0  0  0
 53 65  1  0  0  0  0
 54 65  1  0  0  0  0
 55 67  1  0  0  0  0
 56 67  1  0  0  0  0
 57 67  1  0  0  0  0
 58 78  1  0  0  0  0
 59 66  1  0  0  0  0
 60 62  1  0  0  0  0
 61 66  1  0  0  0  0
 61 77  1  0  0  0  0
 62 85  1  0  0  0  0
 63 67  1  0  0  0  0
 63 76  1  0  0  0  0
 64 78  1  0  0  0  0
 65 66  1  0  0  0  0
 68 70  1  0  0  0  0
M  CHG  1  78   1
M  ISO  4  37 100  62 101  77 100  85 101
M  END
> <Batch ID>
0046

> <Smiles>
CNC(C)C(=O)NC(C(=O)N1Cc2cc([101O:1][101CH2:1]Cc3cc(C)c(CC(C[100NH:0][100C:0](=O)N4CCCC(n5nc(-c6ccc(Oc7ccc(F)cc7F)cc6)c(C(N)=O)c5N)C4)C(C)C)c(C)n3)ccc2CC1C(=O)NC1CCCc2ccccc21)C(C)(C)C

> <Shape>
0.260

> <Color>
0.198

> <Negative vol penalty>
0.000

$$$$

  -OEChem-04052317213D

 88 96  0     1  0  0  0  0  0999 V2000
  -23.9619   -5.7177   23.0400 C   0  0  0  0  0  0  0  0  0  0  0  0
  -25.1108   -6.1439   22.3813 C   0  0  0  0  0  0  0  0  0  0  0  0
  -23.9209  -31.7560   23.7593 C   0  0  0  0  0  0  0  0  0  0  0  0
  -24.7172  -31.2140   21.5436 C   0  0  0  0  0  0  0  0  0  0  0  0
  -22.8396   -6.5435   23.0867 C   0  0  0  0  0  0  0  0  0  0  0  0
  -25.1376   -7.3959   21.7679 C   0  0  0  0  0  0  0  0  0  0  0  0
  -29.6107  -12.7905   20.2827 C   0  0  0  0  0  0  0  0  0  0  0  0
  -24.7483  -32.8787   23.7821 C   0  0  0  0  0  0  0  0  0  0  0  0
  -25.5446  -32.3368   21.5664 C   0  0  0  0  0  0  0  0  0  0  0  0
  -30.0410  -13.5682   19.2086 C   0  0  0  0  0  0  0  0  0  0  0  0
  -24.7267  -36.0150   22.5186 C   0  0  0  0  0  0  0  0  0  0  0  0
  -24.1814  -37.2129   22.9802 C   0  0  0  0  0  0  0  0  0  0  0  0
  -28.0698  -14.9423   19.4217 C   0  0  0  0  0  0  0  0  0  0  0  0
  -30.0599  -22.6795   18.3583 C   0  0  0  0  0  0  0  0  0  0  0  0
  -25.8359  -37.2884   24.7392 C   0  0  0  0  0  0  0  0  0  0  0  0
  -23.9054  -30.9236   22.6401 C   0  0  0  0  0  0  0  0  0  0  0  0
  -21.7229  -29.6951   22.1552 C   0  0  0  0  0  0  0  0  0  0  0  0
  -22.8559   -7.8103   22.4819 C   0  0  0  0  0  0  0  0  0  0  0  0
  -28.3993  -13.0767   20.9286 C   0  0  0  0  0  0  0  0  0  0  0  0
  -24.0139   -8.2389   21.8054 C   0  0  0  0  0  0  0  0  0  0  0  0
  -27.6276  -14.1683   20.5054 C   0  0  0  0  0  0  0  0  0  0  0  0
  -30.5604  -21.7053   17.5126 C   0  0  0  0  0  0  0  0  0  0  0  0
  -25.5602  -33.1691   22.6856 C   0  0  0  0  0  0  0  0  0  0  0  0
  -29.2691  -14.6426   18.7761 C   0  0  0  0  0  0  0  0  0  0  0  0
  -25.8267  -35.4537   23.1673 C   0  0  0  0  0  0  0  0  0  0  0  0
  -24.7359  -37.8497   24.0904 C   0  0  0  0  0  0  0  0  0  0  0  0
  -26.3813  -36.0904   24.2776 C   0  0  0  0  0  0  0  0  0  0  0  0
  -23.0513  -29.7634   22.6162 C   0  0  0  0  0  0  0  0  0  0  0  0
  -29.7090  -22.3045   19.6396 C   0  0  0  0  0  0  0  0  0  0  0  0
  -30.6770  -20.4206   18.0042 C   0  0  0  0  0  0  0  0  0  0  0  0
  -21.3607  -28.3838   22.3449 C   0  0  0  0  0  0  0  0  0  0  0  0
  -20.8908  -30.7248   21.6048 C   0  0  0  0  0  0  0  0  0  0  0  0
  -25.6653  -11.5146   21.3631 C   0  0  0  0  0  0  0  0  0  0  0  0
  -24.9609  -14.0611   23.2451 C   0  0  0  0  0  0  0  0  0  0  0  0
  -25.5171  -17.3401   24.0101 C   0  0  0  0  0  0  0  0  0  0  0  0
  -24.4993  -23.2972   22.6998 C   0  0  0  0  0  0  0  0  0  0  0  0
  -21.6024   -8.6482   22.5182 C   0  0  0  0  0  0  0  0  0  0  0  0
  -27.9623  -12.2444   22.1028 C   0  0  0  0  0  0  0  0  0  0  0  0
  -26.3293  -14.5298   21.1779 C   0  0  0  0  0  0  0  0  0  0  0  0
  -21.8393  -10.1142   22.1648 C   0  0  0  0  0  0  0  0  0  0  0  0
  -22.2738  -24.6146   25.1467 C   0  0  0  0  0  0  0  0  0  0  0  0
  -22.7106  -10.2287   20.9179 C   0  0  0  0  0  0  0  0  0  0  0  0
  -22.1008  -26.0774   24.7341 C   0  0  0  0  0  0  0  0  0  0  0  0
  -23.6966  -24.1213   24.8936 C   0  0  0  0  0  0  0  0  0  0  0  0
  -24.0137  -25.7865   23.1046 C   0  0  0  0  0  0  0  0  0  0  0  0
  -24.0902   -9.6005   21.1493 C   0  0  1  0  0  0  0  0  0  0  0  0
  -26.4597  -12.3131   22.3576 C   0  0  1  0  0  0  0  0  0  0  0  0
  -22.5800  -26.3128   23.2890 C   0  0  2  0  0  0  0  0  0  0  0  0
  -30.9547  -22.0572   16.1200 C   0  0  0  0  0  0  0  0  0  0  0  0
  -30.0971  -23.5058   21.8055 C   0  0  0  0  0  0  0  0  0  0  0  0
  -24.7644  -19.1533   25.5732 C   0  0  0  0  0  0  0  0  0  0  0  0
  -24.3039  -22.5623   19.2772 C   0  0  0  0  0  0  0  0  0  0  0  0
  -22.3982  -14.3925   21.6226 C   0  0  0  0  0  0  0  0  0  0  0  0
  -22.1824  -16.7017   22.5657 C   0  0  0  0  0  0  0  0  0  0  0  0
  -22.1236  -14.7249   24.0861 C   0  0  0  0  0  0  0  0  0  0  0  0
  -28.2277  -17.6327   25.1616 C   0  0  0  0  0  0  0  0  0  0  0  0
  -31.2105  -19.3121   17.1453 C   0  0  0  0  0  0  0  0  0  0  0  0
  -27.7253  -23.0069   21.0939 C   0  0  0  0  0  0  0  0  0  0  0  0
  -26.7092  -22.9075   19.9449 C   0  0  0  0  0  0  0  0  0  0  0  0
  -31.4011  -16.8398   16.8454 C   0  0  0  0  0  0  0  0  0  0  0  0
  -31.0949  -15.5238   17.5328 C   0  0  0  0  0  0  0  0  0  1  0  0
  -29.1646  -23.3154   20.5898 C   0  0  2  0  0  0  0  0  0  0  0  0
  -24.3143  -15.4072   23.0243 C   0  0  1  0  0  0  0  0  0  0  0  0
  -25.7689  -18.0366   25.3352 C   0  0  2  0  0  0  0  0  0  0  0  0
  -25.2844  -22.6232   20.4440 C   0  0  1  0  0  0  0  0  0  0  0  0
  -22.7781  -15.2989   22.8106 C   0  0  0  0  0  0  0  0  0  0  0  0
  -23.5024  -28.5891   23.0650 N   0  0  0  0  0  0  0  0  0  0  0  0
  -29.8338  -21.0396   20.0940 N   0  0  0  0  0  0  0  0  0  0  0  0
  -30.3261  -20.0822   19.2629 N   0  0  0  0  0  0  0  0  0  0  0  0
  -22.4516  -27.7705   22.8871 N   0  0  0  0  0  0  0  0  0  0  0  0
  -25.9416  -13.6821   22.3175 N   0  0  0  0  0  0  0  0  0  0  0  0
  -24.0892  -24.3726   23.5048 N   0  0  0  0  0  0  0  0  0  0  0  0
  -20.2187  -27.7072   22.0992 N   0  0  0  0  0  0  0  0  0  0  0  0
  -21.4204  -32.0164   21.4800 N   0  0  0  0  0  0  0  0  0  0  0  0
  -24.9272  -10.4905   21.9250 N   0  0  0  0  0  0  0  0  0  0  0  0
  -24.7026  -16.2376   24.1593 N   0  0  0  0  0  0  0  0  0  0  0  0
  -24.8483  -23.6217   21.3945 N   0  0  0  0  0  0  0  0  0  0  0  0
  -27.1386  -18.6234   25.3598 N   0  3  0  0  0  0  0  0  0  0  0  0
  -30.9377  -17.9599   17.7028 N   0  3  0  0  0  0  0  0  0  0  0  0
  -19.7071  -30.5096   21.2498 O   0  0  0  0  0  0  0  0  0  0  0  0
  -25.7169  -11.8071   20.1742 O   0  0  0  0  0  0  0  0  0  0  0  0
  -24.6139  -13.3743   24.2093 O   0  0  0  0  0  0  0  0  0  0  0  0
  -25.9921  -17.7368   22.9482 O   0  0  0  0  0  0  0  0  0  0  0  0
  -24.5457  -22.1332   23.1120 O   0  0  0  0  0  0  0  0  0  0  0  0
  -26.3675  -34.2647   22.7074 O   0  0  0  0  0  0  0  0  0  0  0  0
  -29.6864  -15.4029   17.7275 O   0  0  0  0  0  0  0  0  0  1  0  0
  -24.2130  -39.0008   24.5326 F   0  0  0  0  0  0  0  0  0  0  0  0
  -27.4387  -35.5566   24.9042 F   0  0  0  0  0  0  0  0  0  0  0  0
  1  2  1  0  0  0  0
  1  5  2  0  0  0  0
  2  6  2  0  0  0  0
  3  8  2  0  0  0  0
  3 16  1  0  0  0  0
  4  9  1  0  0  0  0
  4 16  2  0  0  0  0
  5 18  1  0  0  0  0
  6 20  1  0  0  0  0
  7 10  2  0  0  0  0
  7 19  1  0  0  0  0
  8 23  1  0  0  0  0
  9 23  2  0  0  0  0
 10 24  1  0  0  0  0
 11 12  2  0  0  0  0
 11 25  1  0  0  0  0
 12 26  1  0  0  0  0
 13 21  1  0  0  0  0
 13 24  2  0  0  0  0
 14 22  1  0  0  0  0
 14 29  2  0  0  0  0
 15 26  2  0  0  0  0
 15 27  1  0  0  0  0
 16 28  1  0  0  0  0
 17 28  1  0  0  0  0
 17 31  2  0  0  0  0
 17 32  1  0  0  0  0
 18 20  2  0  0  0  0
 18 37  1  0  0  0  0
 19 21  2  0  0  0  0
 19 38  1  0  0  0  0
 20 46  1  0  0  0  0
 21 39  1  0  0  0  0
 22 30  2  0  0  0  0
 22 49  1  0  0  0  0
 23 85  1  0  0  0  0
 24 86  1  0  0  0  0
 25 27  2  0  0  0  0
 25 85  1  0  0  0  0
 26 87  1  0  0  0  0
 27 88  1  0  0  0  0
 28 67  2  0  0  0  0
 29 62  1  0  0  0  0
 29 68  1  0  0  0  0
 30 57  1  0  0  0  0
 30 69  1  0  0  0  0
 31 70  1  0  0  0  0
 31 73  1  0  0  0  0
 32 74  1  0  0  0  0
 32 80  2  0  0  0  0
 33 47  1  0  0  0  0
 33 75  1  0  0  0  0
 33 81  2  0  0  0  0
 34 63  1  0  0  0  0
 34 71  1  0  0  0  0
 34 82  2  0  0  0  0
 35 64  1  0  0  0  0
 35 76  1  0  0  0  0
 35 83  2  0  0  0  0
 36 72  1  0  0  0  0
 36 77  1  0  0  0  0
 36 84  2  0  0  0  0
 37 40  1  0  0  0  0
 38 47  1  0  0  0  0
 39 71  1  0  0  0  0
 40 42  1  0  0  0  0
 41 43  1  0  0  0  0
 41 44  1  0  0  0  0
 42 46  1  0  0  0  0
 43 48  1  0  0  0  0
 44 72  1  0  0  0  0
 45 48  1  0  0  0  0
 45 72  1  0  0  0  0
 46 75  1  0  0  0  0
 47 71  1  0  0  0  0
 48 70  1  0  0  0  0
 50 62  1  0  0  0  0
 51 64  1  0  0  0  0
 52 65  1  0  0  0  0
 53 66  1  0  0  0  0
 54 66  1  0  0  0  0
 55 66  1  0  0  0  0
 56 78  1  0  0  0  0
 57 79  1  0  0  0  0
 58 59  1  0  0  0  0
 58 62  1  0  0  0  0
 59 65  1  0  0  0  0
 60 61  1  0  0  0  0
 60 79  1  0  0  0  0
 61 86  1  0  0  0  0
 63 66  1  0  0  0  0
 63 76  1  0  0  0  0
 64 78  1  0  0  0  0
 65 77  1  0  0  0  0
 67 70  1  0  0  0  0
 68 69  2  0  0  0  0
M  CHG  2  78   1  79   1
M  ISO  4  36 100  61 101  77 100  86 101
M  END
> <Batch ID>
0046

> <Smiles>
CNC(C)C(=O)NC(C(=O)N1Cc2cc([101O:1][101CH2:1]CNCc3nnc(C(C)CCC(C)[100NH:0][100C:0](=O)N4CCCC(n5nc(-c6ccc(Oc7ccc(F)cc7F)cc6)c(C(N)=O)c5N)C4)cc3C)ccc2CC1C(=O)NC1CCCc2ccccc21)C(C)(C)C

> <Shape>
0.247

> <Color>
0.071

> <Negative vol penalty>
0.000

$$$$

  -OEChem-04052317213D

 84 92  0     1  0  0  0  0  0999 V2000
  -24.8425  -10.2439   20.1003 C   0  0  0  0  0  0  0  0  0  0  0  0
  -23.8779  -11.1842   19.7525 C   0  0  0  0  0  0  0  0  0  0  0  0
  -31.0791  -27.8949   21.3997 C   0  0  0  0  0  0  0  0  0  0  0  0
  -31.1038  -26.0607   19.8275 C   0  0  0  0  0  0  0  0  0  0  0  0
  -25.9289  -10.6204   20.8889 C   0  0  0  0  0  0  0  0  0  0  0  0
  -23.9987  -12.5013   20.1940 C   0  0  0  0  0  0  0  0  0  0  0  0
  -22.5506  -19.2206   18.1764 C   0  0  0  0  0  0  0  0  0  0  0  0
  -32.2925  -27.4567   21.9301 C   0  0  0  0  0  0  0  0  0  0  0  0
  -32.3172  -25.6225   20.3578 C   0  0  0  0  0  0  0  0  0  0  0  0
  -21.9152  -20.3714   18.6409 C   0  0  0  0  0  0  0  0  0  0  0  0
  -33.3746  -23.9016   23.0692 C   0  0  0  0  0  0  0  0  0  0  0  0
  -33.5160  -22.5374   23.3229 C   0  0  0  0  0  0  0  0  0  0  0  0
  -23.8760  -20.9256   19.9322 C   0  0  0  0  0  0  0  0  0  0  0  0
  -19.2896  -25.1664   21.9596 C   0  0  0  0  0  0  0  0  0  0  0  0
  -20.0762  -25.0144   19.2874 C   0  0  0  0  0  0  0  0  0  0  0  0
  -35.3821  -22.4460   21.7911 C   0  0  0  0  0  0  0  0  0  0  0  0
  -30.4847  -27.1969   20.3485 C   0  0  0  0  0  0  0  0  0  0  0  0
  -29.0443  -28.5552   18.7398 C   0  0  0  0  0  0  0  0  0  0  0  0
  -26.0682  -11.9450   21.3322 C   0  0  0  0  0  0  0  0  0  0  0  0
  -23.8516  -18.9075   18.5956 C   0  0  0  0  0  0  0  0  0  0  0  0
  -25.0874  -12.8956   20.9903 C   0  0  0  0  0  0  0  0  0  0  0  0
  -24.5266  -19.7716   19.4696 C   0  0  0  0  0  0  0  0  0  0  0  0
  -19.7450  -23.9571   21.4344 C   0  0  0  0  0  0  0  0  0  0  0  0
  -19.6207  -26.2237   19.8126 C   0  0  0  0  0  0  0  0  0  0  0  0
  -19.2274  -26.2997   21.1487 C   0  0  0  0  0  0  0  0  0  0  0  0
  -20.1383  -23.8811   20.0983 C   0  0  0  0  0  0  0  0  0  0  0  0
  -32.9116  -26.3205   21.4091 C   0  0  0  0  0  0  0  0  0  0  0  0
  -22.5768  -21.2226   19.5211 C   0  0  0  0  0  0  0  0  0  0  0  0
  -34.2369  -24.5381   22.1764 C   0  0  0  0  0  0  0  0  0  0  0  0
  -34.5198  -21.8095   22.6839 C   0  0  0  0  0  0  0  0  0  0  0  0
  -35.2407  -23.8103   21.5374 C   0  0  0  0  0  0  0  0  0  0  0  0
  -29.2310  -27.6487   19.8006 C   0  0  0  0  0  0  0  0  0  0  0  0
  -27.6807  -28.6507   18.6057 C   0  0  0  0  0  0  0  0  0  0  0  0
  -21.9352  -27.4379   22.8450 C   0  0  0  0  0  0  0  0  0  0  0  0
  -30.0165  -29.2489   17.9465 C   0  0  0  0  0  0  0  0  0  0  0  0
  -20.9653  -28.3514   22.6969 C   0  0  0  0  0  0  0  0  0  0  0  0
  -23.3485  -27.7642   22.5678 C   0  0  0  0  0  0  0  0  0  0  0  0
  -25.1731  -16.5047   20.2032 C   0  0  0  0  0  0  0  0  0  0  0  0
  -27.9335  -18.0334   19.4511 C   0  0  0  0  0  0  0  0  0  0  0  0
  -29.4924  -20.9476   18.6001 C   0  0  0  0  0  0  0  0  0  0  0  0
  -27.2349  -12.2939   22.2219 C   0  0  0  0  0  0  0  0  0  0  0  0
  -24.5331  -17.6762   18.0645 C   0  0  0  0  0  0  0  0  0  0  0  0
  -25.9317  -19.4911   19.9339 C   0  0  0  0  0  0  0  0  0  0  0  0
  -27.4858  -13.7953   22.3368 C   0  0  0  0  0  0  0  0  0  0  0  0
  -23.6594  -26.1750   19.2801 C   0  0  0  0  0  0  0  0  0  0  0  0
  -26.1774  -14.5372   22.5911 C   0  0  0  0  0  0  0  0  0  0  0  0
  -25.1337  -26.4228   18.9724 C   0  0  0  0  0  0  0  0  0  0  0  0
  -23.4164  -25.9514   20.7719 C   0  0  0  0  0  0  0  0  0  0  0  0
  -25.4241  -27.2943   21.3253 C   0  0  0  0  0  0  0  0  0  0  0  0
  -25.1964  -14.3398   21.4292 C   0  0  1  0  0  0  0  0  0  0  0  0
  -25.6678  -17.1881   18.9598 C   0  0  1  0  0  0  0  0  0  0  0  0
  -25.6849  -27.5684   19.8360 C   0  0  1  0  0  0  0  0  0  0  0  0
  -19.8034  -22.7573   22.3218 C   0  0  0  0  0  0  0  0  0  0  0  0
  -19.5622  -27.4235   18.9252 C   0  0  0  0  0  0  0  0  0  0  0  0
  -31.7603  -21.8917   18.0876 C   0  0  0  0  0  0  0  0  0  0  0  0
  -28.6196  -17.9926   22.4239 C   0  0  0  0  0  0  0  0  0  0  0  0
  -30.3606  -19.7348   21.9748 C   0  0  0  0  0  0  0  0  0  0  0  0
  -30.5401  -17.4894   20.9031 C   0  0  0  0  0  0  0  0  0  0  0  0
  -28.6747  -21.7356   15.8670 C   0  0  0  0  0  0  0  0  0  0  0  0
  -18.7357  -27.5832   21.7329 C   0  0  0  0  0  0  0  0  0  0  0  0
  -20.6321  -22.5915   19.5115 C   0  0  0  0  0  0  0  0  0  1  0  0
  -19.5161  -28.0415   22.9805 C   0  0  0  0  0  0  0  0  0  0  0  0
  -28.7716  -19.1081   20.1004 C   0  0  1  0  0  0  0  0  0  0  0  0
  -30.4980  -21.2709   17.5098 C   0  0  2  0  0  0  0  0  0  0  0  0
  -29.5458  -18.5858   21.3435 C   0  0  0  0  0  0  0  0  0  0  0  0
  -28.0783  -27.2004   20.3047 N   0  0  0  0  0  0  0  0  0  0  0  0
  -27.1541  -27.8279   19.5575 N   0  0  0  0  0  0  0  0  0  0  0  0
  -24.0036  -27.0304   21.5805 N   0  0  0  0  0  0  0  0  0  0  0  0
  -26.5531  -18.2716   19.3916 N   0  0  0  0  0  0  0  0  0  0  0  0
  -26.8928  -29.3573   17.7678 N   0  0  0  0  0  0  0  0  0  0  0  0
  -31.3750  -29.0358   18.2176 N   0  0  0  0  0  0  0  0  0  0  0  0
  -25.5611  -15.1829   20.3109 N   0  0  0  0  0  0  0  0  0  0  0  0
  -29.6254  -19.6508   19.0493 N   0  0  0  0  0  0  0  0  0  0  0  0
  -29.9099  -22.2274   16.5299 N   0  3  0  0  0  0  0  0  0  0  0  0
  -29.6901  -30.0469   17.0354 O   0  0  0  0  0  0  0  0  0  0  0  0
  -23.8649  -28.6648   23.2319 O   0  0  0  0  0  0  0  0  0  0  0  0
  -24.4912  -17.1308   21.0061 O   0  0  0  0  0  0  0  0  0  0  0  0
  -28.4842  -17.0231   19.0065 O   0  0  0  0  0  0  0  0  0  0  0  0
  -28.6734  -21.7649   19.0145 O   0  0  0  0  0  0  0  0  0  0  0  0
  -21.2406  -29.6454   22.2965 O   0  0  0  0  0  0  0  0  0  0  0  0
  -34.0957  -25.8928   21.9263 O   0  0  0  0  0  0  0  0  0  0  0  0
  -21.9587  -22.3462   19.9765 O   0  0  0  0  0  0  0  0  0  1  0  0
  -34.6564  -20.4998   22.9287 F   0  0  0  0  0  0  0  0  0  0  0  0
  -36.0728  -24.4165   20.6796 F   0  0  0  0  0  0  0  0  0  0  0  0
  1  2  1  0  0  0  0
  1  5  2  0  0  0  0
  2  6  2  0  0  0  0
  3  8  2  0  0  0  0
  3 17  1  0  0  0  0
  4  9  1  0  0  0  0
  4 17  2  0  0  0  0
  5 19  1  0  0  0  0
  6 21  1  0  0  0  0
  7 10  2  0  0  0  0
  7 20  1  0  0  0  0
  8 27  1  0  0  0  0
  9 27  2  0  0  0  0
 10 28  1  0  0  0  0
 11 12  2  0  0  0  0
 11 29  1  0  0  0  0
 12 30  1  0  0  0  0
 13 22  1  0  0  0  0
 13 28  2  0  0  0  0
 14 23  1  0  0  0  0
 14 25  2  0  0  0  0
 15 24  2  0  0  0  0
 15 26  1  0  0  0  0
 16 30  2  0  0  0  0
 16 31  1  0  0  0  0
 17 32  1  0  0  0  0
 18 32  1  0  0  0  0
 18 33  2  0  0  0  0
 18 35  1  0  0  0  0
 19 21  2  0  0  0  0
 19 41  1  0  0  0  0
 20 22  2  0  0  0  0
 20 42  1  0  0  0  0
 21 50  1  0  0  0  0
 22 43  1  0  0  0  0
 23 26  2  0  0  0  0
 23 53  1  0  0  0  0
 24 25  1  0  0  0  0
 24 54  1  0  0  0  0
 25 60  1  0  0  0  0
 26 61  1  0  0  0  0
 27 81  1  0  0  0  0
 28 82  1  0  0  0  0
 29 31  2  0  0  0  0
 29 81  1  0  0  0  0
 30 83  1  0  0  0  0
 31 84  1  0  0  0  0
 32 66  2  0  0  0  0
 33 67  1  0  0  0  0
 33 70  1  0  0  0  0
 34 36  2  0  0  0  0
 34 37  1  0  0  0  0
 35 71  1  0  0  0  0
 35 75  2  0  0  0  0
 36 62  1  0  0  0  0
 36 80  1  0  0  0  0
 37 68  1  0  0  0  0
 37 76  2  0  0  0  0
 38 51  1  0  0  0  0
 38 72  1  0  0  0  0
 38 77  2  0  0  0  0
 39 63  1  0  0  0  0
 39 69  1  0  0  0  0
 39 78  2  0  0  0  0
 40 64  1  0  0  0  0
 40 73  1  0  0  0  0
 40 79  2  0  0  0  0
 41 44  1  0  0  0  0
 42 51  1  0  0  0  0
 43 69  1  0  0  0  0
 44 46  1  0  0  0  0
 45 47  1  0  0  0  0
 45 48  1  0  0  0  0
 46 50  1  0  0  0  0
 47 52  1  0  0  0  0
 48 68  1  0  0  0  0
 49 52  1  0  0  0  0
 49 68  1  0  0  0  0
 50 72  1  0  0  0  0
 51 69  1  0  0  0  0
 52 67  1  0  0  0  0
 55 64  1  0  0  0  0
 56 65  1  0  0  0  0
 57 65  1  0  0  0  0
 58 65  1  0  0  0  0
 59 74  1  0  0  0  0
 60 62  1  0  0  0  0
 61 82  1  0  0  0  0
 63 65  1  0  0  0  0
 63 73  1  0  0  0  0
 64 74  1  0  0  0  0
 66 67  1  0  0  0  0
M  CHG  1  74   1
M  ISO  4  34 100  37 100  61 101  82 101
M  END
> <Batch ID>
0046

> <Smiles>
CNC(C)C(=O)NC(C(=O)N1Cc2cc([101O:1][101CH2:1]c3cc(C)c(CCC(=O)[100CH2:0][100C:0](=O)N4CCCC(n5nc(-c6ccc(Oc7ccc(F)cc7F)cc6)c(C(N)=O)c5N)C4)cc3C)ccc2CC1C(=O)NC1CCCc2ccccc21)C(C)(C)C

> <Shape>
0.194

> <Color>
0.079

> <Negative vol penalty>
0.000

$$$$

  -OEChem-04052317213D

 84 92  0     1  0  0  0  0  0999 V2000
  -21.8203  -12.2944   19.1477 C   0  0  0  0  0  0  0  0  0  0  0  0
  -21.7331  -13.4704   19.8857 C   0  0  0  0  0  0  0  0  0  0  0  0
  -28.4964  -26.3139   17.8198 C   0  0  0  0  0  0  0  0  0  0  0  0
  -28.9926  -26.6650   20.1581 C   0  0  0  0  0  0  0  0  0  0  0  0
  -23.0334  -11.6119   19.0666 C   0  0  0  0  0  0  0  0  0  0  0  0
  -22.8588  -13.9641   20.5441 C   0  0  0  0  0  0  0  0  0  0  0  0
  -23.4433  -18.9551   19.9167 C   0  0  0  0  0  0  0  0  0  0  0  0
  -29.8505  -26.0969   17.5650 C   0  0  0  0  0  0  0  0  0  0  0  0
  -30.3468  -26.4480   19.9033 C   0  0  0  0  0  0  0  0  0  0  0  0
  -22.6356  -19.7923   20.6852 C   0  0  0  0  0  0  0  0  0  0  0  0
  -32.9514  -28.1856   18.6276 C   0  0  0  0  0  0  0  0  0  0  0  0
  -33.8681  -29.0662   19.2020 C   0  0  0  0  0  0  0  0  0  0  0  0
  -24.4667  -20.1441   22.2156 C   0  0  0  0  0  0  0  0  0  0  0  0
  -34.8970  -27.2256   20.3814 C   0  0  0  0  0  0  0  0  0  0  0  0
  -20.7966  -26.5857   23.8864 C   0  0  0  0  0  0  0  0  0  0  0  0
  -28.0675  -26.5980   19.1163 C   0  0  0  0  0  0  0  0  0  0  0  0
  -25.7041  -25.8590   19.7297 C   0  0  0  0  0  0  0  0  0  0  0  0
  -24.1769  -12.1027   19.7163 C   0  0  0  0  0  0  0  0  0  0  0  0
  -24.7677  -18.6970   20.2986 C   0  0  0  0  0  0  0  0  0  0  0  0
  -24.0880  -13.2869   20.4727 C   0  0  0  0  0  0  0  0  0  0  0  0
  -25.2899  -19.3053   21.4489 C   0  0  0  0  0  0  0  0  0  0  0  0
  -30.7757  -26.1640   18.6067 C   0  0  0  0  0  0  0  0  0  0  0  0
  -23.1464  -20.3847   21.8364 C   0  0  0  0  0  0  0  0  0  0  0  0
  -33.0074  -26.8251   18.9302 C   0  0  0  0  0  0  0  0  0  0  0  0
  -34.8409  -28.5862   20.0788 C   0  0  0  0  0  0  0  0  0  0  0  0
  -33.9802  -26.3451   19.8070 C   0  0  0  0  0  0  0  0  0  0  0  0
  -26.6689  -26.8227   19.3800 C   0  0  0  0  0  0  0  0  0  0  0  0
  -19.5872  -26.9906   23.3963 C   0  0  0  0  0  0  0  0  0  0  0  0
  -24.5399  -26.5739   19.8703 C   0  0  0  0  0  0  0  0  0  0  0  0
  -19.2134  -25.5240   25.0118 C   0  0  0  0  0  0  0  0  0  0  0  0
  -25.8476  -24.4440   19.9113 C   0  0  0  0  0  0  0  0  0  0  0  0
  -26.3974  -16.0963   21.1257 C   0  0  0  0  0  0  0  0  0  0  0  0
  -28.9160  -18.1404   21.0981 C   0  0  0  0  0  0  0  0  0  0  0  0
  -30.0437  -21.3520   21.3451 C   0  0  0  0  0  0  0  0  0  0  0  0
  -21.7640  -31.0315   21.7597 C   0  0  0  0  0  0  0  0  0  0  0  0
  -25.4545  -11.3050   19.6386 C   0  0  0  0  0  0  0  0  0  0  0  0
  -25.6341  -17.8128   19.4443 C   0  0  0  0  0  0  0  0  0  0  0  0
  -26.7114  -19.0766   21.8911 C   0  0  0  0  0  0  0  0  0  0  0  0
  -26.6920  -12.0947   20.0573 C   0  0  0  0  0  0  0  0  0  0  0  0
  -23.4433  -31.3555   18.6370 C   0  0  0  0  0  0  0  0  0  0  0  0
  -26.4284  -12.8516   21.3552 C   0  0  0  0  0  0  0  0  0  0  0  0
  -24.3566  -30.1295   18.5839 C   0  0  0  0  0  0  0  0  0  0  0  0
  -23.3291  -31.9132   20.0540 C   0  0  0  0  0  0  0  0  0  0  0  0
  -23.8355  -29.7042   21.0224 C   0  0  0  0  0  0  0  0  0  0  0  0
  -25.2931  -13.8674   21.1805 C   0  0  1  0  0  0  0  0  0  0  0  0
  -26.8104  -17.2117   20.2075 C   0  0  1  0  0  0  0  0  0  0  0  0
  -23.9376  -29.0727   19.6235 C   0  0  2  0  0  0  0  0  0  0  0  0
  -18.5070  -24.6388   25.9711 C   0  0  0  0  0  0  0  0  0  0  0  0
  -31.6756  -23.2575   21.2902 C   0  0  0  0  0  0  0  0  0  0  0  0
  -29.5411  -17.2109   23.9362 C   0  0  0  0  0  0  0  0  0  0  0  0
  -31.0141  -19.2188   24.1949 C   0  0  0  0  0  0  0  0  0  0  0  0
  -31.5448  -17.4989   22.4677 C   0  0  0  0  0  0  0  0  0  0  0  0
  -29.6178  -21.7855   18.4486 C   0  0  0  0  0  0  0  0  0  0  0  0
  -19.2414  -27.9377   22.3333 C   0  0  0  0  0  0  0  0  0  0  0  0
  -19.0528  -29.4095   22.7903 C   0  0  0  0  0  0  0  0  0  0  0  0
  -22.5982  -24.1831   24.8744 C   0  0  0  0  0  0  0  0  0  0  0  0
  -21.9666  -23.0300   24.0928 C   0  0  0  0  0  0  0  0  0  0  0  0
  -21.5814  -24.9705   25.7086 C   0  0  0  0  0  0  0  0  0  0  0  0
  -20.2826  -30.0096   23.4686 C   0  0  0  0  0  0  0  0  0  0  0  0
  -23.0108  -22.2503   23.3050 C   0  0  0  0  0  0  0  0  0  1  0  0
  -29.5729  -19.0414   22.1158 C   0  0  1  0  0  0  0  0  0  0  0  0
  -31.0120  -22.1482   20.4890 C   0  0  2  0  0  0  0  0  0  0  0  0
  -30.3908  -18.2454   23.1717 C   0  0  0  0  0  0  0  0  0  0  0  0
  -26.1615  -28.0559   19.3030 N   0  0  0  0  0  0  0  0  0  0  0  0
  -20.5353  -25.6788   24.8851 N   0  0  0  0  0  0  0  0  0  0  0  0
  -24.8653  -27.8719   19.6062 N   0  0  0  0  0  0  0  0  0  0  0  0
  -18.6255  -26.3176   24.1107 N   0  3  0  0  0  0  0  0  0  0  0  0
  -27.5170  -18.1991   21.0259 N   0  0  0  0  0  0  0  0  0  0  0  0
  -22.9269  -30.8610   20.9905 N   0  0  0  0  0  0  0  0  0  0  0  0
  -23.2797  -26.2127   20.1926 N   0  0  0  0  0  0  0  0  0  0  0  0
  -27.1138  -23.8719   19.7277 N   0  0  0  0  0  0  0  0  0  0  0  0
  -25.7701  -15.0442   20.4863 N   0  0  0  0  0  0  0  0  0  0  0  0
  -30.3579  -20.0095   21.3576 N   0  0  0  0  0  0  0  0  0  0  0  0
  -21.4512  -29.9840   22.6174 N   0  0  0  0  0  0  0  0  0  0  0  0
  -30.2975  -22.7645   19.3355 N   0  3  0  0  0  0  0  0  0  0  0  0
  -24.8782  -23.7065   20.2109 O   0  0  0  0  0  0  0  0  0  0  0  0
  -26.6320  -16.1832   22.3254 O   0  0  0  0  0  0  0  0  0  0  0  0
  -29.6188  -17.4167   20.3882 O   0  0  0  0  0  0  0  0  0  0  0  0
  -29.1048  -21.8698   21.9459 O   0  0  0  0  0  0  0  0  0  0  0  0
  -21.0541  -32.0401   21.6837 O   0  0  0  0  0  0  0  0  0  0  0  0
  -32.0971  -25.9521   18.3585 O   0  0  0  0  0  0  0  0  0  0  0  0
  -22.3600  -21.2017   22.5886 O   0  0  0  0  0  0  0  0  0  1  0  0
  -35.7222  -29.4316   20.6291 F   0  0  0  0  0  0  0  0  0  0  0  0
  -34.0397  -25.0389   20.1006 F   0  0  0  0  0  0  0  0  0  0  0  0
  1  2  1  0  0  0  0
  1  5  2  0  0  0  0
  2  6  2  0  0  0  0
  3  8  2  0  0  0  0
  3 16  1  0  0  0  0
  4  9  1  0  0  0  0
  4 16  2  0  0  0  0
  5 18  1  0  0  0  0
  6 20  1  0  0  0  0
  7 10  2  0  0  0  0
  7 19  1  0  0  0  0
  8 22  1  0  0  0  0
  9 22  2  0  0  0  0
 10 23  1  0  0  0  0
 11 12  2  0  0  0  0
 11 24  1  0  0  0  0
 12 25  1  0  0  0  0
 13 21  1  0  0  0  0
 13 23  2  0  0  0  0
 14 25  2  0  0  0  0
 14 26  1  0  0  0  0
 15 28  2  0  0  0  0
 15 65  1  0  0  0  0
 16 27  1  0  0  0  0
 17 27  1  0  0  0  0
 17 29  2  0  0  0  0
 17 31  1  0  0  0  0
 18 20  2  0  0  0  0
 18 36  1  0  0  0  0
 19 21  2  0  0  0  0
 19 37  1  0  0  0  0
 20 45  1  0  0  0  0
 21 38  1  0  0  0  0
 22 81  1  0  0  0  0
 23 82  1  0  0  0  0
 24 26  2  0  0  0  0
 24 81  1  0  0  0  0
 25 83  1  0  0  0  0
 26 84  1  0  0  0  0
 27 64  2  0  0  0  0
 28 54  1  0  0  0  0
 28 67  1  0  0  0  0
 29 66  1  0  0  0  0
 29 70  1  0  0  0  0
 30 48  1  0  0  0  0
 30 65  1  0  0  0  0
 30 67  2  0  0  0  0
 31 71  1  0  0  0  0
 31 76  2  0  0  0  0
 32 46  1  0  0  0  0
 32 72  1  0  0  0  0
 32 77  2  0  0  0  0
 33 61  1  0  0  0  0
 33 68  1  0  0  0  0
 33 78  2  0  0  0  0
 34 62  1  0  0  0  0
 34 73  1  0  0  0  0
 34 79  2  0  0  0  0
 35 69  1  0  0  0  0
 35 74  1  0  0  0  0
 35 80  2  0  0  0  0
 36 39  1  0  0  0  0
 37 46  1  0  0  0  0
 38 68  1  0  0  0  0
 39 41  1  0  0  0  0
 40 42  1  0  0  0  0
 40 43  1  0  0  0  0
 41 45  1  0  0  0  0
 42 47  1  0  0  0  0
 43 69  1  0  0  0  0
 44 47  1  0  0  0  0
 44 69  1  0  0  0  0
 45 72  1  0  0  0  0
 46 68  1  0  0  0  0
 47 66  1  0  0  0  0
 49 62  1  0  0  0  0
 50 63  1  0  0  0  0
 51 63  1  0  0  0  0
 52 63  1  0  0  0  0
 53 75  1  0  0  0  0
 54 55  1  0  0  0  0
 55 59  1  0  0  0  0
 56 57  1  0  0  0  0
 56 58  1  0  0  0  0
 57 60  1  0  0  0  0
 58 65  1  0  0  0  0
 59 74  1  0  0  0  0
 60 82  1  0  0  0  0
 61 63  1  0  0  0  0
 61 73  1  0  0  0  0
 62 75  1  0  0  0  0
 64 66  1  0  0  0  0
M  CHG  2  67   1  75   1
M  ISO  4  35 100  60 101  74 100  82 101
M  END
> <Batch ID>
0046

> <Smiles>
CNC(C)C(=O)NC(C(=O)N1Cc2cc([101O:1][101CH2:1]CCCn3cc(CCC[100NH:0][100C:0](=O)N4CCCC(n5nc(-c6ccc(Oc7ccc(F)cc7F)cc6)c(C(N)=O)c5N)C4)nc3C)ccc2CC1C(=O)NC1CCCc2ccccc21)C(C)(C)C

> <Shape>
0.218

> <Color>
0.059

> <Negative vol penalty>
0.000

$$$$

  -OEChem-04052317213D

 84 92  0     1  0  0  0  0  0999 V2000
  -21.1814  -13.4970   20.7537 C   0  0  0  0  0  0  0  0  0  0  0  0
  -21.2532  -14.8674   20.9824 C   0  0  0  0  0  0  0  0  0  0  0  0
  -30.6040  -25.6706   20.3539 C   0  0  0  0  0  0  0  0  0  0  0  0
  -30.6229  -27.3557   22.0851 C   0  0  0  0  0  0  0  0  0  0  0  0
  -22.3369  -12.7194   20.8165 C   0  0  0  0  0  0  0  0  0  0  0  0
  -22.4806  -15.4608   21.2753 C   0  0  0  0  0  0  0  0  0  0  0  0
  -23.2230  -19.7594   18.7031 C   0  0  0  0  0  0  0  0  0  0  0  0
  -31.9934  -25.7508   20.2606 C   0  0  0  0  0  0  0  0  0  0  0  0
  -32.0123  -27.4359   21.9919 C   0  0  0  0  0  0  0  0  0  0  0  0
  -22.5690  -20.9000   19.1670 C   0  0  0  0  0  0  0  0  0  0  0  0
  -35.5671  -25.2515   19.8197 C   0  0  0  0  0  0  0  0  0  0  0  0
  -36.2829  -24.0561   19.7554 C   0  0  0  0  0  0  0  0  0  0  0  0
  -24.6051  -21.6240   20.2391 C   0  0  0  0  0  0  0  0  0  0  0  0
  -35.3923  -23.4071   21.9055 C   0  0  0  0  0  0  0  0  0  0  0  0
  -29.9187  -26.4731   21.2662 C   0  0  0  0  0  0  0  0  0  0  0  0
  -27.7347  -25.5410   22.1985 C   0  0  0  0  0  0  0  0  0  0  0  0
  -23.5806  -13.3051   21.1007 C   0  0  0  0  0  0  0  0  0  0  0  0
  -24.5722  -19.5368   19.0135 C   0  0  0  0  0  0  0  0  0  0  0  0
  -23.6537  -14.6901   21.3432 C   0  0  0  0  0  0  0  0  0  0  0  0
  -25.2745  -20.4811   19.7759 C   0  0  0  0  0  0  0  0  0  0  0  0
  -32.6976  -26.6334   21.0796 C   0  0  0  0  0  0  0  0  0  0  0  0
  -23.2592  -21.8311   19.9375 C   0  0  0  0  0  0  0  0  0  0  0  0
  -34.7640  -25.5249   20.9270 C   0  0  0  0  0  0  0  0  0  0  0  0
  -36.1954  -23.1339   20.7982 C   0  0  0  0  0  0  0  0  0  0  0  0
  -34.6765  -24.6026   21.9698 C   0  0  0  0  0  0  0  0  0  0  0  0
  -28.4834  -26.3911   21.3626 C   0  0  0  0  0  0  0  0  0  0  0  0
  -18.8922  -28.1045   21.9037 C   0  0  0  0  0  0  0  0  0  0  0  0
  -20.0155  -28.1800   22.6930 C   0  0  0  0  0  0  0  0  0  0  0  0
  -26.4260  -25.8472   21.9159 C   0  0  0  0  0  0  0  0  0  0  0  0
  -19.1080  -26.1733   22.7724 C   0  0  0  0  0  0  0  0  0  0  0  0
  -28.1823  -24.5622   23.1457 C   0  0  0  0  0  0  0  0  0  0  0  0
  -26.1671  -17.2969   20.6082 C   0  0  0  0  0  0  0  0  0  0  0  0
  -28.7576  -18.9211   19.5248 C   0  0  0  0  0  0  0  0  0  0  0  0
  -30.0668  -21.8600   18.3864 C   0  0  0  0  0  0  0  0  0  0  0  0
  -22.3985  -29.5938   20.9736 C   0  0  0  0  0  0  0  0  0  0  0  0
  -24.7948  -12.4165   21.2045 C   0  0  0  0  0  0  0  0  0  0  0  0
  -25.2704  -18.3147   18.4830 C   0  0  0  0  0  0  0  0  0  0  0  0
  -26.7295  -20.2989   20.1198 C   0  0  0  0  0  0  0  0  0  0  0  0
  -26.1152  -13.1806   21.1512 C   0  0  0  0  0  0  0  0  0  0  0  0
  -24.4262  -28.6437   18.2055 C   0  0  0  0  0  0  0  0  0  0  0  0
  -26.0671  -14.3945   22.0737 C   0  0  0  0  0  0  0  0  0  0  0  0
  -25.6032  -27.9087   18.8494 C   0  0  0  0  0  0  0  0  0  0  0  0
  -23.9577  -29.8181   19.0617 C   0  0  0  0  0  0  0  0  0  0  0  0
  -24.8179  -28.7418   21.1051 C   0  0  0  0  0  0  0  0  0  0  0  0
  -24.9706  -15.3744   21.6393 C   0  0  1  0  0  0  0  0  0  0  0  0
  -26.5075  -17.9353   19.2912 C   0  0  1  0  0  0  0  0  0  0  0  0
  -25.2896  -27.5153   20.3055 C   0  0  2  0  0  0  0  0  0  0  0  0
  -17.4881  -30.1817   21.8930 C   0  0  0  0  0  0  0  0  0  0  0  0
  -31.7693  -23.4331   17.4251 C   0  0  0  0  0  0  0  0  0  0  0  0
  -29.7126  -19.0791   22.4184 C   0  0  0  0  0  0  0  0  0  0  0  0
  -31.3052  -20.8807   21.7212 C   0  0  0  0  0  0  0  0  0  0  0  0
  -31.5119  -18.5918   20.7511 C   0  0  0  0  0  0  0  0  0  0  0  0
  -21.1777  -26.5046   24.1534 C   0  0  0  0  0  0  0  0  0  0  0  0
  -29.2763  -21.2038   15.6109 C   0  0  0  0  0  0  0  0  0  0  0  0
  -18.2843  -29.1571   21.0745 C   0  0  0  0  0  0  0  0  0  0  0  0
  -20.9526  -29.2843   22.9667 C   0  0  0  0  0  0  0  0  0  0  0  0
  -18.9289  -24.7294   23.1685 C   0  0  0  0  0  0  0  0  0  0  0  0
  -19.3548  -23.7327   22.0848 C   0  0  0  0  0  0  0  0  0  0  0  0
  -20.8455  -23.8108   21.7520 C   0  0  0  0  0  0  0  0  0  0  0  0
  -21.2231  -22.8356   20.6453 C   0  0  0  0  0  0  0  0  0  1  0  0
  -29.5898  -20.0714   20.0380 C   0  0  1  0  0  0  0  0  0  0  0  0
  -30.9492  -22.1738   17.1917 C   0  0  2  0  0  0  0  0  0  0  0  0
  -30.5019  -19.6585   21.2275 C   0  0  0  0  0  0  0  0  0  0  0  0
  -27.7142  -27.1781   20.6056 N   0  0  0  0  0  0  0  0  0  0  0  0
  -18.3317  -26.8529   21.9577 N   0  0  0  0  0  0  0  0  0  0  0  0
  -20.1408  -26.9355   23.2433 N   0  0  0  0  0  0  0  0  0  0  0  0
  -26.4686  -26.8237   20.9647 N   0  0  0  0  0  0  0  0  0  0  0  0
  -27.3663  -19.0847   19.5832 N   0  0  0  0  0  0  0  0  0  0  0  0
  -23.6755  -29.3774   20.4300 N   0  0  0  0  0  0  0  0  0  0  0  0
  -25.2544  -25.3736   22.3907 N   0  0  0  0  0  0  0  0  0  0  0  0
  -29.5613  -24.3749   23.3119 N   0  0  0  0  0  0  0  0  0  0  0  0
  -25.4076  -16.1479   20.4968 N   0  0  0  0  0  0  0  0  0  0  0  0
  -30.3126  -20.5983   18.8855 N   0  0  0  0  0  0  0  0  0  0  0  0
  -22.2134  -29.1398   22.2737 N   0  0  0  0  0  0  0  0  0  0  0  0
  -30.1173  -22.3741   15.9716 N   0  3  0  0  0  0  0  0  0  0  0  0
  -27.3830  -23.8625   23.8128 O   0  0  0  0  0  0  0  0  0  0  0  0
  -26.5653  -17.8082   21.6482 O   0  0  0  0  0  0  0  0  0  0  0  0
  -29.3213  -17.9174   19.0816 O   0  0  0  0  0  0  0  0  0  0  0  0
  -29.2445  -22.6559   18.8344 O   0  0  0  0  0  0  0  0  0  0  0  0
  -21.4890  -30.1455   20.3448 O   0  0  0  0  0  0  0  0  0  0  0  0
  -34.0534  -26.7118   20.9890 O   0  0  0  0  0  0  0  0  0  0  0  0
  -22.6232  -22.9449   20.3921 O   0  0  0  0  0  0  0  0  0  1  0  0
  -36.8816  -21.9852   20.7356 F   0  0  0  0  0  0  0  0  0  0  0  0
  -33.9057  -24.8591   23.0356 F   0  0  0  0  0  0  0  0  0  0  0  0
  1  2  1  0  0  0  0
  1  5  2  0  0  0  0
  2  6  2  0  0  0  0
  3  8  2  0  0  0  0
  3 15  1  0  0  0  0
  4  9  1  0  0  0  0
  4 15  2  0  0  0  0
  5 17  1  0  0  0  0
  6 19  1  0  0  0  0
  7 10  2  0  0  0  0
  7 18  1  0  0  0  0
  8 21  1  0  0  0  0
  9 21  2  0  0  0  0
 10 22  1  0  0  0  0
 11 12  2  0  0  0  0
 11 23  1  0  0  0  0
 12 24  1  0  0  0  0
 13 20  1  0  0  0  0
 13 22  2  0  0  0  0
 14 24  2  0  0  0  0
 14 25  1  0  0  0  0
 15 26  1  0  0  0  0
 16 26  1  0  0  0  0
 16 29  2  0  0  0  0
 16 31  1  0  0  0  0
 17 19  2  0  0  0  0
 17 36  1  0  0  0  0
 18 20  2  0  0  0  0
 18 37  1  0  0  0  0
 19 45  1  0  0  0  0
 20 38  1  0  0  0  0
 21 81  1  0  0  0  0
 22 82  1  0  0  0  0
 23 25  2  0  0  0  0
 23 81  1  0  0  0  0
 24 83  1  0  0  0  0
 25 84  1  0  0  0  0
 26 64  2  0  0  0  0
 27 28  2  0  0  0  0
 27 55  1  0  0  0  0
 27 65  1  0  0  0  0
 28 56  1  0  0  0  0
 28 66  1  0  0  0  0
 29 67  1  0  0  0  0
 29 70  1  0  0  0  0
 30 57  1  0  0  0  0
 30 65  2  0  0  0  0
 30 66  1  0  0  0  0
 31 71  1  0  0  0  0
 31 76  2  0  0  0  0
 32 46  1  0  0  0  0
 32 72  1  0  0  0  0
 32 77  2  0  0  0  0
 33 61  1  0  0  0  0
 33 68  1  0  0  0  0
 33 78  2  0  0  0  0
 34 62  1  0  0  0  0
 34 73  1  0  0  0  0
 34 79  2  0  0  0  0
 35 69  1  0  0  0  0
 35 74  1  0  0  0  0
 35 80  2  0  0  0  0
 36 39  1  0  0  0  0
 37 46  1  0  0  0  0
 38 68  1  0  0  0  0
 39 41  1  0  0  0  0
 40 42  1  0  0  0  0
 40 43  1  0  0  0  0
 41 45  1  0  0  0  0
 42 47  1  0  0  0  0
 43 69  1  0  0  0  0
 44 47  1  0  0  0  0
 44 69  1  0  0  0  0
 45 72  1  0  0  0  0
 46 68  1  0  0  0  0
 47 67  1  0  0  0  0
 48 55  1  0  0  0  0
 49 62  1  0  0  0  0
 50 63  1  0  0  0  0
 51 63  1  0  0  0  0
 52 63  1  0  0  0  0
 53 66  1  0  0  0  0
 54 75  1  0  0  0  0
 56 74  1  0  0  0  0
 57 58  1  0  0  0  0
 58 59  1  0  0  0  0
 59 60  1  0  0  0  0
 60 82  1  0  0  0  0
 61 63  1  0  0  0  0
 61 73  1  0  0  0  0
 62 75  1  0  0  0  0
 64 67  1  0  0  0  0
M  CHG  1  75   1
M  ISO  4  35 100  60 101  74 100  82 101
M  END
> <Batch ID>
0046

> <Smiles>
CCc1nc(CCC[101CH2:1][101O:1]c2ccc3c(c2)CN(C(=O)C(NC(=O)C(C)NC)C(C)(C)C)C(C(=O)NC2CCCc4ccccc42)C3)n(C)c1C[100NH:0][100C:0](=O)N1CCCC(n2nc(-c3ccc(Oc4ccc(F)cc4F)cc3)c(C(N)=O)c2N)C1

> <Shape>
0.209

> <Color>
0.062

> <Negative vol penalty>
0.000

$$$$

  -OEChem-04052317213D

 84 92  0     1  0  0  0  0  0999 V2000
  -32.1882  -13.8990   21.0756 C   0  0  0  0  0  0  0  0  0  0  0  0
  -31.5400  -15.1274   21.1559 C   0  0  0  0  0  0  0  0  0  0  0  0
  -26.6597  -28.2802   21.2273 C   0  0  0  0  0  0  0  0  0  0  0  0
  -24.6544  -28.1895   19.8830 C   0  0  0  0  0  0  0  0  0  0  0  0
  -31.5038  -12.7807   20.6013 C   0  0  0  0  0  0  0  0  0  0  0  0
  -30.2074  -15.2384   20.7608 C   0  0  0  0  0  0  0  0  0  0  0  0
  -25.9258  -18.8575   23.2257 C   0  0  0  0  0  0  0  0  0  0  0  0
  -27.3524  -27.5772   20.2417 C   0  0  0  0  0  0  0  0  0  0  0  0
  -25.3470  -27.4865   18.8972 C   0  0  0  0  0  0  0  0  0  0  0  0
  -25.4214  -20.1025   22.8522 C   0  0  0  0  0  0  0  0  0  0  0  0
  -27.6492  -24.3714   19.2127 C   0  0  0  0  0  0  0  0  0  0  0  0
  -28.4732  -23.3234   19.6231 C   0  0  0  0  0  0  0  0  0  0  0  0
  -23.5905  -19.0141   21.7198 C   0  0  0  0  0  0  0  0  0  0  0  0
  -30.3806  -24.4418   18.6493 C   0  0  0  0  0  0  0  0  0  0  0  0
  -20.6123  -24.4763   23.3089 C   0  0  0  0  0  0  0  0  0  0  0  0
  -19.4849  -26.7370   22.4454 C   0  0  0  0  0  0  0  0  0  0  0  0
  -25.3107  -28.5864   21.0480 C   0  0  0  0  0  0  0  0  0  0  0  0
  -24.4569  -30.7087   22.1769 C   0  0  0  0  0  0  0  0  0  0  0  0
  -30.1593  -12.8759   20.2092 C   0  0  0  0  0  0  0  0  0  0  0  0
  -25.2712  -17.6792   22.8392 C   0  0  0  0  0  0  0  0  0  0  0  0
  -29.5048  -14.1206   20.2795 C   0  0  0  0  0  0  0  0  0  0  0  0
  -24.0872  -17.7556   22.0919 C   0  0  0  0  0  0  0  0  0  0  0  0
  -26.6960  -27.1804   19.0766 C   0  0  0  0  0  0  0  0  0  0  0  0
  -24.2552  -20.1808   22.0967 C   0  0  0  0  0  0  0  0  0  0  0  0
  -28.1909  -25.4545   18.5205 C   0  0  0  0  0  0  0  0  0  0  0  0
  -29.8389  -23.3586   19.3414 C   0  0  0  0  0  0  0  0  0  0  0  0
  -29.5566  -25.4898   18.2389 C   0  0  0  0  0  0  0  0  0  0  0  0
  -24.5945  -29.3120   22.0661 C   0  0  0  0  0  0  0  0  0  0  0  0
  -20.5413  -24.7667   21.9642 C   0  0  0  0  0  0  0  0  0  0  0  0
  -19.5552  -26.4463   23.7900 C   0  0  0  0  0  0  0  0  0  0  0  0
  -23.6924  -30.8901   23.3034 C   0  0  0  0  0  0  0  0  0  0  0  0
  -24.9737  -31.7490   21.3365 C   0  0  0  0  0  0  0  0  0  0  0  0
  -26.0465  -15.1632   21.0582 C   0  0  0  0  0  0  0  0  0  0  0  0
  -23.1858  -14.0386   22.0943 C   0  0  0  0  0  0  0  0  0  0  0  0
  -19.7565  -27.3129   26.1007 C   0  0  0  0  0  0  0  0  0  0  0  0
  -20.0729  -14.7240   23.3139 C   0  0  0  0  0  0  0  0  0  0  0  0
  -29.4751  -11.6499   19.6585 C   0  0  0  0  0  0  0  0  0  0  0  0
  -25.8135  -16.3450   23.2729 C   0  0  0  0  0  0  0  0  0  0  0  0
  -23.3355  -16.5209   21.6688 C   0  0  0  0  0  0  0  0  0  0  0  0
  -27.9540  -11.7700   19.6126 C   0  0  0  0  0  0  0  0  0  0  0  0
  -22.6639  -28.8658   27.5062 C   0  0  0  0  0  0  0  0  0  0  0  0
  -27.5423  -13.1146   19.0215 C   0  0  0  0  0  0  0  0  0  0  0  0
  -23.4893  -29.2576   26.2812 C   0  0  0  0  0  0  0  0  0  0  0  0
  -21.9164  -27.5555   27.2799 C   0  0  0  0  0  0  0  0  0  0  0  0
  -21.8720  -27.9448   24.8370 C   0  0  0  0  0  0  0  0  0  0  0  0
  -28.0524  -14.2757   19.8836 C   0  0  1  0  0  0  0  0  0  0  0  0
  -25.3466  -15.1938   22.3874 C   0  0  1  0  0  0  0  0  0  0  0  0
  -22.6190  -29.2788   25.0121 C   0  0  2  0  0  0  0  0  0  0  0  0
  -17.9458  -13.6005   24.0284 C   0  0  0  0  0  0  0  0  0  0  0  0
  -17.5137  -27.0693   25.1079 C   0  0  0  0  0  0  0  0  0  0  0  0
  -19.0649  -28.9039   24.4280 C   0  0  0  0  0  0  0  0  0  0  0  0
  -22.4468  -13.5827   19.1693 C   0  0  0  0  0  0  0  0  0  0  0  0
  -20.0541  -13.3802   19.8777 C   0  0  0  0  0  0  0  0  0  0  0  0
  -21.7447  -11.7509   20.7203 C   0  0  0  0  0  0  0  0  0  0  0  0
  -20.3087  -15.7730   26.0712 C   0  0  0  0  0  0  0  0  0  0  0  0
  -23.1229  -25.2325   20.6393 C   0  0  0  0  0  0  0  0  0  0  0  0
  -21.0998  -23.8140   20.9486 C   0  0  0  0  0  0  0  0  0  0  0  0
  -23.1502  -22.8497   19.9157 C   0  0  0  0  0  0  0  0  0  0  0  0
  -23.0353  -21.4569   20.5031 C   0  0  0  0  0  0  0  0  0  1  0  0
  -21.7619  -14.1212   21.5997 C   0  0  1  0  0  0  0  0  0  0  0  0
  -19.2957  -14.1373   24.4784 C   0  0  2  0  0  0  0  0  0  0  0  0
  -19.0015  -27.3918   24.7978 C   0  0  0  0  0  0  0  0  0  0  0  0
  -21.5169  -13.2321   20.3479 C   0  0  0  0  0  0  0  0  0  0  0  0
  -19.9767  -25.9023   21.5083 N   0  0  0  0  0  0  0  0  0  0  0  0
  -20.1202  -25.3108   24.2459 N   0  0  0  0  0  0  0  0  0  0  0  0
  -23.9679  -28.6530   23.0444 N   0  0  0  0  0  0  0  0  0  0  0  0
  -23.4292  -29.6398   23.7806 N   0  0  0  0  0  0  0  0  0  0  0  0
  -23.9091  -15.2395   22.1121 N   0  0  0  0  0  0  0  0  0  0  0  0
  -21.1191  -27.6079   26.0532 N   0  0  0  0  0  0  0  0  0  0  0  0
  -23.2264  -31.9955   23.9226 N   0  0  0  0  0  0  0  0  0  0  0  0
  -25.7396  -31.3873   20.2198 N   0  0  0  0  0  0  0  0  0  0  0  0
  -27.2217  -14.4363   21.0578 N   0  0  0  0  0  0  0  0  0  0  0  0
  -20.9137  -13.7936   22.7406 N   0  0  0  0  0  0  0  0  0  0  0  0
  -19.0643  -15.1756   25.5222 N   0  3  0  0  0  0  0  0  0  0  0  0
  -22.6070  -23.8359   20.8835 N   0  3  1  0  0  0  0  0  0  0  0  0
  -24.7764  -32.9640   21.5782 O   0  0  0  0  0  0  0  0  0  0  0  0
  -25.5559  -15.7540   20.1032 O   0  0  0  0  0  0  0  0  0  0  0  0
  -23.6372  -12.9500   22.4586 O   0  0  0  0  0  0  0  0  0  0  0  0
  -19.1510  -27.0010   27.1295 O   0  0  0  0  0  0  0  0  0  0  0  0
  -19.9441  -15.8899   22.9469 O   0  0  0  0  0  0  0  0  0  0  0  0
  -27.3717  -26.4946   18.1144 O   0  0  0  0  0  0  0  0  0  0  0  0
  -23.7611  -21.3946   21.7302 O   0  0  0  0  0  0  0  0  0  1  0  0
  -30.6302  -22.3529   19.7370 F   0  0  0  0  0  0  0  0  0  0  0  0
  -30.0829  -26.5283   17.5753 F   0  0  0  0  0  0  0  0  0  0  0  0
  1  2  1  0  0  0  0
  1  5  2  0  0  0  0
  2  6  2  0  0  0  0
  3  8  2  0  0  0  0
  3 17  1  0  0  0  0
  4  9  1  0  0  0  0
  4 17  2  0  0  0  0
  5 19  1  0  0  0  0
  6 21  1  0  0  0  0
  7 10  2  0  0  0  0
  7 20  1  0  0  0  0
  8 23  1  0  0  0  0
  9 23  2  0  0  0  0
 10 24  1  0  0  0  0
 11 12  2  0  0  0  0
 11 25  1  0  0  0  0
 12 26  1  0  0  0  0
 13 22  1  0  0  0  0
 13 24  2  0  0  0  0
 14 26  2  0  0  0  0
 14 27  1  0  0  0  0
 15 29  1  0  0  0  0
 15 65  2  0  0  0  0
 16 30  2  0  0  0  0
 16 64  1  0  0  0  0
 17 28  1  0  0  0  0
 18 28  1  0  0  0  0
 18 31  2  0  0  0  0
 18 32  1  0  0  0  0
 19 21  2  0  0  0  0
 19 37  1  0  0  0  0
 20 22  2  0  0  0  0
 20 38  1  0  0  0  0
 21 46  1  0  0  0  0
 22 39  1  0  0  0  0
 23 81  1  0  0  0  0
 24 82  1  0  0  0  0
 25 27  2  0  0  0  0
 25 81  1  0  0  0  0
 26 83  1  0  0  0  0
 27 84  1  0  0  0  0
 28 66  2  0  0  0  0
 29 57  1  0  0  0  0
 29 64  2  0  0  0  0
 30 62  1  0  0  0  0
 30 65  1  0  0  0  0
 31 67  1  0  0  0  0
 31 70  1  0  0  0  0
 32 71  1  0  0  0  0
 32 76  2  0  0  0  0
 33 47  1  0  0  0  0
 33 72  1  0  0  0  0
 33 77  2  0  0  0  0
 34 60  1  0  0  0  0
 34 68  1  0  0  0  0
 34 78  2  0  0  0  0
 35 62  1  0  0  0  0
 35 69  1  0  0  0  0
 35 79  2  0  0  0  0
 36 61  1  0  0  0  0
 36 73  1  0  0  0  0
 36 80  2  0  0  0  0
 37 40  1  0  0  0  0
 38 47  1  0  0  0  0
 39 68  1  0  0  0  0
 40 42  1  0  0  0  0
 41 43  1  0  0  0  0
 41 44  1  0  0  0  0
 42 46  1  0  0  0  0
 43 48  1  0  0  0  0
 44 69  1  0  0  0  0
 45 48  1  0  0  0  0
 45 69  1  0  0  0  0
 46 72  1  0  0  0  0
 47 68  1  0  0  0  0
 48 67  1  0  0  0  0
 49 61  1  0  0  0  0
 50 62  1  0  0  0  0
 51 62  1  0  0  0  0
 52 63  1  0  0  0  0
 53 63  1  0  0  0  0
 54 63  1  0  0  0  0
 55 74  1  0  0  0  0
 56 75  1  0  0  0  0
 57 75  1  0  0  0  0
 58 59  1  0  0  0  0
 58 75  1  0  0  0  0
 59 82  1  0  0  0  0
 60 63  1  0  0  0  0
 60 73  1  0  0  0  0
 61 74  1  0  0  0  0
 66 67  1  0  0  0  0
M  CHG  2  74   1  75   1
M  ISO  4  35 100  59 101  62 100  82 101
M  END
> <Batch ID>
0046

> <Smiles>
CNC(C)C(=O)NC(C(=O)N1Cc2cc([101O:1][101CH2:1]CN(C)Cc3cnc([100C:0](C)(C)[100C:0](=O)N4CCCC(n5nc(-c6ccc(Oc7ccc(F)cc7F)cc6)c(C(N)=O)c5N)C4)cn3)ccc2CC1C(=O)NC1CCCc2ccccc21)C(C)(C)C

> <Shape>
0.222

> <Color>
0.075

> <Negative vol penalty>
0.000

$$$$

  -OEChem-04052317213D

 81 89  0     1  0  0  0  0  0999 V2000
  -28.8866  -13.3521   37.6333 C   0  0  0  0  0  0  0  0  0  0  0  0
  -29.4080  -13.1310   36.3626 C   0  0  0  0  0  0  0  0  0  0  0  0
  -23.2013   -9.8513   19.9522 C   0  0  0  0  0  0  0  0  0  0  0  0
  -23.9123   -9.9302   22.2598 C   0  0  0  0  0  0  0  0  0  0  0  0
  -27.6032  -12.9062   37.9463 C   0  0  0  0  0  0  0  0  0  0  0  0
  -28.6466  -12.4629   35.4043 C   0  0  0  0  0  0  0  0  0  0  0  0
  -28.8216  -14.7117   30.8704 C   0  0  0  0  0  0  0  0  0  0  0  0
  -22.5098   -8.6668   20.2057 C   0  0  0  0  0  0  0  0  0  0  0  0
  -23.2208   -8.7456   22.5134 C   0  0  0  0  0  0  0  0  0  0  0  0
  -29.9638  -14.5014   30.0990 C   0  0  0  0  0  0  0  0  0  0  0  0
  -20.0238   -7.7988   23.0642 C   0  0  0  0  0  0  0  0  0  0  0  0
  -19.2456   -7.7392   24.2203 C   0  0  0  0  0  0  0  0  0  0  0  0
  -28.7827  -12.8351   28.8154 C   0  0  0  0  0  0  0  0  0  0  0  0
  -20.5649   -5.8766   25.0123 C   0  0  0  0  0  0  0  0  0  0  0  0
  -29.9818  -16.3853   26.2448 C   0  0  0  0  0  0  0  0  0  0  0  0
  -23.9026  -10.4830   20.9792 C   0  0  0  0  0  0  0  0  0  0  0  0
  -24.1228  -13.0198   20.8256 C   0  0  0  0  0  0  0  0  0  0  0  0
  -26.8220  -12.2408   36.9884 C   0  0  0  0  0  0  0  0  0  0  0  0
  -27.6528  -13.9763   30.6267 C   0  0  0  0  0  0  0  0  0  0  0  0
  -27.3520  -12.0065   35.7052 C   0  0  0  0  0  0  0  0  0  0  0  0
  -27.6263  -13.0398   29.5834 C   0  0  0  0  0  0  0  0  0  0  0  0
  -31.0056  -15.7056   25.5580 C   0  0  0  0  0  0  0  0  0  0  0  0
  -22.5195   -8.1139   21.4863 C   0  0  0  0  0  0  0  0  0  0  0  0
  -29.9453  -13.5610   29.0732 C   0  0  0  0  0  0  0  0  0  0  0  0
  -21.0725   -6.8973   22.8821 C   0  0  0  0  0  0  0  0  0  0  0  0
  -19.5162   -6.7782   25.1943 C   0  0  0  0  0  0  0  0  0  0  0  0
  -21.3431   -5.9362   23.8562 C   0  0  0  0  0  0  0  0  0  0  0  0
  -24.6176  -11.7063   20.7178 C   0  0  0  0  0  0  0  0  0  0  0  0
  -30.6940  -15.8671   24.2301 C   0  0  0  0  0  0  0  0  0  0  0  0
  -25.1842  -13.8167   20.4722 C   0  0  0  0  0  0  0  0  0  0  0  0
  -22.8201  -13.4786   21.2108 C   0  0  0  0  0  0  0  0  0  0  0  0
  -25.9058  -11.9192   32.3061 C   0  0  0  0  0  0  0  0  0  0  0  0
  -23.9169  -12.1229   29.7517 C   0  0  0  0  0  0  0  0  0  0  0  0
  -23.2360  -12.3273   26.2144 C   0  0  0  0  0  0  0  0  0  0  0  0
  -30.9478  -14.0587   20.9584 C   0  0  0  0  0  0  0  0  0  0  0  0
  -25.4582  -11.7355   37.3877 C   0  0  0  0  0  0  0  0  0  0  0  0
  -26.4209  -14.2341   31.4504 C   0  0  0  0  0  0  0  0  0  0  0  0
  -26.3904  -12.2388   29.2681 C   0  0  0  0  0  0  0  0  0  0  0  0
  -24.5734  -11.3667   36.1998 C   0  0  0  0  0  0  0  0  0  0  0  0
  -29.3572  -13.1283   17.9120 C   0  0  0  0  0  0  0  0  0  0  0  0
  -25.3535  -10.5266   35.1936 C   0  0  0  0  0  0  0  0  0  0  0  0
  -27.9268  -12.7888   18.3350 C   0  0  0  0  0  0  0  0  0  0  0  0
  -30.3744  -12.7006   18.9676 C   0  0  0  0  0  0  0  0  0  0  0  0
  -28.6795  -12.8724   20.7485 C   0  0  0  0  0  0  0  0  0  0  0  0
  -26.5473  -11.3074   34.6309 C   0  0  1  0  0  0  0  0  0  0  0  0
  -25.4440  -13.0623   31.4472 C   0  0  1  0  0  0  0  0  0  0  0  0
  -27.6133  -13.3351   19.7409 C   0  0  2  0  0  0  0  0  0  0  0  0
  -21.0619  -12.5554   24.9820 C   0  0  0  0  0  0  0  0  0  0  0  0
  -24.0273   -9.0784   29.5813 C   0  0  0  0  0  0  0  0  0  0  0  0
  -23.0963   -9.2439   27.2631 C   0  0  0  0  0  0  0  0  0  0  0  0
  -21.7596  -10.0628   29.2035 C   0  0  0  0  0  0  0  0  0  0  0  0
  -28.8207  -17.0381   23.0324 C   0  0  0  0  0  0  0  0  0  0  0  0
  -24.1640  -14.7500   24.7902 C   0  0  0  0  0  0  0  0  0  0  0  0
  -32.1786  -14.9678   26.1523 C   0  0  0  0  0  0  0  0  0  0  0  0
  -31.3700  -15.3946   23.0069 C   0  0  0  0  0  0  0  0  0  0  0  0
  -32.0263  -13.4454   26.1255 C   0  0  0  0  0  0  0  0  0  0  0  0
  -30.8605  -12.9403   26.9677 C   0  0  0  0  0  0  0  0  0  1  0  0
  -23.7777  -11.3825   28.4434 C   0  0  1  0  0  0  0  0  0  0  0  0
  -22.2798  -13.2852   25.5269 C   0  0  2  0  0  0  0  0  0  0  0  0
  -23.1892   -9.9555   28.6298 C   0  0  0  0  0  0  0  0  0  0  0  0
  -29.0869  -16.9375   25.4213 N   0  0  0  0  0  0  0  0  0  0  0  0
  -25.8940  -11.6667   20.3264 N   0  0  0  0  0  0  0  0  0  0  0  0
  -29.5475  -16.6052   24.2033 N   0  0  0  0  0  0  0  0  0  0  0  0
  -26.2102  -12.9652   20.1851 N   0  0  0  0  0  0  0  0  0  0  0  0
  -25.2134  -12.5225   30.1057 N   0  0  0  0  0  0  0  0  0  0  0  0
  -30.0203  -13.2531   20.2773 N   0  0  0  0  0  0  0  0  0  0  0  0
  -25.3306  -15.1556   20.3820 N   0  0  0  0  0  0  0  0  0  0  0  0
  -21.8472  -12.5258   21.5424 N   0  0  0  0  0  0  0  0  0  0  0  0
  -26.1051  -12.2560   33.6313 N   0  0  0  0  0  0  0  0  0  0  0  0
  -22.9898  -12.2442   27.5686 N   0  0  0  0  0  0  0  0  0  0  0  0
  -30.5300  -14.5469   22.1904 N   0  0  0  0  0  0  0  0  0  0  0  0
  -22.9612  -13.9732   24.3941 N   0  3  0  0  0  0  0  0  0  0  0  0
  -22.5228  -14.6968   21.2437 O   0  0  0  0  0  0  0  0  0  0  0  0
  -26.0679  -10.8132   31.8039 O   0  0  0  0  0  0  0  0  0  0  0  0
  -22.9114  -12.3449   30.4308 O   0  0  0  0  0  0  0  0  0  0  0  0
  -24.1111  -11.7114   25.6100 O   0  0  0  0  0  0  0  0  0  0  0  0
  -32.0634  -14.3276   20.5000 O   0  0  0  0  0  0  0  0  0  0  0  0
  -21.8446   -6.9582   21.7342 O   0  0  0  0  0  0  0  0  0  0  0  0
  -31.0590  -13.3532   28.3192 O   0  0  0  0  0  0  0  0  0  1  0  0
  -18.7698   -6.7221   26.3052 F   0  0  0  0  0  0  0  0  0  0  0  0
  -22.3500   -5.0682   23.6874 F   0  0  0  0  0  0  0  0  0  0  0  0
  1  2  1  0  0  0  0
  1  5  2  0  0  0  0
  2  6  2  0  0  0  0
  3  8  2  0  0  0  0
  3 16  1  0  0  0  0
  4  9  1  0  0  0  0
  4 16  2  0  0  0  0
  5 18  1  0  0  0  0
  6 20  1  0  0  0  0
  7 10  2  0  0  0  0
  7 19  1  0  0  0  0
  8 23  1  0  0  0  0
  9 23  2  0  0  0  0
 10 24  1  0  0  0  0
 11 12  2  0  0  0  0
 11 25  1  0  0  0  0
 12 26  1  0  0  0  0
 13 21  1  0  0  0  0
 13 24  2  0  0  0  0
 14 26  2  0  0  0  0
 14 27  1  0  0  0  0
 15 22  1  0  0  0  0
 15 61  2  0  0  0  0
 16 28  1  0  0  0  0
 17 28  1  0  0  0  0
 17 30  2  0  0  0  0
 17 31  1  0  0  0  0
 18 20  2  0  0  0  0
 18 36  1  0  0  0  0
 19 21  2  0  0  0  0
 19 37  1  0  0  0  0
 20 45  1  0  0  0  0
 21 38  1  0  0  0  0
 22 29  2  0  0  0  0
 22 54  1  0  0  0  0
 23 78  1  0  0  0  0
 24 79  1  0  0  0  0
 25 27  2  0  0  0  0
 25 78  1  0  0  0  0
 26 80  1  0  0  0  0
 27 81  1  0  0  0  0
 28 62  2  0  0  0  0
 29 55  1  0  0  0  0
 29 63  1  0  0  0  0
 30 64  1  0  0  0  0
 30 67  1  0  0  0  0
 31 68  1  0  0  0  0
 31 73  2  0  0  0  0
 32 46  1  0  0  0  0
 32 69  1  0  0  0  0
 32 74  2  0  0  0  0
 33 58  1  0  0  0  0
 33 65  1  0  0  0  0
 33 75  2  0  0  0  0
 34 59  1  0  0  0  0
 34 70  1  0  0  0  0
 34 76  2  0  0  0  0
 35 66  1  0  0  0  0
 35 71  1  0  0  0  0
 35 77  2  0  0  0  0
 36 39  1  0  0  0  0
 37 46  1  0  0  0  0
 38 65  1  0  0  0  0
 39 41  1  0  0  0  0
 40 42  1  0  0  0  0
 40 43  1  0  0  0  0
 41 45  1  0  0  0  0
 42 47  1  0  0  0  0
 43 66  1  0  0  0  0
 44 47  1  0  0  0  0
 44 66  1  0  0  0  0
 45 69  1  0  0  0  0
 46 65  1  0  0  0  0
 47 64  1  0  0  0  0
 48 59  1  0  0  0  0
 49 60  1  0  0  0  0
 50 60  1  0  0  0  0
 51 60  1  0  0  0  0
 52 63  1  0  0  0  0
 53 72  1  0  0  0  0
 54 56  1  0  0  0  0
 55 71  1  0  0  0  0
 56 57  1  0  0  0  0
 57 79  1  0  0  0  0
 58 60  1  0  0  0  0
 58 70  1  0  0  0  0
 59 72  1  0  0  0  0
 61 63  1  0  0  0  0
 62 64  1  0  0  0  0
M  CHG  1  72   1
M  ISO  4  35 100  57 101  71 100  79 101
M  END
> <Batch ID>
0046

> <Smiles>
CNC(C)C(=O)NC(C(=O)N1Cc2cc([101O:1][101CH2:1]CCc3cnn(C)c3C[100NH:0][100C:0](=O)N3CCCC(n4nc(-c5ccc(Oc6ccc(F)cc6F)cc5)c(C(N)=O)c4N)C3)ccc2CC1C(=O)NC1CCCc2ccccc21)C(C)(C)C

> <Shape>
0.158

> <Color>
0.189

> <Negative vol penalty>
0.000

$$$$

  -OEChem-04052317213D

 83 91  0     1  0  0  0  0  0999 V2000
  -22.4980   -8.2167   20.6016 C   0  0  0  0  0  0  0  0  0  0  0  0
  -22.2408   -9.4899   20.1033 C   0  0  0  0  0  0  0  0  0  0  0  0
  -27.6073  -29.6370   19.2013 C   0  0  0  0  0  0  0  0  0  0  0  0
  -26.7776  -29.0170   21.3840 C   0  0  0  0  0  0  0  0  0  0  0  0
  -23.4519   -8.0408   21.6032 C   0  0  0  0  0  0  0  0  0  0  0  0
  -22.9366  -10.5882   20.6073 C   0  0  0  0  0  0  0  0  0  0  0  0
  -24.7142  -15.5598   17.5042 C   0  0  0  0  0  0  0  0  0  0  0  0
  -26.6400  -30.6385   19.1180 C   0  0  0  0  0  0  0  0  0  0  0  0
  -25.8103  -30.0186   21.3008 C   0  0  0  0  0  0  0  0  0  0  0  0
  -24.1653  -16.8355   17.3825 C   0  0  0  0  0  0  0  0  0  0  0  0
  -25.6571  -33.3707   21.7013 C   0  0  0  0  0  0  0  0  0  0  0  0
  -25.4628  -34.1767   22.8230 C   0  0  0  0  0  0  0  0  0  0  0  0
  -25.6292  -17.6256   19.1294 C   0  0  0  0  0  0  0  0  0  0  0  0
  -23.1601  -33.4552   22.9425 C   0  0  0  0  0  0  0  0  0  0  0  0
  -21.3125  -20.4663   22.1639 C   0  0  0  0  0  0  0  0  0  0  0  0
  -27.6760  -28.8262   20.3342 C   0  0  0  0  0  0  0  0  0  0  0  0
  -29.9749  -27.9062   20.9477 C   0  0  0  0  0  0  0  0  0  0  0  0
  -24.1665   -9.1363   22.1129 C   0  0  0  0  0  0  0  0  0  0  0  0
  -25.7189  -15.3043   18.4486 C   0  0  0  0  0  0  0  0  0  0  0  0
  -23.8999  -10.4271   21.6176 C   0  0  0  0  0  0  0  0  0  0  0  0
  -26.1911  -16.3463   19.2594 C   0  0  0  0  0  0  0  0  0  0  0  0
  -22.5047  -21.0534   21.6993 C   0  0  0  0  0  0  0  0  0  0  0  0
  -25.7415  -30.8293   20.1677 C   0  0  0  0  0  0  0  0  0  0  0  0
  -24.6207  -17.8680   18.1971 C   0  0  0  0  0  0  0  0  0  0  0  0
  -24.6029  -32.6070   21.2002 C   0  0  0  0  0  0  0  0  0  0  0  0
  -24.2143  -34.2189   23.4436 C   0  0  0  0  0  0  0  0  0  0  0  0
  -23.3545  -32.6492   21.8208 C   0  0  0  0  0  0  0  0  0  0  0  0
  -28.6747  -27.7911   20.4206 C   0  0  0  0  0  0  0  0  0  0  0  0
  -23.4159  -20.8179   22.6997 C   0  0  0  0  0  0  0  0  0  0  0  0
  -30.5178  -26.6533   20.7991 C   0  0  0  0  0  0  0  0  0  0  0  0
  -30.6331  -29.0438   21.5206 C   0  0  0  0  0  0  0  0  0  0  0  0
  -25.9776  -13.4183   20.9941 C   0  0  0  0  0  0  0  0  0  0  0  0
  -29.0470  -14.4675   20.9747 C   0  0  0  0  0  0  0  0  0  0  0  0
  -31.2775  -16.8824   20.0584 C   0  0  0  0  0  0  0  0  0  0  0  0
  -28.1069  -21.1887   20.3784 C   0  0  0  0  0  0  0  0  0  0  0  0
  -25.1542   -8.9031   23.2285 C   0  0  0  0  0  0  0  0  0  0  0  0
  -26.3195  -13.9290   18.5490 C   0  0  0  0  0  0  0  0  0  0  0  0
  -27.2820  -16.1289   20.2749 C   0  0  0  0  0  0  0  0  0  0  0  0
  -26.1151  -10.0693   23.4450 C   0  0  0  0  0  0  0  0  0  0  0  0
  -30.2598  -22.7660   18.0218 C   0  0  0  0  0  0  0  0  0  0  0  0
  -25.3548  -11.3916   23.4612 C   0  0  0  0  0  0  0  0  0  0  0  0
  -30.2150  -24.2431   18.4169 C   0  0  0  0  0  0  0  0  0  0  0  0
  -28.9042  -22.0894   18.2129 C   0  0  0  0  0  0  0  0  0  0  0  0
  -28.2769  -23.7162   19.9547 C   0  0  0  0  0  0  0  0  0  0  0  0
  -24.6516  -11.6401   22.1213 C   0  0  1  0  0  0  0  0  0  0  0  0
  -26.9774  -13.6614   19.8991 C   0  0  1  0  0  0  0  0  0  0  0  0
  -29.6352  -24.4277   19.8322 C   0  0  2  0  0  0  0  0  0  0  0  0
  -33.7098  -17.4795   20.2163 C   0  0  0  0  0  0  0  0  0  0  0  0
  -28.6555  -15.2809   23.8894 C   0  0  0  0  0  0  0  0  0  0  0  0
  -30.7160  -16.6904   23.7001 C   0  0  0  0  0  0  0  0  0  0  0  0
  -30.8644  -14.2196   23.3901 C   0  0  0  0  0  0  0  0  0  0  0  0
  -23.2691  -19.6530   24.9215 C   0  0  0  0  0  0  0  0  0  0  0  0
  -31.5932  -16.8605   17.1158 C   0  0  0  0  0  0  0  0  0  0  0  0
  -22.7256  -21.7771   20.3951 C   0  0  0  0  0  0  0  0  0  0  0  0
  -24.8411  -21.1781   22.8231 C   0  0  0  0  0  0  0  0  0  0  0  0
  -22.8477  -20.8458   19.1870 C   0  0  0  0  0  0  0  0  0  0  0  0
  -25.8349  -20.0327   22.5104 C   0  0  0  0  0  0  0  0  0  0  0  0
  -27.3038  -20.4398   22.6041 C   0  0  0  0  0  0  0  0  0  0  0  0
  -24.0571  -19.9208   19.2576 C   0  0  0  0  0  0  0  0  0  1  0  0
  -29.7828  -15.6315   21.5932 C   0  0  1  0  0  0  0  0  0  0  0  0
  -32.6353  -16.7962   19.3849 C   0  0  2  0  0  0  0  0  0  0  0  0
  -29.9828  -15.4596   23.1255 C   0  0  0  0  0  0  0  0  0  0  0  0
  -21.4507  -19.9003   23.3658 N   0  0  0  0  0  0  0  0  0  0  0  0
  -28.4076  -26.5622   19.9706 N   0  0  0  0  0  0  0  0  0  0  0  0
  -22.7405  -20.1305   23.6648 N   0  0  0  0  0  0  0  0  0  0  0  0
  -29.5476  -25.8937   20.2145 N   0  0  0  0  0  0  0  0  0  0  0  0
  -27.8330  -14.7652   20.3396 N   0  0  0  0  0  0  0  0  0  0  0  0
  -28.4109  -22.3007   19.5760 N   0  0  0  0  0  0  0  0  0  0  0  0
  -31.7256  -26.1384   21.1128 N   0  0  0  0  0  0  0  0  0  0  0  0
  -29.9305  -30.2542   21.5965 N   0  0  0  0  0  0  0  0  0  0  0  0
  -25.6015  -12.0955   21.1289 N   0  0  0  0  0  0  0  0  0  0  0  0
  -31.0245  -15.7757   20.8410 N   0  0  0  0  0  0  0  0  0  0  0  0
  -27.6513  -21.4775   21.6590 N   0  0  0  0  0  0  0  0  0  0  0  0
  -32.5915  -17.4485   18.0457 N   0  3  0  0  0  0  0  0  0  0  0  0
  -31.8152  -28.9930   21.9374 O   0  0  0  0  0  0  0  0  0  0  0  0
  -25.5781  -14.3608   21.6677 O   0  0  0  0  0  0  0  0  0  0  0  0
  -29.5350  -13.3368   21.0461 O   0  0  0  0  0  0  0  0  0  0  0  0
  -30.5190  -17.8377   19.9085 O   0  0  0  0  0  0  0  0  0  0  0  0
  -28.2372  -20.0246   19.9849 O   0  0  0  0  0  0  0  0  0  0  0  0
  -24.7977  -31.8067   20.0869 O   0  0  0  0  0  0  0  0  0  0  0  0
  -24.0861  -19.1140   18.0808 O   0  0  0  0  0  0  0  0  0  1  0  0
  -24.0283  -34.9918   24.5217 F   0  0  0  0  0  0  0  0  0  0  0  0
  -22.3382  -31.9168   21.3446 F   0  0  0  0  0  0  0  0  0  0  0  0
  1  2  1  0  0  0  0
  1  5  2  0  0  0  0
  2  6  2  0  0  0  0
  3  8  2  0  0  0  0
  3 16  1  0  0  0  0
  4  9  1  0  0  0  0
  4 16  2  0  0  0  0
  5 18  1  0  0  0  0
  6 20  1  0  0  0  0
  7 10  2  0  0  0  0
  7 19  1  0  0  0  0
  8 23  1  0  0  0  0
  9 23  2  0  0  0  0
 10 24  1  0  0  0  0
 11 12  2  0  0  0  0
 11 25  1  0  0  0  0
 12 26  1  0  0  0  0
 13 21  1  0  0  0  0
 13 24  2  0  0  0  0
 14 26  2  0  0  0  0
 14 27  1  0  0  0  0
 15 22  1  0  0  0  0
 15 63  2  0  0  0  0
 16 28  1  0  0  0  0
 17 28  1  0  0  0  0
 17 30  2  0  0  0  0
 17 31  1  0  0  0  0
 18 20  2  0  0  0  0
 18 36  1  0  0  0  0
 19 21  2  0  0  0  0
 19 37  1  0  0  0  0
 20 45  1  0  0  0  0
 21 38  1  0  0  0  0
 22 29  2  0  0  0  0
 22 54  1  0  0  0  0
 23 80  1  0  0  0  0
 24 81  1  0  0  0  0
 25 27  2  0  0  0  0
 25 80  1  0  0  0  0
 26 82  1  0  0  0  0
 27 83  1  0  0  0  0
 28 64  2  0  0  0  0
 29 55  1  0  0  0  0
 29 65  1  0  0  0  0
 30 66  1  0  0  0  0
 30 69  1  0  0  0  0
 31 70  1  0  0  0  0
 31 75  2  0  0  0  0
 32 46  1  0  0  0  0
 32 71  1  0  0  0  0
 32 76  2  0  0  0  0
 33 60  1  0  0  0  0
 33 67  1  0  0  0  0
 33 77  2  0  0  0  0
 34 61  1  0  0  0  0
 34 72  1  0  0  0  0
 34 78  2  0  0  0  0
 35 68  1  0  0  0  0
 35 73  1  0  0  0  0
 35 79  2  0  0  0  0
 36 39  1  0  0  0  0
 37 46  1  0  0  0  0
 38 67  1  0  0  0  0
 39 41  1  0  0  0  0
 40 42  1  0  0  0  0
 40 43  1  0  0  0  0
 41 45  1  0  0  0  0
 42 47  1  0  0  0  0
 43 68  1  0  0  0  0
 44 47  1  0  0  0  0
 44 68  1  0  0  0  0
 45 71  1  0  0  0  0
 46 67  1  0  0  0  0
 47 66  1  0  0  0  0
 48 61  1  0  0  0  0
 49 62  1  0  0  0  0
 50 62  1  0  0  0  0
 51 62  1  0  0  0  0
 52 65  1  0  0  0  0
 53 74  1  0  0  0  0
 54 56  1  0  0  0  0
 55 57  1  0  0  0  0
 56 59  1  0  0  0  0
 57 58  1  0  0  0  0
 58 73  1  0  0  0  0
 59 81  1  0  0  0  0
 60 62  1  0  0  0  0
 60 72  1  0  0  0  0
 61 74  1  0  0  0  0
 63 65  1  0  0  0  0
 64 66  1  0  0  0  0
M  CHG  1  74   1
M  ISO  4  35 100  59 101  73 100  81 101
M  END
> <Batch ID>
0046

> <Smiles>
CNC(C)C(=O)NC(C(=O)N1Cc2cc([101O:1][101CH2:1]CCc3cnn(C)c3CCC[100NH:0][100C:0](=O)N3CCCC(n4nc(-c5ccc(Oc6ccc(F)cc6F)cc5)c(C(N)=O)c4N)C3)ccc2CC1C(=O)NC1CCCc2ccccc21)C(C)(C)C

> <Shape>
0.242

> <Color>
0.064

> <Negative vol penalty>
0.000

$$$$

  -OEChem-04052317213D

 86 94  0     1  0  0  0  0  0999 V2000
  -16.6534  -28.8793   24.2588 C   0  0  0  0  0  0  0  0  0  0  0  0
  -17.2479  -28.0157   23.3443 C   0  0  0  0  0  0  0  0  0  0  0  0
  -23.5701  -13.7537   19.5346 C   0  0  0  0  0  0  0  0  0  0  0  0
  -23.0455  -14.8444   21.6256 C   0  0  0  0  0  0  0  0  0  0  0  0
  -17.1536  -30.1702   24.4237 C   0  0  0  0  0  0  0  0  0  0  0  0
  -18.3424  -28.4431   22.5933 C   0  0  0  0  0  0  0  0  0  0  0  0
  -23.1113  -25.0556   20.7800 C   0  0  0  0  0  0  0  0  0  0  0  0
  -27.0941  -22.5737   19.2846 C   0  0  0  0  0  0  0  0  0  0  0  0
  -22.9477  -12.5897   19.9855 C   0  0  0  0  0  0  0  0  0  0  0  0
  -22.4230  -13.6804   22.0765 C   0  0  0  0  0  0  0  0  0  0  0  0
  -23.4068  -24.4213   19.5741 C   0  0  0  0  0  0  0  0  0  0  0  0
  -23.6852  -10.0050   22.0348 C   0  0  0  0  0  0  0  0  0  0  0  0
  -24.3451   -8.7944   21.8231 C   0  0  0  0  0  0  0  0  0  0  0  0
  -28.0801  -22.6754   20.2597 C   0  0  0  0  0  0  0  0  0  0  0  0
  -24.7354  -26.3212   18.9074 C   0  0  0  0  0  0  0  0  0  0  0  0
  -22.4744   -8.0036   20.5145 C   0  0  0  0  0  0  0  0  0  0  0  0
  -23.6190  -14.8810   20.3546 C   0  0  0  0  0  0  0  0  0  0  0  0
  -23.6679  -17.1479   19.1856 C   0  0  0  0  0  0  0  0  0  0  0  0
  -18.2608  -30.6103   23.6814 C   0  0  0  0  0  0  0  0  0  0  0  0
  -23.6176  -26.3341   21.0545 C   0  0  0  0  0  0  0  0  0  0  0  0
  -18.8570  -29.7416   22.7475 C   0  0  0  0  0  0  0  0  0  0  0  0
  -24.4469  -26.9684   20.1185 C   0  0  0  0  0  0  0  0  0  0  0  0
  -27.4556  -22.3860   17.9552 C   0  0  0  0  0  0  0  0  0  0  0  0
  -22.3741  -12.5531   21.2565 C   0  0  0  0  0  0  0  0  0  0  0  0
  -24.2166  -25.0553   18.6363 C   0  0  0  0  0  0  0  0  0  0  0  0
  -22.4199  -10.2148   21.4864 C   0  0  0  0  0  0  0  0  0  0  0  0
  -23.7397   -7.7938   21.0630 C   0  0  0  0  0  0  0  0  0  0  0  0
  -21.8146   -9.2142   20.7262 C   0  0  0  0  0  0  0  0  0  0  0  0
  -24.2623  -16.0835   19.8896 C   0  0  0  0  0  0  0  0  0  0  0  0
  -28.8060  -22.3072   17.6552 C   0  0  0  0  0  0  0  0  0  0  0  0
  -29.4025  -22.5835   19.8566 C   0  0  0  0  0  0  0  0  0  0  0  0
  -24.6932  -18.0382   18.9793 C   0  0  0  0  0  0  0  0  0  0  0  0
  -22.3103  -17.3166   18.7564 C   0  0  0  0  0  0  0  0  0  0  0  0
  -22.3279  -29.1861   21.6085 C   0  0  0  0  0  0  0  0  0  0  0  0
  -25.4033  -30.0282   22.2045 C   0  0  0  0  0  0  0  0  0  0  0  0
  -28.7235  -29.4132   21.7098 C   0  0  0  0  0  0  0  0  0  0  0  0
  -29.6016  -19.2089   21.8333 C   0  0  0  0  0  0  0  0  0  0  0  0
  -18.7365  -32.0303   23.8601 C   0  0  0  0  0  0  0  0  0  0  0  0
  -23.3114  -26.9935   22.3712 C   0  0  0  0  0  0  0  0  0  0  0  0
  -25.0322  -28.3326   20.3736 C   0  0  0  0  0  0  0  0  0  0  0  0
  -20.1329  -32.2805   23.2962 C   0  0  0  0  0  0  0  0  0  0  0  0
  -29.4343  -18.2446   18.4400 C   0  0  0  0  0  0  0  0  0  0  0  0
  -20.2600  -31.6803   21.8996 C   0  0  0  0  0  0  0  0  0  0  0  0
  -28.0205  -17.6709   18.3578 C   0  0  0  0  0  0  0  0  0  0  0  0
  -30.1333  -17.8652   19.7468 C   0  0  0  0  0  0  0  0  0  0  0  0
  -27.9450  -17.6351   20.8787 C   0  0  0  0  0  0  0  0  0  0  0  0
  -20.0614  -30.1601   21.9323 C   0  0  1  0  0  0  0  0  0  0  0  0
  -23.4610  -28.5112   22.3285 C   0  0  1  0  0  0  0  0  0  0  0  0
  -27.1990  -18.0517   19.6017 C   0  0  2  0  0  0  0  0  0  0  0  0
  -29.2526  -22.1060   16.2440 C   0  0  0  0  0  0  0  0  0  0  0  0
  -30.9989  -30.2951   22.2949 C   0  0  0  0  0  0  0  0  0  0  0  0
  -25.0449  -32.2866   20.1844 C   0  0  0  0  0  0  0  0  0  0  0  0
  -27.5367  -32.5151   20.1025 C   0  0  0  0  0  0  0  0  0  0  0  0
  -26.3185  -32.9195   22.2415 C   0  0  0  0  0  0  0  0  0  0  0  0
  -32.0229  -18.4815   21.9476 C   0  0  0  0  0  0  0  0  0  0  0  0
  -29.4712  -26.9010   23.0841 C   0  0  0  0  0  0  0  0  0  0  0  0
  -26.3908  -22.2744   16.8934 C   0  0  0  0  0  0  0  0  0  0  0  0
  -26.2276  -23.5402   16.0493 C   0  0  0  0  0  0  0  0  0  0  0  0
  -32.2367  -21.5873   21.8677 C   0  0  0  0  0  0  0  0  0  0  0  0
  -31.3332  -20.7169   22.7308 C   0  0  0  0  0  0  0  0  0  0  0  0
  -25.7619  -24.7474   16.8550 C   0  0  0  0  0  0  0  0  0  1  0  0
  -31.5969  -21.9712   20.5390 C   0  0  0  0  0  0  0  0  0  0  0  0
  -26.5475  -30.5561   21.3732 C   0  0  1  0  0  0  0  0  0  0  0  0
  -29.8881  -29.3303   22.6800 C   0  0  2  0  0  0  0  0  0  0  0  0
  -26.3495  -32.0444   20.9695 C   0  0  0  0  0  0  0  0  0  0  0  0
  -25.5643  -16.2780   20.1154 N   0  0  0  0  0  0  0  0  0  0  0  0
  -29.7923  -22.4015   18.5749 N   0  0  0  0  0  0  0  0  0  0  0  0
  -25.7965  -17.4749   19.5499 N   0  0  0  0  0  0  0  0  0  0  0  0
  -24.6985  -28.9389   21.6730 N   0  0  0  0  0  0  0  0  0  0  0  0
  -29.2955  -18.2021   20.9058 N   0  0  0  0  0  0  0  0  0  0  0  0
  -24.7496  -19.2402   18.3674 N   0  0  0  0  0  0  0  0  0  0  0  0
  -21.3858  -16.3053   19.0511 N   0  0  0  0  0  0  0  0  0  0  0  0
  -21.2559  -29.5047   22.4201 N   0  0  0  0  0  0  0  0  0  0  0  0
  -27.7615  -30.3018   22.1413 N   0  0  0  0  0  0  0  0  0  0  0  0
  -30.9590  -19.4767   22.0659 N   0  0  0  0  0  0  0  0  0  0  0  0
  -30.4498  -27.9501   22.6983 N   0  3  0  0  0  0  0  0  0  0  0  0
  -21.9320  -18.3266   18.1158 O   0  0  0  0  0  0  0  0  0  0  0  0
  -22.4201  -29.4031   20.4060 O   0  0  0  0  0  0  0  0  0  0  0  0
  -25.1489  -30.5582   23.2890 O   0  0  0  0  0  0  0  0  0  0  0  0
  -28.6740  -28.7582   20.6710 O   0  0  0  0  0  0  0  0  0  0  0  0
  -28.7114  -19.8302   22.4281 O   0  0  0  0  0  0  0  0  0  0  0  0
  -21.7665  -11.4175   21.6968 O   0  0  0  0  0  0  0  0  0  0  0  0
  -24.5060  -24.4388   17.4582 O   0  0  0  0  0  0  0  0  0  1  0  0
  -30.3922  -22.6817   20.7992 O   0  0  0  0  0  0  0  0  0  0  0  0
  -24.3741   -6.6319   20.8585 F   0  0  0  0  0  0  0  0  0  0  0  0
  -20.5997   -9.4104   20.1958 F   0  0  0  0  0  0  0  0  0  0  0  0
  1  2  1  0  0  0  0
  1  5  2  0  0  0  0
  2  6  2  0  0  0  0
  3  9  2  0  0  0  0
  3 17  1  0  0  0  0
  4 10  1  0  0  0  0
  4 17  2  0  0  0  0
  5 19  1  0  0  0  0
  6 21  1  0  0  0  0
  7 11  2  0  0  0  0
  7 20  1  0  0  0  0
  8 14  2  0  0  0  0
  8 23  1  0  0  0  0
  9 24  1  0  0  0  0
 10 24  2  0  0  0  0
 11 25  1  0  0  0  0
 12 13  2  0  0  0  0
 12 26  1  0  0  0  0
 13 27  1  0  0  0  0
 14 31  1  0  0  0  0
 15 22  1  0  0  0  0
 15 25  2  0  0  0  0
 16 27  2  0  0  0  0
 16 28  1  0  0  0  0
 17 29  1  0  0  0  0
 18 29  1  0  0  0  0
 18 32  2  0  0  0  0
 18 33  1  0  0  0  0
 19 21  2  0  0  0  0
 19 38  1  0  0  0  0
 20 22  2  0  0  0  0
 20 39  1  0  0  0  0
 21 47  1  0  0  0  0
 22 40  1  0  0  0  0
 23 30  2  0  0  0  0
 23 57  1  0  0  0  0
 24 82  1  0  0  0  0
 25 83  1  0  0  0  0
 26 28  2  0  0  0  0
 26 82  1  0  0  0  0
 27 85  1  0  0  0  0
 28 86  1  0  0  0  0
 29 66  2  0  0  0  0
 30 50  1  0  0  0  0
 30 67  1  0  0  0  0
 31 67  2  0  0  0  0
 31 84  1  0  0  0  0
 32 68  1  0  0  0  0
 32 71  1  0  0  0  0
 33 72  1  0  0  0  0
 33 77  2  0  0  0  0
 34 48  1  0  0  0  0
 34 73  1  0  0  0  0
 34 78  2  0  0  0  0
 35 63  1  0  0  0  0
 35 69  1  0  0  0  0
 35 79  2  0  0  0  0
 36 64  1  0  0  0  0
 36 74  1  0  0  0  0
 36 80  2  0  0  0  0
 37 70  1  0  0  0  0
 37 75  1  0  0  0  0
 37 81  2  0  0  0  0
 38 41  1  0  0  0  0
 39 48  1  0  0  0  0
 40 69  1  0  0  0  0
 41 43  1  0  0  0  0
 42 44  1  0  0  0  0
 42 45  1  0  0  0  0
 43 47  1  0  0  0  0
 44 49  1  0  0  0  0
 45 70  1  0  0  0  0
 46 49  1  0  0  0  0
 46 70  1  0  0  0  0
 47 73  1  0  0  0  0
 48 69  1  0  0  0  0
 49 68  1  0  0  0  0
 51 64  1  0  0  0  0
 52 65  1  0  0  0  0
 53 65  1  0  0  0  0
 54 65  1  0  0  0  0
 55 75  1  0  0  0  0
 56 76  1  0  0  0  0
 57 58  1  0  0  0  0
 58 61  1  0  0  0  0
 59 60  1  0  0  0  0
 59 62  1  0  0  0  0
 60 75  1  0  0  0  0
 61 83  1  0  0  0  0
 62 84  1  0  0  0  0
 63 65  1  0  0  0  0
 63 74  1  0  0  0  0
 64 76  1  0  0  0  0
 66 68  1  0  0  0  0
M  CHG  1  76   1
M  ISO  4  37 100  61 101  75 100  83 101
M  END
> <Batch ID>
0046

> <Smiles>
CNC(C)C(=O)NC(C(=O)N1Cc2cc([101O:1][101CH2:1]CCc3ccc(OCCC[100N:0](C)[100C:0](=O)N4CCCC(n5nc(-c6ccc(Oc7ccc(F)cc7F)cc6)c(C(N)=O)c5N)C4)nc3C)ccc2CC1C(=O)NC1CCCc2ccccc21)C(C)(C)C

> <Shape>
0.252

> <Color>
0.068

> <Negative vol penalty>
0.000

$$$$

  -OEChem-04052317213D

 90 98  0     1  0  0  0  0  0999 V2000
  -21.8246  -11.3626   19.9057 C   0  0  0  0  0  0  0  0  0  0  0  0
  -21.5422  -12.6440   20.3679 C   0  0  0  0  0  0  0  0  0  0  0  0
  -28.8121  -26.9671   21.0374 C   0  0  0  0  0  0  0  0  0  0  0  0
  -28.3989  -26.7274   18.6691 C   0  0  0  0  0  0  0  0  0  0  0  0
  -23.1408  -10.9029   19.8897 C   0  0  0  0  0  0  0  0  0  0  0  0
  -22.5758  -13.4662   20.8153 C   0  0  0  0  0  0  0  0  0  0  0  0
  -22.9563  -19.5504   20.2298 C   0  0  0  0  0  0  0  0  0  0  0  0
  -19.6898  -25.1133   24.9831 C   0  0  0  0  0  0  0  0  0  0  0  0
  -18.9593  -23.1535   23.7736 C   0  0  0  0  0  0  0  0  0  0  0  0
  -18.7199  -25.8761   24.3329 C   0  0  0  0  0  0  0  0  0  0  0  0
  -17.9894  -23.9164   23.1233 C   0  0  0  0  0  0  0  0  0  0  0  0
  -30.0339  -26.3104   20.8907 C   0  0  0  0  0  0  0  0  0  0  0  0
  -29.6208  -26.0708   18.5224 C   0  0  0  0  0  0  0  0  0  0  0  0
  -22.6716  -20.5967   21.1061 C   0  0  0  0  0  0  0  0  0  0  0  0
  -33.4259  -25.0167   21.0789 C   0  0  0  0  0  0  0  0  0  0  0  0
  -34.5369  -25.5626   21.7218 C   0  0  0  0  0  0  0  0  0  0  0  0
  -24.9981  -20.6942   21.7361 C   0  0  0  0  0  0  0  0  0  0  0  0
  -34.2635  -27.6048   20.4600 C   0  0  0  0  0  0  0  0  0  0  0  0
  -27.9945  -27.1756   19.9266 C   0  0  0  0  0  0  0  0  0  0  0  0
  -26.4930  -29.2372   19.9790 C   0  0  0  0  0  0  0  0  0  0  0  0
  -24.1922  -11.7233   20.3281 C   0  0  0  0  0  0  0  0  0  0  0  0
  -24.2644  -19.0601   20.1079 C   0  0  0  0  0  0  0  0  0  0  0  0
  -23.9072  -13.0166   20.8063 C   0  0  0  0  0  0  0  0  0  0  0  0
  -25.2973  -19.6433   20.8557 C   0  0  0  0  0  0  0  0  0  0  0  0
  -19.8096  -23.7519   24.7035 C   0  0  0  0  0  0  0  0  0  0  0  0
  -17.8697  -25.2777   23.4030 C   0  0  0  0  0  0  0  0  0  0  0  0
  -30.4382  -25.8622   19.6332 C   0  0  0  0  0  0  0  0  0  0  0  0
  -23.6920  -21.1668   21.8616 C   0  0  0  0  0  0  0  0  0  0  0  0
  -32.7338  -25.7647   20.1265 C   0  0  0  0  0  0  0  0  0  0  0  0
  -34.9557  -26.8566   21.4124 C   0  0  0  0  0  0  0  0  0  0  0  0
  -33.1526  -27.0588   19.8171 C   0  0  0  0  0  0  0  0  0  0  0  0
  -26.7321  -27.8534   20.0776 C   0  0  0  0  0  0  0  0  0  0  0  0
  -25.1439  -29.3692   20.2002 C   0  0  0  0  0  0  0  0  0  0  0  0
  -27.4086  -30.3076   19.7114 C   0  0  0  0  0  0  0  0  0  0  0  0
  -25.6696  -16.2602   20.6460 C   0  0  0  0  0  0  0  0  0  0  0  0
  -28.2386  -17.7364   19.3256 C   0  0  0  0  0  0  0  0  0  0  0  0
  -20.2884  -26.5850   18.9799 C   0  0  0  0  0  0  0  0  0  0  0  0
  -29.8470  -20.6587   18.6047 C   0  0  0  0  0  0  0  0  0  0  0  0
  -25.5934  -11.1655   20.3362 C   0  0  0  0  0  0  0  0  0  0  0  0
  -24.5598  -17.9487   19.1383 C   0  0  0  0  0  0  0  0  0  0  0  0
  -26.7219  -19.1669   20.7465 C   0  0  0  0  0  0  0  0  0  0  0  0
  -26.6738  -12.2347   20.4765 C   0  0  0  0  0  0  0  0  0  0  0  0
  -21.6670  -26.5994   22.3453 C   0  0  0  0  0  0  0  0  0  0  0  0
  -26.3142  -13.2143   21.5891 C   0  0  0  0  0  0  0  0  0  0  0  0
  -23.1090  -27.0321   22.0831 C   0  0  0  0  0  0  0  0  0  0  0  0
  -21.1305  -25.7217   21.2176 C   0  0  0  0  0  0  0  0  0  0  0  0
  -22.6753  -26.7817   19.6007 C   0  0  0  0  0  0  0  0  0  0  0  0
  -25.0039  -13.9471   21.2766 C   0  0  1  0  0  0  0  0  0  0  0  0
  -25.8376  -17.1862   19.4747 C   0  0  1  0  0  0  0  0  0  0  0  0
  -23.2438  -27.6939   20.7005 C   0  0  2  0  0  0  0  0  0  0  0  0
  -18.0717  -29.0016   22.0007 C   0  0  0  0  0  0  0  0  0  0  0  0
  -31.9465  -21.5443   17.5533 C   0  0  0  0  0  0  0  0  0  0  0  0
  -14.3257  -26.7669   22.6370 C   0  0  0  0  0  0  0  0  0  0  0  0
  -15.1049  -25.2857   24.4988 C   0  0  0  0  0  0  0  0  0  0  0  0
  -17.9831  -26.4461   18.1723 C   0  0  0  0  0  0  0  0  0  0  0  0
  -18.9625  -24.5625   19.4622 C   0  0  0  0  0  0  0  0  0  0  0  0
  -29.8168  -16.9408   21.8128 C   0  0  0  0  0  0  0  0  0  0  0  0
  -31.5560  -18.6196   21.1610 C   0  0  0  0  0  0  0  0  0  0  0  0
  -31.0649  -16.6885   19.6603 C   0  0  0  0  0  0  0  0  0  0  0  0
  -28.3278  -22.1296   16.5341 C   0  0  0  0  0  0  0  0  0  0  0  0
  -20.8463  -22.9356   25.3982 C   0  0  0  0  0  0  0  0  0  0  0  0
  -18.4295  -28.3211   20.6885 C   0  0  0  0  0  0  0  0  0  0  0  0
  -22.1992  -22.8795   24.6711 C   0  0  0  0  0  0  0  0  0  0  0  0
  -17.0236  -26.1976   21.1559 C   0  0  0  0  0  0  0  0  0  0  0  0
  -22.1160  -22.2136   23.3025 C   0  0  0  0  0  0  0  0  0  1  0  0
  -16.8094  -26.1113   22.6945 C   0  0  1  0  0  0  0  0  0  0  0  0
  -29.3833  -18.5664   19.8543 C   0  0  1  0  0  0  0  0  0  0  0  0
  -30.4912  -21.1653   17.3268 C   0  0  2  0  0  0  0  0  0  0  0  0
  -15.3430  -25.6925   23.0419 C   0  0  0  0  0  0  0  0  0  0  0  0
  -18.3986  -26.7687   20.6852 C   0  0  1  0  0  0  0  0  0  0  0  0
  -18.9117  -26.0971   19.3548 C   0  0  0  0  0  0  0  0  0  0  0  0
  -30.4282  -17.7117   20.6258 C   0  0  0  0  0  0  0  0  0  0  0  0
  -25.6237  -27.1561   20.3410 N   0  0  0  0  0  0  0  0  0  0  0  0
  -24.6752  -28.1057   20.4099 N   0  0  0  0  0  0  0  0  0  0  0  0
  -26.9591  -18.0736   19.7894 N   0  0  0  0  0  0  0  0  0  0  0  0
  -21.3024  -26.3758   19.9149 N   0  0  0  0  0  0  0  0  0  0  0  0
  -24.3247  -30.4417   20.2338 N   0  0  0  0  0  0  0  0  0  0  0  0
  -28.7598  -29.9959   19.5080 N   0  0  0  0  0  0  0  0  0  0  0  0
  -25.2304  -14.9952   20.3047 N   0  0  0  0  0  0  0  0  0  0  0  0
  -29.9289  -19.2862   18.7087 N   0  0  0  0  0  0  0  0  0  0  0  0
  -29.7661  -22.3653   16.8216 N   0  3  0  0  0  0  0  0  0  0  0  0
  -27.0423  -31.5066   19.6707 O   0  0  0  0  0  0  0  0  0  0  0  0
  -25.9213  -16.6630   21.7757 O   0  0  0  0  0  0  0  0  0  0  0  0
  -28.4702  -16.8271   18.5248 O   0  0  0  0  0  0  0  0  0  0  0  0
  -20.4549  -27.1377   17.8895 O   0  0  0  0  0  0  0  0  0  0  0  0
  -29.3267  -21.4062   19.4300 O   0  0  0  0  0  0  0  0  0  0  0  0
  -31.6305  -25.2216   19.4897 O   0  0  0  0  0  0  0  0  0  0  0  0
  -23.4148  -22.1950   22.7242 O   0  0  0  0  0  0  0  0  0  1  0  0
  -36.0216  -27.3814   22.0310 F   0  0  0  0  0  0  0  0  0  0  0  0
  -32.4909  -27.7827   18.9039 F   0  0  0  0  0  0  0  0  0  0  0  0
  1  2  1  0  0  0  0
  1  5  2  0  0  0  0
  2  6  2  0  0  0  0
  3 12  2  0  0  0  0
  3 19  1  0  0  0  0
  4 13  1  0  0  0  0
  4 19  2  0  0  0  0
  5 21  1  0  0  0  0
  6 23  1  0  0  0  0
  7 14  2  0  0  0  0
  7 22  1  0  0  0  0
  8 10  2  0  0  0  0
  8 25  1  0  0  0  0
  9 11  1  0  0  0  0
  9 25  2  0  0  0  0
 10 26  1  0  0  0  0
 11 26  2  0  0  0  0
 12 27  1  0  0  0  0
 13 27  2  0  0  0  0
 14 28  1  0  0  0  0
 15 16  2  0  0  0  0
 15 29  1  0  0  0  0
 16 30  1  0  0  0  0
 17 24  1  0  0  0  0
 17 28  2  0  0  0  0
 18 30  2  0  0  0  0
 18 31  1  0  0  0  0
 19 32  1  0  0  0  0
 20 32  1  0  0  0  0
 20 33  2  0  0  0  0
 20 34  1  0  0  0  0
 21 23  2  0  0  0  0
 21 39  1  0  0  0  0
 22 24  2  0  0  0  0
 22 40  1  0  0  0  0
 23 48  1  0  0  0  0
 24 41  1  0  0  0  0
 25 61  1  0  0  0  0
 26 66  1  0  0  0  0
 27 87  1  0  0  0  0
 28 88  1  0  0  0  0
 29 31  2  0  0  0  0
 29 87  1  0  0  0  0
 30 89  1  0  0  0  0
 31 90  1  0  0  0  0
 32 73  2  0  0  0  0
 33 74  1  0  0  0  0
 33 77  1  0  0  0  0
 34 78  1  0  0  0  0
 34 82  2  0  0  0  0
 35 49  1  0  0  0  0
 35 79  1  0  0  0  0
 35 83  2  0  0  0  0
 36 67  1  0  0  0  0
 36 75  1  0  0  0  0
 36 84  2  0  0  0  0
 37 71  1  0  0  0  0
 37 76  1  0  0  0  0
 37 85  2  0  0  0  0
 38 68  1  0  0  0  0
 38 80  1  0  0  0  0
 38 86  2  0  0  0  0
 39 42  1  0  0  0  0
 40 49  1  0  0  0  0
 41 75  1  0  0  0  0
 42 44  1  0  0  0  0
 43 45  1  0  0  0  0
 43 46  1  0  0  0  0
 44 48  1  0  0  0  0
 45 50  1  0  0  0  0
 46 76  1  0  0  0  0
 47 50  1  0  0  0  0
 47 76  1  0  0  0  0
 48 79  1  0  0  0  0
 49 75  1  0  0  0  0
 50 74  1  0  0  0  0
 51 62  1  0  0  0  0
 52 68  1  0  0  0  0
 53 69  1  0  0  0  0
 54 69  1  0  0  0  0
 55 71  1  0  0  0  0
 56 71  1  0  0  0  0
 57 72  1  0  0  0  0
 58 72  1  0  0  0  0
 59 72  1  0  0  0  0
 60 81  1  0  0  0  0
 61 63  1  0  0  0  0
 62 70  1  0  0  0  0
 63 65  1  0  0  0  0
 64 66  1  0  0  0  0
 64 70  1  0  0  0  0
 65 88  1  0  0  0  0
 66 69  1  0  0  0  0
 67 72  1  0  0  0  0
 67 80  1  0  0  0  0
 68 81  1  0  0  0  0
 70 71  1  0  0  0  0
 73 74  1  0  0  0  0
M  CHG  1  81   1
M  ISO  4  37 100  65 101  71 100  88 101
M  END
> <Batch ID>
0046

> <Smiles>
CCC(CC(c1ccc(CC[101CH2:1][101O:1]c2ccc3c(c2)CN(C(=O)C(NC(=O)C(C)NC)C(C)(C)C)C(C(=O)NC2CCCc4ccccc42)C3)cc1)C(C)C)[100C:0](C)(C)[100C:0](=O)N1CCCC(n2nc(-c3ccc(Oc4ccc(F)cc4F)cc3)c(C(N)=O)c2N)C1

> <Shape>
0.218

> <Color>
0.065

> <Negative vol penalty>
0.000

$$$$

  -OEChem-04052317213D

 79 86  0     1  0  0  0  0  0999 V2000
  -27.0611  -34.8321   24.2704 C   0  0  0  0  0  0  0  0  0  0  0  0
  -27.4162  -33.5428   23.8869 C   0  0  0  0  0  0  0  0  0  0  0  0
  -25.1083  -15.2977   20.6712 C   0  0  0  0  0  0  0  0  0  0  0  0
  -26.8108  -14.8581   22.3281 C   0  0  0  0  0  0  0  0  0  0  0  0
  -25.7646  -35.0950   24.7107 C   0  0  0  0  0  0  0  0  0  0  0  0
  -26.4752  -32.5154   23.9446 C   0  0  0  0  0  0  0  0  0  0  0  0
  -26.5188  -29.6063   19.7997 C   0  0  0  0  0  0  0  0  0  0  0  0
  -25.1077  -13.9493   20.3141 C   0  0  0  0  0  0  0  0  0  0  0  0
  -26.8101  -13.5097   21.9712 C   0  0  0  0  0  0  0  0  0  0  0  0
  -27.5364  -28.6588   19.6974 C   0  0  0  0  0  0  0  0  0  0  0  0
  -24.3990  -10.5575   19.2148 C   0  0  0  0  0  0  0  0  0  0  0  0
  -23.1639   -9.9326   19.0433 C   0  0  0  0  0  0  0  0  0  0  0  0
  -26.0066  -26.9452   20.4339 C   0  0  0  0  0  0  0  0  0  0  0  0
  -22.5935  -10.4305   21.3377 C   0  0  0  0  0  0  0  0  0  0  0  0
  -25.9599  -15.7521   21.6781 C   0  0  0  0  0  0  0  0  0  0  0  0
  -25.1660  -17.7652   23.0290 C   0  0  0  0  0  0  0  0  0  0  0  0
  -24.8045  -34.0723   24.7646 C   0  0  0  0  0  0  0  0  0  0  0  0
  -25.2381  -29.2317   20.2310 C   0  0  0  0  0  0  0  0  0  0  0  0
  -25.1650  -32.7646   24.3873 C   0  0  0  0  0  0  0  0  0  0  0  0
  -24.9738  -27.8894   20.5383 C   0  0  0  0  0  0  0  0  0  0  0  0
  -25.9585  -13.0553   20.9641 C   0  0  0  0  0  0  0  0  0  0  0  0
  -27.2812  -27.3286   20.0173 C   0  0  0  0  0  0  0  0  0  0  0  0
  -24.7315  -11.1188   20.4478 C   0  0  0  0  0  0  0  0  0  0  0  0
  -22.2610   -9.8692   20.1047 C   0  0  0  0  0  0  0  0  0  0  0  0
  -23.8287  -11.0553   21.5091 C   0  0  0  0  0  0  0  0  0  0  0  0
  -25.9615  -17.1450   22.0470 C   0  0  0  0  0  0  0  0  0  0  0  0
  -25.5432  -19.0854   22.9929 C   0  0  0  0  0  0  0  0  0  0  0  0
  -24.1749  -17.1986   23.8964 C   0  0  0  0  0  0  0  0  0  0  0  0
  -23.3901  -29.9968   22.7015 C   0  0  0  0  0  0  0  0  0  0  0  0
  -21.2066  -28.1844   21.1299 C   0  0  0  0  0  0  0  0  0  0  0  0
  -20.5896  -25.6867   18.8877 C   0  0  0  0  0  0  0  0  0  0  0  0
  -30.7696  -21.4078   20.9410 C   0  0  0  0  0  0  0  0  0  0  0  0
  -23.4290  -34.3949   25.2923 C   0  0  0  0  0  0  0  0  0  0  0  0
  -24.1442  -30.2610   20.3103 C   0  0  0  0  0  0  0  0  0  0  0  0
  -23.6106  -27.4321   20.9867 C   0  0  0  0  0  0  0  0  0  0  0  0
  -22.3866  -33.3279   24.9683 C   0  0  0  0  0  0  0  0  0  0  0  0
  -27.2804  -22.4159   20.0456 C   0  0  0  0  0  0  0  0  0  0  0  0
  -22.9340  -31.9370   25.2724 C   0  0  0  0  0  0  0  0  0  0  0  0
  -26.4972  -21.1817   20.4904 C   0  0  0  0  0  0  0  0  0  0  0  0
  -28.7026  -22.0498   19.6385 C   0  0  0  0  0  0  0  0  0  0  0  0
  -28.6909  -20.0915   21.1490 C   0  0  0  0  0  0  0  0  0  0  0  0
  -24.1655  -31.6286   24.4123 C   0  0  1  0  0  0  0  0  0  0  0  0
  -23.0139  -29.8602   21.2532 C   0  0  1  0  0  0  0  0  0  0  0  0
  -27.2538  -20.4165   21.5894 C   0  0  2  0  0  0  0  0  0  0  0  0
  -33.8551  -20.7095   19.3029 C   0  0  0  0  0  0  0  0  0  0  0  0
  -18.7062  -24.4027   17.8380 C   0  0  0  0  0  0  0  0  0  0  0  0
  -32.7826  -23.4226   21.8719 C   0  0  0  0  0  0  0  0  0  0  0  0
  -20.8616  -26.5882   23.7073 C   0  0  0  0  0  0  0  0  0  0  0  0
  -19.7379  -24.7977   22.3659 C   0  0  0  0  0  0  0  0  0  0  0  0
  -18.7324  -27.0772   22.4902 C   0  0  0  0  0  0  0  0  0  0  0  0
  -21.3244  -26.6034   16.1713 C   0  0  0  0  0  0  0  0  0  0  0  0
  -33.7696  -21.4744   20.6174 C   0  0  0  0  0  0  0  0  0  0  0  0
  -30.4013  -24.4531   19.5453 C   0  0  0  0  0  0  0  0  0  0  0  0
  -29.8053  -25.2946   18.4164 C   0  0  0  0  0  0  0  0  0  0  0  0
  -30.9006  -23.0955   19.0612 C   0  0  0  0  0  0  0  0  0  0  0  0
  -29.2774  -26.6279   18.9311 C   0  0  0  0  0  0  0  0  0  1  0  0
  -20.8331  -26.7217   21.1291 C   0  0  1  0  0  0  0  0  0  0  0  0
  -19.6327  -25.6021   17.7122 C   0  0  2  0  0  0  0  0  0  0  0  0
  -32.8365  -22.6894   20.5355 C   0  0  1  0  0  0  0  0  0  0  0  0
  -20.0675  -26.3048   22.4165 C   0  0  0  0  0  0  0  0  0  0  0  0
  -26.7819  -18.0008   21.4318 N   0  0  0  0  0  0  0  0  0  0  0  0
  -26.5039  -19.1724   22.0288 N   0  0  0  0  0  0  0  0  0  0  0  0
  -22.5757  -28.4771   21.0545 N   0  0  0  0  0  0  0  0  0  0  0  0
  -29.3915  -21.2945   20.6935 N   0  0  0  0  0  0  0  0  0  0  0  0
  -25.1434  -20.1688   23.6921 N   0  0  0  0  0  0  0  0  0  0  0  0
  -23.9110  -15.8254   23.8022 N   0  0  0  0  0  0  0  0  0  0  0  0
  -23.7666  -31.2752   23.0667 N   0  0  0  0  0  0  0  0  0  0  0  0
  -20.0938  -26.4899   19.8929 N   0  0  0  0  0  0  0  0  0  0  0  0
  -31.4921  -22.3000   20.1346 N   0  0  0  0  0  0  0  0  0  0  0  0
  -20.3908  -25.4783   16.4351 N   0  3  0  0  0  0  0  0  0  0  0  0
  -23.5304  -17.8926   24.7189 O   0  0  0  0  0  0  0  0  0  0  0  0
  -23.3411  -29.0154   23.4336 O   0  0  0  0  0  0  0  0  0  0  0  0
  -20.3160  -29.0359   21.1878 O   0  0  0  0  0  0  0  0  0  0  0  0
  -21.6671  -25.0962   18.9133 O   0  0  0  0  0  0  0  0  0  0  0  0
  -31.3201  -20.7569   21.8384 O   0  0  0  0  0  0  0  0  0  0  0  0
  -25.9579  -11.7395   20.6162 O   0  0  0  0  0  0  0  0  0  0  0  0
  -28.2728  -26.4018   19.9190 O   0  0  0  0  0  0  0  0  0  1  0  0
  -21.0743   -9.2705   19.9394 F   0  0  0  0  0  0  0  0  0  0  0  0
  -24.1421  -11.5938   22.6956 F   0  0  0  0  0  0  0  0  0  0  0  0
  1  2  1  0  0  0  0
  1  5  2  0  0  0  0
  2  6  2  0  0  0  0
  3  8  2  0  0  0  0
  3 15  1  0  0  0  0
  4  9  1  0  0  0  0
  4 15  2  0  0  0  0
  5 17  1  0  0  0  0
  6 19  1  0  0  0  0
  7 10  2  0  0  0  0
  7 18  1  0  0  0  0
  8 21  1  0  0  0  0
  9 21  2  0  0  0  0
 10 22  1  0  0  0  0
 11 12  2  0  0  0  0
 11 23  1  0  0  0  0
 12 24  1  0  0  0  0
 13 20  1  0  0  0  0
 13 22  2  0  0  0  0
 14 24  2  0  0  0  0
 14 25  1  0  0  0  0
 15 26  1  0  0  0  0
 16 26  1  0  0  0  0
 16 27  2  0  0  0  0
 16 28  1  0  0  0  0
 17 19  2  0  0  0  0
 17 33  1  0  0  0  0
 18 20  2  0  0  0  0
 18 34  1  0  0  0  0
 19 42  1  0  0  0  0
 20 35  1  0  0  0  0
 21 76  1  0  0  0  0
 22 77  1  0  0  0  0
 23 25  2  0  0  0  0
 23 76  1  0  0  0  0
 24 78  1  0  0  0  0
 25 79  1  0  0  0  0
 26 61  2  0  0  0  0
 27 62  1  0  0  0  0
 27 65  1  0  0  0  0
 28 66  1  0  0  0  0
 28 71  2  0  0  0  0
 29 43  1  0  0  0  0
 29 67  1  0  0  0  0
 29 72  2  0  0  0  0
 30 57  1  0  0  0  0
 30 63  1  0  0  0  0
 30 73  2  0  0  0  0
 31 58  1  0  0  0  0
 31 68  1  0  0  0  0
 31 74  2  0  0  0  0
 32 64  1  0  0  0  0
 32 69  1  0  0  0  0
 32 75  2  0  0  0  0
 33 36  1  0  0  0  0
 34 43  1  0  0  0  0
 35 63  1  0  0  0  0
 36 38  1  0  0  0  0
 37 39  1  0  0  0  0
 37 40  1  0  0  0  0
 38 42  1  0  0  0  0
 39 44  1  0  0  0  0
 40 64  1  0  0  0  0
 41 44  1  0  0  0  0
 41 64  1  0  0  0  0
 42 67  1  0  0  0  0
 43 63  1  0  0  0  0
 44 62  1  0  0  0  0
 45 52  1  0  0  0  0
 46 58  1  0  0  0  0
 47 59  1  0  0  0  0
 48 60  1  0  0  0  0
 49 60  1  0  0  0  0
 50 60  1  0  0  0  0
 51 70  1  0  0  0  0
 52 59  1  0  0  0  0
 53 54  1  0  0  0  0
 53 55  1  0  0  0  0
 54 56  1  0  0  0  0
 55 69  1  0  0  0  0
 56 77  1  0  0  0  0
 57 60  1  0  0  0  0
 57 68  1  0  0  0  0
 58 70  1  0  0  0  0
 59 69  1  0  0  0  0
 61 62  1  0  0  0  0
M  CHG  1  70   1
M  ISO  4  32 100  56 101  69 100  77 101
M  END
> <Batch ID>
0046

> <Smiles>
CCC(C)[100N:0](CCC[101CH2:1][101O:1]c1ccc2c(c1)CN(C(=O)C(NC(=O)C(C)NC)C(C)(C)C)C(C(=O)NC1CCCc3ccccc31)C2)[100C:0](=O)N1CCCC(n2nc(-c3ccc(Oc4ccc(F)cc4F)cc3)c(C(N)=O)c2N)C1

> <Shape>
0.264

> <Color>
0.081

> <Negative vol penalty>
0.000

$$$$

  -OEChem-04052317213D

 85 93  0     1  0  0  0  0  0999 V2000
  -18.3999  -23.6357   23.2268 C   0  0  0  0  0  0  0  0  0  0  0  0
  -19.5832  -23.4610   22.5163 C   0  0  0  0  0  0  0  0  0  0  0  0
  -23.4009  -15.8387   23.0641 C   0  0  0  0  0  0  0  0  0  0  0  0
  -22.7931  -16.2454   20.7614 C   0  0  0  0  0  0  0  0  0  0  0  0
  -17.9365  -24.9216   23.5016 C   0  0  0  0  0  0  0  0  0  0  0  0
  -20.3032  -24.5724   22.0793 C   0  0  0  0  0  0  0  0  0  0  0  0
  -25.2749  -24.1242   22.9317 C   0  0  0  0  0  0  0  0  0  0  0  0
  -22.5037  -16.8244   23.4750 C   0  0  0  0  0  0  0  0  0  0  0  0
  -21.8958  -17.2311   21.1724 C   0  0  0  0  0  0  0  0  0  0  0  0
  -26.0009  -23.3183   22.0558 C   0  0  0  0  0  0  0  0  0  0  0  0
  -22.4102  -20.1997   23.6273 C   0  0  0  0  0  0  0  0  0  0  0  0
  -22.8457  -21.1111   24.5892 C   0  0  0  0  0  0  0  0  0  0  0  0
  -26.7550  -25.2854   20.8806 C   0  0  0  0  0  0  0  0  0  0  0  0
  -21.0732  -20.3976   26.0678 C   0  0  0  0  0  0  0  0  0  0  0  0
  -27.8108  -20.9134   18.0612 C   0  0  0  0  0  0  0  0  0  0  0  0
  -23.5457  -15.5492   21.7072 C   0  0  0  0  0  0  0  0  0  0  0  0
  -24.2086  -13.1595   21.1092 C   0  0  0  0  0  0  0  0  0  0  0  0
  -18.6562  -26.0493   23.0761 C   0  0  0  0  0  0  0  0  0  0  0  0
  -25.2747  -25.5184   22.7817 C   0  0  0  0  0  0  0  0  0  0  0  0
  -19.8482  -25.8746   22.3475 C   0  0  0  0  0  0  0  0  0  0  0  0
  -26.0302  -26.1069   21.7575 C   0  0  0  0  0  0  0  0  0  0  0  0
  -21.7512  -17.5206   22.5292 C   0  0  0  0  0  0  0  0  0  0  0  0
  -26.7389  -23.8987   21.0283 C   0  0  0  0  0  0  0  0  0  0  0  0
  -21.3061  -19.3873   23.8856 C   0  0  0  0  0  0  0  0  0  0  0  0
  -22.1772  -21.2100   25.8094 C   0  0  0  0  0  0  0  0  0  0  0  0
  -20.6376  -19.4862   25.1058 C   0  0  0  0  0  0  0  0  0  0  0  0
  -24.4727  -14.5314   21.2820 C   0  0  0  0  0  0  0  0  0  0  0  0
  -28.6679  -20.2721   17.1903 C   0  0  0  0  0  0  0  0  0  0  0  0
  -28.2536  -21.0209   19.3638 C   0  0  0  0  0  0  0  0  0  0  0  0
  -25.4067  -12.6282   20.6983 C   0  0  0  0  0  0  0  0  0  0  0  0
  -30.1852  -19.9385   18.8497 C   0  0  0  0  0  0  0  0  0  0  0  0
  -22.9893  -12.4305   21.3028 C   0  0  0  0  0  0  0  0  0  0  0  0
  -23.0510  -27.7100   22.1851 C   0  0  0  0  0  0  0  0  0  0  0  0
  -25.4988  -29.7731   22.7089 C   0  0  0  0  0  0  0  0  0  0  0  0
  -28.8668  -30.3221   22.7490 C   0  0  0  0  0  0  0  0  0  0  0  0
  -30.1636  -14.9678   17.9146 C   0  0  0  0  0  0  0  0  0  0  0  0
  -18.0909  -27.4193   23.3558 C   0  0  0  0  0  0  0  0  0  0  0  0
  -24.5077  -26.3753   23.7512 C   0  0  0  0  0  0  0  0  0  0  0  0
  -26.0794  -27.6000   21.5660 C   0  0  0  0  0  0  0  0  0  0  0  0
  -19.1076  -28.5447   23.1821 C   0  0  0  0  0  0  0  0  0  0  0  0
  -30.1279  -13.3106   21.0656 C   0  0  0  0  0  0  0  0  0  0  0  0
  -19.8803  -28.3696   21.8787 C   0  0  0  0  0  0  0  0  0  0  0  0
  -28.6507  -13.3118   21.4628 C   0  0  0  0  0  0  0  0  0  0  0  0
  -30.5177  -14.5953   20.3379 C   0  0  0  0  0  0  0  0  0  0  0  0
  -28.1997  -14.9273   19.5693 C   0  0  0  0  0  0  0  0  0  0  0  0
  -20.6703  -27.0552   21.8780 C   0  0  1  0  0  0  0  0  0  0  0  0
  -24.1665  -27.7527   23.1908 C   0  0  1  0  0  0  0  0  0  0  0  0
  -27.7460  -13.6281   20.2567 C   0  0  2  0  0  0  0  0  0  0  0  0
  -31.5054  -19.4005   19.2874 C   0  0  0  0  0  0  0  0  0  0  0  0
  -30.5648  -32.1189   23.1801 C   0  0  0  0  0  0  0  0  0  0  0  0
  -24.8580  -31.0249   20.0010 C   0  0  0  0  0  0  0  0  0  0  0  0
  -27.1040  -32.1297   20.0585 C   0  0  0  0  0  0  0  0  0  0  0  0
  -25.4066  -32.6669   21.8058 C   0  0  0  0  0  0  0  0  0  0  0  0
  -30.0823  -28.8004   24.9774 C   0  0  0  0  0  0  0  0  0  0  0  0
  -29.1070  -19.3419   13.5414 C   0  0  0  0  0  0  0  0  0  0  0  0
  -28.2758  -20.1083   15.7601 C   0  0  0  0  0  0  0  0  0  0  0  0
  -27.3910  -21.7044   20.3836 C   0  0  0  0  0  0  0  0  0  1  0  0
  -29.9363  -16.7897   15.1485 C   0  0  0  0  0  0  0  0  0  0  0  0
  -29.6480  -15.3380   15.5154 C   0  0  0  0  0  0  0  0  0  0  0  0
  -28.7280  -17.6913   15.3674 C   0  0  0  0  0  0  0  0  0  0  0  0
  -26.5579  -30.4164   21.8466 C   0  0  1  0  0  0  0  0  0  0  0  0
  -29.7693  -30.9714   23.7827 C   0  0  2  0  0  0  0  0  0  0  0  0
  -25.9794  -31.5312   20.9301 C   0  0  0  0  0  0  0  0  0  0  0  0
  -25.7392  -14.8517   21.0038 N   0  0  0  0  0  0  0  0  0  0  0  0
  -29.8670  -19.7705   17.5520 N   0  0  0  0  0  0  0  0  0  0  0  0
  -29.4396  -20.5429   19.7943 N   0  0  0  0  0  0  0  0  0  0  0  0
  -26.2816  -13.6735   20.6520 N   0  0  0  0  0  0  0  0  0  0  0  0
  -25.3078  -28.3949   22.5357 N   0  0  0  0  0  0  0  0  0  0  0  0
  -29.6221  -14.8366   19.2040 N   0  0  0  0  0  0  0  0  0  0  0  0
  -25.7866  -11.3737   20.3757 N   0  0  0  0  0  0  0  0  0  0  0  0
  -21.8521  -13.1312   21.7275 N   0  0  0  0  0  0  0  0  0  0  0  0
  -21.8703  -27.1864   22.6762 N   0  0  0  0  0  0  0  0  0  0  0  0
  -27.6029  -30.8732   22.7564 N   0  0  0  0  0  0  0  0  0  0  0  0
  -29.2448  -15.1885   16.8959 N   0  0  0  0  0  0  0  0  0  0  0  0
  -30.7287  -29.9726   24.3331 N   0  3  0  0  0  0  0  0  0  0  0  0
  -29.1063  -19.1108   15.0308 N   0  3  1  0  0  0  0  0  0  0  0  0
  -22.9146  -11.1916   21.1209 O   0  0  0  0  0  0  0  0  0  0  0  0
  -23.2466  -28.1230   21.0480 O   0  0  0  0  0  0  0  0  0  0  0  0
  -24.8693  -30.4665   23.5117 O   0  0  0  0  0  0  0  0  0  0  0  0
  -29.2463  -29.4192   22.0066 O   0  0  0  0  0  0  0  0  0  0  0  0
  -31.3756  -14.8884   17.6873 O   0  0  0  0  0  0  0  0  0  0  0  0
  -20.8754  -18.4824   22.9299 O   0  0  0  0  0  0  0  0  0  0  0  0
  -27.4479  -23.1144   20.1716 O   0  0  0  0  0  0  0  0  0  1  0  0
  -22.5965  -22.0842   26.7337 F   0  0  0  0  0  0  0  0  0  0  0  0
  -19.5770  -18.7076   25.3601 F   0  0  0  0  0  0  0  0  0  0  0  0
  1  2  1  0  0  0  0
  1  5  2  0  0  0  0
  2  6  2  0  0  0  0
  3  8  2  0  0  0  0
  3 16  1  0  0  0  0
  4  9  1  0  0  0  0
  4 16  2  0  0  0  0
  5 18  1  0  0  0  0
  6 20  1  0  0  0  0
  7 10  2  0  0  0  0
  7 19  1  0  0  0  0
  8 22  1  0  0  0  0
  9 22  2  0  0  0  0
 10 23  1  0  0  0  0
 11 12  2  0  0  0  0
 11 24  1  0  0  0  0
 12 25  1  0  0  0  0
 13 21  1  0  0  0  0
 13 23  2  0  0  0  0
 14 25  2  0  0  0  0
 14 26  1  0  0  0  0
 15 28  2  0  0  0  0
 15 29  1  0  0  0  0
 16 27  1  0  0  0  0
 17 27  1  0  0  0  0
 17 30  2  0  0  0  0
 17 32  1  0  0  0  0
 18 20  2  0  0  0  0
 18 37  1  0  0  0  0
 19 21  2  0  0  0  0
 19 38  1  0  0  0  0
 20 46  1  0  0  0  0
 21 39  1  0  0  0  0
 22 82  1  0  0  0  0
 23 83  1  0  0  0  0
 24 26  2  0  0  0  0
 24 82  1  0  0  0  0
 25 84  1  0  0  0  0
 26 85  1  0  0  0  0
 27 64  2  0  0  0  0
 28 56  1  0  0  0  0
 28 65  1  0  0  0  0
 29 57  1  0  0  0  0
 29 66  2  0  0  0  0
 30 67  1  0  0  0  0
 30 70  1  0  0  0  0
 31 49  1  0  0  0  0
 31 65  2  0  0  0  0
 31 66  1  0  0  0  0
 32 71  1  0  0  0  0
 32 77  2  0  0  0  0
 33 47  1  0  0  0  0
 33 72  1  0  0  0  0
 33 78  2  0  0  0  0
 34 61  1  0  0  0  0
 34 68  1  0  0  0  0
 34 79  2  0  0  0  0
 35 62  1  0  0  0  0
 35 73  1  0  0  0  0
 35 80  2  0  0  0  0
 36 69  1  0  0  0  0
 36 74  1  0  0  0  0
 36 81  2  0  0  0  0
 37 40  1  0  0  0  0
 38 47  1  0  0  0  0
 39 68  1  0  0  0  0
 40 42  1  0  0  0  0
 41 43  1  0  0  0  0
 41 44  1  0  0  0  0
 42 46  1  0  0  0  0
 43 48  1  0  0  0  0
 44 69  1  0  0  0  0
 45 48  1  0  0  0  0
 45 69  1  0  0  0  0
 46 72  1  0  0  0  0
 47 68  1  0  0  0  0
 48 67  1  0  0  0  0
 50 62  1  0  0  0  0
 51 63  1  0  0  0  0
 52 63  1  0  0  0  0
 53 63  1  0  0  0  0
 54 75  1  0  0  0  0
 55 76  1  0  0  0  0
 56 76  1  0  0  0  0
 57 83  1  0  0  0  0
 58 59  1  0  0  0  0
 58 60  1  0  0  0  0
 59 74  1  0  0  0  0
 60 76  1  0  0  0  0
 61 63  1  0  0  0  0
 61 73  1  0  0  0  0
 62 75  1  0  0  0  0
 64 67  1  0  0  0  0
M  CHG  2  75   1  76   1
M  ISO  4  36 100  57 101  74 100  83 101
M  END
> <Batch ID>
0046

> <Smiles>
CNC(C)C(=O)NC(C(=O)N1Cc2cc([101O:1][101CH2:1]c3cc(CN(C)CCC[100NH:0][100C:0](=O)N4CCCC(n5nc(-c6ccc(Oc7ccc(F)cc7F)cc6)c(C(N)=O)c5N)C4)nc(C)n3)ccc2CC1C(=O)NC1CCCc2ccccc21)C(C)(C)C

> <Shape>
0.193

> <Color>
0.082

> <Negative vol penalty>
0.000

$$$$

  -OEChem-04052317213D

 83 91  0     1  0  0  0  0  0999 V2000
  -16.1406  -27.1263   22.0896 C   0  0  0  0  0  0  0  0  0  0  0  0
  -17.3076  -26.9188   21.3612 C   0  0  0  0  0  0  0  0  0  0  0  0
  -25.6789  -13.6925   21.5914 C   0  0  0  0  0  0  0  0  0  0  0  0
  -26.4906  -13.7590   19.3169 C   0  0  0  0  0  0  0  0  0  0  0  0
  -16.1416  -28.0093   23.1686 C   0  0  0  0  0  0  0  0  0  0  0  0
  -18.4759  -27.5950   21.7107 C   0  0  0  0  0  0  0  0  0  0  0  0
  -22.5388  -24.5721   21.7284 C   0  0  0  0  0  0  0  0  0  0  0  0
  -24.7223  -12.7468   21.2225 C   0  0  0  0  0  0  0  0  0  0  0  0
  -25.5341  -12.8132   18.9479 C   0  0  0  0  0  0  0  0  0  0  0  0
  -23.1011  -24.2540   20.4929 C   0  0  0  0  0  0  0  0  0  0  0  0
  -24.6122   -9.4233   20.6102 C   0  0  0  0  0  0  0  0  0  0  0  0
  -24.4396   -8.3172   21.4423 C   0  0  0  0  0  0  0  0  0  0  0  0
  -24.8034  -25.9268   20.8438 C   0  0  0  0  0  0  0  0  0  0  0  0
  -24.7987  -24.3099   15.7869 C   0  0  0  0  0  0  0  0  0  0  0  0
  -22.1305   -8.9381   21.7885 C   0  0  0  0  0  0  0  0  0  0  0  0
  -26.5630  -14.1987   20.6386 C   0  0  0  0  0  0  0  0  0  0  0  0
  -28.8586  -14.9288   21.4782 C   0  0  0  0  0  0  0  0  0  0  0  0
  -17.3129  -28.6893   23.5376 C   0  0  0  0  0  0  0  0  0  0  0  0
  -23.0991  -25.5791   22.5273 C   0  0  0  0  0  0  0  0  0  0  0  0
  -18.4922  -28.4888   22.7949 C   0  0  0  0  0  0  0  0  0  0  0  0
  -24.2478  -26.2540   22.0901 C   0  0  0  0  0  0  0  0  0  0  0  0
  -25.5209  -24.0838   14.6204 C   0  0  0  0  0  0  0  0  0  0  0  0
  -26.3263  -22.9553   14.5158 C   0  0  0  0  0  0  0  0  0  0  0  0
  -24.6499  -12.3071   19.9007 C   0  0  0  0  0  0  0  0  0  0  0  0
  -24.2318  -24.9333   20.0491 C   0  0  0  0  0  0  0  0  0  0  0  0
  -23.5440  -10.2868   20.3673 C   0  0  0  0  0  0  0  0  0  0  0  0
  -23.1987   -8.0746   22.0314 C   0  0  0  0  0  0  0  0  0  0  0  0
  -22.3032  -10.0442   20.9565 C   0  0  0  0  0  0  0  0  0  0  0  0
  -27.5510  -15.1761   21.0190 C   0  0  0  0  0  0  0  0  0  0  0  0
  -24.9155  -23.3847   16.8116 C   0  0  0  0  0  0  0  0  0  0  0  0
  -26.3749  -22.0907   15.5975 C   0  0  0  0  0  0  0  0  0  0  0  0
  -29.3858  -16.1772   21.7019 C   0  0  0  0  0  0  0  0  0  0  0  0
  -29.5361  -13.6821   21.6841 C   0  0  0  0  0  0  0  0  0  0  0  0
  -22.0826  -28.3700   23.6594 C   0  0  0  0  0  0  0  0  0  0  0  0
  -24.9146  -28.3179   25.2403 C   0  0  0  0  0  0  0  0  0  0  0  0
  -28.1198  -27.1574   25.4051 C   0  0  0  0  0  0  0  0  0  0  0  0
  -28.1505  -21.5876   19.4540 C   0  0  0  0  0  0  0  0  0  0  0  0
  -17.2533  -29.6696   24.6821 C   0  0  0  0  0  0  0  0  0  0  0  0
  -22.4963  -25.8919   23.8694 C   0  0  0  0  0  0  0  0  0  0  0  0
  -24.8996  -27.3293   22.9192 C   0  0  0  0  0  0  0  0  0  0  0  0
  -18.6269  -30.0628   25.2196 C   0  0  0  0  0  0  0  0  0  0  0  0
  -28.0949  -20.6303   22.8829 C   0  0  0  0  0  0  0  0  0  0  0  0
  -19.5733  -30.3987   24.0714 C   0  0  0  0  0  0  0  0  0  0  0  0
  -28.0672  -19.1016   22.8354 C   0  0  0  0  0  0  0  0  0  0  0  0
  -27.2794  -21.2450   21.7475 C   0  0  0  0  0  0  0  0  0  0  0  0
  -27.6125  -19.2419   20.3510 C   0  0  0  0  0  0  0  0  0  0  0  0
  -19.7857  -29.1850   23.1586 C   0  0  1  0  0  0  0  0  0  0  0  0
  -22.8469  -27.2894   24.3708 C   0  0  1  0  0  0  0  0  0  0  0  0
  -28.4670  -18.5765   21.4435 C   0  0  2  0  0  0  0  0  0  0  0  0
  -25.4166  -25.0655   13.5005 C   0  0  0  0  0  0  0  0  0  0  0  0
  -27.1104  -22.6855   13.2757 C   0  0  0  0  0  0  0  0  0  0  0  0
  -30.2049  -27.3202   26.7919 C   0  0  0  0  0  0  0  0  0  0  0  0
  -25.4806  -31.0747   24.0614 C   0  0  0  0  0  0  0  0  0  0  0  0
  -27.8877  -30.7672   24.6776 C   0  0  0  0  0  0  0  0  0  0  0  0
  -26.1417  -30.8095   26.4587 C   0  0  0  0  0  0  0  0  0  0  0  0
  -28.0842  -24.2601   26.0078 C   0  0  0  0  0  0  0  0  0  0  0  0
  -27.2211  -20.8609   15.5438 C   0  0  0  0  0  0  0  0  0  0  0  0
  -24.1498  -23.5954   18.0847 C   0  0  0  0  0  0  0  0  0  1  0  0
  -28.7201  -21.1091   15.7980 C   0  0  0  0  0  0  0  0  0  0  0  0
  -29.0300  -21.7683   17.1403 C   0  0  0  0  0  0  0  0  0  0  0  0
  -26.3152  -28.7952   24.9408 C   0  0  1  0  0  0  0  0  0  0  0  0
  -28.9146  -26.5529   26.5485 C   0  0  2  0  0  0  0  0  0  0  0  0
  -26.4431  -30.3428   25.0179 C   0  0  0  0  0  0  0  0  0  0  0  0
  -27.2650  -16.4792   20.9545 N   0  0  0  0  0  0  0  0  0  0  0  0
  -25.6878  -22.2769   16.7468 N   0  0  0  0  0  0  0  0  0  0  0  0
  -28.4002  -17.0619   21.3762 N   0  0  0  0  0  0  0  0  0  0  0  0
  -24.2693  -27.6033   24.2212 N   0  0  0  0  0  0  0  0  0  0  0  0
  -27.7091  -20.7064   20.4548 N   0  0  0  0  0  0  0  0  0  0  0  0
  -30.5916  -16.5936   22.1437 N   0  0  0  0  0  0  0  0  0  0  0  0
  -28.8480  -12.4936   21.4046 N   0  0  0  0  0  0  0  0  0  0  0  0
  -20.7100  -28.2515   23.7658 N   0  0  0  0  0  0  0  0  0  0  0  0
  -27.1957  -28.0765   25.8554 N   0  0  0  0  0  0  0  0  0  0  0  0
  -28.5458  -20.9940   18.2614 N   0  0  0  0  0  0  0  0  0  0  0  0
  -29.2608  -25.1353   26.2460 N   0  3  0  0  0  0  0  0  0  0  0  0
  -30.7112  -13.6234   22.1191 O   0  0  0  0  0  0  0  0  0  0  0  0
  -22.6931  -29.2471   23.0598 O   0  0  0  0  0  0  0  0  0  0  0  0
  -24.4144  -28.5638   26.3408 O   0  0  0  0  0  0  0  0  0  0  0  0
  -28.3030  -26.8482   24.2298 O   0  0  0  0  0  0  0  0  0  0  0  0
  -28.1946  -22.8122   19.6134 O   0  0  0  0  0  0  0  0  0  0  0  0
  -23.7168  -11.3841   19.5404 O   0  0  0  0  0  0  0  0  0  0  0  0
  -24.7823  -24.6253   18.8433 O   0  0  0  0  0  0  0  0  0  1  0  0
  -23.0327   -7.0115   22.8292 F   0  0  0  0  0  0  0  0  0  0  0  0
  -21.2729  -10.8696   20.7259 F   0  0  0  0  0  0  0  0  0  0  0  0
  1  2  1  0  0  0  0
  1  5  2  0  0  0  0
  2  6  2  0  0  0  0
  3  8  2  0  0  0  0
  3 16  1  0  0  0  0
  4  9  1  0  0  0  0
  4 16  2  0  0  0  0
  5 18  1  0  0  0  0
  6 20  1  0  0  0  0
  7 10  2  0  0  0  0
  7 19  1  0  0  0  0
  8 24  1  0  0  0  0
  9 24  2  0  0  0  0
 10 25  1  0  0  0  0
 11 12  2  0  0  0  0
 11 26  1  0  0  0  0
 12 27  1  0  0  0  0
 13 21  1  0  0  0  0
 13 25  2  0  0  0  0
 14 22  2  0  0  0  0
 14 30  1  0  0  0  0
 15 27  2  0  0  0  0
 15 28  1  0  0  0  0
 16 29  1  0  0  0  0
 17 29  1  0  0  0  0
 17 32  2  0  0  0  0
 17 33  1  0  0  0  0
 18 20  2  0  0  0  0
 18 38  1  0  0  0  0
 19 21  2  0  0  0  0
 19 39  1  0  0  0  0
 20 47  1  0  0  0  0
 21 40  1  0  0  0  0
 22 23  1  0  0  0  0
 22 50  1  0  0  0  0
 23 31  2  0  0  0  0
 23 51  1  0  0  0  0
 24 80  1  0  0  0  0
 25 81  1  0  0  0  0
 26 28  2  0  0  0  0
 26 80  1  0  0  0  0
 27 82  1  0  0  0  0
 28 83  1  0  0  0  0
 29 64  2  0  0  0  0
 30 58  1  0  0  0  0
 30 65  2  0  0  0  0
 31 57  1  0  0  0  0
 31 65  1  0  0  0  0
 32 66  1  0  0  0  0
 32 69  1  0  0  0  0
 33 70  1  0  0  0  0
 33 75  2  0  0  0  0
 34 48  1  0  0  0  0
 34 71  1  0  0  0  0
 34 76  2  0  0  0  0
 35 61  1  0  0  0  0
 35 67  1  0  0  0  0
 35 77  2  0  0  0  0
 36 62  1  0  0  0  0
 36 72  1  0  0  0  0
 36 78  2  0  0  0  0
 37 68  1  0  0  0  0
 37 73  1  0  0  0  0
 37 79  2  0  0  0  0
 38 41  1  0  0  0  0
 39 48  1  0  0  0  0
 40 67  1  0  0  0  0
 41 43  1  0  0  0  0
 42 44  1  0  0  0  0
 42 45  1  0  0  0  0
 43 47  1  0  0  0  0
 44 49  1  0  0  0  0
 45 68  1  0  0  0  0
 46 49  1  0  0  0  0
 46 68  1  0  0  0  0
 47 71  1  0  0  0  0
 48 67  1  0  0  0  0
 49 66  1  0  0  0  0
 52 62  1  0  0  0  0
 53 63  1  0  0  0  0
 54 63  1  0  0  0  0
 55 63  1  0  0  0  0
 56 74  1  0  0  0  0
 57 59  1  0  0  0  0
 58 81  1  0  0  0  0
 59 60  1  0  0  0  0
 60 73  1  0  0  0  0
 61 63  1  0  0  0  0
 61 72  1  0  0  0  0
 62 74  1  0  0  0  0
 64 66  1  0  0  0  0
M  CHG  1  74   1
M  ISO  4  37 100  58 101  73 100  81 101
M  END
> <Batch ID>
0046

> <Smiles>
CNC(C)C(=O)NC(C(=O)N1Cc2cc([101O:1][101CH2:1]c3cc(C)c(C)c(CCC[100NH:0][100C:0](=O)N4CCCC(n5nc(-c6ccc(Oc7ccc(F)cc7F)cc6)c(C(N)=O)c5N)C4)n3)ccc2CC1C(=O)NC1CCCc2ccccc21)C(C)(C)C

> <Shape>
0.231

> <Color>
0.066

> <Negative vol penalty>
0.000

$$$$

  -OEChem-04052317213D

 86 94  0     1  0  0  0  0  0999 V2000
  -29.3486  -27.0460   19.1010 C   0  0  0  0  0  0  0  0  0  0  0  0
  -29.2941  -26.1215   20.1392 C   0  0  0  0  0  0  0  0  0  0  0  0
  -23.0747   -9.8684   19.9411 C   0  0  0  0  0  0  0  0  0  0  0  0
  -23.8395   -9.8730   22.2328 C   0  0  0  0  0  0  0  0  0  0  0  0
  -30.5347  -27.2252   18.3903 C   0  0  0  0  0  0  0  0  0  0  0  0
  -30.4254  -25.3749   20.4666 C   0  0  0  0  0  0  0  0  0  0  0  0
  -31.2224  -25.1448   25.4622 C   0  0  0  0  0  0  0  0  0  0  0  0
  -22.3326   -8.7141   20.1910 C   0  0  0  0  0  0  0  0  0  0  0  0
  -23.0974   -8.7187   22.4828 C   0  0  0  0  0  0  0  0  0  0  0  0
  -30.4339  -24.2568   26.1926 C   0  0  0  0  0  0  0  0  0  0  0  0
  -21.1183   -5.9777   23.8199 C   0  0  0  0  0  0  0  0  0  0  0  0
  -20.3646   -5.9317   24.9927 C   0  0  0  0  0  0  0  0  0  0  0  0
  -32.2468  -22.6654   26.2035 C   0  0  0  0  0  0  0  0  0  0  0  0
  -19.1164   -7.8686   24.2665 C   0  0  0  0  0  0  0  0  0  0  0  0
  -31.2911  -17.3236   24.3017 C   0  0  0  0  0  0  0  0  0  0  0  0
  -23.8282  -10.4479   20.9620 C   0  0  0  0  0  0  0  0  0  0  0  0
  -24.1671  -12.9735   20.8447 C   0  0  0  0  0  0  0  0  0  0  0  0
  -31.6838  -26.4874   18.7155 C   0  0  0  0  0  0  0  0  0  0  0  0
  -32.5275  -24.7948   25.0870 C   0  0  0  0  0  0  0  0  0  0  0  0
  -31.6275  -25.5435   19.7587 C   0  0  0  0  0  0  0  0  0  0  0  0
  -33.0507  -23.5518   25.4706 C   0  0  0  0  0  0  0  0  0  0  0  0
  -22.3439   -8.1393   21.4619 C   0  0  0  0  0  0  0  0  0  0  0  0
  -30.9450  -23.0157   26.5609 C   0  0  0  0  0  0  0  0  0  0  0  0
  -20.8711   -6.9692   22.8704 C   0  0  0  0  0  0  0  0  0  0  0  0
  -19.3636   -6.8771   25.2160 C   0  0  0  0  0  0  0  0  0  0  0  0
  -19.8701   -7.9147   23.0937 C   0  0  0  0  0  0  0  0  0  0  0  0
  -24.5955  -11.6399   20.7042 C   0  0  0  0  0  0  0  0  0  0  0  0
  -30.3866  -17.3175   23.2628 C   0  0  0  0  0  0  0  0  0  0  0  0
  -28.7527  -18.0581   24.6812 C   0  0  0  0  0  0  0  0  0  0  0  0
  -29.6571  -18.0635   25.7202 C   0  0  0  0  0  0  0  0  0  0  0  0
  -25.2576  -13.7247   20.4801 C   0  0  0  0  0  0  0  0  0  0  0  0
  -22.8970  -13.4874   21.2670 C   0  0  0  0  0  0  0  0  0  0  0  0
  -34.0345  -24.3967   22.3168 C   0  0  0  0  0  0  0  0  0  0  0  0
  -36.6333  -24.0470   24.2264 C   0  0  0  0  0  0  0  0  0  0  0  0
  -37.8840  -23.2479   27.2995 C   0  0  0  0  0  0  0  0  0  0  0  0
  -30.7407  -14.7493   20.6580 C   0  0  0  0  0  0  0  0  0  0  0  0
  -32.9296  -26.6819   17.8880 C   0  0  0  0  0  0  0  0  0  0  0  0
  -33.3746  -25.7746   24.3223 C   0  0  0  0  0  0  0  0  0  0  0  0
  -34.4528  -23.1362   25.1101 C   0  0  0  0  0  0  0  0  0  0  0  0
  -34.1893  -26.1202   18.5423 C   0  0  0  0  0  0  0  0  0  0  0  0
  -29.6005  -12.3669   18.2704 C   0  0  0  0  0  0  0  0  0  0  0  0
  -33.9305  -24.7169   19.0813 C   0  0  0  0  0  0  0  0  0  0  0  0
  -28.1643  -12.0711   18.7060 C   0  0  0  0  0  0  0  0  0  0  0  0
  -30.5200  -12.5871   19.4696 C   0  0  0  0  0  0  0  0  0  0  0  0
  -28.6204  -13.3142   20.8613 C   0  0  0  0  0  0  0  0  0  0  0  0
  -32.8406  -24.7325   20.1599 C   0  0  1  0  0  0  0  0  0  0  0  0
  -34.5103  -25.1085   23.5516 C   0  0  1  0  0  0  0  0  0  0  0  0
  -27.6439  -13.1402   19.6856 C   0  0  2  0  0  0  0  0  0  0  0  0
  -27.3338  -18.4672   24.8840 C   0  0  0  0  0  0  0  0  0  0  0  0
  -40.0500  -23.0166   28.5454 C   0  0  0  0  0  0  0  0  0  0  0  0
  -31.0922  -20.2407   19.8414 C   0  0  0  0  0  0  0  0  0  0  0  0
  -32.9018  -19.0218   21.0638 C   0  0  0  0  0  0  0  0  0  0  0  0
  -37.1637  -21.3982   22.8078 C   0  0  0  0  0  0  0  0  0  0  0  0
  -38.7108  -20.7860   24.6786 C   0  0  0  0  0  0  0  0  0  0  0  0
  -39.2063  -22.7712   23.2517 C   0  0  0  0  0  0  0  0  0  0  0  0
  -37.1235  -25.3455   29.2438 C   0  0  0  0  0  0  0  0  0  0  0  0
  -29.2543  -18.4834   27.1112 C   0  0  0  0  0  0  0  0  0  0  0  0
  -29.1110  -19.9975   27.2803 C   0  0  0  0  0  0  0  0  0  0  0  0
  -30.5899  -17.9707   20.7962 C   0  0  0  0  0  0  0  0  0  0  0  0
  -30.4181  -20.7543   27.0750 C   0  0  0  0  0  0  0  0  0  1  0  0
  -30.8069  -16.8983   21.8978 C   0  0  2  0  0  0  0  0  0  0  0  0
  -37.3054  -22.8837   24.9148 C   0  0  1  0  0  0  0  0  0  0  0  0
  -38.9005  -23.9450   28.1857 C   0  0  2  0  0  0  0  0  0  0  0  0
  -31.3953  -19.2729   20.9890 C   0  0  0  0  0  0  0  0  0  0  0  0
  -38.0694  -21.9665   23.9185 C   0  0  0  0  0  0  0  0  0  0  0  0
  -30.9427  -17.6967   25.5490 N   0  0  0  0  0  0  0  0  0  0  0  0
  -25.8595  -11.5460   20.2831 N   0  0  0  0  0  0  0  0  0  0  0  0
  -29.1011  -17.6847   23.4339 N   0  0  0  0  0  0  0  0  0  0  0  0
  -26.2348  -12.8302   20.1557 N   0  0  0  0  0  0  0  0  0  0  0  0
  -35.2395  -24.1264   24.3564 N   0  0  0  0  0  0  0  0  0  0  0  0
  -29.9702  -13.6138   20.3582 N   0  0  0  0  0  0  0  0  0  0  0  0
  -25.4665  -15.0565   20.4085 N   0  0  0  0  0  0  0  0  0  0  0  0
  -21.8867  -12.5767   21.6052 N   0  0  0  0  0  0  0  0  0  0  0  0
  -33.3783  -25.2123   21.4149 N   0  0  0  0  0  0  0  0  0  0  0  0
  -38.1437  -23.4578   25.9617 N   0  0  0  0  0  0  0  0  0  0  0  0
  -30.1424  -15.6764   21.5026 N   0  0  0  0  0  0  0  0  0  0  0  0
  -38.2568  -24.4069   29.4480 N   0  3  0  0  0  0  0  0  0  0  0  0
  -22.6595  -14.7177   21.3266 O   0  0  0  0  0  0  0  0  0  0  0  0
  -34.2484  -23.1967   22.1910 O   0  0  0  0  0  0  0  0  0  0  0  0
  -37.3205  -24.8596   23.6025 O   0  0  0  0  0  0  0  0  0  0  0  0
  -36.9549  -22.5807   27.7490 O   0  0  0  0  0  0  0  0  0  0  0  0
  -31.8755  -14.9267   20.2022 O   0  0  0  0  0  0  0  0  0  0  0  0
  -21.6197   -7.0131   21.7062 O   0  0  0  0  0  0  0  0  0  0  0  0
  -30.1772  -22.1468   27.2732 O   0  0  0  0  0  0  0  0  0  1  0  0
  -18.6389   -6.8319   26.3415 F   0  0  0  0  0  0  0  0  0  0  0  0
  -19.6272   -8.8688   22.1847 F   0  0  0  0  0  0  0  0  0  0  0  0
  1  2  1  0  0  0  0
  1  5  2  0  0  0  0
  2  6  2  0  0  0  0
  3  8  2  0  0  0  0
  3 16  1  0  0  0  0
  4  9  1  0  0  0  0
  4 16  2  0  0  0  0
  5 18  1  0  0  0  0
  6 20  1  0  0  0  0
  7 10  2  0  0  0  0
  7 19  1  0  0  0  0
  8 22  1  0  0  0  0
  9 22  2  0  0  0  0
 10 23  1  0  0  0  0
 11 12  2  0  0  0  0
 11 24  1  0  0  0  0
 12 25  1  0  0  0  0
 13 21  1  0  0  0  0
 13 23  2  0  0  0  0
 14 25  2  0  0  0  0
 14 26  1  0  0  0  0
 15 28  1  0  0  0  0
 15 66  2  0  0  0  0
 16 27  1  0  0  0  0
 17 27  1  0  0  0  0
 17 31  2  0  0  0  0
 17 32  1  0  0  0  0
 18 20  2  0  0  0  0
 18 37  1  0  0  0  0
 19 21  2  0  0  0  0
 19 38  1  0  0  0  0
 20 46  1  0  0  0  0
 21 39  1  0  0  0  0
 22 83  1  0  0  0  0
 23 84  1  0  0  0  0
 24 26  2  0  0  0  0
 24 83  1  0  0  0  0
 25 85  1  0  0  0  0
 26 86  1  0  0  0  0
 27 67  2  0  0  0  0
 28 61  1  0  0  0  0
 28 68  2  0  0  0  0
 29 30  2  0  0  0  0
 29 49  1  0  0  0  0
 29 68  1  0  0  0  0
 30 57  1  0  0  0  0
 30 66  1  0  0  0  0
 31 69  1  0  0  0  0
 31 72  1  0  0  0  0
 32 73  1  0  0  0  0
 32 78  2  0  0  0  0
 33 47  1  0  0  0  0
 33 74  1  0  0  0  0
 33 79  2  0  0  0  0
 34 62  1  0  0  0  0
 34 70  1  0  0  0  0
 34 80  2  0  0  0  0
 35 63  1  0  0  0  0
 35 75  1  0  0  0  0
 35 81  2  0  0  0  0
 36 71  1  0  0  0  0
 36 76  1  0  0  0  0
 36 82  2  0  0  0  0
 37 40  1  0  0  0  0
 38 47  1  0  0  0  0
 39 70  1  0  0  0  0
 40 42  1  0  0  0  0
 41 43  1  0  0  0  0
 41 44  1  0  0  0  0
 42 46  1  0  0  0  0
 43 48  1  0  0  0  0
 44 71  1  0  0  0  0
 45 48  1  0  0  0  0
 45 71  1  0  0  0  0
 46 74  1  0  0  0  0
 47 70  1  0  0  0  0
 48 69  1  0  0  0  0
 50 63  1  0  0  0  0
 51 64  1  0  0  0  0
 52 64  1  0  0  0  0
 53 65  1  0  0  0  0
 54 65  1  0  0  0  0
 55 65  1  0  0  0  0
 56 77  1  0  0  0  0
 57 58  1  0  0  0  0
 58 60  1  0  0  0  0
 59 61  1  0  0  0  0
 59 64  1  0  0  0  0
 60 84  1  0  0  0  0
 61 76  1  0  0  0  0
 62 65  1  0  0  0  0
 62 75  1  0  0  0  0
 63 77  1  0  0  0  0
 67 69  1  0  0  0  0
M  CHG  1  77   1
M  ISO  4  36 100  60 101  76 100  84 101
M  END
> <Batch ID>
0046

> <Smiles>
CNC(C)C(=O)NC(C(=O)N1Cc2cc([101O:1][101CH2:1]CCc3ncc(C(CC(C)C)[100NH:0][100C:0](=O)N4CCCC(n5nc(-c6ccc(Oc7ccc(F)cc7F)cc6)c(C(N)=O)c5N)C4)nc3C)ccc2CC1C(=O)NC1CCCc2ccccc21)C(C)(C)C

> <Shape>
0.198

> <Color>
0.187

> <Negative vol penalty>
0.000

$$$$

  -OEChem-04052317213D

 85 92  0     1  0  0  0  0  0999 V2000
  -23.6893  -31.0325   22.0416 C   0  0  0  0  0  0  0  0  0  0  0  0
  -24.1154  -29.7213   21.8560 C   0  0  0  0  0  0  0  0  0  0  0  0
  -23.1784   -9.6631   20.1024 C   0  0  0  0  0  0  0  0  0  0  0  0
  -23.8053   -9.9663   22.4158 C   0  0  0  0  0  0  0  0  0  0  0  0
  -24.4689  -32.0903   21.5755 C   0  0  0  0  0  0  0  0  0  0  0  0
  -25.3210  -29.4670   21.2032 C   0  0  0  0  0  0  0  0  0  0  0  0
  -28.1034  -25.9533   23.5605 C   0  0  0  0  0  0  0  0  0  0  0  0
  -22.4581   -8.5196   20.4474 C   0  0  0  0  0  0  0  0  0  0  0  0
  -23.0849   -8.8228   22.7609 C   0  0  0  0  0  0  0  0  0  0  0  0
  -27.7331  -24.6213   23.3800 C   0  0  0  0  0  0  0  0  0  0  0  0
  -23.1169   -5.2818   21.1595 C   0  0  0  0  0  0  0  0  0  0  0  0
  -23.2697   -4.1531   20.3544 C   0  0  0  0  0  0  0  0  0  0  0  0
  -29.4768  -24.3659   21.7328 C   0  0  0  0  0  0  0  0  0  0  0  0
  -20.9052   -4.1861   19.8594 C   0  0  0  0  0  0  0  0  0  0  0  0
  -23.8521  -10.3865   21.0866 C   0  0  0  0  0  0  0  0  0  0  0  0
  -24.1206  -12.8915   20.6865 C   0  0  0  0  0  0  0  0  0  0  0  0
  -25.6894  -31.8491   20.9251 C   0  0  0  0  0  0  0  0  0  0  0  0
  -29.1580  -26.5055   22.8192 C   0  0  0  0  0  0  0  0  0  0  0  0
  -26.1171  -30.5225   20.7267 C   0  0  0  0  0  0  0  0  0  0  0  0
  -29.8602  -25.7044   21.9075 C   0  0  0  0  0  0  0  0  0  0  0  0
  -22.4113   -8.0994   21.7766 C   0  0  0  0  0  0  0  0  0  0  0  0
  -28.4179  -23.8282   22.4640 C   0  0  0  0  0  0  0  0  0  0  0  0
  -21.8582   -5.8627   21.3146 C   0  0  0  0  0  0  0  0  0  0  0  0
  -22.1639   -3.6052   19.7043 C   0  0  0  0  0  0  0  0  0  0  0  0
  -20.7524   -5.3148   20.6645 C   0  0  0  0  0  0  0  0  0  0  0  0
  -24.5968  -11.5675   20.7308 C   0  0  0  0  0  0  0  0  0  0  0  0
  -25.2077  -13.6345   20.2955 C   0  0  0  0  0  0  0  0  0  0  0  0
  -22.8127  -13.4041   20.9732 C   0  0  0  0  0  0  0  0  0  0  0  0
  -29.4194  -28.8649   20.7054 C   0  0  0  0  0  0  0  0  0  0  0  0
  -32.5869  -28.2095   20.9494 C   0  0  0  0  0  0  0  0  0  0  0  0
  -35.0274  -25.9500   21.7142 C   0  0  0  0  0  0  0  0  0  0  0  0
  -30.6369  -14.8759   20.6527 C   0  0  0  0  0  0  0  0  0  0  0  0
  -26.4748  -33.0233   20.3968 C   0  0  0  0  0  0  0  0  0  0  0  0
  -29.5624  -27.9365   23.0450 C   0  0  0  0  0  0  0  0  0  0  0  0
  -31.0127  -26.2438   21.1018 C   0  0  0  0  0  0  0  0  0  0  0  0
  -27.9208  -32.6811   20.0473 C   0  0  0  0  0  0  0  0  0  0  0  0
  -29.7133  -12.1880   18.5084 C   0  0  0  0  0  0  0  0  0  0  0  0
  -27.9833  -31.3888   19.2392 C   0  0  0  0  0  0  0  0  0  0  0  0
  -28.2634  -11.8924   18.8961 C   0  0  0  0  0  0  0  0  0  0  0  0
  -30.5528  -12.5820   19.7216 C   0  0  0  0  0  0  0  0  0  0  0  0
  -28.5528  -13.3970   20.9088 C   0  0  0  0  0  0  0  0  0  0  0  0
  -27.4309  -30.2070   20.0452 C   0  0  1  0  0  0  0  0  0  0  0  0
  -30.3184  -28.5372   21.8638 C   0  0  1  0  0  0  0  0  0  0  0  0
  -27.6536  -13.0494   19.7101 C   0  0  2  0  0  0  0  0  0  0  0  0
  -37.5228  -25.6922   21.7801 C   0  0  0  0  0  0  0  0  0  0  0  0
  -26.2280  -19.1989   19.1541 C   0  0  0  0  0  0  0  0  0  0  0  0
  -30.0880  -20.8170   14.6561 C   0  0  0  0  0  0  0  0  0  0  0  0
  -30.7078  -18.5331   15.4837 C   0  0  0  0  0  0  0  0  0  0  0  0
  -28.3403  -19.0430   14.8669 C   0  0  0  0  0  0  0  0  0  0  0  0
  -32.6362  -27.9334   17.9111 C   0  0  0  0  0  0  0  0  0  0  0  0
  -34.8445  -26.7727   18.1221 C   0  0  0  0  0  0  0  0  0  0  0  0
  -34.6023  -29.1365   18.8812 C   0  0  0  0  0  0  0  0  0  0  0  0
  -35.0141  -25.4409   24.6296 C   0  0  0  0  0  0  0  0  0  0  0  0
  -30.3020  -18.1765   20.5246 C   0  0  0  0  0  0  0  0  0  0  0  0
  -29.2891  -20.0568   16.9529 C   0  0  0  0  0  0  0  0  0  0  0  0
  -27.2279  -20.8834   20.7488 C   0  0  0  0  0  0  0  0  0  0  0  0
  -30.5642  -17.1570   21.6278 C   0  0  0  0  0  0  0  0  0  0  0  0
  -28.8159  -18.4528   20.3353 C   0  0  0  0  0  0  0  0  0  0  0  0
  -28.8703  -18.9294   17.8918 C   0  0  0  0  0  0  0  0  0  0  0  0
  -28.2735  -21.9663   20.9915 C   0  0  0  0  0  0  0  0  0  1  0  0
  -33.5450  -27.2842   20.2389 C   0  0  1  0  0  0  0  0  0  0  0  0
  -36.2772  -26.0674   22.5679 C   0  0  2  0  0  0  0  0  0  0  0  0
  -27.3402  -20.2152   19.3771 C   0  0  1  0  0  0  0  0  0  0  0  0
  -29.6207  -19.6204   15.5012 C   0  0  0  0  0  0  0  0  0  0  0  0
  -33.8841  -27.7718   18.8020 C   0  0  0  0  0  0  0  0  0  0  0  0
  -25.8859  -11.4716   20.3946 N   0  0  0  0  0  0  0  0  0  0  0  0
  -26.2290  -12.7449   20.1352 N   0  0  0  0  0  0  0  0  0  0  0  0
  -31.3662  -27.6506   21.3536 N   0  0  0  0  0  0  0  0  0  0  0  0
  -29.9204  -13.6851   20.4489 N   0  0  0  0  0  0  0  0  0  0  0  0
  -25.3799  -14.9554   20.0764 N   0  0  0  0  0  0  0  0  0  0  0  0
  -21.8122  -12.5027   21.3616 N   0  0  0  0  0  0  0  0  0  0  0  0
  -28.4076  -29.7545   21.0126 N   0  0  0  0  0  0  0  0  0  0  0  0
  -34.7051  -27.1483   21.1130 N   0  0  0  0  0  0  0  0  0  0  0  0
  -29.9616  -15.8732   21.3457 N   0  0  0  0  0  0  0  0  0  0  0  0
  -36.1817  -25.1683   23.7525 N   0  3  0  0  0  0  0  0  0  0  0  0
  -28.6429  -19.5016   19.2672 N   0  3  1  0  0  0  0  0  0  0  0  0
  -22.5350  -14.6231   20.8717 O   0  0  0  0  0  0  0  0  0  0  0  0
  -29.6291  -28.3501   19.6133 O   0  0  0  0  0  0  0  0  0  0  0  0
  -32.9126  -29.3831   21.1451 O   0  0  0  0  0  0  0  0  0  0  0  0
  -34.4020  -24.8993   21.5900 O   0  0  0  0  0  0  0  0  0  0  0  0
  -31.7909  -15.0403   20.2425 O   0  0  0  0  0  0  0  0  0  0  0  0
  -21.7083   -6.9837   22.1137 O   0  0  0  0  0  0  0  0  0  0  0  0
  -28.0581  -22.5280   22.2855 O   0  0  0  0  0  0  0  0  0  1  0  0
  -22.3110   -2.5222   18.9300 F   0  0  0  0  0  0  0  0  0  0  0  0
  -19.5409   -5.8692   20.8088 F   0  0  0  0  0  0  0  0  0  0  0  0
  1  2  1  0  0  0  0
  1  5  2  0  0  0  0
  2  6  2  0  0  0  0
  3  8  2  0  0  0  0
  3 15  1  0  0  0  0
  4  9  1  0  0  0  0
  4 15  2  0  0  0  0
  5 17  1  0  0  0  0
  6 19  1  0  0  0  0
  7 10  2  0  0  0  0
  7 18  1  0  0  0  0
  8 21  1  0  0  0  0
  9 21  2  0  0  0  0
 10 22  1  0  0  0  0
 11 12  2  0  0  0  0
 11 23  1  0  0  0  0
 12 24  1  0  0  0  0
 13 20  1  0  0  0  0
 13 22  2  0  0  0  0
 14 24  2  0  0  0  0
 14 25  1  0  0  0  0
 15 26  1  0  0  0  0
 16 26  1  0  0  0  0
 16 27  2  0  0  0  0
 16 28  1  0  0  0  0
 17 19  2  0  0  0  0
 17 33  1  0  0  0  0
 18 20  2  0  0  0  0
 18 34  1  0  0  0  0
 19 42  1  0  0  0  0
 20 35  1  0  0  0  0
 21 82  1  0  0  0  0
 22 83  1  0  0  0  0
 23 25  2  0  0  0  0
 23 82  1  0  0  0  0
 24 84  1  0  0  0  0
 25 85  1  0  0  0  0
 26 66  2  0  0  0  0
 27 67  1  0  0  0  0
 27 70  1  0  0  0  0
 28 71  1  0  0  0  0
 28 77  2  0  0  0  0
 29 43  1  0  0  0  0
 29 72  1  0  0  0  0
 29 78  2  0  0  0  0
 30 61  1  0  0  0  0
 30 68  1  0  0  0  0
 30 79  2  0  0  0  0
 31 62  1  0  0  0  0
 31 73  1  0  0  0  0
 31 80  2  0  0  0  0
 32 69  1  0  0  0  0
 32 74  1  0  0  0  0
 32 81  2  0  0  0  0
 33 36  1  0  0  0  0
 34 43  1  0  0  0  0
 35 68  1  0  0  0  0
 36 38  1  0  0  0  0
 37 39  1  0  0  0  0
 37 40  1  0  0  0  0
 38 42  1  0  0  0  0
 39 44  1  0  0  0  0
 40 69  1  0  0  0  0
 41 44  1  0  0  0  0
 41 69  1  0  0  0  0
 42 72  1  0  0  0  0
 43 68  1  0  0  0  0
 44 67  1  0  0  0  0
 45 62  1  0  0  0  0
 46 63  1  0  0  0  0
 47 64  1  0  0  0  0
 48 64  1  0  0  0  0
 49 64  1  0  0  0  0
 50 65  1  0  0  0  0
 51 65  1  0  0  0  0
 52 65  1  0  0  0  0
 53 75  1  0  0  0  0
 54 57  1  0  0  0  0
 54 58  1  0  0  0  0
 55 59  1  0  0  0  0
 55 64  1  0  0  0  0
 56 60  1  0  0  0  0
 56 63  1  0  0  0  0
 57 74  1  0  0  0  0
 58 76  1  0  0  0  0
 59 76  1  0  0  0  0
 60 83  1  0  0  0  0
 61 65  1  0  0  0  0
 61 73  1  0  0  0  0
 62 75  1  0  0  0  0
 63 76  1  0  0  0  0
 66 67  1  0  0  0  0
M  CHG  2  75   1  76   1
M  ISO  4  32 100  60 101  74 100  83 101
M  END
> <Batch ID>
0046

> <Smiles>
CNC(C)C(=O)NC(C(=O)N1Cc2cc([101O:1][101CH2:1]CC(C)N(CCC[100NH:0][100C:0](=O)N3CCCC(n4nc(-c5ccc(Oc6ccc(F)cc6F)cc5)c(C(N)=O)c4N)C3)CCC(C)(C)C)ccc2CC1C(=O)NC1CCCc2ccccc21)C(C)(C)C

> <Shape>
0.268

> <Color>
0.192

> <Negative vol penalty>
0.000

$$$$

  -OEChem-04052317213D

 84 92  0     1  0  0  0  0  0999 V2000
  -24.3694  -30.1518   22.9026 C   0  0  0  0  0  0  0  0  0  0  0  0
  -24.0430  -28.8002   22.9499 C   0  0  0  0  0  0  0  0  0  0  0  0
  -19.5756  -22.2282   22.3486 C   0  0  0  0  0  0  0  0  0  0  0  0
  -21.6647  -22.0564   21.1473 C   0  0  0  0  0  0  0  0  0  0  0  0
  -25.1835  -30.6357   21.8794 C   0  0  0  0  0  0  0  0  0  0  0  0
  -24.5295  -27.9321   21.9732 C   0  0  0  0  0  0  0  0  0  0  0  0
  -26.1559  -22.0767   22.7321 C   0  0  0  0  0  0  0  0  0  0  0  0
  -25.7412  -11.8145   20.0456 C   0  0  0  0  0  0  0  0  0  0  0  0
  -19.4219  -23.5379   21.8941 C   0  0  0  0  0  0  0  0  0  0  0  0
  -21.5110  -23.3661   20.6927 C   0  0  0  0  0  0  0  0  0  0  0  0
  -25.4883  -20.8781   22.4841 C   0  0  0  0  0  0  0  0  0  0  0  0
  -18.6581  -27.0499   21.3410 C   0  0  0  0  0  0  0  0  0  0  0  0
  -18.2585  -28.0158   22.2645 C   0  0  0  0  0  0  0  0  0  0  0  0
  -26.1059  -13.0822   19.6062 C   0  0  0  0  0  0  0  0  0  0  0  0
  -26.5869  -20.7162   20.3426 C   0  0  0  0  0  0  0  0  0  0  0  0
  -20.2305  -27.5678   23.5865 C   0  0  0  0  0  0  0  0  0  0  0  0
  -20.6971  -21.4874   21.9753 C   0  0  0  0  0  0  0  0  0  0  0  0
  -20.4009  -18.9584   21.8202 C   0  0  0  0  0  0  0  0  0  0  0  0
  -25.6882  -29.7714   20.8951 C   0  0  0  0  0  0  0  0  0  0  0  0
  -27.0372  -22.6106   21.7809 C   0  0  0  0  0  0  0  0  0  0  0  0
  -25.3500  -28.4052   20.9350 C   0  0  0  0  0  0  0  0  0  0  0  0
  -27.2664  -21.9205   20.5820 C   0  0  0  0  0  0  0  0  0  0  0  0
  -24.8604  -11.6815   21.1132 C   0  0  0  0  0  0  0  0  0  0  0  0
  -20.3895  -24.1068   21.0661 C   0  0  0  0  0  0  0  0  0  0  0  0
  -25.7016  -20.1992   21.2880 C   0  0  0  0  0  0  0  0  0  0  0  0
  -19.8439  -26.3428   21.5403 C   0  0  0  0  0  0  0  0  0  0  0  0
  -19.0446  -28.2748   23.3872 C   0  0  0  0  0  0  0  0  0  0  0  0
  -20.6301  -26.6018   22.6630 C   0  0  0  0  0  0  0  0  0  0  0  0
  -20.8567  -20.1347   22.4450 C   0  0  0  0  0  0  0  0  0  0  0  0
  -25.5662  -14.1764   20.2628 C   0  0  0  0  0  0  0  0  0  0  0  0
  -24.3766  -12.8384   21.7026 C   0  0  0  0  0  0  0  0  0  0  0  0
  -20.8010  -17.9469   22.6588 C   0  0  0  0  0  0  0  0  0  0  0  0
  -19.6804  -18.7948   20.5914 C   0  0  0  0  0  0  0  0  0  0  0  0
  -27.1412  -25.2901   20.0742 C   0  0  0  0  0  0  0  0  0  0  0  0
  -30.0419  -24.1468   19.1791 C   0  0  0  0  0  0  0  0  0  0  0  0
  -32.0911  -21.4492   18.7659 C   0  0  0  0  0  0  0  0  0  0  0  0
  -24.6664  -15.5463   25.8900 C   0  0  0  0  0  0  0  0  0  0  0  0
  -26.5257  -30.3491   19.7818 C   0  0  0  0  0  0  0  0  0  0  0  0
  -27.7699  -23.8908   22.0749 C   0  0  0  0  0  0  0  0  0  0  0  0
  -28.2179  -22.4408   19.5369 C   0  0  0  0  0  0  0  0  0  0  0  0
  -27.3064  -29.2972   18.9981 C   0  0  0  0  0  0  0  0  0  0  0  0
  -22.6770  -18.1108   27.3535 C   0  0  0  0  0  0  0  0  0  0  0  0
  -26.4060  -28.1179   18.6441 C   0  0  0  0  0  0  0  0  0  0  0  0
  -21.9938  -18.7724   26.1554 C   0  0  0  0  0  0  0  0  0  0  0  0
  -24.1029  -17.6768   27.0213 C   0  0  0  0  0  0  0  0  0  0  0  0
  -23.5440  -17.4819   24.6289 C   0  0  0  0  0  0  0  0  0  0  0  0
  -25.8786  -27.4276   19.9078 C   0  0  1  0  0  0  0  0  0  0  0  0
  -28.2535  -24.6050   20.8166 C   0  0  1  0  0  0  0  0  0  0  0  0
  -22.0846  -17.8864   24.8984 C   0  0  2  0  0  0  0  0  0  0  0  0
  -24.4670  -10.3260   21.5893 C   0  0  0  0  0  0  0  0  0  0  0  0
  -34.3915  -20.8247   17.9814 C   0  0  0  0  0  0  0  0  0  0  0  0
  -29.1463  -24.4956   16.2832 C   0  0  0  0  0  0  0  0  0  0  0  0
  -31.0386  -23.0089   15.5921 C   0  0  0  0  0  0  0  0  0  0  0  0
  -31.5103  -25.1764   16.7333 C   0  0  0  0  0  0  0  0  0  0  0  0
  -32.8260  -20.3603   21.4180 C   0  0  0  0  0  0  0  0  0  0  0  0
  -25.9385  -15.5662   19.8117 C   0  0  0  0  0  0  0  0  0  0  0  0
  -23.4251  -12.7566   22.8509 C   0  0  0  0  0  0  0  0  0  0  0  0
  -25.2691  -16.6772   20.6234 C   0  0  0  0  0  0  0  0  0  0  0  0
  -24.0904  -12.4572   24.2078 C   0  0  0  0  0  0  0  0  0  0  0  0
  -25.1561  -13.4692   24.6231 C   0  0  0  0  0  0  0  0  0  0  0  0
  -25.7171  -18.0762   20.2163 C   0  0  0  0  0  0  0  0  0  1  0  0
  -30.5439  -23.2581   18.0668 C   0  0  1  0  0  0  0  0  0  0  0  0
  -33.5322  -21.2068   19.1766 C   0  0  2  0  0  0  0  0  0  0  0  0
  -30.5403  -23.9757   16.6875 C   0  0  0  0  0  0  0  0  0  0  0  0
  -21.4972  -19.8942   23.5922 N   0  0  0  0  0  0  0  0  0  0  0  0
  -24.7079  -14.0869   21.3034 N   0  0  0  0  0  0  0  0  0  0  0  0
  -21.4466  -18.5552   23.6948 N   0  0  0  0  0  0  0  0  0  0  0  0
  -28.9056  -23.6997   19.8682 N   0  0  0  0  0  0  0  0  0  0  0  0
  -24.1191  -16.8381   25.8204 N   0  0  0  0  0  0  0  0  0  0  0  0
  -20.6598  -16.6055   22.6037 N   0  0  0  0  0  0  0  0  0  0  0  0
  -19.3493  -19.9394   19.8535 N   0  0  0  0  0  0  0  0  0  0  0  0
  -26.9028  -26.5865   20.4891 N   0  0  0  0  0  0  0  0  0  0  0  0
  -31.8561  -22.7791   18.4878 N   0  0  0  0  0  0  0  0  0  0  0  0
  -24.6364  -14.8158   24.7083 N   0  0  0  0  0  0  0  0  0  0  0  0
  -33.6070  -20.1072   20.1798 N   0  3  0  0  0  0  0  0  0  0  0  0
  -19.3259  -17.6681   20.1689 O   0  0  0  0  0  0  0  0  0  0  0  0
  -26.5445  -24.6878   19.1895 O   0  0  0  0  0  0  0  0  0  0  0  0
  -30.6402  -25.1955   19.4321 O   0  0  0  0  0  0  0  0  0  0  0  0
  -31.2581  -20.5483   18.6951 O   0  0  0  0  0  0  0  0  0  0  0  0
  -25.1414  -15.0766   26.9296 O   0  0  0  0  0  0  0  0  0  0  0  0
  -20.2397  -25.3847   20.6221 O   0  0  0  0  0  0  0  0  0  0  0  0
  -25.0508  -19.0294   21.0432 O   0  0  0  0  0  0  0  0  0  1  0  0
  -18.6615  -29.2035   24.2732 F   0  0  0  0  0  0  0  0  0  0  0  0
  -21.7709  -25.9266   22.8592 F   0  0  0  0  0  0  0  0  0  0  0  0
  1  2  1  0  0  0  0
  1  5  2  0  0  0  0
  2  6  2  0  0  0  0
  3  9  2  0  0  0  0
  3 17  1  0  0  0  0
  4 10  1  0  0  0  0
  4 17  2  0  0  0  0
  5 19  1  0  0  0  0
  6 21  1  0  0  0  0
  7 11  2  0  0  0  0
  7 20  1  0  0  0  0
  8 14  2  0  0  0  0
  8 23  1  0  0  0  0
  9 24  1  0  0  0  0
 10 24  2  0  0  0  0
 11 25  1  0  0  0  0
 12 13  2  0  0  0  0
 12 26  1  0  0  0  0
 13 27  1  0  0  0  0
 14 30  1  0  0  0  0
 15 22  1  0  0  0  0
 15 25  2  0  0  0  0
 16 27  2  0  0  0  0
 16 28  1  0  0  0  0
 17 29  1  0  0  0  0
 18 29  1  0  0  0  0
 18 32  2  0  0  0  0
 18 33  1  0  0  0  0
 19 21  2  0  0  0  0
 19 38  1  0  0  0  0
 20 22  2  0  0  0  0
 20 39  1  0  0  0  0
 21 47  1  0  0  0  0
 22 40  1  0  0  0  0
 23 31  2  0  0  0  0
 23 50  1  0  0  0  0
 24 81  1  0  0  0  0
 25 82  1  0  0  0  0
 26 28  2  0  0  0  0
 26 81  1  0  0  0  0
 27 83  1  0  0  0  0
 28 84  1  0  0  0  0
 29 65  2  0  0  0  0
 30 56  1  0  0  0  0
 30 66  2  0  0  0  0
 31 57  1  0  0  0  0
 31 66  1  0  0  0  0
 32 67  1  0  0  0  0
 32 70  1  0  0  0  0
 33 71  1  0  0  0  0
 33 76  2  0  0  0  0
 34 48  1  0  0  0  0
 34 72  1  0  0  0  0
 34 77  2  0  0  0  0
 35 62  1  0  0  0  0
 35 68  1  0  0  0  0
 35 78  2  0  0  0  0
 36 63  1  0  0  0  0
 36 73  1  0  0  0  0
 36 79  2  0  0  0  0
 37 69  1  0  0  0  0
 37 74  1  0  0  0  0
 37 80  2  0  0  0  0
 38 41  1  0  0  0  0
 39 48  1  0  0  0  0
 40 68  1  0  0  0  0
 41 43  1  0  0  0  0
 42 44  1  0  0  0  0
 42 45  1  0  0  0  0
 43 47  1  0  0  0  0
 44 49  1  0  0  0  0
 45 69  1  0  0  0  0
 46 49  1  0  0  0  0
 46 69  1  0  0  0  0
 47 72  1  0  0  0  0
 48 68  1  0  0  0  0
 49 67  1  0  0  0  0
 51 63  1  0  0  0  0
 52 64  1  0  0  0  0
 53 64  1  0  0  0  0
 54 64  1  0  0  0  0
 55 75  1  0  0  0  0
 56 58  1  0  0  0  0
 57 59  1  0  0  0  0
 58 61  1  0  0  0  0
 59 60  1  0  0  0  0
 60 74  1  0  0  0  0
 61 82  1  0  0  0  0
 62 64  1  0  0  0  0
 62 73  1  0  0  0  0
 63 75  1  0  0  0  0
 65 67  1  0  0  0  0
M  CHG  1  75   1
M  ISO  4  37 100  61 101  74 100  82 101
M  END
> <Batch ID>
0046

> <Smiles>
CNC(C)C(=O)NC(C(=O)N1Cc2cc([101O:1][101CH2:1]CCc3ccc(C)c(CCC[100NH:0][100C:0](=O)N4CCCC(n5nc(-c6ccc(Oc7ccc(F)cc7F)cc6)c(C(N)=O)c5N)C4)n3)ccc2CC1C(=O)NC1CCCc2ccccc21)C(C)(C)C

> <Shape>
0.186

> <Color>
0.071

> <Negative vol penalty>
0.000

$$$$

  -OEChem-04052317213D

 85 93  0     1  0  0  0  0  0999 V2000
  -30.2095  -10.8556   19.6263 C   0  0  0  0  0  0  0  0  0  0  0  0
  -30.1877  -11.6775   20.7485 C   0  0  0  0  0  0  0  0  0  0  0  0
  -27.1805  -26.2877   17.8033 C   0  0  0  0  0  0  0  0  0  0  0  0
  -26.7949  -25.9300   20.1613 C   0  0  0  0  0  0  0  0  0  0  0  0
  -29.4201  -11.1670   18.5201 C   0  0  0  0  0  0  0  0  0  0  0  0
  -29.3772  -12.8121   20.7647 C   0  0  0  0  0  0  0  0  0  0  0  0
  -26.4369  -15.1675   25.5930 C   0  0  0  0  0  0  0  0  0  0  0  0
  -26.2047  -27.2844   17.7949 C   0  0  0  0  0  0  0  0  0  0  0  0
  -25.8192  -26.9267   20.1530 C   0  0  0  0  0  0  0  0  0  0  0  0
  -26.7431  -16.2183   26.4566 C   0  0  0  0  0  0  0  0  0  0  0  0
  -25.7105  -30.3041   20.1910 C   0  0  0  0  0  0  0  0  0  0  0  0
  -25.7280  -31.2348   21.2297 C   0  0  0  0  0  0  0  0  0  0  0  0
  -25.3749  -17.6984   25.1311 C   0  0  0  0  0  0  0  0  0  0  0  0
  -23.4997  -30.5584   21.8734 C   0  0  0  0  0  0  0  0  0  0  0  0
  -31.4085  -19.2704   27.2512 C   0  0  0  0  0  0  0  0  0  0  0  0
  -27.4756  -25.6104   18.9865 C   0  0  0  0  0  0  0  0  0  0  0  0
  -29.8594  -24.7396   19.2450 C   0  0  0  0  0  0  0  0  0  0  0  0
  -28.5922  -12.3007   18.5264 C   0  0  0  0  0  0  0  0  0  0  0  0
  -25.6047  -15.3772   24.4839 C   0  0  0  0  0  0  0  0  0  0  0  0
  -28.5769  -13.1397   19.6570 C   0  0  0  0  0  0  0  0  0  0  0  0
  -25.0576  -16.6480   24.2564 C   0  0  0  0  0  0  0  0  0  0  0  0
  -25.5241  -27.6039   18.9698 C   0  0  0  0  0  0  0  0  0  0  0  0
  -26.2144  -17.4847   26.2241 C   0  0  0  0  0  0  0  0  0  0  0  0
  -24.5876  -29.5006   19.9933 C   0  0  0  0  0  0  0  0  0  0  0  0
  -24.6227  -31.3620   22.0710 C   0  0  0  0  0  0  0  0  0  0  0  0
  -23.4822  -29.6277   20.8345 C   0  0  0  0  0  0  0  0  0  0  0  0
  -28.4830  -24.5804   18.9956 C   0  0  0  0  0  0  0  0  0  0  0  0
  -30.4535  -18.7714   26.3930 C   0  0  0  0  0  0  0  0  0  0  0  0
  -29.8585  -20.6915   28.1498 C   0  0  0  0  0  0  0  0  0  0  0  0
  -28.9036  -20.1931   27.2911 C   0  0  0  0  0  0  0  0  0  0  0  0
  -30.3766  -23.4717   19.1381 C   0  0  0  0  0  0  0  0  0  0  0  0
  -30.6037  -25.9274   19.5464 C   0  0  0  0  0  0  0  0  0  0  0  0
  -25.9630  -15.1414   21.3343 C   0  0  0  0  0  0  0  0  0  0  0  0
  -22.7779  -15.7556   21.3179 C   0  0  0  0  0  0  0  0  0  0  0  0
  -20.0790  -17.1036   22.9134 C   0  0  0  0  0  0  0  0  0  0  0  0
  -30.1178  -18.0028   20.2195 C   0  0  0  0  0  0  0  0  0  0  0  0
  -27.7924  -12.6224   17.2889 C   0  0  0  0  0  0  0  0  0  0  0  0
  -25.2625  -14.2271   23.5770 C   0  0  0  0  0  0  0  0  0  0  0  0
  -24.1427  -16.9206   23.0914 C   0  0  0  0  0  0  0  0  0  0  0  0
  -26.6781  -13.6373   17.5306 C   0  0  0  0  0  0  0  0  0  0  0  0
  -28.2914  -19.2004   17.4076 C   0  0  0  0  0  0  0  0  0  0  0  0
  -27.1990  -14.8189   18.3426 C   0  0  0  0  0  0  0  0  0  0  0  0
  -28.2867  -20.7187   17.5941 C   0  0  0  0  0  0  0  0  0  0  0  0
  -28.1838  -18.4675   18.7430 C   0  0  0  0  0  0  0  0  0  0  0  0
  -29.1846  -20.3786   19.9344 C   0  0  0  0  0  0  0  0  0  0  0  0
  -27.6921  -14.3657   19.7221 C   0  0  1  0  0  0  0  0  0  0  0  0
  -24.8181  -14.6735   22.1875 C   0  0  1  0  0  0  0  0  0  0  0  0
  -29.3476  -21.1609   18.6199 C   0  0  2  0  0  0  0  0  0  0  0  0
  -29.3720  -21.2215   30.5516 C   0  0  0  0  0  0  0  0  0  0  0  0
  -17.6147  -17.4869   22.6346 C   0  0  0  0  0  0  0  0  0  0  0  0
  -23.3550  -18.0376   19.3763 C   0  0  0  0  0  0  0  0  0  0  0  0
  -21.0766  -18.9469   19.8769 C   0  0  0  0  0  0  0  0  0  0  0  0
  -21.3168  -16.6947   18.8316 C   0  0  0  0  0  0  0  0  0  0  0  0
  -19.4381  -15.4771   25.3015 C   0  0  0  0  0  0  0  0  0  0  0  0
  -30.7991  -17.7000   25.4190 C   0  0  0  0  0  0  0  0  0  0  0  0
  -29.5354  -21.7636   29.1337 C   0  0  0  0  0  0  0  0  0  0  0  0
  -27.4853  -20.7093   27.3062 C   0  0  0  0  0  0  0  0  0  0  0  0
  -31.2833  -18.2669   24.0740 C   0  0  0  0  0  0  0  0  0  0  0  0
  -31.5991  -17.1555   23.0686 C   0  0  0  0  0  0  0  0  0  0  0  0
  -32.0688  -17.6984   21.7228 C   0  0  0  0  0  0  0  0  0  0  0  0
  -26.5375  -19.8241   26.5042 C   0  0  0  0  0  0  0  0  0  1  0  0
  -21.9301  -17.0036   21.2648 C   0  0  1  0  0  0  0  0  0  0  0  0
  -18.6879  -16.5561   23.1774 C   0  0  2  0  0  0  0  0  0  0  0  0
  -21.9384  -17.6663   19.8583 C   0  0  0  0  0  0  0  0  0  0  0  0
  -31.1281  -20.2394   28.1450 N   0  0  0  0  0  0  0  0  0  0  0  0
  -28.1472  -23.3114   18.7487 N   0  0  0  0  0  0  0  0  0  0  0  0
  -29.1839  -19.2239   26.3975 N   0  0  0  0  0  0  0  0  0  0  0  0
  -29.3199  -22.6618   18.8423 N   0  0  0  0  0  0  0  0  0  0  0  0
  -23.8430  -15.7652   22.2296 N   0  0  0  0  0  0  0  0  0  0  0  0
  -29.2188  -18.9317   19.6699 N   0  0  0  0  0  0  0  0  0  0  0  0
  -31.6277  -22.9819   19.2690 N   0  0  0  0  0  0  0  0  0  0  0  0
  -29.9161  -27.1465   19.6182 N   0  0  0  0  0  0  0  0  0  0  0  0
  -26.5717  -14.1352   20.6087 N   0  0  0  0  0  0  0  0  0  0  0  0
  -20.6044  -16.6167   21.7352 N   0  0  0  0  0  0  0  0  0  0  0  0
  -31.0713  -18.5272   21.0835 N   0  0  0  0  0  0  0  0  0  0  0  0
  -18.4669  -16.3873   24.6415 N   0  3  0  0  0  0  0  0  0  0  0  0
  -31.8445  -25.9106   19.7300 O   0  0  0  0  0  0  0  0  0  0  0  0
  -26.2704  -16.3276   21.3333 O   0  0  0  0  0  0  0  0  0  0  0  0
  -22.5009  -14.8046   20.5827 O   0  0  0  0  0  0  0  0  0  0  0  0
  -20.6417  -17.8878   23.6743 O   0  0  0  0  0  0  0  0  0  0  0  0
  -30.0773  -16.7964   19.9552 O   0  0  0  0  0  0  0  0  0  0  0  0
  -24.5720  -28.5766   18.9620 O   0  0  0  0  0  0  0  0  0  0  0  0
  -26.5123  -18.5122   27.0651 O   0  0  0  0  0  0  0  0  0  1  0  0
  -24.6403  -32.2547   23.0695 F   0  0  0  0  0  0  0  0  0  0  0  0
  -22.4010  -28.8577   20.6503 F   0  0  0  0  0  0  0  0  0  0  0  0
  1  2  1  0  0  0  0
  1  5  2  0  0  0  0
  2  6  2  0  0  0  0
  3  8  2  0  0  0  0
  3 16  1  0  0  0  0
  4  9  1  0  0  0  0
  4 16  2  0  0  0  0
  5 18  1  0  0  0  0
  6 20  1  0  0  0  0
  7 10  2  0  0  0  0
  7 19  1  0  0  0  0
  8 22  1  0  0  0  0
  9 22  2  0  0  0  0
 10 23  1  0  0  0  0
 11 12  2  0  0  0  0
 11 24  1  0  0  0  0
 12 25  1  0  0  0  0
 13 21  1  0  0  0  0
 13 23  2  0  0  0  0
 14 25  2  0  0  0  0
 14 26  1  0  0  0  0
 15 28  1  0  0  0  0
 15 65  2  0  0  0  0
 16 27  1  0  0  0  0
 17 27  1  0  0  0  0
 17 31  2  0  0  0  0
 17 32  1  0  0  0  0
 18 20  2  0  0  0  0
 18 37  1  0  0  0  0
 19 21  2  0  0  0  0
 19 38  1  0  0  0  0
 20 46  1  0  0  0  0
 21 39  1  0  0  0  0
 22 82  1  0  0  0  0
 23 83  1  0  0  0  0
 24 26  2  0  0  0  0
 24 82  1  0  0  0  0
 25 84  1  0  0  0  0
 26 85  1  0  0  0  0
 27 66  2  0  0  0  0
 28 55  1  0  0  0  0
 28 67  2  0  0  0  0
 29 30  2  0  0  0  0
 29 56  1  0  0  0  0
 29 65  1  0  0  0  0
 30 57  1  0  0  0  0
 30 67  1  0  0  0  0
 31 68  1  0  0  0  0
 31 71  1  0  0  0  0
 32 72  1  0  0  0  0
 32 77  2  0  0  0  0
 33 47  1  0  0  0  0
 33 73  1  0  0  0  0
 33 78  2  0  0  0  0
 34 62  1  0  0  0  0
 34 69  1  0  0  0  0
 34 79  2  0  0  0  0
 35 63  1  0  0  0  0
 35 74  1  0  0  0  0
 35 80  2  0  0  0  0
 36 70  1  0  0  0  0
 36 75  1  0  0  0  0
 36 81  2  0  0  0  0
 37 40  1  0  0  0  0
 38 47  1  0  0  0  0
 39 69  1  0  0  0  0
 40 42  1  0  0  0  0
 41 43  1  0  0  0  0
 41 44  1  0  0  0  0
 42 46  1  0  0  0  0
 43 48  1  0  0  0  0
 44 70  1  0  0  0  0
 45 48  1  0  0  0  0
 45 70  1  0  0  0  0
 46 73  1  0  0  0  0
 47 69  1  0  0  0  0
 48 68  1  0  0  0  0
 49 56  1  0  0  0  0
 50 63  1  0  0  0  0
 51 64  1  0  0  0  0
 52 64  1  0  0  0  0
 53 64  1  0  0  0  0
 54 76  1  0  0  0  0
 55 58  1  0  0  0  0
 57 61  1  0  0  0  0
 58 59  1  0  0  0  0
 59 60  1  0  0  0  0
 60 75  1  0  0  0  0
 61 83  1  0  0  0  0
 62 64  1  0  0  0  0
 62 74  1  0  0  0  0
 63 76  1  0  0  0  0
 66 68  1  0  0  0  0
M  CHG  1  76   1
M  ISO  4  36 100  61 101  75 100  83 101
M  END
> <Batch ID>
0046

> <Smiles>
CCc1ncc(CCCC[100NH:0][100C:0](=O)N2CCCC(n3nc(-c4ccc(Oc5ccc(F)cc5F)cc4)c(C(N)=O)c3N)C2)nc1C[101CH2:1][101O:1]c1ccc2c(c1)CN(C(=O)C(NC(=O)C(C)NC)C(C)(C)C)C(C(=O)NC1CCCc3ccccc31)C2

> <Shape>
0.221

> <Color>
0.067

> <Negative vol penalty>
0.000

$$$$

  -OEChem-04052317213D

 82 90  0     1  0  0  0  0  0999 V2000
  -30.1397  -32.0274   11.1497 C   0  0  0  0  0  0  0  0  0  0  0  0
  -29.9669  -30.7741   11.7285 C   0  0  0  0  0  0  0  0  0  0  0  0
  -23.1346   -9.7735   19.8662 C   0  0  0  0  0  0  0  0  0  0  0  0
  -23.9632   -9.6641   22.1330 C   0  0  0  0  0  0  0  0  0  0  0  0
  -30.2748  -33.1549   11.9587 C   0  0  0  0  0  0  0  0  0  0  0  0
  -29.9302  -30.6475   13.1166 C   0  0  0  0  0  0  0  0  0  0  0  0
  -26.5678  -26.6917   16.3649 C   0  0  0  0  0  0  0  0  0  0  0  0
  -22.4489   -8.5742   20.0589 C   0  0  0  0  0  0  0  0  0  0  0  0
  -23.2774   -8.4648   22.3258 C   0  0  0  0  0  0  0  0  0  0  0  0
  -26.8706  -25.4635   16.9510 C   0  0  0  0  0  0  0  0  0  0  0  0
  -20.1064   -7.4851   22.9625 C   0  0  0  0  0  0  0  0  0  0  0  0
  -19.3880   -7.3345   24.1485 C   0  0  0  0  0  0  0  0  0  0  0  0
  -27.2689  -26.5728   19.0558 C   0  0  0  0  0  0  0  0  0  0  0  0
  -20.7333   -5.4106   24.7192 C   0  0  0  0  0  0  0  0  0  0  0  0
  -29.0827  -21.5704   19.2142 C   0  0  0  0  0  0  0  0  0  0  0  0
  -23.8918  -10.3184   20.9032 C   0  0  0  0  0  0  0  0  0  0  0  0
  -24.1210  -12.8588   20.9430 C   0  0  0  0  0  0  0  0  0  0  0  0
  -30.2300  -33.0433   13.3573 C   0  0  0  0  0  0  0  0  0  0  0  0
  -26.6239  -27.8730   17.1184 C   0  0  0  0  0  0  0  0  0  0  0  0
  -30.0661  -31.7744   13.9451 C   0  0  0  0  0  0  0  0  0  0  0  0
  -26.9638  -27.8144   18.4775 C   0  0  0  0  0  0  0  0  0  0  0  0
  -22.5203   -7.9199   21.2887 C   0  0  0  0  0  0  0  0  0  0  0  0
  -27.2240  -25.4042   18.2959 C   0  0  0  0  0  0  0  0  0  0  0  0
  -21.1383   -6.5984   22.6547 C   0  0  0  0  0  0  0  0  0  0  0  0
  -19.7014   -6.2973   25.0269 C   0  0  0  0  0  0  0  0  0  0  0  0
  -21.4518   -5.5612   23.5331 C   0  0  0  0  0  0  0  0  0  0  0  0
  -24.6008  -11.5570   20.7046 C   0  0  0  0  0  0  0  0  0  0  0  0
  -27.7803  -21.8367   18.8533 C   0  0  0  0  0  0  0  0  0  0  0  0
  -27.0919  -19.9487   19.9449 C   0  0  0  0  0  0  0  0  0  0  0  0
  -28.3945  -19.6821   20.3051 C   0  0  0  0  0  0  0  0  0  0  0  0
  -25.1684  -13.6788   20.6007 C   0  0  0  0  0  0  0  0  0  0  0  0
  -22.8430  -13.2885   21.4304 C   0  0  0  0  0  0  0  0  0  0  0  0
  -28.3318  -30.5497   16.9692 C   0  0  0  0  0  0  0  0  0  0  0  0
  -26.3531  -31.4846   19.3636 C   0  0  0  0  0  0  0  0  0  0  0  0
  -24.2798  -30.5928   21.9234 C   0  0  0  0  0  0  0  0  0  0  0  0
  -30.6065  -14.9283   20.7053 C   0  0  0  0  0  0  0  0  0  0  0  0
  -30.4279  -34.2843   14.1913 C   0  0  0  0  0  0  0  0  0  0  0  0
  -26.2685  -29.1868   16.4781 C   0  0  0  0  0  0  0  0  0  0  0  0
  -27.0191  -29.0513   19.3352 C   0  0  0  0  0  0  0  0  0  0  0  0
  -30.0026  -34.1139   15.6474 C   0  0  0  0  0  0  0  0  0  0  0  0
  -29.5000  -12.6569   18.1967 C   0  0  0  0  0  0  0  0  0  0  0  0
  -30.5489  -32.8071   16.2137 C   0  0  0  0  0  0  0  0  0  0  0  0
  -28.0904  -12.2712   18.6485 C   0  0  0  0  0  0  0  0  0  0  0  0
  -30.4431  -12.8394   19.3839 C   0  0  0  0  0  0  0  0  0  0  0  0
  -28.5549  -13.3918   20.8683 C   0  0  0  0  0  0  0  0  0  0  0  0
  -29.9962  -31.5997   15.4467 C   0  0  1  0  0  0  0  0  0  0  0  0
  -26.8577  -30.3878   17.2115 C   0  0  1  0  0  0  0  0  0  0  0  0
  -27.5536  -13.2513   19.7089 C   0  0  2  0  0  0  0  0  0  0  0  0
  -25.9742  -19.0491   20.3490 C   0  0  0  0  0  0  0  0  0  0  0  0
  -22.8363  -31.5786   23.7240 C   0  0  0  0  0  0  0  0  0  0  0  0
  -28.8449  -32.1466   20.9954 C   0  0  0  0  0  0  0  0  0  0  0  0
  -27.4039  -32.2060   23.0419 C   0  0  0  0  0  0  0  0  0  0  0  0
  -26.9979  -33.8220   21.1855 C   0  0  0  0  0  0  0  0  0  0  0  0
  -21.8398  -29.3355   20.8169 C   0  0  0  0  0  0  0  0  0  0  0  0
  -28.7467  -18.4818   21.1157 C   0  0  0  0  0  0  0  0  0  0  0  0
  -27.4497  -23.0510   18.0362 C   0  0  0  0  0  0  0  0  0  1  0  0
  -30.2587  -18.1947   21.2085 C   0  0  0  0  0  0  0  0  0  0  0  0
  -30.6177  -16.9938   22.0810 C   0  0  0  0  0  0  0  0  0  0  0  0
  -26.3792  -31.3910   20.8701 C   0  0  1  0  0  0  0  0  0  0  0  0
  -22.8831  -31.0561   22.2966 C   0  0  2  0  0  0  0  0  0  0  0  0
  -27.4074  -32.3681   21.5068 C   0  0  0  0  0  0  0  0  0  0  0  0
  -29.4132  -20.4883   19.9465 N   0  0  0  0  0  0  0  0  0  0  0  0
  -25.8552  -11.5456   20.2461 N   0  0  0  0  0  0  0  0  0  0  0  0
  -26.7615  -21.0306   19.2122 N   0  0  0  0  0  0  0  0  0  0  0  0
  -26.1726  -12.8505   20.1936 N   0  0  0  0  0  0  0  0  0  0  0  0
  -26.6691  -30.3128   18.6616 N   0  0  0  0  0  0  0  0  0  0  0  0
  -29.8762  -13.7818   20.3515 N   0  0  0  0  0  0  0  0  0  0  0  0
  -25.3191  -15.0203   20.6111 N   0  0  0  0  0  0  0  0  0  0  0  0
  -21.8818  -12.3147   21.7339 N   0  0  0  0  0  0  0  0  0  0  0  0
  -28.6389  -31.3159   15.8610 N   0  0  0  0  0  0  0  0  0  0  0  0
  -25.0052  -31.5956   21.3157 N   0  0  0  0  0  0  0  0  0  0  0  0
  -29.9940  -15.7720   21.6238 N   0  0  0  0  0  0  0  0  0  0  0  0
  -21.9144  -29.9301   22.1762 N   0  3  0  0  0  0  0  0  0  0  0  0
  -22.5559  -14.5009   21.5764 O   0  0  0  0  0  0  0  0  0  0  0  0
  -29.1312  -30.0201   17.7321 O   0  0  0  0  0  0  0  0  0  0  0  0
  -26.0561  -32.5561   18.8294 O   0  0  0  0  0  0  0  0  0  0  0  0
  -24.6877  -29.4562   22.1519 O   0  0  0  0  0  0  0  0  0  0  0  0
  -31.7195  -15.1839   20.2332 O   0  0  0  0  0  0  0  0  0  0  0  0
  -21.8511   -6.7497   21.4772 O   0  0  0  0  0  0  0  0  0  0  0  0
  -27.5206  -24.2067   18.8703 O   0  0  0  0  0  0  0  0  0  1  0  0
  -19.0124   -6.1537   26.1666 F   0  0  0  0  0  0  0  0  0  0  0  0
  -22.4428   -4.7069   23.2434 F   0  0  0  0  0  0  0  0  0  0  0  0
  1  2  1  0  0  0  0
  1  5  2  0  0  0  0
  2  6  2  0  0  0  0
  3  8  2  0  0  0  0
  3 16  1  0  0  0  0
  4  9  1  0  0  0  0
  4 16  2  0  0  0  0
  5 18  1  0  0  0  0
  6 20  1  0  0  0  0
  7 10  2  0  0  0  0
  7 19  1  0  0  0  0
  8 22  1  0  0  0  0
  9 22  2  0  0  0  0
 10 23  1  0  0  0  0
 11 12  2  0  0  0  0
 11 24  1  0  0  0  0
 12 25  1  0  0  0  0
 13 21  1  0  0  0  0
 13 23  2  0  0  0  0
 14 25  2  0  0  0  0
 14 26  1  0  0  0  0
 15 28  1  0  0  0  0
 15 62  2  0  0  0  0
 16 27  1  0  0  0  0
 17 27  1  0  0  0  0
 17 31  2  0  0  0  0
 17 32  1  0  0  0  0
 18 20  2  0  0  0  0
 18 37  1  0  0  0  0
 19 21  2  0  0  0  0
 19 38  1  0  0  0  0
 20 46  1  0  0  0  0
 21 39  1  0  0  0  0
 22 79  1  0  0  0  0
 23 80  1  0  0  0  0
 24 26  2  0  0  0  0
 24 79  1  0  0  0  0
 25 81  1  0  0  0  0
 26 82  1  0  0  0  0
 27 63  2  0  0  0  0
 28 56  1  0  0  0  0
 28 64  2  0  0  0  0
 29 30  2  0  0  0  0
 29 49  1  0  0  0  0
 29 64  1  0  0  0  0
 30 55  1  0  0  0  0
 30 62  1  0  0  0  0
 31 65  1  0  0  0  0
 31 68  1  0  0  0  0
 32 69  1  0  0  0  0
 32 74  2  0  0  0  0
 33 47  1  0  0  0  0
 33 70  1  0  0  0  0
 33 75  2  0  0  0  0
 34 59  1  0  0  0  0
 34 66  1  0  0  0  0
 34 76  2  0  0  0  0
 35 60  1  0  0  0  0
 35 71  1  0  0  0  0
 35 77  2  0  0  0  0
 36 67  1  0  0  0  0
 36 72  1  0  0  0  0
 36 78  2  0  0  0  0
 37 40  1  0  0  0  0
 38 47  1  0  0  0  0
 39 66  1  0  0  0  0
 40 42  1  0  0  0  0
 41 43  1  0  0  0  0
 41 44  1  0  0  0  0
 42 46  1  0  0  0  0
 43 48  1  0  0  0  0
 44 67  1  0  0  0  0
 45 48  1  0  0  0  0
 45 67  1  0  0  0  0
 46 70  1  0  0  0  0
 47 66  1  0  0  0  0
 48 65  1  0  0  0  0
 50 60  1  0  0  0  0
 51 61  1  0  0  0  0
 52 61  1  0  0  0  0
 53 61  1  0  0  0  0
 54 73  1  0  0  0  0
 55 57  1  0  0  0  0
 56 80  1  0  0  0  0
 57 58  1  0  0  0  0
 58 72  1  0  0  0  0
 59 61  1  0  0  0  0
 59 71  1  0  0  0  0
 60 73  1  0  0  0  0
 63 65  1  0  0  0  0
M  CHG  1  73   1
M  ISO  4  36 100  56 101  72 100  80 101
M  END
> <Batch ID>
0046

> <Smiles>
CNC(C)C(=O)NC(C(=O)N1Cc2cc([101O:1][101CH2:1]c3cnc(CCC[100NH:0][100C:0](=O)N4CCCC(n5nc(-c6ccc(Oc7ccc(F)cc7F)cc6)c(C(N)=O)c5N)C4)c(C)n3)ccc2CC1C(=O)NC1CCCc2ccccc21)C(C)(C)C

> <Shape>
0.286

> <Color>
0.218

> <Negative vol penalty>
0.000

$$$$

  -OEChem-04052317213D

 83 91  0     1  0  0  0  0  0999 V2000
  -29.6303  -11.2159   20.4313 C   0  0  0  0  0  0  0  0  0  0  0  0
  -29.7564  -12.5680   20.1293 C   0  0  0  0  0  0  0  0  0  0  0  0
  -22.2709  -26.0560   21.4682 C   0  0  0  0  0  0  0  0  0  0  0  0
  -22.6892  -27.6378   23.2458 C   0  0  0  0  0  0  0  0  0  0  0  0
  -28.3953  -10.5839   20.2923 C   0  0  0  0  0  0  0  0  0  0  0  0
  -28.6476  -13.2888   19.6871 C   0  0  0  0  0  0  0  0  0  0  0  0
  -28.2285  -17.7958   21.9579 C   0  0  0  0  0  0  0  0  0  0  0  0
  -20.9044  -26.1082   21.7432 C   0  0  0  0  0  0  0  0  0  0  0  0
  -21.3227  -27.6901   23.5208 C   0  0  0  0  0  0  0  0  0  0  0  0
  -29.0635  -18.8166   21.5058 C   0  0  0  0  0  0  0  0  0  0  0  0
  -18.5795  -29.1842   22.2310 C   0  0  0  0  0  0  0  0  0  0  0  0
  -18.0086  -30.4405   22.4343 C   0  0  0  0  0  0  0  0  0  0  0  0
  -27.2450  -19.7183   20.2022 C   0  0  0  0  0  0  0  0  0  0  0  0
  -32.2464  -23.4727   19.7258 C   0  0  0  0  0  0  0  0  0  0  0  0
  -17.3366  -29.7752   24.6577 C   0  0  0  0  0  0  0  0  0  0  0  0
  -30.1546  -23.4301   18.6165 C   0  0  0  0  0  0  0  0  0  0  0  0
  -23.1633  -26.8207   22.2196 C   0  0  0  0  0  0  0  0  0  0  0  0
  -25.2945  -27.5817   21.0420 C   0  0  0  0  0  0  0  0  0  0  0  0
  -27.2687  -11.2996   19.8574 C   0  0  0  0  0  0  0  0  0  0  0  0
  -26.8964  -17.7221   21.5263 C   0  0  0  0  0  0  0  0  0  0  0  0
  -27.3967  -12.6655   19.5409 C   0  0  0  0  0  0  0  0  0  0  0  0
  -26.3945  -18.6970   20.6523 C   0  0  0  0  0  0  0  0  0  0  0  0
  -31.2576  -22.7460   19.0864 C   0  0  0  0  0  0  0  0  0  0  0  0
  -20.4303  -26.9254   22.7694 C   0  0  0  0  0  0  0  0  0  0  0  0
  -28.5726  -19.7765   20.6255 C   0  0  0  0  0  0  0  0  0  0  0  0
  -18.5290  -28.2234   23.2410 C   0  0  0  0  0  0  0  0  0  0  0  0
  -17.3872  -30.7360   23.6477 C   0  0  0  0  0  0  0  0  0  0  0  0
  -17.9075  -28.5189   24.4543 C   0  0  0  0  0  0  0  0  0  0  0  0
  -24.5750  -26.7666   21.9364 C   0  0  0  0  0  0  0  0  0  0  0  0
  -32.0670  -24.8355   19.8527 C   0  0  0  0  0  0  0  0  0  0  0  0
  -26.5898  -27.1347   21.1361 C   0  0  0  0  0  0  0  0  0  0  0  0
  -24.8331  -28.6477   20.2014 C   0  0  0  0  0  0  0  0  0  0  0  0
  -25.1815  -15.6018   19.8932 C   0  0  0  0  0  0  0  0  0  0  0  0
  -22.7319  -17.5956   20.6325 C   0  0  0  0  0  0  0  0  0  0  0  0
  -21.7111  -20.7375   21.4890 C   0  0  0  0  0  0  0  0  0  0  0  0
  -30.7844  -25.6444   24.6718 C   0  0  0  0  0  0  0  0  0  0  0  0
  -25.9653  -10.5623   19.6773 C   0  0  0  0  0  0  0  0  0  0  0  0
  -26.0011  -16.6300   22.0443 C   0  0  0  0  0  0  0  0  0  0  0  0
  -24.9662  -18.6744   20.1749 C   0  0  0  0  0  0  0  0  0  0  0  0
  -24.7546  -11.4848   19.5614 C   0  0  0  0  0  0  0  0  0  0  0  0
  -28.5219  -23.0293   23.3514 C   0  0  0  0  0  0  0  0  0  0  0  0
  -25.0431  -12.6246   18.5896 C   0  0  0  0  0  0  0  0  0  0  0  0
  -27.3251  -23.8415   22.8596 C   0  0  0  0  0  0  0  0  0  0  0  0
  -29.2442  -23.7234   24.5021 C   0  0  0  0  0  0  0  0  0  0  0  0
  -28.4658  -25.9308   23.7048 C   0  0  0  0  0  0  0  0  0  0  0  0
  -26.2115  -13.4871   19.0821 C   0  0  1  0  0  0  0  0  0  0  0  0
  -24.8056  -16.3567   21.1368 C   0  0  1  0  0  0  0  0  0  0  0  0
  -27.7437  -25.2813   22.5147 C   0  0  2  0  0  0  0  0  0  0  0  0
  -19.6438  -22.0692   21.9890 C   0  0  0  0  0  0  0  0  0  0  0  0
  -22.0765  -17.6919   17.6540 C   0  0  0  0  0  0  0  0  0  0  0  0
  -20.6707  -19.7151   18.0999 C   0  0  0  0  0  0  0  0  0  0  0  0
  -20.0833  -17.5330   19.1562 C   0  0  0  0  0  0  0  0  0  0  0  0
  -32.2243  -27.6425   24.5522 C   0  0  0  0  0  0  0  0  0  0  0  0
  -22.6316  -21.3539   24.2334 C   0  0  0  0  0  0  0  0  0  0  0  0
  -31.3808  -21.2522   18.9084 C   0  0  0  0  0  0  0  0  0  0  0  0
  -33.1023  -25.6642   20.5325 C   0  0  0  0  0  0  0  0  0  0  0  0
  -32.8990  -25.8206   22.0530 C   0  0  0  0  0  0  0  0  0  0  0  0
  -31.6007  -26.5235   22.4439 C   0  0  0  0  0  0  0  0  0  0  0  0
  -30.7775  -20.4775   20.0751 C   0  0  0  0  0  0  0  0  0  1  0  0
  -22.1052  -18.8058   19.9831 C   0  0  1  0  0  0  0  0  0  0  0  0
  -20.7696  -21.2302   22.5731 C   0  0  2  0  0  0  0  0  0  0  0  0
  -21.2614  -18.4361   18.7306 C   0  0  0  0  0  0  0  0  0  0  0  0
  -30.0053  -24.7646   18.7546 N   0  0  0  0  0  0  0  0  0  0  0  0
  -25.3490  -25.8696   22.5531 N   0  0  0  0  0  0  0  0  0  0  0  0
  -30.9774  -25.4789   19.3828 N   0  0  0  0  0  0  0  0  0  0  0  0
  -26.5682  -26.1184   22.0454 N   0  0  0  0  0  0  0  0  0  0  0  0
  -24.1320  -17.5830   20.7046 N   0  0  0  0  0  0  0  0  0  0  0  0
  -29.5921  -25.1037   24.1631 N   0  0  0  0  0  0  0  0  0  0  0  0
  -27.7337  -27.5157   20.5289 N   0  0  0  0  0  0  0  0  0  0  0  0
  -23.4712  -28.9774   20.2274 N   0  0  0  0  0  0  0  0  0  0  0  0
  -25.7736  -14.3771   20.1359 N   0  0  0  0  0  0  0  0  0  0  0  0
  -21.3526  -19.4874   21.0306 N   0  0  0  0  0  0  0  0  0  0  0  0
  -31.4297  -26.6163   23.8922 N   0  0  0  0  0  0  0  0  0  0  0  0
  -21.5102  -22.0616   23.5637 N   0  3  0  0  0  0  0  0  0  0  0  0
  -25.6029  -29.2778   19.4373 O   0  0  0  0  0  0  0  0  0  0  0  0
  -24.9499  -16.0933   18.7948 O   0  0  0  0  0  0  0  0  0  0  0  0
  -22.0055  -16.6980   21.0663 O   0  0  0  0  0  0  0  0  0  0  0  0
  -22.6666  -21.3972   21.0862 O   0  0  0  0  0  0  0  0  0  0  0  0
  -31.2509  -25.2724   25.7562 O   0  0  0  0  0  0  0  0  0  0  0  0
  -19.0970  -26.9768   23.0379 O   0  0  0  0  0  0  0  0  0  0  0  0
  -29.3856  -20.7736   20.1821 O   0  0  0  0  0  0  0  0  0  1  0  0
  -16.8403  -31.9430   23.8433 F   0  0  0  0  0  0  0  0  0  0  0  0
  -17.8569  -27.6003   25.4287 F   0  0  0  0  0  0  0  0  0  0  0  0
  1  2  1  0  0  0  0
  1  5  2  0  0  0  0
  2  6  2  0  0  0  0
  3  8  2  0  0  0  0
  3 17  1  0  0  0  0
  4  9  1  0  0  0  0
  4 17  2  0  0  0  0
  5 19  1  0  0  0  0
  6 21  1  0  0  0  0
  7 10  2  0  0  0  0
  7 20  1  0  0  0  0
  8 24  1  0  0  0  0
  9 24  2  0  0  0  0
 10 25  1  0  0  0  0
 11 12  2  0  0  0  0
 11 26  1  0  0  0  0
 12 27  1  0  0  0  0
 13 22  1  0  0  0  0
 13 25  2  0  0  0  0
 14 23  2  0  0  0  0
 14 30  1  0  0  0  0
 15 27  2  0  0  0  0
 15 28  1  0  0  0  0
 16 23  1  0  0  0  0
 16 63  2  0  0  0  0
 17 29  1  0  0  0  0
 18 29  1  0  0  0  0
 18 31  2  0  0  0  0
 18 32  1  0  0  0  0
 19 21  2  0  0  0  0
 19 37  1  0  0  0  0
 20 22  2  0  0  0  0
 20 38  1  0  0  0  0
 21 46  1  0  0  0  0
 22 39  1  0  0  0  0
 23 55  1  0  0  0  0
 24 80  1  0  0  0  0
 25 81  1  0  0  0  0
 26 28  2  0  0  0  0
 26 80  1  0  0  0  0
 27 82  1  0  0  0  0
 28 83  1  0  0  0  0
 29 64  2  0  0  0  0
 30 56  1  0  0  0  0
 30 65  2  0  0  0  0
 31 66  1  0  0  0  0
 31 69  1  0  0  0  0
 32 70  1  0  0  0  0
 32 75  2  0  0  0  0
 33 47  1  0  0  0  0
 33 71  1  0  0  0  0
 33 76  2  0  0  0  0
 34 60  1  0  0  0  0
 34 67  1  0  0  0  0
 34 77  2  0  0  0  0
 35 61  1  0  0  0  0
 35 72  1  0  0  0  0
 35 78  2  0  0  0  0
 36 68  1  0  0  0  0
 36 73  1  0  0  0  0
 36 79  2  0  0  0  0
 37 40  1  0  0  0  0
 38 47  1  0  0  0  0
 39 67  1  0  0  0  0
 40 42  1  0  0  0  0
 41 43  1  0  0  0  0
 41 44  1  0  0  0  0
 42 46  1  0  0  0  0
 43 48  1  0  0  0  0
 44 68  1  0  0  0  0
 45 48  1  0  0  0  0
 45 68  1  0  0  0  0
 46 71  1  0  0  0  0
 47 67  1  0  0  0  0
 48 66  1  0  0  0  0
 49 61  1  0  0  0  0
 50 62  1  0  0  0  0
 51 62  1  0  0  0  0
 52 62  1  0  0  0  0
 53 73  1  0  0  0  0
 54 74  1  0  0  0  0
 55 59  1  0  0  0  0
 56 57  1  0  0  0  0
 57 58  1  0  0  0  0
 58 73  1  0  0  0  0
 59 81  1  0  0  0  0
 60 62  1  0  0  0  0
 60 72  1  0  0  0  0
 61 74  1  0  0  0  0
 63 65  1  0  0  0  0
 64 66  1  0  0  0  0
M  CHG  1  74   1
M  ISO  4  36 100  59 101  73 100  81 101
M  END
> <Batch ID>
0046

> <Smiles>
CNC(C)C(=O)NC(C(=O)N1Cc2cc([101O:1][101CH2:1]Cc3cnnc(CCC[100N:0](C)[100C:0](=O)N4CCCC(n5nc(-c6ccc(Oc7ccc(F)cc7F)cc6)c(C(N)=O)c5N)C4)c3)ccc2CC1C(=O)NC1CCCc2ccccc21)C(C)(C)C

> <Shape>
0.195

> <Color>
0.081

> <Negative vol penalty>
0.000

$$$$

  -OEChem-04052317213D

 84 92  0     1  0  0  0  0  0999 V2000
  -19.4195  -30.2737   20.1073 C   0  0  0  0  0  0  0  0  0  0  0  0
  -20.7871  -30.0596   20.2465 C   0  0  0  0  0  0  0  0  0  0  0  0
  -26.7346  -11.9918   20.6656 C   0  0  0  0  0  0  0  0  0  0  0  0
  -25.4791  -14.0544   20.5840 C   0  0  0  0  0  0  0  0  0  0  0  0
  -18.5160  -29.4902   20.8240 C   0  0  0  0  0  0  0  0  0  0  0  0
  -21.2519  -29.0625   21.1033 C   0  0  0  0  0  0  0  0  0  0  0  0
  -24.9443  -26.2853   19.0299 C   0  0  0  0  0  0  0  0  0  0  0  0
  -25.6361  -11.3456   21.2324 C   0  0  0  0  0  0  0  0  0  0  0  0
  -24.3805  -13.4082   21.1508 C   0  0  0  0  0  0  0  0  0  0  0  0
  -26.2211  -26.8445   18.9996 C   0  0  0  0  0  0  0  0  0  0  0  0
  -23.0418   -9.0662   22.3678 C   0  0  0  0  0  0  0  0  0  0  0  0
  -22.6966   -7.8120   21.8646 C   0  0  0  0  0  0  0  0  0  0  0  0
  -26.8318  -25.5399   20.9346 C   0  0  0  0  0  0  0  0  0  0  0  0
  -22.3539   -8.7833   19.6791 C   0  0  0  0  0  0  0  0  0  0  0  0
  -26.6561  -13.3463   20.3415 C   0  0  0  0  0  0  0  0  0  0  0  0
  -28.0889  -14.1421   18.3866 C   0  0  0  0  0  0  0  0  0  0  0  0
  -18.9697  -28.4766   21.6827 C   0  0  0  0  0  0  0  0  0  0  0  0
  -24.5976  -25.3559   20.0210 C   0  0  0  0  0  0  0  0  0  0  0  0
  -20.3536  -28.2656   21.8331 C   0  0  0  0  0  0  0  0  0  0  0  0
  -25.5507  -24.9685   20.9738 C   0  0  0  0  0  0  0  0  0  0  0  0
  -24.4591  -12.0537   21.4749 C   0  0  0  0  0  0  0  0  0  0  0  0
  -27.1642  -26.4740   19.9538 C   0  0  0  0  0  0  0  0  0  0  0  0
  -23.0431  -10.1790   21.5268 C   0  0  0  0  0  0  0  0  0  0  0  0
  -22.3526   -7.6705   20.5202 C   0  0  0  0  0  0  0  0  0  0  0  0
  -22.6992  -10.0375   20.1824 C   0  0  0  0  0  0  0  0  0  0  0  0
  -27.7907  -14.0146   19.7565 C   0  0  0  0  0  0  0  0  0  0  0  0
  -31.2925  -27.6763   18.9543 C   0  0  0  0  0  0  0  0  0  0  0  0
  -30.1078  -28.4234   19.0147 C   0  0  0  0  0  0  0  0  0  0  0  0
  -29.2619  -14.8559   18.3555 C   0  0  0  0  0  0  0  0  0  0  0  0
  -27.3697  -13.6586   17.2443 C   0  0  0  0  0  0  0  0  0  0  0  0
  -22.4520  -25.2710   22.3647 C   0  0  0  0  0  0  0  0  0  0  0  0
  -23.5230  -22.2285   22.7085 C   0  0  0  0  0  0  0  0  0  0  0  0
  -26.0409  -19.9730   22.2396 C   0  0  0  0  0  0  0  0  0  0  0  0
  -31.7902  -18.7130   22.1740 C   0  0  0  0  0  0  0  0  0  0  0  0
  -17.9564  -27.6867   22.4725 C   0  0  0  0  0  0  0  0  0  0  0  0
  -23.2245  -24.7419   20.0239 C   0  0  0  0  0  0  0  0  0  0  0  0
  -25.2350  -23.9595   22.0465 C   0  0  0  0  0  0  0  0  0  0  0  0
  -18.5202  -26.4020   23.0743 C   0  0  0  0  0  0  0  0  0  0  0  0
  -33.2059  -15.6916   20.9318 C   0  0  0  0  0  0  0  0  0  0  0  0
  -19.8621  -26.6720   23.7474 C   0  0  0  0  0  0  0  0  0  0  0  0
  -32.0055  -14.9306   20.3661 C   0  0  0  0  0  0  0  0  0  0  0  0
  -32.8379  -16.4684   22.1940 C   0  0  0  0  0  0  0  0  0  0  0  0
  -30.4825  -16.6132   21.4834 C   0  0  0  0  0  0  0  0  0  0  0  0
  -20.8960  -27.1772   22.7339 C   0  0  1  0  0  0  0  0  0  0  0  0
  -22.8195  -24.1904   21.3875 C   0  0  1  0  0  0  0  0  0  0  0  0
  -30.7908  -15.8593   20.1784 C   0  0  2  0  0  0  0  0  0  0  0  0
  -26.6382  -17.5720   22.6589 C   0  0  0  0  0  0  0  0  0  0  0  0
  -24.0162  -22.8676   25.6511 C   0  0  0  0  0  0  0  0  0  0  0  0
  -25.4552  -20.8230   25.7820 C   0  0  0  0  0  0  0  0  0  0  0  0
  -23.0332  -20.6078   25.2248 C   0  0  0  0  0  0  0  0  0  0  0  0
  -32.5056  -30.8743   19.4594 C   0  0  0  0  0  0  0  0  0  0  0  0
  -26.3371  -19.4207   19.3472 C   0  0  0  0  0  0  0  0  0  0  0  0
  -31.4749  -26.2318   18.7556 C   0  0  0  0  0  0  0  0  0  0  0  0
  -28.6847  -27.9636   18.8932 C   0  0  0  0  0  0  0  0  0  1  0  0
  -31.0154  -21.6475   20.8260 C   0  0  0  0  0  0  0  0  0  0  0  0
  -30.9466  -23.1688   21.0046 C   0  0  0  0  0  0  0  0  0  0  0  0
  -30.6076  -20.8932   22.0882 C   0  0  0  0  0  0  0  0  0  0  0  0
  -31.2808  -23.9420   19.7343 C   0  0  0  0  0  0  0  0  0  0  0  0
  -24.6203  -21.5650   23.5053 C   0  0  1  0  0  0  0  0  0  0  0  0
  -26.0388  -18.5641   21.6744 C   0  0  2  0  0  0  0  0  0  0  0  0
  -24.2869  -21.4863   25.0219 C   0  0  0  0  0  0  0  0  0  0  0  0
  -28.7010  -14.6002   20.5390 N   0  0  0  0  0  0  0  0  0  0  0  0
  -32.3456  -28.4834   19.1102 N   0  0  0  0  0  0  0  0  0  0  0  0
  -30.3953  -29.7132   19.2109 N   0  0  0  0  0  0  0  0  0  0  0  0
  -29.5827  -15.1026   19.6579 N   0  0  0  0  0  0  0  0  0  0  0  0
  -31.7365  -29.6711   19.2567 N   0  0  0  0  0  0  0  0  0  0  0  0
  -23.8769  -23.3923   22.0112 N   0  0  0  0  0  0  0  0  0  0  0  0
  -31.6797  -17.3311   21.9482 N   0  0  0  0  0  0  0  0  0  0  0  0
  -30.0400  -15.2902   17.3414 N   0  0  0  0  0  0  0  0  0  0  0  0
  -26.1829  -12.9437   17.4554 N   0  0  0  0  0  0  0  0  0  0  0  0
  -21.4109  -26.0776   21.9463 N   0  0  0  0  0  0  0  0  0  0  0  0
  -24.8546  -20.2693   22.8770 N   0  0  0  0  0  0  0  0  0  0  0  0
  -30.6479  -19.4589   21.9102 N   0  0  0  0  0  0  0  0  0  0  0  0
  -26.8305  -18.5109   20.4129 N   0  3  0  0  0  0  0  0  0  0  0  0
  -31.1492  -25.4015   19.9590 N   0  3  0  0  0  0  0  0  0  0  0  0
  -27.7764  -13.8407   16.0717 O   0  0  0  0  0  0  0  0  0  0  0  0
  -23.0664  -25.3651   23.4207 O   0  0  0  0  0  0  0  0  0  0  0  0
  -22.3954  -21.7286   22.6994 O   0  0  0  0  0  0  0  0  0  0  0  0
  -27.0004  -20.7332   22.1302 O   0  0  0  0  0  0  0  0  0  0  0  0
  -32.8314  -19.2437   22.5755 O   0  0  0  0  0  0  0  0  0  0  0  0
  -23.3869  -11.4234   22.0278 O   0  0  0  0  0  0  0  0  0  0  0  0
  -28.4109  -27.0187   19.9269 O   0  0  0  0  0  0  0  0  0  1  0  0
  -22.0226   -6.4657   20.0367 F   0  0  0  0  0  0  0  0  0  0  0  0
  -22.6997  -11.1027   19.3693 F   0  0  0  0  0  0  0  0  0  0  0  0
  1  2  1  0  0  0  0
  1  5  2  0  0  0  0
  2  6  2  0  0  0  0
  3  8  2  0  0  0  0
  3 15  1  0  0  0  0
  4  9  1  0  0  0  0
  4 15  2  0  0  0  0
  5 17  1  0  0  0  0
  6 19  1  0  0  0  0
  7 10  2  0  0  0  0
  7 18  1  0  0  0  0
  8 21  1  0  0  0  0
  9 21  2  0  0  0  0
 10 22  1  0  0  0  0
 11 12  2  0  0  0  0
 11 23  1  0  0  0  0
 12 24  1  0  0  0  0
 13 20  1  0  0  0  0
 13 22  2  0  0  0  0
 14 24  2  0  0  0  0
 14 25  1  0  0  0  0
 15 26  1  0  0  0  0
 16 26  1  0  0  0  0
 16 29  2  0  0  0  0
 16 30  1  0  0  0  0
 17 19  2  0  0  0  0
 17 35  1  0  0  0  0
 18 20  2  0  0  0  0
 18 36  1  0  0  0  0
 19 44  1  0  0  0  0
 20 37  1  0  0  0  0
 21 81  1  0  0  0  0
 22 82  1  0  0  0  0
 23 25  2  0  0  0  0
 23 81  1  0  0  0  0
 24 83  1  0  0  0  0
 25 84  1  0  0  0  0
 26 62  2  0  0  0  0
 27 28  1  0  0  0  0
 27 53  1  0  0  0  0
 27 63  2  0  0  0  0
 28 54  1  0  0  0  0
 28 64  2  0  0  0  0
 29 65  1  0  0  0  0
 29 69  1  0  0  0  0
 30 70  1  0  0  0  0
 30 76  2  0  0  0  0
 31 45  1  0  0  0  0
 31 71  1  0  0  0  0
 31 77  2  0  0  0  0
 32 59  1  0  0  0  0
 32 67  1  0  0  0  0
 32 78  2  0  0  0  0
 33 60  1  0  0  0  0
 33 72  1  0  0  0  0
 33 79  2  0  0  0  0
 34 68  1  0  0  0  0
 34 73  1  0  0  0  0
 34 80  2  0  0  0  0
 35 38  1  0  0  0  0
 36 45  1  0  0  0  0
 37 67  1  0  0  0  0
 38 40  1  0  0  0  0
 39 41  1  0  0  0  0
 39 42  1  0  0  0  0
 40 44  1  0  0  0  0
 41 46  1  0  0  0  0
 42 68  1  0  0  0  0
 43 46  1  0  0  0  0
 43 68  1  0  0  0  0
 44 71  1  0  0  0  0
 45 67  1  0  0  0  0
 46 65  1  0  0  0  0
 47 60  1  0  0  0  0
 48 61  1  0  0  0  0
 49 61  1  0  0  0  0
 50 61  1  0  0  0  0
 51 66  1  0  0  0  0
 52 74  1  0  0  0  0
 53 75  1  0  0  0  0
 54 82  1  0  0  0  0
 55 56  1  0  0  0  0
 55 57  1  0  0  0  0
 56 58  1  0  0  0  0
 57 73  1  0  0  0  0
 58 75  1  0  0  0  0
 59 61  1  0  0  0  0
 59 72  1  0  0  0  0
 60 74  1  0  0  0  0
 62 65  1  0  0  0  0
 63 66  1  0  0  0  0
 64 66  1  0  0  0  0
M  CHG  2  74   1  75   1
M  ISO  4  34 100  54 101  73 100  82 101
M  END
> <Batch ID>
0046

> <Smiles>
CNC(C)C(=O)NC(C(=O)N1Cc2cc([101O:1][101CH2:1]c3nn(C)nc3CNCCCC[100NH:0][100C:0](=O)N3CCCC(n4nc(-c5ccc(Oc6ccc(F)cc6F)cc5)c(C(N)=O)c4N)C3)ccc2CC1C(=O)NC1CCCc2ccccc21)C(C)(C)C

> <Shape>
0.217

> <Color>
0.064

> <Negative vol penalty>
0.000

$$$$

  -OEChem-04052317212D

  0  0  0     0  0  0  0  0  0999 V2000
M  END
$$$$

  -OEChem-04052317213D

 86 93  0     1  0  0  0  0  0999 V2000
  -26.0234  -38.1648   21.9491 C   0  0  0  0  0  0  0  0  0  0  0  0
  -26.6175  -36.9078   21.8993 C   0  0  0  0  0  0  0  0  0  0  0  0
  -23.4253  -12.3509   23.0195 C   0  0  0  0  0  0  0  0  0  0  0  0
  -22.5770  -13.4431   21.0384 C   0  0  0  0  0  0  0  0  0  0  0  0
  -24.7874  -38.3261   22.5739 C   0  0  0  0  0  0  0  0  0  0  0  0
  -25.9764  -35.8116   22.4753 C   0  0  0  0  0  0  0  0  0  0  0  0
  -26.0776  -31.7166   19.4977 C   0  0  0  0  0  0  0  0  0  0  0  0
  -22.4305  -12.9622   23.7825 C   0  0  0  0  0  0  0  0  0  0  0  0
  -21.5822  -14.0544   21.8015 C   0  0  0  0  0  0  0  0  0  0  0  0
  -27.2666  -30.9897   19.4549 C   0  0  0  0  0  0  0  0  0  0  0  0
  -18.6033  -13.2020   23.1507 C   0  0  0  0  0  0  0  0  0  0  0  0
  -17.3050  -13.2007   22.6410 C   0  0  0  0  0  0  0  0  0  0  0  0
  -26.3357  -29.3878   20.9997 C   0  0  0  0  0  0  0  0  0  0  0  0
  -17.2972  -15.6167   22.6544 C   0  0  0  0  0  0  0  0  0  0  0  0
  -23.4986  -12.5914   21.6474 C   0  0  0  0  0  0  0  0  0  0  0  0
  -24.4525  -10.7166   20.2043 C   0  0  0  0  0  0  0  0  0  0  0  0
  -24.1264  -37.2295   23.1494 C   0  0  0  0  0  0  0  0  0  0  0  0
  -25.0109  -31.2897   20.3016 C   0  0  0  0  0  0  0  0  0  0  0  0
  -24.7311  -35.9586   23.1096 C   0  0  0  0  0  0  0  0  0  0  0  0
  -25.1334  -30.1096   21.0490 C   0  0  0  0  0  0  0  0  0  0  0  0
  -21.5089  -13.8139   23.1735 C   0  0  0  0  0  0  0  0  0  0  0  0
  -27.3968  -29.8267   20.2082 C   0  0  0  0  0  0  0  0  0  0  0  0
  -19.2486  -14.4107   23.4124 C   0  0  0  0  0  0  0  0  0  0  0  0
  -16.6519  -14.4080   22.3927 C   0  0  0  0  0  0  0  0  0  0  0  0
  -18.5955  -15.6180   23.1642 C   0  0  0  0  0  0  0  0  0  0  0  0
  -24.5264  -11.9607   20.8588 C   0  0  0  0  0  0  0  0  0  0  0  0
  -25.6774  -10.5733   19.5997 C   0  0  0  0  0  0  0  0  0  0  0  0
  -23.3730   -9.7746   20.1478 C   0  0  0  0  0  0  0  0  0  0  0  0
  -23.4430  -32.5109   22.7824 C   0  0  0  0  0  0  0  0  0  0  0  0
  -21.5488  -29.9105   22.3678 C   0  0  0  0  0  0  0  0  0  0  0  0
  -21.2158  -26.7285   21.1801 C   0  0  0  0  0  0  0  0  0  0  0  0
  -29.7848  -14.3349   17.6876 C   0  0  0  0  0  0  0  0  0  0  0  0
  -22.8140  -37.4618   23.8553 C   0  0  0  0  0  0  0  0  0  0  0  0
  -23.7255  -32.0706   20.3161 C   0  0  0  0  0  0  0  0  0  0  0  0
  -24.0105  -29.5976   21.9124 C   0  0  0  0  0  0  0  0  0  0  0  0
  -22.0257  -36.1801   24.1127 C   0  0  0  0  0  0  0  0  0  0  0  0
  -30.2589  -11.8432   20.0525 C   0  0  0  0  0  0  0  0  0  0  0  0
  -22.9365  -35.0993   24.6865 C   0  0  0  0  0  0  0  0  0  0  0  0
  -28.8405  -11.4629   20.4750 C   0  0  0  0  0  0  0  0  0  0  0  0
  -30.3887  -13.3516   19.8773 C   0  0  0  0  0  0  0  0  0  0  0  0
  -27.9902  -13.5577   19.3065 C   0  0  0  0  0  0  0  0  0  0  0  0
  -24.0554  -34.7406   23.7012 C   0  0  1  0  0  0  0  0  0  0  0  0
  -22.8892  -31.8216   21.5676 C   0  0  1  0  0  0  0  0  0  0  0  0
  -27.8011  -12.0387   19.4974 C   0  0  2  0  0  0  0  0  0  0  0  0
  -27.4032  -15.3908   13.6377 C   0  0  0  0  0  0  0  0  0  0  0  0
  -19.5618  -24.8478   21.0222 C   0  0  0  0  0  0  0  0  0  0  0  0
  -30.6155  -17.4530   18.8495 C   0  0  0  0  0  0  0  0  0  0  0  0
  -22.0119  -29.2592   25.3126 C   0  0  0  0  0  0  0  0  0  0  0  0
  -21.1626  -26.9473   24.8629 C   0  0  0  0  0  0  0  0  0  0  0  0
  -19.6640  -28.9125   24.5242 C   0  0  0  0  0  0  0  0  0  0  0  0
  -21.2698  -26.7751   18.2214 C   0  0  0  0  0  0  0  0  0  0  0  0
  -27.5003  -15.3241   15.1555 C   0  0  0  0  0  0  0  0  0  0  0  0
  -28.9597  -24.1082   18.4158 C   0  0  0  0  0  0  0  0  0  0  0  0
  -29.7501  -22.8193   18.1781 C   0  0  0  0  0  0  0  0  0  0  0  0
  -29.8841  -25.3274   18.4423 C   0  0  0  0  0  0  0  0  0  0  0  0
  -28.8324  -21.5945   18.1840 C   0  0  0  0  0  0  0  0  0  0  0  0
  -29.1439  -26.6497   18.6660 C   0  0  0  0  0  0  0  0  0  0  0  0
  -29.6298  -20.3043   17.9837 C   0  0  0  0  0  0  0  0  0  0  0  0
  -30.0774  -27.8610   18.7626 C   0  0  0  0  0  0  0  0  0  0  0  0
  -28.7737  -19.0353   18.0772 C   0  0  0  0  0  0  0  0  0  0  0  0
  -28.9329  -15.4492   15.6601 C   0  0  0  0  0  0  0  0  0  0  0  0
  -28.5226  -16.5229   17.8431 C   0  0  0  0  0  0  0  0  0  0  0  0
  -29.3093  -29.1634   18.9598 C   0  0  0  0  0  0  0  0  0  1  0  0
  -21.5478  -28.4943   22.8907 C   0  0  1  0  0  0  0  0  0  0  0  0
  -20.1364  -26.0766   20.3348 C   0  0  2  0  0  0  0  0  0  0  0  0
  -29.5098  -17.7022   17.8202 C   0  0  2  0  0  0  0  0  0  0  0  0
  -21.1186  -28.4138   24.3829 C   0  0  0  0  0  0  0  0  0  0  0  0
  -25.7052  -12.5648   20.6864 N   0  0  0  0  0  0  0  0  0  0  0  0
  -26.3832  -11.6964   19.9168 N   0  0  0  0  0  0  0  0  0  0  0  0
  -22.7760  -30.3996   21.8980 N   0  0  0  0  0  0  0  0  0  0  0  0
  -29.3830  -13.8651   18.9468 N   0  0  0  0  0  0  0  0  0  0  0  0
  -26.2088   -9.5973   18.8332 N   0  0  0  0  0  0  0  0  0  0  0  0
  -22.1845  -10.0790   20.8254 N   0  0  0  0  0  0  0  0  0  0  0  0
  -23.5489  -33.8825   22.6517 N   0  0  0  0  0  0  0  0  0  0  0  0
  -20.7031  -27.7249   21.9836 N   0  0  0  0  0  0  0  0  0  0  0  0
  -29.0191  -15.3594   17.1108 N   0  0  0  0  0  0  0  0  0  0  0  0
  -20.6919  -25.6607   19.0160 N   0  3  0  0  0  0  0  0  0  0  0  0
  -23.4656   -8.6876   19.5287 O   0  0  0  0  0  0  0  0  0  0  0  0
  -23.7502  -31.8477   23.7660 O   0  0  0  0  0  0  0  0  0  0  0  0
  -20.4979  -30.5564   22.3694 O   0  0  0  0  0  0  0  0  0  0  0  0
  -22.3951  -26.3853   21.1351 O   0  0  0  0  0  0  0  0  0  0  0  0
  -30.7776  -13.8706   17.1123 O   0  0  0  0  0  0  0  0  0  0  0  0
  -20.5379  -14.4104   23.9178 O   0  0  0  0  0  0  0  0  0  0  0  0
  -28.5652  -29.1103   20.1684 O   0  0  0  0  0  0  0  0  0  1  0  0
  -15.4057  -14.4065   21.9017 F   0  0  0  0  0  0  0  0  0  0  0  0
  -19.2108  -16.7823   23.4125 F   0  0  0  0  0  0  0  0  0  0  0  0
  1  2  1  0  0  0  0
  1  5  2  0  0  0  0
  2  6  2  0  0  0  0
  3  8  2  0  0  0  0
  3 15  1  0  0  0  0
  4  9  1  0  0  0  0
  4 15  2  0  0  0  0
  5 17  1  0  0  0  0
  6 19  1  0  0  0  0
  7 10  2  0  0  0  0
  7 18  1  0  0  0  0
  8 21  1  0  0  0  0
  9 21  2  0  0  0  0
 10 22  1  0  0  0  0
 11 12  2  0  0  0  0
 11 23  1  0  0  0  0
 12 24  1  0  0  0  0
 13 20  1  0  0  0  0
 13 22  2  0  0  0  0
 14 24  2  0  0  0  0
 14 25  1  0  0  0  0
 15 26  1  0  0  0  0
 16 26  1  0  0  0  0
 16 27  2  0  0  0  0
 16 28  1  0  0  0  0
 17 19  2  0  0  0  0
 17 33  1  0  0  0  0
 18 20  2  0  0  0  0
 18 34  1  0  0  0  0
 19 42  1  0  0  0  0
 20 35  1  0  0  0  0
 21 83  1  0  0  0  0
 22 84  1  0  0  0  0
 23 25  2  0  0  0  0
 23 83  1  0  0  0  0
 24 85  1  0  0  0  0
 25 86  1  0  0  0  0
 26 68  2  0  0  0  0
 27 69  1  0  0  0  0
 27 72  1  0  0  0  0
 28 73  1  0  0  0  0
 28 78  2  0  0  0  0
 29 43  1  0  0  0  0
 29 74  1  0  0  0  0
 29 79  2  0  0  0  0
 30 64  1  0  0  0  0
 30 70  1  0  0  0  0
 30 80  2  0  0  0  0
 31 65  1  0  0  0  0
 31 75  1  0  0  0  0
 31 81  2  0  0  0  0
 32 71  1  0  0  0  0
 32 76  1  0  0  0  0
 32 82  2  0  0  0  0
 33 36  1  0  0  0  0
 34 43  1  0  0  0  0
 35 70  1  0  0  0  0
 36 38  1  0  0  0  0
 37 39  1  0  0  0  0
 37 40  1  0  0  0  0
 38 42  1  0  0  0  0
 39 44  1  0  0  0  0
 40 71  1  0  0  0  0
 41 44  1  0  0  0  0
 41 71  1  0  0  0  0
 42 74  1  0  0  0  0
 43 70  1  0  0  0  0
 44 69  1  0  0  0  0
 45 52  1  0  0  0  0
 46 65  1  0  0  0  0
 47 66  1  0  0  0  0
 48 67  1  0  0  0  0
 49 67  1  0  0  0  0
 50 67  1  0  0  0  0
 51 77  1  0  0  0  0
 52 61  1  0  0  0  0
 53 54  1  0  0  0  0
 53 55  1  0  0  0  0
 54 56  1  0  0  0  0
 55 57  1  0  0  0  0
 56 58  1  0  0  0  0
 57 59  1  0  0  0  0
 58 60  1  0  0  0  0
 59 63  1  0  0  0  0
 60 66  1  0  0  0  0
 61 76  1  0  0  0  0
 62 66  1  0  0  0  0
 62 76  1  0  0  0  0
 63 84  1  0  0  0  0
 64 67  1  0  0  0  0
 64 75  1  0  0  0  0
 65 77  1  0  0  0  0
 68 69  1  0  0  0  0
M  CHG  1  77   1
M  ISO  4  32 100  63 101  76 100  84 101
M  END
> <Batch ID>
0046

> <Smiles>
CCC[100N:0](CC(C)CCCCCCCC[101CH2:1][101O:1]c1ccc2c(c1)CN(C(=O)C(NC(=O)C(C)NC)C(C)(C)C)C(C(=O)NC1CCCc3ccccc31)C2)[100C:0](=O)N1CCCC(n2nc(-c3ccc(Oc4ccc(F)cc4F)cc3)c(C(N)=O)c2N)C1

> <Shape>
0.277

> <Color>
0.057

> <Negative vol penalty>
0.000

$$$$

  -OEChem-04052317213D

 83 91  0     1  0  0  0  0  0999 V2000
  -20.8793  -22.2116   17.2879 C   0  0  0  0  0  0  0  0  0  0  0  0
  -22.0136  -21.6150   16.7468 C   0  0  0  0  0  0  0  0  0  0  0  0
  -27.5430  -23.4553   20.1880 C   0  0  0  0  0  0  0  0  0  0  0  0
  -29.5961  -23.7131   18.9407 C   0  0  0  0  0  0  0  0  0  0  0  0
  -20.5085  -21.9362   18.6034 C   0  0  0  0  0  0  0  0  0  0  0  0
  -22.7785  -20.7435   17.5212 C   0  0  0  0  0  0  0  0  0  0  0  0
  -25.7786  -15.7672   15.5869 C   0  0  0  0  0  0  0  0  0  0  0  0
  -27.5264  -24.8264   20.4439 C   0  0  0  0  0  0  0  0  0  0  0  0
  -29.5794  -25.0842   19.1966 C   0  0  0  0  0  0  0  0  0  0  0  0
  -27.1150  -15.5471   15.2563 C   0  0  0  0  0  0  0  0  0  0  0  0
  -26.6957  -27.6585   18.7940 C   0  0  0  0  0  0  0  0  0  0  0  0
  -25.4861  -28.3336   18.6312 C   0  0  0  0  0  0  0  0  0  0  0  0
  -27.5200  -14.7039   17.4799 C   0  0  0  0  0  0  0  0  0  0  0  0
  -25.5394  -28.9898   20.9558 C   0  0  0  0  0  0  0  0  0  0  0  0
  -34.7199  -16.9313   16.7069 C   0  0  0  0  0  0  0  0  0  0  0  0
  -28.5779  -22.8987   19.4364 C   0  0  0  0  0  0  0  0  0  0  0  0
  -28.0151  -20.8143   18.0776 C   0  0  0  0  0  0  0  0  0  0  0  0
  -21.2638  -21.0533   19.3913 C   0  0  0  0  0  0  0  0  0  0  0  0
  -25.3046  -15.4670   16.8721 C   0  0  0  0  0  0  0  0  0  0  0  0
  -22.4182  -20.4571   18.8490 C   0  0  0  0  0  0  0  0  0  0  0  0
  -26.1765  -14.9188   17.8235 C   0  0  0  0  0  0  0  0  0  0  0  0
  -34.7693  -17.8553   17.7220 C   0  0  0  0  0  0  0  0  0  0  0  0
  -28.5445  -25.6408   19.9483 C   0  0  0  0  0  0  0  0  0  0  0  0
  -27.9866  -15.0181   16.2037 C   0  0  0  0  0  0  0  0  0  0  0  0
  -27.3272  -27.6489   20.0378 C   0  0  0  0  0  0  0  0  0  0  0  0
  -24.9079  -28.9993   19.7120 C   0  0  0  0  0  0  0  0  0  0  0  0
  -26.7491  -28.3146   21.1186 C   0  0  0  0  0  0  0  0  0  0  0  0
  -28.5960  -21.4823   19.1722 C   0  0  0  0  0  0  0  0  0  0  0  0
  -33.9698  -18.9209   17.2671 C   0  0  0  0  0  0  0  0  0  0  0  0
  -28.3102  -19.4895   18.2879 C   0  0  0  0  0  0  0  0  0  0  0  0
  -27.2750  -21.3440   16.9697 C   0  0  0  0  0  0  0  0  0  0  0  0
  -24.0312  -17.1563   19.2445 C   0  0  0  0  0  0  0  0  0  0  0  0
  -23.6244  -14.2321   20.5882 C   0  0  0  0  0  0  0  0  0  0  0  0
  -24.6066  -10.9693   20.7789 C   0  0  0  0  0  0  0  0  0  0  0  0
  -32.6712  -16.7133   21.3088 C   0  0  0  0  0  0  0  0  0  0  0  0
  -20.8502  -20.8232   20.8233 C   0  0  0  0  0  0  0  0  0  0  0  0
  -23.8540  -15.6854   17.2047 C   0  0  0  0  0  0  0  0  0  0  0  0
  -25.7126  -14.5606   19.2109 C   0  0  0  0  0  0  0  0  0  0  0  0
  -21.5039  -19.5978   21.4567 C   0  0  0  0  0  0  0  0  0  0  0  0
  -29.1632  -16.3552   21.8007 C   0  0  0  0  0  0  0  0  0  0  0  0
  -22.9996  -19.5763   21.1581 C   0  0  0  0  0  0  0  0  0  0  0  0
  -28.5676  -17.5683   21.0840 C   0  0  0  0  0  0  0  0  0  0  0  0
  -30.4882  -16.6951   22.4795 C   0  0  0  0  0  0  0  0  0  0  0  0
  -30.9008  -18.5239   20.8798 C   0  0  0  0  0  0  0  0  0  0  0  0
  -23.2597  -19.4869   19.6495 C   0  0  1  0  0  0  0  0  0  0  0  0
  -23.5986  -15.8234   18.7024 C   0  0  1  0  0  0  0  0  0  0  0  0
  -29.5917  -18.2163   20.1329 C   0  0  2  0  0  0  0  0  0  0  0  0
  -33.6708  -20.1859   17.9610 C   0  0  0  0  0  0  0  0  0  0  0  0
  -24.1121   -8.8311   21.9958 C   0  0  0  0  0  0  0  0  0  0  0  0
  -25.0805  -15.2983   23.0485 C   0  0  0  0  0  0  0  0  0  0  0  0
  -25.3937  -12.9316   23.8027 C   0  0  0  0  0  0  0  0  0  0  0  0
  -23.0940  -13.8649   23.5517 C   0  0  0  0  0  0  0  0  0  0  0  0
  -23.8746   -9.5764   18.2724 C   0  0  0  0  0  0  0  0  0  0  0  0
  -35.4994  -17.7440   18.9960 C   0  0  0  0  0  0  0  0  0  0  0  0
  -32.0490  -16.7269   14.1912 C   0  0  0  0  0  0  0  0  0  0  0  0
  -31.3647  -15.7950   15.1926 C   0  0  0  0  0  0  0  0  0  0  0  0
  -33.5595  -16.8504   14.4218 C   0  0  0  0  0  0  0  0  0  0  0  0
  -34.8044  -16.8589   20.0487 C   0  0  0  0  0  0  0  0  0  0  0  0
  -29.8735  -15.6697   14.9110 C   0  0  0  0  0  0  0  0  0  1  0  0
  -24.4523  -13.3427   21.4842 C   0  0  1  0  0  0  0  0  0  0  0  0
  -23.8121   -9.6758   20.7674 C   0  0  2  0  0  0  0  0  0  0  0  0
  -24.5146  -13.8678   22.9463 C   0  0  0  0  0  0  0  0  0  0  0  0
  -29.2133  -20.6505   20.0154 N   0  0  0  0  0  0  0  0  0  0  0  0
  -33.4506  -18.6961   16.0572 N   0  0  0  0  0  0  0  0  0  0  0  0
  -33.9251  -17.4786   15.7431 N   0  0  0  0  0  0  0  0  0  0  0  0
  -29.0219  -19.4462   19.4506 N   0  0  0  0  0  0  0  0  0  0  0  0
  -24.2868  -14.7985   19.4899 N   0  0  0  0  0  0  0  0  0  0  0  0
  -31.4152  -17.3046   21.5229 N   0  0  0  0  0  0  0  0  0  0  0  0
  -28.0277  -18.3690   17.5899 N   0  0  0  0  0  0  0  0  0  0  0  0
  -27.0631  -22.7281   16.9083 N   0  0  0  0  0  0  0  0  0  0  0  0
  -23.0557  -18.1330   19.1808 N   0  0  0  0  0  0  0  0  0  0  0  0
  -23.8951  -12.0006   21.3545 N   0  0  0  0  0  0  0  0  0  0  0  0
  -33.4860  -17.3510   20.3813 N   0  0  0  0  0  0  0  0  0  0  0  0
  -24.1429   -8.8755   19.5545 N   0  3  0  0  0  0  0  0  0  0  0  0
  -26.8012  -20.6099   16.0697 O   0  0  0  0  0  0  0  0  0  0  0  0
  -25.1654  -17.2885   19.6891 O   0  0  0  0  0  0  0  0  0  0  0  0
  -22.4322  -14.4117   20.8491 O   0  0  0  0  0  0  0  0  0  0  0  0
  -25.7460  -11.0552   20.3262 O   0  0  0  0  0  0  0  0  0  0  0  0
  -33.0371  -15.6897   21.8964 O   0  0  0  0  0  0  0  0  0  0  0  0
  -28.5285  -26.9788   20.1976 O   0  0  0  0  0  0  0  0  0  0  0  0
  -29.2917  -14.8028   15.8838 O   0  0  0  0  0  0  0  0  0  1  0  0
  -23.7471  -29.6490   19.5551 F   0  0  0  0  0  0  0  0  0  0  0  0
  -27.3516  -28.3099   22.3156 F   0  0  0  0  0  0  0  0  0  0  0  0
  1  2  1  0  0  0  0
  1  5  2  0  0  0  0
  2  6  2  0  0  0  0
  3  8  2  0  0  0  0
  3 16  1  0  0  0  0
  4  9  1  0  0  0  0
  4 16  2  0  0  0  0
  5 18  1  0  0  0  0
  6 20  1  0  0  0  0
  7 10  2  0  0  0  0
  7 19  1  0  0  0  0
  8 23  1  0  0  0  0
  9 23  2  0  0  0  0
 10 24  1  0  0  0  0
 11 12  2  0  0  0  0
 11 25  1  0  0  0  0
 12 26  1  0  0  0  0
 13 21  1  0  0  0  0
 13 24  2  0  0  0  0
 14 26  2  0  0  0  0
 14 27  1  0  0  0  0
 15 22  2  0  0  0  0
 15 65  1  0  0  0  0
 16 28  1  0  0  0  0
 17 28  1  0  0  0  0
 17 30  2  0  0  0  0
 17 31  1  0  0  0  0
 18 20  2  0  0  0  0
 18 36  1  0  0  0  0
 19 21  2  0  0  0  0
 19 37  1  0  0  0  0
 20 45  1  0  0  0  0
 21 38  1  0  0  0  0
 22 29  1  0  0  0  0
 22 54  1  0  0  0  0
 23 80  1  0  0  0  0
 24 81  1  0  0  0  0
 25 27  2  0  0  0  0
 25 80  1  0  0  0  0
 26 82  1  0  0  0  0
 27 83  1  0  0  0  0
 28 63  2  0  0  0  0
 29 48  1  0  0  0  0
 29 64  2  0  0  0  0
 30 66  1  0  0  0  0
 30 69  1  0  0  0  0
 31 70  1  0  0  0  0
 31 75  2  0  0  0  0
 32 46  1  0  0  0  0
 32 71  1  0  0  0  0
 32 76  2  0  0  0  0
 33 60  1  0  0  0  0
 33 67  1  0  0  0  0
 33 77  2  0  0  0  0
 34 61  1  0  0  0  0
 34 72  1  0  0  0  0
 34 78  2  0  0  0  0
 35 68  1  0  0  0  0
 35 73  1  0  0  0  0
 35 79  2  0  0  0  0
 36 39  1  0  0  0  0
 37 46  1  0  0  0  0
 38 67  1  0  0  0  0
 39 41  1  0  0  0  0
 40 42  1  0  0  0  0
 40 43  1  0  0  0  0
 41 45  1  0  0  0  0
 42 47  1  0  0  0  0
 43 68  1  0  0  0  0
 44 47  1  0  0  0  0
 44 68  1  0  0  0  0
 45 71  1  0  0  0  0
 46 67  1  0  0  0  0
 47 66  1  0  0  0  0
 49 61  1  0  0  0  0
 50 62  1  0  0  0  0
 51 62  1  0  0  0  0
 52 62  1  0  0  0  0
 53 74  1  0  0  0  0
 54 58  1  0  0  0  0
 55 56  1  0  0  0  0
 55 57  1  0  0  0  0
 56 59  1  0  0  0  0
 57 65  1  0  0  0  0
 58 73  1  0  0  0  0
 59 81  1  0  0  0  0
 60 62  1  0  0  0  0
 60 72  1  0  0  0  0
 61 74  1  0  0  0  0
 63 66  1  0  0  0  0
 64 65  1  0  0  0  0
M  CHG  1  74   1
M  ISO  4  35 100  59 101  73 100  81 101
M  END
> <Batch ID>
0046

> <Smiles>
CNC(C)C(=O)NC(C(=O)N1Cc2cc([101O:1][101CH2:1]CCCn3cc(CC[100NH:0][100C:0](=O)N4CCCC(n5nc(-c6ccc(Oc7ccc(F)cc7F)cc6)c(C(N)=O)c5N)C4)c(C)n3)ccc2CC1C(=O)NC1CCCc2ccccc21)C(C)(C)C

> <Shape>
0.173

> <Color>
0.086

> <Negative vol penalty>
0.000

$$$$

  -OEChem-04052317213D

 86 94  0     1  0  0  0  0  0999 V2000
  -18.8306  -31.2660   11.6914 C   0  0  0  0  0  0  0  0  0  0  0  0
  -19.2347  -30.0703   12.2766 C   0  0  0  0  0  0  0  0  0  0  0  0
  -23.0813   -9.8773   19.9183 C   0  0  0  0  0  0  0  0  0  0  0  0
  -23.9472   -9.8040   22.1726 C   0  0  0  0  0  0  0  0  0  0  0  0
  -19.4241  -32.4664   12.0796 C   0  0  0  0  0  0  0  0  0  0  0  0
  -20.2333  -30.0743   13.2498 C   0  0  0  0  0  0  0  0  0  0  0  0
  -20.6348  -26.3931   18.1277 C   0  0  0  0  0  0  0  0  0  0  0  0
  -22.3646   -8.7044   20.1555 C   0  0  0  0  0  0  0  0  0  0  0  0
  -23.2305   -8.6311   22.4098 C   0  0  0  0  0  0  0  0  0  0  0  0
  -21.3651  -25.2299   18.3674 C   0  0  0  0  0  0  0  0  0  0  0  0
  -19.4976   -7.8078   21.7077 C   0  0  0  0  0  0  0  0  0  0  0  0
  -18.1702   -7.7620   21.2817 C   0  0  0  0  0  0  0  0  0  0  0  0
  -23.0847  -26.5379   19.4404 C   0  0  0  0  0  0  0  0  0  0  0  0
  -18.6922   -5.8814   19.8576 C   0  0  0  0  0  0  0  0  0  0  0  0
  -27.5870  -20.0554   20.0543 C   0  0  0  0  0  0  0  0  0  0  0  0
  -23.8727  -10.4271   20.9269 C   0  0  0  0  0  0  0  0  0  0  0  0
  -24.1765  -12.9597   20.8935 C   0  0  0  0  0  0  0  0  0  0  0  0
  -20.4237  -32.4861   13.0650 C   0  0  0  0  0  0  0  0  0  0  0  0
  -21.1300  -27.6407   18.5335 C   0  0  0  0  0  0  0  0  0  0  0  0
  -20.8417  -31.2759   13.6507 C   0  0  0  0  0  0  0  0  0  0  0  0
  -22.3576  -27.7151   19.2069 C   0  0  0  0  0  0  0  0  0  0  0  0
  -22.4392   -8.0813   21.4012 C   0  0  0  0  0  0  0  0  0  0  0  0
  -22.5916  -25.3025   19.0213 C   0  0  0  0  0  0  0  0  0  0  0  0
  -20.4224   -6.8906   21.2085 C   0  0  0  0  0  0  0  0  0  0  0  0
  -17.7675   -6.7988   20.3567 C   0  0  0  0  0  0  0  0  0  0  0  0
  -20.0197   -5.9274   20.2835 C   0  0  0  0  0  0  0  0  0  0  0  0
  -24.6137  -11.6383   20.6824 C   0  0  0  0  0  0  0  0  0  0  0  0
  -27.3126  -18.7069   19.9937 C   0  0  0  0  0  0  0  0  0  0  0  0
  -25.7562  -18.9491   21.6516 C   0  0  0  0  0  0  0  0  0  0  0  0
  -26.0312  -20.2975   21.7127 C   0  0  0  0  0  0  0  0  0  0  0  0
  -25.2409  -13.7389   20.5109 C   0  0  0  0  0  0  0  0  0  0  0  0
  -22.9205  -13.4399   21.3911 C   0  0  0  0  0  0  0  0  0  0  0  0
  -21.9691  -30.3160   17.0360 C   0  0  0  0  0  0  0  0  0  0  0  0
  -22.3007  -31.4431   20.0596 C   0  0  0  0  0  0  0  0  0  0  0  0
  -22.8329  -30.7660   23.3619 C   0  0  0  0  0  0  0  0  0  0  0  0
  -30.8601  -14.5080   20.8982 C   0  0  0  0  0  0  0  0  0  0  0  0
  -21.0691  -33.8028   13.4180 C   0  0  0  0  0  0  0  0  0  0  0  0
  -20.3176  -28.8832   18.2912 C   0  0  0  0  0  0  0  0  0  0  0  0
  -22.9238  -29.0278   19.6809 C   0  0  0  0  0  0  0  0  0  0  0  0
  -21.8571  -33.7639   14.7249 C   0  0  0  0  0  0  0  0  0  0  0  0
  -29.4962  -12.5584   18.0626 C   0  0  0  0  0  0  0  0  0  0  0  0
  -22.7443  -32.5241   14.7766 C   0  0  0  0  0  0  0  0  0  0  0  0
  -28.0936  -12.1987   18.5498 C   0  0  0  0  0  0  0  0  0  0  0  0
  -30.4708  -12.7381   19.2226 C   0  0  0  0  0  0  0  0  0  0  0  0
  -28.6135  -13.3599   20.7320 C   0  0  0  0  0  0  0  0  0  0  0  0
  -21.9044  -31.2421   14.7276 C   0  0  1  0  0  0  0  0  0  0  0  0
  -21.1583  -30.1562   18.2909 C   0  0  1  0  0  0  0  0  0  0  0  0
  -27.5961  -13.2174   19.5900 C   0  0  2  0  0  0  0  0  0  0  0  0
  -24.7352  -18.3233   22.5392 C   0  0  0  0  0  0  0  0  0  0  0  0
  -23.0901  -31.8958   25.5878 C   0  0  0  0  0  0  0  0  0  0  0  0
  -25.1312  -32.2916   19.2991 C   0  0  0  0  0  0  0  0  0  0  0  0
  -25.6428  -32.5223   21.7391 C   0  0  0  0  0  0  0  0  0  0  0  0
  -23.8843  -33.9505   20.6947 C   0  0  0  0  0  0  0  0  0  0  0  0
  -31.2988  -16.6674   22.0045 C   0  0  0  0  0  0  0  0  0  0  0  0
  -20.4680  -29.3750   24.4715 C   0  0  0  0  0  0  0  0  0  0  0  0
  -28.0355  -17.8315   19.0309 C   0  0  0  0  0  0  0  0  0  0  0  0
  -25.3124  -21.2037   22.6802 C   0  0  0  0  0  0  0  0  0  0  0  0
  -29.3359  -17.2103   19.5811 C   0  0  0  0  0  0  0  0  0  0  0  0
  -25.1332  -22.6375   22.1692 C   0  0  0  0  0  0  0  0  0  0  0  0
  -24.2624  -22.7216   20.9148 C   0  0  0  0  0  0  0  0  0  0  0  0
  -29.1448  -16.3673   20.8401 C   0  0  0  0  0  0  0  0  0  0  0  0
  -24.1399  -24.1545   20.4143 C   0  0  0  0  0  0  0  0  0  1  0  0
  -23.4258  -31.4919   21.0650 C   0  0  1  0  0  0  0  0  0  0  0  0
  -22.1209  -31.2421   24.6152 C   0  0  2  0  0  0  0  0  0  0  0  0
  -24.5116  -32.5394   20.6889 C   0  0  0  0  0  0  0  0  0  0  0  0
  -26.9513  -20.8749   20.9149 N   0  0  0  0  0  0  0  0  0  0  0  0
  -25.8588  -11.5776   20.2027 N   0  0  0  0  0  0  0  0  0  0  0  0
  -26.3922  -18.1295   20.7913 N   0  0  0  0  0  0  0  0  0  0  0  0
  -26.2130  -12.8707   20.1092 N   0  0  0  0  0  0  0  0  0  0  0  0
  -22.0950  -30.2152   19.4149 N   0  0  0  0  0  0  0  0  0  0  0  0
  -29.9539  -13.6784   20.2175 N   0  0  0  0  0  0  0  0  0  0  0  0
  -25.4308  -15.0751   20.4822 N   0  0  0  0  0  0  0  0  0  0  0  0
  -21.9370  -12.5034   21.7376 N   0  0  0  0  0  0  0  0  0  0  0  0
  -21.3080  -30.9790   16.0197 N   0  0  0  0  0  0  0  0  0  0  0  0
  -22.8025  -31.7177   22.3645 N   0  0  0  0  0  0  0  0  0  0  0  0
  -30.3932  -15.7668   21.3054 N   0  0  0  0  0  0  0  0  0  0  0  0
  -21.4643  -30.0958   25.3050 N   0  3  0  0  0  0  0  0  0  0  0  0
  -22.6716  -14.6637   21.5090 O   0  0  0  0  0  0  0  0  0  0  0  0
  -23.1105  -29.8721   16.9935 O   0  0  0  0  0  0  0  0  0  0  0  0
  -21.6246  -32.4552   19.8591 O   0  0  0  0  0  0  0  0  0  0  0  0
  -23.3662  -29.6619   23.2774 O   0  0  0  0  0  0  0  0  0  0  0  0
  -32.0233  -14.1479   21.1203 O   0  0  0  0  0  0  0  0  0  0  0  0
  -21.7397   -6.9369   21.6330 O   0  0  0  0  0  0  0  0  0  0  0  0
  -23.3067  -24.1687   19.2559 O   0  0  0  0  0  0  0  0  0  1  0  0
  -16.4924   -6.7538   19.9489 F   0  0  0  0  0  0  0  0  0  0  0  0
  -20.9033   -5.0427   19.8013 F   0  0  0  0  0  0  0  0  0  0  0  0
  1  2  1  0  0  0  0
  1  5  2  0  0  0  0
  2  6  2  0  0  0  0
  3  8  2  0  0  0  0
  3 16  1  0  0  0  0
  4  9  1  0  0  0  0
  4 16  2  0  0  0  0
  5 18  1  0  0  0  0
  6 20  1  0  0  0  0
  7 10  2  0  0  0  0
  7 19  1  0  0  0  0
  8 22  1  0  0  0  0
  9 22  2  0  0  0  0
 10 23  1  0  0  0  0
 11 12  2  0  0  0  0
 11 24  1  0  0  0  0
 12 25  1  0  0  0  0
 13 21  1  0  0  0  0
 13 23  2  0  0  0  0
 14 25  2  0  0  0  0
 14 26  1  0  0  0  0
 15 28  1  0  0  0  0
 15 66  2  0  0  0  0
 16 27  1  0  0  0  0
 17 27  1  0  0  0  0
 17 31  2  0  0  0  0
 17 32  1  0  0  0  0
 18 20  2  0  0  0  0
 18 37  1  0  0  0  0
 19 21  2  0  0  0  0
 19 38  1  0  0  0  0
 20 46  1  0  0  0  0
 21 39  1  0  0  0  0
 22 83  1  0  0  0  0
 23 84  1  0  0  0  0
 24 26  2  0  0  0  0
 24 83  1  0  0  0  0
 25 85  1  0  0  0  0
 26 86  1  0  0  0  0
 27 67  2  0  0  0  0
 28 56  1  0  0  0  0
 28 68  2  0  0  0  0
 29 30  2  0  0  0  0
 29 49  1  0  0  0  0
 29 68  1  0  0  0  0
 30 57  1  0  0  0  0
 30 66  1  0  0  0  0
 31 69  1  0  0  0  0
 31 72  1  0  0  0  0
 32 73  1  0  0  0  0
 32 78  2  0  0  0  0
 33 47  1  0  0  0  0
 33 74  1  0  0  0  0
 33 79  2  0  0  0  0
 34 63  1  0  0  0  0
 34 70  1  0  0  0  0
 34 80  2  0  0  0  0
 35 64  1  0  0  0  0
 35 75  1  0  0  0  0
 35 81  2  0  0  0  0
 36 71  1  0  0  0  0
 36 76  1  0  0  0  0
 36 82  2  0  0  0  0
 37 40  1  0  0  0  0
 38 47  1  0  0  0  0
 39 70  1  0  0  0  0
 40 42  1  0  0  0  0
 41 43  1  0  0  0  0
 41 44  1  0  0  0  0
 42 46  1  0  0  0  0
 43 48  1  0  0  0  0
 44 71  1  0  0  0  0
 45 48  1  0  0  0  0
 45 71  1  0  0  0  0
 46 74  1  0  0  0  0
 47 70  1  0  0  0  0
 48 69  1  0  0  0  0
 50 64  1  0  0  0  0
 51 65  1  0  0  0  0
 52 65  1  0  0  0  0
 53 65  1  0  0  0  0
 54 76  1  0  0  0  0
 55 77  1  0  0  0  0
 56 58  1  0  0  0  0
 57 59  1  0  0  0  0
 58 61  1  0  0  0  0
 59 60  1  0  0  0  0
 60 62  1  0  0  0  0
 61 76  1  0  0  0  0
 62 84  1  0  0  0  0
 63 65  1  0  0  0  0
 63 75  1  0  0  0  0
 64 77  1  0  0  0  0
 67 69  1  0  0  0  0
M  CHG  1  77   1
M  ISO  4  36 100  62 101  76 100  84 101
M  END
> <Batch ID>
0046

> <Smiles>
CNC(C)C(=O)NC(C(=O)N1Cc2cc([101O:1][101CH2:1]CCCc3ncc(CCC[100N:0](C)[100C:0](=O)N4CCCC(n5nc(-c6ccc(Oc7ccc(F)cc7F)cc6)c(C(N)=O)c5N)C4)nc3C)ccc2CC1C(=O)NC1CCCc2ccccc21)C(C)(C)C

> <Shape>
0.219

> <Color>
0.187

> <Negative vol penalty>
0.000

$$$$

  -OEChem-04052317213D

 84 92  0     1  0  0  0  0  0999 V2000
  -18.1482  -33.5399   22.8908 C   0  0  0  0  0  0  0  0  0  0  0  0
  -19.3844  -33.5556   22.2530 C   0  0  0  0  0  0  0  0  0  0  0  0
  -26.7951  -13.6439   21.9907 C   0  0  0  0  0  0  0  0  0  0  0  0
  -26.2861  -13.6452   19.6289 C   0  0  0  0  0  0  0  0  0  0  0  0
  -17.8475  -32.5276   23.8011 C   0  0  0  0  0  0  0  0  0  0  0  0
  -20.3212  -32.5593   22.5258 C   0  0  0  0  0  0  0  0  0  0  0  0
  -25.5586  -28.8108   19.3899 C   0  0  0  0  0  0  0  0  0  0  0  0
  -25.9916  -12.5168   22.1632 C   0  0  0  0  0  0  0  0  0  0  0  0
  -25.4827  -12.5181   19.8014 C   0  0  0  0  0  0  0  0  0  0  0  0
  -26.8981  -28.4703   19.5737 C   0  0  0  0  0  0  0  0  0  0  0  0
  -26.2333   -9.1834   21.6510 C   0  0  0  0  0  0  0  0  0  0  0  0
  -26.7345   -8.1437   22.4342 C   0  0  0  0  0  0  0  0  0  0  0  0
  -26.2386  -26.7269   21.1049 C   0  0  0  0  0  0  0  0  0  0  0  0
  -24.8656   -8.3822   23.9467 C   0  0  0  0  0  0  0  0  0  0  0  0
  -27.5806  -24.4122   16.8095 C   0  0  0  0  0  0  0  0  0  0  0  0
  -26.9423  -14.2081   20.7235 C   0  0  0  0  0  0  0  0  0  0  0  0
  -29.1476  -15.3990   20.2481 C   0  0  0  0  0  0  0  0  0  0  0  0
  -18.7773  -31.5130   24.0780 C   0  0  0  0  0  0  0  0  0  0  0  0
  -24.5481  -28.1179   20.0719 C   0  0  0  0  0  0  0  0  0  0  0  0
  -20.0331  -31.5332   23.4417 C   0  0  0  0  0  0  0  0  0  0  0  0
  -24.8869  -27.0589   20.9262 C   0  0  0  0  0  0  0  0  0  0  0  0
  -27.8690  -23.0768   16.6146 C   0  0  0  0  0  0  0  0  0  0  0  0
  -25.3354  -11.9539   21.0686 C   0  0  0  0  0  0  0  0  0  0  0  0
  -27.2384  -27.4301   20.4335 C   0  0  0  0  0  0  0  0  0  0  0  0
  -25.0483   -9.8225   22.0156 C   0  0  0  0  0  0  0  0  0  0  0  0
  -26.0507   -7.7431   23.5821 C   0  0  0  0  0  0  0  0  0  0  0  0
  -24.3644   -9.4219   23.1635 C   0  0  0  0  0  0  0  0  0  0  0  0
  -27.7717  -15.3727   20.5447 C   0  0  0  0  0  0  0  0  0  0  0  0
  -29.0274  -22.6229   17.2115 C   0  0  0  0  0  0  0  0  0  0  0  0
  -29.4588  -16.7351   20.1809 C   0  0  0  0  0  0  0  0  0  0  0  0
  -29.4581  -24.6868   18.0612 C   0  0  0  0  0  0  0  0  0  0  0  0
  -30.0625  -14.3129   20.0508 C   0  0  0  0  0  0  0  0  0  0  0  0
  -22.3250  -28.9145   22.1996 C   0  0  0  0  0  0  0  0  0  0  0  0
  -21.3517  -25.8532   21.7487 C   0  0  0  0  0  0  0  0  0  0  0  0
  -22.1421  -22.6717   20.8001 C   0  0  0  0  0  0  0  0  0  0  0  0
  -26.2121  -21.6232   18.9906 C   0  0  0  0  0  0  0  0  0  0  0  0
  -18.4251  -30.4661   25.1049 C   0  0  0  0  0  0  0  0  0  0  0  0
  -23.1063  -28.4800   19.8423 C   0  0  0  0  0  0  0  0  0  0  0  0
  -23.8385  -26.2704   21.6662 C   0  0  0  0  0  0  0  0  0  0  0  0
  -19.3301  -29.2376   25.0575 C   0  0  0  0  0  0  0  0  0  0  0  0
  -28.1211  -20.9838   21.9272 C   0  0  0  0  0  0  0  0  0  0  0  0
  -20.7944  -29.6563   24.9725 C   0  0  0  0  0  0  0  0  0  0  0  0
  -28.3722  -19.4757   21.8791 C   0  0  0  0  0  0  0  0  0  0  0  0
  -26.7351  -21.3425   21.3956 C   0  0  0  0  0  0  0  0  0  0  0  0
  -26.6842  -19.3102   20.0024 C   0  0  0  0  0  0  0  0  0  0  0  0
  -21.0661  -30.4562   23.6927 C   0  0  1  0  0  0  0  0  0  0  0  0
  -22.1917  -28.0434   20.9826 C   0  0  1  0  0  0  0  0  0  0  0  0
  -28.0903  -18.9047   20.4763 C   0  0  2  0  0  0  0  0  0  0  0  0
  -30.5518  -20.8138   18.0422 C   0  0  0  0  0  0  0  0  0  0  0  0
  -21.7816  -20.2550   20.2279 C   0  0  0  0  0  0  0  0  0  0  0  0
  -21.5143  -25.4881   24.7737 C   0  0  0  0  0  0  0  0  0  0  0  0
  -21.4501  -23.0121   24.4083 C   0  0  0  0  0  0  0  0  0  0  0  0
  -19.5207  -24.4259   23.7004 C   0  0  0  0  0  0  0  0  0  0  0  0
  -21.5583  -23.3089   17.9695 C   0  0  0  0  0  0  0  0  0  0  0  0
  -26.9744  -22.2065   15.8098 C   0  0  0  0  0  0  0  0  0  0  0  0
  -29.4403  -21.1951   17.0688 C   0  0  0  0  0  0  0  0  0  0  0  0
  -30.3502  -25.5905   18.8743 C   0  0  0  0  0  0  0  0  0  0  0  0
  -30.2166  -25.3904   20.3855 C   0  0  0  0  0  0  0  0  0  0  0  0
  -25.7172  -21.7447   16.5617 C   0  0  0  0  0  0  0  0  0  0  0  0
  -28.8303  -25.7314   20.9195 C   0  0  0  0  0  0  0  0  0  1  0  0
  -21.6773  -24.5232   22.3844 C   0  0  1  0  0  0  0  0  0  0  0  0
  -21.4436  -21.6944   19.8719 C   0  0  2  0  0  0  0  0  0  0  0  0
  -21.0607  -24.3783   23.8044 C   0  0  0  0  0  0  0  0  0  0  0  0
  -28.3559  -25.2491   17.5298 N   0  0  0  0  0  0  0  0  0  0  0  0
  -27.2452  -16.5950   20.6583 N   0  0  0  0  0  0  0  0  0  0  0  0
  -29.8486  -23.4032   17.9443 N   0  0  0  0  0  0  0  0  0  0  0  0
  -28.2958  -17.4019   20.4319 N   0  0  0  0  0  0  0  0  0  0  0  0
  -22.4433  -26.6666   21.4134 N   0  0  0  0  0  0  0  0  0  0  0  0
  -26.5321  -20.7724   20.0615 N   0  0  0  0  0  0  0  0  0  0  0  0
  -30.6112  -17.3929   19.9322 N   0  0  0  0  0  0  0  0  0  0  0  0
  -29.5765  -13.0025   20.1555 N   0  0  0  0  0  0  0  0  0  0  0  0
  -21.1606  -29.5693   22.5529 N   0  0  0  0  0  0  0  0  0  0  0  0
  -21.2440  -23.5013   21.4377 N   0  0  0  0  0  0  0  0  0  0  0  0
  -26.0427  -21.0023   17.7590 N   0  0  0  0  0  0  0  0  0  0  0  0
  -21.8534  -21.9380   18.4599 N   0  3  0  0  0  0  0  0  0  0  0  0
  -31.2786  -14.4989   19.8055 O   0  0  0  0  0  0  0  0  0  0  0  0
  -23.4039  -28.9861   22.7762 O   0  0  0  0  0  0  0  0  0  0  0  0
  -20.1724  -26.1560   21.5503 O   0  0  0  0  0  0  0  0  0  0  0  0
  -23.3620  -22.6942   20.9478 O   0  0  0  0  0  0  0  0  0  0  0  0
  -26.0918  -22.8460   19.1211 O   0  0  0  0  0  0  0  0  0  0  0  0
  -24.5515  -10.8540   21.2366 O   0  0  0  0  0  0  0  0  0  0  0  0
  -28.5450  -27.0961   20.6151 O   0  0  0  0  0  0  0  0  0  1  0  0
  -26.5313   -6.7436   24.3333 F   0  0  0  0  0  0  0  0  0  0  0  0
  -23.2249  -10.0313   23.5182 F   0  0  0  0  0  0  0  0  0  0  0  0
  1  2  1  0  0  0  0
  1  5  2  0  0  0  0
  2  6  2  0  0  0  0
  3  8  2  0  0  0  0
  3 16  1  0  0  0  0
  4  9  1  0  0  0  0
  4 16  2  0  0  0  0
  5 18  1  0  0  0  0
  6 20  1  0  0  0  0
  7 10  2  0  0  0  0
  7 19  1  0  0  0  0
  8 23  1  0  0  0  0
  9 23  2  0  0  0  0
 10 24  1  0  0  0  0
 11 12  2  0  0  0  0
 11 25  1  0  0  0  0
 12 26  1  0  0  0  0
 13 21  1  0  0  0  0
 13 24  2  0  0  0  0
 14 26  2  0  0  0  0
 14 27  1  0  0  0  0
 15 22  1  0  0  0  0
 15 64  2  0  0  0  0
 16 28  1  0  0  0  0
 17 28  1  0  0  0  0
 17 30  2  0  0  0  0
 17 32  1  0  0  0  0
 18 20  2  0  0  0  0
 18 37  1  0  0  0  0
 19 21  2  0  0  0  0
 19 38  1  0  0  0  0
 20 46  1  0  0  0  0
 21 39  1  0  0  0  0
 22 29  2  0  0  0  0
 22 55  1  0  0  0  0
 23 81  1  0  0  0  0
 24 82  1  0  0  0  0
 25 27  2  0  0  0  0
 25 81  1  0  0  0  0
 26 83  1  0  0  0  0
 27 84  1  0  0  0  0
 28 65  2  0  0  0  0
 29 56  1  0  0  0  0
 29 66  1  0  0  0  0
 30 67  1  0  0  0  0
 30 70  1  0  0  0  0
 31 57  1  0  0  0  0
 31 64  1  0  0  0  0
 31 66  2  0  0  0  0
 32 71  1  0  0  0  0
 32 76  2  0  0  0  0
 33 47  1  0  0  0  0
 33 72  1  0  0  0  0
 33 77  2  0  0  0  0
 34 61  1  0  0  0  0
 34 68  1  0  0  0  0
 34 78  2  0  0  0  0
 35 62  1  0  0  0  0
 35 73  1  0  0  0  0
 35 79  2  0  0  0  0
 36 69  1  0  0  0  0
 36 74  1  0  0  0  0
 36 80  2  0  0  0  0
 37 40  1  0  0  0  0
 38 47  1  0  0  0  0
 39 68  1  0  0  0  0
 40 42  1  0  0  0  0
 41 43  1  0  0  0  0
 41 44  1  0  0  0  0
 42 46  1  0  0  0  0
 43 48  1  0  0  0  0
 44 69  1  0  0  0  0
 45 48  1  0  0  0  0
 45 69  1  0  0  0  0
 46 72  1  0  0  0  0
 47 68  1  0  0  0  0
 48 67  1  0  0  0  0
 49 56  1  0  0  0  0
 50 62  1  0  0  0  0
 51 63  1  0  0  0  0
 52 63  1  0  0  0  0
 53 63  1  0  0  0  0
 54 75  1  0  0  0  0
 55 59  1  0  0  0  0
 57 58  1  0  0  0  0
 58 60  1  0  0  0  0
 59 74  1  0  0  0  0
 60 82  1  0  0  0  0
 61 63  1  0  0  0  0
 61 73  1  0  0  0  0
 62 75  1  0  0  0  0
 65 67  1  0  0  0  0
M  CHG  1  75   1
M  ISO  4  36 100  60 101  74 100  82 101
M  END
> <Batch ID>
0046

> <Smiles>
CCc1nc(CC[101CH2:1][101O:1]c2ccc3c(c2)CN(C(=O)C(NC(=O)C(C)NC)C(C)(C)C)C(C(=O)NC2CCCc4ccccc42)C3)ncc1CC[100NH:0][100C:0](=O)N1CCCC(n2nc(-c3ccc(Oc4ccc(F)cc4F)cc3)c(C(N)=O)c2N)C1

> <Shape>
0.223

> <Color>
0.099

> <Negative vol penalty>
0.000

$$$$

  -OEChem-04052317213D

 83 91  0     1  0  0  0  0  0999 V2000
  -26.0169  -17.0244   17.3695 C   0  0  0  0  0  0  0  0  0  0  0  0
  -25.4704  -18.2639   17.6822 C   0  0  0  0  0  0  0  0  0  0  0  0
  -24.7366  -14.4651   22.8508 C   0  0  0  0  0  0  0  0  0  0  0  0
  -25.2090  -15.3960   20.6719 C   0  0  0  0  0  0  0  0  0  0  0  0
  -27.3032  -16.7056   17.7997 C   0  0  0  0  0  0  0  0  0  0  0  0
  -26.2143  -19.1896   18.4147 C   0  0  0  0  0  0  0  0  0  0  0  0
  -24.2876  -23.6847   18.9486 C   0  0  0  0  0  0  0  0  0  0  0  0
  -24.9731  -13.1832   22.3544 C   0  0  0  0  0  0  0  0  0  0  0  0
  -25.4455  -14.1140   20.1755 C   0  0  0  0  0  0  0  0  0  0  0  0
  -23.1932  -23.9426   19.7729 C   0  0  0  0  0  0  0  0  0  0  0  0
  -25.1019   -9.6346   21.5706 C   0  0  0  0  0  0  0  0  0  0  0  0
  -24.1992   -8.6281   21.9134 C   0  0  0  0  0  0  0  0  0  0  0  0
  -24.6707  -24.8892   21.4283 C   0  0  0  0  0  0  0  0  0  0  0  0
  -22.4145   -9.8698   20.8598 C   0  0  0  0  0  0  0  0  0  0  0  0
  -24.8545  -15.5715   22.0095 C   0  0  0  0  0  0  0  0  0  0  0  0
  -25.5492  -17.7712   23.0988 C   0  0  0  0  0  0  0  0  0  0  0  0
  -28.0578  -17.6235   18.5485 C   0  0  0  0  0  0  0  0  0  0  0  0
  -25.5852  -24.0177   19.3633 C   0  0  0  0  0  0  0  0  0  0  0  0
  -27.5233  -18.8956   18.8374 C   0  0  0  0  0  0  0  0  0  0  0  0
  -25.7796  -24.6368   20.6063 C   0  0  0  0  0  0  0  0  0  0  0  0
  -25.3275  -13.0077   21.0168 C   0  0  0  0  0  0  0  0  0  0  0  0
  -23.3849  -24.5423   21.0142 C   0  0  0  0  0  0  0  0  0  0  0  0
  -24.6610  -10.7588   20.8725 C   0  0  0  0  0  0  0  0  0  0  0  0
  -22.8555   -8.7457   21.5580 C   0  0  0  0  0  0  0  0  0  0  0  0
  -23.3173  -10.8764   20.5170 C   0  0  0  0  0  0  0  0  0  0  0  0
  -24.6098  -16.8960   22.5215 C   0  0  0  0  0  0  0  0  0  0  0  0
  -20.3525  -26.5751   23.0247 C   0  0  0  0  0  0  0  0  0  0  0  0
  -19.2421  -26.2252   22.2931 C   0  0  0  0  0  0  0  0  0  0  0  0
  -24.8227  -18.8919   23.4191 C   0  0  0  0  0  0  0  0  0  0  0  0
  -19.6020  -28.3982   22.2225 C   0  0  0  0  0  0  0  0  0  0  0  0
  -26.9531  -17.5875   23.3252 C   0  0  0  0  0  0  0  0  0  0  0  0
  -28.2456  -22.3773   19.9416 C   0  0  0  0  0  0  0  0  0  0  0  0
  -29.5276  -25.3353   20.3008 C   0  0  0  0  0  0  0  0  0  0  0  0
  -29.0392  -28.6384   21.0062 C   0  0  0  0  0  0  0  0  0  0  0  0
  -19.8570  -21.1413   21.1525 C   0  0  0  0  0  0  0  0  0  0  0  0
  -29.4479  -17.2294   18.9819 C   0  0  0  0  0  0  0  0  0  0  0  0
  -26.7524  -23.7573   18.4511 C   0  0  0  0  0  0  0  0  0  0  0  0
  -27.1503  -25.0323   21.0894 C   0  0  0  0  0  0  0  0  0  0  0  0
  -29.9825  -18.0919   20.1206 C   0  0  0  0  0  0  0  0  0  0  0  0
  -20.4003  -20.2704   24.6229 C   0  0  0  0  0  0  0  0  0  0  0  0
  -29.7919  -19.5648   19.7907 C   0  0  0  0  0  0  0  0  0  0  0  0
  -21.6422  -19.3828   24.5230 C   0  0  0  0  0  0  0  0  0  0  0  0
  -19.4628  -20.0446   23.4404 C   0  0  0  0  0  0  0  0  0  0  0  0
  -21.3396  -19.3468   22.0036 C   0  0  0  0  0  0  0  0  0  0  0  0
  -28.3023  -19.9067   19.6593 C   0  0  1  0  0  0  0  0  0  0  0  0
  -28.0826  -23.6697   19.1929 C   0  0  1  0  0  0  0  0  0  0  0  0
  -22.3382  -19.5445   23.1585 C   0  0  2  0  0  0  0  0  0  0  0  0
  -19.3933  -29.8149   21.8583 C   0  0  0  0  0  0  0  0  0  0  0  0
  -30.2828  -30.8031   21.2611 C   0  0  0  0  0  0  0  0  0  0  0  0
  -30.5475  -24.4254   23.0288 C   0  0  0  0  0  0  0  0  0  0  0  0
  -30.9237  -26.8307   23.6128 C   0  0  0  0  0  0  0  0  0  0  0  0
  -32.1706  -25.8004   21.7138 C   0  0  0  0  0  0  0  0  0  0  0  0
  -17.6114  -27.5663   20.9395 C   0  0  0  0  0  0  0  0  0  0  0  0
  -27.5286  -29.9005   18.7961 C   0  0  0  0  0  0  0  0  0  0  0  0
  -21.2778  -25.6797   23.8123 C   0  0  0  0  0  0  0  0  0  0  0  0
  -18.6042  -24.9214   22.0368 C   0  0  0  0  0  0  0  0  0  0  0  0
  -18.9278  -24.2930   20.6587 C   0  0  0  0  0  0  0  0  0  0  0  0
  -18.2886  -22.9244   20.4333 C   0  0  0  0  0  0  0  0  0  0  0  0
  -22.5876  -25.4111   23.0795 C   0  0  0  0  0  0  0  0  0  1  0  0
  -29.7038  -26.2910   21.4560 C   0  0  1  0  0  0  0  0  0  0  0  0
  -29.5169  -29.8989   20.3079 C   0  0  2  0  0  0  0  0  0  0  0  0
  -30.8106  -25.8278   22.4448 C   0  0  0  0  0  0  0  0  0  0  0  0
  -23.3804  -17.4159   22.4765 N   0  0  0  0  0  0  0  0  0  0  0  0
  -20.5709  -27.9292   22.9769 N   0  0  0  0  0  0  0  0  0  0  0  0
  -18.7718  -27.4036   21.7857 N   0  0  0  0  0  0  0  0  0  0  0  0
  -23.5422  -18.6299   23.0297 N   0  0  0  0  0  0  0  0  0  0  0  0
  -28.2604  -24.7511   20.1641 N   0  0  0  0  0  0  0  0  0  0  0  0
  -20.1823  -20.2319   22.1726 N   0  0  0  0  0  0  0  0  0  0  0  0
  -25.1608  -20.0660   23.9932 N   0  0  0  0  0  0  0  0  0  0  0  0
  -27.5398  -16.3758   22.9356 N   0  0  0  0  0  0  0  0  0  0  0  0
  -28.1703  -21.2515   19.1438 N   0  0  0  0  0  0  0  0  0  0  0  0
  -29.9407  -27.6044   20.8667 N   0  0  0  0  0  0  0  0  0  0  0  0
  -18.7431  -21.9378   21.3878 N   0  0  0  0  0  0  0  0  0  0  0  0
  -28.3572  -30.6620   19.7660 N   0  3  0  0  0  0  0  0  0  0  0  0
  -27.6628  -18.4654   23.8722 O   0  0  0  0  0  0  0  0  0  0  0  0
  -28.4278  -22.3997   21.1532 O   0  0  0  0  0  0  0  0  0  0  0  0
  -30.4772  -25.1206   19.5433 O   0  0  0  0  0  0  0  0  0  0  0  0
  -27.9747  -28.5783   21.6176 O   0  0  0  0  0  0  0  0  0  0  0  0
  -20.5142  -21.2400   20.1106 O   0  0  0  0  0  0  0  0  0  0  0  0
  -25.5586  -11.7569   20.5322 O   0  0  0  0  0  0  0  0  0  0  0  0
  -22.3185  -24.7945   21.8210 O   0  0  0  0  0  0  0  0  0  1  0  0
  -21.9890   -7.7783   21.8859 F   0  0  0  0  0  0  0  0  0  0  0  0
  -22.8880  -11.9536   19.8453 F   0  0  0  0  0  0  0  0  0  0  0  0
  1  2  1  0  0  0  0
  1  5  2  0  0  0  0
  2  6  2  0  0  0  0
  3  8  2  0  0  0  0
  3 15  1  0  0  0  0
  4  9  1  0  0  0  0
  4 15  2  0  0  0  0
  5 17  1  0  0  0  0
  6 19  1  0  0  0  0
  7 10  2  0  0  0  0
  7 18  1  0  0  0  0
  8 21  1  0  0  0  0
  9 21  2  0  0  0  0
 10 22  1  0  0  0  0
 11 12  2  0  0  0  0
 11 23  1  0  0  0  0
 12 24  1  0  0  0  0
 13 20  1  0  0  0  0
 13 22  2  0  0  0  0
 14 24  2  0  0  0  0
 14 25  1  0  0  0  0
 15 26  1  0  0  0  0
 16 26  1  0  0  0  0
 16 29  2  0  0  0  0
 16 31  1  0  0  0  0
 17 19  2  0  0  0  0
 17 36  1  0  0  0  0
 18 20  2  0  0  0  0
 18 37  1  0  0  0  0
 19 45  1  0  0  0  0
 20 38  1  0  0  0  0
 21 80  1  0  0  0  0
 22 81  1  0  0  0  0
 23 25  2  0  0  0  0
 23 80  1  0  0  0  0
 24 82  1  0  0  0  0
 25 83  1  0  0  0  0
 26 63  2  0  0  0  0
 27 28  2  0  0  0  0
 27 55  1  0  0  0  0
 27 64  1  0  0  0  0
 28 56  1  0  0  0  0
 28 65  1  0  0  0  0
 29 66  1  0  0  0  0
 29 69  1  0  0  0  0
 30 48  1  0  0  0  0
 30 64  2  0  0  0  0
 30 65  1  0  0  0  0
 31 70  1  0  0  0  0
 31 75  2  0  0  0  0
 32 46  1  0  0  0  0
 32 71  1  0  0  0  0
 32 76  2  0  0  0  0
 33 60  1  0  0  0  0
 33 67  1  0  0  0  0
 33 77  2  0  0  0  0
 34 61  1  0  0  0  0
 34 72  1  0  0  0  0
 34 78  2  0  0  0  0
 35 68  1  0  0  0  0
 35 73  1  0  0  0  0
 35 79  2  0  0  0  0
 36 39  1  0  0  0  0
 37 46  1  0  0  0  0
 38 67  1  0  0  0  0
 39 41  1  0  0  0  0
 40 42  1  0  0  0  0
 40 43  1  0  0  0  0
 41 45  1  0  0  0  0
 42 47  1  0  0  0  0
 43 68  1  0  0  0  0
 44 47  1  0  0  0  0
 44 68  1  0  0  0  0
 45 71  1  0  0  0  0
 46 67  1  0  0  0  0
 47 66  1  0  0  0  0
 49 61  1  0  0  0  0
 50 62  1  0  0  0  0
 51 62  1  0  0  0  0
 52 62  1  0  0  0  0
 53 65  1  0  0  0  0
 54 74  1  0  0  0  0
 55 59  1  0  0  0  0
 56 57  1  0  0  0  0
 57 58  1  0  0  0  0
 58 73  1  0  0  0  0
 59 81  1  0  0  0  0
 60 62  1  0  0  0  0
 60 72  1  0  0  0  0
 61 74  1  0  0  0  0
 63 66  1  0  0  0  0
M  CHG  1  74   1
M  ISO  4  35 100  59 101  73 100  81 101
M  END
> <Batch ID>
0046

> <Smiles>
CNC(C)C(=O)NC(C(=O)N1Cc2cc([101O:1][101CH2:1]Cc3nc(C)n(C)c3CCC[100NH:0][100C:0](=O)N3CCCC(n4nc(-c5ccc(Oc6ccc(F)cc6F)cc5)c(C(N)=O)c4N)C3)ccc2CC1C(=O)NC1CCCc2ccccc21)C(C)(C)C

> <Shape>
0.198

> <Color>
0.059

> <Negative vol penalty>
0.000

$$$$

  -OEChem-04052317213D

 89 97  0     1  0  0  0  0  0999 V2000
  -22.8890  -18.6146   27.3230 C   0  0  0  0  0  0  0  0  0  0  0  0
  -22.8120  -18.9127   25.9663 C   0  0  0  0  0  0  0  0  0  0  0  0
  -27.2405  -11.7026   20.3373 C   0  0  0  0  0  0  0  0  0  0  0  0
  -26.2651  -13.6133   19.2262 C   0  0  0  0  0  0  0  0  0  0  0  0
  -22.2399  -19.4268   28.2519 C   0  0  0  0  0  0  0  0  0  0  0  0
  -22.0849  -20.0226   25.5376 C   0  0  0  0  0  0  0  0  0  0  0  0
  -24.5555  -22.7329   22.0454 C   0  0  0  0  0  0  0  0  0  0  0  0
  -26.0701  -10.9767   20.1165 C   0  0  0  0  0  0  0  0  0  0  0  0
  -25.0947  -12.8874   19.0053 C   0  0  0  0  0  0  0  0  0  0  0  0
  -24.5580  -22.2399   20.7412 C   0  0  0  0  0  0  0  0  0  0  0  0
  -22.9831  -10.7555   21.4751 C   0  0  0  0  0  0  0  0  0  0  0  0
  -22.4736  -10.0098   22.5380 C   0  0  0  0  0  0  0  0  0  0  0  0
  -22.7981  -23.7842   20.1605 C   0  0  0  0  0  0  0  0  0  0  0  0
  -25.9234  -18.0684   17.4689 C   0  0  0  0  0  0  0  0  0  0  0  0
  -22.6953   -7.9916   21.2285 C   0  0  0  0  0  0  0  0  0  0  0  0
  -27.3380  -13.0209   19.8922 C   0  0  0  0  0  0  0  0  0  0  0  0
  -29.8410  -13.4580   19.6645 C   0  0  0  0  0  0  0  0  0  0  0  0
  -21.5125  -20.5528   27.8351 C   0  0  0  0  0  0  0  0  0  0  0  0
  -23.6652  -23.7494   22.4203 C   0  0  0  0  0  0  0  0  0  0  0  0
  -21.4244  -20.8499   26.4617 C   0  0  0  0  0  0  0  0  0  0  0  0
  -22.7881  -24.2901   21.4693 C   0  0  0  0  0  0  0  0  0  0  0  0
  -25.0896  -18.6361   16.5120 C   0  0  0  0  0  0  0  0  0  0  0  0
  -27.2583  -17.8264   17.1643 C   0  0  0  0  0  0  0  0  0  0  0  0
  -24.9972  -11.5690   19.4505 C   0  0  0  0  0  0  0  0  0  0  0  0
  -23.6773  -22.7636   19.7993 C   0  0  0  0  0  0  0  0  0  0  0  0
  -23.3487  -10.1192   20.2887 C   0  0  0  0  0  0  0  0  0  0  0  0
  -22.3297   -8.6278   22.4148 C   0  0  0  0  0  0  0  0  0  0  0  0
  -23.2048   -8.7373   20.1655 C   0  0  0  0  0  0  0  0  0  0  0  0
  -28.5466  -13.7715   20.1205 C   0  0  0  0  0  0  0  0  0  0  0  0
  -25.6351  -18.9412   15.2753 C   0  0  0  0  0  0  0  0  0  0  0  0
  -27.7067  -18.1675   15.8984 C   0  0  0  0  0  0  0  0  0  0  0  0
  -30.6297  -14.4751   20.1439 C   0  0  0  0  0  0  0  0  0  0  0  0
  -30.2902  -12.3467   18.8778 C   0  0  0  0  0  0  0  0  0  0  0  0
  -21.2880  -23.9887   24.5168 C   0  0  0  0  0  0  0  0  0  0  0  0
  -21.3155  -27.1013   23.6041 C   0  0  0  0  0  0  0  0  0  0  0  0
  -22.1019  -29.4152   21.2220 C   0  0  0  0  0  0  0  0  0  0  0  0
  -29.6407  -20.0760   21.6697 C   0  0  0  0  0  0  0  0  0  0  0  0
  -20.7884  -21.3740   28.8725 C   0  0  0  0  0  0  0  0  0  0  0  0
  -23.6935  -24.2888   23.8241 C   0  0  0  0  0  0  0  0  0  0  0  0
  -21.8265  -25.3964   21.8159 C   0  0  0  0  0  0  0  0  0  0  0  0
  -20.3495  -22.7455   28.3659 C   0  0  0  0  0  0  0  0  0  0  0  0
  -30.9423  -17.6108   23.7324 C   0  0  0  0  0  0  0  0  0  0  0  0
  -19.6873  -22.6223   26.9973 C   0  0  0  0  0  0  0  0  0  0  0  0
  -30.6044  -16.3088   23.0074 C   0  0  0  0  0  0  0  0  0  0  0  0
  -29.7831  -18.5968   23.6492 C   0  0  0  0  0  0  0  0  0  0  0  0
  -29.0197  -17.6196   21.5083 C   0  0  0  0  0  0  0  0  0  0  0  0
  -20.6659  -22.0594   25.9596 C   0  0  1  0  0  0  0  0  0  0  0  0
  -22.3895  -24.9693   24.2290 C   0  0  1  0  0  0  0  0  0  0  0  0
  -30.1610  -16.5832   21.5597 C   0  0  2  0  0  0  0  0  0  0  0  0
  -24.7873  -19.5516   14.2078 C   0  0  0  0  0  0  0  0  0  0  0  0
  -29.2954  -16.7043   14.6251 C   0  0  0  0  0  0  0  0  0  0  0  0
  -28.5351  -23.8336   19.1743 C   0  0  0  0  0  0  0  0  0  0  0  0
  -21.9698  -31.8755   20.7461 C   0  0  0  0  0  0  0  0  0  0  0  0
  -18.3346  -26.8247   23.0144 C   0  0  0  0  0  0  0  0  0  0  0  0
  -18.4721  -28.9419   21.6852 C   0  0  0  0  0  0  0  0  0  0  0  0
  -18.9835  -28.9687   24.1266 C   0  0  0  0  0  0  0  0  0  0  0  0
  -25.0449  -29.6516   21.0179 C   0  0  0  0  0  0  0  0  0  0  0  0
  -23.6411  -18.9012   16.8360 C   0  0  0  0  0  0  0  0  0  0  0  0
  -28.1568  -17.2180   18.1850 C   0  0  0  0  0  0  0  0  0  0  0  0
  -29.1314  -17.9312   15.5169 C   0  0  0  0  0  0  0  0  0  0  0  0
  -28.3075  -22.5011   19.8745 C   0  0  0  0  0  0  0  0  0  0  0  0
  -29.0734  -18.2235   18.9111 C   0  0  0  0  0  0  0  0  0  0  0  0
  -23.3320  -20.3735   17.1158 C   0  0  0  0  0  0  0  0  0  0  0  0
  -29.4683  -21.5315   19.6874 C   0  0  0  0  0  0  0  0  0  0  0  0
  -28.3284  -19.3442   19.6332 C   0  0  0  0  0  0  0  0  0  0  0  0
  -24.0480  -20.9175   18.3466 C   0  0  0  0  0  0  0  0  0  1  0  0
  -20.6281  -27.9058   22.5273 C   0  0  1  0  0  0  0  0  0  0  0  0
  -22.8206  -30.7492   21.3120 C   0  0  2  0  0  0  0  0  0  0  0  0
  -19.1212  -28.1381   22.8320 C   0  0  0  0  0  0  0  0  0  0  0  0
  -28.5107  -14.8995   20.8349 N   0  0  0  0  0  0  0  0  0  0  0  0
  -26.9267  -18.7207   14.9427 N   0  0  0  0  0  0  0  0  0  0  0  0
  -29.7925  -15.3036   20.8314 N   0  0  0  0  0  0  0  0  0  0  0  0
  -21.8879  -25.8858   23.2031 N   0  0  0  0  0  0  0  0  0  0  0  0
  -29.3848  -18.8298   22.2607 N   0  0  0  0  0  0  0  0  0  0  0  0
  -31.9508  -14.7326   20.0402 N   0  0  0  0  0  0  0  0  0  0  0  0
  -30.2933  -12.4740   17.4820 N   0  0  0  0  0  0  0  0  0  0  0  0
  -21.5851  -23.0878   25.5216 N   0  0  0  0  0  0  0  0  0  0  0  0
  -21.4033  -29.1324   22.3766 N   0  0  0  0  0  0  0  0  0  0  0  0
  -29.2314  -20.2513   20.3392 N   0  0  0  0  0  0  0  0  0  0  0  0
  -24.1013  -30.7000   20.5515 N   0  3  0  0  0  0  0  0  0  0  0  0
  -30.6620  -11.2668   19.3966 O   0  0  0  0  0  0  0  0  0  0  0  0
  -20.2453  -24.0461   23.8757 O   0  0  0  0  0  0  0  0  0  0  0  0
  -21.3496  -27.5387   24.7569 O   0  0  0  0  0  0  0  0  0  0  0  0
  -22.1519  -28.6975   20.2255 O   0  0  0  0  0  0  0  0  0  0  0  0
  -30.1974  -20.9858   22.2978 O   0  0  0  0  0  0  0  0  0  0  0  0
  -23.8551  -10.8609   19.2346 O   0  0  0  0  0  0  0  0  0  0  0  0
  -23.6772  -22.2837   18.5259 O   0  0  0  0  0  0  0  0  0  1  0  0
  -21.8419   -7.9116   23.4362 F   0  0  0  0  0  0  0  0  0  0  0  0
  -23.5554   -8.1204   19.0287 F   0  0  0  0  0  0  0  0  0  0  0  0
  1  2  1  0  0  0  0
  1  5  2  0  0  0  0
  2  6  2  0  0  0  0
  3  8  2  0  0  0  0
  3 16  1  0  0  0  0
  4  9  1  0  0  0  0
  4 16  2  0  0  0  0
  5 18  1  0  0  0  0
  6 20  1  0  0  0  0
  7 10  2  0  0  0  0
  7 19  1  0  0  0  0
  8 24  1  0  0  0  0
  9 24  2  0  0  0  0
 10 25  1  0  0  0  0
 11 12  2  0  0  0  0
 11 26  1  0  0  0  0
 12 27  1  0  0  0  0
 13 21  1  0  0  0  0
 13 25  2  0  0  0  0
 14 22  2  0  0  0  0
 14 23  1  0  0  0  0
 15 27  2  0  0  0  0
 15 28  1  0  0  0  0
 16 29  1  0  0  0  0
 17 29  1  0  0  0  0
 17 32  2  0  0  0  0
 17 33  1  0  0  0  0
 18 20  2  0  0  0  0
 18 38  1  0  0  0  0
 19 21  2  0  0  0  0
 19 39  1  0  0  0  0
 20 47  1  0  0  0  0
 21 40  1  0  0  0  0
 22 30  1  0  0  0  0
 22 58  1  0  0  0  0
 23 31  2  0  0  0  0
 23 59  1  0  0  0  0
 24 86  1  0  0  0  0
 25 87  1  0  0  0  0
 26 28  2  0  0  0  0
 26 86  1  0  0  0  0
 27 88  1  0  0  0  0
 28 89  1  0  0  0  0
 29 70  2  0  0  0  0
 30 50  1  0  0  0  0
 30 71  2  0  0  0  0
 31 60  1  0  0  0  0
 31 71  1  0  0  0  0
 32 72  1  0  0  0  0
 32 75  1  0  0  0  0
 33 76  1  0  0  0  0
 33 81  2  0  0  0  0
 34 48  1  0  0  0  0
 34 77  1  0  0  0  0
 34 82  2  0  0  0  0
 35 67  1  0  0  0  0
 35 73  1  0  0  0  0
 35 83  2  0  0  0  0
 36 68  1  0  0  0  0
 36 78  1  0  0  0  0
 36 84  2  0  0  0  0
 37 74  1  0  0  0  0
 37 79  1  0  0  0  0
 37 85  2  0  0  0  0
 38 41  1  0  0  0  0
 39 48  1  0  0  0  0
 40 73  1  0  0  0  0
 41 43  1  0  0  0  0
 42 44  1  0  0  0  0
 42 45  1  0  0  0  0
 43 47  1  0  0  0  0
 44 49  1  0  0  0  0
 45 74  1  0  0  0  0
 46 49  1  0  0  0  0
 46 74  1  0  0  0  0
 47 77  1  0  0  0  0
 48 73  1  0  0  0  0
 49 72  1  0  0  0  0
 51 60  1  0  0  0  0
 52 61  1  0  0  0  0
 53 68  1  0  0  0  0
 54 69  1  0  0  0  0
 55 69  1  0  0  0  0
 56 69  1  0  0  0  0
 57 80  1  0  0  0  0
 58 63  1  0  0  0  0
 59 62  1  0  0  0  0
 61 64  1  0  0  0  0
 62 65  1  0  0  0  0
 63 66  1  0  0  0  0
 64 79  1  0  0  0  0
 65 79  1  0  0  0  0
 66 87  1  0  0  0  0
 67 69  1  0  0  0  0
 67 78  1  0  0  0  0
 68 80  1  0  0  0  0
 70 72  1  0  0  0  0
M  CHG  1  80   1
M  ISO  4  37 100  66 101  79 100  87 101
M  END
> <Batch ID>
0046

> <Smiles>
CCC[100N:0](CCCc1cc(CC[101CH2:1][101O:1]c2ccc3c(c2)CN(C(=O)C(NC(=O)C(C)NC)C(C)(C)C)C(C(=O)NC2CCCc4ccccc42)C3)c(C)nc1CC)[100C:0](=O)N1CCCC(n2nc(-c3ccc(Oc4ccc(F)cc4F)cc3)c(C(N)=O)c2N)C1

> <Shape>
0.239

> <Color>
0.056

> <Negative vol penalty>
0.000

$$$$

  -OEChem-04052317213D

 85 93  0     1  0  0  0  0  0999 V2000
  -30.3354   -5.5381   24.5799 C   0  0  0  0  0  0  0  0  0  0  0  0
  -30.6771   -6.8527   24.2789 C   0  0  0  0  0  0  0  0  0  0  0  0
  -24.7062  -29.9072   19.8366 C   0  0  0  0  0  0  0  0  0  0  0  0
  -24.6917  -28.9298   22.0461 C   0  0  0  0  0  0  0  0  0  0  0  0
  -29.2255   -4.9513   23.9736 C   0  0  0  0  0  0  0  0  0  0  0  0
  -29.9096   -7.5808   23.3705 C   0  0  0  0  0  0  0  0  0  0  0  0
  -28.6974  -13.5811   23.5532 C   0  0  0  0  0  0  0  0  0  0  0  0
  -24.4057  -31.1535   20.3860 C   0  0  0  0  0  0  0  0  0  0  0  0
  -24.3913  -30.1762   22.5955 C   0  0  0  0  0  0  0  0  0  0  0  0
  -29.2630  -14.6727   22.8958 C   0  0  0  0  0  0  0  0  0  0  0  0
  -23.9761  -33.1715   24.6139 C   0  0  0  0  0  0  0  0  0  0  0  0
  -24.6826  -33.5679   25.7493 C   0  0  0  0  0  0  0  0  0  0  0  0
  -27.5273  -14.5578   21.2244 C   0  0  0  0  0  0  0  0  0  0  0  0
  -26.7533  -33.4153   24.5141 C   0  0  0  0  0  0  0  0  0  0  0  0
  -29.9224  -20.0884   21.5186 C   0  0  0  0  0  0  0  0  0  0  0  0
  -24.8492  -28.7952   20.6667 C   0  0  0  0  0  0  0  0  0  0  0  0
  -26.4377  -26.9656   19.8686 C   0  0  0  0  0  0  0  0  0  0  0  0
  -28.4384   -5.6757   23.0647 C   0  0  0  0  0  0  0  0  0  0  0  0
  -27.5468  -12.9617   23.0443 C   0  0  0  0  0  0  0  0  0  0  0  0
  -28.7889   -7.0027   22.7505 C   0  0  0  0  0  0  0  0  0  0  0  0
  -26.9476  -13.4601   21.8786 C   0  0  0  0  0  0  0  0  0  0  0  0
  -24.2482  -31.2881   21.7654 C   0  0  0  0  0  0  0  0  0  0  0  0
  -28.6796  -15.1594   21.7296 C   0  0  0  0  0  0  0  0  0  0  0  0
  -24.6582  -32.8969   23.4285 C   0  0  0  0  0  0  0  0  0  0  0  0
  -26.0712  -33.6899   25.6995 C   0  0  0  0  0  0  0  0  0  0  0  0
  -26.0468  -33.0189   23.3786 C   0  0  0  0  0  0  0  0  0  0  0  0
  -25.1590  -27.5074   20.0997 C   0  0  0  0  0  0  0  0  0  0  0  0
  -28.9693  -21.0637   21.3068 C   0  0  0  0  0  0  0  0  0  0  0  0
  -29.9110  -19.0382   20.6234 C   0  0  0  0  0  0  0  0  0  0  0  0
  -26.1932  -25.7299   19.3213 C   0  0  0  0  0  0  0  0  0  0  0  0
  -28.1610  -19.9518   19.4964 C   0  0  0  0  0  0  0  0  0  0  0  0
  -27.7307  -27.5291   20.1259 C   0  0  0  0  0  0  0  0  0  0  0  0
  -26.8558  -10.0524   21.9663 C   0  0  0  0  0  0  0  0  0  0  0  0
  -23.8371  -11.2346   21.8556 C   0  0  0  0  0  0  0  0  0  0  0  0
  -21.8010  -13.9653   21.6447 C   0  0  0  0  0  0  0  0  0  0  0  0
  -23.3884  -20.9056   19.2536 C   0  0  0  0  0  0  0  0  0  0  0  0
  -27.2756   -4.9835   22.3987 C   0  0  0  0  0  0  0  0  0  0  0  0
  -26.9336  -11.8019   23.7799 C   0  0  0  0  0  0  0  0  0  0  0  0
  -25.7001  -12.8435   21.3024 C   0  0  0  0  0  0  0  0  0  0  0  0
  -26.2956   -5.9448   21.7312 C   0  0  0  0  0  0  0  0  0  0  0  0
  -21.9008  -23.6837   17.5966 C   0  0  0  0  0  0  0  0  0  0  0  0
  -27.0464   -6.9836   20.9041 C   0  0  0  0  0  0  0  0  0  0  0  0
  -22.7170  -24.8814   18.0858 C   0  0  0  0  0  0  0  0  0  0  0  0
  -21.7117  -22.6422   18.6972 C   0  0  0  0  0  0  0  0  0  0  0  0
  -23.7755  -23.3796   19.8244 C   0  0  0  0  0  0  0  0  0  0  0  0
  -27.9666   -7.8331   21.7890 C   0  0  1  0  0  0  0  0  0  0  0  0
  -26.0561  -10.9267   22.8903 C   0  0  1  0  0  0  0  0  0  0  0  0
  -24.0403  -24.4311   18.7334 C   0  0  2  0  0  0  0  0  0  0  0  0
  -29.6932  -24.6079   22.6558 C   0  0  0  0  0  0  0  0  0  0  0  0
  -19.3789  -14.6129   21.5378 C   0  0  0  0  0  0  0  0  0  0  0  0
  -23.7328  -10.3531   18.9363 C   0  0  0  0  0  0  0  0  0  0  0  0
  -21.7383  -11.8356   18.6324 C   0  0  0  0  0  0  0  0  0  0  0  0
  -21.6369   -9.9235   20.2313 C   0  0  0  0  0  0  0  0  0  0  0  0
  -21.9870  -15.5237   24.1538 C   0  0  0  0  0  0  0  0  0  0  0  0
  -28.9040  -22.2392   22.2234 C   0  0  0  0  0  0  0  0  0  0  0  0
  -30.9175  -17.9233   20.7724 C   0  0  0  0  0  0  0  0  0  0  0  0
  -27.1855  -19.8772   18.3710 C   0  0  0  0  0  0  0  0  0  0  0  0
  -29.7874  -23.3986   21.7389 C   0  0  0  0  0  0  0  0  0  0  0  0
  -25.9904  -18.9367   18.6236 C   0  0  0  0  0  0  0  0  0  0  0  0
  -25.1672  -19.2854   19.8618 C   0  0  0  0  0  0  0  0  0  0  0  0
  -30.4052  -16.7945   21.6603 C   0  0  0  0  0  0  0  0  0  1  0  0
  -23.0109  -11.9618   20.8223 C   0  0  1  0  0  0  0  0  0  0  0  0
  -20.5763  -14.3727   22.4439 C   0  0  2  0  0  0  0  0  0  0  0  0
  -22.5544  -11.0291   19.6651 C   0  0  0  0  0  0  0  0  0  0  0  0
  -24.1752  -26.6833   19.7293 N   0  0  0  0  0  0  0  0  0  0  0  0
  -28.0697  -21.0271   20.3020 N   0  0  0  0  0  0  0  0  0  0  0  0
  -29.0412  -18.9375   19.5970 N   0  0  0  0  0  0  0  0  0  0  0  0
  -24.8359  -25.6113   19.2598 N   0  0  0  0  0  0  0  0  0  0  0  0
  -25.1419  -11.7076   22.0545 N   0  0  0  0  0  0  0  0  0  0  0  0
  -23.0043  -22.2566   19.2686 N   0  0  0  0  0  0  0  0  0  0  0  0
  -27.0090  -24.7440   18.8913 N   0  0  0  0  0  0  0  0  0  0  0  0
  -27.8011  -28.8093   20.6918 N   0  0  0  0  0  0  0  0  0  0  0  0
  -27.1996   -8.8282   22.5072 N   0  0  0  0  0  0  0  0  0  0  0  0
  -21.9147  -12.5945   21.5477 N   0  0  0  0  0  0  0  0  0  0  0  0
  -24.6310  -20.6273   19.8095 N   0  0  0  0  0  0  0  0  0  0  0  0
  -20.8478  -15.6245   23.2057 N   0  3  0  0  0  0  0  0  0  0  0  0
  -28.7924  -26.9221   19.8465 O   0  0  0  0  0  0  0  0  0  0  0  0
  -27.1386  -10.4579   20.8450 O   0  0  0  0  0  0  0  0  0  0  0  0
  -23.3405  -10.2865   22.4688 O   0  0  0  0  0  0  0  0  0  0  0  0
  -22.5769  -14.7814   21.1524 O   0  0  0  0  0  0  0  0  0  0  0  0
  -22.6789  -20.0142   18.7750 O   0  0  0  0  0  0  0  0  0  0  0  0
  -23.9552  -32.5042   22.3019 O   0  0  0  0  0  0  0  0  0  0  0  0
  -29.2300  -16.2244   21.0856 O   0  0  0  0  0  0  0  0  0  1  0  0
  -26.7494  -34.0721   26.7895 F   0  0  0  0  0  0  0  0  0  0  0  0
  -26.7075  -32.7576   22.2424 F   0  0  0  0  0  0  0  0  0  0  0  0
  1  2  1  0  0  0  0
  1  5  2  0  0  0  0
  2  6  2  0  0  0  0
  3  8  2  0  0  0  0
  3 16  1  0  0  0  0
  4  9  1  0  0  0  0
  4 16  2  0  0  0  0
  5 18  1  0  0  0  0
  6 20  1  0  0  0  0
  7 10  2  0  0  0  0
  7 19  1  0  0  0  0
  8 22  1  0  0  0  0
  9 22  2  0  0  0  0
 10 23  1  0  0  0  0
 11 12  2  0  0  0  0
 11 24  1  0  0  0  0
 12 25  1  0  0  0  0
 13 21  1  0  0  0  0
 13 23  2  0  0  0  0
 14 25  2  0  0  0  0
 14 26  1  0  0  0  0
 15 28  1  0  0  0  0
 15 29  2  0  0  0  0
 16 27  1  0  0  0  0
 17 27  1  0  0  0  0
 17 30  2  0  0  0  0
 17 32  1  0  0  0  0
 18 20  2  0  0  0  0
 18 37  1  0  0  0  0
 19 21  2  0  0  0  0
 19 38  1  0  0  0  0
 20 46  1  0  0  0  0
 21 39  1  0  0  0  0
 22 82  1  0  0  0  0
 23 83  1  0  0  0  0
 24 26  2  0  0  0  0
 24 82  1  0  0  0  0
 25 84  1  0  0  0  0
 26 85  1  0  0  0  0
 27 65  2  0  0  0  0
 28 55  1  0  0  0  0
 28 66  2  0  0  0  0
 29 56  1  0  0  0  0
 29 67  1  0  0  0  0
 30 68  1  0  0  0  0
 30 71  1  0  0  0  0
 31 57  1  0  0  0  0
 31 66  1  0  0  0  0
 31 67  2  0  0  0  0
 32 72  1  0  0  0  0
 32 77  2  0  0  0  0
 33 47  1  0  0  0  0
 33 73  1  0  0  0  0
 33 78  2  0  0  0  0
 34 62  1  0  0  0  0
 34 69  1  0  0  0  0
 34 79  2  0  0  0  0
 35 63  1  0  0  0  0
 35 74  1  0  0  0  0
 35 80  2  0  0  0  0
 36 70  1  0  0  0  0
 36 75  1  0  0  0  0
 36 81  2  0  0  0  0
 37 40  1  0  0  0  0
 38 47  1  0  0  0  0
 39 69  1  0  0  0  0
 40 42  1  0  0  0  0
 41 43  1  0  0  0  0
 41 44  1  0  0  0  0
 42 46  1  0  0  0  0
 43 48  1  0  0  0  0
 44 70  1  0  0  0  0
 45 48  1  0  0  0  0
 45 70  1  0  0  0  0
 46 73  1  0  0  0  0
 47 69  1  0  0  0  0
 48 68  1  0  0  0  0
 49 58  1  0  0  0  0
 50 63  1  0  0  0  0
 51 64  1  0  0  0  0
 52 64  1  0  0  0  0
 53 64  1  0  0  0  0
 54 76  1  0  0  0  0
 55 58  1  0  0  0  0
 56 61  1  0  0  0  0
 57 59  1  0  0  0  0
 59 60  1  0  0  0  0
 60 75  1  0  0  0  0
 61 83  1  0  0  0  0
 62 64  1  0  0  0  0
 62 74  1  0  0  0  0
 63 76  1  0  0  0  0
 65 68  1  0  0  0  0
M  CHG  1  76   1
M  ISO  4  36 100  61 101  75 100  83 101
M  END
> <Batch ID>
0046

> <Smiles>
CCCc1cc(C[101CH2:1][101O:1]c2ccc3c(c2)CN(C(=O)C(NC(=O)C(C)NC)C(C)(C)C)C(C(=O)NC2CCCc4ccccc42)C3)nc(CCC[100NH:0][100C:0](=O)N2CCCC(n3nc(-c4ccc(Oc5ccc(F)cc5F)cc4)c(C(N)=O)c3N)C2)n1

> <Shape>
0.228

> <Color>
0.068

> <Negative vol penalty>
0.000

$$$$

  -OEChem-04052317213D

 82 90  0     1  0  0  0  0  0999 V2000
  -30.1464  -12.3148   19.0868 C   0  0  0  0  0  0  0  0  0  0  0  0
  -29.9601  -13.6323   18.6808 C   0  0  0  0  0  0  0  0  0  0  0  0
  -20.1386  -27.4875   23.9075 C   0  0  0  0  0  0  0  0  0  0  0  0
  -20.2595  -28.1678   21.5924 C   0  0  0  0  0  0  0  0  0  0  0  0
  -29.2274  -11.7150   19.9469 C   0  0  0  0  0  0  0  0  0  0  0  0
  -28.8540  -14.3505   19.1337 C   0  0  0  0  0  0  0  0  0  0  0  0
  -30.0570  -19.0417   20.6139 C   0  0  0  0  0  0  0  0  0  0  0  0
  -18.7550  -27.6628   23.8868 C   0  0  0  0  0  0  0  0  0  0  0  0
  -18.8759  -28.3430   21.5716 C   0  0  0  0  0  0  0  0  0  0  0  0
  -30.2565  -19.9931   19.6146 C   0  0  0  0  0  0  0  0  0  0  0  0
  -16.0458  -25.9692   22.7801 C   0  0  0  0  0  0  0  0  0  0  0  0
  -15.2575  -24.9730   23.3560 C   0  0  0  0  0  0  0  0  0  0  0  0
  -28.0303  -20.8438   19.9884 C   0  0  0  0  0  0  0  0  0  0  0  0
  -14.3588  -26.5853   24.9148 C   0  0  0  0  0  0  0  0  0  0  0  0
  -28.6398  -26.0370   19.4219 C   0  0  0  0  0  0  0  0  0  0  0  0
  -20.8909  -27.7400   22.7603 C   0  0  0  0  0  0  0  0  0  0  0  0
  -23.0336  -26.3857   22.4733 C   0  0  0  0  0  0  0  0  0  0  0  0
  -28.1146  -12.4293   20.4182 C   0  0  0  0  0  0  0  0  0  0  0  0
  -28.8366  -18.9769   21.3016 C   0  0  0  0  0  0  0  0  0  0  0  0
  -27.9185  -13.7593   19.9998 C   0  0  0  0  0  0  0  0  0  0  0  0
  -27.8188  -19.8922   20.9978 C   0  0  0  0  0  0  0  0  0  0  0  0
  -18.1236  -28.0906   22.7189 C   0  0  0  0  0  0  0  0  0  0  0  0
  -29.2421  -20.8925   19.2997 C   0  0  0  0  0  0  0  0  0  0  0  0
  -15.9908  -27.2735   23.2716 C   0  0  0  0  0  0  0  0  0  0  0  0
  -14.4140  -25.2810   24.4233 C   0  0  0  0  0  0  0  0  0  0  0  0
  -15.1472  -27.5815   24.3389 C   0  0  0  0  0  0  0  0  0  0  0  0
  -22.3203  -27.5597   22.7812 C   0  0  0  0  0  0  0  0  0  0  0  0
  -29.8536  -25.9548   20.1301 C   0  0  0  0  0  0  0  0  0  0  0  0
  -28.8102  -25.1956   18.3497 C   0  0  0  0  0  0  0  0  0  0  0  0
  -24.3522  -26.7307   22.6427 C   0  0  0  0  0  0  0  0  0  0  0  0
  -22.5477  -25.0984   22.0702 C   0  0  0  0  0  0  0  0  0  0  0  0
  -26.5551  -16.7869   21.6209 C   0  0  0  0  0  0  0  0  0  0  0  0
  -25.3507  -18.9157   23.7516 C   0  0  0  0  0  0  0  0  0  0  0  0
  -25.1618  -22.1500   24.8241 C   0  0  0  0  0  0  0  0  0  0  0  0
  -28.5791  -30.3030   21.9235 C   0  0  0  0  0  0  0  0  0  0  0  0
  -27.1231  -11.7235   21.3089 C   0  0  0  0  0  0  0  0  0  0  0  0
  -28.6468  -17.9620   22.3954 C   0  0  0  0  0  0  0  0  0  0  0  0
  -26.4975  -19.8777   21.7206 C   0  0  0  0  0  0  0  0  0  0  0  0
  -26.1783  -12.6731   22.0410 C   0  0  0  0  0  0  0  0  0  0  0  0
  -26.4384  -30.8460   24.7162 C   0  0  0  0  0  0  0  0  0  0  0  0
  -25.6212  -13.7182   21.0797 C   0  0  0  0  0  0  0  0  0  0  0  0
  -25.2330  -29.9477   24.4331 C   0  0  0  0  0  0  0  0  0  0  0  0
  -26.9958  -31.4626   23.4352 C   0  0  0  0  0  0  0  0  0  0  0  0
  -26.1158  -29.5953   22.0889 C   0  0  0  0  0  0  0  0  0  0  0  0
  -26.7444  -14.5791   20.4892 C   0  0  1  0  0  0  0  0  0  0  0  0
  -27.1793  -17.6544   22.6770 C   0  0  1  0  0  0  0  0  0  0  0  0
  -25.5532  -28.9063   23.3440 C   0  0  2  0  0  0  0  0  0  0  0  0
  -27.9049  -24.8454   17.2400 C   0  0  0  0  0  0  0  0  0  0  0  0
  -24.0681  -23.5868   26.5668 C   0  0  0  0  0  0  0  0  0  0  0  0
  -22.7233  -18.7865   22.2056 C   0  0  0  0  0  0  0  0  0  0  0  0
  -22.0144  -20.8854   23.3719 C   0  0  0  0  0  0  0  0  0  0  0  0
  -22.4694  -18.8191   24.6933 C   0  0  0  0  0  0  0  0  0  0  0  0
  -27.7716  -22.9607   25.9600 C   0  0  0  0  0  0  0  0  0  0  0  0
  -30.2187  -26.6607   21.3699 C   0  0  0  0  0  0  0  0  0  0  0  0
  -30.8926  -28.0409   21.1658 C   0  0  0  0  0  0  0  0  0  0  0  0
  -30.7418  -23.6984   17.5499 C   0  0  0  0  0  0  0  0  0  0  0  0
  -30.0460  -29.0353   20.3742 C   0  0  0  0  0  0  0  0  0  0  0  0
  -30.7684  -22.2854   18.1223 C   0  0  0  0  0  0  0  0  0  1  0  0
  -24.4030  -20.0881   23.6721 C   0  0  1  0  0  0  0  0  0  0  0  0
  -25.2941  -22.7620   26.2070 C   0  0  2  0  0  0  0  0  0  0  0  0
  -22.9266  -19.6441   23.4706 C   0  0  0  0  0  0  0  0  0  0  0  0
  -23.1195  -28.5746   23.1207 N   0  0  0  0  0  0  0  0  0  0  0  0
  -30.7303  -25.1264   19.5564 N   0  0  0  0  0  0  0  0  0  0  0  0
  -30.0667  -24.6804   18.4763 N   0  0  0  0  0  0  0  0  0  0  0  0
  -24.3487  -28.0393   23.0271 N   0  0  0  0  0  0  0  0  0  0  0  0
  -26.3579  -18.8624   22.7776 N   0  0  0  0  0  0  0  0  0  0  0  0
  -27.2799  -30.4219   22.4441 N   0  0  0  0  0  0  0  0  0  0  0  0
  -25.5028  -26.0394   22.4989 N   0  0  0  0  0  0  0  0  0  0  0  0
  -21.1637  -24.9158   21.9451 N   0  0  0  0  0  0  0  0  0  0  0  0
  -27.1826  -15.5674   21.4513 N   0  0  0  0  0  0  0  0  0  0  0  0
  -24.6300  -20.8789   24.8769 N   0  0  0  0  0  0  0  0  0  0  0  0
  -28.7641  -29.2867   20.9942 N   0  0  0  0  0  0  0  0  0  0  0  0
  -26.4911  -23.6475   26.2692 N   0  3  0  0  0  0  0  0  0  0  0  0
  -23.3171  -24.1339   21.8440 O   0  0  0  0  0  0  0  0  0  0  0  0
  -25.5758  -17.1931   21.0064 O   0  0  0  0  0  0  0  0  0  0  0  0
  -25.2071  -18.0818   24.6491 O   0  0  0  0  0  0  0  0  0  0  0  0
  -25.4933  -22.7418   23.7993 O   0  0  0  0  0  0  0  0  0  0  0  0
  -29.5068  -31.0442   22.2657 O   0  0  0  0  0  0  0  0  0  0  0  0
  -16.7735  -28.2615   22.6982 O   0  0  0  0  0  0  0  0  0  0  0  0
  -29.4340  -21.8218   18.3242 O   0  0  0  0  0  0  0  0  0  1  0  0
  -13.6558  -24.3246   24.9753 F   0  0  0  0  0  0  0  0  0  0  0  0
  -15.0891  -28.8330   24.8146 F   0  0  0  0  0  0  0  0  0  0  0  0
  1  2  1  0  0  0  0
  1  5  2  0  0  0  0
  2  6  2  0  0  0  0
  3  8  2  0  0  0  0
  3 16  1  0  0  0  0
  4  9  1  0  0  0  0
  4 16  2  0  0  0  0
  5 18  1  0  0  0  0
  6 20  1  0  0  0  0
  7 10  2  0  0  0  0
  7 19  1  0  0  0  0
  8 22  1  0  0  0  0
  9 22  2  0  0  0  0
 10 23  1  0  0  0  0
 11 12  2  0  0  0  0
 11 24  1  0  0  0  0
 12 25  1  0  0  0  0
 13 21  1  0  0  0  0
 13 23  2  0  0  0  0
 14 25  2  0  0  0  0
 14 26  1  0  0  0  0
 15 28  1  0  0  0  0
 15 29  2  0  0  0  0
 16 27  1  0  0  0  0
 17 27  1  0  0  0  0
 17 30  2  0  0  0  0
 17 31  1  0  0  0  0
 18 20  2  0  0  0  0
 18 36  1  0  0  0  0
 19 21  2  0  0  0  0
 19 37  1  0  0  0  0
 20 45  1  0  0  0  0
 21 38  1  0  0  0  0
 22 79  1  0  0  0  0
 23 80  1  0  0  0  0
 24 26  2  0  0  0  0
 24 79  1  0  0  0  0
 25 81  1  0  0  0  0
 26 82  1  0  0  0  0
 27 62  2  0  0  0  0
 28 54  1  0  0  0  0
 28 63  2  0  0  0  0
 29 48  1  0  0  0  0
 29 64  1  0  0  0  0
 30 65  1  0  0  0  0
 30 68  1  0  0  0  0
 31 69  1  0  0  0  0
 31 74  2  0  0  0  0
 32 46  1  0  0  0  0
 32 70  1  0  0  0  0
 32 75  2  0  0  0  0
 33 59  1  0  0  0  0
 33 66  1  0  0  0  0
 33 76  2  0  0  0  0
 34 60  1  0  0  0  0
 34 71  1  0  0  0  0
 34 77  2  0  0  0  0
 35 67  1  0  0  0  0
 35 72  1  0  0  0  0
 35 78  2  0  0  0  0
 36 39  1  0  0  0  0
 37 46  1  0  0  0  0
 38 66  1  0  0  0  0
 39 41  1  0  0  0  0
 40 42  1  0  0  0  0
 40 43  1  0  0  0  0
 41 45  1  0  0  0  0
 42 47  1  0  0  0  0
 43 67  1  0  0  0  0
 44 47  1  0  0  0  0
 44 67  1  0  0  0  0
 45 70  1  0  0  0  0
 46 66  1  0  0  0  0
 47 65  1  0  0  0  0
 49 60  1  0  0  0  0
 50 61  1  0  0  0  0
 51 61  1  0  0  0  0
 52 61  1  0  0  0  0
 53 73  1  0  0  0  0
 54 55  1  0  0  0  0
 55 57  1  0  0  0  0
 56 58  1  0  0  0  0
 56 64  1  0  0  0  0
 57 72  1  0  0  0  0
 58 80  1  0  0  0  0
 59 61  1  0  0  0  0
 59 71  1  0  0  0  0
 60 73  1  0  0  0  0
 62 65  1  0  0  0  0
 63 64  1  0  0  0  0
M  CHG  1  73   1
M  ISO  4  35 100  58 101  72 100  80 101
M  END
> <Batch ID>
0046

> <Smiles>
CNC(C)C(=O)NC(C(=O)N1Cc2cc([101O:1][101CH2:1]Cn3nc(CCC[100NH:0][100C:0](=O)N4CCCC(n5nc(-c6ccc(Oc7ccc(F)cc7F)cc6)c(C(N)=O)c5N)C4)cc3C)ccc2CC1C(=O)NC1CCCc2ccccc21)C(C)(C)C

> <Shape>
0.230

> <Color>
0.075

> <Negative vol penalty>
0.000

$$$$

  -OEChem-04052317213D

 84 92  0     1  0  0  0  0  0999 V2000
  -30.8010  -30.7055   13.5057 C   0  0  0  0  0  0  0  0  0  0  0  0
  -30.6932  -29.5339   14.2481 C   0  0  0  0  0  0  0  0  0  0  0  0
  -26.4949  -13.2003   20.1394 C   0  0  0  0  0  0  0  0  0  0  0  0
  -25.4125  -14.8800   21.4974 C   0  0  0  0  0  0  0  0  0  0  0  0
  -30.5644  -31.9382   14.1126 C   0  0  0  0  0  0  0  0  0  0  0  0
  -30.3497  -29.5944   15.5982 C   0  0  0  0  0  0  0  0  0  0  0  0
  -26.9714  -25.5530   18.7223 C   0  0  0  0  0  0  0  0  0  0  0  0
  -25.3113  -12.4630   20.1078 C   0  0  0  0  0  0  0  0  0  0  0  0
  -24.2288  -14.1427   21.4658 C   0  0  0  0  0  0  0  0  0  0  0  0
  -27.3141  -24.4976   19.5664 C   0  0  0  0  0  0  0  0  0  0  0  0
  -23.6285  -10.3654   22.1556 C   0  0  0  0  0  0  0  0  0  0  0  0
  -23.7163   -8.9905   22.3732 C   0  0  0  0  0  0  0  0  0  0  0  0
  -27.0267  -25.9409   21.4778 C   0  0  0  0  0  0  0  0  0  0  0  0
  -27.3704  -20.4272   22.5531 C   0  0  0  0  0  0  0  0  0  0  0  0
  -22.7648   -8.5842   20.1899 C   0  0  0  0  0  0  0  0  0  0  0  0
  -26.5456  -14.4087   20.8342 C   0  0  0  0  0  0  0  0  0  0  0  0
  -28.1741  -16.1666   19.9595 C   0  0  0  0  0  0  0  0  0  0  0  0
  -30.2084  -32.0132   15.4684 C   0  0  0  0  0  0  0  0  0  0  0  0
  -26.6638  -26.8153   19.2499 C   0  0  0  0  0  0  0  0  0  0  0  0
  -30.1094  -30.8294   16.2241 C   0  0  0  0  0  0  0  0  0  0  0  0
  -26.6779  -27.0100   20.6384 C   0  0  0  0  0  0  0  0  0  0  0  0
  -27.6657  -19.4990   23.5454 C   0  0  0  0  0  0  0  0  0  0  0  0
  -28.3006  -21.4079   22.2272 C   0  0  0  0  0  0  0  0  0  0  0  0
  -24.1782  -12.9342   20.7710 C   0  0  0  0  0  0  0  0  0  0  0  0
  -27.3447  -24.6923   20.9442 C   0  0  0  0  0  0  0  0  0  0  0  0
  -23.1088  -10.8498   20.9551 C   0  0  0  0  0  0  0  0  0  0  0  0
  -23.2845   -8.0998   21.3904 C   0  0  0  0  0  0  0  0  0  0  0  0
  -22.6769   -9.9592   19.9723 C   0  0  0  0  0  0  0  0  0  0  0  0
  -27.7681  -15.1705   20.8676 C   0  0  0  0  0  0  0  0  0  0  0  0
  -28.8954  -19.5938   24.1768 C   0  0  0  0  0  0  0  0  0  0  0  0
  -29.5018  -21.4173   22.9178 C   0  0  0  0  0  0  0  0  0  0  0  0
  -29.3982  -16.5789   20.4266 C   0  0  0  0  0  0  0  0  0  0  0  0
  -27.5047  -16.6740   18.7975 C   0  0  0  0  0  0  0  0  0  0  0  0
  -27.9216  -29.7228   18.9885 C   0  0  0  0  0  0  0  0  0  0  0  0
  -25.3128  -30.5820   20.7144 C   0  0  0  0  0  0  0  0  0  0  0  0
  -22.8579  -29.6704   22.9028 C   0  0  0  0  0  0  0  0  0  0  0  0
  -31.6768  -16.0781   26.0919 C   0  0  0  0  0  0  0  0  0  0  0  0
  -30.0085  -33.3717   16.0924 C   0  0  0  0  0  0  0  0  0  0  0  0
  -26.2701  -27.9363   18.3275 C   0  0  0  0  0  0  0  0  0  0  0  0
  -26.3363  -28.3405   21.2562 C   0  0  0  0  0  0  0  0  0  0  0  0
  -29.2831  -33.3247   17.4347 C   0  0  0  0  0  0  0  0  0  0  0  0
  -33.1960  -15.0349   22.8817 C   0  0  0  0  0  0  0  0  0  0  0  0
  -29.8763  -32.2368   18.3243 C   0  0  0  0  0  0  0  0  0  0  0  0
  -31.9890  -14.9699   21.9475 C   0  0  0  0  0  0  0  0  0  0  0  0
  -32.8059  -14.7667   24.3321 C   0  0  0  0  0  0  0  0  0  0  0  0
  -30.5123  -15.5847   23.9025 C   0  0  0  0  0  0  0  0  0  0  0  0
  -29.7148  -30.8524   17.6849 C   0  0  1  0  0  0  0  0  0  0  0  0
  -26.4756  -29.3169   18.9433 C   0  0  1  0  0  0  0  0  0  0  0  0
  -30.8636  -15.8963   22.4400 C   0  0  2  0  0  0  0  0  0  0  0  0
  -26.6735  -18.4458   23.8991 C   0  0  0  0  0  0  0  0  0  0  0  0
  -31.8908  -22.1115   23.2294 C   0  0  0  0  0  0  0  0  0  0  0  0
  -20.8949  -30.5999   24.1598 C   0  0  0  0  0  0  0  0  0  0  0  0
  -27.2147  -31.9258   22.6860 C   0  0  0  0  0  0  0  0  0  0  0  0
  -25.3399  -31.9891   24.3440 C   0  0  0  0  0  0  0  0  0  0  0  0
  -25.1380  -33.2272   22.1878 C   0  0  0  0  0  0  0  0  0  0  0  0
  -31.0471  -17.8417   27.6959 C   0  0  0  0  0  0  0  0  0  0  0  0
  -20.9741  -27.8300   21.5526 C   0  0  0  0  0  0  0  0  0  0  0  0
  -27.9879  -22.4127   21.1576 C   0  0  0  0  0  0  0  0  0  1  0  0
  -29.2673  -18.6250   25.2511 C   0  0  0  0  0  0  0  0  0  0  0  0
  -30.5384  -22.4473   22.6083 C   0  0  0  0  0  0  0  0  0  0  0  0
  -30.7638  -18.2968   25.2880 C   0  0  0  0  0  0  0  0  0  0  0  0
  -24.9966  -30.7029   22.1856 C   0  0  1  0  0  0  0  0  0  0  0  0
  -21.3581  -29.9050   22.8889 C   0  0  2  0  0  0  0  0  0  0  0  0
  -25.6807  -31.9366   22.8394 C   0  0  0  0  0  0  0  0  0  0  0  0
  -28.6618  -14.9624   21.8382 N   0  0  0  0  0  0  0  0  0  0  0  0
  -29.8244  -20.5324   23.8875 N   0  0  0  0  0  0  0  0  0  0  0  0
  -29.6416  -15.8334   21.5425 N   0  0  0  0  0  0  0  0  0  0  0  0
  -25.9637  -29.4071   20.3122 N   0  0  0  0  0  0  0  0  0  0  0  0
  -31.7056  -15.6309   24.7608 N   0  0  0  0  0  0  0  0  0  0  0  0
  -30.2793  -17.5026   19.9876 N   0  0  0  0  0  0  0  0  0  0  0  0
  -26.2537  -16.1394   18.4604 N   0  0  0  0  0  0  0  0  0  0  0  0
  -28.3590  -30.3740   17.8510 N   0  0  0  0  0  0  0  0  0  0  0  0
  -23.5416  -30.7003   22.2919 N   0  0  0  0  0  0  0  0  0  0  0  0
  -31.0905  -17.3297   26.3336 N   0  0  0  0  0  0  0  0  0  0  0  0
  -20.6322  -28.6088   22.7706 N   0  3  0  0  0  0  0  0  0  0  0  0
  -28.0085  -17.5632   18.0702 O   0  0  0  0  0  0  0  0  0  0  0  0
  -28.5905  -29.4657   19.9826 O   0  0  0  0  0  0  0  0  0  0  0  0
  -24.9878  -31.4932   19.9491 O   0  0  0  0  0  0  0  0  0  0  0  0
  -23.3718  -28.6751   23.4085 O   0  0  0  0  0  0  0  0  0  0  0  0
  -32.1568  -15.4017   27.0106 O   0  0  0  0  0  0  0  0  0  0  0  0
  -23.0230  -12.2151   20.7403 O   0  0  0  0  0  0  0  0  0  0  0  0
  -27.6795  -23.6640   21.7703 O   0  0  0  0  0  0  0  0  0  1  0  0
  -23.3703   -6.7795   21.5989 F   0  0  0  0  0  0  0  0  0  0  0  0
  -22.1778  -10.4185   18.8166 F   0  0  0  0  0  0  0  0  0  0  0  0
  1  2  1  0  0  0  0
  1  5  2  0  0  0  0
  2  6  2  0  0  0  0
  3  8  2  0  0  0  0
  3 16  1  0  0  0  0
  4  9  1  0  0  0  0
  4 16  2  0  0  0  0
  5 18  1  0  0  0  0
  6 20  1  0  0  0  0
  7 10  2  0  0  0  0
  7 19  1  0  0  0  0
  8 24  1  0  0  0  0
  9 24  2  0  0  0  0
 10 25  1  0  0  0  0
 11 12  2  0  0  0  0
 11 26  1  0  0  0  0
 12 27  1  0  0  0  0
 13 21  1  0  0  0  0
 13 25  2  0  0  0  0
 14 22  2  0  0  0  0
 14 23  1  0  0  0  0
 15 27  2  0  0  0  0
 15 28  1  0  0  0  0
 16 29  1  0  0  0  0
 17 29  1  0  0  0  0
 17 32  2  0  0  0  0
 17 33  1  0  0  0  0
 18 20  2  0  0  0  0
 18 38  1  0  0  0  0
 19 21  2  0  0  0  0
 19 39  1  0  0  0  0
 20 47  1  0  0  0  0
 21 40  1  0  0  0  0
 22 30  1  0  0  0  0
 22 50  1  0  0  0  0
 23 31  2  0  0  0  0
 23 58  1  0  0  0  0
 24 81  1  0  0  0  0
 25 82  1  0  0  0  0
 26 28  2  0  0  0  0
 26 81  1  0  0  0  0
 27 83  1  0  0  0  0
 28 84  1  0  0  0  0
 29 65  2  0  0  0  0
 30 59  1  0  0  0  0
 30 66  2  0  0  0  0
 31 60  1  0  0  0  0
 31 66  1  0  0  0  0
 32 67  1  0  0  0  0
 32 70  1  0  0  0  0
 33 71  1  0  0  0  0
 33 76  2  0  0  0  0
 34 48  1  0  0  0  0
 34 72  1  0  0  0  0
 34 77  2  0  0  0  0
 35 62  1  0  0  0  0
 35 68  1  0  0  0  0
 35 78  2  0  0  0  0
 36 63  1  0  0  0  0
 36 73  1  0  0  0  0
 36 79  2  0  0  0  0
 37 69  1  0  0  0  0
 37 74  1  0  0  0  0
 37 80  2  0  0  0  0
 38 41  1  0  0  0  0
 39 48  1  0  0  0  0
 40 68  1  0  0  0  0
 41 43  1  0  0  0  0
 42 44  1  0  0  0  0
 42 45  1  0  0  0  0
 43 47  1  0  0  0  0
 44 49  1  0  0  0  0
 45 69  1  0  0  0  0
 46 49  1  0  0  0  0
 46 69  1  0  0  0  0
 47 72  1  0  0  0  0
 48 68  1  0  0  0  0
 49 67  1  0  0  0  0
 51 60  1  0  0  0  0
 52 63  1  0  0  0  0
 53 64  1  0  0  0  0
 54 64  1  0  0  0  0
 55 64  1  0  0  0  0
 56 74  1  0  0  0  0
 57 75  1  0  0  0  0
 58 82  1  0  0  0  0
 59 61  1  0  0  0  0
 61 74  1  0  0  0  0
 62 64  1  0  0  0  0
 62 73  1  0  0  0  0
 63 75  1  0  0  0  0
 65 67  1  0  0  0  0
M  CHG  1  75   1
M  ISO  4  37 100  58 101  74 100  82 101
M  END
> <Batch ID>
0046

> <Smiles>
CCc1nc(CC[100N:0](C)[100C:0](=O)N2CCCC(n3nc(-c4ccc(Oc5ccc(F)cc5F)cc4)c(C(N)=O)c3N)C2)c(C)cc1[101CH2:1][101O:1]c1ccc2c(c1)CN(C(=O)C(NC(=O)C(C)NC)C(C)(C)C)C(C(=O)NC1CCCc3ccccc31)C2

> <Shape>
0.226

> <Color>
0.084

> <Negative vol penalty>
0.000

$$$$

  -OEChem-04052317213D

 85 93  0     1  0  0  0  0  0999 V2000
  -29.3651  -32.5577   22.1983 C   0  0  0  0  0  0  0  0  0  0  0  0
  -29.1529  -31.1891   22.3304 C   0  0  0  0  0  0  0  0  0  0  0  0
  -22.9521  -10.1337   20.1824 C   0  0  0  0  0  0  0  0  0  0  0  0
  -24.2167   -9.3340   22.0793 C   0  0  0  0  0  0  0  0  0  0  0  0
  -28.3036  -33.4459   22.3658 C   0  0  0  0  0  0  0  0  0  0  0  0
  -27.8792  -30.7080   22.6312 C   0  0  0  0  0  0  0  0  0  0  0  0
  -26.5872  -26.7208   19.7891 C   0  0  0  0  0  0  0  0  0  0  0  0
  -22.1856   -8.9685   20.2021 C   0  0  0  0  0  0  0  0  0  0  0  0
  -23.4501   -8.1688   22.0991 C   0  0  0  0  0  0  0  0  0  0  0  0
  -27.1290  -25.4855   20.1413 C   0  0  0  0  0  0  0  0  0  0  0  0
  -20.3891   -7.2210   23.1725 C   0  0  0  0  0  0  0  0  0  0  0  0
  -19.9213   -6.7757   24.4088 C   0  0  0  0  0  0  0  0  0  0  0  0
  -25.0644  -24.9009   21.2435 C   0  0  0  0  0  0  0  0  0  0  0  0
  -28.9151  -21.5005   22.5824 C   0  0  0  0  0  0  0  0  0  0  0  0
  -21.1204   -4.6990   24.1145 C   0  0  0  0  0  0  0  0  0  0  0  0
  -28.9990  -19.5233   20.7038 C   0  0  0  0  0  0  0  0  0  0  0  0
  -23.9677  -10.3164   21.1209 C   0  0  0  0  0  0  0  0  0  0  0  0
  -24.4973  -12.7223   21.7833 C   0  0  0  0  0  0  0  0  0  0  0  0
  -27.0141  -32.9749   22.6593 C   0  0  0  0  0  0  0  0  0  0  0  0
  -25.2815  -27.0604   20.1714 C   0  0  0  0  0  0  0  0  0  0  0  0
  -26.7996  -31.5909   22.8041 C   0  0  0  0  0  0  0  0  0  0  0  0
  -24.5074  -26.1402   20.8926 C   0  0  0  0  0  0  0  0  0  0  0  0
  -29.2683  -20.2111   22.9645 C   0  0  0  0  0  0  0  0  0  0  0  0
  -29.3135  -19.1979   22.0134 C   0  0  0  0  0  0  0  0  0  0  0  0
  -22.4345   -7.9861   21.1605 C   0  0  0  0  0  0  0  0  0  0  0  0
  -26.3687  -24.5764   20.8711 C   0  0  0  0  0  0  0  0  0  0  0  0
  -21.2224   -6.4052   22.4071 C   0  0  0  0  0  0  0  0  0  0  0  0
  -20.2870   -5.5147   24.8798 C   0  0  0  0  0  0  0  0  0  0  0  0
  -21.5881   -5.1443   22.8781 C   0  0  0  0  0  0  0  0  0  0  0  0
  -24.7602  -11.5196   21.1007 C   0  0  0  0  0  0  0  0  0  0  0  0
  -28.6186  -21.7228   21.2473 C   0  0  0  0  0  0  0  0  0  0  0  0
  -25.5391  -13.5480   21.4380 C   0  0  0  0  0  0  0  0  0  0  0  0
  -23.4086  -13.0628   22.6520 C   0  0  0  0  0  0  0  0  0  0  0  0
  -23.9945  -29.3279   21.9896 C   0  0  0  0  0  0  0  0  0  0  0  0
  -21.2076  -28.0739   20.9021 C   0  0  0  0  0  0  0  0  0  0  0  0
  -19.5491  -25.3853   19.6108 C   0  0  0  0  0  0  0  0  0  0  0  0
  -30.9877  -14.4185   20.6009 C   0  0  0  0  0  0  0  0  0  0  0  0
  -25.9078  -33.9763   22.8782 C   0  0  0  0  0  0  0  0  0  0  0  0
  -24.7022  -28.3863   19.7605 C   0  0  0  0  0  0  0  0  0  0  0  0
  -23.0934  -26.4483   21.3099 C   0  0  0  0  0  0  0  0  0  0  0  0
  -24.5113  -33.3622   22.8257 C   0  0  0  0  0  0  0  0  0  0  0  0
  -29.1229  -13.0254   17.9067 C   0  0  0  0  0  0  0  0  0  0  0  0
  -24.4589  -32.0832   23.6553 C   0  0  0  0  0  0  0  0  0  0  0  0
  -27.8032  -12.6033   18.5550 C   0  0  0  0  0  0  0  0  0  0  0  0
  -30.3077  -12.8084   18.8454 C   0  0  0  0  0  0  0  0  0  0  0  0
  -28.8491  -13.0133   20.8214 C   0  0  0  0  0  0  0  0  0  0  0  0
  -25.4272  -31.0289   23.1053 C   0  0  1  0  0  0  0  0  0  0  0  0
  -23.5420  -28.8315   20.6455 C   0  0  1  0  0  0  0  0  0  0  0  0
  -27.6186  -13.2657   19.9335 C   0  0  2  0  0  0  0  0  0  0  0  0
  -17.2696  -24.6513   18.8606 C   0  0  0  0  0  0  0  0  0  0  0  0
  -20.3407  -27.7974   23.8145 C   0  0  0  0  0  0  0  0  0  0  0  0
  -18.5391  -26.2325   23.0570 C   0  0  0  0  0  0  0  0  0  0  0  0
  -18.5489  -28.5977   22.2642 C   0  0  0  0  0  0  0  0  0  0  0  0
  -20.4916  -24.8845   16.8504 C   0  0  0  0  0  0  0  0  0  0  0  0
  -29.6848  -17.7999   22.3682 C   0  0  0  0  0  0  0  0  0  0  0  0
  -28.2331  -23.1018   20.7988 C   0  0  0  0  0  0  0  0  0  1  0  0
  -31.1390  -17.4172   22.0251 C   0  0  0  0  0  0  0  0  0  0  0  0
  -31.5284  -15.9989   22.4364 C   0  0  0  0  0  0  0  0  0  0  0  0
  -20.2736  -26.9822   21.3656 C   0  0  1  0  0  0  0  0  0  0  0  0
  -18.5974  -25.2585   18.4350 C   0  0  2  0  0  0  0  0  0  0  0  0
  -29.5940  -19.9386   24.3957 C   0  0  0  0  0  0  0  0  0  0  0  0
  -19.4529  -27.3971   22.6193 C   0  0  0  0  0  0  0  0  0  0  0  0
  -28.6515  -20.7640   20.2947 N   0  0  0  0  0  0  0  0  0  0  0  0
  -25.8812  -11.5723   20.3763 N   0  0  0  0  0  0  0  0  0  0  0  0
  -26.3317  -12.8182   20.6017 N   0  0  0  0  0  0  0  0  0  0  0  0
  -22.5741  -27.7602   20.8898 N   0  0  0  0  0  0  0  0  0  0  0  0
  -30.0700  -13.4629   20.1342 N   0  0  0  0  0  0  0  0  0  0  0  0
  -25.8453  -14.8199   21.7709 N   0  0  0  0  0  0  0  0  0  0  0  0
  -22.4242  -12.0964   22.8999 N   0  0  0  0  0  0  0  0  0  0  0  0
  -24.8699  -30.3954   21.9295 N   0  0  0  0  0  0  0  0  0  0  0  0
  -19.4588  -26.6240   20.2097 N   0  0  0  0  0  0  0  0  0  0  0  0
  -30.6839  -14.9952   21.8280 N   0  0  0  0  0  0  0  0  0  0  0  0
  -19.1926  -24.3931   17.3778 N   0  3  0  0  0  0  0  0  0  0  0  0
  -23.3029  -14.1960   23.1794 O   0  0  0  0  0  0  0  0  0  0  0  0
  -23.5791  -28.7837   23.0059 O   0  0  0  0  0  0  0  0  0  0  0  0
  -20.7413  -29.1624   20.5567 O   0  0  0  0  0  0  0  0  0  0  0  0
  -20.2950  -24.4751   19.9651 O   0  0  0  0  0  0  0  0  0  0  0  0
  -31.9998  -14.7381   19.9682 O   0  0  0  0  0  0  0  0  0  0  0  0
  -21.6866   -6.8491   21.1802 O   0  0  0  0  0  0  0  0  0  0  0  0
  -26.8953  -23.3702   21.2168 O   0  0  0  0  0  0  0  0  0  1  0  0
  -19.8390   -5.0878   26.0678 F   0  0  0  0  0  0  0  0  0  0  0  0
  -22.3894   -4.3566   22.1478 F   0  0  0  0  0  0  0  0  0  0  0  0
  -29.5015  -21.0409   25.1962 F   0  0  0  0  0  0  0  0  0  0  0  0
  -28.7782  -19.0084   24.9730 F   0  0  0  0  0  0  0  0  0  0  0  0
  -30.8637  -19.4684   24.5635 F   0  0  0  0  0  0  0  0  0  0  0  0
  1  2  1  0  0  0  0
  1  5  2  0  0  0  0
  2  6  2  0  0  0  0
  3  8  2  0  0  0  0
  3 17  1  0  0  0  0
  4  9  1  0  0  0  0
  4 17  2  0  0  0  0
  5 19  1  0  0  0  0
  6 21  1  0  0  0  0
  7 10  2  0  0  0  0
  7 20  1  0  0  0  0
  8 25  1  0  0  0  0
  9 25  2  0  0  0  0
 10 26  1  0  0  0  0
 11 12  2  0  0  0  0
 11 27  1  0  0  0  0
 12 28  1  0  0  0  0
 13 22  1  0  0  0  0
 13 26  2  0  0  0  0
 14 23  2  0  0  0  0
 14 31  1  0  0  0  0
 15 28  2  0  0  0  0
 15 29  1  0  0  0  0
 16 24  2  0  0  0  0
 16 63  1  0  0  0  0
 17 30  1  0  0  0  0
 18 30  1  0  0  0  0
 18 32  2  0  0  0  0
 18 33  1  0  0  0  0
 19 21  2  0  0  0  0
 19 38  1  0  0  0  0
 20 22  2  0  0  0  0
 20 39  1  0  0  0  0
 21 47  1  0  0  0  0
 22 40  1  0  0  0  0
 23 24  1  0  0  0  0
 23 61  1  0  0  0  0
 24 55  1  0  0  0  0
 25 79  1  0  0  0  0
 26 80  1  0  0  0  0
 27 29  2  0  0  0  0
 27 79  1  0  0  0  0
 28 81  1  0  0  0  0
 29 82  1  0  0  0  0
 30 64  2  0  0  0  0
 31 56  1  0  0  0  0
 31 63  2  0  0  0  0
 32 65  1  0  0  0  0
 32 68  1  0  0  0  0
 33 69  1  0  0  0  0
 33 74  2  0  0  0  0
 34 48  1  0  0  0  0
 34 70  1  0  0  0  0
 34 75  2  0  0  0  0
 35 59  1  0  0  0  0
 35 66  1  0  0  0  0
 35 76  2  0  0  0  0
 36 60  1  0  0  0  0
 36 71  1  0  0  0  0
 36 77  2  0  0  0  0
 37 67  1  0  0  0  0
 37 72  1  0  0  0  0
 37 78  2  0  0  0  0
 38 41  1  0  0  0  0
 39 48  1  0  0  0  0
 40 66  1  0  0  0  0
 41 43  1  0  0  0  0
 42 44  1  0  0  0  0
 42 45  1  0  0  0  0
 43 47  1  0  0  0  0
 44 49  1  0  0  0  0
 45 67  1  0  0  0  0
 46 49  1  0  0  0  0
 46 67  1  0  0  0  0
 47 70  1  0  0  0  0
 48 66  1  0  0  0  0
 49 65  1  0  0  0  0
 50 60  1  0  0  0  0
 51 62  1  0  0  0  0
 52 62  1  0  0  0  0
 53 62  1  0  0  0  0
 54 73  1  0  0  0  0
 55 57  1  0  0  0  0
 56 80  1  0  0  0  0
 57 58  1  0  0  0  0
 58 72  1  0  0  0  0
 59 62  1  0  0  0  0
 59 71  1  0  0  0  0
 60 73  1  0  0  0  0
 61 83  1  0  0  0  0
 61 84  1  0  0  0  0
 61 85  1  0  0  0  0
 64 65  1  0  0  0  0
M  CHG  1  73   1
M  ISO  4  37 100  56 101  72 100  80 101
M  END
> <Batch ID>
0046

> <Smiles>
CNC(C)C(=O)NC(C(=O)N1Cc2cc([101O:1][101CH2:1]c3cc(C(F)(F)F)c(CCC[100NH:0][100C:0](=O)N4CCCC(n5nc(-c6ccc(Oc7ccc(F)cc7F)cc6)c(C(N)=O)c5N)C4)cn3)ccc2CC1C(=O)NC1CCCc2ccccc21)C(C)(C)C

> <Shape>
0.347

> <Color>
0.160

> <Negative vol penalty>
0.000

$$$$

  -OEChem-04052317213D

 83 90  0     1  0  0  0  0  0999 V2000
  -30.1756  -24.0722   17.0523 C   0  0  0  0  0  0  0  0  0  0  0  0
  -29.0815  -23.2783   17.3812 C   0  0  0  0  0  0  0  0  0  0  0  0
  -27.7502  -17.0832   19.0003 C   0  0  0  0  0  0  0  0  0  0  0  0
  -27.5993  -17.3619   21.3954 C   0  0  0  0  0  0  0  0  0  0  0  0
  -30.4862  -25.1863   17.8310 C   0  0  0  0  0  0  0  0  0  0  0  0
  -28.2979  -23.5976   18.4895 C   0  0  0  0  0  0  0  0  0  0  0  0
  -22.2498  -22.8276   19.0671 C   0  0  0  0  0  0  0  0  0  0  0  0
  -28.4331  -18.2955   18.9022 C   0  0  0  0  0  0  0  0  0  0  0  0
  -28.2823  -18.5741   21.2974 C   0  0  0  0  0  0  0  0  0  0  0  0
  -21.4847  -21.8341   19.6766 C   0  0  0  0  0  0  0  0  0  0  0  0
  -31.4786  -19.6077   20.9288 C   0  0  0  0  0  0  0  0  0  0  0  0
  -32.5013  -19.8497   21.8460 C   0  0  0  0  0  0  0  0  0  0  0  0
  -21.3185  -23.1903   21.6647 C   0  0  0  0  0  0  0  0  0  0  0  0
  -31.3281  -21.8077   22.6377 C   0  0  0  0  0  0  0  0  0  0  0  0
  -27.3332  -16.6164   20.2469 C   0  0  0  0  0  0  0  0  0  0  0  0
  -27.1864  -14.0858   20.5329 C   0  0  0  0  0  0  0  0  0  0  0  0
  -29.7003  -25.5248   18.9438 C   0  0  0  0  0  0  0  0  0  0  0  0
  -22.5647  -24.0072   19.7569 C   0  0  0  0  0  0  0  0  0  0  0  0
  -28.5990  -24.7164   19.2846 C   0  0  0  0  0  0  0  0  0  0  0  0
  -22.0856  -24.1983   21.0608 C   0  0  0  0  0  0  0  0  0  0  0  0
  -28.6992  -19.0409   20.0508 C   0  0  0  0  0  0  0  0  0  0  0  0
  -21.0213  -22.0142   20.9766 C   0  0  0  0  0  0  0  0  0  0  0  0
  -30.3807  -20.4658   20.8661 C   0  0  0  0  0  0  0  0  0  0  0  0
  -32.4260  -20.9496   22.7004 C   0  0  0  0  0  0  0  0  0  0  0  0
  -30.3054  -21.5657   21.7205 C   0  0  0  0  0  0  0  0  0  0  0  0
  -26.6272  -15.3645   20.3487 C   0  0  0  0  0  0  0  0  0  0  0  0
  -26.1051  -13.2394   20.5641 C   0  0  0  0  0  0  0  0  0  0  0  0
  -28.5604  -13.6977   20.6641 C   0  0  0  0  0  0  0  0  0  0  0  0
  -25.2597  -25.3952   20.7131 C   0  0  0  0  0  0  0  0  0  0  0  0
  -23.2597  -27.8034   21.5633 C   0  0  0  0  0  0  0  0  0  0  0  0
  -20.1070  -28.7820   22.4293 C   0  0  0  0  0  0  0  0  0  0  0  0
  -20.3411  -14.0386   21.9744 C   0  0  0  0  0  0  0  0  0  0  0  0
  -30.1032  -26.7114   19.7831 C   0  0  0  0  0  0  0  0  0  0  0  0
  -23.3686  -25.0806   19.0758 C   0  0  0  0  0  0  0  0  0  0  0  0
  -22.3788  -25.4552   21.8371 C   0  0  0  0  0  0  0  0  0  0  0  0
  -29.0012  -27.1959   20.7217 C   0  0  0  0  0  0  0  0  0  0  0  0
  -21.6412  -12.8045   18.8982 C   0  0  0  0  0  0  0  0  0  0  0  0
  -28.3659  -26.0172   21.4524 C   0  0  0  0  0  0  0  0  0  0  0  0
  -23.1169  -13.2053   18.9377 C   0  0  0  0  0  0  0  0  0  0  0  0
  -20.7504  -13.8675   19.5373 C   0  0  0  0  0  0  0  0  0  0  0  0
  -22.6117  -14.6578   20.9461 C   0  0  0  0  0  0  0  0  0  0  0  0
  -27.7104  -25.0444   20.4648 C   0  0  1  0  0  0  0  0  0  0  0  0
  -24.0617  -26.0212   20.0567 C   0  0  1  0  0  0  0  0  0  0  0  0
  -23.5550  -13.5917   20.3632 C   0  0  2  0  0  0  0  0  0  0  0  0
  -18.7888  -30.8079   23.1042 C   0  0  0  0  0  0  0  0  0  0  0  0
  -16.5544  -18.4542   25.8716 C   0  0  0  0  0  0  0  0  0  0  0  0
  -17.2475  -18.9844   28.2268 C   0  0  0  0  0  0  0  0  0  0  0  0
  -24.4853  -27.6681   24.3543 C   0  0  0  0  0  0  0  0  0  0  0  0
  -22.5359  -28.9929   25.1987 C   0  0  0  0  0  0  0  0  0  0  0  0
  -24.0763  -29.9848   23.5057 C   0  0  0  0  0  0  0  0  0  0  0  0
  -18.3271  -28.5510   20.0761 C   0  0  0  0  0  0  0  0  0  0  0  0
  -19.3437  -15.5381   24.7636 C   0  0  0  0  0  0  0  0  0  0  0  0
  -20.0887  -14.2490   24.4344 C   0  0  0  0  0  0  0  0  0  0  0  0
  -20.2866  -16.7223   24.9345 C   0  0  0  0  0  0  0  0  0  0  0  0
  -18.9385  -17.9646   26.6197 C   0  0  0  0  0  0  0  0  0  0  0  0
  -20.2036  -19.2105   24.8739 C   0  0  0  0  0  0  0  0  0  0  0  0
  -20.3740  -20.9322   22.9931 C   0  0  0  0  0  0  0  0  0  1  0  0
  -22.4777  -28.1554   22.8057 C   0  0  1  0  0  0  0  0  0  0  0  0
  -19.2408  -29.9314   21.9465 C   0  0  2  0  0  0  0  0  0  0  0  0
  -17.7150  -18.8750   26.7746 C   0  0  0  0  0  0  0  0  0  0  0  0
  -20.1549  -19.4769   23.3776 C   0  0  1  0  0  0  0  0  0  0  0  0
  -23.3897  -28.6757   23.9524 C   0  0  0  0  0  0  0  0  0  0  0  0
  -25.2942  -15.3377   20.2684 N   0  0  0  0  0  0  0  0  0  0  0  0
  -25.0068  -14.0318   20.4027 N   0  0  0  0  0  0  0  0  0  0  0  0
  -23.1740  -26.4727   21.1301 N   0  0  0  0  0  0  0  0  0  0  0  0
  -21.2188  -14.1875   20.8879 N   0  0  0  0  0  0  0  0  0  0  0  0
  -25.9961  -11.9022   20.7135 N   0  0  0  0  0  0  0  0  0  0  0  0
  -29.5443  -14.6943   20.6094 N   0  0  0  0  0  0  0  0  0  0  0  0
  -26.4382  -25.5647   20.0118 N   0  0  0  0  0  0  0  0  0  0  0  0
  -21.4480  -29.0999   22.3860 N   0  0  0  0  0  0  0  0  0  0  0  0
  -20.8669  -14.3573   23.2205 N   0  0  0  0  0  0  0  0  0  0  0  0
  -18.0301  -29.4108   21.2506 N   0  3  0  0  0  0  0  0  0  0  0  0
  -19.4733  -17.9640   25.2082 N   0  3  1  0  0  0  0  0  0  0  0  0
  -28.9064  -12.5006   20.8087 O   0  0  0  0  0  0  0  0  0  0  0  0
  -25.1250  -24.8035   21.7778 O   0  0  0  0  0  0  0  0  0  0  0  0
  -23.9165  -28.6787   20.9939 O   0  0  0  0  0  0  0  0  0  0  0  0
  -19.6405  -27.7107   22.8104 O   0  0  0  0  0  0  0  0  0  0  0  0
  -19.1769  -13.6453   21.8444 O   0  0  0  0  0  0  0  0  0  0  0  0
  -29.3658  -20.2238   19.9555 O   0  0  0  0  0  0  0  0  0  0  0  0
  -20.2749  -21.0458   21.5741 O   0  0  0  0  0  0  0  0  0  1  0  0
  -33.4074  -21.1810   23.5822 F   0  0  0  0  0  0  0  0  0  0  0  0
  -29.2525  -22.3929   21.6656 F   0  0  0  0  0  0  0  0  0  0  0  0
  -21.1282  -18.7294   22.7795 F   0  0  0  0  0  0  0  0  0  0  0  0
  1  2  1  0  0  0  0
  1  5  2  0  0  0  0
  2  6  2  0  0  0  0
  3  8  2  0  0  0  0
  3 15  1  0  0  0  0
  4  9  1  0  0  0  0
  4 15  2  0  0  0  0
  5 17  1  0  0  0  0
  6 19  1  0  0  0  0
  7 10  2  0  0  0  0
  7 18  1  0  0  0  0
  8 21  1  0  0  0  0
  9 21  2  0  0  0  0
 10 22  1  0  0  0  0
 11 12  2  0  0  0  0
 11 23  1  0  0  0  0
 12 24  1  0  0  0  0
 13 20  1  0  0  0  0
 13 22  2  0  0  0  0
 14 24  2  0  0  0  0
 14 25  1  0  0  0  0
 15 26  1  0  0  0  0
 16 26  1  0  0  0  0
 16 27  2  0  0  0  0
 16 28  1  0  0  0  0
 17 19  2  0  0  0  0
 17 33  1  0  0  0  0
 18 20  2  0  0  0  0
 18 34  1  0  0  0  0
 19 42  1  0  0  0  0
 20 35  1  0  0  0  0
 21 79  1  0  0  0  0
 22 80  1  0  0  0  0
 23 25  2  0  0  0  0
 23 79  1  0  0  0  0
 24 81  1  0  0  0  0
 25 82  1  0  0  0  0
 26 63  2  0  0  0  0
 27 64  1  0  0  0  0
 27 67  1  0  0  0  0
 28 68  1  0  0  0  0
 28 74  2  0  0  0  0
 29 43  1  0  0  0  0
 29 69  1  0  0  0  0
 29 75  2  0  0  0  0
 30 58  1  0  0  0  0
 30 65  1  0  0  0  0
 30 76  2  0  0  0  0
 31 59  1  0  0  0  0
 31 70  1  0  0  0  0
 31 77  2  0  0  0  0
 32 66  1  0  0  0  0
 32 71  1  0  0  0  0
 32 78  2  0  0  0  0
 33 36  1  0  0  0  0
 34 43  1  0  0  0  0
 35 65  1  0  0  0  0
 36 38  1  0  0  0  0
 37 39  1  0  0  0  0
 37 40  1  0  0  0  0
 38 42  1  0  0  0  0
 39 44  1  0  0  0  0
 40 66  1  0  0  0  0
 41 44  1  0  0  0  0
 41 66  1  0  0  0  0
 42 69  1  0  0  0  0
 43 65  1  0  0  0  0
 44 64  1  0  0  0  0
 45 59  1  0  0  0  0
 46 60  1  0  0  0  0
 47 60  1  0  0  0  0
 48 62  1  0  0  0  0
 49 62  1  0  0  0  0
 50 62  1  0  0  0  0
 51 72  1  0  0  0  0
 52 53  1  0  0  0  0
 52 54  1  0  0  0  0
 53 71  1  0  0  0  0
 54 73  1  0  0  0  0
 55 60  1  0  0  0  0
 55 73  1  0  0  0  0
 56 61  1  0  0  0  0
 56 73  1  0  0  0  0
 57 61  1  0  0  0  0
 57 80  1  0  0  0  0
 58 62  1  0  0  0  0
 58 70  1  0  0  0  0
 59 72  1  0  0  0  0
 61 83  1  0  0  0  0
 63 64  1  0  0  0  0
M  CHG  2  72   1  73   1
M  ISO  4  32 100  57 101  71 100  80 101
M  END
> <Batch ID>
0046

> <Smiles>
CNC(C)C(=O)NC(C(=O)N1Cc2cc([101O:1][101CH2:1]C(F)CN(CCC[100NH:0][100C:0](=O)N3CCCC(n4nc(-c5ccc(Oc6ccc(F)cc6F)cc5)c(C(N)=O)c4N)C3)CC(C)C)ccc2CC1C(=O)NC1CCCc2ccccc21)C(C)(C)C

> <Shape>
0.203

> <Color>
0.073

> <Negative vol penalty>
0.000

$$$$

  -OEChem-04052317213D

 82 90  0     1  0  0  0  0  0999 V2000
  -29.7516  -11.3117   16.6065 C   0  0  0  0  0  0  0  0  0  0  0  0
  -29.4588  -12.6715   16.6323 C   0  0  0  0  0  0  0  0  0  0  0  0
  -20.1550  -25.0732   20.4644 C   0  0  0  0  0  0  0  0  0  0  0  0
  -21.3183  -23.6934   22.0706 C   0  0  0  0  0  0  0  0  0  0  0  0
  -28.9939  -10.4221   17.3671 C   0  0  0  0  0  0  0  0  0  0  0  0
  -28.4074  -13.1424   17.4179 C   0  0  0  0  0  0  0  0  0  0  0  0
  -29.6463  -17.2981   20.0333 C   0  0  0  0  0  0  0  0  0  0  0  0
  -19.3256  -23.9990   20.1422 C   0  0  0  0  0  0  0  0  0  0  0  0
  -20.4889  -22.6192   21.7485 C   0  0  0  0  0  0  0  0  0  0  0  0
  -29.6594  -18.5070   19.3390 C   0  0  0  0  0  0  0  0  0  0  0  0
  -20.2355  -20.3190   19.2836 C   0  0  0  0  0  0  0  0  0  0  0  0
  -20.8332  -19.0733   19.0924 C   0  0  0  0  0  0  0  0  0  0  0  0
  -27.4845  -19.0393   20.2369 C   0  0  0  0  0  0  0  0  0  0  0  0
  -19.5125  -18.1624   20.8988 C   0  0  0  0  0  0  0  0  0  0  0  0
  -29.6435  -23.8744   19.3647 C   0  0  0  0  0  0  0  0  0  0  0  0
  -21.1514  -24.9204   21.4285 C   0  0  0  0  0  0  0  0  0  0  0  0
  -21.7924  -27.0032   22.7547 C   0  0  0  0  0  0  0  0  0  0  0  0
  -27.9389  -10.8835   18.1699 C   0  0  0  0  0  0  0  0  0  0  0  0
  -28.5456  -16.9451   20.8273 C   0  0  0  0  0  0  0  0  0  0  0  0
  -27.6340  -12.2580   18.1889 C   0  0  0  0  0  0  0  0  0  0  0  0
  -27.4610  -17.8264   20.9422 C   0  0  0  0  0  0  0  0  0  0  0  0
  -30.1527  -23.8070   20.6456 C   0  0  0  0  0  0  0  0  0  0  0  0
  -19.4925  -22.7720   20.7843 C   0  0  0  0  0  0  0  0  0  0  0  0
  -28.5772  -19.3765   19.4384 C   0  0  0  0  0  0  0  0  0  0  0  0
  -19.2763  -20.4865   20.2824 C   0  0  0  0  0  0  0  0  0  0  0  0
  -20.4718  -17.9950   19.9000 C   0  0  0  0  0  0  0  0  0  0  0  0
  -18.9148  -19.4081   21.0900 C   0  0  0  0  0  0  0  0  0  0  0  0
  -22.0088  -26.0295   21.7613 C   0  0  0  0  0  0  0  0  0  0  0  0
  -30.0963  -22.5658   21.2459 C   0  0  0  0  0  0  0  0  0  0  0  0
  -22.8874  -27.8280   22.6715 C   0  0  0  0  0  0  0  0  0  0  0  0
  -29.1198  -21.6627   19.4025 C   0  0  0  0  0  0  0  0  0  1  0  0
  -20.6992  -27.1489   23.6710 C   0  0  0  0  0  0  0  0  0  0  0  0
  -26.4188  -14.5831   20.7908 C   0  0  0  0  0  0  0  0  0  0  0  0
  -25.4695  -15.9170   23.5911 C   0  0  0  0  0  0  0  0  0  0  0  0
  -25.3253  -18.6877   25.5785 C   0  0  0  0  0  0  0  0  0  0  0  0
  -28.4770  -26.9971   20.6924 C   0  0  0  0  0  0  0  0  0  0  0  0
  -27.1179   -9.8782   18.9381 C   0  0  0  0  0  0  0  0  0  0  0  0
  -28.5585  -15.6495   21.5911 C   0  0  0  0  0  0  0  0  0  0  0  0
  -26.2641  -17.5036   21.7975 C   0  0  0  0  0  0  0  0  0  0  0  0
  -26.2592  -10.5034   20.0345 C   0  0  0  0  0  0  0  0  0  0  0  0
  -26.1408  -29.4288   19.5500 C   0  0  0  0  0  0  0  0  0  0  0  0
  -25.5269  -11.7318   19.5038 C   0  0  0  0  0  0  0  0  0  0  0  0
  -24.7974  -28.9212   20.0768 C   0  0  0  0  0  0  0  0  0  0  0  0
  -27.0509  -28.2789   19.1241 C   0  0  0  0  0  0  0  0  0  0  0  0
  -25.9219  -26.7373   20.6805 C   0  0  0  0  0  0  0  0  0  0  0  0
  -26.5172  -12.8102   19.0478 C   0  0  1  0  0  0  0  0  0  0  0  0
  -27.1618  -15.1606   21.9621 C   0  0  1  0  0  0  0  0  0  0  0  0
  -24.9911  -27.8580   21.1746 C   0  0  2  0  0  0  0  0  0  0  0  0
  -31.7939  -21.3818   22.6847 C   0  0  0  0  0  0  0  0  0  0  0  0
  -29.5186  -21.9364   23.6174 C   0  0  0  0  0  0  0  0  0  0  0  0
  -24.4527  -19.4794   27.7941 C   0  0  0  0  0  0  0  0  0  0  0  0
  -22.6471  -16.0276   22.4373 C   0  0  0  0  0  0  0  0  0  0  0  0
  -22.0445  -17.6460   24.2500 C   0  0  0  0  0  0  0  0  0  0  0  0
  -22.7668  -15.3315   24.8364 C   0  0  0  0  0  0  0  0  0  0  0  0
  -28.0443  -19.3436   26.5458 C   0  0  0  0  0  0  0  0  0  0  0  0
  -30.7179  -25.0078   21.3127 C   0  0  0  0  0  0  0  0  0  0  0  0
  -29.7692  -25.6552   22.3322 C   0  0  0  0  0  0  0  0  0  0  0  0
  -30.6176  -22.3741   22.6318 C   0  0  0  0  0  0  0  0  0  0  0  0
  -24.4785  -16.9857   23.9845 C   0  0  1  0  0  0  0  0  0  0  0  0
  -25.6404  -18.8895   27.0497 C   0  0  2  0  0  0  0  0  0  0  0  0
  -23.0058  -16.5032   23.8593 C   0  0  0  0  0  0  0  0  0  0  0  0
  -29.1176  -22.8180   18.7106 N   0  0  0  0  0  0  0  0  0  0  0  0
  -23.1515  -26.2172   21.0957 N   0  0  0  0  0  0  0  0  0  0  0  0
  -29.5847  -21.4680   20.6513 N   0  0  0  0  0  0  0  0  0  0  0  0
  -23.6629  -27.3184   21.6719 N   0  0  0  0  0  0  0  0  0  0  0  0
  -26.3211  -16.2220   22.5198 N   0  0  0  0  0  0  0  0  0  0  0  0
  -27.1945  -27.3066   20.2104 N   0  0  0  0  0  0  0  0  0  0  0  0
  -23.2530  -28.9324   23.3565 N   0  0  0  0  0  0  0  0  0  0  0  0
  -19.6566  -26.2135   23.6214 N   0  0  0  0  0  0  0  0  0  0  0  0
  -27.0579  -13.5153   20.1901 N   0  0  0  0  0  0  0  0  0  0  0  0
  -24.8541  -17.4165   25.3268 N   0  0  0  0  0  0  0  0  0  0  0  0
  -28.5234  -26.0708   21.7270 N   0  0  0  0  0  0  0  0  0  0  0  0
  -26.8002  -19.8117   27.2092 N   0  3  0  0  0  0  0  0  0  0  0  0
  -20.6404  -28.0904   24.4977 O   0  0  0  0  0  0  0  0  0  0  0  0
  -25.3444  -15.0694   20.4575 O   0  0  0  0  0  0  0  0  0  0  0  0
  -25.4922  -14.8538   24.2160 O   0  0  0  0  0  0  0  0  0  0  0  0
  -25.4781  -19.5706   24.7373 O   0  0  0  0  0  0  0  0  0  0  0  0
  -29.5042  -27.5123   20.2381 O   0  0  0  0  0  0  0  0  0  0  0  0
  -18.6832  -21.7236   20.4704 O   0  0  0  0  0  0  0  0  0  0  0  0
  -28.5871  -20.5569   18.7613 O   0  0  0  0  0  0  0  0  0  1  0  0
  -21.0447  -16.7984   19.7153 F   0  0  0  0  0  0  0  0  0  0  0  0
  -17.9931  -19.5626   22.0504 F   0  0  0  0  0  0  0  0  0  0  0  0
  1  2  1  0  0  0  0
  1  5  2  0  0  0  0
  2  6  2  0  0  0  0
  3  8  2  0  0  0  0
  3 16  1  0  0  0  0
  4  9  1  0  0  0  0
  4 16  2  0  0  0  0
  5 18  1  0  0  0  0
  6 20  1  0  0  0  0
  7 10  2  0  0  0  0
  7 19  1  0  0  0  0
  8 23  1  0  0  0  0
  9 23  2  0  0  0  0
 10 24  1  0  0  0  0
 11 12  2  0  0  0  0
 11 25  1  0  0  0  0
 12 26  1  0  0  0  0
 13 21  1  0  0  0  0
 13 24  2  0  0  0  0
 14 26  2  0  0  0  0
 14 27  1  0  0  0  0
 15 22  1  0  0  0  0
 15 62  2  0  0  0  0
 16 28  1  0  0  0  0
 17 28  1  0  0  0  0
 17 30  2  0  0  0  0
 17 32  1  0  0  0  0
 18 20  2  0  0  0  0
 18 37  1  0  0  0  0
 19 21  2  0  0  0  0
 19 38  1  0  0  0  0
 20 46  1  0  0  0  0
 21 39  1  0  0  0  0
 22 29  2  0  0  0  0
 22 56  1  0  0  0  0
 23 79  1  0  0  0  0
 24 80  1  0  0  0  0
 25 27  2  0  0  0  0
 25 79  1  0  0  0  0
 26 81  1  0  0  0  0
 27 82  1  0  0  0  0
 28 63  2  0  0  0  0
 29 58  1  0  0  0  0
 29 64  1  0  0  0  0
 30 65  1  0  0  0  0
 30 68  1  0  0  0  0
 31 62  1  0  0  0  0
 31 64  2  0  0  0  0
 31 80  1  0  0  0  0
 32 69  1  0  0  0  0
 32 74  2  0  0  0  0
 33 47  1  0  0  0  0
 33 70  1  0  0  0  0
 33 75  2  0  0  0  0
 34 59  1  0  0  0  0
 34 66  1  0  0  0  0
 34 76  2  0  0  0  0
 35 60  1  0  0  0  0
 35 71  1  0  0  0  0
 35 77  2  0  0  0  0
 36 67  1  0  0  0  0
 36 72  1  0  0  0  0
 36 78  2  0  0  0  0
 37 40  1  0  0  0  0
 38 47  1  0  0  0  0
 39 66  1  0  0  0  0
 40 42  1  0  0  0  0
 41 43  1  0  0  0  0
 41 44  1  0  0  0  0
 42 46  1  0  0  0  0
 43 48  1  0  0  0  0
 44 67  1  0  0  0  0
 45 48  1  0  0  0  0
 45 67  1  0  0  0  0
 46 70  1  0  0  0  0
 47 66  1  0  0  0  0
 48 65  1  0  0  0  0
 49 58  1  0  0  0  0
 50 58  1  0  0  0  0
 51 60  1  0  0  0  0
 52 61  1  0  0  0  0
 53 61  1  0  0  0  0
 54 61  1  0  0  0  0
 55 73  1  0  0  0  0
 56 57  1  0  0  0  0
 57 72  1  0  0  0  0
 59 61  1  0  0  0  0
 59 71  1  0  0  0  0
 60 73  1  0  0  0  0
 63 65  1  0  0  0  0
M  CHG  1  73   1
M  ISO  4  31 101  36 100  72 100  80 101
M  END
> <Batch ID>
0046

> <Smiles>
CNC(C)C(=O)NC(C(=O)N1Cc2cc([101O:1][101c:1]3ncc(CC[100NH:0][100C:0](=O)N4CCCC(n5nc(-c6ccc(Oc7ccc(F)cc7F)cc6)c(C(N)=O)c5N)C4)c(C(C)C)n3)ccc2CC1C(=O)NC1CCCc2ccccc21)C(C)(C)C

> <Shape>
0.194

> <Color>
0.083

> <Negative vol penalty>
0.000

$$$$

  -OEChem-04052317213D

 85 93  0     1  0  0  0  0  0999 V2000
  -24.0743  -30.9290   21.8706 C   0  0  0  0  0  0  0  0  0  0  0  0
  -23.2202  -29.8356   21.7689 C   0  0  0  0  0  0  0  0  0  0  0  0
  -29.0175  -11.8707   20.3652 C   0  0  0  0  0  0  0  0  0  0  0  0
  -28.0707  -12.7821   18.3379 C   0  0  0  0  0  0  0  0  0  0  0  0
  -25.3181  -30.9015   21.2412 C   0  0  0  0  0  0  0  0  0  0  0  0
  -23.6090  -28.7144   21.0367 C   0  0  0  0  0  0  0  0  0  0  0  0
  -22.8905  -21.5877   20.9362 C   0  0  0  0  0  0  0  0  0  0  0  0
  -30.2223  -11.6431   19.7003 C   0  0  0  0  0  0  0  0  0  0  0  0
  -29.2755  -12.5545   17.6729 C   0  0  0  0  0  0  0  0  0  0  0  0
  -22.5203  -20.5545   20.0764 C   0  0  0  0  0  0  0  0  0  0  0  0
  -32.3104  -14.0240   17.4474 C   0  0  0  0  0  0  0  0  0  0  0  0
  -32.8037  -15.0452   16.6355 C   0  0  0  0  0  0  0  0  0  0  0  0
  -24.7248  -20.5875   19.0974 C   0  0  0  0  0  0  0  0  0  0  0  0
  -20.6045  -13.1325   19.1634 C   0  0  0  0  0  0  0  0  0  0  0  0
  -32.7108  -13.5704   14.7241 C   0  0  0  0  0  0  0  0  0  0  0  0
  -27.9416  -12.4402   19.6840 C   0  0  0  0  0  0  0  0  0  0  0  0
  -26.3172  -13.8365   21.0694 C   0  0  0  0  0  0  0  0  0  0  0  0
  -25.7263  -29.7756   20.5089 C   0  0  0  0  0  0  0  0  0  0  0  0
  -24.1794  -22.1369   20.8755 C   0  0  0  0  0  0  0  0  0  0  0  0
  -24.8589  -28.6723   20.3957 C   0  0  0  0  0  0  0  0  0  0  0  0
  -25.1096  -21.6259   19.9593 C   0  0  0  0  0  0  0  0  0  0  0  0
  -20.9132  -12.4915   17.9688 C   0  0  0  0  0  0  0  0  0  0  0  0
  -21.2099  -14.3457   19.4716 C   0  0  0  0  0  0  0  0  0  0  0  0
  -30.3513  -11.9850   18.3541 C   0  0  0  0  0  0  0  0  0  0  0  0
  -23.4366  -20.0562   19.1548 C   0  0  0  0  0  0  0  0  0  0  0  0
  -32.0173  -12.7759   16.8977 C   0  0  0  0  0  0  0  0  0  0  0  0
  -33.0039  -14.8185   15.2738 C   0  0  0  0  0  0  0  0  0  0  0  0
  -32.2175  -12.5492   15.5360 C   0  0  0  0  0  0  0  0  0  0  0  0
  -26.6966  -12.6750   20.3702 C   0  0  0  0  0  0  0  0  0  0  0  0
  -21.8264  -13.1005   17.1232 C   0  0  0  0  0  0  0  0  0  0  0  0
  -22.1100  -14.8715   18.5589 C   0  0  0  0  0  0  0  0  0  0  0  0
  -25.0545  -13.5605   21.5340 C   0  0  0  0  0  0  0  0  0  0  0  0
  -27.0414  -15.0559   21.2799 C   0  0  0  0  0  0  0  0  0  0  0  0
  -25.3629  -25.0156   20.2308 C   0  0  0  0  0  0  0  0  0  0  0  0
  -20.8118   -9.7643   19.6104 C   0  0  0  0  0  0  0  0  0  0  0  0
  -28.1654  -23.6277   21.0923 C   0  0  0  0  0  0  0  0  0  0  0  0
  -29.9903  -20.7668   21.4556 C   0  0  0  0  0  0  0  0  0  0  0  0
  -27.0605  -29.8110   19.8066 C   0  0  0  0  0  0  0  0  0  0  0  0
  -24.5715  -23.2329   21.8281 C   0  0  0  0  0  0  0  0  0  0  0  0
  -26.5122  -22.1671   19.8678 C   0  0  0  0  0  0  0  0  0  0  0  0
  -27.5514  -28.4357   19.3617 C   0  0  0  0  0  0  0  0  0  0  0  0
  -22.2636   -9.9258   22.8824 C   0  0  0  0  0  0  0  0  0  0  0  0
  -26.4291  -27.6652   18.6736 C   0  0  0  0  0  0  0  0  0  0  0  0
  -23.5449  -10.7303   22.6673 C   0  0  0  0  0  0  0  0  0  0  0  0
  -21.9528   -9.0390   21.6808 C   0  0  0  0  0  0  0  0  0  0  0  0
  -23.1551  -10.5833   20.1670 C   0  0  0  0  0  0  0  0  0  0  0  0
  -25.2550  -27.4280   19.6311 C   0  0  1  0  0  0  0  0  0  0  0  0
  -25.7484  -24.0655   21.3291 C   0  0  1  0  0  0  0  0  0  0  0  0
  -23.4891  -11.5156   21.3450 C   0  0  2  0  0  0  0  0  0  0  0  0
  -22.1975  -12.4580   15.8269 C   0  0  0  0  0  0  0  0  0  0  0  0
  -19.5304  -15.7433   20.7015 C   0  0  0  0  0  0  0  0  0  0  0  0
  -20.6404   -8.6916   17.4025 C   0  0  0  0  0  0  0  0  0  0  0  0
  -32.2625  -19.9537   22.1437 C   0  0  0  0  0  0  0  0  0  0  0  0
  -29.3077  -24.5696   18.4244 C   0  0  0  0  0  0  0  0  0  0  0  0
  -31.1974  -22.9586   18.7441 C   0  0  0  0  0  0  0  0  0  0  0  0
  -30.8589  -24.8199   20.3700 C   0  0  0  0  0  0  0  0  0  0  0  0
  -28.8716  -19.1654   23.6790 C   0  0  0  0  0  0  0  0  0  0  0  0
  -20.8838  -15.0374   20.7501 C   0  0  0  0  0  0  0  0  0  0  0  0
  -20.2679  -11.1917   17.6327 C   0  0  0  0  0  0  0  0  0  0  0  0
  -22.7956  -16.1848   18.8399 C   0  0  0  0  0  0  0  0  0  0  0  0
  -23.4922  -16.7896   17.6191 C   0  0  0  0  0  0  0  0  0  0  0  0
  -24.1087  -18.1568   17.8914 C   0  0  0  0  0  0  0  0  0  1  0  0
  -21.0545   -9.9632   18.1354 C   0  0  1  0  0  0  0  0  0  0  0  0
  -29.2504  -22.8694   20.3665 C   0  0  1  0  0  0  0  0  0  0  0  0
  -30.8441  -20.2554   22.6019 C   0  0  2  0  0  0  0  0  0  0  0  0
  -30.1266  -23.7953   19.4764 C   0  0  0  0  0  0  0  0  0  0  0  0
  -25.7515  -11.7314   20.3868 N   0  0  0  0  0  0  0  0  0  0  0  0
  -22.4349  -14.2782   17.3884 N   0  0  0  0  0  0  0  0  0  0  0  0
  -24.7657  -12.2995   21.1021 N   0  0  0  0  0  0  0  0  0  0  0  0
  -26.8457  -23.2426   20.8163 N   0  0  0  0  0  0  0  0  0  0  0  0
  -21.9308   -9.8183   20.4416 N   0  0  0  0  0  0  0  0  0  0  0  0
  -24.1742  -14.2759   22.2659 N   0  0  0  0  0  0  0  0  0  0  0  0
  -28.3266  -15.1726   20.7331 N   0  0  0  0  0  0  0  0  0  0  0  0
  -25.5582  -26.3471   20.5445 N   0  0  0  0  0  0  0  0  0  0  0  0
  -29.9958  -22.1441   21.3896 N   0  0  0  0  0  0  0  0  0  0  0  0
  -30.2577  -19.0078   23.1681 N   0  3  0  0  0  0  0  0  0  0  0  0
  -26.5695  -16.0073   21.9475 O   0  0  0  0  0  0  0  0  0  0  0  0
  -24.9224  -24.5734   19.1763 O   0  0  0  0  0  0  0  0  0  0  0  0
  -19.6609   -9.5699   20.0103 O   0  0  0  0  0  0  0  0  0  0  0  0
  -28.4775  -24.5236   21.8806 O   0  0  0  0  0  0  0  0  0  0  0  0
  -29.3825  -20.0192   20.6927 O   0  0  0  0  0  0  0  0  0  0  0  0
  -31.5269  -11.7633   17.7050 O   0  0  0  0  0  0  0  0  0  0  0  0
  -23.0777  -19.0482   18.3140 O   0  0  0  0  0  0  0  0  0  1  0  0
  -33.4761  -15.7998   14.4939 F   0  0  0  0  0  0  0  0  0  0  0  0
  -31.9367  -11.3526   15.0020 F   0  0  0  0  0  0  0  0  0  0  0  0
  1  2  1  0  0  0  0
  1  5  2  0  0  0  0
  2  6  2  0  0  0  0
  3  8  2  0  0  0  0
  3 16  1  0  0  0  0
  4  9  1  0  0  0  0
  4 16  2  0  0  0  0
  5 18  1  0  0  0  0
  6 20  1  0  0  0  0
  7 10  2  0  0  0  0
  7 19  1  0  0  0  0
  8 24  1  0  0  0  0
  9 24  2  0  0  0  0
 10 25  1  0  0  0  0
 11 12  2  0  0  0  0
 11 26  1  0  0  0  0
 12 27  1  0  0  0  0
 13 21  1  0  0  0  0
 13 25  2  0  0  0  0
 14 22  2  0  0  0  0
 14 23  1  0  0  0  0
 15 27  2  0  0  0  0
 15 28  1  0  0  0  0
 16 29  1  0  0  0  0
 17 29  1  0  0  0  0
 17 32  2  0  0  0  0
 17 33  1  0  0  0  0
 18 20  2  0  0  0  0
 18 38  1  0  0  0  0
 19 21  2  0  0  0  0
 19 39  1  0  0  0  0
 20 47  1  0  0  0  0
 21 40  1  0  0  0  0
 22 30  1  0  0  0  0
 22 59  1  0  0  0  0
 23 31  2  0  0  0  0
 23 58  1  0  0  0  0
 24 82  1  0  0  0  0
 25 83  1  0  0  0  0
 26 28  2  0  0  0  0
 26 82  1  0  0  0  0
 27 84  1  0  0  0  0
 28 85  1  0  0  0  0
 29 67  2  0  0  0  0
 30 50  1  0  0  0  0
 30 68  2  0  0  0  0
 31 60  1  0  0  0  0
 31 68  1  0  0  0  0
 32 69  1  0  0  0  0
 32 72  1  0  0  0  0
 33 73  1  0  0  0  0
 33 77  2  0  0  0  0
 34 48  1  0  0  0  0
 34 74  1  0  0  0  0
 34 78  2  0  0  0  0
 35 63  1  0  0  0  0
 35 71  1  0  0  0  0
 35 79  2  0  0  0  0
 36 64  1  0  0  0  0
 36 70  1  0  0  0  0
 36 80  2  0  0  0  0
 37 65  1  0  0  0  0
 37 75  1  0  0  0  0
 37 81  2  0  0  0  0
 38 41  1  0  0  0  0
 39 48  1  0  0  0  0
 40 70  1  0  0  0  0
 41 43  1  0  0  0  0
 42 44  1  0  0  0  0
 42 45  1  0  0  0  0
 43 47  1  0  0  0  0
 44 49  1  0  0  0  0
 45 71  1  0  0  0  0
 46 49  1  0  0  0  0
 46 71  1  0  0  0  0
 47 74  1  0  0  0  0
 48 70  1  0  0  0  0
 49 69  1  0  0  0  0
 51 58  1  0  0  0  0
 52 63  1  0  0  0  0
 53 65  1  0  0  0  0
 54 66  1  0  0  0  0
 55 66  1  0  0  0  0
 56 66  1  0  0  0  0
 57 76  1  0  0  0  0
 59 63  1  0  0  0  0
 60 61  1  0  0  0  0
 61 62  1  0  0  0  0
 62 83  1  0  0  0  0
 64 66  1  0  0  0  0
 64 75  1  0  0  0  0
 65 76  1  0  0  0  0
 67 69  1  0  0  0  0
M  CHG  1  76   1
M  ISO  4  35 100  62 101  63 100  83 101
M  END
> <Batch ID>
0046

> <Smiles>
CCc1cc(C[100CH:0](C)[100C:0](=O)N2CCCC(n3nc(-c4ccc(Oc5ccc(F)cc5F)cc4)c(C(N)=O)c3N)C2)c(C)nc1CC[101CH2:1][101O:1]c1ccc2c(c1)CN(C(=O)C(NC(=O)C(C)NC)C(C)(C)C)C(C(=O)NC1CCCc3ccccc31)C2

> <Shape>
0.208

> <Color>
0.088

> <Negative vol penalty>
0.000

$$$$

  -OEChem-04052317213D

 85 93  0     1  0  0  0  0  0999 V2000
  -19.5947  -30.5128   25.2562 C   0  0  0  0  0  0  0  0  0  0  0  0
  -20.9266  -30.1821   25.0279 C   0  0  0  0  0  0  0  0  0  0  0  0
  -24.7701  -10.0613   21.4173 C   0  0  0  0  0  0  0  0  0  0  0  0
  -24.9637  -11.1861   23.5468 C   0  0  0  0  0  0  0  0  0  0  0  0
  -18.5825  -29.8258   24.5873 C   0  0  0  0  0  0  0  0  0  0  0  0
  -21.2470  -29.1633   24.1313 C   0  0  0  0  0  0  0  0  0  0  0  0
  -26.1208  -28.9135   20.4314 C   0  0  0  0  0  0  0  0  0  0  0  0
  -24.5880   -8.8454   22.0761 C   0  0  0  0  0  0  0  0  0  0  0  0
  -24.7816   -9.9701   24.2056 C   0  0  0  0  0  0  0  0  0  0  0  0
  -27.3492  -28.2632   20.5408 C   0  0  0  0  0  0  0  0  0  0  0  0
  -23.7120   -5.5012   23.2003 C   0  0  0  0  0  0  0  0  0  0  0  0
  -22.6954   -4.6622   22.7439 C   0  0  0  0  0  0  0  0  0  0  0  0
  -26.4884  -26.4295   19.2309 C   0  0  0  0  0  0  0  0  0  0  0  0
  -21.0656   -6.3839   23.2092 C   0  0  0  0  0  0  0  0  0  0  0  0
  -29.9375  -21.8815   24.4119 C   0  0  0  0  0  0  0  0  0  0  0  0
  -31.4314  -21.9315   22.7992 C   0  0  0  0  0  0  0  0  0  0  0  0
  -24.9580  -11.2317   22.1527 C   0  0  0  0  0  0  0  0  0  0  0  0
  -24.1493  -13.4010   21.0814 C   0  0  0  0  0  0  0  0  0  0  0  0
  -18.8911  -28.8046   23.6748 C   0  0  0  0  0  0  0  0  0  0  0  0
  -25.0617  -28.3207   19.7289 C   0  0  0  0  0  0  0  0  0  0  0  0
  -20.2379  -28.4611   23.4506 C   0  0  0  0  0  0  0  0  0  0  0  0
  -25.2483  -27.0755   19.1119 C   0  0  0  0  0  0  0  0  0  0  0  0
  -30.5438  -21.0871   23.4203 C   0  0  0  0  0  0  0  0  0  0  0  0
  -24.5937   -8.7998   23.4702 C   0  0  0  0  0  0  0  0  0  0  0  0
  -27.5322  -27.0197   19.9430 C   0  0  0  0  0  0  0  0  0  0  0  0
  -23.4053   -6.7815   23.6613 C   0  0  0  0  0  0  0  0  0  0  0  0
  -21.3722   -5.1035   22.7483 C   0  0  0  0  0  0  0  0  0  0  0  0
  -22.0821   -7.2228   23.6657 C   0  0  0  0  0  0  0  0  0  0  0  0
  -25.1468  -12.4879   21.4727 C   0  0  0  0  0  0  0  0  0  0  0  0
  -24.8384  -14.4249   20.4788 C   0  0  0  0  0  0  0  0  0  0  0  0
  -22.7270  -13.3299   21.2477 C   0  0  0  0  0  0  0  0  0  0  0  0
  -22.1408  -27.3268   20.4933 C   0  0  0  0  0  0  0  0  0  0  0  0
  -21.8905  -26.8447   17.2953 C   0  0  0  0  0  0  0  0  0  0  0  0
  -23.4618  -26.2857   14.3179 C   0  0  0  0  0  0  0  0  0  0  0  0
  -29.6948  -17.3781   20.8138 C   0  0  0  0  0  0  0  0  0  0  0  0
  -17.7609  -28.0583   23.0111 C   0  0  0  0  0  0  0  0  0  0  0  0
  -23.7513  -29.0472   19.5974 C   0  0  0  0  0  0  0  0  0  0  0  0
  -24.1495  -26.4056   18.3293 C   0  0  0  0  0  0  0  0  0  0  0  0
  -18.1989  -27.2449   21.7958 C   0  0  0  0  0  0  0  0  0  0  0  0
  -29.2969  -14.9016   18.4191 C   0  0  0  0  0  0  0  0  0  0  0  0
  -19.4603  -26.4480   22.1133 C   0  0  0  0  0  0  0  0  0  0  0  0
  -28.0905  -14.1039   18.9123 C   0  0  0  0  0  0  0  0  0  0  0  0
  -30.2026  -15.2928   19.5807 C   0  0  0  0  0  0  0  0  0  0  0  0
  -28.2945  -15.2881   21.1557 C   0  0  0  0  0  0  0  0  0  0  0  0
  -20.6265  -27.3787   22.4669 C   0  0  1  0  0  0  0  0  0  0  0  0
  -22.5805  -28.1175   19.2937 C   0  0  1  0  0  0  0  0  0  0  0  0
  -27.3409  -14.8661   20.0190 C   0  0  2  0  0  0  0  0  0  0  0  0
  -25.9281  -16.3493   23.4795 C   0  0  0  0  0  0  0  0  0  0  0  0
  -22.9900  -25.8961   11.8842 C   0  0  0  0  0  0  0  0  0  0  0  0
  -21.0488  -23.9791   17.9197 C   0  0  0  0  0  0  0  0  0  0  0  0
  -21.5145  -23.3956   15.5300 C   0  0  0  0  0  0  0  0  0  0  0  0
  -19.7506  -25.0708   16.0819 C   0  0  0  0  0  0  0  0  0  0  0  0
  -24.9481  -28.7178   13.5213 C   0  0  0  0  0  0  0  0  0  0  0  0
  -30.2883  -19.6700   23.1174 C   0  0  0  0  0  0  0  0  0  0  0  0
  -26.7484  -17.0592   22.4114 C   0  0  0  0  0  0  0  0  0  0  0  0
  -31.1802  -25.5976   22.7966 C   0  0  0  0  0  0  0  0  0  0  0  0
  -30.3428  -25.4028   21.5317 C   0  0  0  0  0  0  0  0  0  0  0  0
  -32.0734  -24.3935   23.1163 C   0  0  0  0  0  0  0  0  0  0  0  0
  -29.1803  -19.4349   22.0717 C   0  0  0  0  0  0  0  0  0  0  0  0
  -28.1870  -17.3133   22.8454 C   0  0  0  0  0  0  0  0  0  0  0  0
  -29.4961  -26.6312   21.2269 C   0  0  0  0  0  0  0  0  0  1  0  0
  -22.1844  -25.6959   16.3611 C   0  0  1  0  0  0  0  0  0  0  0  0
  -23.2960  -26.9322   12.9545 C   0  0  2  0  0  0  0  0  0  0  0  0
  -21.1449  -24.5468   16.4895 C   0  0  0  0  0  0  0  0  0  0  0  0
  -30.4007  -23.1342   24.4237 N   0  0  0  0  0  0  0  0  0  0  0  0
  -26.3760  -12.8958   21.1461 N   0  0  0  0  0  0  0  0  0  0  0  0
  -31.3077  -23.1333   23.4320 N   0  0  0  0  0  0  0  0  0  0  0  0
  -26.1555  -14.0764   20.5431 N   0  0  0  0  0  0  0  0  0  0  0  0
  -22.8847  -27.1530   18.2347 N   0  0  0  0  0  0  0  0  0  0  0  0
  -29.4568  -16.0100   20.6154 N   0  0  0  0  0  0  0  0  0  0  0  0
  -24.4403  -15.5804   19.9055 N   0  0  0  0  0  0  0  0  0  0  0  0
  -22.1845  -12.2079   21.8888 N   0  0  0  0  0  0  0  0  0  0  0  0
  -21.1890  -27.9621   21.2679 N   0  0  0  0  0  0  0  0  0  0  0  0
  -22.2773  -26.2710   15.0236 N   0  0  0  0  0  0  0  0  0  0  0  0
  -28.9601  -18.0172   21.8239 N   0  0  0  0  0  0  0  0  0  0  0  0
  -24.5418  -27.6531   12.5682 N   0  3  0  0  0  0  0  0  0  0  0  0
  -21.9586  -14.2269   20.8253 O   0  0  0  0  0  0  0  0  0  0  0  0
  -22.6279  -26.2215   20.7001 O   0  0  0  0  0  0  0  0  0  0  0  0
  -20.8213  -27.4510   17.1907 O   0  0  0  0  0  0  0  0  0  0  0  0
  -24.5339  -25.8351   14.7155 O   0  0  0  0  0  0  0  0  0  0  0  0
  -30.5237  -17.9944   20.1317 O   0  0  0  0  0  0  0  0  0  0  0  0
  -24.4158   -7.6135   24.1134 O   0  0  0  0  0  0  0  0  0  0  0  0
  -28.7300  -26.3825   20.0489 O   0  0  0  0  0  0  0  0  0  1  0  0
  -20.3963   -4.2983   22.3085 F   0  0  0  0  0  0  0  0  0  0  0  0
  -21.7815   -8.4522   24.1062 F   0  0  0  0  0  0  0  0  0  0  0  0
  1  2  1  0  0  0  0
  1  5  2  0  0  0  0
  2  6  2  0  0  0  0
  3  8  2  0  0  0  0
  3 17  1  0  0  0  0
  4  9  1  0  0  0  0
  4 17  2  0  0  0  0
  5 19  1  0  0  0  0
  6 21  1  0  0  0  0
  7 10  2  0  0  0  0
  7 20  1  0  0  0  0
  8 24  1  0  0  0  0
  9 24  2  0  0  0  0
 10 25  1  0  0  0  0
 11 12  2  0  0  0  0
 11 26  1  0  0  0  0
 12 27  1  0  0  0  0
 13 22  1  0  0  0  0
 13 25  2  0  0  0  0
 14 27  2  0  0  0  0
 14 28  1  0  0  0  0
 15 23  1  0  0  0  0
 15 65  2  0  0  0  0
 16 23  2  0  0  0  0
 16 67  1  0  0  0  0
 17 29  1  0  0  0  0
 18 29  1  0  0  0  0
 18 30  2  0  0  0  0
 18 31  1  0  0  0  0
 19 21  2  0  0  0  0
 19 36  1  0  0  0  0
 20 22  2  0  0  0  0
 20 37  1  0  0  0  0
 21 45  1  0  0  0  0
 22 38  1  0  0  0  0
 23 54  1  0  0  0  0
 24 82  1  0  0  0  0
 25 83  1  0  0  0  0
 26 28  2  0  0  0  0
 26 82  1  0  0  0  0
 27 84  1  0  0  0  0
 28 85  1  0  0  0  0
 29 66  2  0  0  0  0
 30 68  1  0  0  0  0
 30 71  1  0  0  0  0
 31 72  1  0  0  0  0
 31 77  2  0  0  0  0
 32 46  1  0  0  0  0
 32 73  1  0  0  0  0
 32 78  2  0  0  0  0
 33 62  1  0  0  0  0
 33 69  1  0  0  0  0
 33 79  2  0  0  0  0
 34 63  1  0  0  0  0
 34 74  1  0  0  0  0
 34 80  2  0  0  0  0
 35 70  1  0  0  0  0
 35 75  1  0  0  0  0
 35 81  2  0  0  0  0
 36 39  1  0  0  0  0
 37 46  1  0  0  0  0
 38 69  1  0  0  0  0
 39 41  1  0  0  0  0
 40 42  1  0  0  0  0
 40 43  1  0  0  0  0
 41 45  1  0  0  0  0
 42 47  1  0  0  0  0
 43 70  1  0  0  0  0
 44 47  1  0  0  0  0
 44 70  1  0  0  0  0
 45 73  1  0  0  0  0
 46 69  1  0  0  0  0
 47 68  1  0  0  0  0
 48 55  1  0  0  0  0
 49 63  1  0  0  0  0
 50 64  1  0  0  0  0
 51 64  1  0  0  0  0
 52 64  1  0  0  0  0
 53 76  1  0  0  0  0
 54 59  1  0  0  0  0
 55 60  1  0  0  0  0
 56 57  1  0  0  0  0
 56 58  1  0  0  0  0
 57 61  1  0  0  0  0
 58 67  1  0  0  0  0
 59 75  1  0  0  0  0
 60 75  1  0  0  0  0
 61 83  1  0  0  0  0
 62 64  1  0  0  0  0
 62 74  1  0  0  0  0
 63 76  1  0  0  0  0
 65 67  1  0  0  0  0
 66 68  1  0  0  0  0
M  CHG  1  76   1
M  ISO  4  35 100  61 101  75 100  83 101
M  END
> <Batch ID>
0046

> <Smiles>
CCC[100N:0](CCc1cnn(CCC[101CH2:1][101O:1]c2ccc3c(c2)CN(C(=O)C(NC(=O)C(C)NC)C(C)(C)C)C(C(=O)NC2CCCc4ccccc42)C3)c1)[100C:0](=O)N1CCCC(n2nc(-c3ccc(Oc4ccc(F)cc4F)cc3)c(C(N)=O)c2N)C1

> <Shape>
0.252

> <Color>
0.124

> <Negative vol penalty>
0.000

$$$$

  -OEChem-04052317213D

 82 90  0     1  0  0  0  0  0999 V2000
  -26.1209  -35.5107   23.0901 C   0  0  0  0  0  0  0  0  0  0  0  0
  -26.6426  -34.2352   22.8992 C   0  0  0  0  0  0  0  0  0  0  0  0
  -27.4903  -12.0908   19.6484 C   0  0  0  0  0  0  0  0  0  0  0  0
  -29.3531  -13.5770   20.0465 C   0  0  0  0  0  0  0  0  0  0  0  0
  -24.8124  -35.6664   23.5458 C   0  0  0  0  0  0  0  0  0  0  0  0
  -25.8564  -33.1146   23.1650 C   0  0  0  0  0  0  0  0  0  0  0  0
  -26.1968  -29.5978   19.5372 C   0  0  0  0  0  0  0  0  0  0  0  0
  -28.2979  -11.2968   18.8342 C   0  0  0  0  0  0  0  0  0  0  0  0
  -30.1607  -12.7829   19.2323 C   0  0  0  0  0  0  0  0  0  0  0  0
  -27.3339  -28.7911   19.5371 C   0  0  0  0  0  0  0  0  0  0  0  0
  -29.4895  -11.3762   15.6722 C   0  0  0  0  0  0  0  0  0  0  0  0
  -28.9594  -10.9476   14.4554 C   0  0  0  0  0  0  0  0  0  0  0  0
  -26.0789  -27.0324   20.6100 C   0  0  0  0  0  0  0  0  0  0  0  0
  -29.2418   -8.6485   15.1420 C   0  0  0  0  0  0  0  0  0  0  0  0
  -28.0179  -13.2310   20.2545 C   0  0  0  0  0  0  0  0  0  0  0  0
  -26.9893  -13.9245   22.4836 C   0  0  0  0  0  0  0  0  0  0  0  0
  -24.0066  -34.5472   23.8081 C   0  0  0  0  0  0  0  0  0  0  0  0
  -24.9930  -29.1310   20.0845 C   0  0  0  0  0  0  0  0  0  0  0  0
  -24.5364  -33.2555   23.6260 C   0  0  0  0  0  0  0  0  0  0  0  0
  -24.9273  -27.8341   20.6135 C   0  0  0  0  0  0  0  0  0  0  0  0
  -29.2118  -22.4160   20.4617 C   0  0  0  0  0  0  0  0  0  0  0  0
  -29.6330  -11.6428   18.6262 C   0  0  0  0  0  0  0  0  0  0  0  0
  -27.2758  -27.5092   20.0762 C   0  0  0  0  0  0  0  0  0  0  0  0
  -29.8959  -10.4409   16.6240 C   0  0  0  0  0  0  0  0  0  0  0  0
  -28.8354   -9.5838   14.1903 C   0  0  0  0  0  0  0  0  0  0  0  0
  -29.7720   -9.0771   16.3589 C   0  0  0  0  0  0  0  0  0  0  0  0
  -27.1841  -14.0520   21.0952 C   0  0  0  0  0  0  0  0  0  0  0  0
  -30.2819  -22.1320   21.3311 C   0  0  0  0  0  0  0  0  0  0  0  0
  -28.1146  -21.8629   21.0755 C   0  0  0  0  0  0  0  0  0  0  0  0
  -26.1158  -14.9354   22.8021 C   0  0  0  0  0  0  0  0  0  0  0  0
  -27.5482  -12.9770   23.4032 C   0  0  0  0  0  0  0  0  0  0  0  0
  -23.1222  -30.0366   22.4894 C   0  0  0  0  0  0  0  0  0  0  0  0
  -21.1729  -27.7156   21.3338 C   0  0  0  0  0  0  0  0  0  0  0  0
  -20.8522  -24.8244   19.5492 C   0  0  0  0  0  0  0  0  0  0  0  0
  -24.8629  -20.1999   20.2395 C   0  0  0  0  0  0  0  0  0  0  0  0
  -22.6139  -34.7651   24.3444 C   0  0  0  0  0  0  0  0  0  0  0  0
  -23.7683  -30.0037   20.0527 C   0  0  0  0  0  0  0  0  0  0  0  0
  -23.6538  -27.2784   21.1948 C   0  0  0  0  0  0  0  0  0  0  0  0
  -21.7228  -33.5296   24.2451 C   0  0  0  0  0  0  0  0  0  0  0  0
  -22.5790  -17.5569   20.9285 C   0  0  0  0  0  0  0  0  0  0  0  0
  -22.4673  -32.2933   24.7390 C   0  0  0  0  0  0  0  0  0  0  0  0
  -23.4827  -16.3474   21.1747 C   0  0  0  0  0  0  0  0  0  0  0  0
  -23.1390  -18.4670   19.8376 C   0  0  0  0  0  0  0  0  0  0  0  0
  -25.4343  -17.6966   20.2974 C   0  0  0  0  0  0  0  0  0  0  0  0
  -23.7066  -32.0156   23.8797 C   0  0  1  0  0  0  0  0  0  0  0  0
  -22.7305  -29.6154   21.1013 C   0  0  1  0  0  0  0  0  0  0  0  0
  -24.9398  -16.7785   21.4283 C   0  0  2  0  0  0  0  0  0  0  0  0
  -31.7007  -22.4944   21.1663 C   0  0  0  0  0  0  0  0  0  0  0  0
  -19.1399  -23.1455   18.8098 C   0  0  0  0  0  0  0  0  0  0  0  0
  -21.1229  -26.5319   24.1456 C   0  0  0  0  0  0  0  0  0  0  0  0
  -20.2255  -24.4117   23.1618 C   0  0  0  0  0  0  0  0  0  0  0  0
  -18.9147  -26.5255   22.9717 C   0  0  0  0  0  0  0  0  0  0  0  0
  -27.8008  -20.5971   23.2237 C   0  0  0  0  0  0  0  0  0  0  0  0
  -21.3795  -25.3733   16.6892 C   0  0  0  0  0  0  0  0  0  0  0  0
  -29.2561  -23.1593   19.1505 C   0  0  0  0  0  0  0  0  0  0  0  0
  -26.6954  -21.8157   20.6758 C   0  0  0  0  0  0  0  0  0  0  0  0
  -29.3775  -24.6767   19.3065 C   0  0  0  0  0  0  0  0  0  0  0  0
  -28.1780  -25.3100   20.0019 C   0  0  0  0  0  0  0  0  0  1  0  0
  -21.0077  -26.2359   21.5834 C   0  0  1  0  0  0  0  0  0  0  0  0
  -19.8858  -24.4210   18.4502 C   0  0  2  0  0  0  0  0  0  0  0  0
  -20.3424  -25.9371   22.9565 C   0  0  0  0  0  0  0  0  0  0  0  0
  -26.4900  -15.0641   20.5680 N   0  0  0  0  0  0  0  0  0  0  0  0
  -29.8993  -21.4514   22.4148 N   0  0  0  0  0  0  0  0  0  0  0  0
  -28.5763  -21.3032   22.2305 N   0  0  0  0  0  0  0  0  0  0  0  0
  -25.8505  -15.5816   21.6306 N   0  0  0  0  0  0  0  0  0  0  0  0
  -22.4851  -28.1725   21.1463 N   0  0  0  0  0  0  0  0  0  0  0  0
  -24.5229  -18.8407   20.1391 N   0  0  0  0  0  0  0  0  0  0  0  0
  -25.5564  -15.3257   23.9670 N   0  0  0  0  0  0  0  0  0  0  0  0
  -28.4284  -12.0050   22.9085 N   0  0  0  0  0  0  0  0  0  0  0  0
  -23.3256  -31.3963   22.6284 N   0  0  0  0  0  0  0  0  0  0  0  0
  -20.2757  -25.7079   20.4372 N   0  0  0  0  0  0  0  0  0  0  0  0
  -26.1944  -20.4667   20.5342 N   0  0  0  0  0  0  0  0  0  0  0  0
  -20.6197  -24.1921   17.1735 N   0  3  0  0  0  0  0  0  0  0  0  0
  -27.2622  -12.9817   24.6245 O   0  0  0  0  0  0  0  0  0  0  0  0
  -23.2303  -29.1909   23.3696 O   0  0  0  0  0  0  0  0  0  0  0  0
  -20.1738  -28.4382   21.2993 O   0  0  0  0  0  0  0  0  0  0  0  0
  -22.0020  -24.3955   19.6157 O   0  0  0  0  0  0  0  0  0  0  0  0
  -24.0398  -21.1082   20.0836 O   0  0  0  0  0  0  0  0  0  0  0  0
  -30.4214  -10.8680   17.8320 O   0  0  0  0  0  0  0  0  0  0  0  0
  -28.3844  -26.7200   20.0780 O   0  0  0  0  0  0  0  0  0  1  0  0
  -28.3248   -9.1724   13.0223 F   0  0  0  0  0  0  0  0  0  0  0  0
  -30.1596   -8.1739   17.2699 F   0  0  0  0  0  0  0  0  0  0  0  0
  1  2  1  0  0  0  0
  1  5  2  0  0  0  0
  2  6  2  0  0  0  0
  3  8  2  0  0  0  0
  3 15  1  0  0  0  0
  4  9  1  0  0  0  0
  4 15  2  0  0  0  0
  5 17  1  0  0  0  0
  6 19  1  0  0  0  0
  7 10  2  0  0  0  0
  7 18  1  0  0  0  0
  8 22  1  0  0  0  0
  9 22  2  0  0  0  0
 10 23  1  0  0  0  0
 11 12  2  0  0  0  0
 11 24  1  0  0  0  0
 12 25  1  0  0  0  0
 13 20  1  0  0  0  0
 13 23  2  0  0  0  0
 14 25  2  0  0  0  0
 14 26  1  0  0  0  0
 15 27  1  0  0  0  0
 16 27  1  0  0  0  0
 16 30  2  0  0  0  0
 16 31  1  0  0  0  0
 17 19  2  0  0  0  0
 17 36  1  0  0  0  0
 18 20  2  0  0  0  0
 18 37  1  0  0  0  0
 19 45  1  0  0  0  0
 20 38  1  0  0  0  0
 21 28  1  0  0  0  0
 21 29  2  0  0  0  0
 21 55  1  0  0  0  0
 22 79  1  0  0  0  0
 23 80  1  0  0  0  0
 24 26  2  0  0  0  0
 24 79  1  0  0  0  0
 25 81  1  0  0  0  0
 26 82  1  0  0  0  0
 27 62  2  0  0  0  0
 28 48  1  0  0  0  0
 28 63  2  0  0  0  0
 29 56  1  0  0  0  0
 29 64  1  0  0  0  0
 30 65  1  0  0  0  0
 30 68  1  0  0  0  0
 31 69  1  0  0  0  0
 31 74  2  0  0  0  0
 32 46  1  0  0  0  0
 32 70  1  0  0  0  0
 32 75  2  0  0  0  0
 33 59  1  0  0  0  0
 33 66  1  0  0  0  0
 33 76  2  0  0  0  0
 34 60  1  0  0  0  0
 34 71  1  0  0  0  0
 34 77  2  0  0  0  0
 35 67  1  0  0  0  0
 35 72  1  0  0  0  0
 35 78  2  0  0  0  0
 36 39  1  0  0  0  0
 37 46  1  0  0  0  0
 38 66  1  0  0  0  0
 39 41  1  0  0  0  0
 40 42  1  0  0  0  0
 40 43  1  0  0  0  0
 41 45  1  0  0  0  0
 42 47  1  0  0  0  0
 43 67  1  0  0  0  0
 44 47  1  0  0  0  0
 44 67  1  0  0  0  0
 45 70  1  0  0  0  0
 46 66  1  0  0  0  0
 47 65  1  0  0  0  0
 49 60  1  0  0  0  0
 50 61  1  0  0  0  0
 51 61  1  0  0  0  0
 52 61  1  0  0  0  0
 53 64  1  0  0  0  0
 54 73  1  0  0  0  0
 55 57  1  0  0  0  0
 56 72  1  0  0  0  0
 57 58  1  0  0  0  0
 58 80  1  0  0  0  0
 59 61  1  0  0  0  0
 59 71  1  0  0  0  0
 60 73  1  0  0  0  0
 62 65  1  0  0  0  0
 63 64  1  0  0  0  0
M  CHG  1  73   1
M  ISO  4  35 100  58 101  72 100  80 101
M  END
> <Batch ID>
0046

> <Smiles>
CNC(C)C(=O)NC(C(=O)N1Cc2cc([101O:1][101CH2:1]CCc3c(C)nn(C)c3C[100NH:0][100C:0](=O)N3CCCC(n4nc(-c5ccc(Oc6ccc(F)cc6F)cc5)c(C(N)=O)c4N)C3)ccc2CC1C(=O)NC1CCCc2ccccc21)C(C)(C)C

> <Shape>
0.238

> <Color>
0.078

> <Negative vol penalty>
0.000

$$$$

  -OEChem-04052317213D

 87 95  0     1  0  0  0  0  0999 V2000
  -22.6159  -27.1769   24.6837 C   0  0  0  0  0  0  0  0  0  0  0  0
  -22.9440  -26.0376   23.9576 C   0  0  0  0  0  0  0  0  0  0  0  0
  -26.6252  -26.8770   17.3749 C   0  0  0  0  0  0  0  0  0  0  0  0
  -26.0081  -26.0677   19.5661 C   0  0  0  0  0  0  0  0  0  0  0  0
  -21.4473  -27.8752   24.3872 C   0  0  0  0  0  0  0  0  0  0  0  0
  -22.1099  -25.6031   22.9269 C   0  0  0  0  0  0  0  0  0  0  0  0
  -23.7316  -21.8706   20.1625 C   0  0  0  0  0  0  0  0  0  0  0  0
  -25.7910  -27.9815   17.5479 C   0  0  0  0  0  0  0  0  0  0  0  0
  -25.1740  -27.1722   19.7391 C   0  0  0  0  0  0  0  0  0  0  0  0
  -23.8008  -20.5596   20.6319 C   0  0  0  0  0  0  0  0  0  0  0  0
  -23.1586  -29.9647   20.9048 C   0  0  0  0  0  0  0  0  0  0  0  0
  -23.2097  -30.6315   22.1289 C   0  0  0  0  0  0  0  0  0  0  0  0
  -21.8147  -20.0120   19.3769 C   0  0  0  0  0  0  0  0  0  0  0  0
  -25.5517  -31.1061   21.7726 C   0  0  0  0  0  0  0  0  0  0  0  0
  -26.7337  -25.9201   18.3840 C   0  0  0  0  0  0  0  0  0  0  0  0
  -28.9556  -24.6781   18.5519 C   0  0  0  0  0  0  0  0  0  0  0  0
  -20.5926  -27.4412   23.3605 C   0  0  0  0  0  0  0  0  0  0  0  0
  -22.6956  -22.2656   19.3041 C   0  0  0  0  0  0  0  0  0  0  0  0
  -20.9382  -26.3079   22.5967 C   0  0  0  0  0  0  0  0  0  0  0  0
  -21.7361  -21.3279   18.8961 C   0  0  0  0  0  0  0  0  0  0  0  0
  -26.0761  -13.5655   19.7520 C   0  0  0  0  0  0  0  0  0  0  0  0
  -25.0654  -28.1291   18.7300 C   0  0  0  0  0  0  0  0  0  0  0  0
  -22.8406  -19.6308   20.2414 C   0  0  0  0  0  0  0  0  0  0  0  0
  -24.3041  -29.8685   20.1146 C   0  0  0  0  0  0  0  0  0  0  0  0
  -24.4062  -31.2022   22.5628 C   0  0  0  0  0  0  0  0  0  0  0  0
  -25.5006  -30.4392   20.5485 C   0  0  0  0  0  0  0  0  0  0  0  0
  -27.5948  -24.7787   18.2057 C   0  0  0  0  0  0  0  0  0  0  0  0
  -25.9980  -12.1887   19.7003 C   0  0  0  0  0  0  0  0  0  0  0  0
  -25.5106  -14.1541   20.8647 C   0  0  0  0  0  0  0  0  0  0  0  0
  -29.3106  -23.4038   18.1822 C   0  0  0  0  0  0  0  0  0  0  0  0
  -24.9008  -12.1258   21.6901 C   0  0  0  0  0  0  0  0  0  0  0  0
  -29.8213  -25.6495   19.1540 C   0  0  0  0  0  0  0  0  0  0  0  0
  -20.3282  -24.3802   19.4702 C   0  0  0  0  0  0  0  0  0  0  0  0
  -19.8570  -23.5118   16.3805 C   0  0  0  0  0  0  0  0  0  0  0  0
  -20.2488  -21.1580   13.9406 C   0  0  0  0  0  0  0  0  0  0  0  0
  -28.3129  -18.0238   18.0955 C   0  0  0  0  0  0  0  0  0  0  0  0
  -19.3445  -28.2392   23.0767 C   0  0  0  0  0  0  0  0  0  0  0  0
  -22.6503  -23.6767   18.7854 C   0  0  0  0  0  0  0  0  0  0  0  0
  -20.6152  -21.6963   17.9599 C   0  0  0  0  0  0  0  0  0  0  0  0
  -18.3090  -27.4580   22.2743 C   0  0  0  0  0  0  0  0  0  0  0  0
  -26.8335  -19.9633   15.4220 C   0  0  0  0  0  0  0  0  0  0  0  0
  -18.9668  -26.8171   21.0615 C   0  0  0  0  0  0  0  0  0  0  0  0
  -27.0157  -21.3896   15.9442 C   0  0  0  0  0  0  0  0  0  0  0  0
  -26.5032  -18.9974   16.5561 C   0  0  0  0  0  0  0  0  0  0  0  0
  -27.6770  -20.4173   18.1931 C   0  0  0  0  0  0  0  0  0  0  0  0
  -20.0306  -25.7990   21.4914 C   0  0  1  0  0  0  0  0  0  0  0  0
  -21.2589  -24.0995   18.3244 C   0  0  1  0  0  0  0  0  0  0  0  0
  -28.0351  -21.4381   17.0977 C   0  0  2  0  0  0  0  0  0  0  0  0
  -26.1191   -9.9863   18.5081 C   0  0  0  0  0  0  0  0  0  0  0  0
  -22.8601  -10.8376   22.3700 C   0  0  0  0  0  0  0  0  0  0  0  0
  -19.7266  -20.7181   11.5258 C   0  0  0  0  0  0  0  0  0  0  0  0
  -16.9521  -22.9370   17.1159 C   0  0  0  0  0  0  0  0  0  0  0  0
  -16.7430  -21.6373   14.9863 C   0  0  0  0  0  0  0  0  0  0  0  0
  -17.2644  -24.0755   14.9112 C   0  0  0  0  0  0  0  0  0  0  0  0
  -23.1159  -20.9388   13.2404 C   0  0  0  0  0  0  0  0  0  0  0  0
  -26.7289  -14.3625   18.6790 C   0  0  0  0  0  0  0  0  0  0  0  0
  -26.5759  -11.4416   18.5434 C   0  0  0  0  0  0  0  0  0  0  0  0
  -25.5336  -15.6525   21.0315 C   0  0  0  0  0  0  0  0  0  0  0  0
  -24.2506  -11.3262   22.7677 C   0  0  0  0  0  0  0  0  0  0  0  0
  -28.1608  -14.8329   19.0097 C   0  0  0  0  0  0  0  0  0  0  0  0
  -24.1922  -16.3261   20.7337 C   0  0  0  0  0  0  0  0  0  0  0  0
  -28.8417  -15.6087   17.8841 C   0  0  0  0  0  0  0  0  0  0  0  0
  -24.2018  -17.8290   20.9875 C   0  0  0  0  0  0  0  0  0  1  0  0
  -19.0424  -22.4510   15.6805 C   0  0  1  0  0  0  0  0  0  0  0  0
  -20.7491  -21.2625   12.5112 C   0  0  2  0  0  0  0  0  0  0  0  0
  -17.5204  -22.7684   15.6927 C   0  0  0  0  0  0  0  0  0  0  0  0
  -27.1178  -23.6578   17.6579 N   0  0  0  0  0  0  0  0  0  0  0  0
  -25.4154  -11.4345   20.6553 N   0  0  0  0  0  0  0  0  0  0  0  0
  -24.9124  -13.4622   21.8565 N   0  0  0  0  0  0  0  0  0  0  0  0
  -28.1848  -22.8407   17.6571 N   0  0  0  0  0  0  0  0  0  0  0  0
  -20.6105  -23.0899   17.4851 N   0  0  0  0  0  0  0  0  0  0  0  0
  -27.5217  -19.0794   17.6125 N   0  0  0  0  0  0  0  0  0  0  0  0
  -30.4729  -22.7213   18.2582 N   0  0  0  0  0  0  0  0  0  0  0  0
  -29.2944  -26.9092   19.4700 N   0  0  0  0  0  0  0  0  0  0  0  0
  -20.7720  -25.3702   20.3260 N   0  0  0  0  0  0  0  0  0  0  0  0
  -19.6133  -22.3129   14.3450 N   0  0  0  0  0  0  0  0  0  0  0  0
  -28.0993  -16.7879   17.4975 N   0  0  0  0  0  0  0  0  0  0  0  0
  -22.0150  -20.4934   12.3479 N   0  3  0  0  0  0  0  0  0  0  0  0
  -31.0306  -25.4132   19.3892 O   0  0  0  0  0  0  0  0  0  0  0  0
  -19.2840  -23.7466   19.5696 O   0  0  0  0  0  0  0  0  0  0  0  0
  -19.8316  -24.6705   15.9583 O   0  0  0  0  0  0  0  0  0  0  0  0
  -20.4028  -20.1511   14.6283 O   0  0  0  0  0  0  0  0  0  0  0  0
  -29.1520  -18.1729   18.9904 O   0  0  0  0  0  0  0  0  0  0  0  0
  -24.2516  -29.2069   18.8993 O   0  0  0  0  0  0  0  0  0  0  0  0
  -22.9054  -18.3507   20.6985 O   0  0  0  0  0  0  0  0  0  1  0  0
  -24.4548  -31.8438   23.7375 F   0  0  0  0  0  0  0  0  0  0  0  0
  -26.6040  -30.3511   19.7932 F   0  0  0  0  0  0  0  0  0  0  0  0
  1  2  1  0  0  0  0
  1  5  2  0  0  0  0
  2  6  2  0  0  0  0
  3  8  2  0  0  0  0
  3 15  1  0  0  0  0
  4  9  1  0  0  0  0
  4 15  2  0  0  0  0
  5 17  1  0  0  0  0
  6 19  1  0  0  0  0
  7 10  2  0  0  0  0
  7 18  1  0  0  0  0
  8 22  1  0  0  0  0
  9 22  2  0  0  0  0
 10 23  1  0  0  0  0
 11 12  2  0  0  0  0
 11 24  1  0  0  0  0
 12 25  1  0  0  0  0
 13 20  1  0  0  0  0
 13 23  2  0  0  0  0
 14 25  2  0  0  0  0
 14 26  1  0  0  0  0
 15 27  1  0  0  0  0
 16 27  1  0  0  0  0
 16 30  2  0  0  0  0
 16 32  1  0  0  0  0
 17 19  2  0  0  0  0
 17 37  1  0  0  0  0
 18 20  2  0  0  0  0
 18 38  1  0  0  0  0
 19 46  1  0  0  0  0
 20 39  1  0  0  0  0
 21 28  1  0  0  0  0
 21 29  2  0  0  0  0
 21 56  1  0  0  0  0
 22 84  1  0  0  0  0
 23 85  1  0  0  0  0
 24 26  2  0  0  0  0
 24 84  1  0  0  0  0
 25 86  1  0  0  0  0
 26 87  1  0  0  0  0
 27 67  2  0  0  0  0
 28 57  1  0  0  0  0
 28 68  2  0  0  0  0
 29 58  1  0  0  0  0
 29 69  1  0  0  0  0
 30 70  1  0  0  0  0
 30 73  1  0  0  0  0
 31 59  1  0  0  0  0
 31 68  1  0  0  0  0
 31 69  2  0  0  0  0
 32 74  1  0  0  0  0
 32 79  2  0  0  0  0
 33 47  1  0  0  0  0
 33 75  1  0  0  0  0
 33 80  2  0  0  0  0
 34 64  1  0  0  0  0
 34 71  1  0  0  0  0
 34 81  2  0  0  0  0
 35 65  1  0  0  0  0
 35 76  1  0  0  0  0
 35 82  2  0  0  0  0
 36 72  1  0  0  0  0
 36 77  1  0  0  0  0
 36 83  2  0  0  0  0
 37 40  1  0  0  0  0
 38 47  1  0  0  0  0
 39 71  1  0  0  0  0
 40 42  1  0  0  0  0
 41 43  1  0  0  0  0
 41 44  1  0  0  0  0
 42 46  1  0  0  0  0
 43 48  1  0  0  0  0
 44 72  1  0  0  0  0
 45 48  1  0  0  0  0
 45 72  1  0  0  0  0
 46 75  1  0  0  0  0
 47 71  1  0  0  0  0
 48 70  1  0  0  0  0
 49 57  1  0  0  0  0
 50 59  1  0  0  0  0
 51 65  1  0  0  0  0
 52 66  1  0  0  0  0
 53 66  1  0  0  0  0
 54 66  1  0  0  0  0
 55 78  1  0  0  0  0
 56 60  1  0  0  0  0
 58 61  1  0  0  0  0
 60 62  1  0  0  0  0
 61 63  1  0  0  0  0
 62 77  1  0  0  0  0
 63 85  1  0  0  0  0
 64 66  1  0  0  0  0
 64 76  1  0  0  0  0
 65 78  1  0  0  0  0
 67 70  1  0  0  0  0
M  CHG  1  78   1
M  ISO  4  36 100  63 101  77 100  85 101
M  END
> <Batch ID>
0046

> <Smiles>
CCc1nc(CC)c(CCC[100NH:0][100C:0](=O)N2CCCC(n3nc(-c4ccc(Oc5ccc(F)cc5F)cc4)c(C(N)=O)c3N)C2)c(CC[101CH2:1][101O:1]c2ccc3c(c2)CN(C(=O)C(NC(=O)C(C)NC)C(C)(C)C)C(C(=O)NC2CCCc4ccccc42)C3)n1

> <Shape>
0.213

> <Color>
0.073

> <Negative vol penalty>
0.000

$$$$

  -OEChem-04052317213D

 81 89  0     1  0  0  0  0  0999 V2000
  -23.5098  -18.2105   23.5877 C   0  0  0  0  0  0  0  0  0  0  0  0
  -23.8391  -19.0272   22.5107 C   0  0  0  0  0  0  0  0  0  0  0  0
  -26.1529  -12.7790   21.3093 C   0  0  0  0  0  0  0  0  0  0  0  0
  -26.1451  -12.9981   18.9032 C   0  0  0  0  0  0  0  0  0  0  0  0
  -22.4178  -18.5287   24.3941 C   0  0  0  0  0  0  0  0  0  0  0  0
  -23.0759  -20.1621   22.2388 C   0  0  0  0  0  0  0  0  0  0  0  0
  -25.9264  -24.2207   21.2154 C   0  0  0  0  0  0  0  0  0  0  0  0
  -24.9987  -11.9987   21.2420 C   0  0  0  0  0  0  0  0  0  0  0  0
  -24.9909  -12.2178   18.8359 C   0  0  0  0  0  0  0  0  0  0  0  0
  -26.4861  -24.3007   19.9410 C   0  0  0  0  0  0  0  0  0  0  0  0
  -24.1950   -8.7985   20.5032 C   0  0  0  0  0  0  0  0  0  0  0  0
  -24.1527   -7.6360   21.2729 C   0  0  0  0  0  0  0  0  0  0  0  0
  -24.7362  -25.8214   19.2744 C   0  0  0  0  0  0  0  0  0  0  0  0
  -27.5180  -22.8020   15.9079 C   0  0  0  0  0  0  0  0  0  0  0  0
  -22.2176   -8.4829   22.4456 C   0  0  0  0  0  0  0  0  0  0  0  0
  -25.3185  -22.4567   15.0713 C   0  0  0  0  0  0  0  0  0  0  0  0
  -26.7261  -13.2788   20.1399 C   0  0  0  0  0  0  0  0  0  0  0  0
  -29.2517  -13.6370   20.1634 C   0  0  0  0  0  0  0  0  0  0  0  0
  -21.6467  -19.6734   24.1378 C   0  0  0  0  0  0  0  0  0  0  0  0
  -24.7592  -24.9332   21.5261 C   0  0  0  0  0  0  0  0  0  0  0  0
  -21.9718  -20.4953   23.0418 C   0  0  0  0  0  0  0  0  0  0  0  0
  -24.1651  -25.7508   20.5542 C   0  0  0  0  0  0  0  0  0  0  0  0
  -26.3207  -23.3371   15.4458 C   0  0  0  0  0  0  0  0  0  0  0  0
  -27.6742  -21.4223   15.9805 C   0  0  0  0  0  0  0  0  0  0  0  0
  -24.4177  -11.7181   20.0053 C   0  0  0  0  0  0  0  0  0  0  0  0
  -25.8894  -25.0989   18.9694 C   0  0  0  0  0  0  0  0  0  0  0  0
  -23.2487   -9.8033   20.7048 C   0  0  0  0  0  0  0  0  0  0  0  0
  -23.1640   -7.4782   22.2441 C   0  0  0  0  0  0  0  0  0  0  0  0
  -22.2599   -9.6454   21.6759 C   0  0  0  0  0  0  0  0  0  0  0  0
  -27.9180  -14.0854   20.2088 C   0  0  0  0  0  0  0  0  0  0  0  0
  -26.6114  -20.6276   15.5823 C   0  0  0  0  0  0  0  0  0  0  0  0
  -30.0027  -14.7825   20.2644 C   0  0  0  0  0  0  0  0  0  0  0  0
  -29.7657  -12.3041   20.0407 C   0  0  0  0  0  0  0  0  0  0  0  0
  -21.8170  -24.1354   22.4264 C   0  0  0  0  0  0  0  0  0  0  0  0
  -21.4630  -27.3443   22.7423 C   0  0  0  0  0  0  0  0  0  0  0  0
  -22.4838  -30.4741   21.8429 C   0  0  0  0  0  0  0  0  0  0  0  0
  -28.8962  -20.5142   18.9323 C   0  0  0  0  0  0  0  0  0  0  0  0
  -20.4471  -19.9507   25.0089 C   0  0  0  0  0  0  0  0  0  0  0  0
  -24.1829  -24.8572   22.9134 C   0  0  0  0  0  0  0  0  0  0  0  0
  -22.9226  -26.5515   20.8432 C   0  0  0  0  0  0  0  0  0  0  0  0
  -19.9155  -21.3756   24.8779 C   0  0  0  0  0  0  0  0  0  0  0  0
  -29.8658  -19.2003   22.0962 C   0  0  0  0  0  0  0  0  0  0  0  0
  -19.8086  -21.7725   23.4089 C   0  0  0  0  0  0  0  0  0  0  0  0
  -29.5969  -17.6999   21.9671 C   0  0  0  0  0  0  0  0  0  0  0  0
  -28.8143  -20.0275   21.3598 C   0  0  0  0  0  0  0  0  0  0  0  0
  -28.3524  -18.1642   19.8143 C   0  0  0  0  0  0  0  0  0  0  0  0
  -21.1831  -21.7485   22.7295 C   0  0  1  0  0  0  0  0  0  0  0  0
  -22.7027  -25.2224   22.9664 C   0  0  1  0  0  0  0  0  0  0  0  0
  -29.4179  -17.2870   20.4938 C   0  0  2  0  0  0  0  0  0  0  0  0
  -26.7222  -19.1389   15.6394 C   0  0  0  0  0  0  0  0  0  0  0  0
  -21.9793  -32.9003   22.2387 C   0  0  0  0  0  0  0  0  0  0  0  0
  -19.0070  -27.1243   20.9452 C   0  0  0  0  0  0  0  0  0  0  0  0
  -19.1179  -29.6026   20.6080 C   0  0  0  0  0  0  0  0  0  0  0  0
  -18.7403  -28.6720   22.8914 C   0  0  0  0  0  0  0  0  0  0  0  0
  -25.1867  -30.9770   22.9385 C   0  0  0  0  0  0  0  0  0  0  0  0
  -26.1186  -24.8302   15.3556 C   0  0  0  0  0  0  0  0  0  0  0  0
  -28.9550  -20.8424   16.4730 C   0  0  0  0  0  0  0  0  0  0  0  0
  -25.5384  -25.4153   16.6386 C   0  0  0  0  0  0  0  0  0  1  0  0
  -21.0265  -28.4665   21.8317 C   0  0  1  0  0  0  0  0  0  0  0  0
  -22.8119  -31.7034   22.6710 C   0  0  2  0  0  0  0  0  0  0  0  0
  -19.4952  -28.4499   21.5627 C   0  0  0  0  0  0  0  0  0  0  0  0
  -25.4334  -21.1108   15.1279 N   0  0  0  0  0  0  0  0  0  0  0  0
  -27.8240  -15.4123   20.3294 N   0  0  0  0  0  0  0  0  0  0  0  0
  -29.1081  -15.8075   20.3608 N   0  0  0  0  0  0  0  0  0  0  0  0
  -22.3934  -26.4391   22.2125 N   0  0  0  0  0  0  0  0  0  0  0  0
  -28.6948  -19.5868   19.9679 N   0  0  0  0  0  0  0  0  0  0  0  0
  -31.3345  -15.0030   20.2794 N   0  0  0  0  0  0  0  0  0  0  0  0
  -28.8551  -11.2428   19.9478 N   0  0  0  0  0  0  0  0  0  0  0  0
  -21.9434  -22.9274   23.0853 N   0  0  0  0  0  0  0  0  0  0  0  0
  -21.5127  -29.6995   22.4414 N   0  0  0  0  0  0  0  0  0  0  0  0
  -28.7706  -20.0125   17.6426 N   0  0  0  0  0  0  0  0  0  0  0  0
  -24.2526  -32.0561   22.5261 N   0  3  0  0  0  0  0  0  0  0  0  0
  -30.9961  -12.0601   20.0309 O   0  0  0  0  0  0  0  0  0  0  0  0
  -21.0728  -24.3753   21.4828 O   0  0  0  0  0  0  0  0  0  0  0  0
  -21.0010  -27.2776   23.8841 O   0  0  0  0  0  0  0  0  0  0  0  0
  -23.0312  -30.2279   20.7705 O   0  0  0  0  0  0  0  0  0  0  0  0
  -29.1732  -21.7002   19.1415 O   0  0  0  0  0  0  0  0  0  0  0  0
  -23.2916  -10.9565   19.9393 O   0  0  0  0  0  0  0  0  0  0  0  0
  -26.4334  -25.1782   17.7246 O   0  0  0  0  0  0  0  0  0  1  0  0
  -23.1225   -6.3611   22.9820 F   0  0  0  0  0  0  0  0  0  0  0  0
  -21.3473  -10.6067   21.8733 F   0  0  0  0  0  0  0  0  0  0  0  0
  1  2  1  0  0  0  0
  1  5  2  0  0  0  0
  2  6  2  0  0  0  0
  3  8  2  0  0  0  0
  3 17  1  0  0  0  0
  4  9  1  0  0  0  0
  4 17  2  0  0  0  0
  5 19  1  0  0  0  0
  6 21  1  0  0  0  0
  7 10  2  0  0  0  0
  7 20  1  0  0  0  0
  8 25  1  0  0  0  0
  9 25  2  0  0  0  0
 10 26  1  0  0  0  0
 11 12  2  0  0  0  0
 11 27  1  0  0  0  0
 12 28  1  0  0  0  0
 13 22  1  0  0  0  0
 13 26  2  0  0  0  0
 14 23  2  0  0  0  0
 14 24  1  0  0  0  0
 15 28  2  0  0  0  0
 15 29  1  0  0  0  0
 16 23  1  0  0  0  0
 16 62  2  0  0  0  0
 17 30  1  0  0  0  0
 18 30  1  0  0  0  0
 18 32  2  0  0  0  0
 18 33  1  0  0  0  0
 19 21  2  0  0  0  0
 19 38  1  0  0  0  0
 20 22  2  0  0  0  0
 20 39  1  0  0  0  0
 21 47  1  0  0  0  0
 22 40  1  0  0  0  0
 23 56  1  0  0  0  0
 24 31  2  0  0  0  0
 24 57  1  0  0  0  0
 25 78  1  0  0  0  0
 26 79  1  0  0  0  0
 27 29  2  0  0  0  0
 27 78  1  0  0  0  0
 28 80  1  0  0  0  0
 29 81  1  0  0  0  0
 30 63  2  0  0  0  0
 31 50  1  0  0  0  0
 31 62  1  0  0  0  0
 32 64  1  0  0  0  0
 32 67  1  0  0  0  0
 33 68  1  0  0  0  0
 33 73  2  0  0  0  0
 34 48  1  0  0  0  0
 34 69  1  0  0  0  0
 34 74  2  0  0  0  0
 35 59  1  0  0  0  0
 35 65  1  0  0  0  0
 35 75  2  0  0  0  0
 36 60  1  0  0  0  0
 36 70  1  0  0  0  0
 36 76  2  0  0  0  0
 37 66  1  0  0  0  0
 37 71  1  0  0  0  0
 37 77  2  0  0  0  0
 38 41  1  0  0  0  0
 39 48  1  0  0  0  0
 40 65  1  0  0  0  0
 41 43  1  0  0  0  0
 42 44  1  0  0  0  0
 42 45  1  0  0  0  0
 43 47  1  0  0  0  0
 44 49  1  0  0  0  0
 45 66  1  0  0  0  0
 46 49  1  0  0  0  0
 46 66  1  0  0  0  0
 47 69  1  0  0  0  0
 48 65  1  0  0  0  0
 49 64  1  0  0  0  0
 51 60  1  0  0  0  0
 52 61  1  0  0  0  0
 53 61  1  0  0  0  0
 54 61  1  0  0  0  0
 55 72  1  0  0  0  0
 56 58  1  0  0  0  0
 57 71  1  0  0  0  0
 58 79  1  0  0  0  0
 59 61  1  0  0  0  0
 59 70  1  0  0  0  0
 60 72  1  0  0  0  0
 63 64  1  0  0  0  0
M  CHG  1  72   1
M  ISO  4  37 100  58 101  71 100  79 101
M  END
> <Batch ID>
0046

> <Smiles>
CNC(C)C(=O)NC(C(=O)N1Cc2cc([101O:1][101CH2:1]Cc3cnc(C)c(C[100NH:0][100C:0](=O)N4CCCC(n5nc(-c6ccc(Oc7ccc(F)cc7F)cc6)c(C(N)=O)c5N)C4)c3)ccc2CC1C(=O)NC1CCCc2ccccc21)C(C)(C)C

> <Shape>
0.228

> <Color>
0.060

> <Negative vol penalty>
0.000

$$$$

  -OEChem-04052317213D

 86 94  0     1  0  0  0  0  0999 V2000
  -29.1405  -25.0671   16.8466 C   0  0  0  0  0  0  0  0  0  0  0  0
  -27.9293  -25.1087   17.5297 C   0  0  0  0  0  0  0  0  0  0  0  0
  -28.6195  -15.1613   22.0415 C   0  0  0  0  0  0  0  0  0  0  0  0
  -26.3513  -15.9339   21.7329 C   0  0  0  0  0  0  0  0  0  0  0  0
  -30.2544  -25.7269   17.3641 C   0  0  0  0  0  0  0  0  0  0  0  0
  -27.8315  -25.8094   18.7314 C   0  0  0  0  0  0  0  0  0  0  0  0
  -23.6512  -28.6563   18.9856 C   0  0  0  0  0  0  0  0  0  0  0  0
  -28.1458  -13.8766   22.3075 C   0  0  0  0  0  0  0  0  0  0  0  0
  -25.8775  -14.6492   21.9988 C   0  0  0  0  0  0  0  0  0  0  0  0
  -22.4536  -28.0044   19.2767 C   0  0  0  0  0  0  0  0  0  0  0  0
  -25.5776  -11.7155   20.3484 C   0  0  0  0  0  0  0  0  0  0  0  0
  -24.5877  -11.2047   19.5089 C   0  0  0  0  0  0  0  0  0  0  0  0
  -22.6317  -28.7161   21.5747 C   0  0  0  0  0  0  0  0  0  0  0  0
  -23.0999  -10.9812   21.3992 C   0  0  0  0  0  0  0  0  0  0  0  0
  -23.7888  -22.5896   21.5445 C   0  0  0  0  0  0  0  0  0  0  0  0
  -27.7223  -16.1900   21.7543 C   0  0  0  0  0  0  0  0  0  0  0  0
  -28.5633  -18.0513   20.2259 C   0  0  0  0  0  0  0  0  0  0  0  0
  -30.1677  -26.4441   18.5678 C   0  0  0  0  0  0  0  0  0  0  0  0
  -24.3548  -29.3349   19.9911 C   0  0  0  0  0  0  0  0  0  0  0  0
  -28.9456  -26.4784   19.2661 C   0  0  0  0  0  0  0  0  0  0  0  0
  -23.8367  -29.3780   21.2933 C   0  0  0  0  0  0  0  0  0  0  0  0
  -26.7748  -13.6205   22.2862 C   0  0  0  0  0  0  0  0  0  0  0  0
  -21.9452  -28.0318   20.5720 C   0  0  0  0  0  0  0  0  0  0  0  0
  -25.3287  -11.8590   21.7134 C   0  0  0  0  0  0  0  0  0  0  0  0
  -23.3489  -10.8376   20.0343 C   0  0  0  0  0  0  0  0  0  0  0  0
  -24.0898  -11.4919   22.2388 C   0  0  0  0  0  0  0  0  0  0  0  0
  -28.2110  -17.5174   21.4800 C   0  0  0  0  0  0  0  0  0  0  0  0
  -22.5247  -22.0570   21.3932 C   0  0  0  0  0  0  0  0  0  0  0  0
  -23.8365  -23.9136   21.9305 C   0  0  0  0  0  0  0  0  0  0  0  0
  -28.9628  -19.3365   20.4999 C   0  0  0  0  0  0  0  0  0  0  0  0
  -21.5670  -24.0352   21.9735 C   0  0  0  0  0  0  0  0  0  0  0  0
  -28.5320  -17.4402   18.9293 C   0  0  0  0  0  0  0  0  0  0  0  0
  -27.2288  -29.0301   21.3141 C   0  0  0  0  0  0  0  0  0  0  0  0
  -26.3920  -31.7725   22.8310 C   0  0  0  0  0  0  0  0  0  0  0  0
  -23.9022  -33.8245   23.9432 C   0  0  0  0  0  0  0  0  0  0  0  0
  -27.6850  -23.1446   24.9402 C   0  0  0  0  0  0  0  0  0  0  0  0
  -31.4110  -27.1021   19.1118 C   0  0  0  0  0  0  0  0  0  0  0  0
  -25.6315  -30.0557   19.6550 C   0  0  0  0  0  0  0  0  0  0  0  0
  -24.5432  -30.1097   22.4041 C   0  0  0  0  0  0  0  0  0  0  0  0
  -31.1273  -28.1346   20.1998 C   0  0  0  0  0  0  0  0  0  0  0  0
  -30.9111  -21.9927   23.9698 C   0  0  0  0  0  0  0  0  0  0  0  0
  -30.1383  -27.5781   21.2191 C   0  0  0  0  0  0  0  0  0  0  0  0
  -30.6167  -20.7633   23.1085 C   0  0  0  0  0  0  0  0  0  0  0  0
  -29.9296  -22.1148   25.1333 C   0  0  0  0  0  0  0  0  0  0  0  0
  -28.2118  -20.8624   23.8866 C   0  0  0  0  0  0  0  0  0  0  0  0
  -28.7935  -27.2486   20.5598 C   0  0  1  0  0  0  0  0  0  0  0  0
  -26.5272  -30.2820   20.8690 C   0  0  1  0  0  0  0  0  0  0  0  0
  -29.1409  -20.7276   22.6680 C   0  0  2  0  0  0  0  0  0  0  0  0
  -22.3721  -20.6318   20.9787 C   0  0  0  0  0  0  0  0  0  0  0  0
  -23.5273  -35.9749   25.1811 C   0  0  0  0  0  0  0  0  0  0  0  0
  -27.0450  -30.3697   25.4608 C   0  0  0  0  0  0  0  0  0  0  0  0
  -25.7792  -32.1698   26.6548 C   0  0  0  0  0  0  0  0  0  0  0  0
  -27.8113  -32.7466   25.3280 C   0  0  0  0  0  0  0  0  0  0  0  0
  -22.5370  -35.0563   21.6242 C   0  0  0  0  0  0  0  0  0  0  0  0
  -20.3198  -24.8465   22.2182 C   0  0  0  0  0  0  0  0  0  0  0  0
  -19.6168  -25.2971   20.9359 C   0  0  0  0  0  0  0  0  0  0  0  0
  -25.3914  -25.1127   23.5497 C   0  0  0  0  0  0  0  0  0  0  0  0
  -25.3937  -24.0526   24.6489 C   0  0  0  0  0  0  0  0  0  0  0  0
  -20.4594  -26.2399   20.0847 C   0  0  0  0  0  0  0  0  0  1  0  0
  -25.6836  -32.1071   24.1214 C   0  0  1  0  0  0  0  0  0  0  0  0
  -23.7012  -35.3239   23.8178 C   0  0  2  0  0  0  0  0  0  0  0  0
  -25.1596  -24.5762   22.1215 C   0  0  0  0  0  0  0  0  0  0  0  0
  -26.5672  -31.8328   25.3710 C   0  0  0  0  0  0  0  0  0  0  0  0
  -28.3727  -18.3918   22.4766 N   0  0  0  0  0  0  0  0  0  0  0  0
  -21.3881  -22.7537   21.6002 N   0  0  0  0  0  0  0  0  0  0  0  0
  -22.7413  -24.6691   22.1544 N   0  0  0  0  0  0  0  0  0  0  0  0
  -28.8310  -19.4882   21.8489 N   0  0  0  0  0  0  0  0  0  0  0  0
  -25.7912  -30.7936   22.0269 N   0  0  0  0  0  0  0  0  0  0  0  0
  -28.5481  -22.0758   24.6477 N   0  0  0  0  0  0  0  0  0  0  0  0
  -29.4106  -20.3403   19.7161 N   0  0  0  0  0  0  0  0  0  0  0  0
  -28.0946  -16.1126   18.8267 N   0  0  0  0  0  0  0  0  0  0  0  0
  -28.0275  -28.4571   20.3428 N   0  0  0  0  0  0  0  0  0  0  0  0
  -25.2391  -33.4910   23.9961 N   0  0  0  0  0  0  0  0  0  0  0  0
  -26.3948  -23.0310   24.4370 N   0  0  0  0  0  0  0  0  0  0  0  0
  -22.4912  -35.6176   22.9989 N   0  3  0  0  0  0  0  0  0  0  0  0
  -28.8972  -18.0479   17.8945 O   0  0  0  0  0  0  0  0  0  0  0  0
  -27.0594  -28.6155   22.4548 O   0  0  0  0  0  0  0  0  0  0  0  0
  -27.4361  -32.3632   22.5436 O   0  0  0  0  0  0  0  0  0  0  0  0
  -22.9667  -33.0289   23.9934 O   0  0  0  0  0  0  0  0  0  0  0  0
  -28.0395  -24.1299   25.5964 O   0  0  0  0  0  0  0  0  0  0  0  0
  -26.3122  -12.3670   22.5454 O   0  0  0  0  0  0  0  0  0  0  0  0
  -20.7768  -27.3958   20.8590 O   0  0  0  0  0  0  0  0  0  1  0  0
  -22.3978  -10.3485   19.2277 F   0  0  0  0  0  0  0  0  0  0  0  0
  -23.8444  -11.6287   23.5491 F   0  0  0  0  0  0  0  0  0  0  0  0
  -26.1995  -23.7117   21.8673 F   0  0  0  0  0  0  0  0  0  0  0  0
  -25.3801  -25.6147   21.2515 F   0  0  0  0  0  0  0  0  0  0  0  0
  1  2  1  0  0  0  0
  1  5  2  0  0  0  0
  2  6  2  0  0  0  0
  3  8  2  0  0  0  0
  3 16  1  0  0  0  0
  4  9  1  0  0  0  0
  4 16  2  0  0  0  0
  5 18  1  0  0  0  0
  6 20  1  0  0  0  0
  7 10  2  0  0  0  0
  7 19  1  0  0  0  0
  8 22  1  0  0  0  0
  9 22  2  0  0  0  0
 10 23  1  0  0  0  0
 11 12  2  0  0  0  0
 11 24  1  0  0  0  0
 12 25  1  0  0  0  0
 13 21  1  0  0  0  0
 13 23  2  0  0  0  0
 14 25  2  0  0  0  0
 14 26  1  0  0  0  0
 15 28  1  0  0  0  0
 15 29  2  0  0  0  0
 16 27  1  0  0  0  0
 17 27  1  0  0  0  0
 17 30  2  0  0  0  0
 17 32  1  0  0  0  0
 18 20  2  0  0  0  0
 18 37  1  0  0  0  0
 19 21  2  0  0  0  0
 19 38  1  0  0  0  0
 20 46  1  0  0  0  0
 21 39  1  0  0  0  0
 22 81  1  0  0  0  0
 23 82  1  0  0  0  0
 24 26  2  0  0  0  0
 24 81  1  0  0  0  0
 25 83  1  0  0  0  0
 26 84  1  0  0  0  0
 27 64  2  0  0  0  0
 28 49  1  0  0  0  0
 28 65  2  0  0  0  0
 29 62  1  0  0  0  0
 29 66  1  0  0  0  0
 30 67  1  0  0  0  0
 30 70  1  0  0  0  0
 31 55  1  0  0  0  0
 31 65  1  0  0  0  0
 31 66  2  0  0  0  0
 32 71  1  0  0  0  0
 32 76  2  0  0  0  0
 33 47  1  0  0  0  0
 33 72  1  0  0  0  0
 33 77  2  0  0  0  0
 34 60  1  0  0  0  0
 34 68  1  0  0  0  0
 34 78  2  0  0  0  0
 35 61  1  0  0  0  0
 35 73  1  0  0  0  0
 35 79  2  0  0  0  0
 36 69  1  0  0  0  0
 36 74  1  0  0  0  0
 36 80  2  0  0  0  0
 37 40  1  0  0  0  0
 38 47  1  0  0  0  0
 39 68  1  0  0  0  0
 40 42  1  0  0  0  0
 41 43  1  0  0  0  0
 41 44  1  0  0  0  0
 42 46  1  0  0  0  0
 43 48  1  0  0  0  0
 44 69  1  0  0  0  0
 45 48  1  0  0  0  0
 45 69  1  0  0  0  0
 46 72  1  0  0  0  0
 47 68  1  0  0  0  0
 48 67  1  0  0  0  0
 50 61  1  0  0  0  0
 51 63  1  0  0  0  0
 52 63  1  0  0  0  0
 53 63  1  0  0  0  0
 54 75  1  0  0  0  0
 55 56  1  0  0  0  0
 56 59  1  0  0  0  0
 57 58  1  0  0  0  0
 57 62  1  0  0  0  0
 58 74  1  0  0  0  0
 59 82  1  0  0  0  0
 60 63  1  0  0  0  0
 60 73  1  0  0  0  0
 61 75  1  0  0  0  0
 62 85  1  0  0  0  0
 62 86  1  0  0  0  0
 64 67  1  0  0  0  0
M  CHG  1  75   1
M  ISO  4  36 100  59 101  74 100  82 101
M  END
> <Batch ID>
0046

> <Smiles>
CNC(C)C(=O)NC(C(=O)N1Cc2cc([101O:1][101CH2:1]CCc3nc(C)cc(C(F)(F)CC[100NH:0][100C:0](=O)N4CCCC(n5nc(-c6ccc(Oc7ccc(F)cc7F)cc6)c(C(N)=O)c5N)C4)n3)ccc2CC1C(=O)NC1CCCc2ccccc21)C(C)(C)C

> <Shape>
0.265

> <Color>
0.071

> <Negative vol penalty>
0.000

$$$$

  -OEChem-04052317213D

 86 94  0     1  0  0  0  0  0999 V2000
  -27.5960  -34.3340   25.4656 C   0  0  0  0  0  0  0  0  0  0  0  0
  -27.8421  -33.0756   24.9261 C   0  0  0  0  0  0  0  0  0  0  0  0
  -20.7051  -10.5144   21.6294 C   0  0  0  0  0  0  0  0  0  0  0  0
  -22.7935  -10.0669   22.7587 C   0  0  0  0  0  0  0  0  0  0  0  0
  -26.2944  -34.7053   25.8004 C   0  0  0  0  0  0  0  0  0  0  0  0
  -26.7869  -32.1871   24.7221 C   0  0  0  0  0  0  0  0  0  0  0  0
  -27.0087  -29.9121   20.2033 C   0  0  0  0  0  0  0  0  0  0  0  0
  -20.5749   -9.1578   21.3325 C   0  0  0  0  0  0  0  0  0  0  0  0
  -22.6633   -8.7102   22.4618 C   0  0  0  0  0  0  0  0  0  0  0  0
  -27.9123  -28.8595   20.0640 C   0  0  0  0  0  0  0  0  0  0  0  0
  -22.7011   -5.0777   22.3141 C   0  0  0  0  0  0  0  0  0  0  0  0
  -22.9649   -4.1620   23.3327 C   0  0  0  0  0  0  0  0  0  0  0  0
  -26.1109  -27.2821   20.3568 C   0  0  0  0  0  0  0  0  0  0  0  0
  -21.2030   -5.1383   24.6667 C   0  0  0  0  0  0  0  0  0  0  0  0
  -21.8145  -10.9690   22.3424 C   0  0  0  0  0  0  0  0  0  0  0  0
  -21.4752  -13.0402   23.7925 C   0  0  0  0  0  0  0  0  0  0  0  0
  -25.2215  -33.8245   25.5915 C   0  0  0  0  0  0  0  0  0  0  0  0
  -25.6488  -29.6572   20.4316 C   0  0  0  0  0  0  0  0  0  0  0  0
  -25.4700  -32.5464   25.0557 C   0  0  0  0  0  0  0  0  0  0  0  0
  -25.1916  -28.3332   20.4961 C   0  0  0  0  0  0  0  0  0  0  0  0
  -30.9453  -20.2128   19.3018 C   0  0  0  0  0  0  0  0  0  0  0  0
  -21.5539   -8.2557   21.7488 C   0  0  0  0  0  0  0  0  0  0  0  0
  -27.4640  -27.5444   20.1436 C   0  0  0  0  0  0  0  0  0  0  0  0
  -21.6883   -6.0238   22.4719 C   0  0  0  0  0  0  0  0  0  0  0  0
  -22.2159   -4.1922   24.5089 C   0  0  0  0  0  0  0  0  0  0  0  0
  -20.9393   -6.0540   23.6482 C   0  0  0  0  0  0  0  0  0  0  0  0
  -21.9499  -12.3704   22.6489 C   0  0  0  0  0  0  0  0  0  0  0  0
  -31.3833  -20.9109   18.1605 C   0  0  0  0  0  0  0  0  0  0  0  0
  -29.8152  -20.8833   19.7017 C   0  0  0  0  0  0  0  0  0  0  0  0
  -21.8561  -14.3469   23.6080 C   0  0  0  0  0  0  0  0  0  0  0  0
  -20.7546  -12.5271   24.9209 C   0  0  0  0  0  0  0  0  0  0  0  0
  -23.6078  -30.3095   22.7794 C   0  0  0  0  0  0  0  0  0  0  0  0
  -21.4412  -29.0489   20.7205 C   0  0  0  0  0  0  0  0  0  0  0  0
  -20.8213  -26.9986   18.0636 C   0  0  0  0  0  0  0  0  0  0  0  0
  -25.9252  -17.0720   20.4864 C   0  0  0  0  0  0  0  0  0  0  0  0
  -23.8381  -34.2527   26.0130 C   0  0  0  0  0  0  0  0  0  0  0  0
  -24.6826  -30.8035   20.5530 C   0  0  0  0  0  0  0  0  0  0  0  0
  -23.7385  -28.0060   20.7196 C   0  0  0  0  0  0  0  0  0  0  0  0
  -22.7264  -33.3929   25.4172 C   0  0  0  0  0  0  0  0  0  0  0  0
  -22.4424  -16.2349   19.3603 C   0  0  0  0  0  0  0  0  0  0  0  0
  -23.0635  -31.9119   25.5576 C   0  0  0  0  0  0  0  0  0  0  0  0
  -22.1372  -16.3728   20.8519 C   0  0  0  0  0  0  0  0  0  0  0  0
  -23.8835  -16.6421   19.0330 C   0  0  0  0  0  0  0  0  0  0  0  0
  -24.4011  -15.1854   20.9632 C   0  0  0  0  0  0  0  0  0  0  0  0
  -24.3485  -31.5640   24.7965 C   0  0  1  0  0  0  0  0  0  0  0  0
  -23.4033  -30.4305   21.2958 C   0  0  1  0  0  0  0  0  0  0  0  0
  -23.1342  -15.5887   21.7378 C   0  0  2  0  0  0  0  0  0  0  0  0
  -31.5588  -19.0296   19.9295 C   0  0  0  0  0  0  0  0  0  0  0  0
  -32.5600  -20.6232   17.3215 C   0  0  0  0  0  0  0  0  0  0  0  0
  -26.7939  -16.9877   17.2492 C   0  0  0  0  0  0  0  0  0  0  0  0
  -18.9469  -26.1420   16.6317 C   0  0  0  0  0  0  0  0  0  0  0  0
  -20.5889  -27.1670   22.9660 C   0  0  0  0  0  0  0  0  0  0  0  0
  -19.4399  -25.7520   21.2497 C   0  0  0  0  0  0  0  0  0  0  0  0
  -18.7023  -28.1061   21.6195 C   0  0  0  0  0  0  0  0  0  0  0  0
  -21.9950  -28.1809   15.6175 C   0  0  0  0  0  0  0  0  0  0  0  0
  -28.8938  -20.6524   20.8303 C   0  0  0  0  0  0  0  0  0  0  0  0
  -27.5732  -19.9337   20.4604 C   0  0  0  0  0  0  0  0  0  0  0  0
  -28.9820  -24.2913   19.3731 C   0  0  0  0  0  0  0  0  0  0  0  0
  -28.5533  -22.9358   18.8068 C   0  0  0  0  0  0  0  0  0  0  0  0
  -26.0671  -17.9857   18.1277 C   0  0  0  0  0  0  0  0  0  0  0  0
  -27.7695  -18.5633   19.8156 C   0  0  0  0  0  0  0  0  0  0  0  0
  -27.8423  -25.3004   19.4528 C   0  0  0  0  0  0  0  0  0  1  0  0
  -20.9010  -27.6650   20.4519 C   0  0  1  0  0  0  0  0  0  0  0  0
  -20.0168  -27.2107   16.7939 C   0  0  2  0  0  0  0  0  0  0  0  0
  -19.9358  -27.1784   21.5695 C   0  0  0  0  0  0  0  0  0  0  0  0
  -22.5837  -13.1843   21.8005 N   0  0  0  0  0  0  0  0  0  0  0  0
  -30.5956  -21.9453   17.8549 N   0  0  0  0  0  0  0  0  0  0  0  0
  -29.6512  -21.9022   18.8100 N   0  0  0  0  0  0  0  0  0  0  0  0
  -22.5099  -14.3791   22.4114 N   0  0  0  0  0  0  0  0  0  0  0  0
  -22.8338  -29.1613   20.8384 N   0  0  0  0  0  0  0  0  0  0  0  0
  -24.8334  -16.2790   20.0948 N   0  0  0  0  0  0  0  0  0  0  0  0
  -21.6920  -15.4599   24.3540 N   0  0  0  0  0  0  0  0  0  0  0  0
  -20.4448  -11.1605   24.9506 N   0  0  0  0  0  0  0  0  0  0  0  0
  -24.0832  -31.4609   23.3775 N   0  0  0  0  0  0  0  0  0  0  0  0
  -20.3011  -27.7118   19.1229 N   0  0  0  0  0  0  0  0  0  0  0  0
  -26.5065  -17.9021   19.5172 N   0  0  0  0  0  0  0  0  0  0  0  0
  -20.9096  -27.1666   15.6015 N   0  3  0  0  0  0  0  0  0  0  0  0
  -20.3817  -13.2618   25.8667 O   0  0  0  0  0  0  0  0  0  0  0  0
  -23.3517  -29.2505   23.3403 O   0  0  0  0  0  0  0  0  0  0  0  0
  -20.6570  -29.9963   20.8150 O   0  0  0  0  0  0  0  0  0  0  0  0
  -21.8099  -26.2701   18.1119 O   0  0  0  0  0  0  0  0  0  0  0  0
  -26.3501  -17.0516   21.6493 O   0  0  0  0  0  0  0  0  0  0  0  0
  -21.4271   -6.9317   21.4595 O   0  0  0  0  0  0  0  0  0  0  0  0
  -28.3440  -26.5151   20.0087 O   0  0  0  0  0  0  0  0  0  1  0  0
  -22.4683   -3.3118   25.4863 F   0  0  0  0  0  0  0  0  0  0  0  0
  -19.9642   -6.9598   23.8051 F   0  0  0  0  0  0  0  0  0  0  0  0
  1  2  1  0  0  0  0
  1  5  2  0  0  0  0
  2  6  2  0  0  0  0
  3  8  2  0  0  0  0
  3 15  1  0  0  0  0
  4  9  1  0  0  0  0
  4 15  2  0  0  0  0
  5 17  1  0  0  0  0
  6 19  1  0  0  0  0
  7 10  2  0  0  0  0
  7 18  1  0  0  0  0
  8 22  1  0  0  0  0
  9 22  2  0  0  0  0
 10 23  1  0  0  0  0
 11 12  2  0  0  0  0
 11 24  1  0  0  0  0
 12 25  1  0  0  0  0
 13 20  1  0  0  0  0
 13 23  2  0  0  0  0
 14 25  2  0  0  0  0
 14 26  1  0  0  0  0
 15 27  1  0  0  0  0
 16 27  1  0  0  0  0
 16 30  2  0  0  0  0
 16 31  1  0  0  0  0
 17 19  2  0  0  0  0
 17 36  1  0  0  0  0
 18 20  2  0  0  0  0
 18 37  1  0  0  0  0
 19 45  1  0  0  0  0
 20 38  1  0  0  0  0
 21 28  1  0  0  0  0
 21 29  2  0  0  0  0
 21 48  1  0  0  0  0
 22 83  1  0  0  0  0
 23 84  1  0  0  0  0
 24 26  2  0  0  0  0
 24 83  1  0  0  0  0
 25 85  1  0  0  0  0
 26 86  1  0  0  0  0
 27 66  2  0  0  0  0
 28 49  1  0  0  0  0
 28 67  2  0  0  0  0
 29 56  1  0  0  0  0
 29 68  1  0  0  0  0
 30 69  1  0  0  0  0
 30 72  1  0  0  0  0
 31 73  1  0  0  0  0
 31 78  2  0  0  0  0
 32 46  1  0  0  0  0
 32 74  1  0  0  0  0
 32 79  2  0  0  0  0
 33 63  1  0  0  0  0
 33 70  1  0  0  0  0
 33 80  2  0  0  0  0
 34 64  1  0  0  0  0
 34 75  1  0  0  0  0
 34 81  2  0  0  0  0
 35 71  1  0  0  0  0
 35 76  1  0  0  0  0
 35 82  2  0  0  0  0
 36 39  1  0  0  0  0
 37 46  1  0  0  0  0
 38 70  1  0  0  0  0
 39 41  1  0  0  0  0
 40 42  1  0  0  0  0
 40 43  1  0  0  0  0
 41 45  1  0  0  0  0
 42 47  1  0  0  0  0
 43 71  1  0  0  0  0
 44 47  1  0  0  0  0
 44 71  1  0  0  0  0
 45 74  1  0  0  0  0
 46 70  1  0  0  0  0
 47 69  1  0  0  0  0
 50 60  1  0  0  0  0
 51 64  1  0  0  0  0
 52 65  1  0  0  0  0
 53 65  1  0  0  0  0
 54 65  1  0  0  0  0
 55 77  1  0  0  0  0
 56 57  1  0  0  0  0
 57 61  1  0  0  0  0
 58 59  1  0  0  0  0
 58 62  1  0  0  0  0
 59 68  1  0  0  0  0
 60 76  1  0  0  0  0
 61 76  1  0  0  0  0
 62 84  1  0  0  0  0
 63 65  1  0  0  0  0
 63 75  1  0  0  0  0
 64 77  1  0  0  0  0
 66 69  1  0  0  0  0
 67 68  1  0  0  0  0
M  CHG  1  77   1
M  ISO  4  35 100  62 101  76 100  84 101
M  END
> <Batch ID>
0046

> <Smiles>
CC[100N:0](CCCc1c(C)c(C)nn1CC[101CH2:1][101O:1]c1ccc2c(c1)CN(C(=O)C(NC(=O)C(C)NC)C(C)(C)C)C(C(=O)NC1CCCc3ccccc31)C2)[100C:0](=O)N1CCCC(n2nc(-c3ccc(Oc4ccc(F)cc4F)cc3)c(C(N)=O)c2N)C1

> <Shape>
0.277

> <Color>
0.098

> <Negative vol penalty>
0.000

$$$$

  -OEChem-04052317213D

 85 93  0     1  0  0  0  0  0999 V2000
  -24.7509  -35.7707   23.2555 C   0  0  0  0  0  0  0  0  0  0  0  0
  -25.5828  -35.2253   22.2829 C   0  0  0  0  0  0  0  0  0  0  0  0
  -22.9984  -10.1985   22.4659 C   0  0  0  0  0  0  0  0  0  0  0  0
  -23.7490   -9.9031   20.1885 C   0  0  0  0  0  0  0  0  0  0  0  0
  -24.4638  -35.0462   24.4116 C   0  0  0  0  0  0  0  0  0  0  0  0
  -26.1290  -33.9555   22.4664 C   0  0  0  0  0  0  0  0  0  0  0  0
  -28.1241  -28.1495   18.7750 C   0  0  0  0  0  0  0  0  0  0  0  0
  -22.3664   -8.9560   22.4188 C   0  0  0  0  0  0  0  0  0  0  0  0
  -23.1170   -8.6605   20.1414 C   0  0  0  0  0  0  0  0  0  0  0  0
  -29.2184  -27.3016   18.6099 C   0  0  0  0  0  0  0  0  0  0  0  0
  -19.5040   -7.6637   21.1693 C   0  0  0  0  0  0  0  0  0  0  0  0
  -18.2089   -7.5764   21.6799 C   0  0  0  0  0  0  0  0  0  0  0  0
  -28.5890  -26.1097   20.6106 C   0  0  0  0  0  0  0  0  0  0  0  0
  -30.3040  -20.4473   18.9235 C   0  0  0  0  0  0  0  0  0  0  0  0
  -18.9535   -5.9338   23.2876 C   0  0  0  0  0  0  0  0  0  0  0  0
  -23.6897  -10.6721   21.3507 C   0  0  0  0  0  0  0  0  0  0  0  0
  -25.6651  -12.2226   21.7996 C   0  0  0  0  0  0  0  0  0  0  0  0
  -24.9989  -33.7629   24.6050 C   0  0  0  0  0  0  0  0  0  0  0  0
  -27.2588  -27.9904   19.8669 C   0  0  0  0  0  0  0  0  0  0  0  0
  -25.8498  -33.2137   23.6268 C   0  0  0  0  0  0  0  0  0  0  0  0
  -27.4830  -26.9553   20.7858 C   0  0  0  0  0  0  0  0  0  0  0  0
  -31.2057  -21.4475   18.5777 C   0  0  0  0  0  0  0  0  0  0  0  0
  -28.9486  -20.7430   19.0177 C   0  0  0  0  0  0  0  0  0  0  0  0
  -22.4257   -8.1869   21.2565 C   0  0  0  0  0  0  0  0  0  0  0  0
  -29.4527  -26.2833   19.5294 C   0  0  0  0  0  0  0  0  0  0  0  0
  -20.5239   -6.8859   21.7178 C   0  0  0  0  0  0  0  0  0  0  0  0
  -17.9336   -6.7115   22.7391 C   0  0  0  0  0  0  0  0  0  0  0  0
  -20.2486   -6.0211   22.7770 C   0  0  0  0  0  0  0  0  0  0  0  0
  -24.3423  -11.9558   21.3985 C   0  0  0  0  0  0  0  0  0  0  0  0
  -30.7054  -22.7172   18.3380 C   0  0  0  0  0  0  0  0  0  0  0  0
  -28.5494  -22.0443   18.7585 C   0  0  0  0  0  0  0  0  0  0  0  0
  -25.7967  -13.5831   21.6657 C   0  0  0  0  0  0  0  0  0  0  0  0
  -26.6837  -11.3211   22.2528 C   0  0  0  0  0  0  0  0  0  0  0  0
  -26.4193  -29.7952   22.3452 C   0  0  0  0  0  0  0  0  0  0  0  0
  -24.3191  -27.3842   22.8916 C   0  0  0  0  0  0  0  0  0  0  0  0
  -23.5061  -24.0974   22.4636 C   0  0  0  0  0  0  0  0  0  0  0  0
  -25.0020  -18.2879   18.7710 C   0  0  0  0  0  0  0  0  0  0  0  0
  -24.6980  -33.0374   25.8925 C   0  0  0  0  0  0  0  0  0  0  0  0
  -26.0675  -28.8966   20.0161 C   0  0  0  0  0  0  0  0  0  0  0  0
  -26.5722  -26.7297   21.9640 C   0  0  0  0  0  0  0  0  0  0  0  0
  -25.0158  -31.5452   25.8394 C   0  0  0  0  0  0  0  0  0  0  0  0
  -22.3206  -17.1601   20.8240 C   0  0  0  0  0  0  0  0  0  0  0  0
  -26.3912  -31.3140   25.2217 C   0  0  0  0  0  0  0  0  0  0  0  0
  -22.7137  -15.7263   21.1841 C   0  0  0  0  0  0  0  0  0  0  0  0
  -22.7327  -17.5170   19.3975 C   0  0  0  0  0  0  0  0  0  0  0  0
  -24.5492  -15.8521   19.4481 C   0  0  0  0  0  0  0  0  0  0  0  0
  -26.4415  -31.8291   23.7782 C   0  0  1  0  0  0  0  0  0  0  0  0
  -25.5450  -28.9659   21.4477 C   0  0  1  0  0  0  0  0  0  0  0  0
  -24.2042  -15.4644   20.8962 C   0  0  2  0  0  0  0  0  0  0  0  0
  -32.6590  -21.1371   18.4750 C   0  0  0  0  0  0  0  0  0  0  0  0
  -27.1058  -22.4184   18.8434 C   0  0  0  0  0  0  0  0  0  0  0  0
  -28.5509  -18.6669   20.4143 C   0  0  0  0  0  0  0  0  0  0  0  0
  -21.7467  -22.4098   23.0582 C   0  0  0  0  0  0  0  0  0  0  0  0
  -28.3762  -18.2342   17.2977 C   0  0  0  0  0  0  0  0  0  0  0  0
  -25.4388  -27.2188   25.7252 C   0  0  0  0  0  0  0  0  0  0  0  0
  -24.3603  -24.9701   25.9454 C   0  0  0  0  0  0  0  0  0  0  0  0
  -22.9527  -26.9953   25.5711 C   0  0  0  0  0  0  0  0  0  0  0  0
  -22.8451  -23.6127   19.6198 C   0  0  0  0  0  0  0  0  0  0  0  0
  -31.6365  -23.8435   17.9600 C   0  0  0  0  0  0  0  0  0  0  0  0
  -30.9578  -25.2069   18.0354 C   0  0  0  0  0  0  0  0  0  1  0  0
  -27.9773  -19.6759   19.3880 C   0  0  2  0  0  0  0  0  0  0  0  0
  -24.3544  -26.0917   23.6709 C   0  0  1  0  0  0  0  0  0  0  0  0
  -22.2149  -23.4274   22.0297 C   0  0  2  0  0  0  0  0  0  0  0  0
  -27.3311  -18.9119   18.1835 C   0  0  2  0  0  0  0  0  0  0  0  0
  -24.2950  -26.3242   25.2071 C   0  0  0  0  0  0  0  0  0  0  0  0
  -23.6808  -13.0584   21.0370 N   0  0  0  0  0  0  0  0  0  0  0  0
  -29.3958  -23.0425   18.4198 N   0  0  0  0  0  0  0  0  0  0  0  0
  -24.5916  -14.0312   21.2105 N   0  0  0  0  0  0  0  0  0  0  0  0
  -25.4246  -27.6458   22.0699 N   0  0  0  0  0  0  0  0  0  0  0  0
  -24.1575  -17.2468   19.1905 N   0  0  0  0  0  0  0  0  0  0  0  0
  -26.8246  -14.4280   21.8940 N   0  0  0  0  0  0  0  0  0  0  0  0
  -26.3804   -9.9550   22.3308 N   0  0  0  0  0  0  0  0  0  0  0  0
  -25.7853  -30.8975   22.8861 N   0  0  0  0  0  0  0  0  0  0  0  0
  -23.2679  -25.2702   23.1484 N   0  0  0  0  0  0  0  0  0  0  0  0
  -26.3390  -17.9480   18.6048 N   0  0  0  0  0  0  0  0  0  0  0  0
  -22.4069  -22.7264   20.7286 N   0  3  0  0  0  0  0  0  0  0  0  0
  -27.8238  -11.7173   22.5944 O   0  0  0  0  0  0  0  0  0  0  0  0
  -27.5824  -29.4591   22.5342 O   0  0  0  0  0  0  0  0  0  0  0  0
  -23.3433  -28.1306   23.0022 O   0  0  0  0  0  0  0  0  0  0  0  0
  -24.6151  -23.6255   22.2226 O   0  0  0  0  0  0  0  0  0  0  0  0
  -24.5956  -19.4366   18.5653 O   0  0  0  0  0  0  0  0  0  0  0  0
  -21.8093   -6.9743   21.2103 O   0  0  0  0  0  0  0  0  0  0  0  0
  -30.5205  -25.4547   19.3710 O   0  0  0  0  0  0  0  0  0  1  0  0
  -16.6902   -6.6289   23.2303 F   0  0  0  0  0  0  0  0  0  0  0  0
  -21.2244   -5.2723   23.3088 F   0  0  0  0  0  0  0  0  0  0  0  0
  1  2  1  0  0  0  0
  1  5  2  0  0  0  0
  2  6  2  0  0  0  0
  3  8  2  0  0  0  0
  3 16  1  0  0  0  0
  4  9  1  0  0  0  0
  4 16  2  0  0  0  0
  5 18  1  0  0  0  0
  6 20  1  0  0  0  0
  7 10  2  0  0  0  0
  7 19  1  0  0  0  0
  8 24  1  0  0  0  0
  9 24  2  0  0  0  0
 10 25  1  0  0  0  0
 11 12  2  0  0  0  0
 11 26  1  0  0  0  0
 12 27  1  0  0  0  0
 13 21  1  0  0  0  0
 13 25  2  0  0  0  0
 14 22  1  0  0  0  0
 14 23  2  0  0  0  0
 15 27  2  0  0  0  0
 15 28  1  0  0  0  0
 16 29  1  0  0  0  0
 17 29  1  0  0  0  0
 17 32  2  0  0  0  0
 17 33  1  0  0  0  0
 18 20  2  0  0  0  0
 18 38  1  0  0  0  0
 19 21  2  0  0  0  0
 19 39  1  0  0  0  0
 20 47  1  0  0  0  0
 21 40  1  0  0  0  0
 22 30  2  0  0  0  0
 22 50  1  0  0  0  0
 23 31  1  0  0  0  0
 23 61  1  0  0  0  0
 24 82  1  0  0  0  0
 25 83  1  0  0  0  0
 26 28  2  0  0  0  0
 26 82  1  0  0  0  0
 27 84  1  0  0  0  0
 28 85  1  0  0  0  0
 29 66  2  0  0  0  0
 30 59  1  0  0  0  0
 30 67  1  0  0  0  0
 31 51  1  0  0  0  0
 31 67  2  0  0  0  0
 32 68  1  0  0  0  0
 32 71  1  0  0  0  0
 33 72  1  0  0  0  0
 33 77  2  0  0  0  0
 34 48  1  0  0  0  0
 34 73  1  0  0  0  0
 34 78  2  0  0  0  0
 35 62  1  0  0  0  0
 35 69  1  0  0  0  0
 35 79  2  0  0  0  0
 36 63  1  0  0  0  0
 36 74  1  0  0  0  0
 36 80  2  0  0  0  0
 37 70  1  0  0  0  0
 37 75  1  0  0  0  0
 37 81  2  0  0  0  0
 38 41  1  0  0  0  0
 39 48  1  0  0  0  0
 40 69  1  0  0  0  0
 41 43  1  0  0  0  0
 42 44  1  0  0  0  0
 42 45  1  0  0  0  0
 43 47  1  0  0  0  0
 44 49  1  0  0  0  0
 45 70  1  0  0  0  0
 46 49  1  0  0  0  0
 46 70  1  0  0  0  0
 47 73  1  0  0  0  0
 48 69  1  0  0  0  0
 49 68  1  0  0  0  0
 52 61  1  0  0  0  0
 53 63  1  0  0  0  0
 54 64  1  0  0  0  0
 55 65  1  0  0  0  0
 56 65  1  0  0  0  0
 57 65  1  0  0  0  0
 58 76  1  0  0  0  0
 59 60  1  0  0  0  0
 60 83  1  0  0  0  0
 61 64  1  0  0  0  0
 62 65  1  0  0  0  0
 62 74  1  0  0  0  0
 63 76  1  0  0  0  0
 64 75  1  0  0  0  0
 66 68  1  0  0  0  0
M  CHG  1  76   1
M  ISO  4  37 100  60 101  75 100  83 101
M  END
> <Batch ID>
0046

> <Smiles>
CNC(C)C(=O)NC(C(=O)N1Cc2cc([101O:1][101CH2:1]Cc3nc(C)c(C(C)C(C)[100NH:0][100C:0](=O)N4CCCC(n5nc(-c6ccc(Oc7ccc(F)cc7F)cc6)c(C(N)=O)c5N)C4)cc3C)ccc2CC1C(=O)NC1CCCc2ccccc21)C(C)(C)C

> <Shape>
0.251

> <Color>
0.094

> <Negative vol penalty>
0.000

$$$$

  -OEChem-04052317213D

 80 88  0     1  0  0  0  0  0999 V2000
  -32.4079  -14.2449   20.7824 C   0  0  0  0  0  0  0  0  0  0  0  0
  -31.5797  -15.3627   20.7912 C   0  0  0  0  0  0  0  0  0  0  0  0
  -27.5951  -22.2577   20.5267 C   0  0  0  0  0  0  0  0  0  0  0  0
  -29.1843  -23.1037   18.9155 C   0  0  0  0  0  0  0  0  0  0  0  0
  -31.8941  -13.0009   20.4186 C   0  0  0  0  0  0  0  0  0  0  0  0
  -30.2374  -15.2373   20.4351 C   0  0  0  0  0  0  0  0  0  0  0  0
  -25.5045  -18.3492   22.7636 C   0  0  0  0  0  0  0  0  0  0  0  0
  -27.6243  -21.0114   19.9011 C   0  0  0  0  0  0  0  0  0  0  0  0
  -29.2135  -21.8573   18.2899 C   0  0  0  0  0  0  0  0  0  0  0  0
  -24.8056  -19.4686   22.3139 C   0  0  0  0  0  0  0  0  0  0  0  0
  -29.9810  -18.7960   16.4851 C   0  0  0  0  0  0  0  0  0  0  0  0
  -31.2259  -18.2767   16.1301 C   0  0  0  0  0  0  0  0  0  0  0  0
  -23.1398  -18.0264   21.3318 C   0  0  0  0  0  0  0  0  0  0  0  0
  -31.9071  -18.3257   18.4476 C   0  0  0  0  0  0  0  0  0  0  0  0
  -23.5710  -27.5628   23.1807 C   0  0  0  0  0  0  0  0  0  0  0  0
  -21.7628  -27.4739   21.9325 C   0  0  0  0  0  0  0  0  0  0  0  0
  -28.3751  -23.3039   20.0339 C   0  0  0  0  0  0  0  0  0  0  0  0
  -22.9866  -28.0924   22.0145 C   0  0  0  0  0  0  0  0  0  0  0  0
  -29.1719  -25.0365   21.7282 C   0  0  0  0  0  0  0  0  0  0  0  0
  -30.5425  -12.8584   20.0672 C   0  0  0  0  0  0  0  0  0  0  0  0
  -25.0313  -17.0576   22.4909 C   0  0  0  0  0  0  0  0  0  0  0  0
  -29.7053  -13.9904   20.0650 C   0  0  0  0  0  0  0  0  0  0  0  0
  -23.8332  -16.8923   21.7814 C   0  0  0  0  0  0  0  0  0  0  0  0
  -28.4335  -20.8112   18.7827 C   0  0  0  0  0  0  0  0  0  0  0  0
  -23.6245  -19.3072   21.5954 C   0  0  0  0  0  0  0  0  0  0  0  0
  -29.6991  -19.0802   17.8213 C   0  0  0  0  0  0  0  0  0  0  0  0
  -32.1890  -18.0415   17.1114 C   0  0  0  0  0  0  0  0  0  0  0  0
  -30.6621  -18.8451   18.8025 C   0  0  0  0  0  0  0  0  0  0  0  0
  -28.3450  -24.5918   20.6793 C   0  0  0  0  0  0  0  0  0  0  0  0
  -28.7470  -26.3180   21.9807 C   0  0  0  0  0  0  0  0  0  0  0  0
  -23.5190  -29.0816   21.0686 C   0  0  0  0  0  0  0  0  0  0  0  0
  -30.2296  -24.3525   22.4130 C   0  0  0  0  0  0  0  0  0  0  0  0
  -26.1459  -14.5537   20.8811 C   0  0  0  0  0  0  0  0  0  0  0  0
  -23.5172  -13.0939   22.0983 C   0  0  0  0  0  0  0  0  0  0  0  0
  -20.3641  -13.3934   23.3690 C   0  0  0  0  0  0  0  0  0  0  0  0
  -30.0438  -11.5021   19.6355 C   0  0  0  0  0  0  0  0  0  0  0  0
  -25.7828  -15.8609   23.0060 C   0  0  0  0  0  0  0  0  0  0  0  0
  -23.2720  -15.5276   21.4799 C   0  0  0  0  0  0  0  0  0  0  0  0
  -28.5218  -11.3851   19.6332 C   0  0  0  0  0  0  0  0  0  0  0  0
  -26.7171  -30.0895   19.8447 C   0  0  0  0  0  0  0  0  0  0  0  0
  -27.8941  -12.5993   18.9560 C   0  0  0  0  0  0  0  0  0  0  0  0
  -27.5719  -28.8303   19.9994 C   0  0  0  0  0  0  0  0  0  0  0  0
  -25.2777  -29.7505   19.4656 C   0  0  0  0  0  0  0  0  0  0  0  0
  -25.4682  -27.5294   20.5313 C   0  0  0  0  0  0  0  0  0  0  0  0
  -28.2379  -13.8901   19.7089 C   0  0  1  0  0  0  0  0  0  0  0  0
  -25.4797  -14.5844   22.2275 C   0  0  1  0  0  0  0  0  0  0  0  0
  -26.9141  -27.8245   20.9628 C   0  0  1  0  0  0  0  0  0  0  0  0
  -18.4527  -12.0205   24.2402 C   0  0  0  0  0  0  0  0  0  0  0  0
  -22.7921  -12.2964   19.2438 C   0  0  0  0  0  0  0  0  0  0  0  0
  -20.4759  -11.7897   20.0479 C   0  0  0  0  0  0  0  0  0  0  0  0
  -22.4164  -10.5102   20.9533 C   0  0  0  0  0  0  0  0  0  0  0  0
  -20.4968  -14.6850   26.0285 C   0  0  0  0  0  0  0  0  0  0  0  0
  -21.8102  -23.6910   22.6382 C   0  0  0  0  0  0  0  0  0  0  0  0
  -20.5085  -24.4844   22.5073 C   0  0  0  0  0  0  0  0  0  0  0  0
  -21.7654  -22.4089   21.8017 C   0  0  0  0  0  0  0  0  0  0  0  0
  -20.5373  -25.7448   23.3747 C   0  0  0  0  0  0  0  0  0  0  0  0
  -23.0419  -21.5876   21.9366 C   0  0  0  0  0  0  0  0  0  1  0  0
  -22.0869  -12.9186   21.6483 C   0  0  1  0  0  0  0  0  0  0  0  0
  -19.7131  -12.7911   24.6010 C   0  0  2  0  0  0  0  0  0  0  0  0
  -21.9542  -11.9045   20.4772 C   0  0  0  0  0  0  0  0  0  0  0  0
  -22.7836  -26.6761   23.7953 N   0  0  0  0  0  0  0  0  0  0  0  0
  -27.4614  -25.5156   20.2922 N   0  0  0  0  0  0  0  0  0  0  0  0
  -21.6916  -26.6438   23.0125 N   0  0  0  0  0  0  0  0  0  0  0  0
  -27.7307  -26.5536   21.1021 N   0  0  0  0  0  0  0  0  0  0  0  0
  -24.7102  -28.7821   20.4031 N   0  0  0  0  0  0  0  0  0  0  0  0
  -24.0466  -14.3884   21.9994 N   0  0  0  0  0  0  0  0  0  0  0  0
  -29.1472  -27.2549   22.8663 N   0  0  0  0  0  0  0  0  0  0  0  0
  -30.5362  -23.0403   22.0276 N   0  0  0  0  0  0  0  0  0  0  0  0
  -27.4190  -14.0165   20.8954 N   0  0  0  0  0  0  0  0  0  0  0  0
  -21.3254  -12.5587   22.8395 N   0  0  0  0  0  0  0  0  0  0  0  0
  -19.3476  -13.8627   25.5700 N   0  3  0  0  0  0  0  0  0  0  0  0
  -22.8693  -30.1186   20.9437 O   0  0  0  0  0  0  0  0  0  0  0  0
  -30.8726  -24.8831   23.3503 O   0  0  0  0  0  0  0  0  0  0  0  0
  -25.5485  -14.9840   19.9014 O   0  0  0  0  0  0  0  0  0  0  0  0
  -24.1395  -12.1196   22.5286 O   0  0  0  0  0  0  0  0  0  0  0  0
  -20.0485  -14.4927   22.9189 O   0  0  0  0  0  0  0  0  0  0  0  0
  -28.4623  -19.5951   18.1722 O   0  0  0  0  0  0  0  0  0  0  0  0
  -22.9407  -20.3981   21.1548 O   0  0  0  0  0  0  0  0  0  1  0  0
  -33.3839  -17.5414   16.7706 F   0  0  0  0  0  0  0  0  0  0  0  0
  -30.3967  -19.1150   20.0880 F   0  0  0  0  0  0  0  0  0  0  0  0
  1  2  1  0  0  0  0
  1  5  2  0  0  0  0
  2  6  2  0  0  0  0
  3  8  2  0  0  0  0
  3 17  1  0  0  0  0
  4  9  1  0  0  0  0
  4 17  2  0  0  0  0
  5 20  1  0  0  0  0
  6 22  1  0  0  0  0
  7 10  2  0  0  0  0
  7 21  1  0  0  0  0
  8 24  1  0  0  0  0
  9 24  2  0  0  0  0
 10 25  1  0  0  0  0
 11 12  2  0  0  0  0
 11 26  1  0  0  0  0
 12 27  1  0  0  0  0
 13 23  1  0  0  0  0
 13 25  2  0  0  0  0
 14 27  2  0  0  0  0
 14 28  1  0  0  0  0
 15 18  1  0  0  0  0
 15 61  2  0  0  0  0
 16 18  2  0  0  0  0
 16 63  1  0  0  0  0
 17 29  1  0  0  0  0
 18 31  1  0  0  0  0
 19 29  1  0  0  0  0
 19 30  2  0  0  0  0
 19 32  1  0  0  0  0
 20 22  2  0  0  0  0
 20 36  1  0  0  0  0
 21 23  2  0  0  0  0
 21 37  1  0  0  0  0
 22 45  1  0  0  0  0
 23 38  1  0  0  0  0
 24 77  1  0  0  0  0
 25 78  1  0  0  0  0
 26 28  2  0  0  0  0
 26 77  1  0  0  0  0
 27 79  1  0  0  0  0
 28 80  1  0  0  0  0
 29 62  2  0  0  0  0
 30 64  1  0  0  0  0
 30 67  1  0  0  0  0
 31 65  1  0  0  0  0
 31 72  2  0  0  0  0
 32 68  1  0  0  0  0
 32 73  2  0  0  0  0
 33 46  1  0  0  0  0
 33 69  1  0  0  0  0
 33 74  2  0  0  0  0
 34 58  1  0  0  0  0
 34 66  1  0  0  0  0
 34 75  2  0  0  0  0
 35 59  1  0  0  0  0
 35 70  1  0  0  0  0
 35 76  2  0  0  0  0
 36 39  1  0  0  0  0
 37 46  1  0  0  0  0
 38 66  1  0  0  0  0
 39 41  1  0  0  0  0
 40 42  1  0  0  0  0
 40 43  1  0  0  0  0
 41 45  1  0  0  0  0
 42 47  1  0  0  0  0
 43 65  1  0  0  0  0
 44 47  1  0  0  0  0
 44 65  1  0  0  0  0
 45 69  1  0  0  0  0
 46 66  1  0  0  0  0
 47 64  1  0  0  0  0
 48 59  1  0  0  0  0
 49 60  1  0  0  0  0
 50 60  1  0  0  0  0
 51 60  1  0  0  0  0
 52 71  1  0  0  0  0
 53 54  1  0  0  0  0
 53 55  1  0  0  0  0
 54 56  1  0  0  0  0
 55 57  1  0  0  0  0
 56 63  1  0  0  0  0
 57 78  1  0  0  0  0
 58 60  1  0  0  0  0
 58 70  1  0  0  0  0
 59 71  1  0  0  0  0
 61 63  1  0  0  0  0
 62 64  1  0  0  0  0
M  CHG  1  71   1
M  ISO  4  18 100  31 100  57 101  78 101
M  END
> <Batch ID>
0046

> <Smiles>
CNC(C)C(=O)NC(C(=O)N1Cc2cc([101O:1][101CH2:1]CCCCn3c[100c:0]([100C:0](=O)N4CCCC(n5nc(-c6ccc(Oc7ccc(F)cc7F)cc6)c(C(N)=O)c5N)C4)cn3)ccc2CC1C(=O)NC1CCCc2ccccc21)C(C)(C)C

> <Shape>
0.221

> <Color>
0.055

> <Negative vol penalty>
0.000

$$$$

  -OEChem-04052317213D

 83 91  0     1  0  0  0  0  0999 V2000
  -17.6178  -32.3976   22.3721 C   0  0  0  0  0  0  0  0  0  0  0  0
  -18.6847  -32.3025   21.4843 C   0  0  0  0  0  0  0  0  0  0  0  0
  -29.5466  -17.8923   19.0114 C   0  0  0  0  0  0  0  0  0  0  0  0
  -30.3618  -18.3119   21.2467 C   0  0  0  0  0  0  0  0  0  0  0  0
  -17.7102  -31.8163   23.6360 C   0  0  0  0  0  0  0  0  0  0  0  0
  -19.8451  -31.6270   21.8605 C   0  0  0  0  0  0  0  0  0  0  0  0
  -25.0950  -27.5960   19.1207 C   0  0  0  0  0  0  0  0  0  0  0  0
  -29.9228  -16.5540   19.1254 C   0  0  0  0  0  0  0  0  0  0  0  0
  -30.7379  -16.9735   21.3608 C   0  0  0  0  0  0  0  0  0  0  0  0
  -26.4867  -27.5265   19.0735 C   0  0  0  0  0  0  0  0  0  0  0  0
  -28.7234  -13.7442   20.5744 C   0  0  0  0  0  0  0  0  0  0  0  0
  -27.8151  -12.7767   20.1450 C   0  0  0  0  0  0  0  0  0  0  0  0
  -26.5032  -26.4934   21.2533 C   0  0  0  0  0  0  0  0  0  0  0  0
  -29.4285  -11.9768   18.5344 C   0  0  0  0  0  0  0  0  0  0  0  0
  -29.7662  -18.7713   20.0720 C   0  0  0  0  0  0  0  0  0  0  0  0
  -28.1373  -20.7212   20.3010 C   0  0  0  0  0  0  0  0  0  0  0  0
  -18.8687  -31.1250   24.0243 C   0  0  0  0  0  0  0  0  0  0  0  0
  -24.3965  -27.1238   20.2412 C   0  0  0  0  0  0  0  0  0  0  0  0
  -19.9536  -31.0371   23.1313 C   0  0  0  0  0  0  0  0  0  0  0  0
  -25.1025  -26.5557   21.3112 C   0  0  0  0  0  0  0  0  0  0  0  0
  -32.6640  -29.5343   19.5475 C   0  0  0  0  0  0  0  0  0  0  0  0
  -30.5184  -16.0946   20.3001 C   0  0  0  0  0  0  0  0  0  0  0  0
  -27.1911  -26.9778   20.1410 C   0  0  0  0  0  0  0  0  0  0  0  0
  -29.9843  -13.8281   19.9838 C   0  0  0  0  0  0  0  0  0  0  0  0
  -28.1676  -11.8930   19.1250 C   0  0  0  0  0  0  0  0  0  0  0  0
  -30.3369  -12.9444   18.9638 C   0  0  0  0  0  0  0  0  0  0  0  0
  -29.3784  -20.1540   19.9547 C   0  0  0  0  0  0  0  0  0  0  0  0
  -33.2591  -30.5465   18.8223 C   0  0  0  0  0  0  0  0  0  0  0  0
  -31.3321  -29.3041   19.2694 C   0  0  0  0  0  0  0  0  0  0  0  0
  -28.2738  -22.0547   20.0018 C   0  0  0  0  0  0  0  0  0  0  0  0
  -31.3182  -30.9624   17.7147 C   0  0  0  0  0  0  0  0  0  0  0  0
  -26.9659  -20.0983   20.8445 C   0  0  0  0  0  0  0  0  0  0  0  0
  -22.4822  -28.4411   22.4102 C   0  0  0  0  0  0  0  0  0  0  0  0
  -22.1147  -25.3684   23.3828 C   0  0  0  0  0  0  0  0  0  0  0  0
  -23.3749  -22.1995   23.5104 C   0  0  0  0  0  0  0  0  0  0  0  0
  -33.0192  -25.5550   19.7110 C   0  0  0  0  0  0  0  0  0  0  0  0
  -18.9402  -30.5538   25.4182 C   0  0  0  0  0  0  0  0  0  0  0  0
  -22.8936  -27.1816   20.2653 C   0  0  0  0  0  0  0  0  0  0  0  0
  -24.3985  -26.0162   22.5285 C   0  0  0  0  0  0  0  0  0  0  0  0
  -20.0609  -29.5336   25.6016 C   0  0  0  0  0  0  0  0  0  0  0  0
  -30.6189  -25.0112   17.0577 C   0  0  0  0  0  0  0  0  0  0  0  0
  -21.3623  -30.0566   25.0021 C   0  0  0  0  0  0  0  0  0  0  0  0
  -29.9090  -23.7464   17.5442 C   0  0  0  0  0  0  0  0  0  0  0  0
  -32.1091  -24.9686   17.3829 C   0  0  0  0  0  0  0  0  0  0  0  0
  -31.7108  -23.4882   19.3125 C   0  0  0  0  0  0  0  0  0  0  0  0
  -21.2196  -30.2913   23.4934 C   0  0  1  0  0  0  0  0  0  0  0  0
  -22.3166  -27.1400   21.6769 C   0  0  1  0  0  0  0  0  0  0  0  0
  -30.1968  -23.4801   19.0337 C   0  0  2  0  0  0  0  0  0  0  0  0
  -34.6975  -30.8858   19.0375 C   0  0  0  0  0  0  0  0  0  0  0  0
  -30.5715  -31.7536   16.6949 C   0  0  0  0  0  0  0  0  0  0  0  0
  -23.4368  -19.7355   23.9820 C   0  0  0  0  0  0  0  0  0  0  0  0
  -22.9010  -26.2922   26.1825 C   0  0  0  0  0  0  0  0  0  0  0  0
  -23.2978  -23.8951   26.7864 C   0  0  0  0  0  0  0  0  0  0  0  0
  -21.0163  -24.6497   26.1170 C   0  0  0  0  0  0  0  0  0  0  0  0
  -22.1620  -21.5497   20.8901 C   0  0  0  0  0  0  0  0  0  0  0  0
  -33.4105  -28.7422   20.5614 C   0  0  0  0  0  0  0  0  0  0  0  0
  -30.5738  -28.2229   20.0002 C   0  0  0  0  0  0  0  0  0  0  0  0
  -34.3131  -27.6580   19.9566 C   0  0  0  0  0  0  0  0  0  0  0  0
  -29.2273  -27.9197   19.3519 C   0  0  0  0  0  0  0  0  0  1  0  0
  -22.8255  -24.4643   24.3607 C   0  0  1  0  0  0  0  0  0  0  0  0
  -22.7419  -20.8512   23.2170 C   0  0  2  0  0  0  0  0  0  0  0  0
  -22.5239  -24.8372   25.8397 C   0  0  0  0  0  0  0  0  0  0  0  0
  -30.2398  -21.0536   19.4722 N   0  0  0  0  0  0  0  0  0  0  0  0
  -32.6135  -31.2834   17.8947 N   0  0  0  0  0  0  0  0  0  0  0  0
  -30.6256  -30.0019   18.3560 N   0  0  0  0  0  0  0  0  0  0  0  0
  -29.5389  -22.1996   19.5132 N   0  0  0  0  0  0  0  0  0  0  0  0
  -22.9288  -26.1010   22.5075 N   0  0  0  0  0  0  0  0  0  0  0  0
  -32.3140  -24.7306   18.8187 N   0  0  0  0  0  0  0  0  0  0  0  0
  -27.4338  -23.1059   20.1115 N   0  0  0  0  0  0  0  0  0  0  0  0
  -26.9962  -18.7190   21.0916 N   0  0  0  0  0  0  0  0  0  0  0  0
  -21.2901  -29.0354   22.7777 N   0  0  0  0  0  0  0  0  0  0  0  0
  -22.4533  -23.1005   24.0005 N   0  0  0  0  0  0  0  0  0  0  0  0
  -33.5654  -26.7088   19.1623 N   0  0  0  0  0  0  0  0  0  0  0  0
  -22.8257  -20.5455   21.7608 N   0  3  0  0  0  0  0  0  0  0  0  0
  -25.9177  -20.7428   21.0882 O   0  0  0  0  0  0  0  0  0  0  0  0
  -23.6082  -28.8729   22.6277 O   0  0  0  0  0  0  0  0  0  0  0  0
  -20.8821  -25.4173   23.3905 O   0  0  0  0  0  0  0  0  0  0  0  0
  -24.5682  -22.4292   23.3269 O   0  0  0  0  0  0  0  0  0  0  0  0
  -33.1483  -25.2855   20.9101 O   0  0  0  0  0  0  0  0  0  0  0  0
  -30.8853  -14.7887   20.4118 O   0  0  0  0  0  0  0  0  0  0  0  0
  -28.5496  -26.9094   20.0977 O   0  0  0  0  0  0  0  0  0  1  0  0
  -27.2958  -10.9630   18.7138 F   0  0  0  0  0  0  0  0  0  0  0  0
  -31.5472  -13.0193   18.3934 F   0  0  0  0  0  0  0  0  0  0  0  0
  1  2  1  0  0  0  0
  1  5  2  0  0  0  0
  2  6  2  0  0  0  0
  3  8  2  0  0  0  0
  3 15  1  0  0  0  0
  4  9  1  0  0  0  0
  4 15  2  0  0  0  0
  5 17  1  0  0  0  0
  6 19  1  0  0  0  0
  7 10  2  0  0  0  0
  7 18  1  0  0  0  0
  8 22  1  0  0  0  0
  9 22  2  0  0  0  0
 10 23  1  0  0  0  0
 11 12  2  0  0  0  0
 11 24  1  0  0  0  0
 12 25  1  0  0  0  0
 13 20  1  0  0  0  0
 13 23  2  0  0  0  0
 14 25  2  0  0  0  0
 14 26  1  0  0  0  0
 15 27  1  0  0  0  0
 16 27  1  0  0  0  0
 16 30  2  0  0  0  0
 16 32  1  0  0  0  0
 17 19  2  0  0  0  0
 17 37  1  0  0  0  0
 18 20  2  0  0  0  0
 18 38  1  0  0  0  0
 19 46  1  0  0  0  0
 20 39  1  0  0  0  0
 21 28  1  0  0  0  0
 21 29  2  0  0  0  0
 21 56  1  0  0  0  0
 22 80  1  0  0  0  0
 23 81  1  0  0  0  0
 24 26  2  0  0  0  0
 24 80  1  0  0  0  0
 25 82  1  0  0  0  0
 26 83  1  0  0  0  0
 27 63  2  0  0  0  0
 28 49  1  0  0  0  0
 28 64  2  0  0  0  0
 29 57  1  0  0  0  0
 29 65  1  0  0  0  0
 30 66  1  0  0  0  0
 30 69  1  0  0  0  0
 31 50  1  0  0  0  0
 31 64  1  0  0  0  0
 31 65  2  0  0  0  0
 32 70  1  0  0  0  0
 32 75  2  0  0  0  0
 33 47  1  0  0  0  0
 33 71  1  0  0  0  0
 33 76  2  0  0  0  0
 34 60  1  0  0  0  0
 34 67  1  0  0  0  0
 34 77  2  0  0  0  0
 35 61  1  0  0  0  0
 35 72  1  0  0  0  0
 35 78  2  0  0  0  0
 36 68  1  0  0  0  0
 36 73  1  0  0  0  0
 36 79  2  0  0  0  0
 37 40  1  0  0  0  0
 38 47  1  0  0  0  0
 39 67  1  0  0  0  0
 40 42  1  0  0  0  0
 41 43  1  0  0  0  0
 41 44  1  0  0  0  0
 42 46  1  0  0  0  0
 43 48  1  0  0  0  0
 44 68  1  0  0  0  0
 45 48  1  0  0  0  0
 45 68  1  0  0  0  0
 46 71  1  0  0  0  0
 47 67  1  0  0  0  0
 48 66  1  0  0  0  0
 51 61  1  0  0  0  0
 52 62  1  0  0  0  0
 53 62  1  0  0  0  0
 54 62  1  0  0  0  0
 55 74  1  0  0  0  0
 56 58  1  0  0  0  0
 57 59  1  0  0  0  0
 58 73  1  0  0  0  0
 59 81  1  0  0  0  0
 60 62  1  0  0  0  0
 60 72  1  0  0  0  0
 61 74  1  0  0  0  0
 63 66  1  0  0  0  0
M  CHG  1  74   1
M  ISO  4  36 100  59 101  73 100  81 101
M  END
> <Batch ID>
0046

> <Smiles>
CNC(C)C(=O)NC(C(=O)N1Cc2cc([101O:1][101CH2:1]Cc3nc(C)nc(C)c3CC[100NH:0][100C:0](=O)N3CCCC(n4nc(-c5ccc(Oc6ccc(F)cc6F)cc5)c(C(N)=O)c4N)C3)ccc2CC1C(=O)NC1CCCc2ccccc21)C(C)(C)C

> <Shape>
0.222

> <Color>
0.081

> <Negative vol penalty>
0.000

$$$$

  -OEChem-04052317213D

 89 97  0     1  0  0  0  0  0999 V2000
  -28.2191  -25.1051   16.4050 C   0  0  0  0  0  0  0  0  0  0  0  0
  -26.9717  -25.4898   16.8861 C   0  0  0  0  0  0  0  0  0  0  0  0
  -25.9285  -14.0958   18.5517 C   0  0  0  0  0  0  0  0  0  0  0  0
  -24.5370  -14.4623   20.4925 C   0  0  0  0  0  0  0  0  0  0  0  0
  -29.3565  -25.2969   17.1883 C   0  0  0  0  0  0  0  0  0  0  0  0
  -26.8608  -26.0656   18.1512 C   0  0  0  0  0  0  0  0  0  0  0  0
  -23.8300  -30.1224   18.1806 C   0  0  0  0  0  0  0  0  0  0  0  0
  -26.1507  -12.7805   18.9594 C   0  0  0  0  0  0  0  0  0  0  0  0
  -24.7592  -13.1470   20.9001 C   0  0  0  0  0  0  0  0  0  0  0  0
  -22.4553  -29.8902   18.1738 C   0  0  0  0  0  0  0  0  0  0  0  0
  -24.6677   -9.7777   22.2632 C   0  0  0  0  0  0  0  0  0  0  0  0
  -23.5686   -9.0396   22.7023 C   0  0  0  0  0  0  0  0  0  0  0  0
  -22.3837  -30.2794   20.5534 C   0  0  0  0  0  0  0  0  0  0  0  0
  -23.5339  -21.1686   21.8090 C   0  0  0  0  0  0  0  0  0  0  0  0
  -22.5145   -9.3273   20.5475 C   0  0  0  0  0  0  0  0  0  0  0  0
  -24.2653  -23.4146   22.0863 C   0  0  0  0  0  0  0  0  0  0  0  0
  -25.1217  -14.9367   19.3183 C   0  0  0  0  0  0  0  0  0  0  0  0
  -23.8572  -16.7654   18.0674 C   0  0  0  0  0  0  0  0  0  0  0  0
  -29.2607  -25.8841   18.4598 C   0  0  0  0  0  0  0  0  0  0  0  0
  -24.4948  -30.4246   19.3778 C   0  0  0  0  0  0  0  0  0  0  0  0
  -27.9978  -26.2641   18.9528 C   0  0  0  0  0  0  0  0  0  0  0  0
  -23.7665  -30.5176   20.5723 C   0  0  0  0  0  0  0  0  0  0  0  0
  -24.5439  -22.0592   22.1553 C   0  0  0  0  0  0  0  0  0  0  0  0
  -22.2935  -21.6539   21.4098 C   0  0  0  0  0  0  0  0  0  0  0  0
  -25.5660  -12.3061   20.1335 C   0  0  0  0  0  0  0  0  0  0  0  0
  -21.7324  -29.9659   19.3607 C   0  0  0  0  0  0  0  0  0  0  0  0
  -24.6902  -10.2907   20.9662 C   0  0  0  0  0  0  0  0  0  0  0  0
  -22.4920   -8.8144   21.8445 C   0  0  0  0  0  0  0  0  0  0  0  0
  -23.6136  -10.0654   20.1084 C   0  0  0  0  0  0  0  0  0  0  0  0
  -24.8922  -16.2957   18.8980 C   0  0  0  0  0  0  0  0  0  0  0  0
  -22.1155  -23.0275   21.3743 C   0  0  0  0  0  0  0  0  0  0  0  0
  -24.0797  -18.1174   17.9727 C   0  0  0  0  0  0  0  0  0  0  0  0
  -22.7899  -16.0441   17.4379 C   0  0  0  0  0  0  0  0  0  0  0  0
  -26.7990  -29.0412   21.0750 C   0  0  0  0  0  0  0  0  0  0  0  0
  -26.9349  -21.9769   21.5872 C   0  0  0  0  0  0  0  0  0  0  0  0
  -26.5831  -31.7490   22.8481 C   0  0  0  0  0  0  0  0  0  0  0  0
  -24.6974  -34.4082   23.8578 C   0  0  0  0  0  0  0  0  0  0  0  0
  -30.5122  -26.0278   19.2892 C   0  0  0  0  0  0  0  0  0  0  0  0
  -25.9737  -30.6987   19.3640 C   0  0  0  0  0  0  0  0  0  0  0  0
  -24.4296  -30.8586   21.8809 C   0  0  0  0  0  0  0  0  0  0  0  0
  -30.3563  -26.9878   20.4657 C   0  0  0  0  0  0  0  0  0  0  0  0
  -27.5818  -21.3629   18.1167 C   0  0  0  0  0  0  0  0  0  0  0  0
  -29.0589  -26.7056   21.2167 C   0  0  0  0  0  0  0  0  0  0  0  0
  -26.8956  -20.0227   17.8553 C   0  0  0  0  0  0  0  0  0  0  0  0
  -28.1747  -21.4220   19.5210 C   0  0  0  0  0  0  0  0  0  0  0  0
  -26.5029  -19.7970   20.3492 C   0  0  0  0  0  0  0  0  0  0  0  0
  -27.8400  -26.9147   20.3100 C   0  0  1  0  0  0  0  0  0  0  0  0
  -26.6322  -30.4928   20.7246 C   0  0  1  0  0  0  0  0  0  0  0  0
  -25.8635  -19.7069   18.9523 C   0  0  2  0  0  0  0  0  0  0  0  0
  -21.2076  -20.7052   21.0356 C   0  0  0  0  0  0  0  0  0  0  0  0
  -24.7794  -36.4316   25.3398 C   0  0  0  0  0  0  0  0  0  0  0  0
  -25.4206  -21.5169   25.1060 C   0  0  0  0  0  0  0  0  0  0  0  0
  -26.2188  -29.9666   25.2976 C   0  0  0  0  0  0  0  0  0  0  0  0
  -25.3726  -31.9678   26.5415 C   0  0  0  0  0  0  0  0  0  0  0  0
  -27.7056  -31.9448   25.6587 C   0  0  0  0  0  0  0  0  0  0  0  0
  -24.2849  -36.2424   21.5721 C   0  0  0  0  0  0  0  0  0  0  0  0
  -18.3756  -26.5217   23.4903 C   0  0  0  0  0  0  0  0  0  0  0  0
  -20.7915  -23.6111   20.9501 C   0  0  0  0  0  0  0  0  0  0  0  0
  -20.4165  -24.9024   21.6893 C   0  0  0  0  0  0  0  0  0  0  0  0
  -18.6202  -28.3334   20.1588 C   0  0  0  0  0  0  0  0  0  0  0  0
  -19.0571  -25.4928   21.3275 C   0  0  0  0  0  0  0  0  0  0  0  0
  -17.9109  -27.7033   21.3480 C   0  0  0  0  0  0  0  0  0  0  0  0
  -19.8217  -29.1878   20.5438 C   0  0  0  0  0  0  0  0  0  1  0  0
  -25.8812  -21.5723   22.5873 C   0  0  1  0  0  0  0  0  0  0  0  0
  -25.7725  -32.1804   24.0463 C   0  0  1  0  0  0  0  0  0  0  0  0
  -25.0090  -35.8918   23.9367 C   0  0  2  0  0  0  0  0  0  0  0  0
  -26.3313  -22.0399   23.9980 C   0  0  2  0  0  0  0  0  0  0  0  0
  -26.2549  -31.5065   25.3619 C   0  0  0  0  0  0  0  0  0  0  0  0
  -23.0728  -23.9236   21.7033 N   0  0  0  0  0  0  0  0  0  0  0  0
  -25.7115  -17.2701   19.3020 N   0  0  0  0  0  0  0  0  0  0  0  0
  -25.1915  -18.3657   18.7228 N   0  0  0  0  0  0  0  0  0  0  0  0
  -25.8785  -31.1118   21.8168 N   0  0  0  0  0  0  0  0  0  0  0  0
  -27.1686  -21.0941   20.5327 N   0  0  0  0  0  0  0  0  0  0  0  0
  -23.4310  -19.1063   17.3218 N   0  0  0  0  0  0  0  0  0  0  0  0
  -22.7087  -14.6596   17.6402 N   0  0  0  0  0  0  0  0  0  0  0  0
  -27.5540  -28.3260   20.1651 N   0  0  0  0  0  0  0  0  0  0  0  0
  -25.8217  -33.6383   24.0689 N   0  0  0  0  0  0  0  0  0  0  0  0
  -24.1435  -36.6538   22.9926 N   0  3  0  0  0  0  0  0  0  0  0  0
  -18.8209  -26.7850   22.0719 N   0  3  1  0  0  0  0  0  0  0  0  0
  -21.9431  -16.6080   16.7040 O   0  0  0  0  0  0  0  0  0  0  0  0
  -26.2823  -28.6029   22.0960 O   0  0  0  0  0  0  0  0  0  0  0  0
  -27.5292  -23.0474   21.7388 O   0  0  0  0  0  0  0  0  0  0  0  0
  -27.7954  -31.9755   22.8247 O   0  0  0  0  0  0  0  0  0  0  0  0
  -23.5689  -33.9755   23.6351 O   0  0  0  0  0  0  0  0  0  0  0  0
  -27.6492  -21.5425   24.2526 O   0  0  0  0  0  0  0  0  0  0  0  0
  -25.7824  -11.0226   20.5315 O   0  0  0  0  0  0  0  0  0  0  0  0
  -20.3906  -29.7390   19.3569 O   0  0  0  0  0  0  0  0  0  1  0  0
  -21.4373   -8.1043   22.2658 F   0  0  0  0  0  0  0  0  0  0  0  0
  -23.6300  -10.5547   18.8609 F   0  0  0  0  0  0  0  0  0  0  0  0
  1  2  1  0  0  0  0
  1  5  2  0  0  0  0
  2  6  2  0  0  0  0
  3  8  2  0  0  0  0
  3 17  1  0  0  0  0
  4  9  1  0  0  0  0
  4 17  2  0  0  0  0
  5 19  1  0  0  0  0
  6 21  1  0  0  0  0
  7 10  2  0  0  0  0
  7 20  1  0  0  0  0
  8 25  1  0  0  0  0
  9 25  2  0  0  0  0
 10 26  1  0  0  0  0
 11 12  2  0  0  0  0
 11 27  1  0  0  0  0
 12 28  1  0  0  0  0
 13 22  1  0  0  0  0
 13 26  2  0  0  0  0
 14 23  2  0  0  0  0
 14 24  1  0  0  0  0
 15 28  2  0  0  0  0
 15 29  1  0  0  0  0
 16 23  1  0  0  0  0
 16 69  2  0  0  0  0
 17 30  1  0  0  0  0
 18 30  1  0  0  0  0
 18 32  2  0  0  0  0
 18 33  1  0  0  0  0
 19 21  2  0  0  0  0
 19 38  1  0  0  0  0
 20 22  2  0  0  0  0
 20 39  1  0  0  0  0
 21 47  1  0  0  0  0
 22 40  1  0  0  0  0
 23 64  1  0  0  0  0
 24 31  2  0  0  0  0
 24 50  1  0  0  0  0
 25 86  1  0  0  0  0
 26 87  1  0  0  0  0
 27 29  2  0  0  0  0
 27 86  1  0  0  0  0
 28 88  1  0  0  0  0
 29 89  1  0  0  0  0
 30 70  2  0  0  0  0
 31 58  1  0  0  0  0
 31 69  1  0  0  0  0
 32 71  1  0  0  0  0
 32 74  1  0  0  0  0
 33 75  1  0  0  0  0
 33 80  2  0  0  0  0
 34 48  1  0  0  0  0
 34 76  1  0  0  0  0
 34 81  2  0  0  0  0
 35 64  1  0  0  0  0
 35 73  1  0  0  0  0
 35 82  2  0  0  0  0
 36 65  1  0  0  0  0
 36 72  1  0  0  0  0
 36 83  2  0  0  0  0
 37 66  1  0  0  0  0
 37 77  1  0  0  0  0
 37 84  2  0  0  0  0
 38 41  1  0  0  0  0
 39 48  1  0  0  0  0
 40 72  1  0  0  0  0
 41 43  1  0  0  0  0
 42 44  1  0  0  0  0
 42 45  1  0  0  0  0
 43 47  1  0  0  0  0
 44 49  1  0  0  0  0
 45 73  1  0  0  0  0
 46 49  1  0  0  0  0
 46 73  1  0  0  0  0
 47 76  1  0  0  0  0
 48 72  1  0  0  0  0
 49 71  1  0  0  0  0
 51 66  1  0  0  0  0
 52 67  1  0  0  0  0
 53 68  1  0  0  0  0
 54 68  1  0  0  0  0
 55 68  1  0  0  0  0
 56 78  1  0  0  0  0
 57 79  1  0  0  0  0
 58 59  1  0  0  0  0
 59 61  1  0  0  0  0
 60 62  1  0  0  0  0
 60 63  1  0  0  0  0
 61 79  1  0  0  0  0
 62 79  1  0  0  0  0
 63 87  1  0  0  0  0
 64 67  1  0  0  0  0
 65 68  1  0  0  0  0
 65 77  1  0  0  0  0
 66 78  1  0  0  0  0
 67 85  1  0  0  0  0
 70 71  1  0  0  0  0
M  CHG  2  78   1  79   1
M  ISO  4  35 100  63 101  64 100  87 101
M  END
> <Batch ID>
0046

> <Smiles>
CNC(C)C(=O)NC(C(=O)N1Cc2cc([101O:1][101CH2:1]CCN(C)CCCc3ncc([100CH:0](C(C)O)[100C:0](=O)N4CCCC(n5nc(-c6ccc(Oc7ccc(F)cc7F)cc6)c(C(N)=O)c5N)C4)cc3C)ccc2CC1C(=O)NC1CCCc2ccccc21)C(C)(C)C

> <Shape>
0.290

> <Color>
0.070

> <Negative vol penalty>
0.000

$$$$

  -OEChem-04052317213D

 84 92  0     1  0  0  0  0  0999 V2000
  -27.7507  -21.3265   27.8425 C   0  0  0  0  0  0  0  0  0  0  0  0
  -27.8986  -21.8291   26.5537 C   0  0  0  0  0  0  0  0  0  0  0  0
  -24.2146  -12.1377   21.5236 C   0  0  0  0  0  0  0  0  0  0  0  0
  -25.6535  -11.3836   19.7353 C   0  0  0  0  0  0  0  0  0  0  0  0
  -26.4894  -21.2926   28.4358 C   0  0  0  0  0  0  0  0  0  0  0  0
  -26.7850  -22.2971   25.8571 C   0  0  0  0  0  0  0  0  0  0  0  0
  -27.6658  -26.7029   23.5208 C   0  0  0  0  0  0  0  0  0  0  0  0
  -23.7837  -10.8272   21.7295 C   0  0  0  0  0  0  0  0  0  0  0  0
  -25.2227  -10.0730   19.9412 C   0  0  0  0  0  0  0  0  0  0  0  0
  -28.3847  -26.6581   22.3271 C   0  0  0  0  0  0  0  0  0  0  0  0
  -21.6185   -8.6633   20.2964 C   0  0  0  0  0  0  0  0  0  0  0  0
  -20.2502   -8.4506   20.4646 C   0  0  0  0  0  0  0  0  0  0  0  0
  -26.3237  -26.8355   21.0861 C   0  0  0  0  0  0  0  0  0  0  0  0
  -20.6643   -7.5181   22.6546 C   0  0  0  0  0  0  0  0  0  0  0  0
  -25.1495  -12.4159   20.5264 C   0  0  0  0  0  0  0  0  0  0  0  0
  -24.8024  -14.8799   19.9644 C   0  0  0  0  0  0  0  0  0  0  0  0
  -25.3613  -21.7694   27.7497 C   0  0  0  0  0  0  0  0  0  0  0  0
  -26.2672  -26.8036   23.5059 C   0  0  0  0  0  0  0  0  0  0  0  0
  -25.5073  -22.2684   26.4412 C   0  0  0  0  0  0  0  0  0  0  0  0
  -25.5895  -26.8840   22.2810 C   0  0  0  0  0  0  0  0  0  0  0  0
  -28.3243  -20.9780   20.3331 C   0  0  0  0  0  0  0  0  0  0  0  0
  -24.2878   -9.7948   20.9384 C   0  0  0  0  0  0  0  0  0  0  0  0
  -27.7135  -26.7214   21.1095 C   0  0  0  0  0  0  0  0  0  0  0  0
  -22.5097   -8.3033   21.3074 C   0  0  0  0  0  0  0  0  0  0  0  0
  -19.7731   -7.8780   21.6436 C   0  0  0  0  0  0  0  0  0  0  0  0
  -22.0326   -7.7308   22.4864 C   0  0  0  0  0  0  0  0  0  0  0  0
  -25.5946  -13.7696   20.3128 C   0  0  0  0  0  0  0  0  0  0  0  0
  -29.3478  -21.1369   19.4212 C   0  0  0  0  0  0  0  0  0  0  0  0
  -27.4556  -22.0441   20.4471 C   0  0  0  0  0  0  0  0  0  0  0  0
  -25.6915  -15.9236   19.8815 C   0  0  0  0  0  0  0  0  0  0  0  0
  -28.6068  -23.2154   18.8756 C   0  0  0  0  0  0  0  0  0  0  0  0
  -23.3892  -14.9607   19.7361 C   0  0  0  0  0  0  0  0  0  0  0  0
  -23.8758  -24.9763   24.5286 C   0  0  0  0  0  0  0  0  0  0  0  0
  -22.0679  -27.5162   23.6326 C   0  0  0  0  0  0  0  0  0  0  0  0
  -21.7463  -30.3006   21.6857 C   0  0  0  0  0  0  0  0  0  0  0  0
  -30.0329  -18.5887   22.4046 C   0  0  0  0  0  0  0  0  0  0  0  0
  -24.0112  -21.6686   28.4143 C   0  0  0  0  0  0  0  0  0  0  0  0
  -25.5084  -26.8777   24.8025 C   0  0  0  0  0  0  0  0  0  0  0  0
  -24.0906  -27.0131   22.2109 C   0  0  0  0  0  0  0  0  0  0  0  0
  -22.9398  -22.5300   27.7506 C   0  0  0  0  0  0  0  0  0  0  0  0
  -30.7404  -15.9783   19.8773 C   0  0  0  0  0  0  0  0  0  0  0  0
  -22.9783  -22.3566   26.2356 C   0  0  0  0  0  0  0  0  0  0  0  0
  -29.4143  -15.2240   19.7974 C   0  0  0  0  0  0  0  0  0  0  0  0
  -30.9516  -16.6103   21.2498 C   0  0  0  0  0  0  0  0  0  0  0  0
  -28.5079  -16.7369   21.6058 C   0  0  0  0  0  0  0  0  0  0  0  0
  -24.3272  -22.8081   25.6627 C   0  0  1  0  0  0  0  0  0  0  0  0
  -24.0468  -26.4629   24.6641 C   0  0  1  0  0  0  0  0  0  0  0  0
  -28.2430  -16.1272   20.2210 C   0  0  2  0  0  0  0  0  0  0  0  0
  -30.3494  -20.0490   19.2116 C   0  0  0  0  0  0  0  0  0  0  0  0
  -26.3096  -21.9877   21.4029 C   0  0  0  0  0  0  0  0  0  0  0  0
  -20.7292  -32.4155   20.7968 C   0  0  0  0  0  0  0  0  0  0  0  0
  -20.4082  -25.5833   21.9535 C   0  0  0  0  0  0  0  0  0  0  0  0
  -19.4684  -27.5582   20.7351 C   0  0  0  0  0  0  0  0  0  0  0  0
  -19.0757  -27.3041   23.1854 C   0  0  0  0  0  0  0  0  0  0  0  0
  -29.3369  -20.8818   22.9851 C   0  0  0  0  0  0  0  0  0  0  0  0
  -23.1178  -31.9533   23.7221 C   0  0  0  0  0  0  0  0  0  0  0  0
  -28.1672  -19.7376   21.1390 C   0  0  0  0  0  0  0  0  0  0  0  0
  -28.7637  -24.4707   18.0551 C   0  0  0  0  0  0  0  0  0  0  0  0
  -29.8817  -25.3924   18.5472 C   0  0  0  0  0  0  0  0  0  0  0  0
  -29.6371  -25.9442   19.9469 C   0  0  0  0  0  0  0  0  0  1  0  0
  -21.3784  -27.9414   22.3587 C   0  0  1  0  0  0  0  0  0  0  0  0
  -21.3084  -31.7160   22.0166 C   0  0  2  0  0  0  0  0  0  0  0  0
  -20.1108  -27.0924   22.0591 C   0  0  0  0  0  0  0  0  0  0  0  0
  -26.8875  -14.0789   20.4422 N   0  0  0  0  0  0  0  0  0  0  0  0
  -29.5196  -22.2463   18.6729 N   0  0  0  0  0  0  0  0  0  0  0  0
  -27.5676  -23.1823   19.7314 N   0  0  0  0  0  0  0  0  0  0  0  0
  -26.9145  -15.3954   20.1736 N   0  0  0  0  0  0  0  0  0  0  0  0
  -23.3928  -27.0752   23.5058 N   0  0  0  0  0  0  0  0  0  0  0  0
  -29.8051  -17.4285   21.6464 N   0  0  0  0  0  0  0  0  0  0  0  0
  -25.5385  -17.2323   19.5880 N   0  0  0  0  0  0  0  0  0  0  0  0
  -22.9093  -14.7513   18.4361 N   0  0  0  0  0  0  0  0  0  0  0  0
  -24.3869  -24.2522   25.5888 N   0  0  0  0  0  0  0  0  0  0  0  0
  -21.1222  -29.3715   22.4910 N   0  0  0  0  0  0  0  0  0  0  0  0
  -29.1359  -19.6533   22.2298 N   0  0  0  0  0  0  0  0  0  0  0  0
  -22.4659  -32.5142   22.5107 N   0  3  0  0  0  0  0  0  0  0  0  0
  -22.5775  -15.2275   20.6546 O   0  0  0  0  0  0  0  0  0  0  0  0
  -23.3198  -24.5200   23.5364 O   0  0  0  0  0  0  0  0  0  0  0  0
  -21.4559  -27.5799   24.7017 O   0  0  0  0  0  0  0  0  0  0  0  0
  -22.5579  -30.0446   20.7990 O   0  0  0  0  0  0  0  0  0  0  0  0
  -30.9895  -18.6719   23.1856 O   0  0  0  0  0  0  0  0  0  0  0  0
  -23.8677   -8.5158   21.1392 O   0  0  0  0  0  0  0  0  0  0  0  0
  -28.4127  -26.6772   19.9429 O   0  0  0  0  0  0  0  0  0  1  0  0
  -18.4591   -7.6753   21.8056 F   0  0  0  0  0  0  0  0  0  0  0  0
  -22.8838   -7.3840   23.4616 F   0  0  0  0  0  0  0  0  0  0  0  0
  1  2  1  0  0  0  0
  1  5  2  0  0  0  0
  2  6  2  0  0  0  0
  3  8  2  0  0  0  0
  3 15  1  0  0  0  0
  4  9  1  0  0  0  0
  4 15  2  0  0  0  0
  5 17  1  0  0  0  0
  6 19  1  0  0  0  0
  7 10  2  0  0  0  0
  7 18  1  0  0  0  0
  8 22  1  0  0  0  0
  9 22  2  0  0  0  0
 10 23  1  0  0  0  0
 11 12  2  0  0  0  0
 11 24  1  0  0  0  0
 12 25  1  0  0  0  0
 13 20  1  0  0  0  0
 13 23  2  0  0  0  0
 14 25  2  0  0  0  0
 14 26  1  0  0  0  0
 15 27  1  0  0  0  0
 16 27  1  0  0  0  0
 16 30  2  0  0  0  0
 16 32  1  0  0  0  0
 17 19  2  0  0  0  0
 17 37  1  0  0  0  0
 18 20  2  0  0  0  0
 18 38  1  0  0  0  0
 19 46  1  0  0  0  0
 20 39  1  0  0  0  0
 21 28  1  0  0  0  0
 21 29  2  0  0  0  0
 21 57  1  0  0  0  0
 22 81  1  0  0  0  0
 23 82  1  0  0  0  0
 24 26  2  0  0  0  0
 24 81  1  0  0  0  0
 25 83  1  0  0  0  0
 26 84  1  0  0  0  0
 27 64  2  0  0  0  0
 28 49  1  0  0  0  0
 28 65  2  0  0  0  0
 29 50  1  0  0  0  0
 29 66  1  0  0  0  0
 30 67  1  0  0  0  0
 30 70  1  0  0  0  0
 31 58  1  0  0  0  0
 31 65  1  0  0  0  0
 31 66  2  0  0  0  0
 32 71  1  0  0  0  0
 32 76  2  0  0  0  0
 33 47  1  0  0  0  0
 33 72  1  0  0  0  0
 33 77  2  0  0  0  0
 34 61  1  0  0  0  0
 34 68  1  0  0  0  0
 34 78  2  0  0  0  0
 35 62  1  0  0  0  0
 35 73  1  0  0  0  0
 35 79  2  0  0  0  0
 36 69  1  0  0  0  0
 36 74  1  0  0  0  0
 36 80  2  0  0  0  0
 37 40  1  0  0  0  0
 38 47  1  0  0  0  0
 39 68  1  0  0  0  0
 40 42  1  0  0  0  0
 41 43  1  0  0  0  0
 41 44  1  0  0  0  0
 42 46  1  0  0  0  0
 43 48  1  0  0  0  0
 44 69  1  0  0  0  0
 45 48  1  0  0  0  0
 45 69  1  0  0  0  0
 46 72  1  0  0  0  0
 47 68  1  0  0  0  0
 48 67  1  0  0  0  0
 51 62  1  0  0  0  0
 52 63  1  0  0  0  0
 53 63  1  0  0  0  0
 54 63  1  0  0  0  0
 55 74  1  0  0  0  0
 56 75  1  0  0  0  0
 57 74  1  0  0  0  0
 58 59  1  0  0  0  0
 59 60  1  0  0  0  0
 60 82  1  0  0  0  0
 61 63  1  0  0  0  0
 61 73  1  0  0  0  0
 62 75  1  0  0  0  0
 64 67  1  0  0  0  0
M  CHG  1  75   1
M  ISO  4  36 100  60 101  74 100  82 101
M  END
> <Batch ID>
0046

> <Smiles>
CNC(C)C(=O)NC(C(=O)N1Cc2cc([101O:1][101CH2:1]CCc3nc(C)c(C[100N:0](C)[100C:0](=O)N4CCCC(n5nc(-c6ccc(Oc7ccc(F)cc7F)cc6)c(C(N)=O)c5N)C4)c(C)n3)ccc2CC1C(=O)NC1CCCc2ccccc21)C(C)(C)C

> <Shape>
0.248

> <Color>
0.060

> <Negative vol penalty>
0.000

$$$$

  -OEChem-04052317213D

 77 84  0     1  0  0  0  0  0999 V2000
  -24.3219  -11.6108   20.0738 C   0  0  0  0  0  0  0  0  0  0  0  0
  -23.8447  -12.8985   20.2963 C   0  0  0  0  0  0  0  0  0  0  0  0
  -25.0180  -31.1736   20.9847 C   0  0  0  0  0  0  0  0  0  0  0  0
  -25.1315  -31.1015   23.3970 C   0  0  0  0  0  0  0  0  0  0  0  0
  -25.6564  -11.3075   20.3400 C   0  0  0  0  0  0  0  0  0  0  0  0
  -24.7016  -13.8834   20.7864 C   0  0  0  0  0  0  0  0  0  0  0  0
  -24.2092  -18.2845   18.3301 C   0  0  0  0  0  0  0  0  0  0  0  0
  -25.6817  -32.4004   20.9901 C   0  0  0  0  0  0  0  0  0  0  0  0
  -25.7953  -32.3283   23.4024 C   0  0  0  0  0  0  0  0  0  0  0  0
  -23.1146  -19.0809   18.6638 C   0  0  0  0  0  0  0  0  0  0  0  0
  -28.9278  -33.4661   22.8425 C   0  0  0  0  0  0  0  0  0  0  0  0
  -30.0446  -33.5933   23.6684 C   0  0  0  0  0  0  0  0  0  0  0  0
  -24.5376  -20.4419   20.0575 C   0  0  0  0  0  0  0  0  0  0  0  0
  -28.9592  -35.3938   24.8588 C   0  0  0  0  0  0  0  0  0  0  0  0
  -24.7428  -30.5241   22.1882 C   0  0  0  0  0  0  0  0  0  0  0  0
  -24.6372  -27.9763   22.1179 C   0  0  0  0  0  0  0  0  0  0  0  0
  -26.5325  -12.2916   20.8244 C   0  0  0  0  0  0  0  0  0  0  0  0
  -25.4761  -18.5546   18.8670 C   0  0  0  0  0  0  0  0  0  0  0  0
  -26.0488  -13.5926   21.0606 C   0  0  0  0  0  0  0  0  0  0  0  0
  -25.6471  -19.6489   19.7269 C   0  0  0  0  0  0  0  0  0  0  0  0
  -26.0704  -32.9777   22.1989 C   0  0  0  0  0  0  0  0  0  0  0  0
  -23.2781  -20.1581   19.5299 C   0  0  0  0  0  0  0  0  0  0  0  0
  -27.8266  -34.3028   23.0247 C   0  0  0  0  0  0  0  0  0  0  0  0
  -30.0603  -34.5572   24.6765 C   0  0  0  0  0  0  0  0  0  0  0  0
  -27.8423  -35.2666   24.0329 C   0  0  0  0  0  0  0  0  0  0  0  0
  -24.0567  -29.2571   22.1833 C   0  0  0  0  0  0  0  0  0  0  0  0
  -23.5689  -27.1134   22.1432 C   0  0  0  0  0  0  0  0  0  0  0  0
  -26.0186  -27.6001   22.0412 C   0  0  0  0  0  0  0  0  0  0  0  0
  -27.5053  -16.9726   20.7334 C   0  0  0  0  0  0  0  0  0  0  0  0
  -18.6548  -25.5874   24.3370 C   0  0  0  0  0  0  0  0  0  0  0  0
  -29.4513  -19.4860   20.0868 C   0  0  0  0  0  0  0  0  0  0  0  0
  -29.7482  -22.7555   19.1545 C   0  0  0  0  0  0  0  0  0  0  0  0
  -27.9550  -11.9043   21.1422 C   0  0  0  0  0  0  0  0  0  0  0  0
  -26.6520  -17.7021   18.4760 C   0  0  0  0  0  0  0  0  0  0  0  0
  -26.9904  -19.9935   20.3144 C   0  0  0  0  0  0  0  0  0  0  0  0
  -28.8900  -13.1000   21.3051 C   0  0  0  0  0  0  0  0  0  0  0  0
  -18.6156  -27.9777   21.6677 C   0  0  0  0  0  0  0  0  0  0  0  0
  -28.2488  -14.1620   22.1927 C   0  0  0  0  0  0  0  0  0  0  0  0
  -20.0693  -28.4404   21.5789 C   0  0  0  0  0  0  0  0  0  0  0  0
  -18.2093  -27.6869   23.1091 C   0  0  0  0  0  0  0  0  0  0  0  0
  -20.5506  -27.1662   23.7166 C   0  0  0  0  0  0  0  0  0  0  0  0
  -26.9535  -14.6945   21.5680 C   0  0  1  0  0  0  0  0  0  0  0  0
  -27.7937  -17.7594   19.4862 C   0  0  1  0  0  0  0  0  0  0  0  0
  -21.0109  -27.4413   22.2741 C   0  0  2  0  0  0  0  0  0  0  0  0
  -19.9069  -25.1205   26.4037 C   0  0  0  0  0  0  0  0  0  0  0  0
  -31.4651  -24.5404   18.7499 C   0  0  0  0  0  0  0  0  0  0  0  0
  -29.7998  -19.8301   23.0985 C   0  0  0  0  0  0  0  0  0  0  0  0
  -30.7047  -22.1232   22.6615 C   0  0  0  0  0  0  0  0  0  0  0  0
  -31.8956  -20.1227   21.7657 C   0  0  0  0  0  0  0  0  0  0  0  0
  -28.9497  -23.0434   16.3193 C   0  0  0  0  0  0  0  0  0  0  0  0
  -20.7354  -22.3706   23.0075 C   0  0  0  0  0  0  0  0  0  0  0  0
  -19.3115  -22.5384   23.5463 C   0  0  0  0  0  0  0  0  0  0  0  0
  -20.7906  -21.7317   21.6212 C   0  0  0  0  0  0  0  0  0  0  0  0
  -19.1874  -23.2184   24.9168 C   0  0  0  0  0  0  0  0  0  0  0  0
  -22.2260  -21.5492   21.1467 C   0  0  0  0  0  0  0  0  0  1  0  0
  -19.6753  -24.6713   24.9642 C   0  0  1  0  0  0  0  0  0  0  0  0
  -29.7053  -20.8322   20.7209 C   0  0  1  0  0  0  0  0  0  0  0  0
  -30.6329  -23.4325   18.1232 C   0  0  2  0  0  0  0  0  0  0  0  0
  -30.5005  -20.7197   22.0523 C   0  0  0  0  0  0  0  0  0  0  0  0
  -22.7231  -29.2163   22.2453 N   0  0  0  0  0  0  0  0  0  0  0  0
  -22.4568  -27.8993   22.2190 N   0  0  0  0  0  0  0  0  0  0  0  0
  -28.1082  -19.1263   19.9069 N   0  0  0  0  0  0  0  0  0  0  0  0
  -19.1411  -26.7513   23.7414 N   0  0  0  0  0  0  0  0  0  0  0  0
  -23.4818  -25.7667   22.1078 N   0  0  0  0  0  0  0  0  0  0  0  0
  -26.9871  -28.6132   22.0251 N   0  0  0  0  0  0  0  0  0  0  0  0
  -27.2524  -15.6330   20.5077 N   0  0  0  0  0  0  0  0  0  0  0  0
  -30.3584  -21.6468   19.7019 N   0  0  0  0  0  0  0  0  0  0  0  0
  -29.8021  -24.0256   17.0374 N   0  3  0  0  0  0  0  0  0  0  0  0
  -26.3826  -26.4017   21.9719 O   0  0  0  0  0  0  0  0  0  0  0  0
  -27.5130  -17.5387   21.8202 O   0  0  0  0  0  0  0  0  0  0  0  0
  -17.4619  -25.2746   24.3737 O   0  0  0  0  0  0  0  0  0  0  0  0
  -30.4094  -18.7826   19.7566 O   0  0  0  0  0  0  0  0  0  0  0  0
  -28.6294  -23.1709   19.4480 O   0  0  0  0  0  0  0  0  0  0  0  0
  -26.7183  -34.1747   22.2045 O   0  0  0  0  0  0  0  0  0  0  0  0
  -22.2113  -20.9367   19.8579 O   0  0  0  0  0  0  0  0  0  1  0  0
  -31.1323  -34.6782   25.4705 F   0  0  0  0  0  0  0  0  0  0  0  0
  -26.7870  -36.0725   24.2136 F   0  0  0  0  0  0  0  0  0  0  0  0
  1  2  1  0  0  0  0
  1  5  2  0  0  0  0
  2  6  2  0  0  0  0
  3  8  2  0  0  0  0
  3 15  1  0  0  0  0
  4  9  1  0  0  0  0
  4 15  2  0  0  0  0
  5 17  1  0  0  0  0
  6 19  1  0  0  0  0
  7 10  2  0  0  0  0
  7 18  1  0  0  0  0
  8 21  1  0  0  0  0
  9 21  2  0  0  0  0
 10 22  1  0  0  0  0
 11 12  2  0  0  0  0
 11 23  1  0  0  0  0
 12 24  1  0  0  0  0
 13 20  1  0  0  0  0
 13 22  2  0  0  0  0
 14 24  2  0  0  0  0
 14 25  1  0  0  0  0
 15 26  1  0  0  0  0
 16 26  1  0  0  0  0
 16 27  2  0  0  0  0
 16 28  1  0  0  0  0
 17 19  2  0  0  0  0
 17 33  1  0  0  0  0
 18 20  2  0  0  0  0
 18 34  1  0  0  0  0
 19 42  1  0  0  0  0
 20 35  1  0  0  0  0
 21 74  1  0  0  0  0
 22 75  1  0  0  0  0
 23 25  2  0  0  0  0
 23 74  1  0  0  0  0
 24 76  1  0  0  0  0
 25 77  1  0  0  0  0
 26 60  2  0  0  0  0
 27 61  1  0  0  0  0
 27 64  1  0  0  0  0
 28 65  1  0  0  0  0
 28 69  2  0  0  0  0
 29 43  1  0  0  0  0
 29 66  1  0  0  0  0
 29 70  2  0  0  0  0
 30 56  1  0  0  0  0
 30 63  1  0  0  0  0
 30 71  2  0  0  0  0
 31 57  1  0  0  0  0
 31 62  1  0  0  0  0
 31 72  2  0  0  0  0
 32 58  1  0  0  0  0
 32 67  1  0  0  0  0
 32 73  2  0  0  0  0
 33 36  1  0  0  0  0
 34 43  1  0  0  0  0
 35 62  1  0  0  0  0
 36 38  1  0  0  0  0
 37 39  1  0  0  0  0
 37 40  1  0  0  0  0
 38 42  1  0  0  0  0
 39 44  1  0  0  0  0
 40 63  1  0  0  0  0
 41 44  1  0  0  0  0
 41 63  1  0  0  0  0
 42 66  1  0  0  0  0
 43 62  1  0  0  0  0
 44 61  1  0  0  0  0
 45 56  1  0  0  0  0
 46 58  1  0  0  0  0
 47 59  1  0  0  0  0
 48 59  1  0  0  0  0
 49 59  1  0  0  0  0
 50 68  1  0  0  0  0
 51 52  1  0  0  0  0
 51 53  1  0  0  0  0
 52 54  1  0  0  0  0
 53 55  1  0  0  0  0
 54 56  1  0  0  0  0
 55 75  1  0  0  0  0
 57 59  1  0  0  0  0
 57 67  1  0  0  0  0
 58 68  1  0  0  0  0
 60 61  1  0  0  0  0
M  CHG  1  68   1
M  ISO  4  30 100  55 101  56 100  75 101
M  END
> <Batch ID>
0046

> <Smiles>
CNC(C)C(=O)NC(C(=O)N1Cc2cc([101O:1][101CH2:1]CCCC[100CH:0](C)[100C:0](=O)N3CCCC(n4nc(-c5ccc(Oc6ccc(F)cc6F)cc5)c(C(N)=O)c4N)C3)ccc2CC1C(=O)NC1CCCc2ccccc21)C(C)(C)C

> <Shape>
0.227

> <Color>
0.071

> <Negative vol penalty>
0.000

$$$$

  -OEChem-04052317213D

 83 91  0     1  0  0  0  0  0999 V2000
  -18.1025  -24.7589   21.5653 C   0  0  0  0  0  0  0  0  0  0  0  0
  -19.4662  -24.5829   21.3538 C   0  0  0  0  0  0  0  0  0  0  0  0
  -26.4746  -13.2850   21.5828 C   0  0  0  0  0  0  0  0  0  0  0  0
  -24.8990  -13.2389   19.7519 C   0  0  0  0  0  0  0  0  0  0  0  0
  -17.6302  -25.9559   22.1019 C   0  0  0  0  0  0  0  0  0  0  0  0
  -20.3584  -25.6045   21.6778 C   0  0  0  0  0  0  0  0  0  0  0  0
  -24.4475  -23.9058   24.1352 C   0  0  0  0  0  0  0  0  0  0  0  0
  -26.3625  -11.9009   21.7142 C   0  0  0  0  0  0  0  0  0  0  0  0
  -24.7869  -11.8548   19.8832 C   0  0  0  0  0  0  0  0  0  0  0  0
  -25.4394  -23.2914   23.3720 C   0  0  0  0  0  0  0  0  0  0  0  0
  -23.8108   -8.3548   19.9697 C   0  0  0  0  0  0  0  0  0  0  0  0
  -22.5311   -7.8014   19.9308 C   0  0  0  0  0  0  0  0  0  0  0  0
  -26.7230  -25.3335   23.4071 C   0  0  0  0  0  0  0  0  0  0  0  0
  -21.9062   -9.1106   21.8628 C   0  0  0  0  0  0  0  0  0  0  0  0
  -29.0115  -24.6288   19.5189 C   0  0  0  0  0  0  0  0  0  0  0  0
  -25.7428  -13.9540   20.6017 C   0  0  0  0  0  0  0  0  0  0  0  0
  -26.7717  -16.0906   19.6614 C   0  0  0  0  0  0  0  0  0  0  0  0
  -18.5179  -26.9890   22.4416 C   0  0  0  0  0  0  0  0  0  0  0  0
  -24.5811  -25.2443   24.5314 C   0  0  0  0  0  0  0  0  0  0  0  0
  -19.8974  -26.8170   22.2182 C   0  0  0  0  0  0  0  0  0  0  0  0
  -25.7325  -25.9619   24.1774 C   0  0  0  0  0  0  0  0  0  0  0  0
  -27.9839  -23.7159   19.3968 C   0  0  0  0  0  0  0  0  0  0  0  0
  -25.5186  -11.1858   20.8644 C   0  0  0  0  0  0  0  0  0  0  0  0
  -26.5760  -24.0061   23.0054 C   0  0  0  0  0  0  0  0  0  0  0  0
  -24.1384   -9.2860   20.9553 C   0  0  0  0  0  0  0  0  0  0  0  0
  -21.5788   -8.1794   20.8773 C   0  0  0  0  0  0  0  0  0  0  0  0
  -23.1861   -9.6640   21.9018 C   0  0  0  0  0  0  0  0  0  0  0  0
  -25.8578  -15.3839   20.4659 C   0  0  0  0  0  0  0  0  0  0  0  0
  -26.9401  -24.0978   18.5790 C   0  0  0  0  0  0  0  0  0  0  0  0
  -26.4736  -17.4128   19.8835 C   0  0  0  0  0  0  0  0  0  0  0  0
  -27.9543  -26.0809   18.1257 C   0  0  0  0  0  0  0  0  0  0  0  0
  -27.7982  -15.5961   18.7911 C   0  0  0  0  0  0  0  0  0  0  0  0
  -22.9437  -27.9159   23.9974 C   0  0  0  0  0  0  0  0  0  0  0  0
  -25.0252  -29.1603   26.1517 C   0  0  0  0  0  0  0  0  0  0  0  0
  -28.0693  -28.9702   27.6827 C   0  0  0  0  0  0  0  0  0  0  0  0
  -22.7532  -21.5317   20.4658 C   0  0  0  0  0  0  0  0  0  0  0  0
  -17.9560  -28.2830   22.9749 C   0  0  0  0  0  0  0  0  0  0  0  0
  -23.5145  -25.8845   25.3770 C   0  0  0  0  0  0  0  0  0  0  0  0
  -25.9334  -27.3950   24.5947 C   0  0  0  0  0  0  0  0  0  0  0  0
  -19.0025  -29.1732   23.6401 C   0  0  0  0  0  0  0  0  0  0  0  0
  -23.4928  -19.5785   23.3493 C   0  0  0  0  0  0  0  0  0  0  0  0
  -20.2521  -29.2695   22.7706 C   0  0  0  0  0  0  0  0  0  0  0  0
  -24.2435  -18.3690   22.7891 C   0  0  0  0  0  0  0  0  0  0  0  0
  -22.3823  -20.0391   22.4077 C   0  0  0  0  0  0  0  0  0  0  0  0
  -23.5656  -19.0952   20.4628 C   0  0  0  0  0  0  0  0  0  0  0  0
  -20.8989  -27.8923   22.5799 C   0  0  1  0  0  0  0  0  0  0  0  0
  -23.5170  -27.4075   25.2899 C   0  0  1  0  0  0  0  0  0  0  0  0
  -24.7316  -18.6287   21.3512 C   0  0  2  0  0  0  0  0  0  0  0  0
  -27.9381  -27.3941   17.4191 C   0  0  0  0  0  0  0  0  0  0  0  0
  -29.5021  -30.1504   29.3714 C   0  0  0  0  0  0  0  0  0  0  0  0
  -25.6776  -31.3130   24.0901 C   0  0  0  0  0  0  0  0  0  0  0  0
  -27.7309  -31.8602   25.4140 C   0  0  0  0  0  0  0  0  0  0  0  0
  -25.4749  -32.1458   26.4395 C   0  0  0  0  0  0  0  0  0  0  0  0
  -28.1279  -26.6035   29.4587 C   0  0  0  0  0  0  0  0  0  0  0  0
  -28.0237  -22.3928   20.1221 C   0  0  0  0  0  0  0  0  0  0  0  0
  -25.7729  -23.1899   18.3716 C   0  0  0  0  0  0  0  0  0  0  0  0
  -24.4086  -23.8191   18.7134 C   0  0  0  0  0  0  0  0  0  0  0  0
  -23.2120  -22.9071   18.4516 C   0  0  0  0  0  0  0  0  0  0  0  0
  -27.1320  -22.3825   21.3590 C   0  0  0  0  0  0  0  0  0  1  0  0
  -26.3830  -29.8152   26.0712 C   0  0  1  0  0  0  0  0  0  0  0  0
  -28.4687  -29.0579   29.1446 C   0  0  2  0  0  0  0  0  0  0  0  0
  -26.3122  -31.2572   25.4940 C   0  0  0  0  0  0  0  0  0  0  0  0
  -29.0294  -25.8251   18.8953 N   0  0  0  0  0  0  0  0  0  0  0  0
  -25.0405  -16.1903   21.1482 N   0  0  0  0  0  0  0  0  0  0  0  0
  -26.8923  -25.2774   17.9258 N   0  0  0  0  0  0  0  0  0  0  0  0
  -25.4398  -17.4175   20.7732 N   0  0  0  0  0  0  0  0  0  0  0  0
  -24.8595  -27.9787   25.4154 N   0  0  0  0  0  0  0  0  0  0  0  0
  -22.9115  -20.2694   21.0613 N   0  0  0  0  0  0  0  0  0  0  0  0
  -26.9976  -18.5603   19.4028 N   0  0  0  0  0  0  0  0  0  0  0  0
  -27.9691  -14.2095   18.6798 N   0  0  0  0  0  0  0  0  0  0  0  0
  -21.6423  -27.5149   23.7629 N   0  0  0  0  0  0  0  0  0  0  0  0
  -26.9547  -29.7353   27.4110 N   0  0  0  0  0  0  0  0  0  0  0  0
  -23.2897  -21.6670   19.1912 N   0  0  0  0  0  0  0  0  0  0  0  0
  -29.0461  -27.7625   29.6024 N   0  3  0  0  0  0  0  0  0  0  0  0
  -28.5526  -16.3615   18.1441 O   0  0  0  0  0  0  0  0  0  0  0  0
  -23.6307  -28.6210   23.2676 O   0  0  0  0  0  0  0  0  0  0  0  0
  -24.1462  -29.6743   26.8480 O   0  0  0  0  0  0  0  0  0  0  0  0
  -28.6865  -28.2939   26.8629 O   0  0  0  0  0  0  0  0  0  0  0  0
  -22.1812  -22.4703   21.0305 O   0  0  0  0  0  0  0  0  0  0  0  0
  -25.4091   -9.8351   20.9921 O   0  0  0  0  0  0  0  0  0  0  0  0
  -27.5454  -23.4090   22.2600 O   0  0  0  0  0  0  0  0  0  1  0  0
  -20.3493   -7.6490   20.8389 F   0  0  0  0  0  0  0  0  0  0  0  0
  -23.4945  -10.5590   22.8502 F   0  0  0  0  0  0  0  0  0  0  0  0
  1  2  1  0  0  0  0
  1  5  2  0  0  0  0
  2  6  2  0  0  0  0
  3  8  2  0  0  0  0
  3 16  1  0  0  0  0
  4  9  1  0  0  0  0
  4 16  2  0  0  0  0
  5 18  1  0  0  0  0
  6 20  1  0  0  0  0
  7 10  2  0  0  0  0
  7 19  1  0  0  0  0
  8 23  1  0  0  0  0
  9 23  2  0  0  0  0
 10 24  1  0  0  0  0
 11 12  2  0  0  0  0
 11 25  1  0  0  0  0
 12 26  1  0  0  0  0
 13 21  1  0  0  0  0
 13 24  2  0  0  0  0
 14 26  2  0  0  0  0
 14 27  1  0  0  0  0
 15 22  1  0  0  0  0
 15 63  2  0  0  0  0
 16 28  1  0  0  0  0
 17 28  1  0  0  0  0
 17 30  2  0  0  0  0
 17 32  1  0  0  0  0
 18 20  2  0  0  0  0
 18 37  1  0  0  0  0
 19 21  2  0  0  0  0
 19 38  1  0  0  0  0
 20 46  1  0  0  0  0
 21 39  1  0  0  0  0
 22 29  2  0  0  0  0
 22 55  1  0  0  0  0
 23 80  1  0  0  0  0
 24 81  1  0  0  0  0
 25 27  2  0  0  0  0
 25 80  1  0  0  0  0
 26 82  1  0  0  0  0
 27 83  1  0  0  0  0
 28 64  2  0  0  0  0
 29 56  1  0  0  0  0
 29 65  1  0  0  0  0
 30 66  1  0  0  0  0
 30 69  1  0  0  0  0
 31 49  1  0  0  0  0
 31 63  1  0  0  0  0
 31 65  2  0  0  0  0
 32 70  1  0  0  0  0
 32 75  2  0  0  0  0
 33 47  1  0  0  0  0
 33 71  1  0  0  0  0
 33 76  2  0  0  0  0
 34 60  1  0  0  0  0
 34 67  1  0  0  0  0
 34 77  2  0  0  0  0
 35 61  1  0  0  0  0
 35 72  1  0  0  0  0
 35 78  2  0  0  0  0
 36 68  1  0  0  0  0
 36 73  1  0  0  0  0
 36 79  2  0  0  0  0
 37 40  1  0  0  0  0
 38 47  1  0  0  0  0
 39 67  1  0  0  0  0
 40 42  1  0  0  0  0
 41 43  1  0  0  0  0
 41 44  1  0  0  0  0
 42 46  1  0  0  0  0
 43 48  1  0  0  0  0
 44 68  1  0  0  0  0
 45 48  1  0  0  0  0
 45 68  1  0  0  0  0
 46 71  1  0  0  0  0
 47 67  1  0  0  0  0
 48 66  1  0  0  0  0
 50 61  1  0  0  0  0
 51 62  1  0  0  0  0
 52 62  1  0  0  0  0
 53 62  1  0  0  0  0
 54 74  1  0  0  0  0
 55 59  1  0  0  0  0
 56 57  1  0  0  0  0
 57 58  1  0  0  0  0
 58 73  1  0  0  0  0
 59 81  1  0  0  0  0
 60 62  1  0  0  0  0
 60 72  1  0  0  0  0
 61 74  1  0  0  0  0
 64 66  1  0  0  0  0
M  CHG  1  74   1
M  ISO  4  36 100  59 101  73 100  81 101
M  END
> <Batch ID>
0046

> <Smiles>
CNC(C)C(=O)NC(C(=O)N1Cc2cc([101O:1][101CH2:1]Cc3cnc(C)nc3CCC[100NH:0][100C:0](=O)N3CCCC(n4nc(-c5ccc(Oc6ccc(F)cc6F)cc5)c(C(N)=O)c4N)C3)ccc2CC1C(=O)NC1CCCc2ccccc21)C(C)(C)C

> <Shape>
0.198

> <Color>
0.086

> <Negative vol penalty>
0.000

$$$$

  -OEChem-04052317213D

 83 91  0     1  0  0  0  0  0999 V2000
  -30.6723  -25.9575   16.8965 C   0  0  0  0  0  0  0  0  0  0  0  0
  -29.2978  -25.8121   17.0552 C   0  0  0  0  0  0  0  0  0  0  0  0
  -27.7298  -12.9812   20.6461 C   0  0  0  0  0  0  0  0  0  0  0  0
  -29.1849  -14.3214   19.2592 C   0  0  0  0  0  0  0  0  0  0  0  0
  -31.4410  -26.4826   17.9345 C   0  0  0  0  0  0  0  0  0  0  0  0
  -28.6914  -26.1907   18.2524 C   0  0  0  0  0  0  0  0  0  0  0  0
  -23.1160  -28.6280   18.9454 C   0  0  0  0  0  0  0  0  0  0  0  0
  -20.6854  -22.9257   21.1452 C   0  0  0  0  0  0  0  0  0  0  0  0
  -28.4078  -11.8301   20.2451 C   0  0  0  0  0  0  0  0  0  0  0  0
  -29.8630  -13.1702   18.8582 C   0  0  0  0  0  0  0  0  0  0  0  0
  -21.8869  -28.0728   19.2985 C   0  0  0  0  0  0  0  0  0  0  0  0
  -28.4680   -9.7853   17.5544 C   0  0  0  0  0  0  0  0  0  0  0  0
  -27.7032   -8.6743   17.1990 C   0  0  0  0  0  0  0  0  0  0  0  0
  -21.7566  -22.1218   20.7714 C   0  0  0  0  0  0  0  0  0  0  0  0
  -22.2579  -28.7247   21.5913 C   0  0  0  0  0  0  0  0  0  0  0  0
  -28.7588   -7.3875   18.9503 C   0  0  0  0  0  0  0  0  0  0  0  0
  -22.2270  -24.4038   22.1917 C   0  0  0  0  0  0  0  0  0  0  0  0
  -28.1183  -14.2269   20.1531 C   0  0  0  0  0  0  0  0  0  0  0  0
  -27.7151  -16.2371   21.6710 C   0  0  0  0  0  0  0  0  0  0  0  0
  -30.8423  -26.8768   19.1415 C   0  0  0  0  0  0  0  0  0  0  0  0
  -23.9316  -29.2271   19.9161 C   0  0  0  0  0  0  0  0  0  0  0  0
  -29.4530  -26.7202   19.3080 C   0  0  0  0  0  0  0  0  0  0  0  0
  -23.4958  -29.2891   21.2474 C   0  0  0  0  0  0  0  0  0  0  0  0
  -20.9166  -24.0901   21.8690 C   0  0  0  0  0  0  0  0  0  0  0  0
  -29.4743  -11.9246   19.3512 C   0  0  0  0  0  0  0  0  0  0  0  0
  -21.4589  -28.1185   20.6221 C   0  0  0  0  0  0  0  0  0  0  0  0
  -29.3783   -9.6974   18.6077 C   0  0  0  0  0  0  0  0  0  0  0  0
  -27.8486   -7.4754   17.8970 C   0  0  0  0  0  0  0  0  0  0  0  0
  -29.5236   -8.4985   19.3057 C   0  0  0  0  0  0  0  0  0  0  0  0
  -27.4180  -15.4163   20.5665 C   0  0  0  0  0  0  0  0  0  0  0  0
  -23.0295  -22.5237   21.1431 C   0  0  0  0  0  0  0  0  0  0  0  0
  -26.7641  -17.2272   21.6286 C   0  0  0  0  0  0  0  0  0  0  0  0
  -28.7574  -16.1155   22.6479 C   0  0  0  0  0  0  0  0  0  0  0  0
  -26.8421  -28.6598   21.0612 C   0  0  0  0  0  0  0  0  0  0  0  0
  -26.3288  -31.4340   22.6622 C   0  0  0  0  0  0  0  0  0  0  0  0
  -24.0896  -33.6651   23.9485 C   0  0  0  0  0  0  0  0  0  0  0  0
  -24.0623  -20.9874   18.3303 C   0  0  0  0  0  0  0  0  0  0  0  0
  -31.7210  -27.3951   20.2523 C   0  0  0  0  0  0  0  0  0  0  0  0
  -25.2427  -29.8452   19.5143 C   0  0  0  0  0  0  0  0  0  0  0  0
  -24.3249  -29.9389   22.3239 C   0  0  0  0  0  0  0  0  0  0  0  0
  -30.9490  -28.1208   21.3512 C   0  0  0  0  0  0  0  0  0  0  0  0
  -22.5501  -17.6539   18.8799 C   0  0  0  0  0  0  0  0  0  0  0  0
  -29.7203  -27.3154   21.7615 C   0  0  0  0  0  0  0  0  0  0  0  0
  -23.7323  -16.8320   19.3908 C   0  0  0  0  0  0  0  0  0  0  0  0
  -23.0014  -18.7890   17.9659 C   0  0  0  0  0  0  0  0  0  0  0  0
  -25.2042  -18.8621   19.0867 C   0  0  0  0  0  0  0  0  0  0  0  0
  -28.7551  -27.1425   20.5826 C   0  0  1  0  0  0  0  0  0  0  0  0
  -26.2235  -29.9738   20.6757 C   0  0  1  0  0  0  0  0  0  0  0  0
  -24.7876  -17.7386   20.0478 C   0  0  2  0  0  0  0  0  0  0  0  0
  -18.8320  -24.2479   23.2546 C   0  0  0  0  0  0  0  0  0  0  0  0
  -23.9698  -35.8161   25.2354 C   0  0  0  0  0  0  0  0  0  0  0  0
  -27.0137  -29.9335   25.2292 C   0  0  0  0  0  0  0  0  0  0  0  0
  -25.9755  -31.8103   26.5207 C   0  0  0  0  0  0  0  0  0  0  0  0
  -27.9682  -32.2404   25.0831 C   0  0  0  0  0  0  0  0  0  0  0  0
  -25.1984  -23.0767   18.9814 C   0  0  0  0  0  0  0  0  0  0  0  0
  -22.7000  -35.0488   21.7318 C   0  0  0  0  0  0  0  0  0  0  0  0
  -24.2025  -21.6854   20.7585 C   0  0  0  0  0  0  0  0  0  0  0  0
  -18.9722  -25.5554   21.1009 C   0  0  0  0  0  0  0  0  0  0  0  0
  -19.8018  -26.4657   20.2002 C   0  0  0  0  0  0  0  0  0  1  0  0
  -19.7682  -24.9895   22.2928 C   0  0  2  0  0  0  0  0  0  0  0  0
  -25.7275  -31.8025   23.9969 C   0  0  1  0  0  0  0  0  0  0  0  0
  -24.0085  -35.1781   23.8554 C   0  0  2  0  0  0  0  0  0  0  0  0
  -26.6562  -31.4327   25.1878 C   0  0  0  0  0  0  0  0  0  0  0  0
  -23.2932  -23.6479   21.8462 N   0  0  0  0  0  0  0  0  0  0  0  0
  -26.3610  -15.8475   19.8732 N   0  0  0  0  0  0  0  0  0  0  0  0
  -25.9854  -16.9499   20.5437 N   0  0  0  0  0  0  0  0  0  0  0  0
  -25.6019  -30.5235   21.8822 N   0  0  0  0  0  0  0  0  0  0  0  0
  -24.0353  -19.6089   18.5983 N   0  0  0  0  0  0  0  0  0  0  0  0
  -26.5264  -18.2993   22.4138 N   0  0  0  0  0  0  0  0  0  0  0  0
  -29.6485  -15.0387   22.5436 N   0  0  0  0  0  0  0  0  0  0  0  0
  -27.9979  -28.3569   20.3671 N   0  0  0  0  0  0  0  0  0  0  0  0
  -25.3944  -33.2206   23.9170 N   0  0  0  0  0  0  0  0  0  0  0  0
  -24.5461  -21.8269   19.3452 N   0  0  0  0  0  0  0  0  0  0  0  0
  -22.7818  -35.5865   23.1142 N   0  3  0  0  0  0  0  0  0  0  0  0
  -28.8846  -16.9281   23.5950 O   0  0  0  0  0  0  0  0  0  0  0  0
  -26.3109  -27.9725   21.9256 O   0  0  0  0  0  0  0  0  0  0  0  0
  -27.4004  -31.9409   22.3210 O   0  0  0  0  0  0  0  0  0  0  0  0
  -23.0950  -32.9494   24.0435 O   0  0  0  0  0  0  0  0  0  0  0  0
  -23.6671  -21.4428   17.2494 O   0  0  0  0  0  0  0  0  0  0  0  0
  -30.1363  -10.8015   18.9598 O   0  0  0  0  0  0  0  0  0  0  0  0
  -20.2599  -27.5767   20.9696 O   0  0  0  0  0  0  0  0  0  1  0  0
  -27.1129   -6.4090   17.5566 F   0  0  0  0  0  0  0  0  0  0  0  0
  -30.3956   -8.4083   20.3192 F   0  0  0  0  0  0  0  0  0  0  0  0
  1  2  1  0  0  0  0
  1  5  2  0  0  0  0
  2  6  2  0  0  0  0
  3  9  2  0  0  0  0
  3 18  1  0  0  0  0
  4 10  1  0  0  0  0
  4 18  2  0  0  0  0
  5 20  1  0  0  0  0
  6 22  1  0  0  0  0
  7 11  2  0  0  0  0
  7 21  1  0  0  0  0
  8 14  2  0  0  0  0
  8 24  1  0  0  0  0
  9 25  1  0  0  0  0
 10 25  2  0  0  0  0
 11 26  1  0  0  0  0
 12 13  2  0  0  0  0
 12 27  1  0  0  0  0
 13 28  1  0  0  0  0
 14 31  1  0  0  0  0
 15 23  1  0  0  0  0
 15 26  2  0  0  0  0
 16 28  2  0  0  0  0
 16 29  1  0  0  0  0
 17 24  2  0  0  0  0
 17 64  1  0  0  0  0
 18 30  1  0  0  0  0
 19 30  1  0  0  0  0
 19 32  2  0  0  0  0
 19 33  1  0  0  0  0
 20 22  2  0  0  0  0
 20 38  1  0  0  0  0
 21 23  2  0  0  0  0
 21 39  1  0  0  0  0
 22 47  1  0  0  0  0
 23 40  1  0  0  0  0
 24 60  1  0  0  0  0
 25 80  1  0  0  0  0
 26 81  1  0  0  0  0
 27 29  2  0  0  0  0
 27 80  1  0  0  0  0
 28 82  1  0  0  0  0
 29 83  1  0  0  0  0
 30 65  2  0  0  0  0
 31 57  1  0  0  0  0
 31 64  2  0  0  0  0
 32 66  1  0  0  0  0
 32 69  1  0  0  0  0
 33 70  1  0  0  0  0
 33 75  2  0  0  0  0
 34 48  1  0  0  0  0
 34 71  1  0  0  0  0
 34 76  2  0  0  0  0
 35 61  1  0  0  0  0
 35 67  1  0  0  0  0
 35 77  2  0  0  0  0
 36 62  1  0  0  0  0
 36 72  1  0  0  0  0
 36 78  2  0  0  0  0
 37 68  1  0  0  0  0
 37 73  1  0  0  0  0
 37 79  2  0  0  0  0
 38 41  1  0  0  0  0
 39 48  1  0  0  0  0
 40 67  1  0  0  0  0
 41 43  1  0  0  0  0
 42 44  1  0  0  0  0
 42 45  1  0  0  0  0
 43 47  1  0  0  0  0
 44 49  1  0  0  0  0
 45 68  1  0  0  0  0
 46 49  1  0  0  0  0
 46 68  1  0  0  0  0
 47 71  1  0  0  0  0
 48 67  1  0  0  0  0
 49 66  1  0  0  0  0
 50 60  1  0  0  0  0
 51 62  1  0  0  0  0
 52 63  1  0  0  0  0
 53 63  1  0  0  0  0
 54 63  1  0  0  0  0
 55 73  1  0  0  0  0
 56 74  1  0  0  0  0
 57 73  1  0  0  0  0
 58 59  1  0  0  0  0
 58 60  1  0  0  0  0
 59 81  1  0  0  0  0
 61 63  1  0  0  0  0
 61 72  1  0  0  0  0
 62 74  1  0  0  0  0
 65 66  1  0  0  0  0
M  CHG  1  74   1
M  ISO  4  37 100  59 101  73 100  81 101
M  END
> <Batch ID>
0046

> <Smiles>
CNC(C)C(=O)NC(C(=O)N1Cc2cc([101O:1][101CH2:1]CC(C)c3ccc(C[100N:0](C)[100C:0](=O)N4CCCC(n5nc(-c6ccc(Oc7ccc(F)cc7F)cc6)c(C(N)=O)c5N)C4)nc3)ccc2CC1C(=O)NC1CCCc2ccccc21)C(C)(C)C

> <Shape>
0.244

> <Color>
0.074

> <Negative vol penalty>
0.000

$$$$

  -OEChem-04052317213D

 85 93  0     1  0  0  0  0  0999 V2000
  -30.1633  -24.3274   18.5385 C   0  0  0  0  0  0  0  0  0  0  0  0
  -29.0091  -25.0379   18.2286 C   0  0  0  0  0  0  0  0  0  0  0  0
  -26.2996  -16.4540   21.1473 C   0  0  0  0  0  0  0  0  0  0  0  0
  -26.4119  -16.0162   18.7740 C   0  0  0  0  0  0  0  0  0  0  0  0
  -30.6358  -24.3103   19.8491 C   0  0  0  0  0  0  0  0  0  0  0  0
  -28.3338  -25.7412   19.2267 C   0  0  0  0  0  0  0  0  0  0  0  0
  -23.0972  -28.8502   19.0304 C   0  0  0  0  0  0  0  0  0  0  0  0
  -26.1264  -15.0914   21.3905 C   0  0  0  0  0  0  0  0  0  0  0  0
  -26.2388  -14.6536   19.0171 C   0  0  0  0  0  0  0  0  0  0  0  0
  -21.7436  -28.6012   19.2531 C   0  0  0  0  0  0  0  0  0  0  0  0
  -26.0160  -11.6872   22.6608 C   0  0  0  0  0  0  0  0  0  0  0  0
  -26.7593  -11.1128   23.6920 C   0  0  0  0  0  0  0  0  0  0  0  0
  -21.9607  -29.4612   21.4964 C   0  0  0  0  0  0  0  0  0  0  0  0
  -28.8037  -11.7465   22.5713 C   0  0  0  0  0  0  0  0  0  0  0  0
  -22.6409  -23.9934   23.9396 C   0  0  0  0  0  0  0  0  0  0  0  0
  -26.4423  -16.9164   19.8390 C   0  0  0  0  0  0  0  0  0  0  0  0
  -27.8382  -19.0269   19.5149 C   0  0  0  0  0  0  0  0  0  0  0  0
  -29.9584  -25.0038   20.8655 C   0  0  0  0  0  0  0  0  0  0  0  0
  -23.8965  -29.3974   20.0443 C   0  0  0  0  0  0  0  0  0  0  0  0
  -28.8083  -25.7558   20.5508 C   0  0  0  0  0  0  0  0  0  0  0  0
  -23.3236  -29.7186   21.2832 C   0  0  0  0  0  0  0  0  0  0  0  0
  -26.0960  -14.1913   20.3254 C   0  0  0  0  0  0  0  0  0  0  0  0
  -21.1758  -28.9040   20.4872 C   0  0  0  0  0  0  0  0  0  0  0  0
  -26.6666  -12.2912   21.5848 C   0  0  0  0  0  0  0  0  0  0  0  0
  -28.1531  -11.1425   23.6473 C   0  0  0  0  0  0  0  0  0  0  0  0
  -28.0604  -12.3209   21.5401 C   0  0  0  0  0  0  0  0  0  0  0  0
  -26.6207  -18.3238   19.5872 C   0  0  0  0  0  0  0  0  0  0  0  0
  -21.8485  -24.2407   25.0419 C   0  0  0  0  0  0  0  0  0  0  0  0
  -21.9657  -23.6929   22.7743 C   0  0  0  0  0  0  0  0  0  0  0  0
  -27.4703  -20.3248   19.2572 C   0  0  0  0  0  0  0  0  0  0  0  0
  -19.9600  -23.8966   23.8244 C   0  0  0  0  0  0  0  0  0  0  0  0
  -29.1815  -18.5493   19.6670 C   0  0  0  0  0  0  0  0  0  0  0  0
  -26.4537  -28.4187   21.6588 C   0  0  0  0  0  0  0  0  0  0  0  0
  -26.3547  -31.4249   22.8735 C   0  0  0  0  0  0  0  0  0  0  0  0
  -24.5056  -34.2051   23.5793 C   0  0  0  0  0  0  0  0  0  0  0  0
  -22.1434  -23.1138   20.3601 C   0  0  0  0  0  0  0  0  0  0  0  0
  -30.5183  -24.9578   22.2654 C   0  0  0  0  0  0  0  0  0  0  0  0
  -25.3489  -29.6848   19.7793 C   0  0  0  0  0  0  0  0  0  0  0  0
  -24.1339  -30.3262   22.3979 C   0  0  0  0  0  0  0  0  0  0  0  0
  -29.4993  -25.3601   23.3267 C   0  0  0  0  0  0  0  0  0  0  0  0
  -24.0246  -22.9130   17.1929 C   0  0  0  0  0  0  0  0  0  0  0  0
  -28.8266  -26.6665   22.9326 C   0  0  0  0  0  0  0  0  0  0  0  0
  -24.9608  -21.7287   17.4274 C   0  0  0  0  0  0  0  0  0  0  0  0
  -22.7230  -22.7704   17.9762 C   0  0  0  0  0  0  0  0  0  0  0  0
  -23.8592  -21.3707   19.6733 C   0  0  0  0  0  0  0  0  0  0  0  0
  -28.0401  -26.5033   21.6258 C   0  0  1  0  0  0  0  0  0  0  0  0
  -26.1839  -29.7672   21.0535 C   0  0  1  0  0  0  0  0  0  0  0  0
  -25.1975  -21.5058   18.9312 C   0  0  1  0  0  0  0  0  0  0  0  0
  -22.4884  -24.5724   26.3483 C   0  0  0  0  0  0  0  0  0  0  0  0
  -24.6928  -36.4867   24.6070 C   0  0  0  0  0  0  0  0  0  0  0  0
  -26.3802  -30.1679   25.6536 C   0  0  0  0  0  0  0  0  0  0  0  0
  -25.6181  -32.3661   26.5783 C   0  0  0  0  0  0  0  0  0  0  0  0
  -27.8181  -32.1999   25.4143 C   0  0  0  0  0  0  0  0  0  0  0  0
  -24.1885  -23.7302   21.6279 C   0  0  0  0  0  0  0  0  0  0  0  0
  -23.7292  -35.5344   21.0517 C   0  0  0  0  0  0  0  0  0  0  0  0
  -18.4544  -23.8442   23.7591 C   0  0  0  0  0  0  0  0  0  0  0  0
  -17.8475  -24.7732   22.7014 C   0  0  0  0  0  0  0  0  0  0  0  0
  -18.2009  -26.2478   22.9248 C   0  0  0  0  0  0  0  0  0  0  0  0
  -17.5990  -27.1319   21.8294 C   0  0  0  0  0  0  0  0  0  0  0  0
  -17.8635  -28.6228   22.0421 C   0  0  0  0  0  0  0  0  0  0  0  0
  -19.3391  -28.9960   21.9952 C   0  0  0  0  0  0  0  0  0  1  0  0
  -25.6869  -32.0771   24.0599 C   0  0  1  0  0  0  0  0  0  0  0  0
  -24.7633  -35.6786   23.3207 C   0  0  2  0  0  0  0  0  0  0  0  0
  -26.3607  -31.6895   25.4064 C   0  0  0  0  0  0  0  0  0  0  0  0
  -25.5588  -19.1100   19.3914 N   0  0  0  0  0  0  0  0  0  0  0  0
  -20.5001  -24.2008   25.0200 N   0  0  0  0  0  0  0  0  0  0  0  0
  -20.6210  -23.6355   22.6805 N   0  0  0  0  0  0  0  0  0  0  0  0
  -26.1079  -20.3206   19.1936 N   0  0  0  0  0  0  0  0  0  0  0  0
  -25.5510  -30.5826   22.0922 N   0  0  0  0  0  0  0  0  0  0  0  0
  -22.9766  -22.5140   19.3945 N   0  0  0  0  0  0  0  0  0  0  0  0
  -28.1826  -21.4580   19.0812 N   0  0  0  0  0  0  0  0  0  0  0  0
  -29.3807  -17.1869   19.9285 N   0  0  0  0  0  0  0  0  0  0  0  0
  -27.5939  -27.8040   21.1777 N   0  0  0  0  0  0  0  0  0  0  0  0
  -25.6784  -33.5102   23.7866 N   0  0  0  0  0  0  0  0  0  0  0  0
  -22.7536  -23.4289   21.5935 N   0  0  0  0  0  0  0  0  0  0  0  0
  -23.7537  -36.2217   22.3685 N   0  3  0  0  0  0  0  0  0  0  0  0
  -30.1749  -19.3113   19.5901 O   0  0  0  0  0  0  0  0  0  0  0  0
  -25.6851  -27.9698   22.5011 O   0  0  0  0  0  0  0  0  0  0  0  0
  -27.5438  -31.6598   22.6442 O   0  0  0  0  0  0  0  0  0  0  0  0
  -23.3766  -33.7198   23.5993 O   0  0  0  0  0  0  0  0  0  0  0  0
  -20.9569  -23.3738   20.1271 O   0  0  0  0  0  0  0  0  0  0  0  0
  -25.9273  -12.8616   20.5623 O   0  0  0  0  0  0  0  0  0  0  0  0
  -19.8550  -28.6614   20.7075 O   0  0  0  0  0  0  0  0  0  1  0  0
  -28.8667  -10.5923   24.6383 F   0  0  0  0  0  0  0  0  0  0  0  0
  -28.6911  -12.9007   20.5097 F   0  0  0  0  0  0  0  0  0  0  0  0
  1  2  1  0  0  0  0
  1  5  2  0  0  0  0
  2  6  2  0  0  0  0
  3  8  2  0  0  0  0
  3 16  1  0  0  0  0
  4  9  1  0  0  0  0
  4 16  2  0  0  0  0
  5 18  1  0  0  0  0
  6 20  1  0  0  0  0
  7 10  2  0  0  0  0
  7 19  1  0  0  0  0
  8 22  1  0  0  0  0
  9 22  2  0  0  0  0
 10 23  1  0  0  0  0
 11 12  2  0  0  0  0
 11 24  1  0  0  0  0
 12 25  1  0  0  0  0
 13 21  1  0  0  0  0
 13 23  2  0  0  0  0
 14 25  2  0  0  0  0
 14 26  1  0  0  0  0
 15 28  1  0  0  0  0
 15 29  2  0  0  0  0
 16 27  1  0  0  0  0
 17 27  1  0  0  0  0
 17 30  2  0  0  0  0
 17 32  1  0  0  0  0
 18 20  2  0  0  0  0
 18 37  1  0  0  0  0
 19 21  2  0  0  0  0
 19 38  1  0  0  0  0
 20 46  1  0  0  0  0
 21 39  1  0  0  0  0
 22 82  1  0  0  0  0
 23 83  1  0  0  0  0
 24 26  2  0  0  0  0
 24 82  1  0  0  0  0
 25 84  1  0  0  0  0
 26 85  1  0  0  0  0
 27 65  2  0  0  0  0
 28 49  1  0  0  0  0
 28 66  2  0  0  0  0
 29 67  1  0  0  0  0
 29 75  1  0  0  0  0
 30 68  1  0  0  0  0
 30 71  1  0  0  0  0
 31 56  1  0  0  0  0
 31 66  1  0  0  0  0
 31 67  2  0  0  0  0
 32 72  1  0  0  0  0
 32 77  2  0  0  0  0
 33 47  1  0  0  0  0
 33 73  1  0  0  0  0
 33 78  2  0  0  0  0
 34 62  1  0  0  0  0
 34 69  1  0  0  0  0
 34 79  2  0  0  0  0
 35 63  1  0  0  0  0
 35 74  1  0  0  0  0
 35 80  2  0  0  0  0
 36 70  1  0  0  0  0
 36 75  1  0  0  0  0
 36 81  2  0  0  0  0
 37 40  1  0  0  0  0
 38 47  1  0  0  0  0
 39 69  1  0  0  0  0
 40 42  1  0  0  0  0
 41 43  1  0  0  0  0
 41 44  1  0  0  0  0
 42 46  1  0  0  0  0
 43 48  1  0  0  0  0
 44 70  1  0  0  0  0
 45 48  1  0  0  0  0
 45 70  1  0  0  0  0
 46 73  1  0  0  0  0
 47 69  1  0  0  0  0
 48 68  1  0  0  0  0
 50 63  1  0  0  0  0
 51 64  1  0  0  0  0
 52 64  1  0  0  0  0
 53 64  1  0  0  0  0
 54 75  1  0  0  0  0
 55 76  1  0  0  0  0
 56 57  1  0  0  0  0
 57 58  1  0  0  0  0
 58 59  1  0  0  0  0
 59 60  1  0  0  0  0
 60 61  1  0  0  0  0
 61 83  1  0  0  0  0
 62 64  1  0  0  0  0
 62 74  1  0  0  0  0
 63 76  1  0  0  0  0
 65 68  1  0  0  0  0
M  CHG  1  76   1
M  ISO  4  36 100  61 101  75 100  83 101
M  END
> <Batch ID>
0046

> <Smiles>
CNC(C)C(=O)NC(C(=O)N1Cc2cc([101O:1][101CH2:1]CCCCCc3nc(C)cc([100N:0](C)[100C:0](=O)N4CCCC(n5nc(-c6ccc(Oc7ccc(F)cc7F)cc6)c(C(N)=O)c5N)C4)n3)ccc2CC1C(=O)NC1CCCc2ccccc21)C(C)(C)C

> <Shape>
0.270

> <Color>
0.059

> <Negative vol penalty>
0.000

$$$$

  -OEChem-04052317213D

 88 96  0     1  0  0  0  0  0999 V2000
  -20.4891  -34.8817   21.8250 C   0  0  0  0  0  0  0  0  0  0  0  0
  -21.7254  -34.3238   21.5154 C   0  0  0  0  0  0  0  0  0  0  0  0
  -27.1847  -13.7369   22.3352 C   0  0  0  0  0  0  0  0  0  0  0  0
  -26.5529  -13.5922   20.0078 C   0  0  0  0  0  0  0  0  0  0  0  0
  -19.6038  -34.1950   22.6548 C   0  0  0  0  0  0  0  0  0  0  0  0
  -22.0775  -33.0793   22.0365 C   0  0  0  0  0  0  0  0  0  0  0  0
  -25.4420  -28.7585   19.2948 C   0  0  0  0  0  0  0  0  0  0  0  0
  -26.4450  -12.5862   22.6076 C   0  0  0  0  0  0  0  0  0  0  0  0
  -25.8133  -12.4414   20.2801 C   0  0  0  0  0  0  0  0  0  0  0  0
  -26.7888  -28.4127   19.3972 C   0  0  0  0  0  0  0  0  0  0  0  0
  -26.4180   -9.1547   20.7830 C   0  0  0  0  0  0  0  0  0  0  0  0
  -26.5521   -8.0776   19.9071 C   0  0  0  0  0  0  0  0  0  0  0  0
  -26.2209  -26.6988   20.9969 C   0  0  0  0  0  0  0  0  0  0  0  0
  -28.0363  -25.0926   17.2718 C   0  0  0  0  0  0  0  0  0  0  0  0
  -24.1886   -8.1817   19.4170 C   0  0  0  0  0  0  0  0  0  0  0  0
  -27.2386  -14.2400   21.0353 C   0  0  0  0  0  0  0  0  0  0  0  0
  -29.3577  -15.5004   20.3808 C   0  0  0  0  0  0  0  0  0  0  0  0
  -19.9414  -32.9371   23.1786 C   0  0  0  0  0  0  0  0  0  0  0  0
  -24.4742  -28.0831   20.0522 C   0  0  0  0  0  0  0  0  0  0  0  0
  -21.1965  -32.3757   22.8753 C   0  0  0  0  0  0  0  0  0  0  0  0
  -24.8622  -27.0362   20.9004 C   0  0  0  0  0  0  0  0  0  0  0  0
  -29.2261  -24.5892   17.7859 C   0  0  0  0  0  0  0  0  0  0  0  0
  -27.1665  -24.2473   16.5919 C   0  0  0  0  0  0  0  0  0  0  0  0
  -25.7594  -11.9383   21.5800 C   0  0  0  0  0  0  0  0  0  0  0  0
  -27.1787  -27.3847   20.2505 C   0  0  0  0  0  0  0  0  0  0  0  0
  -25.1691   -9.7454   20.9760 C   0  0  0  0  0  0  0  0  0  0  0  0
  -25.4375   -7.5911   19.2241 C   0  0  0  0  0  0  0  0  0  0  0  0
  -24.0545   -9.2589   20.2930 C   0  0  0  0  0  0  0  0  0  0  0  0
  -28.0020  -15.4291   20.7534 C   0  0  0  0  0  0  0  0  0  0  0  0
  -29.4975  -23.2440   17.5948 C   0  0  0  0  0  0  0  0  0  0  0  0
  -27.5302  -22.9174   16.4540 C   0  0  0  0  0  0  0  0  0  0  0  0
  -29.6021  -16.8436   20.2301 C   0  0  0  0  0  0  0  0  0  0  0  0
  -30.3108  -14.4468   20.1881 C   0  0  0  0  0  0  0  0  0  0  0  0
  -22.3977  -28.9282   22.3055 C   0  0  0  0  0  0  0  0  0  0  0  0
  -21.3815  -25.8660   21.9699 C   0  0  0  0  0  0  0  0  0  0  0  0
  -22.0926  -22.6645   21.0254 C   0  0  0  0  0  0  0  0  0  0  0  0
  -26.0721  -21.5148   18.9772 C   0  0  0  0  0  0  0  0  0  0  0  0
  -18.9709  -32.2540   24.1093 C   0  0  0  0  0  0  0  0  0  0  0  0
  -23.0225  -28.4503   19.9103 C   0  0  0  0  0  0  0  0  0  0  0  0
  -23.8599  -26.2664   21.7197 C   0  0  0  0  0  0  0  0  0  0  0  0
  -19.2679  -30.7712   24.3178 C   0  0  0  0  0  0  0  0  0  0  0  0
  -28.1605  -21.1148   21.8329 C   0  0  0  0  0  0  0  0  0  0  0  0
  -20.7533  -30.5576   24.5910 C   0  0  0  0  0  0  0  0  0  0  0  0
  -28.4790  -19.6187   21.8465 C   0  0  0  0  0  0  0  0  0  0  0  0
  -26.7333  -21.3837   21.3609 C   0  0  0  0  0  0  0  0  0  0  0  0
  -26.7044  -19.2810   20.0757 C   0  0  0  0  0  0  0  0  0  0  0  0
  -21.6047  -31.0167   23.4011 C   0  0  1  0  0  0  0  0  0  0  0  0
  -22.1815  -28.0381   21.1145 C   0  0  1  0  0  0  0  0  0  0  0  0
  -28.1509  -18.9633   20.4914 C   0  0  2  0  0  0  0  0  0  0  0  0
  -31.0292  -21.2595   17.5508 C   0  0  0  0  0  0  0  0  0  0  0  0
  -21.6834  -20.2412   20.5182 C   0  0  0  0  0  0  0  0  0  0  0  0
  -26.8777  -25.4510   13.7851 C   0  0  0  0  0  0  0  0  0  0  0  0
  -24.7005  -26.4311   14.5353 C   0  0  0  0  0  0  0  0  0  0  0  0
  -21.7378  -25.5494   24.9836 C   0  0  0  0  0  0  0  0  0  0  0  0
  -21.6374  -23.0682   24.6646 C   0  0  0  0  0  0  0  0  0  0  0  0
  -19.6735  -24.4822   24.0594 C   0  0  0  0  0  0  0  0  0  0  0  0
  -21.3300  -23.2590   18.2283 C   0  0  0  0  0  0  0  0  0  0  0  0
  -30.1735  -25.5006   18.5243 C   0  0  0  0  0  0  0  0  0  0  0  0
  -25.8903  -24.7804   16.0384 C   0  0  0  0  0  0  0  0  0  0  0  0
  -30.7606  -22.6477   18.1238 C   0  0  0  0  0  0  0  0  0  0  0  0
  -26.6336  -21.9639   15.7341 C   0  0  0  0  0  0  0  0  0  0  0  0
  -30.1371  -25.3261   20.0441 C   0  0  0  0  0  0  0  0  0  0  0  0
  -25.4452  -21.4871   16.5760 C   0  0  0  0  0  0  0  0  0  0  0  0
  -28.7901  -25.6844   20.6609 C   0  0  0  0  0  0  0  0  0  1  0  0
  -21.7408  -24.5446   22.6053 C   0  0  1  0  0  0  0  0  0  0  0  0
  -21.3304  -21.6766   20.1608 C   0  0  2  0  0  0  0  0  0  0  0  0
  -26.0653  -25.9141   14.9970 C   0  0  0  0  0  0  0  0  0  0  0  0
  -21.2167  -24.4267   24.0644 C   0  0  0  0  0  0  0  0  0  0  0  0
  -27.4256  -16.6312   20.8346 N   0  0  0  0  0  0  0  0  0  0  0  0
  -28.6772  -22.3920   16.9398 N   0  0  0  0  0  0  0  0  0  0  0  0
  -28.4239  -17.4706   20.5110 N   0  0  0  0  0  0  0  0  0  0  0  0
  -22.4533  -26.6671   21.5511 N   0  0  0  0  0  0  0  0  0  0  0  0
  -26.4874  -20.7362   20.0700 N   0  0  0  0  0  0  0  0  0  0  0  0
  -30.7077  -17.5376   19.8860 N   0  0  0  0  0  0  0  0  0  0  0  0
  -29.8929  -13.1236   20.3846 N   0  0  0  0  0  0  0  0  0  0  0  0
  -21.5662  -30.0312   22.3419 N   0  0  0  0  0  0  0  0  0  0  0  0
  -21.2420  -23.5100   21.7058 N   0  0  0  0  0  0  0  0  0  0  0  0
  -25.8675  -20.8235   17.7893 N   0  0  0  0  0  0  0  0  0  0  0  0
  -21.6492  -21.8945   18.7214 N   0  3  0  0  0  0  0  0  0  0  0  0
  -31.5023  -14.6732   19.8675 O   0  0  0  0  0  0  0  0  0  0  0  0
  -23.2545  -28.6351   23.1312 O   0  0  0  0  0  0  0  0  0  0  0  0
  -20.1935  -26.1728   21.8430 O   0  0  0  0  0  0  0  0  0  0  0  0
  -23.3196  -22.6819   21.0936 O   0  0  0  0  0  0  0  0  0  0  0  0
  -25.9017  -22.7364   19.0529 O   0  0  0  0  0  0  0  0  0  0  0  0
  -25.0377  -10.8153   21.8454 O   0  0  0  0  0  0  0  0  0  0  0  0
  -28.4927  -27.0456   20.3528 O   0  0  0  0  0  0  0  0  0  1  0  0
  -25.5668   -6.5576   18.3818 F   0  0  0  0  0  0  0  0  0  0  0  0
  -22.8524   -9.8230   20.4734 F   0  0  0  0  0  0  0  0  0  0  0  0
  1  2  1  0  0  0  0
  1  5  2  0  0  0  0
  2  6  2  0  0  0  0
  3  8  2  0  0  0  0
  3 16  1  0  0  0  0
  4  9  1  0  0  0  0
  4 16  2  0  0  0  0
  5 18  1  0  0  0  0
  6 20  1  0  0  0  0
  7 10  2  0  0  0  0
  7 19  1  0  0  0  0
  8 24  1  0  0  0  0
  9 24  2  0  0  0  0
 10 25  1  0  0  0  0
 11 12  2  0  0  0  0
 11 26  1  0  0  0  0
 12 27  1  0  0  0  0
 13 21  1  0  0  0  0
 13 25  2  0  0  0  0
 14 22  1  0  0  0  0
 14 23  2  0  0  0  0
 15 27  2  0  0  0  0
 15 28  1  0  0  0  0
 16 29  1  0  0  0  0
 17 29  1  0  0  0  0
 17 32  2  0  0  0  0
 17 33  1  0  0  0  0
 18 20  2  0  0  0  0
 18 38  1  0  0  0  0
 19 21  2  0  0  0  0
 19 39  1  0  0  0  0
 20 47  1  0  0  0  0
 21 40  1  0  0  0  0
 22 30  2  0  0  0  0
 22 58  1  0  0  0  0
 23 31  1  0  0  0  0
 23 59  1  0  0  0  0
 24 85  1  0  0  0  0
 25 86  1  0  0  0  0
 26 28  2  0  0  0  0
 26 85  1  0  0  0  0
 27 87  1  0  0  0  0
 28 88  1  0  0  0  0
 29 69  2  0  0  0  0
 30 60  1  0  0  0  0
 30 70  1  0  0  0  0
 31 61  1  0  0  0  0
 31 70  2  0  0  0  0
 32 71  1  0  0  0  0
 32 74  1  0  0  0  0
 33 75  1  0  0  0  0
 33 80  2  0  0  0  0
 34 48  1  0  0  0  0
 34 76  1  0  0  0  0
 34 81  2  0  0  0  0
 35 65  1  0  0  0  0
 35 72  1  0  0  0  0
 35 82  2  0  0  0  0
 36 66  1  0  0  0  0
 36 77  1  0  0  0  0
 36 83  2  0  0  0  0
 37 73  1  0  0  0  0
 37 78  1  0  0  0  0
 37 84  2  0  0  0  0
 38 41  1  0  0  0  0
 39 48  1  0  0  0  0
 40 72  1  0  0  0  0
 41 43  1  0  0  0  0
 42 44  1  0  0  0  0
 42 45  1  0  0  0  0
 43 47  1  0  0  0  0
 44 49  1  0  0  0  0
 45 73  1  0  0  0  0
 46 49  1  0  0  0  0
 46 73  1  0  0  0  0
 47 76  1  0  0  0  0
 48 72  1  0  0  0  0
 49 71  1  0  0  0  0
 50 60  1  0  0  0  0
 51 66  1  0  0  0  0
 52 67  1  0  0  0  0
 53 67  1  0  0  0  0
 54 68  1  0  0  0  0
 55 68  1  0  0  0  0
 56 68  1  0  0  0  0
 57 79  1  0  0  0  0
 58 62  1  0  0  0  0
 59 67  1  0  0  0  0
 61 63  1  0  0  0  0
 62 64  1  0  0  0  0
 63 78  1  0  0  0  0
 64 86  1  0  0  0  0
 65 68  1  0  0  0  0
 65 77  1  0  0  0  0
 66 79  1  0  0  0  0
 69 71  1  0  0  0  0
M  CHG  1  79   1
M  ISO  4  37 100  64 101  78 100  86 101
M  END
> <Batch ID>
0046

> <Smiles>
CCc1nc(CC[100NH:0][100C:0](=O)N2CCCC(n3nc(-c4ccc(Oc5ccc(F)cc5F)cc4)c(C(N)=O)c3N)C2)c(CC(C)C)cc1CC[101CH2:1][101O:1]c1ccc2c(c1)CN(C(=O)C(NC(=O)C(C)NC)C(C)(C)C)C(C(=O)NC1CCCc3ccccc31)C2

> <Shape>
0.208

> <Color>
0.096

> <Negative vol penalty>
0.000

$$$$

  -OEChem-04052317213D

 83 91  0     1  0  0  0  0  0999 V2000
  -26.9930  -38.0812   21.5260 C   0  0  0  0  0  0  0  0  0  0  0  0
  -27.5611  -36.9027   21.0528 C   0  0  0  0  0  0  0  0  0  0  0  0
  -26.7228  -12.5023   21.4401 C   0  0  0  0  0  0  0  0  0  0  0  0
  -26.3881  -13.3661   19.2088 C   0  0  0  0  0  0  0  0  0  0  0  0
  -26.1327  -38.0478   22.6226 C   0  0  0  0  0  0  0  0  0  0  0  0
  -27.2700  -35.6901   21.6768 C   0  0  0  0  0  0  0  0  0  0  0  0
  -26.7282  -30.2089   18.9995 C   0  0  0  0  0  0  0  0  0  0  0  0
  -26.0947  -11.3121   21.0736 C   0  0  0  0  0  0  0  0  0  0  0  0
  -25.7599  -12.1759   18.8422 C   0  0  0  0  0  0  0  0  0  0  0  0
  -27.6115  -29.1384   18.8667 C   0  0  0  0  0  0  0  0  0  0  0  0
  -22.9344  -10.1972   20.6325 C   0  0  0  0  0  0  0  0  0  0  0  0
  -21.9927   -9.6646   21.5128 C   0  0  0  0  0  0  0  0  0  0  0  0
  -26.6216  -28.0894   20.8003 C   0  0  0  0  0  0  0  0  0  0  0  0
  -23.3139   -7.6513   21.7082 C   0  0  0  0  0  0  0  0  0  0  0  0
  -26.8695  -13.5294   20.5077 C   0  0  0  0  0  0  0  0  0  0  0  0
  -28.8902  -15.0595   20.7960 C   0  0  0  0  0  0  0  0  0  0  0  0
  -25.8233  -36.8329   23.2544 C   0  0  0  0  0  0  0  0  0  0  0  0
  -25.7906  -30.2328   20.0420 C   0  0  0  0  0  0  0  0  0  0  0  0
  -26.4058  -35.6406   22.7838 C   0  0  0  0  0  0  0  0  0  0  0  0
  -25.7258  -29.1601   20.9427 C   0  0  0  0  0  0  0  0  0  0  0  0
  -25.6133  -11.1488   19.7746 C   0  0  0  0  0  0  0  0  0  0  0  0
  -27.5602  -28.0799   19.7689 C   0  0  0  0  0  0  0  0  0  0  0  0
  -24.0660   -9.4569   20.2900 C   0  0  0  0  0  0  0  0  0  0  0  0
  -22.1824   -8.3916   22.0506 C   0  0  0  0  0  0  0  0  0  0  0  0
  -24.2557   -8.1840   20.8278 C   0  0  0  0  0  0  0  0  0  0  0  0
  -27.5178  -14.7593   20.8859 C   0  0  0  0  0  0  0  0  0  0  0  0
  -25.7867  -24.1242   18.8437 C   0  0  0  0  0  0  0  0  0  0  0  0
  -28.2040  -22.9931   18.7783 C   0  0  0  0  0  0  0  0  0  0  0  0
  -28.0436  -24.3414   18.5459 C   0  0  0  0  0  0  0  0  0  0  0  0
  -25.9469  -22.7759   19.0753 C   0  0  0  0  0  0  0  0  0  0  0  0
  -28.9934  -16.3421   21.2762 C   0  0  0  0  0  0  0  0  0  0  0  0
  -29.9749  -14.2511   20.3208 C   0  0  0  0  0  0  0  0  0  0  0  0
  -25.2430  -32.1431   22.5229 C   0  0  0  0  0  0  0  0  0  0  0  0
  -22.6283  -30.2603   22.8980 C   0  0  0  0  0  0  0  0  0  0  0  0
  -21.1227  -27.2487   22.3411 C   0  0  0  0  0  0  0  0  0  0  0  0
  -25.1168  -20.8927   21.6163 C   0  0  0  0  0  0  0  0  0  0  0  0
  -24.9252  -36.8528   24.4658 C   0  0  0  0  0  0  0  0  0  0  0  0
  -24.8269  -31.3822   20.1557 C   0  0  0  0  0  0  0  0  0  0  0  0
  -24.7243  -29.1282   22.0672 C   0  0  0  0  0  0  0  0  0  0  0  0
  -24.3735  -35.4789   24.8377 C   0  0  0  0  0  0  0  0  0  0  0  0
  -26.8898  -19.3848   24.3107 C   0  0  0  0  0  0  0  0  0  0  0  0
  -25.4850  -34.4344   24.8193 C   0  0  0  0  0  0  0  0  0  0  0  0
  -27.3756  -18.0555   23.7304 C   0  0  0  0  0  0  0  0  0  0  0  0
  -25.5059  -19.7584   23.7839 C   0  0  0  0  0  0  0  0  0  0  0  0
  -25.8709  -18.4403   21.7337 C   0  0  0  0  0  0  0  0  0  0  0  0
  -26.0949  -34.3025   23.4185 C   0  0  1  0  0  0  0  0  0  0  0  0
  -24.2554  -31.5460   21.5606 C   0  0  1  0  0  0  0  0  0  0  0  0
  -27.2861  -18.0489   22.1924 C   0  0  2  0  0  0  0  0  0  0  0  0
  -24.4413  -24.7646   18.8777 C   0  0  0  0  0  0  0  0  0  0  0  0
  -29.4681  -20.8288   18.7116 C   0  0  0  0  0  0  0  0  0  0  0  0
  -18.9992  -25.9930   22.8010 C   0  0  0  0  0  0  0  0  0  0  0  0
  -23.5248  -29.8039   25.7786 C   0  0  0  0  0  0  0  0  0  0  0  0
  -21.9584  -27.8536   25.8836 C   0  0  0  0  0  0  0  0  0  0  0  0
  -21.0643  -30.1496   25.4942 C   0  0  0  0  0  0  0  0  0  0  0  0
  -20.5269  -26.9685   19.4557 C   0  0  0  0  0  0  0  0  0  0  0  0
  -29.5497  -22.3531   18.7444 C   0  0  0  0  0  0  0  0  0  0  0  0
  -29.2232  -25.2340   18.2457 C   0  0  0  0  0  0  0  0  0  0  0  0
  -24.7819  -21.8942   19.3704 C   0  0  0  0  0  0  0  0  0  0  0  0
  -28.8649  -26.7141   18.3238 C   0  0  0  0  0  0  0  0  0  1  0  0
  -22.3295  -28.9817   23.6429 C   0  0  1  0  0  0  0  0  0  0  0  0
  -19.7398  -26.8940   21.8251 C   0  0  2  0  0  0  0  0  0  0  0  0
  -22.2395  -29.1984   25.1799 C   0  0  0  0  0  0  0  0  0  0  0  0
  -26.8005  -15.7699   21.3843 N   0  0  0  0  0  0  0  0  0  0  0  0
  -26.8322  -24.9312   18.5748 N   0  0  0  0  0  0  0  0  0  0  0  0
  -27.1585  -22.1861   19.0468 N   0  0  0  0  0  0  0  0  0  0  0  0
  -27.7259  -16.7176   21.6119 N   0  0  0  0  0  0  0  0  0  0  0  0
  -23.8077  -30.2780   22.1402 N   0  0  0  0  0  0  0  0  0  0  0  0
  -25.4890  -19.7350   22.3193 N   0  0  0  0  0  0  0  0  0  0  0  0
  -30.0438  -17.1742   21.4400 N   0  0  0  0  0  0  0  0  0  0  0  0
  -29.6929  -12.9569   19.8629 N   0  0  0  0  0  0  0  0  0  0  0  0
  -25.2271  -33.5243   22.5607 N   0  0  0  0  0  0  0  0  0  0  0  0
  -21.1166  -28.4346   23.0446 N   0  0  0  0  0  0  0  0  0  0  0  0
  -25.1337  -20.7867   20.2309 N   0  0  0  0  0  0  0  0  0  0  0  0
  -19.8407  -26.1873   20.5168 N   0  3  0  0  0  0  0  0  0  0  0  0
  -31.1613  -14.6584   20.3182 O   0  0  0  0  0  0  0  0  0  0  0  0
  -25.9648  -31.4052   23.1834 O   0  0  0  0  0  0  0  0  0  0  0  0
  -21.8404  -31.2060   22.9797 O   0  0  0  0  0  0  0  0  0  0  0  0
  -22.1089  -26.5423   22.1434 O   0  0  0  0  0  0  0  0  0  0  0  0
  -24.7985  -21.9445   22.1813 O   0  0  0  0  0  0  0  0  0  0  0  0
  -25.0005   -9.9874   19.4165 O   0  0  0  0  0  0  0  0  0  0  0  0
  -28.4217  -27.0341   19.6419 O   0  0  0  0  0  0  0  0  0  1  0  0
  -21.2787   -7.8809   22.8971 F   0  0  0  0  0  0  0  0  0  0  0  0
  -25.3414   -7.4685   20.5034 F   0  0  0  0  0  0  0  0  0  0  0  0
  1  2  1  0  0  0  0
  1  5  2  0  0  0  0
  2  6  2  0  0  0  0
  3  8  2  0  0  0  0
  3 15  1  0  0  0  0
  4  9  1  0  0  0  0
  4 15  2  0  0  0  0
  5 17  1  0  0  0  0
  6 19  1  0  0  0  0
  7 10  2  0  0  0  0
  7 18  1  0  0  0  0
  8 21  1  0  0  0  0
  9 21  2  0  0  0  0
 10 22  1  0  0  0  0
 11 12  2  0  0  0  0
 11 23  1  0  0  0  0
 12 24  1  0  0  0  0
 13 20  1  0  0  0  0
 13 22  2  0  0  0  0
 14 24  2  0  0  0  0
 14 25  1  0  0  0  0
 15 26  1  0  0  0  0
 16 26  1  0  0  0  0
 16 31  2  0  0  0  0
 16 32  1  0  0  0  0
 17 19  2  0  0  0  0
 17 37  1  0  0  0  0
 18 20  2  0  0  0  0
 18 38  1  0  0  0  0
 19 46  1  0  0  0  0
 20 39  1  0  0  0  0
 21 80  1  0  0  0  0
 22 81  1  0  0  0  0
 23 25  2  0  0  0  0
 23 80  1  0  0  0  0
 24 82  1  0  0  0  0
 25 83  1  0  0  0  0
 26 63  2  0  0  0  0
 27 30  1  0  0  0  0
 27 49  1  0  0  0  0
 27 64  2  0  0  0  0
 28 29  2  0  0  0  0
 28 56  1  0  0  0  0
 28 65  1  0  0  0  0
 29 57  1  0  0  0  0
 29 64  1  0  0  0  0
 30 58  1  0  0  0  0
 30 65  2  0  0  0  0
 31 66  1  0  0  0  0
 31 69  1  0  0  0  0
 32 70  1  0  0  0  0
 32 75  2  0  0  0  0
 33 47  1  0  0  0  0
 33 71  1  0  0  0  0
 33 76  2  0  0  0  0
 34 60  1  0  0  0  0
 34 67  1  0  0  0  0
 34 77  2  0  0  0  0
 35 61  1  0  0  0  0
 35 72  1  0  0  0  0
 35 78  2  0  0  0  0
 36 68  1  0  0  0  0
 36 73  1  0  0  0  0
 36 79  2  0  0  0  0
 37 40  1  0  0  0  0
 38 47  1  0  0  0  0
 39 67  1  0  0  0  0
 40 42  1  0  0  0  0
 41 43  1  0  0  0  0
 41 44  1  0  0  0  0
 42 46  1  0  0  0  0
 43 48  1  0  0  0  0
 44 68  1  0  0  0  0
 45 48  1  0  0  0  0
 45 68  1  0  0  0  0
 46 71  1  0  0  0  0
 47 67  1  0  0  0  0
 48 66  1  0  0  0  0
 50 56  1  0  0  0  0
 51 61  1  0  0  0  0
 52 62  1  0  0  0  0
 53 62  1  0  0  0  0
 54 62  1  0  0  0  0
 55 74  1  0  0  0  0
 57 59  1  0  0  0  0
 58 73  1  0  0  0  0
 59 81  1  0  0  0  0
 60 62  1  0  0  0  0
 60 72  1  0  0  0  0
 61 74  1  0  0  0  0
 63 66  1  0  0  0  0
M  CHG  1  74   1
M  ISO  4  36 100  59 101  73 100  81 101
M  END
> <Batch ID>
0046

> <Smiles>
CCc1nc(C[100NH:0][100C:0](=O)N2CCCC(n3nc(-c4ccc(Oc5ccc(F)cc5F)cc4)c(C(N)=O)c3N)C2)c(C)nc1C[101CH2:1][101O:1]c1ccc2c(c1)CN(C(=O)C(NC(=O)C(C)NC)C(C)(C)C)C(C(=O)NC1CCCc3ccccc31)C2

> <Shape>
0.289

> <Color>
0.081

> <Negative vol penalty>
0.000

$$$$

  -OEChem-04052317213D

 86 94  0     1  0  0  0  0  0999 V2000
  -34.1502  -25.9322   18.9066 C   0  0  0  0  0  0  0  0  0  0  0  0
  -32.9424  -25.3935   19.3384 C   0  0  0  0  0  0  0  0  0  0  0  0
  -24.4014   -9.6256   21.4989 C   0  0  0  0  0  0  0  0  0  0  0  0
  -24.8568  -10.7423   23.5924 C   0  0  0  0  0  0  0  0  0  0  0  0
  -34.6127  -27.1293   19.4515 C   0  0  0  0  0  0  0  0  0  0  0  0
  -32.1970  -26.0511   20.3163 C   0  0  0  0  0  0  0  0  0  0  0  0
  -27.2651  -26.2606   19.1859 C   0  0  0  0  0  0  0  0  0  0  0  0
  -24.0580   -8.4652   22.1925 C   0  0  0  0  0  0  0  0  0  0  0  0
  -24.5134   -9.5819   24.2860 C   0  0  0  0  0  0  0  0  0  0  0  0
  -26.5133  -25.1060   19.3994 C   0  0  0  0  0  0  0  0  0  0  0  0
  -22.7150   -5.3210   23.4276 C   0  0  0  0  0  0  0  0  0  0  0  0
  -21.5615   -4.6451   23.0300 C   0  0  0  0  0  0  0  0  0  0  0  0
  -25.6985  -26.0276   21.4745 C   0  0  0  0  0  0  0  0  0  0  0  0
  -20.2426   -6.6102   23.5163 C   0  0  0  0  0  0  0  0  0  0  0  0
  -24.8009  -10.7641   22.1988 C   0  0  0  0  0  0  0  0  0  0  0  0
  -24.2992  -13.0151   21.1082 C   0  0  0  0  0  0  0  0  0  0  0  0
  -33.8678  -27.8069   20.4296 C   0  0  0  0  0  0  0  0  0  0  0  0
  -27.2477  -27.3045   20.1220 C   0  0  0  0  0  0  0  0  0  0  0  0
  -32.6506  -27.2577   20.8758 C   0  0  0  0  0  0  0  0  0  0  0  0
  -26.4490  -27.1955   21.2692 C   0  0  0  0  0  0  0  0  0  0  0  0
  -24.1140   -8.4433   23.5861 C   0  0  0  0  0  0  0  0  0  0  0  0
  -25.7321  -24.9882   20.5453 C   0  0  0  0  0  0  0  0  0  0  0  0
  -22.6324   -6.6414   23.8696 C   0  0  0  0  0  0  0  0  0  0  0  0
  -20.3253   -5.2897   23.0743 C   0  0  0  0  0  0  0  0  0  0  0  0
  -21.3962   -7.2860   23.9139 C   0  0  0  0  0  0  0  0  0  0  0  0
  -25.1563  -11.9629   21.4828 C   0  0  0  0  0  0  0  0  0  0  0  0
  -25.7092  -19.8492   21.4734 C   0  0  0  0  0  0  0  0  0  0  0  0
  -25.7716  -21.2032   21.7191 C   0  0  0  0  0  0  0  0  0  0  0  0
  -27.9167  -19.8557   20.8764 C   0  0  0  0  0  0  0  0  0  0  0  0
  -27.9790  -21.2098   21.1214 C   0  0  0  0  0  0  0  0  0  0  0  0
  -25.1151  -13.9069   20.4560 C   0  0  0  0  0  0  0  0  0  0  0  0
  -22.8914  -13.1722   21.3301 C   0  0  0  0  0  0  0  0  0  0  0  0
  -29.4284  -28.7010   21.9654 C   0  0  0  0  0  0  0  0  0  0  0  0
  -26.9847  -30.7185   22.6584 C   0  0  0  0  0  0  0  0  0  0  0  0
  -23.6160  -31.2386   22.8264 C   0  0  0  0  0  0  0  0  0  0  0  0
  -29.8962  -16.7625   20.0930 C   0  0  0  0  0  0  0  0  0  0  0  0
  -34.4315  -29.0736   21.0233 C   0  0  0  0  0  0  0  0  0  0  0  0
  -28.0434  -28.5546   19.8638 C   0  0  0  0  0  0  0  0  0  0  0  0
  -26.3798  -28.2962   22.2950 C   0  0  0  0  0  0  0  0  0  0  0  0
  -33.3995  -29.9009   21.7852 C   0  0  0  0  0  0  0  0  0  0  0  0
  -29.8837  -13.4309   18.8373 C   0  0  0  0  0  0  0  0  0  0  0  0
  -32.5795  -29.0093   22.7122 C   0  0  0  0  0  0  0  0  0  0  0  0
  -28.5857  -12.8374   19.3878 C   0  0  0  0  0  0  0  0  0  0  0  0
  -30.5369  -14.3835   19.8363 C   0  0  0  0  0  0  0  0  0  0  0  0
  -28.3590  -14.8636   20.8851 C   0  0  0  0  0  0  0  0  0  0  0  0
  -31.8013  -27.9542   21.9168 C   0  0  1  0  0  0  0  0  0  0  0  0
  -28.3514  -29.3400   21.1349 C   0  0  1  0  0  0  0  0  0  0  0  0
  -27.6345  -13.9396   19.8913 C   0  0  2  0  0  0  0  0  0  0  0  0
  -23.7474  -18.7684   20.3465 C   0  0  0  0  0  0  0  0  0  0  0  0
  -21.9202  -32.9744   23.4659 C   0  0  0  0  0  0  0  0  0  0  0  0
  -27.5118  -30.1432   25.6082 C   0  0  0  0  0  0  0  0  0  0  0  0
  -25.2603  -31.1075   26.1268 C   0  0  0  0  0  0  0  0  0  0  0  0
  -27.0179  -32.5382   25.0845 C   0  0  0  0  0  0  0  0  0  0  0  0
  -22.4987  -31.3235   20.0872 C   0  0  0  0  0  0  0  0  0  0  0  0
  -24.4467  -19.0811   21.6673 C   0  0  0  0  0  0  0  0  0  0  0  0
  -24.5642  -21.9728   22.1968 C   0  0  0  0  0  0  0  0  0  0  0  0
  -29.1093  -19.0953   20.4059 C   0  0  0  0  0  0  0  0  0  0  0  0
  -24.7677  -23.4816   22.1124 C   0  0  0  0  0  0  0  0  0  1  0  0
  -25.8882  -30.7530   23.6956 C   0  0  1  0  0  0  0  0  0  0  0  0
  -22.7477  -32.3829   22.3353 C   0  0  2  0  0  0  0  0  0  0  0  0
  -29.2416  -21.9777   20.9271 C   0  0  0  0  0  0  0  0  0  0  0  0
  -26.4221  -31.1138   25.1106 C   0  0  0  0  0  0  0  0  0  0  0  0
  -26.4197  -12.1661   21.1002 N   0  0  0  0  0  0  0  0  0  0  0  0
  -26.7806  -19.1512   21.0477 N   0  0  0  0  0  0  0  0  0  0  0  0
  -26.9077  -21.9078   21.5475 N   0  0  0  0  0  0  0  0  0  0  0  0
  -26.3626  -13.3561   20.4784 N   0  0  0  0  0  0  0  0  0  0  0  0
  -27.1808  -29.4959   22.0006 N   0  0  0  0  0  0  0  0  0  0  0  0
  -29.5824  -15.4053   20.2731 N   0  0  0  0  0  0  0  0  0  0  0  0
  -24.8799  -15.1007   19.8712 N   0  0  0  0  0  0  0  0  0  0  0  0
  -22.2065  -12.1610   22.0176 N   0  0  0  0  0  0  0  0  0  0  0  0
  -30.6313  -28.5450   21.3034 N   0  0  0  0  0  0  0  0  0  0  0  0
  -24.8745  -31.6710   23.1875 N   0  0  0  0  0  0  0  0  0  0  0  0
  -28.9340  -17.6653   20.5288 N   0  0  0  0  0  0  0  0  0  0  0  0
  -21.8185  -31.9084   21.2713 N   0  3  0  0  0  0  0  0  0  0  0  0
  -22.2566  -14.1718   20.9162 O   0  0  0  0  0  0  0  0  0  0  0  0
  -29.1864  -28.3751   23.1216 O   0  0  0  0  0  0  0  0  0  0  0  0
  -27.6381  -31.7406   22.4350 O   0  0  0  0  0  0  0  0  0  0  0  0
  -23.2164  -30.0780   22.8874 O   0  0  0  0  0  0  0  0  0  0  0  0
  -30.9530  -17.1416   19.5769 O   0  0  0  0  0  0  0  0  0  0  0  0
  -23.7787   -7.3113   24.2633 O   0  0  0  0  0  0  0  0  0  0  0  0
  -24.9979  -23.8621   20.7565 O   0  0  0  0  0  0  0  0  0  1  0  0
  -19.2178   -4.6411   22.6910 F   0  0  0  0  0  0  0  0  0  0  0  0
  -21.3108   -8.5548   24.3365 F   0  0  0  0  0  0  0  0  0  0  0  0
  -30.2879  -21.2125   20.4949 F   0  0  0  0  0  0  0  0  0  0  0  0
  -29.1348  -22.9841   20.0092 F   0  0  0  0  0  0  0  0  0  0  0  0
  -29.6760  -22.5751   22.0753 F   0  0  0  0  0  0  0  0  0  0  0  0
  1  2  1  0  0  0  0
  1  5  2  0  0  0  0
  2  6  2  0  0  0  0
  3  8  2  0  0  0  0
  3 15  1  0  0  0  0
  4  9  1  0  0  0  0
  4 15  2  0  0  0  0
  5 17  1  0  0  0  0
  6 19  1  0  0  0  0
  7 10  2  0  0  0  0
  7 18  1  0  0  0  0
  8 21  1  0  0  0  0
  9 21  2  0  0  0  0
 10 22  1  0  0  0  0
 11 12  2  0  0  0  0
 11 23  1  0  0  0  0
 12 24  1  0  0  0  0
 13 20  1  0  0  0  0
 13 22  2  0  0  0  0
 14 24  2  0  0  0  0
 14 25  1  0  0  0  0
 15 26  1  0  0  0  0
 16 26  1  0  0  0  0
 16 31  2  0  0  0  0
 16 32  1  0  0  0  0
 17 19  2  0  0  0  0
 17 37  1  0  0  0  0
 18 20  2  0  0  0  0
 18 38  1  0  0  0  0
 19 46  1  0  0  0  0
 20 39  1  0  0  0  0
 21 80  1  0  0  0  0
 22 81  1  0  0  0  0
 23 25  2  0  0  0  0
 23 80  1  0  0  0  0
 24 82  1  0  0  0  0
 25 83  1  0  0  0  0
 26 63  2  0  0  0  0
 27 28  2  0  0  0  0
 27 55  1  0  0  0  0
 27 64  1  0  0  0  0
 28 56  1  0  0  0  0
 28 65  1  0  0  0  0
 29 30  1  0  0  0  0
 29 57  1  0  0  0  0
 29 64  2  0  0  0  0
 30 61  1  0  0  0  0
 30 65  2  0  0  0  0
 31 66  1  0  0  0  0
 31 69  1  0  0  0  0
 32 70  1  0  0  0  0
 32 75  2  0  0  0  0
 33 47  1  0  0  0  0
 33 71  1  0  0  0  0
 33 76  2  0  0  0  0
 34 59  1  0  0  0  0
 34 67  1  0  0  0  0
 34 77  2  0  0  0  0
 35 60  1  0  0  0  0
 35 72  1  0  0  0  0
 35 78  2  0  0  0  0
 36 68  1  0  0  0  0
 36 73  1  0  0  0  0
 36 79  2  0  0  0  0
 37 40  1  0  0  0  0
 38 47  1  0  0  0  0
 39 67  1  0  0  0  0
 40 42  1  0  0  0  0
 41 43  1  0  0  0  0
 41 44  1  0  0  0  0
 42 46  1  0  0  0  0
 43 48  1  0  0  0  0
 44 68  1  0  0  0  0
 45 48  1  0  0  0  0
 45 68  1  0  0  0  0
 46 71  1  0  0  0  0
 47 67  1  0  0  0  0
 48 66  1  0  0  0  0
 49 55  1  0  0  0  0
 50 60  1  0  0  0  0
 51 62  1  0  0  0  0
 52 62  1  0  0  0  0
 53 62  1  0  0  0  0
 54 74  1  0  0  0  0
 56 58  1  0  0  0  0
 57 73  1  0  0  0  0
 58 81  1  0  0  0  0
 59 62  1  0  0  0  0
 59 72  1  0  0  0  0
 60 74  1  0  0  0  0
 61 84  1  0  0  0  0
 61 85  1  0  0  0  0
 61 86  1  0  0  0  0
 63 66  1  0  0  0  0
M  CHG  1  74   1
M  ISO  4  36 100  58 101  73 100  81 101
M  END
> <Batch ID>
0046

> <Smiles>
CCc1nc(C[100NH:0][100C:0](=O)N2CCCC(n3nc(-c4ccc(Oc5ccc(F)cc5F)cc4)c(C(N)=O)c3N)C2)c(C(F)(F)F)nc1C[101CH2:1][101O:1]c1ccc2c(c1)CN(C(=O)C(NC(=O)C(C)NC)C(C)(C)C)C(C(=O)NC1CCCc3ccccc31)C2

> <Shape>
0.298

> <Color>
0.122

> <Negative vol penalty>
0.000

$$$$

  -OEChem-04052317213D

 86 94  0     1  0  0  0  0  0999 V2000
  -27.7095  -25.2502   15.8198 C   0  0  0  0  0  0  0  0  0  0  0  0
  -26.5654  -25.3727   16.6018 C   0  0  0  0  0  0  0  0  0  0  0  0
  -29.5025  -18.2278   21.2443 C   0  0  0  0  0  0  0  0  0  0  0  0
  -28.8655  -17.7417   18.9650 C   0  0  0  0  0  0  0  0  0  0  0  0
  -28.9352  -25.7059   16.3034 C   0  0  0  0  0  0  0  0  0  0  0  0
  -26.6467  -25.9500   17.8685 C   0  0  0  0  0  0  0  0  0  0  0  0
  -22.9141  -29.2602   18.7379 C   0  0  0  0  0  0  0  0  0  0  0  0
  -30.4562  -17.2113   21.1946 C   0  0  0  0  0  0  0  0  0  0  0  0
  -29.8193  -16.7251   18.9153 C   0  0  0  0  0  0  0  0  0  0  0  0
  -21.6632  -28.7380   19.0640 C   0  0  0  0  0  0  0  0  0  0  0  0
  -32.8123  -14.5053   21.7865 C   0  0  0  0  0  0  0  0  0  0  0  0
  -32.8939  -13.6366   22.8748 C   0  0  0  0  0  0  0  0  0  0  0  0
  -22.0951  -29.1761   21.3965 C   0  0  0  0  0  0  0  0  0  0  0  0
  -18.3791  -20.9892   18.8777 C   0  0  0  0  0  0  0  0  0  0  0  0
  -30.6002  -12.9689   22.5137 C   0  0  0  0  0  0  0  0  0  0  0  0
  -20.1024  -22.4614   18.1570 C   0  0  0  0  0  0  0  0  0  0  0  0
  -28.7070  -18.4930   20.1295 C   0  0  0  0  0  0  0  0  0  0  0  0
  -27.9028  -20.8966   19.8407 C   0  0  0  0  0  0  0  0  0  0  0  0
  -29.0298  -26.2978   17.5728 C   0  0  0  0  0  0  0  0  0  0  0  0
  -23.7708  -29.7349   19.7414 C   0  0  0  0  0  0  0  0  0  0  0  0
  -27.8750  -26.4128   18.3702 C   0  0  0  0  0  0  0  0  0  0  0  0
  -23.3553  -29.7061   21.0803 C   0  0  0  0  0  0  0  0  0  0  0  0
  -19.4743  -21.2305   18.0557 C   0  0  0  0  0  0  0  0  0  0  0  0
  -17.9516  -21.9721   19.7633 C   0  0  0  0  0  0  0  0  0  0  0  0
  -30.6147  -16.4599   20.0301 C   0  0  0  0  0  0  0  0  0  0  0  0
  -21.2546  -28.6933   20.3937 C   0  0  0  0  0  0  0  0  0  0  0  0
  -31.6246  -14.6058   21.0618 C   0  0  0  0  0  0  0  0  0  0  0  0
  -31.7879  -12.8684   23.2384 C   0  0  0  0  0  0  0  0  0  0  0  0
  -30.5186  -13.8376   21.4254 C   0  0  0  0  0  0  0  0  0  0  0  0
  -27.7212  -19.5426   20.1805 C   0  0  0  0  0  0  0  0  0  0  0  0
  -18.6480  -23.1697   19.7883 C   0  0  0  0  0  0  0  0  0  0  0  0
  -26.6755  -21.4732   20.0599 C   0  0  0  0  0  0  0  0  0  0  0  0
  -29.0758  -21.5728   19.3692 C   0  0  0  0  0  0  0  0  0  0  0  0
  -26.6632  -28.9317   20.7866 C   0  0  0  0  0  0  0  0  0  0  0  0
  -26.3098  -31.5833   22.6214 C   0  0  0  0  0  0  0  0  0  0  0  0
  -24.2015  -33.8054   24.1262 C   0  0  0  0  0  0  0  0  0  0  0  0
  -21.0992  -19.2933   20.1220 C   0  0  0  0  0  0  0  0  0  0  0  0
  -30.3850  -26.7325   18.0720 C   0  0  0  0  0  0  0  0  0  0  0  0
  -25.1061  -30.3197   19.3707 C   0  0  0  0  0  0  0  0  0  0  0  0
  -24.2294  -30.2219   22.1932 C   0  0  0  0  0  0  0  0  0  0  0  0
  -30.3190  -27.6725   19.2729 C   0  0  0  0  0  0  0  0  0  0  0  0
  -22.7533  -21.0177   22.7616 C   0  0  0  0  0  0  0  0  0  0  0  0
  -29.3377  -27.1415   20.3131 C   0  0  0  0  0  0  0  0  0  0  0  0
  -24.2304  -20.9574   22.3687 C   0  0  0  0  0  0  0  0  0  0  0  0
  -22.0152  -19.7363   22.3806 C   0  0  0  0  0  0  0  0  0  0  0  0
  -23.6276  -19.2805   20.5734 C   0  0  0  0  0  0  0  0  0  0  0  0
  -27.9183  -27.0559   19.7394 C   0  0  1  0  0  0  0  0  0  0  0  0
  -26.1066  -30.3021   20.5222 C   0  0  1  0  0  0  0  0  0  0  0  0
  -24.4013  -20.5726   20.8868 C   0  0  2  0  0  0  0  0  0  0  0  0
  -16.7778  -21.7208   20.6455 C   0  0  0  0  0  0  0  0  0  0  0  0
  -24.2059  -35.8440   25.5896 C   0  0  0  0  0  0  0  0  0  0  0  0
  -21.2027  -20.6075   16.2333 C   0  0  0  0  0  0  0  0  0  0  0  0
  -18.8447  -19.8575   16.0518 C   0  0  0  0  0  0  0  0  0  0  0  0
  -26.9506  -29.8408   25.0428 C   0  0  0  0  0  0  0  0  0  0  0  0
  -26.0241  -31.6510   26.5032 C   0  0  0  0  0  0  0  0  0  0  0  0
  -28.0177  -32.1024   25.0734 C   0  0  0  0  0  0  0  0  0  0  0  0
  -22.8555  -35.4368   22.0560 C   0  0  0  0  0  0  0  0  0  0  0  0
  -18.2304  -24.2718   20.7290 C   0  0  0  0  0  0  0  0  0  0  0  0
  -19.2738  -25.3842   20.8814 C   0  0  0  0  0  0  0  0  0  0  0  0
  -18.8658  -26.4525   21.8969 C   0  0  0  0  0  0  0  0  0  0  0  0
  -20.3352  -18.8457   17.8036 C   0  0  0  0  0  0  0  0  0  0  0  0
  -19.9067  -27.5599   21.9919 C   0  0  0  0  0  0  0  0  0  1  0  0
  -25.7445  -31.8674   23.9921 C   0  0  1  0  0  0  0  0  0  0  0  0
  -24.1953  -35.3230   24.1609 C   0  0  2  0  0  0  0  0  0  0  0  0
  -19.9571  -20.1997   17.0985 C   0  0  0  0  0  0  0  0  0  0  0  0
  -26.6683  -31.3538   25.1323 C   0  0  0  0  0  0  0  0  0  0  0  0
  -19.7162  -23.4407   19.0051 N   0  0  0  0  0  0  0  0  0  0  0  0
  -26.4767  -19.2749   20.5849 N   0  0  0  0  0  0  0  0  0  0  0  0
  -25.8652  -20.4686   20.5007 N   0  0  0  0  0  0  0  0  0  0  0  0
  -25.5285  -30.7782   21.7805 N   0  0  0  0  0  0  0  0  0  0  0  0
  -22.2164  -19.4284   20.9627 N   0  0  0  0  0  0  0  0  0  0  0  0
  -26.2214  -22.7363   19.9166 N   0  0  0  0  0  0  0  0  0  0  0  0
  -30.2523  -20.8302   19.1996 N   0  0  0  0  0  0  0  0  0  0  0  0
  -27.3080  -28.3676   19.7024 N   0  0  0  0  0  0  0  0  0  0  0  0
  -25.4820  -33.3018   24.0361 N   0  0  0  0  0  0  0  0  0  0  0  0
  -21.3788  -19.0075   18.7913 N   0  0  0  0  0  0  0  0  0  0  0  0
  -22.9815  -35.8518   23.4768 N   0  3  0  0  0  0  0  0  0  0  0  0
  -29.0850  -22.8025   19.1216 O   0  0  0  0  0  0  0  0  0  0  0  0
  -26.5197  -28.4244   21.8928 O   0  0  0  0  0  0  0  0  0  0  0  0
  -27.4011  -32.0641   22.3059 O   0  0  0  0  0  0  0  0  0  0  0  0
  -23.1736  -33.1337   24.1779 O   0  0  0  0  0  0  0  0  0  0  0  0
  -19.9388  -19.4234   20.5263 O   0  0  0  0  0  0  0  0  0  0  0  0
  -31.5455  -15.4681   19.9811 O   0  0  0  0  0  0  0  0  0  0  0  0
  -20.0344  -28.1836   20.7148 O   0  0  0  0  0  0  0  0  0  1  0  0
  -31.8668  -12.0332   24.2826 F   0  0  0  0  0  0  0  0  0  0  0  0
  -29.3754  -13.9290   20.7323 F   0  0  0  0  0  0  0  0  0  0  0  0
  1  2  1  0  0  0  0
  1  5  2  0  0  0  0
  2  6  2  0  0  0  0
  3  8  2  0  0  0  0
  3 17  1  0  0  0  0
  4  9  1  0  0  0  0
  4 17  2  0  0  0  0
  5 19  1  0  0  0  0
  6 21  1  0  0  0  0
  7 10  2  0  0  0  0
  7 20  1  0  0  0  0
  8 25  1  0  0  0  0
  9 25  2  0  0  0  0
 10 26  1  0  0  0  0
 11 12  2  0  0  0  0
 11 27  1  0  0  0  0
 12 28  1  0  0  0  0
 13 22  1  0  0  0  0
 13 26  2  0  0  0  0
 14 23  2  0  0  0  0
 14 24  1  0  0  0  0
 15 28  2  0  0  0  0
 15 29  1  0  0  0  0
 16 23  1  0  0  0  0
 16 67  2  0  0  0  0
 17 30  1  0  0  0  0
 18 30  1  0  0  0  0
 18 32  2  0  0  0  0
 18 33  1  0  0  0  0
 19 21  2  0  0  0  0
 19 38  1  0  0  0  0
 20 22  2  0  0  0  0
 20 39  1  0  0  0  0
 21 47  1  0  0  0  0
 22 40  1  0  0  0  0
 23 65  1  0  0  0  0
 24 31  2  0  0  0  0
 24 50  1  0  0  0  0
 25 83  1  0  0  0  0
 26 84  1  0  0  0  0
 27 29  2  0  0  0  0
 27 83  1  0  0  0  0
 28 85  1  0  0  0  0
 29 86  1  0  0  0  0
 30 68  2  0  0  0  0
 31 58  1  0  0  0  0
 31 67  1  0  0  0  0
 32 69  1  0  0  0  0
 32 72  1  0  0  0  0
 33 73  1  0  0  0  0
 33 78  2  0  0  0  0
 34 48  1  0  0  0  0
 34 74  1  0  0  0  0
 34 79  2  0  0  0  0
 35 63  1  0  0  0  0
 35 70  1  0  0  0  0
 35 80  2  0  0  0  0
 36 64  1  0  0  0  0
 36 75  1  0  0  0  0
 36 81  2  0  0  0  0
 37 71  1  0  0  0  0
 37 76  1  0  0  0  0
 37 82  2  0  0  0  0
 38 41  1  0  0  0  0
 39 48  1  0  0  0  0
 40 70  1  0  0  0  0
 41 43  1  0  0  0  0
 42 44  1  0  0  0  0
 42 45  1  0  0  0  0
 43 47  1  0  0  0  0
 44 49  1  0  0  0  0
 45 71  1  0  0  0  0
 46 49  1  0  0  0  0
 46 71  1  0  0  0  0
 47 74  1  0  0  0  0
 48 70  1  0  0  0  0
 49 69  1  0  0  0  0
 51 64  1  0  0  0  0
 52 65  1  0  0  0  0
 53 65  1  0  0  0  0
 54 66  1  0  0  0  0
 55 66  1  0  0  0  0
 56 66  1  0  0  0  0
 57 77  1  0  0  0  0
 58 59  1  0  0  0  0
 59 60  1  0  0  0  0
 60 62  1  0  0  0  0
 61 65  1  0  0  0  0
 61 76  1  0  0  0  0
 62 84  1  0  0  0  0
 63 66  1  0  0  0  0
 63 75  1  0  0  0  0
 64 77  1  0  0  0  0
 68 69  1  0  0  0  0
M  CHG  1  77   1
M  ISO  4  37 100  62 101  76 100  84 101
M  END
> <Batch ID>
0046

> <Smiles>
CNC(C)C(=O)NC(C(=O)N1Cc2cc([101O:1][101CH2:1]CCCc3ncc(C(C)(C)C[100NH:0][100C:0](=O)N4CCCC(n5nc(-c6ccc(Oc7ccc(F)cc7F)cc6)c(C(N)=O)c5N)C4)cc3C)ccc2CC1C(=O)NC1CCCc2ccccc21)C(C)(C)C

> <Shape>
0.264

> <Color>
0.081

> <Negative vol penalty>
0.000

$$$$

  -OEChem-04052317213D

 85 93  0     1  0  0  0  0  0999 V2000
  -30.8425  -31.0150   27.4164 C   0  0  0  0  0  0  0  0  0  0  0  0
  -30.3020  -29.9398   26.7183 C   0  0  0  0  0  0  0  0  0  0  0  0
  -23.1427   -9.8279   19.9922 C   0  0  0  0  0  0  0  0  0  0  0  0
  -23.8734   -9.9387   22.2924 C   0  0  0  0  0  0  0  0  0  0  0  0
  -31.7452  -31.8707   26.7864 C   0  0  0  0  0  0  0  0  0  0  0  0
  -30.6631  -29.7203   25.3895 C   0  0  0  0  0  0  0  0  0  0  0  0
  -31.3103  -24.3088   22.5961 C   0  0  0  0  0  0  0  0  0  0  0  0
  -22.4253   -8.6659   20.2761 C   0  0  0  0  0  0  0  0  0  0  0  0
  -23.1560   -8.7767   22.5763 C   0  0  0  0  0  0  0  0  0  0  0  0
  -30.4640  -23.5743   21.7666 C   0  0  0  0  0  0  0  0  0  0  0  0
  -19.9419   -7.9183   23.1706 C   0  0  0  0  0  0  0  0  0  0  0  0
  -19.1716   -7.9018   24.3333 C   0  0  0  0  0  0  0  0  0  0  0  0
  -31.5673  -24.5002   19.8314 C   0  0  0  0  0  0  0  0  0  0  0  0
  -31.4617  -18.5422   19.8946 C   0  0  0  0  0  0  0  0  0  0  0  0
  -20.4525   -6.0255   25.1553 C   0  0  0  0  0  0  0  0  0  0  0  0
  -23.8668  -10.4643   21.0004 C   0  0  0  0  0  0  0  0  0  0  0  0
  -24.1458  -12.9914   20.7909 C   0  0  0  0  0  0  0  0  0  0  0  0
  -32.1250  -31.6559   25.4521 C   0  0  0  0  0  0  0  0  0  0  0  0
  -32.2858  -25.1543   22.0485 C   0  0  0  0  0  0  0  0  0  0  0  0
  -31.5707  -30.5747   24.7407 C   0  0  0  0  0  0  0  0  0  0  0  0
  -32.4263  -25.2424   20.6562 C   0  0  0  0  0  0  0  0  0  0  0  0
  -30.4404  -18.1796   20.7657 C   0  0  0  0  0  0  0  0  0  0  0  0
  -31.2395  -19.5347   18.9464 C   0  0  0  0  0  0  0  0  0  0  0  0
  -22.4319   -8.1403   21.5681 C   0  0  0  0  0  0  0  0  0  0  0  0
  -30.5905  -23.6721   20.3840 C   0  0  0  0  0  0  0  0  0  0  0  0
  -20.9674   -6.9883   23.0001 C   0  0  0  0  0  0  0  0  0  0  0  0
  -19.4269   -6.9555   25.3257 C   0  0  0  0  0  0  0  0  0  0  0  0
  -21.2228   -6.0420   23.9925 C   0  0  0  0  0  0  0  0  0  0  0  0
  -24.6085  -11.6644   20.7076 C   0  0  0  0  0  0  0  0  0  0  0  0
  -29.2250  -18.8346   20.6486 C   0  0  0  0  0  0  0  0  0  0  0  0
  -29.9883  -20.1288   18.9106 C   0  0  0  0  0  0  0  0  0  0  0  0
  -25.2230  -13.7550   20.4128 C   0  0  0  0  0  0  0  0  0  0  0  0
  -22.8575  -13.4892   21.1758 C   0  0  0  0  0  0  0  0  0  0  0  0
  -32.8554  -28.2800   22.1451 C   0  0  0  0  0  0  0  0  0  0  0  0
  -35.5528  -27.4429   20.5495 C   0  0  0  0  0  0  0  0  0  0  0  0
  -37.1497  -25.1953   18.5383 C   0  0  0  0  0  0  0  0  0  0  0  0
  -30.6763  -14.9217   20.6267 C   0  0  0  0  0  0  0  0  0  0  0  0
  -33.0678  -32.6354   24.7991 C   0  0  0  0  0  0  0  0  0  0  0  0
  -33.2085  -25.9195   22.9571 C   0  0  0  0  0  0  0  0  0  0  0  0
  -33.4710  -26.1202   20.0185 C   0  0  0  0  0  0  0  0  0  0  0  0
  -33.6856  -32.1149   23.5038 C   0  0  0  0  0  0  0  0  0  0  0  0
  -29.6296  -12.4226   18.3168 C   0  0  0  0  0  0  0  0  0  0  0  0
  -32.6149  -31.4899   22.6151 C   0  0  0  0  0  0  0  0  0  0  0  0
  -28.1948  -12.1079   18.7437 C   0  0  0  0  0  0  0  0  0  0  0  0
  -30.5258  -12.7110   19.5192 C   0  0  0  0  0  0  0  0  0  0  0  0
  -28.5889  -13.4430   20.8557 C   0  0  0  0  0  0  0  0  0  0  0  0
  -31.9568  -30.2892   23.3056 C   0  0  1  0  0  0  0  0  0  0  0  0
  -33.8272  -27.1429   22.2878 C   0  0  1  0  0  0  0  0  0  0  0  0
  -27.6343  -13.2002   19.6742 C   0  0  2  0  0  0  0  0  0  0  0  0
  -26.7661  -19.0718   21.0775 C   0  0  0  0  0  0  0  0  0  0  0  0
  -32.7718  -18.7666   17.0982 C   0  0  0  0  0  0  0  0  0  0  0  0
  -33.5542  -20.5116   18.7408 C   0  0  0  0  0  0  0  0  0  0  0  0
  -39.3358  -24.8026   17.3704 C   0  0  0  0  0  0  0  0  0  0  0  0
  -34.7863  -29.4986   18.4289 C   0  0  0  0  0  0  0  0  0  0  0  0
  -36.4290  -28.4129   16.8826 C   0  0  0  0  0  0  0  0  0  0  0  0
  -37.2190  -29.4539   19.0074 C   0  0  0  0  0  0  0  0  0  0  0  0
  -37.6438  -22.7014   20.0533 C   0  0  0  0  0  0  0  0  0  0  0  0
  -30.6721  -17.1172   21.7838 C   0  0  0  0  0  0  0  0  0  0  0  0
  -28.0910  -18.4863   21.5563 C   0  0  0  0  0  0  0  0  0  0  0  0
  -29.6909  -21.2128   17.9032 C   0  0  0  0  0  0  0  0  0  0  0  0
  -30.2871  -22.5574   18.3052 C   0  0  0  0  0  0  0  0  0  1  0  0
  -32.3295  -19.9276   18.0100 C   0  0  0  0  0  0  0  0  0  0  0  0
  -35.9287  -27.2815   19.0964 C   0  0  1  0  0  0  0  0  0  0  0  0
  -38.5242  -24.5578   18.6329 C   0  0  2  0  0  0  0  0  0  0  0  0
  -36.0697  -28.6466   18.3655 C   0  0  0  0  0  0  0  0  0  0  0  0
  -25.8806  -11.5861   20.3078 N   0  0  0  0  0  0  0  0  0  0  0  0
  -28.9717  -19.8033   19.7403 N   0  0  0  0  0  0  0  0  0  0  0  0
  -26.2263  -12.8734   20.1364 N   0  0  0  0  0  0  0  0  0  0  0  0
  -34.3451  -26.8533   20.9491 N   0  0  0  0  0  0  0  0  0  0  0  0
  -29.9382  -13.7567   20.3601 N   0  0  0  0  0  0  0  0  0  0  0  0
  -25.4004  -15.0879   20.2930 N   0  0  0  0  0  0  0  0  0  0  0  0
  -21.8649  -12.5672   21.5347 N   0  0  0  0  0  0  0  0  0  0  0  0
  -32.8199  -29.1297   23.2343 N   0  0  0  0  0  0  0  0  0  0  0  0
  -37.1376  -26.4651   19.0758 N   0  0  0  0  0  0  0  0  0  0  0  0
  -30.0433  -15.8650   21.4268 N   0  0  0  0  0  0  0  0  0  0  0  0
  -38.3999  -23.0863   18.8338 N   0  3  0  0  0  0  0  0  0  0  0  0
  -22.5894  -14.7146   21.1848 O   0  0  0  0  0  0  0  0  0  0  0  0
  -32.1884  -28.3800   21.1220 O   0  0  0  0  0  0  0  0  0  0  0  0
  -36.3065  -28.0630   21.3039 O   0  0  0  0  0  0  0  0  0  0  0  0
  -36.1844  -24.6254   18.0345 O   0  0  0  0  0  0  0  0  0  0  0  0
  -31.8130  -15.1097   20.1800 O   0  0  0  0  0  0  0  0  0  0  0  0
  -21.7318   -7.0065   21.8455 O   0  0  0  0  0  0  0  0  0  0  0  0
  -29.7654  -22.9568   19.5720 O   0  0  0  0  0  0  0  0  0  1  0  0
  -18.6882   -6.9407   26.4429 F   0  0  0  0  0  0  0  0  0  0  0  0
  -22.2075   -5.1467   23.8349 F   0  0  0  0  0  0  0  0  0  0  0  0
  1  2  1  0  0  0  0
  1  5  2  0  0  0  0
  2  6  2  0  0  0  0
  3  8  2  0  0  0  0
  3 16  1  0  0  0  0
  4  9  1  0  0  0  0
  4 16  2  0  0  0  0
  5 18  1  0  0  0  0
  6 20  1  0  0  0  0
  7 10  2  0  0  0  0
  7 19  1  0  0  0  0
  8 24  1  0  0  0  0
  9 24  2  0  0  0  0
 10 25  1  0  0  0  0
 11 12  2  0  0  0  0
 11 26  1  0  0  0  0
 12 27  1  0  0  0  0
 13 21  1  0  0  0  0
 13 25  2  0  0  0  0
 14 22  1  0  0  0  0
 14 23  2  0  0  0  0
 15 27  2  0  0  0  0
 15 28  1  0  0  0  0
 16 29  1  0  0  0  0
 17 29  1  0  0  0  0
 17 32  2  0  0  0  0
 17 33  1  0  0  0  0
 18 20  2  0  0  0  0
 18 38  1  0  0  0  0
 19 21  2  0  0  0  0
 19 39  1  0  0  0  0
 20 47  1  0  0  0  0
 21 40  1  0  0  0  0
 22 30  2  0  0  0  0
 22 58  1  0  0  0  0
 23 31  1  0  0  0  0
 23 62  1  0  0  0  0
 24 82  1  0  0  0  0
 25 83  1  0  0  0  0
 26 28  2  0  0  0  0
 26 82  1  0  0  0  0
 27 84  1  0  0  0  0
 28 85  1  0  0  0  0
 29 66  2  0  0  0  0
 30 59  1  0  0  0  0
 30 67  1  0  0  0  0
 31 60  1  0  0  0  0
 31 67  2  0  0  0  0
 32 68  1  0  0  0  0
 32 71  1  0  0  0  0
 33 72  1  0  0  0  0
 33 77  2  0  0  0  0
 34 48  1  0  0  0  0
 34 73  1  0  0  0  0
 34 78  2  0  0  0  0
 35 63  1  0  0  0  0
 35 69  1  0  0  0  0
 35 79  2  0  0  0  0
 36 64  1  0  0  0  0
 36 74  1  0  0  0  0
 36 80  2  0  0  0  0
 37 70  1  0  0  0  0
 37 75  1  0  0  0  0
 37 81  2  0  0  0  0
 38 41  1  0  0  0  0
 39 48  1  0  0  0  0
 40 69  1  0  0  0  0
 41 43  1  0  0  0  0
 42 44  1  0  0  0  0
 42 45  1  0  0  0  0
 43 47  1  0  0  0  0
 44 49  1  0  0  0  0
 45 70  1  0  0  0  0
 46 49  1  0  0  0  0
 46 70  1  0  0  0  0
 47 73  1  0  0  0  0
 48 69  1  0  0  0  0
 49 68  1  0  0  0  0
 50 59  1  0  0  0  0
 51 62  1  0  0  0  0
 52 62  1  0  0  0  0
 53 64  1  0  0  0  0
 54 65  1  0  0  0  0
 55 65  1  0  0  0  0
 56 65  1  0  0  0  0
 57 76  1  0  0  0  0
 58 75  1  0  0  0  0
 60 61  1  0  0  0  0
 61 83  1  0  0  0  0
 63 65  1  0  0  0  0
 63 74  1  0  0  0  0
 64 76  1  0  0  0  0
 66 68  1  0  0  0  0
M  CHG  1  76   1
M  ISO  4  37 100  61 101  75 100  83 101
M  END
> <Batch ID>
0046

> <Smiles>
CCc1nc(C[101CH2:1][101O:1]c2ccc3c(c2)CN(C(=O)C(NC(=O)C(C)NC)C(C)(C)C)C(C(=O)NC2CCCc4ccccc42)C3)c(C(C)C)cc1C[100NH:0][100C:0](=O)N1CCCC(n2nc(-c3ccc(Oc4ccc(F)cc4F)cc3)c(C(N)=O)c2N)C1

> <Shape>
0.219

> <Color>
0.207

> <Negative vol penalty>
0.000

$$$$

  -OEChem-04052317213D

 84 92  0     1  0  0  0  0  0999 V2000
  -34.2111  -27.5036   28.2482 C   0  0  0  0  0  0  0  0  0  0  0  0
  -33.8170  -27.0128   27.0075 C   0  0  0  0  0  0  0  0  0  0  0  0
  -23.1274   -9.8687   19.9432 C   0  0  0  0  0  0  0  0  0  0  0  0
  -23.8909   -9.9000   22.2352 C   0  0  0  0  0  0  0  0  0  0  0  0
  -35.4011  -27.0621   28.8252 C   0  0  0  0  0  0  0  0  0  0  0  0
  -34.6133  -26.0810   26.3427 C   0  0  0  0  0  0  0  0  0  0  0  0
  -31.9185  -22.2626   24.3924 C   0  0  0  0  0  0  0  0  0  0  0  0
  -22.4092   -8.7005   20.1984 C   0  0  0  0  0  0  0  0  0  0  0  0
  -23.1726   -8.7318   22.4904 C   0  0  0  0  0  0  0  0  0  0  0  0
  -31.2300  -22.5102   23.2057 C   0  0  0  0  0  0  0  0  0  0  0  0
  -19.4814   -7.8451   21.6576 C   0  0  0  0  0  0  0  0  0  0  0  0
  -18.1750   -7.7689   21.1749 C   0  0  0  0  0  0  0  0  0  0  0  0
  -32.9860  -21.4157   21.9656 C   0  0  0  0  0  0  0  0  0  0  0  0
  -18.7745   -5.8339   19.8582 C   0  0  0  0  0  0  0  0  0  0  0  0
  -23.8683  -10.4684   20.9616 C   0  0  0  0  0  0  0  0  0  0  0  0
  -24.1551  -13.0000   20.8324 C   0  0  0  0  0  0  0  0  0  0  0  0
  -36.2075  -26.1171   28.1716 C   0  0  0  0  0  0  0  0  0  0  0  0
  -33.1533  -21.5982   24.3736 C   0  0  0  0  0  0  0  0  0  0  0  0
  -35.8158  -25.6274   26.9109 C   0  0  0  0  0  0  0  0  0  0  0  0
  -33.6869  -21.1586   23.1538 C   0  0  0  0  0  0  0  0  0  0  0  0
  -22.4318   -8.1321   21.4720 C   0  0  0  0  0  0  0  0  0  0  0  0
  -31.7651  -22.0893   21.9918 C   0  0  0  0  0  0  0  0  0  0  0  0
  -20.4344   -6.9158   21.2407 C   0  0  0  0  0  0  0  0  0  0  0  0
  -17.8216   -6.7632   20.2752 C   0  0  0  0  0  0  0  0  0  0  0  0
  -20.0810   -5.9102   20.3410 C   0  0  0  0  0  0  0  0  0  0  0  0
  -24.6109  -11.6748   20.6985 C   0  0  0  0  0  0  0  0  0  0  0  0
  -25.2301  -13.7717   20.4647 C   0  0  0  0  0  0  0  0  0  0  0  0
  -22.8744  -13.4895   21.2519 C   0  0  0  0  0  0  0  0  0  0  0  0
  -36.1222  -22.3574   25.2179 C   0  0  0  0  0  0  0  0  0  0  0  0
  -36.7010  -19.2424   24.5221 C   0  0  0  0  0  0  0  0  0  0  0  0
  -35.7793  -16.4359   22.8131 C   0  0  0  0  0  0  0  0  0  0  0  0
  -30.8251  -14.5886   21.0879 C   0  0  0  0  0  0  0  0  0  0  0  0
  -37.5088  -25.7053   28.8133 C   0  0  0  0  0  0  0  0  0  0  0  0
  -33.8706  -21.3151   25.6650 C   0  0  0  0  0  0  0  0  0  0  0  0
  -34.9994  -20.4232   23.0814 C   0  0  0  0  0  0  0  0  0  0  0  0
  -38.1080  -24.4353   28.2147 C   0  0  0  0  0  0  0  0  0  0  0  0
  -29.5978  -12.5304   18.2598 C   0  0  0  0  0  0  0  0  0  0  0  0
  -38.0791  -24.4982   26.6909 C   0  0  0  0  0  0  0  0  0  0  0  0
  -28.1788  -12.1762   18.7008 C   0  0  0  0  0  0  0  0  0  0  0  0
  -31.6069  -17.9634   21.2792 C   0  0  0  0  0  0  0  0  0  0  0  0
  -29.4805  -17.6412   19.9538 C   0  0  0  0  0  0  0  0  0  0  0  0
  -30.5196  -12.7658   19.4522 C   0  0  0  0  0  0  0  0  0  0  0  0
  -31.1950  -16.7891   22.1632 C   0  0  0  0  0  0  0  0  0  0  0  0
  -29.1225  -16.4524   20.8505 C   0  0  0  0  0  0  0  0  0  0  0  0
  -28.5921  -13.4326   20.8531 C   0  0  0  0  0  0  0  0  0  0  0  0
  -36.6402  -24.5971   26.1700 C   0  0  1  0  0  0  0  0  0  0  0  0
  -35.3672  -21.0849   25.4792 C   0  0  1  0  0  0  0  0  0  0  0  0
  -27.6281  -13.2328   19.6739 C   0  0  2  0  0  0  0  0  0  0  0  0
  -30.3696  -18.6395   20.6921 C   0  0  0  0  0  0  0  0  0  0  0  0
  -32.6118  -19.6664   16.3732 C   0  0  0  0  0  0  0  0  0  0  0  0
  -35.8096  -14.0313   22.0958 C   0  0  0  0  0  0  0  0  0  0  0  0
  -28.3997  -20.0628   19.4226 C   0  0  0  0  0  0  0  0  0  0  0  0
  -28.7659  -22.8925   20.5815 C   0  0  0  0  0  0  0  0  0  0  0  0
  -38.9304  -20.1997   22.6719 C   0  0  0  0  0  0  0  0  0  0  0  0
  -38.9331  -17.9300   21.6153 C   0  0  0  0  0  0  0  0  0  0  0  0
  -39.4988  -18.1794   24.0320 C   0  0  0  0  0  0  0  0  0  0  0  0
  -33.9420  -15.6418   24.9932 C   0  0  0  0  0  0  0  0  0  0  0  0
  -32.1531  -20.1641   17.7343 C   0  0  0  0  0  0  0  0  0  0  0  0
  -31.2640  -19.1410   18.4230 C   0  0  0  0  0  0  0  0  0  0  0  0
  -37.1032  -18.4808   23.2823 C   0  0  1  0  0  0  0  0  0  0  0  0
  -35.6173  -14.9935   23.2577 C   0  0  2  0  0  0  0  0  0  0  0  0
  -29.7480  -20.7634   19.5500 C   0  0  1  0  0  0  0  0  0  0  0  0
  -29.7869  -21.7675   20.7114 C   0  0  1  0  0  0  0  0  0  1  0  0
  -38.5926  -18.7130   22.9012 C   0  0  0  0  0  0  0  0  0  0  0  0
  -25.8769  -11.6050   20.2783 N   0  0  0  0  0  0  0  0  0  0  0  0
  -26.2256  -12.8960   20.1449 N   0  0  0  0  0  0  0  0  0  0  0  0
  -35.6659  -20.1759   24.3707 N   0  0  0  0  0  0  0  0  0  0  0  0
  -29.9534  -13.7384   20.3870 N   0  0  0  0  0  0  0  0  0  0  0  0
  -30.3334  -15.8563   21.4342 N   0  0  0  0  0  0  0  0  0  0  0  0
  -25.4114  -15.1072   20.3868 N   0  0  0  0  0  0  0  0  0  0  0  0
  -21.8830  -12.5598   21.5940 N   0  0  0  0  0  0  0  0  0  0  0  0
  -35.9952  -23.3024   26.2181 N   0  0  0  0  0  0  0  0  0  0  0  0
  -36.7609  -17.0847   23.5319 N   0  0  0  0  0  0  0  0  0  0  0  0
  -34.2574  -14.7766   23.8274 N   0  3  0  0  0  0  0  0  0  0  0  0
  -30.7998  -19.7001   19.7447 N   0  3  1  0  0  0  0  0  0  0  0  0
  -22.6116  -14.7149   21.3054 O   0  0  0  0  0  0  0  0  0  0  0  0
  -36.7730  -22.4728   24.1860 O   0  0  0  0  0  0  0  0  0  0  0  0
  -37.2789  -19.0123   25.5873 O   0  0  0  0  0  0  0  0  0  0  0  0
  -35.1052  -16.9359   21.9153 O   0  0  0  0  0  0  0  0  0  0  0  0
  -31.9736  -14.2357   21.3836 O   0  0  0  0  0  0  0  0  0  0  0  0
  -21.7308   -6.9924   21.7215 O   0  0  0  0  0  0  0  0  0  0  0  0
  -31.0917  -22.3316   20.8253 O   0  0  0  0  0  0  0  0  0  1  0  0
  -16.5666   -6.6892   19.8129 F   0  0  0  0  0  0  0  0  0  0  0  0
  -20.9919   -5.0138   19.9377 F   0  0  0  0  0  0  0  0  0  0  0  0
  1  2  1  0  0  0  0
  1  5  2  0  0  0  0
  2  6  2  0  0  0  0
  3  8  2  0  0  0  0
  3 15  1  0  0  0  0
  4  9  1  0  0  0  0
  4 15  2  0  0  0  0
  5 17  1  0  0  0  0
  6 19  1  0  0  0  0
  7 10  2  0  0  0  0
  7 18  1  0  0  0  0
  8 21  1  0  0  0  0
  9 21  2  0  0  0  0
 10 22  1  0  0  0  0
 11 12  2  0  0  0  0
 11 23  1  0  0  0  0
 12 24  1  0  0  0  0
 13 20  1  0  0  0  0
 13 22  2  0  0  0  0
 14 24  2  0  0  0  0
 14 25  1  0  0  0  0
 15 26  1  0  0  0  0
 16 26  1  0  0  0  0
 16 27  2  0  0  0  0
 16 28  1  0  0  0  0
 17 19  2  0  0  0  0
 17 33  1  0  0  0  0
 18 20  2  0  0  0  0
 18 34  1  0  0  0  0
 19 46  1  0  0  0  0
 20 35  1  0  0  0  0
 21 81  1  0  0  0  0
 22 82  1  0  0  0  0
 23 25  2  0  0  0  0
 23 81  1  0  0  0  0
 24 83  1  0  0  0  0
 25 84  1  0  0  0  0
 26 65  2  0  0  0  0
 27 66  1  0  0  0  0
 27 70  1  0  0  0  0
 28 71  1  0  0  0  0
 28 76  2  0  0  0  0
 29 47  1  0  0  0  0
 29 72  1  0  0  0  0
 29 77  2  0  0  0  0
 30 60  1  0  0  0  0
 30 67  1  0  0  0  0
 30 78  2  0  0  0  0
 31 61  1  0  0  0  0
 31 73  1  0  0  0  0
 31 79  2  0  0  0  0
 32 68  1  0  0  0  0
 32 69  1  0  0  0  0
 32 80  2  0  0  0  0
 33 36  1  0  0  0  0
 34 47  1  0  0  0  0
 35 67  1  0  0  0  0
 36 38  1  0  0  0  0
 37 39  1  0  0  0  0
 37 42  1  0  0  0  0
 38 46  1  0  0  0  0
 39 48  1  0  0  0  0
 40 43  1  0  0  0  0
 40 49  1  0  0  0  0
 41 44  1  0  0  0  0
 41 49  1  0  0  0  0
 42 68  1  0  0  0  0
 43 69  1  0  0  0  0
 44 69  1  0  0  0  0
 45 48  1  0  0  0  0
 45 68  1  0  0  0  0
 46 72  1  0  0  0  0
 47 67  1  0  0  0  0
 48 66  1  0  0  0  0
 49 75  1  0  0  0  0
 50 58  1  0  0  0  0
 51 61  1  0  0  0  0
 52 62  1  0  0  0  0
 53 63  1  0  0  0  0
 54 64  1  0  0  0  0
 55 64  1  0  0  0  0
 56 64  1  0  0  0  0
 57 74  1  0  0  0  0
 58 59  1  0  0  0  0
 59 75  1  0  0  0  0
 60 64  1  0  0  0  0
 60 73  1  0  0  0  0
 61 74  1  0  0  0  0
 62 63  1  0  0  0  0
 62 75  1  0  0  0  0
 63 82  1  0  0  0  0
 65 66  1  0  0  0  0
M  CHG  2  74   1  75   1
M  ISO  4  32 100  63 101  69 100  82 101
M  END
> <Batch ID>
0046

> <Smiles>
CCCN(C1CC[100N:0]([100C:0](=O)N2CCCC(n3nc(-c4ccc(Oc5ccc(F)cc5F)cc4)c(C(N)=O)c3N)C2)CC1)C(C)[101CH:1](C)[101O:1]c1ccc2c(c1)CN(C(=O)C(NC(=O)C(C)NC)C(C)(C)C)C(C(=O)NC1CCCc3ccccc31)C2

> <Shape>
0.189

> <Color>
0.172

> <Negative vol penalty>
0.000

$$$$

  -OEChem-04052317213D

 83 91  0     1  0  0  0  0  0999 V2000
  -17.2723  -24.8820   19.6599 C   0  0  0  0  0  0  0  0  0  0  0  0
  -17.7354  -23.5837   19.4716 C   0  0  0  0  0  0  0  0  0  0  0  0
  -28.0441  -23.7034   20.7082 C   0  0  0  0  0  0  0  0  0  0  0  0
  -27.2686  -22.7523   18.6271 C   0  0  0  0  0  0  0  0  0  0  0  0
  -17.9653  -25.7532   20.4993 C   0  0  0  0  0  0  0  0  0  0  0  0
  -18.8925  -23.1563   20.1219 C   0  0  0  0  0  0  0  0  0  0  0  0
  -20.0437  -17.5403   22.2762 C   0  0  0  0  0  0  0  0  0  0  0  0
  -27.8849  -24.9852   20.1817 C   0  0  0  0  0  0  0  0  0  0  0  0
  -27.1094  -24.0341   18.1006 C   0  0  0  0  0  0  0  0  0  0  0  0
  -20.7663  -16.4667   21.7577 C   0  0  0  0  0  0  0  0  0  0  0  0
  -25.3487  -27.1491   19.6176 C   0  0  0  0  0  0  0  0  0  0  0  0
  -24.7320  -28.1080   20.4213 C   0  0  0  0  0  0  0  0  0  0  0  0
  -22.6933  -17.1543   23.0356 C   0  0  0  0  0  0  0  0  0  0  0  0
  -26.7203  -29.4764   20.3142 C   0  0  0  0  0  0  0  0  0  0  0  0
  -24.4344  -12.6337   21.7911 C   0  0  0  0  0  0  0  0  0  0  0  0
  -27.7360  -22.5869   19.9308 C   0  0  0  0  0  0  0  0  0  0  0  0
  -26.9432  -20.5065   21.1761 C   0  0  0  0  0  0  0  0  0  0  0  0
  -19.1261  -25.3332   21.1677 C   0  0  0  0  0  0  0  0  0  0  0  0
  -20.6448  -18.4368   23.1714 C   0  0  0  0  0  0  0  0  0  0  0  0
  -19.6024  -24.0231   20.9700 C   0  0  0  0  0  0  0  0  0  0  0  0
  -21.9754  -18.2371   23.5660 C   0  0  0  0  0  0  0  0  0  0  0  0
  -27.4175  -25.1506   18.8779 C   0  0  0  0  0  0  0  0  0  0  0  0
  -22.0922  -16.2752   22.1351 C   0  0  0  0  0  0  0  0  0  0  0  0
  -26.6512  -27.3538   19.1623 C   0  0  0  0  0  0  0  0  0  0  0  0
  -25.4178  -29.2716   20.7695 C   0  0  0  0  0  0  0  0  0  0  0  0
  -27.3370  -28.5174   19.5106 C   0  0  0  0  0  0  0  0  0  0  0  0
  -27.9008  -21.2625   20.4740 C   0  0  0  0  0  0  0  0  0  0  0  0
  -25.0438  -11.6027   21.1054 C   0  0  0  0  0  0  0  0  0  0  0  0
  -24.7679  -13.9065   21.3753 C   0  0  0  0  0  0  0  0  0  0  0  0
  -27.5858  -19.3296   21.4736 C   0  0  0  0  0  0  0  0  0  0  0  0
  -26.1566  -13.0756   19.7789 C   0  0  0  0  0  0  0  0  0  0  0  0
  -25.5935  -20.8383   21.5280 C   0  0  0  0  0  0  0  0  0  0  0  0
  -21.2885  -21.5494   23.1357 C   0  0  0  0  0  0  0  0  0  0  0  0
  -22.1961  -21.0003   26.2012 C   0  0  0  0  0  0  0  0  0  0  0  0
  -23.2915  -18.7733   28.5438 C   0  0  0  0  0  0  0  0  0  0  0  0
  -30.8639  -15.0642   19.9882 C   0  0  0  0  0  0  0  0  0  0  0  0
  -19.8676  -26.3255   22.0280 C   0  0  0  0  0  0  0  0  0  0  0  0
  -19.8435  -19.5745   23.7424 C   0  0  0  0  0  0  0  0  0  0  0  0
  -22.6607  -19.1594   24.5397 C   0  0  0  0  0  0  0  0  0  0  0  0
  -20.8763  -25.6780   22.9733 C   0  0  0  0  0  0  0  0  0  0  0  0
  -32.4641  -18.0514   21.0802 C   0  0  0  0  0  0  0  0  0  0  0  0
  -21.7169  -24.6444   22.2304 C   0  0  0  0  0  0  0  0  0  0  0  0
  -31.3424  -19.0914   21.0716 C   0  0  0  0  0  0  0  0  0  0  0  0
  -32.3260  -17.0629   19.9245 C   0  0  0  0  0  0  0  0  0  0  0  0
  -29.8919  -17.4360   19.8249 C   0  0  0  0  0  0  0  0  0  0  0  0
  -20.8399  -23.5146   21.6772 C   0  0  1  0  0  0  0  0  0  0  0  0
  -20.7121  -20.7217   24.2494 C   0  0  1  0  0  0  0  0  0  0  0  0
  -29.9569  -18.4213   21.0044 C   0  0  2  0  0  0  0  0  0  0  0  0
  -25.6990   -9.6612   22.5504 C   0  0  0  0  0  0  0  0  0  0  0  0
  -23.9824  -18.6274   30.9518 C   0  0  0  0  0  0  0  0  0  0  0  0
  -24.8700  -22.2976   25.5100 C   0  0  0  0  0  0  0  0  0  0  0  0
  -25.8198  -21.2874   27.5946 C   0  0  0  0  0  0  0  0  0  0  0  0
  -23.9502  -22.9318   27.7475 C   0  0  0  0  0  0  0  0  0  0  0  0
  -21.1203  -16.8626   29.1715 C   0  0  0  0  0  0  0  0  0  0  0  0
  -24.7449  -10.1906   21.4831 C   0  0  0  0  0  0  0  0  0  0  0  0
  -24.1540  -15.0922   22.0598 C   0  0  0  0  0  0  0  0  0  1  0  0
  -27.1101  -13.3217   18.6591 C   0  0  0  0  0  0  0  0  0  0  0  0
  -28.4921  -12.6635   18.8414 C   0  0  0  0  0  0  0  0  0  0  0  0
  -29.2705  -13.1627   20.0568 C   0  0  0  0  0  0  0  0  0  0  0  0
  -23.4848  -20.6031   26.8798 C   0  0  1  0  0  0  0  0  0  0  0  0
  -22.8328  -18.4987   29.9646 C   0  0  2  0  0  0  0  0  0  0  0  0
  -24.5192  -21.7635   26.9131 C   0  0  0  0  0  0  0  0  0  0  0  0
  -29.0634  -20.6200   20.3338 N   0  0  0  0  0  0  0  0  0  0  0  0
  -25.9132  -11.7883   20.0905 N   0  0  0  0  0  0  0  0  0  0  0  0
  -25.6286  -14.1650   20.3690 N   0  0  0  0  0  0  0  0  0  0  0  0
  -28.8405  -19.4478   20.9522 N   0  0  0  0  0  0  0  0  0  0  0  0
  -21.8373  -20.2608   25.0653 N   0  0  0  0  0  0  0  0  0  0  0  0
  -30.9903  -16.4614   19.9184 N   0  0  0  0  0  0  0  0  0  0  0  0
  -27.1943  -18.2155   22.1279 N   0  0  0  0  0  0  0  0  0  0  0  0
  -25.0912  -22.0892   21.1443 N   0  0  0  0  0  0  0  0  0  0  0  0
  -20.4776  -22.5931   22.7326 N   0  0  0  0  0  0  0  0  0  0  0  0
  -23.1134  -20.0957   28.1962 N   0  0  0  0  0  0  0  0  0  0  0  0
  -29.5626  -14.5770   19.9836 N   0  0  0  0  0  0  0  0  0  0  0  0
  -22.2737  -17.1214   30.0713 N   0  3  0  0  0  0  0  0  0  0  0  0
  -24.8600  -20.0554   22.1781 O   0  0  0  0  0  0  0  0  0  0  0  0
  -22.3883  -21.2632   22.6772 O   0  0  0  0  0  0  0  0  0  0  0  0
  -21.5288  -21.9277   26.6661 O   0  0  0  0  0  0  0  0  0  0  0  0
  -23.7641  -17.9027   27.8163 O   0  0  0  0  0  0  0  0  0  0  0  0
  -31.8383  -14.3074   20.0556 O   0  0  0  0  0  0  0  0  0  0  0  0
  -27.2618  -26.4012   18.3639 O   0  0  0  0  0  0  0  0  0  0  0  0
  -22.8001  -15.2284   21.6300 O   0  0  0  0  0  0  0  0  0  1  0  0
  -24.8250  -30.1931   21.5400 F   0  0  0  0  0  0  0  0  0  0  0  0
  -28.5881  -28.7202   19.0752 F   0  0  0  0  0  0  0  0  0  0  0  0
  1  2  1  0  0  0  0
  1  5  2  0  0  0  0
  2  6  2  0  0  0  0
  3  8  2  0  0  0  0
  3 16  1  0  0  0  0
  4  9  1  0  0  0  0
  4 16  2  0  0  0  0
  5 18  1  0  0  0  0
  6 20  1  0  0  0  0
  7 10  2  0  0  0  0
  7 19  1  0  0  0  0
  8 22  1  0  0  0  0
  9 22  2  0  0  0  0
 10 23  1  0  0  0  0
 11 12  2  0  0  0  0
 11 24  1  0  0  0  0
 12 25  1  0  0  0  0
 13 21  1  0  0  0  0
 13 23  2  0  0  0  0
 14 25  2  0  0  0  0
 14 26  1  0  0  0  0
 15 28  1  0  0  0  0
 15 29  2  0  0  0  0
 16 27  1  0  0  0  0
 17 27  1  0  0  0  0
 17 30  2  0  0  0  0
 17 32  1  0  0  0  0
 18 20  2  0  0  0  0
 18 37  1  0  0  0  0
 19 21  2  0  0  0  0
 19 38  1  0  0  0  0
 20 46  1  0  0  0  0
 21 39  1  0  0  0  0
 22 80  1  0  0  0  0
 23 81  1  0  0  0  0
 24 26  2  0  0  0  0
 24 80  1  0  0  0  0
 25 82  1  0  0  0  0
 26 83  1  0  0  0  0
 27 63  2  0  0  0  0
 28 55  1  0  0  0  0
 28 64  2  0  0  0  0
 29 56  1  0  0  0  0
 29 65  1  0  0  0  0
 30 66  1  0  0  0  0
 30 69  1  0  0  0  0
 31 57  1  0  0  0  0
 31 64  1  0  0  0  0
 31 65  2  0  0  0  0
 32 70  1  0  0  0  0
 32 75  2  0  0  0  0
 33 47  1  0  0  0  0
 33 71  1  0  0  0  0
 33 76  2  0  0  0  0
 34 60  1  0  0  0  0
 34 67  1  0  0  0  0
 34 77  2  0  0  0  0
 35 61  1  0  0  0  0
 35 72  1  0  0  0  0
 35 78  2  0  0  0  0
 36 68  1  0  0  0  0
 36 73  1  0  0  0  0
 36 79  2  0  0  0  0
 37 40  1  0  0  0  0
 38 47  1  0  0  0  0
 39 67  1  0  0  0  0
 40 42  1  0  0  0  0
 41 43  1  0  0  0  0
 41 44  1  0  0  0  0
 42 46  1  0  0  0  0
 43 48  1  0  0  0  0
 44 68  1  0  0  0  0
 45 48  1  0  0  0  0
 45 68  1  0  0  0  0
 46 71  1  0  0  0  0
 47 67  1  0  0  0  0
 48 66  1  0  0  0  0
 49 55  1  0  0  0  0
 50 61  1  0  0  0  0
 51 62  1  0  0  0  0
 52 62  1  0  0  0  0
 53 62  1  0  0  0  0
 54 74  1  0  0  0  0
 56 81  1  0  0  0  0
 57 58  1  0  0  0  0
 58 59  1  0  0  0  0
 59 73  1  0  0  0  0
 60 62  1  0  0  0  0
 60 72  1  0  0  0  0
 61 74  1  0  0  0  0
 63 66  1  0  0  0  0
M  CHG  1  74   1
M  ISO  4  36 100  56 101  73 100  81 101
M  END
> <Batch ID>
0046

> <Smiles>
CCc1cc([101CH2:1][101O:1]c2ccc3c(c2)CN(C(=O)C(NC(=O)C(C)NC)C(C)(C)C)C(C(=O)NC2CCCc4ccccc42)C3)nc(CCC[100NH:0][100C:0](=O)N2CCCC(n3nc(-c4ccc(Oc5ccc(F)cc5F)cc4)c(C(N)=O)c3N)C2)n1

> <Shape>
0.182

> <Color>
0.094

> <Negative vol penalty>
0.000

$$$$

  -OEChem-04052317213D

 87 95  0     1  0  0  0  0  0999 V2000
  -22.1952   -8.2689   20.7195 C   0  0  0  0  0  0  0  0  0  0  0  0
  -22.3624   -9.4333   19.9786 C   0  0  0  0  0  0  0  0  0  0  0  0
  -22.7262  -26.2947   19.3145 C   0  0  0  0  0  0  0  0  0  0  0  0
  -22.9979  -26.1359   21.7099 C   0  0  0  0  0  0  0  0  0  0  0  0
  -22.8848   -8.1054   21.9190 C   0  0  0  0  0  0  0  0  0  0  0  0
  -23.2283  -10.4296   20.4309 C   0  0  0  0  0  0  0  0  0  0  0  0
  -24.4237  -15.9625   18.1758 C   0  0  0  0  0  0  0  0  0  0  0  0
  -21.3477  -26.4285   19.4797 C   0  0  0  0  0  0  0  0  0  0  0  0
  -21.6193  -26.2697   21.8751 C   0  0  0  0  0  0  0  0  0  0  0  0
  -23.9513  -17.2641   18.3384 C   0  0  0  0  0  0  0  0  0  0  0  0
  -19.3398  -28.7645   21.8495 C   0  0  0  0  0  0  0  0  0  0  0  0
  -18.8890  -29.6378   22.8393 C   0  0  0  0  0  0  0  0  0  0  0  0
  -25.7377  -17.7114   19.8966 C   0  0  0  0  0  0  0  0  0  0  0  0
  -17.7588  -27.8075   23.9393 C   0  0  0  0  0  0  0  0  0  0  0  0
  -21.0019  -21.1628   20.9211 C   0  0  0  0  0  0  0  0  0  0  0  0
  -23.5514  -26.1484   20.4296 C   0  0  0  0  0  0  0  0  0  0  0  0
  -25.9314  -27.0421   20.2199 C   0  0  0  0  0  0  0  0  0  0  0  0
  -23.7498   -9.1060   22.3918 C   0  0  0  0  0  0  0  0  0  0  0  0
  -25.5521  -15.5214   18.8819 C   0  0  0  0  0  0  0  0  0  0  0  0
  -23.9516  -10.2730   21.6272 C   0  0  0  0  0  0  0  0  0  0  0  0
  -26.2239  -16.4045   19.7393 C   0  0  0  0  0  0  0  0  0  0  0  0
  -20.7942  -26.4160   20.7600 C   0  0  0  0  0  0  0  0  0  0  0  0
  -24.6066  -18.1379   19.2011 C   0  0  0  0  0  0  0  0  0  0  0  0
  -19.0001  -27.4127   21.9045 C   0  0  0  0  0  0  0  0  0  0  0  0
  -18.0985  -29.1593   23.8842 C   0  0  0  0  0  0  0  0  0  0  0  0
  -18.2096  -26.9342   22.9495 C   0  0  0  0  0  0  0  0  0  0  0  0
  -24.9754  -26.0096   20.2596 C   0  0  0  0  0  0  0  0  0  0  0  0
  -22.2785  -21.3635   20.4441 C   0  0  0  0  0  0  0  0  0  0  0  0
  -21.7185  -21.6395   23.0397 C   0  0  0  0  0  0  0  0  0  0  0  0
  -22.9953  -21.8396   22.5629 C   0  0  0  0  0  0  0  0  0  0  0  0
  -27.1294  -26.3942   20.0419 C   0  0  0  0  0  0  0  0  0  0  0  0
  -25.7527  -28.4601   20.3337 C   0  0  0  0  0  0  0  0  0  0  0  0
  -26.1023  -13.2555   21.0421 C   0  0  0  0  0  0  0  0  0  0  0  0
  -29.1901  -14.1625   20.6359 C   0  0  0  0  0  0  0  0  0  0  0  0
  -31.3970  -16.5921   19.7012 C   0  0  0  0  0  0  0  0  0  0  0  0
  -28.5364  -20.5713   21.3274 C   0  0  0  0  0  0  0  0  0  0  0  0
  -24.4772   -8.8737   23.6927 C   0  0  0  0  0  0  0  0  0  0  0  0
  -26.0648  -14.1226   18.6751 C   0  0  0  0  0  0  0  0  0  0  0  0
  -27.4516  -15.9863   20.5050 C   0  0  0  0  0  0  0  0  0  0  0  0
  -25.0222  -10.1590   24.3068 C   0  0  0  0  0  0  0  0  0  0  0  0
  -29.0099  -22.4253   18.1587 C   0  0  0  0  0  0  0  0  0  0  0  0
  -25.7901  -10.9508   23.2591 C   0  0  0  0  0  0  0  0  0  0  0  0
  -28.0505  -23.6038   18.3158 C   0  0  0  0  0  0  0  0  0  0  0  0
  -28.5398  -21.2030   18.9415 C   0  0  0  0  0  0  0  0  0  0  0  0
  -27.3301  -22.6496   20.5409 C   0  0  0  0  0  0  0  0  0  0  0  0
  -24.8647  -11.3834   22.1147 C   0  0  1  0  0  0  0  0  0  0  0  0
  -26.9193  -13.6218   19.8355 C   0  0  1  0  0  0  0  0  0  0  0  0
  -27.7989  -23.9121   19.8021 C   0  0  2  0  0  0  0  0  0  0  0  0
  -21.3967  -21.7912   24.4872 C   0  0  0  0  0  0  0  0  0  0  0  0
  -30.2684  -19.0790   25.3545 C   0  0  0  0  0  0  0  0  0  0  0  0
  -33.8567  -17.0528   19.5141 C   0  0  0  0  0  0  0  0  0  0  0  0
  -29.3486  -14.5321   23.6605 C   0  0  0  0  0  0  0  0  0  0  0  0
  -31.4405  -15.8642   23.3181 C   0  0  0  0  0  0  0  0  0  0  0  0
  -31.3643  -13.4669   22.6326 C   0  0  0  0  0  0  0  0  0  0  0  0
  -31.2139  -17.0115   16.7773 C   0  0  0  0  0  0  0  0  0  0  0  0
  -22.5804  -21.2049   18.9737 C   0  0  0  0  0  0  0  0  0  0  0  0
  -24.1142  -22.2170   23.4724 C   0  0  0  0  0  0  0  0  0  0  0  0
  -29.9641  -20.0960   24.2633 C   0  0  0  0  0  0  0  0  0  0  0  0
  -25.4870  -22.0812   22.7945 C   0  0  0  0  0  0  0  0  0  0  0  0
  -26.6297  -22.4356   23.7507 C   0  0  0  0  0  0  0  0  0  0  0  0
  -28.5466  -19.9689   23.7183 C   0  0  0  0  0  0  0  0  0  0  0  0
  -28.0026  -22.2947   23.1015 C   0  0  0  0  0  0  0  0  0  0  0  0
  -22.9888  -19.7800   18.6161 C   0  0  0  0  0  0  0  0  0  1  0  0
  -30.0974  -15.1845   21.2773 C   0  0  1  0  0  0  0  0  0  0  0  0
  -32.6138  -16.5528   18.7944 C   0  0  2  0  0  0  0  0  0  0  0  0
  -30.5385  -14.7695   22.7093 C   0  0  0  0  0  0  0  0  0  0  0  0
  -20.6989  -21.2972   22.2275 N   0  0  0  0  0  0  0  0  0  0  0  0
  -25.5191  -24.7978   20.1182 N   0  0  0  0  0  0  0  0  0  0  0  0
  -23.2981  -21.7055   21.2565 N   0  0  0  0  0  0  0  0  0  0  0  0
  -26.8297  -25.0648   19.9877 N   0  0  0  0  0  0  0  0  0  0  0  0
  -27.9104  -14.6066   20.2738 N   0  0  0  0  0  0  0  0  0  0  0  0
  -28.2667  -21.5337   20.3405 N   0  0  0  0  0  0  0  0  0  0  0  0
  -28.3993  -26.8377   19.9280 N   0  0  0  0  0  0  0  0  0  0  0  0
  -24.4547  -28.9576   20.5131 N   0  0  0  0  0  0  0  0  0  0  0  0
  -25.6638  -11.9451   21.0481 N   0  0  0  0  0  0  0  0  0  0  0  0
  -31.2028  -15.3897   20.3475 N   0  0  0  0  0  0  0  0  0  0  0  0
  -28.2724  -20.9287   22.6583 N   0  0  0  0  0  0  0  0  0  0  0  0
  -32.3917  -17.4055   17.5924 N   0  3  0  0  0  0  0  0  0  0  0  0
  -26.7135  -29.2633   20.2615 O   0  0  0  0  0  0  0  0  0  0  0  0
  -25.8869  -14.0989   21.9047 O   0  0  0  0  0  0  0  0  0  0  0  0
  -29.6041  -13.0146   20.4560 O   0  0  0  0  0  0  0  0  0  0  0  0
  -30.6918  -17.5908   19.8268 O   0  0  0  0  0  0  0  0  0  0  0  0
  -28.9965  -19.4598   21.0364 O   0  0  0  0  0  0  0  0  0  0  0  0
  -19.4491  -26.5468   20.9215 O   0  0  0  0  0  0  0  0  0  0  0  0
  -24.1472  -19.4087   19.3621 O   0  0  0  0  0  0  0  0  0  1  0  0
  -17.6670  -29.9977   24.8355 F   0  0  0  0  0  0  0  0  0  0  0  0
  -17.8810  -25.6364   23.0084 F   0  0  0  0  0  0  0  0  0  0  0  0
  1  2  1  0  0  0  0
  1  5  2  0  0  0  0
  2  6  2  0  0  0  0
  3  8  2  0  0  0  0
  3 16  1  0  0  0  0
  4  9  1  0  0  0  0
  4 16  2  0  0  0  0
  5 18  1  0  0  0  0
  6 20  1  0  0  0  0
  7 10  2  0  0  0  0
  7 19  1  0  0  0  0
  8 22  1  0  0  0  0
  9 22  2  0  0  0  0
 10 23  1  0  0  0  0
 11 12  2  0  0  0  0
 11 24  1  0  0  0  0
 12 25  1  0  0  0  0
 13 21  1  0  0  0  0
 13 23  2  0  0  0  0
 14 25  2  0  0  0  0
 14 26  1  0  0  0  0
 15 28  1  0  0  0  0
 15 67  2  0  0  0  0
 16 27  1  0  0  0  0
 17 27  1  0  0  0  0
 17 31  2  0  0  0  0
 17 32  1  0  0  0  0
 18 20  2  0  0  0  0
 18 37  1  0  0  0  0
 19 21  2  0  0  0  0
 19 38  1  0  0  0  0
 20 46  1  0  0  0  0
 21 39  1  0  0  0  0
 22 84  1  0  0  0  0
 23 85  1  0  0  0  0
 24 26  2  0  0  0  0
 24 84  1  0  0  0  0
 25 86  1  0  0  0  0
 26 87  1  0  0  0  0
 27 68  2  0  0  0  0
 28 56  1  0  0  0  0
 28 69  2  0  0  0  0
 29 30  2  0  0  0  0
 29 49  1  0  0  0  0
 29 67  1  0  0  0  0
 30 57  1  0  0  0  0
 30 69  1  0  0  0  0
 31 70  1  0  0  0  0
 31 73  1  0  0  0  0
 32 74  1  0  0  0  0
 32 79  2  0  0  0  0
 33 47  1  0  0  0  0
 33 75  1  0  0  0  0
 33 80  2  0  0  0  0
 34 64  1  0  0  0  0
 34 71  1  0  0  0  0
 34 81  2  0  0  0  0
 35 65  1  0  0  0  0
 35 76  1  0  0  0  0
 35 82  2  0  0  0  0
 36 72  1  0  0  0  0
 36 77  1  0  0  0  0
 36 83  2  0  0  0  0
 37 40  1  0  0  0  0
 38 47  1  0  0  0  0
 39 71  1  0  0  0  0
 40 42  1  0  0  0  0
 41 43  1  0  0  0  0
 41 44  1  0  0  0  0
 42 46  1  0  0  0  0
 43 48  1  0  0  0  0
 44 72  1  0  0  0  0
 45 48  1  0  0  0  0
 45 72  1  0  0  0  0
 46 75  1  0  0  0  0
 47 71  1  0  0  0  0
 48 70  1  0  0  0  0
 50 58  1  0  0  0  0
 51 65  1  0  0  0  0
 52 66  1  0  0  0  0
 53 66  1  0  0  0  0
 54 66  1  0  0  0  0
 55 78  1  0  0  0  0
 56 63  1  0  0  0  0
 57 59  1  0  0  0  0
 58 61  1  0  0  0  0
 59 60  1  0  0  0  0
 60 62  1  0  0  0  0
 61 77  1  0  0  0  0
 62 77  1  0  0  0  0
 63 85  1  0  0  0  0
 64 66  1  0  0  0  0
 64 76  1  0  0  0  0
 65 78  1  0  0  0  0
 68 70  1  0  0  0  0
M  CHG  1  78   1
M  ISO  4  36 100  63 101  77 100  85 101
M  END
> <Batch ID>
0046

> <Smiles>
CCC[100N:0](CCCCc1nc(C[101CH2:1][101O:1]c2ccc3c(c2)CN(C(=O)C(NC(=O)C(C)NC)C(C)(C)C)C(C(=O)NC2CCCc4ccccc42)C3)cnc1C)[100C:0](=O)N1CCCC(n2nc(-c3ccc(Oc4ccc(F)cc4F)cc3)c(C(N)=O)c2N)C1

> <Shape>
0.236

> <Color>
0.065

> <Negative vol penalty>
0.000

$$$$

  -OEChem-04052317213D

 82 90  0     1  0  0  0  0  0999 V2000
  -25.8211  -19.8021   27.2328 C   0  0  0  0  0  0  0  0  0  0  0  0
  -26.6609  -20.5561   26.4194 C   0  0  0  0  0  0  0  0  0  0  0  0
  -25.8291  -14.5106   22.6027 C   0  0  0  0  0  0  0  0  0  0  0  0
  -25.3928  -14.0105   20.2797 C   0  0  0  0  0  0  0  0  0  0  0  0
  -24.4482  -19.7857   26.9904 C   0  0  0  0  0  0  0  0  0  0  0  0
  -26.1284  -21.2932   25.3623 C   0  0  0  0  0  0  0  0  0  0  0  0
  -28.0942  -26.7123   23.2947 C   0  0  0  0  0  0  0  0  0  0  0  0
  -28.9156  -26.7214   16.8143 C   0  0  0  0  0  0  0  0  0  0  0  0
  -24.9206  -13.5240   22.9858 C   0  0  0  0  0  0  0  0  0  0  0  0
  -24.4843  -13.0238   20.6627 C   0  0  0  0  0  0  0  0  0  0  0  0
  -28.9128  -27.0665   22.2231 C   0  0  0  0  0  0  0  0  0  0  0  0
  -22.3185  -10.1270   21.0311 C   0  0  0  0  0  0  0  0  0  0  0  0
  -22.3805   -8.8974   20.3754 C   0  0  0  0  0  0  0  0  0  0  0  0
  -28.0054  -25.9331   16.1192 C   0  0  0  0  0  0  0  0  0  0  0  0
  -26.9569  -27.4638   20.8682 C   0  0  0  0  0  0  0  0  0  0  0  0
  -24.6560   -8.6078   21.1339 C   0  0  0  0  0  0  0  0  0  0  0  0
  -26.0652  -14.7539   21.2497 C   0  0  0  0  0  0  0  0  0  0  0  0
  -28.3838  -15.6168   20.6276 C   0  0  0  0  0  0  0  0  0  0  0  0
  -23.8974  -20.5307   25.9357 C   0  0  0  0  0  0  0  0  0  0  0  0
  -26.6987  -26.7206   23.1575 C   0  0  0  0  0  0  0  0  0  0  0  0
  -24.7470  -21.2857   25.1047 C   0  0  0  0  0  0  0  0  0  0  0  0
  -26.1228  -27.1117   21.9403 C   0  0  0  0  0  0  0  0  0  0  0  0
  -29.8328  -26.1232   17.6711 C   0  0  0  0  0  0  0  0  0  0  0  0
  -24.2482  -12.7806   22.0158 C   0  0  0  0  0  0  0  0  0  0  0  0
  -28.3442  -27.4396   21.0087 C   0  0  0  0  0  0  0  0  0  0  0  0
  -23.4252  -10.5970   21.7381 C   0  0  0  0  0  0  0  0  0  0  0  0
  -23.5493   -8.1378   20.4268 C   0  0  0  0  0  0  0  0  0  0  0  0
  -24.5940   -9.8374   21.7896 C   0  0  0  0  0  0  0  0  0  0  0  0
  -27.0031  -15.7734   20.8534 C   0  0  0  0  0  0  0  0  0  0  0  0
  -28.0531  -24.5621   16.3143 C   0  0  0  0  0  0  0  0  0  0  0  0
  -29.7986  -24.7438   17.7969 C   0  0  0  0  0  0  0  0  0  0  0  0
  -28.8185  -16.8711   20.2750 C   0  0  0  0  0  0  0  0  0  0  0  0
  -29.2004  -14.4425   20.7275 C   0  0  0  0  0  0  0  0  0  0  0  0
  -24.4125  -24.5207   23.3510 C   0  0  0  0  0  0  0  0  0  0  0  0
  -22.4553  -27.0870   23.0254 C   0  0  0  0  0  0  0  0  0  0  0  0
  -22.0384  -30.2922   21.9300 C   0  0  0  0  0  0  0  0  0  0  0  0
  -26.0315  -21.4472   17.7957 C   0  0  0  0  0  0  0  0  0  0  0  0
  -22.4130  -20.4441   25.6836 C   0  0  0  0  0  0  0  0  0  0  0  0
  -25.8291  -26.3616   24.3310 C   0  0  0  0  0  0  0  0  0  0  0  0
  -24.6297  -27.1567   21.7476 C   0  0  0  0  0  0  0  0  0  0  0  0
  -21.8843  -21.5499   24.7736 C   0  0  0  0  0  0  0  0  0  0  0  0
  -27.8210  -21.5046   20.9409 C   0  0  0  0  0  0  0  0  0  0  0  0
  -22.7838  -21.7120   23.5524 C   0  0  0  0  0  0  0  0  0  0  0  0
  -27.9425  -20.0111   21.2489 C   0  0  0  0  0  0  0  0  0  0  0  0
  -26.4768  -21.8283   20.2956 C   0  0  0  0  0  0  0  0  0  0  0  0
  -26.3009  -19.5514   19.3692 C   0  0  0  0  0  0  0  0  0  0  0  0
  -24.2042  -22.1182   23.9635 C   0  0  1  0  0  0  0  0  0  0  0  0
  -24.4303  -25.9103   23.9223 C   0  0  1  0  0  0  0  0  0  0  0  0
  -27.6473  -19.1560   20.0024 C   0  0  2  0  0  0  0  0  0  0  0  0
  -30.7620  -24.0465   18.7005 C   0  0  0  0  0  0  0  0  0  0  0  0
  -20.3166  -32.1106   21.7689 C   0  0  0  0  0  0  0  0  0  0  0  0
  -21.1340  -25.6260   20.6952 C   0  0  0  0  0  0  0  0  0  0  0  0
  -20.1185  -27.8050   19.9958 C   0  0  0  0  0  0  0  0  0  0  0  0
  -19.5453  -26.8188   22.2142 C   0  0  0  0  0  0  0  0  0  0  0  0
  -23.6437  -32.1210   23.6144 C   0  0  0  0  0  0  0  0  0  0  0  0
  -30.8226  -26.9738   18.4295 C   0  0  0  0  0  0  0  0  0  0  0  0
  -27.0918  -23.6857   15.5828 C   0  0  0  0  0  0  0  0  0  0  0  0
  -25.7827  -23.4432   16.3427 C   0  0  0  0  0  0  0  0  0  0  0  0
  -30.4242  -27.1653   19.8888 C   0  0  0  0  0  0  0  0  0  1  0  0
  -21.8392  -27.8204   21.8585 C   0  0  1  0  0  0  0  0  0  0  0  0
  -21.4423  -31.5165   22.6011 C   0  0  2  0  0  0  0  0  0  0  0  0
  -20.6875  -27.0150   21.1936 C   0  0  0  0  0  0  0  0  0  0  0  0
  -26.5882  -17.0282   20.6606 N   0  0  0  0  0  0  0  0  0  0  0  0
  -28.9294  -23.9450   17.1381 N   0  0  0  0  0  0  0  0  0  0  0  0
  -27.7148  -17.6716   20.3101 N   0  0  0  0  0  0  0  0  0  0  0  0
  -23.8219  -26.7907   22.9228 N   0  0  0  0  0  0  0  0  0  0  0  0
  -26.2655  -20.9936   19.1045 N   0  0  0  0  0  0  0  0  0  0  0  0
  -30.0333  -17.3563   19.9417 N   0  0  0  0  0  0  0  0  0  0  0  0
  -28.5930  -13.2362   21.1020 N   0  0  0  0  0  0  0  0  0  0  0  0
  -24.2510  -23.5258   24.2963 N   0  0  0  0  0  0  0  0  0  0  0  0
  -21.4388  -29.1289   22.3643 N   0  0  0  0  0  0  0  0  0  0  0  0
  -26.0065  -22.8268   17.6314 N   0  0  0  0  0  0  0  0  0  0  0  0
  -22.4868  -32.5619   22.7934 N   0  3  0  0  0  0  0  0  0  0  0  0
  -30.4351  -14.4658   20.5076 O   0  0  0  0  0  0  0  0  0  0  0  0
  -24.5347  -24.3629   22.1419 O   0  0  0  0  0  0  0  0  0  0  0  0
  -21.7516  -26.7942   23.9953 O   0  0  0  0  0  0  0  0  0  0  0  0
  -22.9428  -30.3612   21.1006 O   0  0  0  0  0  0  0  0  0  0  0  0
  -25.8626  -20.6793   16.8424 O   0  0  0  0  0  0  0  0  0  0  0  0
  -23.3618  -11.8176   22.3892 O   0  0  0  0  0  0  0  0  0  0  0  0
  -29.1409  -27.7852   19.9610 O   0  0  0  0  0  0  0  0  0  1  0  0
  -23.6082   -6.9564   19.7984 F   0  0  0  0  0  0  0  0  0  0  0  0
  -25.6601  -10.2832   22.4683 F   0  0  0  0  0  0  0  0  0  0  0  0
  1  2  1  0  0  0  0
  1  5  2  0  0  0  0
  2  6  2  0  0  0  0
  3  9  2  0  0  0  0
  3 17  1  0  0  0  0
  4 10  1  0  0  0  0
  4 17  2  0  0  0  0
  5 19  1  0  0  0  0
  6 21  1  0  0  0  0
  7 11  2  0  0  0  0
  7 20  1  0  0  0  0
  8 14  2  0  0  0  0
  8 23  1  0  0  0  0
  9 24  1  0  0  0  0
 10 24  2  0  0  0  0
 11 25  1  0  0  0  0
 12 13  2  0  0  0  0
 12 26  1  0  0  0  0
 13 27  1  0  0  0  0
 14 30  1  0  0  0  0
 15 22  1  0  0  0  0
 15 25  2  0  0  0  0
 16 27  2  0  0  0  0
 16 28  1  0  0  0  0
 17 29  1  0  0  0  0
 18 29  1  0  0  0  0
 18 32  2  0  0  0  0
 18 33  1  0  0  0  0
 19 21  2  0  0  0  0
 19 38  1  0  0  0  0
 20 22  2  0  0  0  0
 20 39  1  0  0  0  0
 21 47  1  0  0  0  0
 22 40  1  0  0  0  0
 23 31  2  0  0  0  0
 23 56  1  0  0  0  0
 24 79  1  0  0  0  0
 25 80  1  0  0  0  0
 26 28  2  0  0  0  0
 26 79  1  0  0  0  0
 27 81  1  0  0  0  0
 28 82  1  0  0  0  0
 29 63  2  0  0  0  0
 30 57  1  0  0  0  0
 30 64  2  0  0  0  0
 31 50  1  0  0  0  0
 31 64  1  0  0  0  0
 32 65  1  0  0  0  0
 32 68  1  0  0  0  0
 33 69  1  0  0  0  0
 33 74  2  0  0  0  0
 34 48  1  0  0  0  0
 34 70  1  0  0  0  0
 34 75  2  0  0  0  0
 35 60  1  0  0  0  0
 35 66  1  0  0  0  0
 35 76  2  0  0  0  0
 36 61  1  0  0  0  0
 36 71  1  0  0  0  0
 36 77  2  0  0  0  0
 37 67  1  0  0  0  0
 37 72  1  0  0  0  0
 37 78  2  0  0  0  0
 38 41  1  0  0  0  0
 39 48  1  0  0  0  0
 40 66  1  0  0  0  0
 41 43  1  0  0  0  0
 42 44  1  0  0  0  0
 42 45  1  0  0  0  0
 43 47  1  0  0  0  0
 44 49  1  0  0  0  0
 45 67  1  0  0  0  0
 46 49  1  0  0  0  0
 46 67  1  0  0  0  0
 47 70  1  0  0  0  0
 48 66  1  0  0  0  0
 49 65  1  0  0  0  0
 51 61  1  0  0  0  0
 52 62  1  0  0  0  0
 53 62  1  0  0  0  0
 54 62  1  0  0  0  0
 55 73  1  0  0  0  0
 56 59  1  0  0  0  0
 57 58  1  0  0  0  0
 58 72  1  0  0  0  0
 59 80  1  0  0  0  0
 60 62  1  0  0  0  0
 60 71  1  0  0  0  0
 61 73  1  0  0  0  0
 63 65  1  0  0  0  0
M  CHG  1  73   1
M  ISO  4  37 100  59 101  72 100  80 101
M  END
> <Batch ID>
0046

> <Smiles>
CNC(C)C(=O)NC(C(=O)N1Cc2cc([101O:1][101CH2:1]Cc3ccc(CC[100NH:0][100C:0](=O)N4CCCC(n5nc(-c6ccc(Oc7ccc(F)cc7F)cc6)c(C(N)=O)c5N)C4)nc3C)ccc2CC1C(=O)NC1CCCc2ccccc21)C(C)(C)C

> <Shape>
0.220

> <Color>
0.060

> <Negative vol penalty>
0.000

$$$$

  -OEChem-04052317213D

 83 91  0     1  0  0  0  0  0999 V2000
  -27.6211  -35.8816   22.2305 C   0  0  0  0  0  0  0  0  0  0  0  0
  -28.4274  -34.8098   21.8607 C   0  0  0  0  0  0  0  0  0  0  0  0
  -23.7511   -9.9837   22.2008 C   0  0  0  0  0  0  0  0  0  0  0  0
  -24.3406  -11.4470   24.0307 C   0  0  0  0  0  0  0  0  0  0  0  0
  -26.4067  -35.6491   22.8748 C   0  0  0  0  0  0  0  0  0  0  0  0
  -28.0202  -33.5049   22.1360 C   0  0  0  0  0  0  0  0  0  0  0  0
  -28.4118  -26.8590   19.4912 C   0  0  0  0  0  0  0  0  0  0  0  0
  -23.2259   -9.0623   23.1068 C   0  0  0  0  0  0  0  0  0  0  0  0
  -23.8153  -10.5256   24.9367 C   0  0  0  0  0  0  0  0  0  0  0  0
  -28.7718  -25.5673   19.8730 C   0  0  0  0  0  0  0  0  0  0  0  0
  -24.4000   -6.6934   25.2125 C   0  0  0  0  0  0  0  0  0  0  0  0
  -24.7247   -5.3492   25.0304 C   0  0  0  0  0  0  0  0  0  0  0  0
  -26.6171  -25.2828   20.9197 C   0  0  0  0  0  0  0  0  0  0  0  0
  -30.0968  -20.0672   22.7914 C   0  0  0  0  0  0  0  0  0  0  0  0
  -22.3813   -4.8171   24.7804 C   0  0  0  0  0  0  0  0  0  0  0  0
  -24.3086  -11.1760   22.6628 C   0  0  0  0  0  0  0  0  0  0  0  0
  -24.1697  -13.1876   21.1001 C   0  0  0  0  0  0  0  0  0  0  0  0
  -25.9799  -34.3402   23.1495 C   0  0  0  0  0  0  0  0  0  0  0  0
  -27.1538  -27.3771   19.8308 C   0  0  0  0  0  0  0  0  0  0  0  0
  -26.7995  -33.2547   22.7858 C   0  0  0  0  0  0  0  0  0  0  0  0
  -26.2426  -26.5804   20.5388 C   0  0  0  0  0  0  0  0  0  0  0  0
  -29.9352  -21.3932   22.4056 C   0  0  0  0  0  0  0  0  0  0  0  0
  -30.0271  -19.0580   21.8374 C   0  0  0  0  0  0  0  0  0  0  0  0
  -23.2579   -9.3333   24.4747 C   0  0  0  0  0  0  0  0  0  0  0  0
  -27.8755  -24.7800   20.5899 C   0  0  0  0  0  0  0  0  0  0  0  0
  -23.0659   -7.0995   25.1787 C   0  0  0  0  0  0  0  0  0  0  0  0
  -23.7153   -4.4110   24.8142 C   0  0  0  0  0  0  0  0  0  0  0  0
  -22.0566   -6.1613   24.9626 C   0  0  0  0  0  0  0  0  0  0  0  0
  -24.8518  -12.1279   21.7275 C   0  0  0  0  0  0  0  0  0  0  0  0
  -29.7080  -21.6553   21.0641 C   0  0  0  0  0  0  0  0  0  0  0  0
  -29.7955  -19.4246   20.5214 C   0  0  0  0  0  0  0  0  0  0  0  0
  -25.1206  -13.7900   20.3132 C   0  0  0  0  0  0  0  0  0  0  0  0
  -22.7990  -13.5913   21.2182 C   0  0  0  0  0  0  0  0  0  0  0  0
  -26.1347  -29.8242   21.5848 C   0  0  0  0  0  0  0  0  0  0  0  0
  -23.2353  -28.9410   20.4290 C   0  0  0  0  0  0  0  0  0  0  0  0
  -21.2655  -26.4813   19.1187 C   0  0  0  0  0  0  0  0  0  0  0  0
  -31.0944  -14.0559   20.6189 C   0  0  0  0  0  0  0  0  0  0  0  0
  -24.6814  -34.1405   23.8903 C   0  0  0  0  0  0  0  0  0  0  0  0
  -26.7706  -28.7626   19.3883 C   0  0  0  0  0  0  0  0  0  0  0  0
  -24.8721  -27.0824   20.9105 C   0  0  0  0  0  0  0  0  0  0  0  0
  -24.1478  -32.7126   23.8100 C   0  0  0  0  0  0  0  0  0  0  0  0
  -29.1421  -12.8326   17.9044 C   0  0  0  0  0  0  0  0  0  0  0  0
  -25.2628  -31.7095   24.0883 C   0  0  0  0  0  0  0  0  0  0  0  0
  -27.7596  -12.6089   18.5198 C   0  0  0  0  0  0  0  0  0  0  0  0
  -30.2595  -12.4926   18.8882 C   0  0  0  0  0  0  0  0  0  0  0  0
  -28.7832  -12.9518   20.8075 C   0  0  0  0  0  0  0  0  0  0  0  0
  -26.3808  -31.8238   23.0449 C   0  0  1  0  0  0  0  0  0  0  0  0
  -25.6570  -29.3732   20.2335 C   0  0  1  0  0  0  0  0  0  0  0  0
  -27.6236  -13.3345   19.8719 C   0  0  2  0  0  0  0  0  0  0  0  0
  -30.0089  -22.4790   23.4227 C   0  0  0  0  0  0  0  0  0  0  0  0
  -29.7123  -18.3824   19.4546 C   0  0  0  0  0  0  0  0  0  0  0  0
  -18.9297  -26.0499   18.3092 C   0  0  0  0  0  0  0  0  0  0  0  0
  -22.2580  -28.8272   23.3172 C   0  0  0  0  0  0  0  0  0  0  0  0
  -20.2834  -27.5082   22.5238 C   0  0  0  0  0  0  0  0  0  0  0  0
  -20.6348  -29.8384   21.7057 C   0  0  0  0  0  0  0  0  0  0  0  0
  -22.2086  -25.8169   16.3932 C   0  0  0  0  0  0  0  0  0  0  0  0
  -30.1991  -17.6352   22.2442 C   0  0  0  0  0  0  0  0  0  0  0  0
  -29.5249  -23.0668   20.5892 C   0  0  0  0  0  0  0  0  0  1  0  0
  -31.5991  -17.0537   21.9614 C   0  0  0  0  0  0  0  0  0  0  0  0
  -31.7851  -15.6107   22.4257 C   0  0  0  0  0  0  0  0  0  0  0  0
  -22.1499  -27.9920   20.8766 C   0  0  1  0  0  0  0  0  0  0  0  0
  -20.3387  -26.4663   17.9166 C   0  0  2  0  0  0  0  0  0  0  0  0
  -21.3580  -28.5324   22.1006 C   0  0  0  0  0  0  0  0  0  0  0  0
  -26.1368  -12.0584   21.3698 N   0  0  0  0  0  0  0  0  0  0  0  0
  -29.6337  -20.7017   20.1087 N   0  0  0  0  0  0  0  0  0  0  0  0
  -26.2697  -13.0819   20.5091 N   0  0  0  0  0  0  0  0  0  0  0  0
  -24.5467  -28.4459   20.4607 N   0  0  0  0  0  0  0  0  0  0  0  0
  -30.0725  -13.2144   20.1491 N   0  0  0  0  0  0  0  0  0  0  0  0
  -25.0775  -14.8509   19.4795 N   0  0  0  0  0  0  0  0  0  0  0  0
  -21.9588  -12.8623   22.0709 N   0  0  0  0  0  0  0  0  0  0  0  0
  -25.9874  -31.1796   21.8102 N   0  0  0  0  0  0  0  0  0  0  0  0
  -21.3268  -27.7297   19.7009 N   0  0  0  0  0  0  0  0  0  0  0  0
  -30.8335  -14.7073   21.8182 N   0  0  0  0  0  0  0  0  0  0  0  0
  -20.8409  -25.5129   16.8872 N   0  3  0  0  0  0  0  0  0  0  0  0
  -22.3290  -14.5595   20.5738 O   0  0  0  0  0  0  0  0  0  0  0  0
  -26.6009  -29.0030   22.3659 O   0  0  0  0  0  0  0  0  0  0  0  0
  -22.9302  -30.0771   20.0579 O   0  0  0  0  0  0  0  0  0  0  0  0
  -21.8715  -25.4842   19.5051 O   0  0  0  0  0  0  0  0  0  0  0  0
  -32.1582  -14.2189   20.0117 O   0  0  0  0  0  0  0  0  0  0  0  0
  -22.7453   -8.4345   25.3590 O   0  0  0  0  0  0  0  0  0  0  0  0
  -28.2245  -23.5191   20.9643 O   0  0  0  0  0  0  0  0  0  1  0  0
  -24.0274   -3.1204   24.6377 F   0  0  0  0  0  0  0  0  0  0  0  0
  -20.7733   -6.5456   24.9279 F   0  0  0  0  0  0  0  0  0  0  0  0
  1  2  1  0  0  0  0
  1  5  2  0  0  0  0
  2  6  2  0  0  0  0
  3  8  2  0  0  0  0
  3 16  1  0  0  0  0
  4  9  1  0  0  0  0
  4 16  2  0  0  0  0
  5 18  1  0  0  0  0
  6 20  1  0  0  0  0
  7 10  2  0  0  0  0
  7 19  1  0  0  0  0
  8 24  1  0  0  0  0
  9 24  2  0  0  0  0
 10 25  1  0  0  0  0
 11 12  2  0  0  0  0
 11 26  1  0  0  0  0
 12 27  1  0  0  0  0
 13 21  1  0  0  0  0
 13 25  2  0  0  0  0
 14 22  1  0  0  0  0
 14 23  2  0  0  0  0
 15 27  2  0  0  0  0
 15 28  1  0  0  0  0
 16 29  1  0  0  0  0
 17 29  1  0  0  0  0
 17 32  2  0  0  0  0
 17 33  1  0  0  0  0
 18 20  2  0  0  0  0
 18 38  1  0  0  0  0
 19 21  2  0  0  0  0
 19 39  1  0  0  0  0
 20 47  1  0  0  0  0
 21 40  1  0  0  0  0
 22 30  2  0  0  0  0
 22 50  1  0  0  0  0
 23 31  1  0  0  0  0
 23 57  1  0  0  0  0
 24 80  1  0  0  0  0
 25 81  1  0  0  0  0
 26 28  2  0  0  0  0
 26 80  1  0  0  0  0
 27 82  1  0  0  0  0
 28 83  1  0  0  0  0
 29 64  2  0  0  0  0
 30 58  1  0  0  0  0
 30 65  1  0  0  0  0
 31 51  1  0  0  0  0
 31 65  2  0  0  0  0
 32 66  1  0  0  0  0
 32 69  1  0  0  0  0
 33 70  1  0  0  0  0
 33 75  2  0  0  0  0
 34 48  1  0  0  0  0
 34 71  1  0  0  0  0
 34 76  2  0  0  0  0
 35 61  1  0  0  0  0
 35 67  1  0  0  0  0
 35 77  2  0  0  0  0
 36 62  1  0  0  0  0
 36 72  1  0  0  0  0
 36 78  2  0  0  0  0
 37 68  1  0  0  0  0
 37 73  1  0  0  0  0
 37 79  2  0  0  0  0
 38 41  1  0  0  0  0
 39 48  1  0  0  0  0
 40 67  1  0  0  0  0
 41 43  1  0  0  0  0
 42 44  1  0  0  0  0
 42 45  1  0  0  0  0
 43 47  1  0  0  0  0
 44 49  1  0  0  0  0
 45 68  1  0  0  0  0
 46 49  1  0  0  0  0
 46 68  1  0  0  0  0
 47 71  1  0  0  0  0
 48 67  1  0  0  0  0
 49 66  1  0  0  0  0
 52 62  1  0  0  0  0
 53 63  1  0  0  0  0
 54 63  1  0  0  0  0
 55 63  1  0  0  0  0
 56 74  1  0  0  0  0
 57 59  1  0  0  0  0
 58 81  1  0  0  0  0
 59 60  1  0  0  0  0
 60 73  1  0  0  0  0
 61 63  1  0  0  0  0
 61 72  1  0  0  0  0
 62 74  1  0  0  0  0
 64 66  1  0  0  0  0
M  CHG  1  74   1
M  ISO  4  37 100  58 101  73 100  81 101
M  END
> <Batch ID>
0046

> <Smiles>
CNC(C)C(=O)NC(C(=O)N1Cc2cc([101O:1][101CH2:1]c3nc(C)c(CCC[100NH:0][100C:0](=O)N4CCCC(n5nc(-c6ccc(Oc7ccc(F)cc7F)cc6)c(C(N)=O)c5N)C4)cc3C)ccc2CC1C(=O)NC1CCCc2ccccc21)C(C)(C)C

> <Shape>
0.336

> <Color>
0.153

> <Negative vol penalty>
0.000

$$$$

  -OEChem-04052317213D

 87 95  0     1  0  0  0  0  0999 V2000
  -17.3528  -31.7456   24.1012 C   0  0  0  0  0  0  0  0  0  0  0  0
  -18.6724  -32.0538   24.4158 C   0  0  0  0  0  0  0  0  0  0  0  0
  -28.5300  -17.2018   20.2946 C   0  0  0  0  0  0  0  0  0  0  0  0
  -26.7927  -18.4940   19.2228 C   0  0  0  0  0  0  0  0  0  0  0  0
  -17.0384  -30.4975   23.5650 C   0  0  0  0  0  0  0  0  0  0  0  0
  -19.6784  -31.1136   24.1955 C   0  0  0  0  0  0  0  0  0  0  0  0
  -25.4491  -32.2308   22.4761 C   0  0  0  0  0  0  0  0  0  0  0  0
  -27.6212  -16.1683   20.5218 C   0  0  0  0  0  0  0  0  0  0  0  0
  -25.8839  -17.4605   19.4498 C   0  0  0  0  0  0  0  0  0  0  0  0
  -26.6412  -32.3192   23.1936 C   0  0  0  0  0  0  0  0  0  0  0  0
  -25.6692  -13.3370   21.7036 C   0  0  0  0  0  0  0  0  0  0  0  0
  -25.6631  -12.7423   22.9653 C   0  0  0  0  0  0  0  0  0  0  0  0
  -27.1224  -30.0150   22.6664 C   0  0  0  0  0  0  0  0  0  0  0  0
  -25.1292  -14.8747   23.9678 C   0  0  0  0  0  0  0  0  0  0  0  0
  -31.2867  -32.6992   25.6669 C   0  0  0  0  0  0  0  0  0  0  0  0
  -28.1158  -18.3647   19.6452 C   0  0  0  0  0  0  0  0  0  0  0  0
  -29.8791  -19.6075   18.2836 C   0  0  0  0  0  0  0  0  0  0  0  0
  -18.0423  -29.5451   23.3290 C   0  0  0  0  0  0  0  0  0  0  0  0
  -25.0788  -31.0286   21.8564 C   0  0  0  0  0  0  0  0  0  0  0  0
  -19.3770  -29.8511   23.6569 C   0  0  0  0  0  0  0  0  0  0  0  0
  -25.9264  -29.9146   21.9394 C   0  0  0  0  0  0  0  0  0  0  0  0
  -31.1445  -31.3112   25.4796 C   0  0  0  0  0  0  0  0  0  0  0  0
  -26.2981  -16.2977   20.0994 C   0  0  0  0  0  0  0  0  0  0  0  0
  -27.4767  -31.2104   23.2913 C   0  0  0  0  0  0  0  0  0  0  0  0
  -25.4054  -14.7006   21.5740 C   0  0  0  0  0  0  0  0  0  0  0  0
  -25.3930  -13.5111   24.0974 C   0  0  0  0  0  0  0  0  0  0  0  0
  -25.1354  -15.4694   22.7061 C   0  0  0  0  0  0  0  0  0  0  0  0
  -29.0540  -19.4328   19.4108 C   0  0  0  0  0  0  0  0  0  0  0  0
  -32.3283  -30.9193   24.9040 C   0  0  0  0  0  0  0  0  0  0  0  0
  -30.5761  -20.7620   18.5439 C   0  0  0  0  0  0  0  0  0  0  0  0
  -30.0042  -18.7985   17.1065 C   0  0  0  0  0  0  0  0  0  0  0  0
  -22.6478  -29.0035   22.1616 C   0  0  0  0  0  0  0  0  0  0  0  0
  -24.0151  -27.5833   19.5856 C   0  0  0  0  0  0  0  0  0  0  0  0
  -26.8253  -27.0454   17.7255 C   0  0  0  0  0  0  0  0  0  0  0  0
  -30.8977  -25.8771   20.1850 C   0  0  0  0  0  0  0  0  0  0  0  0
  -17.6476  -28.1922   22.7919 C   0  0  0  0  0  0  0  0  0  0  0  0
  -23.8025  -30.9573   21.0637 C   0  0  0  0  0  0  0  0  0  0  0  0
  -25.5844  -28.6067   21.2753 C   0  0  0  0  0  0  0  0  0  0  0  0
  -18.8229  -27.3895   22.2399 C   0  0  0  0  0  0  0  0  0  0  0  0
  -31.0037  -23.4806   22.7768 C   0  0  0  0  0  0  0  0  0  0  0  0
  -19.9999  -27.4309   23.2093 C   0  0  0  0  0  0  0  0  0  0  0  0
  -30.5614  -22.2175   22.0394 C   0  0  0  0  0  0  0  0  0  0  0  0
  -30.2120  -24.7121   22.3331 C   0  0  0  0  0  0  0  0  0  0  0  0
  -29.7774  -23.6693   20.1317 C   0  0  0  0  0  0  0  0  0  0  0  0
  -20.4995  -28.8669   23.4093 C   0  0  1  0  0  0  0  0  0  0  0  0
  -23.2768  -29.5340   20.9044 C   0  0  1  0  0  0  0  0  0  0  0  0
  -30.5982  -22.4286   20.5158 C   0  0  2  0  0  0  0  0  0  0  0  0
  -27.6396  -25.8094   15.6990 C   0  0  0  0  0  0  0  0  0  0  0  0
  -24.0055  -24.9781   21.1738 C   0  0  0  0  0  0  0  0  0  0  0  0
  -25.6452  -24.0487   19.5258 C   0  0  0  0  0  0  0  0  0  0  0  0
  -23.3701  -24.7351   18.7672 C   0  0  0  0  0  0  0  0  0  0  0  0
  -34.2744  -29.0613   20.3834 C   0  0  0  0  0  0  0  0  0  0  0  0
  -33.9827  -26.5993   20.6482 C   0  0  0  0  0  0  0  0  0  0  0  0
  -34.4100  -32.1586   24.2362 C   0  0  0  0  0  0  0  0  0  0  0  0
  -30.0343  -27.6238   21.8001 C   0  0  0  0  0  0  0  0  0  0  0  0
  -27.5930  -29.5561   16.3594 C   0  0  0  0  0  0  0  0  0  0  0  0
  -29.9552  -30.4520   25.8341 C   0  0  0  0  0  0  0  0  0  0  0  0
  -32.8050  -29.5948   24.4628 C   0  0  0  0  0  0  0  0  0  0  0  0
  -31.9681  -28.0924   20.3418 C   0  0  0  0  0  0  0  0  0  0  0  0
  -33.3280  -28.0988   22.5322 C   0  0  0  0  0  0  0  0  0  0  0  0
  -29.1107  -30.0991   24.6145 C   0  0  0  0  0  0  0  0  0  1  0  0
  -25.0594  -26.5120   19.3843 C   0  0  1  0  0  0  0  0  0  0  0  0
  -27.0719  -27.1168   16.2293 C   0  0  2  0  0  0  0  0  0  0  0  0
  -24.5259  -25.0924   19.7270 C   0  0  0  0  0  0  0  0  0  0  0  0
  -33.3671  -27.9723   20.9919 C   0  0  0  0  0  0  0  0  0  0  0  0
  -32.4679  -33.1581   25.2447 N   0  0  0  0  0  0  0  0  0  0  0  0
  -29.2112  -20.3989   20.3196 N   0  0  0  0  0  0  0  0  0  0  0  0
  -33.0786  -32.0522   24.7864 N   0  0  0  0  0  0  0  0  0  0  0  0
  -30.1432  -21.1917   19.7638 N   0  0  0  0  0  0  0  0  0  0  0  0
  -24.3227  -28.5852   20.5170 N   0  0  0  0  0  0  0  0  0  0  0  0
  -30.2334  -24.8493   20.8704 N   0  0  0  0  0  0  0  0  0  0  0  0
  -31.5109  -21.4413   17.8460 N   0  0  0  0  0  0  0  0  0  0  0  0
  -29.2135  -17.6462   17.0006 N   0  0  0  0  0  0  0  0  0  0  0  0
  -21.3002  -29.2856   22.2788 N   0  0  0  0  0  0  0  0  0  0  0  0
  -25.5337  -26.6570   18.0123 N   0  0  0  0  0  0  0  0  0  0  0  0
  -31.0067  -27.1160   20.8343 N   0  0  0  0  0  0  0  0  0  0  0  0
  -28.0352  -28.2094   15.9146 N   0  3  0  0  0  0  0  0  0  0  0  0
  -32.7955  -29.4094   22.9788 N   0  3  0  0  0  0  0  0  0  0  0  0
  -30.8057  -19.0800   16.1836 O   0  0  0  0  0  0  0  0  0  0  0  0
  -23.3341  -28.3829   22.9652 O   0  0  0  0  0  0  0  0  0  0  0  0
  -22.9681  -27.5371   18.9350 O   0  0  0  0  0  0  0  0  0  0  0  0
  -27.6928  -27.3044   18.5566 O   0  0  0  0  0  0  0  0  0  0  0  0
  -31.3616  -25.7012   19.0510 O   0  0  0  0  0  0  0  0  0  0  0  0
  -25.4111  -15.2893   20.3206 O   0  0  0  0  0  0  0  0  0  0  0  0
  -28.6405  -31.2938   23.9915 O   0  0  0  0  0  0  0  0  0  1  0  0
  -25.3856  -12.9396   25.3088 F   0  0  0  0  0  0  0  0  0  0  0  0
  -24.8801  -16.7796   22.5877 F   0  0  0  0  0  0  0  0  0  0  0  0
  1  2  1  0  0  0  0
  1  5  2  0  0  0  0
  2  6  2  0  0  0  0
  3  8  2  0  0  0  0
  3 16  1  0  0  0  0
  4  9  1  0  0  0  0
  4 16  2  0  0  0  0
  5 18  1  0  0  0  0
  6 20  1  0  0  0  0
  7 10  2  0  0  0  0
  7 19  1  0  0  0  0
  8 23  1  0  0  0  0
  9 23  2  0  0  0  0
 10 24  1  0  0  0  0
 11 12  2  0  0  0  0
 11 25  1  0  0  0  0
 12 26  1  0  0  0  0
 13 21  1  0  0  0  0
 13 24  2  0  0  0  0
 14 26  2  0  0  0  0
 14 27  1  0  0  0  0
 15 22  1  0  0  0  0
 15 66  2  0  0  0  0
 16 28  1  0  0  0  0
 17 28  1  0  0  0  0
 17 30  2  0  0  0  0
 17 31  1  0  0  0  0
 18 20  2  0  0  0  0
 18 36  1  0  0  0  0
 19 21  2  0  0  0  0
 19 37  1  0  0  0  0
 20 45  1  0  0  0  0
 21 38  1  0  0  0  0
 22 29  2  0  0  0  0
 22 57  1  0  0  0  0
 23 84  1  0  0  0  0
 24 85  1  0  0  0  0
 25 27  2  0  0  0  0
 25 84  1  0  0  0  0
 26 86  1  0  0  0  0
 27 87  1  0  0  0  0
 28 67  2  0  0  0  0
 29 58  1  0  0  0  0
 29 68  1  0  0  0  0
 30 69  1  0  0  0  0
 30 72  1  0  0  0  0
 31 73  1  0  0  0  0
 31 79  2  0  0  0  0
 32 46  1  0  0  0  0
 32 74  1  0  0  0  0
 32 80  2  0  0  0  0
 33 62  1  0  0  0  0
 33 70  1  0  0  0  0
 33 81  2  0  0  0  0
 34 63  1  0  0  0  0
 34 75  1  0  0  0  0
 34 82  2  0  0  0  0
 35 71  1  0  0  0  0
 35 76  1  0  0  0  0
 35 83  2  0  0  0  0
 36 39  1  0  0  0  0
 37 46  1  0  0  0  0
 38 70  1  0  0  0  0
 39 41  1  0  0  0  0
 40 42  1  0  0  0  0
 40 43  1  0  0  0  0
 41 45  1  0  0  0  0
 42 47  1  0  0  0  0
 43 71  1  0  0  0  0
 44 47  1  0  0  0  0
 44 71  1  0  0  0  0
 45 74  1  0  0  0  0
 46 70  1  0  0  0  0
 47 69  1  0  0  0  0
 48 63  1  0  0  0  0
 49 64  1  0  0  0  0
 50 64  1  0  0  0  0
 51 64  1  0  0  0  0
 52 65  1  0  0  0  0
 53 65  1  0  0  0  0
 54 68  1  0  0  0  0
 55 76  1  0  0  0  0
 56 77  1  0  0  0  0
 57 61  1  0  0  0  0
 58 78  1  0  0  0  0
 59 65  1  0  0  0  0
 59 76  1  0  0  0  0
 60 65  1  0  0  0  0
 60 78  1  0  0  0  0
 61 85  1  0  0  0  0
 62 64  1  0  0  0  0
 62 75  1  0  0  0  0
 63 77  1  0  0  0  0
 66 68  1  0  0  0  0
 67 69  1  0  0  0  0
M  CHG  2  77   1  78   1
M  ISO  4  35 100  61 101  76 100  85 101
M  END
> <Batch ID>
0046

> <Smiles>
CNC(C)C(=O)NC(C(=O)N1Cc2cc([101O:1][101CH2:1]Cc3cnn(C)c3CNCC(C)(C)C[100N:0](C)[100C:0](=O)N3CCCC(n4nc(-c5ccc(Oc6ccc(F)cc6F)cc5)c(C(N)=O)c4N)C3)ccc2CC1C(=O)NC1CCCc2ccccc21)C(C)(C)C

> <Shape>
0.242

> <Color>
0.105

> <Negative vol penalty>
0.000

$$$$

  -OEChem-04052317213D

 79 87  0     1  0  0  0  0  0999 V2000
  -24.6582  -35.4400   21.6141 C   0  0  0  0  0  0  0  0  0  0  0  0
  -25.4263  -34.2803   21.5931 C   0  0  0  0  0  0  0  0  0  0  0  0
  -25.1515  -13.4148   19.3695 C   0  0  0  0  0  0  0  0  0  0  0  0
  -24.8964  -13.5684   21.7671 C   0  0  0  0  0  0  0  0  0  0  0  0
  -23.3999  -35.4305   22.2146 C   0  0  0  0  0  0  0  0  0  0  0  0
  -24.9370  -33.1106   22.1734 C   0  0  0  0  0  0  0  0  0  0  0  0
  -25.6794  -29.0374   19.2576 C   0  0  0  0  0  0  0  0  0  0  0  0
  -25.5738  -12.0918   19.4992 C   0  0  0  0  0  0  0  0  0  0  0  0
  -25.3187  -12.2453   21.8968 C   0  0  0  0  0  0  0  0  0  0  0  0
  -26.9605  -28.4873   19.2463 C   0  0  0  0  0  0  0  0  0  0  0  0
  -23.9959   -9.1604   21.5044 C   0  0  0  0  0  0  0  0  0  0  0  0
  -23.2710   -8.3312   22.3604 C   0  0  0  0  0  0  0  0  0  0  0  0
  -26.2375  -26.7871   20.7974 C   0  0  0  0  0  0  0  0  0  0  0  0
  -25.2566   -7.9653   23.6873 C   0  0  0  0  0  0  0  0  0  0  0  0
  -27.6463  -23.2683   18.3681 C   0  0  0  0  0  0  0  0  0  0  0  0
  -24.8128  -14.1532   20.5035 C   0  0  0  0  0  0  0  0  0  0  0  0
  -23.0569  -15.9788   20.2006 C   0  0  0  0  0  0  0  0  0  0  0  0
  -22.8909  -34.2576   22.7941 C   0  0  0  0  0  0  0  0  0  0  0  0
  -24.6690  -28.4720   20.0486 C   0  0  0  0  0  0  0  0  0  0  0  0
  -23.6713  -33.0858   22.7833 C   0  0  0  0  0  0  0  0  0  0  0  0
  -24.9438  -27.3304   20.8150 C   0  0  0  0  0  0  0  0  0  0  0  0
  -25.6574  -11.5070   20.7628 C   0  0  0  0  0  0  0  0  0  0  0  0
  -27.2405  -27.3638   20.0185 C   0  0  0  0  0  0  0  0  0  0  0  0
  -25.3512   -9.3919   21.7399 C   0  0  0  0  0  0  0  0  0  0  0  0
  -23.9013   -7.7337   23.4518 C   0  0  0  0  0  0  0  0  0  0  0  0
  -25.9815   -8.7944   22.8313 C   0  0  0  0  0  0  0  0  0  0  0  0
  -24.3770  -15.5201   20.3703 C   0  0  0  0  0  0  0  0  0  0  0  0
  -28.3585  -22.0985   18.5167 C   0  0  0  0  0  0  0  0  0  0  0  0
  -30.2836  -23.3040   18.7816 C   0  0  0  0  0  0  0  0  0  0  0  0
  -29.5715  -24.4739   18.6326 C   0  0  0  0  0  0  0  0  0  0  0  0
  -23.1751  -17.3452   20.1266 C   0  0  0  0  0  0  0  0  0  0  0  0
  -21.8333  -15.2361   20.1176 C   0  0  0  0  0  0  0  0  0  0  0  0
  -27.6998  -20.7881   18.4520 C   0  0  0  0  0  0  0  0  0  0  0  0
  -22.8946  -29.4858   22.4832 C   0  0  0  0  0  0  0  0  0  0  0  0
  -21.3991  -26.6367   22.0729 C   0  0  0  0  0  0  0  0  0  0  0  0
  -21.5465  -23.4260   20.9256 C   0  0  0  0  0  0  0  0  0  0  0  0
  -21.5451  -34.3083   23.4731 C   0  0  0  0  0  0  0  0  0  0  0  0
  -23.2852  -29.0613   20.0290 C   0  0  0  0  0  0  0  0  0  0  0  0
  -23.8887  -26.6734   21.6656 C   0  0  0  0  0  0  0  0  0  0  0  0
  -20.9428  -32.9304   23.7351 C   0  0  0  0  0  0  0  0  0  0  0  0
  -25.9305  -20.9582   21.6155 C   0  0  0  0  0  0  0  0  0  0  0  0
  -21.9869  -31.9976   24.3404 C   0  0  0  0  0  0  0  0  0  0  0  0
  -25.2209  -19.6039   21.6399 C   0  0  0  0  0  0  0  0  0  0  0  0
  -27.3082  -20.8523   20.9687 C   0  0  0  0  0  0  0  0  0  0  0  0
  -26.5828  -18.9144   19.6153 C   0  0  0  0  0  0  0  0  0  0  0  0
  -23.1647  -31.7908   23.3804 C   0  0  1  0  0  0  0  0  0  0  0  0
  -22.4687  -28.7102   21.2689 C   0  0  1  0  0  0  0  0  0  0  0  0
  -25.1761  -18.9732   20.2359 C   0  0  1  0  0  0  0  0  0  0  0  0
  -31.7563  -23.3142   19.0108 C   0  0  0  0  0  0  0  0  0  0  0  0
  -20.1811  -21.3266   20.7656 C   0  0  0  0  0  0  0  0  0  0  0  0
  -21.8925  -26.0931   25.0344 C   0  0  0  0  0  0  0  0  0  0  0  0
  -21.3906  -23.6785   24.6033 C   0  0  0  0  0  0  0  0  0  0  0  0
  -19.6339  -25.4053   24.2097 C   0  0  0  0  0  0  0  0  0  0  0  0
  -21.6513  -23.4450   17.9679 C   0  0  0  0  0  0  0  0  0  0  0  0
  -30.2491  -25.8212   18.6945 C   0  0  0  0  0  0  0  0  0  0  0  0
  -29.2505  -26.9677   18.8107 C   0  0  0  0  0  0  0  0  0  1  0  0
  -21.5898  -25.2412   22.6160 C   0  0  1  0  0  0  0  0  0  0  0  0
  -20.5879  -22.6168   20.0708 C   0  0  2  0  0  0  0  0  0  0  0  0
  -21.1473  -25.1178   24.1014 C   0  0  0  0  0  0  0  0  0  0  0  0
  -28.2400  -24.4771   18.4234 N   0  0  0  0  0  0  0  0  0  0  0  0
  -25.2683  -16.5144   20.4020 N   0  0  0  0  0  0  0  0  0  0  0  0
  -29.6899  -22.0953   18.7262 N   0  0  0  0  0  0  0  0  0  0  0  0
  -24.5069  -17.6114   20.2511 N   0  0  0  0  0  0  0  0  0  0  0  0
  -27.2110  -20.2368   19.6390 N   0  0  0  0  0  0  0  0  0  0  0  0
  -22.5529  -27.2905   21.6178 N   0  0  0  0  0  0  0  0  0  0  0  0
  -22.2686  -18.3328   19.9676 N   0  0  0  0  0  0  0  0  0  0  0  0
  -21.8919  -13.8390   20.2125 N   0  0  0  0  0  0  0  0  0  0  0  0
  -22.8063  -30.8568   22.3347 N   0  0  0  0  0  0  0  0  0  0  0  0
  -20.8813  -24.3484   21.7054 N   0  0  0  0  0  0  0  0  0  0  0  0
  -21.2228  -22.2690   18.7681 N   0  3  0  0  0  0  0  0  0  0  0  0
  -20.7227  -15.7938   19.9472 O   0  0  0  0  0  0  0  0  0  0  0  0
  -27.6202  -20.2755   17.3367 O   0  0  0  0  0  0  0  0  0  0  0  0
  -23.2739  -28.8849   23.4816 O   0  0  0  0  0  0  0  0  0  0  0  0
  -20.2670  -27.1259   22.0465 O   0  0  0  0  0  0  0  0  0  0  0  0
  -22.7633  -23.2544   20.9064 O   0  0  0  0  0  0  0  0  0  0  0  0
  -26.0693  -10.2160   20.8896 O   0  0  0  0  0  0  0  0  0  0  0  0
  -28.4902  -26.8252   20.0099 O   0  0  0  0  0  0  0  0  0  1  0  0
  -23.2047   -6.9387   24.2746 F   0  0  0  0  0  0  0  0  0  0  0  0
  -27.2829   -9.0140   23.0633 F   0  0  0  0  0  0  0  0  0  0  0  0
  1  2  1  0  0  0  0
  1  5  2  0  0  0  0
  2  6  2  0  0  0  0
  3  8  2  0  0  0  0
  3 16  1  0  0  0  0
  4  9  1  0  0  0  0
  4 16  2  0  0  0  0
  5 18  1  0  0  0  0
  6 20  1  0  0  0  0
  7 10  2  0  0  0  0
  7 19  1  0  0  0  0
  8 22  1  0  0  0  0
  9 22  2  0  0  0  0
 10 23  1  0  0  0  0
 11 12  2  0  0  0  0
 11 24  1  0  0  0  0
 12 25  1  0  0  0  0
 13 21  1  0  0  0  0
 13 23  2  0  0  0  0
 14 25  2  0  0  0  0
 14 26  1  0  0  0  0
 15 28  1  0  0  0  0
 15 60  2  0  0  0  0
 16 27  1  0  0  0  0
 17 27  1  0  0  0  0
 17 31  2  0  0  0  0
 17 32  1  0  0  0  0
 18 20  2  0  0  0  0
 18 37  1  0  0  0  0
 19 21  2  0  0  0  0
 19 38  1  0  0  0  0
 20 46  1  0  0  0  0
 21 39  1  0  0  0  0
 22 76  1  0  0  0  0
 23 77  1  0  0  0  0
 24 26  2  0  0  0  0
 24 76  1  0  0  0  0
 25 78  1  0  0  0  0
 26 79  1  0  0  0  0
 27 61  2  0  0  0  0
 28 33  1  0  0  0  0
 28 62  2  0  0  0  0
 29 30  2  0  0  0  0
 29 49  1  0  0  0  0
 29 62  1  0  0  0  0
 30 55  1  0  0  0  0
 30 60  1  0  0  0  0
 31 63  1  0  0  0  0
 31 66  1  0  0  0  0
 32 67  1  0  0  0  0
 32 71  2  0  0  0  0
 33 64  1  0  0  0  0
 33 72  2  0  0  0  0
 34 47  1  0  0  0  0
 34 68  1  0  0  0  0
 34 73  2  0  0  0  0
 35 57  1  0  0  0  0
 35 65  1  0  0  0  0
 35 74  2  0  0  0  0
 36 58  1  0  0  0  0
 36 69  1  0  0  0  0
 36 75  2  0  0  0  0
 37 40  1  0  0  0  0
 38 47  1  0  0  0  0
 39 65  1  0  0  0  0
 40 42  1  0  0  0  0
 41 43  1  0  0  0  0
 41 44  1  0  0  0  0
 42 46  1  0  0  0  0
 43 48  1  0  0  0  0
 44 64  1  0  0  0  0
 45 48  1  0  0  0  0
 45 64  1  0  0  0  0
 46 68  1  0  0  0  0
 47 65  1  0  0  0  0
 48 63  1  0  0  0  0
 50 58  1  0  0  0  0
 51 59  1  0  0  0  0
 52 59  1  0  0  0  0
 53 59  1  0  0  0  0
 54 70  1  0  0  0  0
 55 56  1  0  0  0  0
 56 77  1  0  0  0  0
 57 59  1  0  0  0  0
 57 69  1  0  0  0  0
 58 70  1  0  0  0  0
 61 63  1  0  0  0  0
M  CHG  1  70   1
M  ISO  4  28 100  33 100  56 101  77 101
M  END
> <Batch ID>
0046

> <Smiles>
CNC(C)C(=O)NC(C(=O)N1Cc2cc([101O:1][101CH2:1]Cc3nc[100c:0]([100C:0](=O)N4CCCC(n5nc(-c6ccc(Oc7ccc(F)cc7F)cc6)c(C(N)=O)c5N)C4)nc3C)ccc2CC1C(=O)NC1CCCc2ccccc21)C(C)(C)C

> <Shape>
0.211

> <Color>
0.088

> <Negative vol penalty>
0.000

$$$$

  -OEChem-04052317213D

 83 91  0     1  0  0  0  0  0999 V2000
  -28.6073  -11.3154   19.8034 C   0  0  0  0  0  0  0  0  0  0  0  0
  -28.7572  -12.6721   19.5345 C   0  0  0  0  0  0  0  0  0  0  0  0
  -22.6882  -25.4586   21.4230 C   0  0  0  0  0  0  0  0  0  0  0  0
  -23.0678  -27.2201   23.0323 C   0  0  0  0  0  0  0  0  0  0  0  0
  -27.3566  -10.8097   20.1553 C   0  0  0  0  0  0  0  0  0  0  0  0
  -27.6560  -13.5237   19.6162 C   0  0  0  0  0  0  0  0  0  0  0  0
  -28.7125  -17.8370   22.0502 C   0  0  0  0  0  0  0  0  0  0  0  0
  -21.3308  -25.4577   21.7440 C   0  0  0  0  0  0  0  0  0  0  0  0
  -21.7104  -27.2193   23.3533 C   0  0  0  0  0  0  0  0  0  0  0  0
  -29.4071  -18.8152   21.3400 C   0  0  0  0  0  0  0  0  0  0  0  0
  -18.2838  -27.9306   24.3385 C   0  0  0  0  0  0  0  0  0  0  0  0
  -17.6425  -29.1642   24.4513 C   0  0  0  0  0  0  0  0  0  0  0  0
  -27.3359  -19.9836   20.9351 C   0  0  0  0  0  0  0  0  0  0  0  0
  -18.1972  -29.6626   22.1532 C   0  0  0  0  0  0  0  0  0  0  0  0
  -32.7282  -23.3039   19.5373 C   0  0  0  0  0  0  0  0  0  0  0  0
  -30.4515  -24.3014   18.5631 C   0  0  0  0  0  0  0  0  0  0  0  0
  -23.5567  -26.3397   22.0672 C   0  0  0  0  0  0  0  0  0  0  0  0
  -25.5982  -27.1091   20.7450 C   0  0  0  0  0  0  0  0  0  0  0  0
  -26.2416  -11.6571   20.2509 C   0  0  0  0  0  0  0  0  0  0  0  0
  -27.3205  -17.9192   22.1991 C   0  0  0  0  0  0  0  0  0  0  0  0
  -26.3889  -13.0286   19.9685 C   0  0  0  0  0  0  0  0  0  0  0  0
  -26.6262  -19.0065   21.6498 C   0  0  0  0  0  0  0  0  0  0  0  0
  -20.8419  -26.3381   22.7091 C   0  0  0  0  0  0  0  0  0  0  0  0
  -28.7185  -19.8871   20.7798 C   0  0  0  0  0  0  0  0  0  0  0  0
  -18.8818  -27.5630   23.1331 C   0  0  0  0  0  0  0  0  0  0  0  0
  -17.5992  -30.0302   23.3587 C   0  0  0  0  0  0  0  0  0  0  0  0
  -18.8385  -28.4290   22.0405 C   0  0  0  0  0  0  0  0  0  0  0  0
  -24.9591  -26.3407   21.7364 C   0  0  0  0  0  0  0  0  0  0  0  0
  -32.4826  -24.6592   19.5511 C   0  0  0  0  0  0  0  0  0  0  0  0
  -30.6973  -22.9461   18.5485 C   0  0  0  0  0  0  0  0  0  0  0  0
  -26.9206  -26.7478   20.8298 C   0  0  0  0  0  0  0  0  0  0  0  0
  -25.0458  -28.0641   19.8292 C   0  0  0  0  0  0  0  0  0  0  0  0
  -24.8600  -16.1080   21.3222 C   0  0  0  0  0  0  0  0  0  0  0  0
  -23.1646  -18.2395   23.0841 C   0  0  0  0  0  0  0  0  0  0  0  0
  -22.9470  -21.3736   24.4171 C   0  0  0  0  0  0  0  0  0  0  0  0
  -31.3113  -25.8354   24.3235 C   0  0  0  0  0  0  0  0  0  0  0  0
  -24.9001  -11.0564   20.5888 C   0  0  0  0  0  0  0  0  0  0  0  0
  -26.5893  -16.8700   22.9909 C   0  0  0  0  0  0  0  0  0  0  0  0
  -25.1345  -19.1517   21.7985 C   0  0  0  0  0  0  0  0  0  0  0  0
  -23.8611  -12.0891   21.0183 C   0  0  0  0  0  0  0  0  0  0  0  0
  -29.1695  -22.9835   23.3333 C   0  0  0  0  0  0  0  0  0  0  0  0
  -23.8642  -13.2786   20.0633 C   0  0  0  0  0  0  0  0  0  0  0  0
  -27.9102  -23.6766   22.8158 C   0  0  0  0  0  0  0  0  0  0  0  0
  -29.8856  -23.8218   24.3878 C   0  0  0  0  0  0  0  0  0  0  0  0
  -28.9492  -25.8972   23.4237 C   0  0  0  0  0  0  0  0  0  0  0  0
  -25.2234  -13.9884   20.0707 C   0  0  1  0  0  0  0  0  0  0  0  0
  -25.1068  -16.7830   22.6417 C   0  0  1  0  0  0  0  0  0  0  0  0
  -28.2292  -25.0997   22.3259 C   0  0  2  0  0  0  0  0  0  0  0  0
  -21.4256  -22.8350   25.7762 C   0  0  0  0  0  0  0  0  0  0  0  0
  -21.3819  -18.6504   20.6422 C   0  0  0  0  0  0  0  0  0  0  0  0
  -20.5196  -20.7440   21.7106 C   0  0  0  0  0  0  0  0  0  0  0  0
  -20.1581  -18.5393   22.8204 C   0  0  0  0  0  0  0  0  0  0  0  0
  -32.6227  -27.8930   23.9682 C   0  0  0  0  0  0  0  0  0  0  0  0
  -24.9590  -21.6668   26.5677 C   0  0  0  0  0  0  0  0  0  0  0  0
  -33.4866  -25.6037   20.1134 C   0  0  0  0  0  0  0  0  0  0  0  0
  -29.6791  -21.9885   17.9788 C   0  0  0  0  0  0  0  0  0  0  0  0
  -33.3245  -25.8886   21.6208 C   0  0  0  0  0  0  0  0  0  0  0  0
  -31.9995  -26.5492   21.9955 C   0  0  0  0  0  0  0  0  0  0  0  0
  -28.6906  -21.4993   19.0316 C   0  0  0  0  0  0  0  0  0  1  0  0
  -22.4746  -19.5520   22.8007 C   0  0  1  0  0  0  0  0  0  0  0  0
  -22.5856  -21.8523   25.8117 C   0  0  2  0  0  0  0  0  0  0  0  0
  -21.1614  -19.3680   21.9888 C   0  0  0  0  0  0  0  0  0  0  0  0
  -31.3398  -25.1823   19.0646 N   0  0  0  0  0  0  0  0  0  0  0  0
  -31.8401  -22.4230   19.0354 N   0  0  0  0  0  0  0  0  0  0  0  0
  -25.8058  -25.5507   22.4021 N   0  0  0  0  0  0  0  0  0  0  0  0
  -26.9904  -25.8208   21.8278 N   0  0  0  0  0  0  0  0  0  0  0  0
  -24.4636  -18.0968   22.5761 N   0  0  0  0  0  0  0  0  0  0  0  0
  -30.1380  -25.1823   23.9119 N   0  0  0  0  0  0  0  0  0  0  0  0
  -28.0188  -27.1357   20.1473 N   0  0  0  0  0  0  0  0  0  0  0  0
  -23.6680  -28.3162   19.8771 N   0  0  0  0  0  0  0  0  0  0  0  0
  -25.3533  -14.8193   21.2485 N   0  0  0  0  0  0  0  0  0  0  0  0
  -22.2919  -20.2045   24.0927 N   0  0  0  0  0  0  0  0  0  0  0  0
  -31.8706  -26.7661   23.4349 N   0  0  0  0  0  0  0  0  0  0  0  0
  -23.7533  -22.5262   26.4468 N   0  3  0  0  0  0  0  0  0  0  0  0
  -25.7506  -28.6637   18.9823 O   0  0  0  0  0  0  0  0  0  0  0  0
  -24.2647  -16.7111   20.4370 O   0  0  0  0  0  0  0  0  0  0  0  0
  -22.5755  -17.3756   23.7385 O   0  0  0  0  0  0  0  0  0  0  0  0
  -23.7291  -21.9785   23.6871 O   0  0  0  0  0  0  0  0  0  0  0  0
  -31.8347  -25.5931   25.4187 O   0  0  0  0  0  0  0  0  0  0  0  0
  -19.5174  -26.3377   23.0225 O   0  0  0  0  0  0  0  0  0  0  0  0
  -29.3940  -20.8429   20.0856 O   0  0  0  0  0  0  0  0  0  1  0  0
  -16.9820  -31.2141   23.4666 F   0  0  0  0  0  0  0  0  0  0  0  0
  -19.4101  -28.0809   20.8795 F   0  0  0  0  0  0  0  0  0  0  0  0
  1  2  1  0  0  0  0
  1  5  2  0  0  0  0
  2  6  2  0  0  0  0
  3  8  2  0  0  0  0
  3 17  1  0  0  0  0
  4  9  1  0  0  0  0
  4 17  2  0  0  0  0
  5 19  1  0  0  0  0
  6 21  1  0  0  0  0
  7 10  2  0  0  0  0
  7 20  1  0  0  0  0
  8 23  1  0  0  0  0
  9 23  2  0  0  0  0
 10 24  1  0  0  0  0
 11 12  2  0  0  0  0
 11 25  1  0  0  0  0
 12 26  1  0  0  0  0
 13 22  1  0  0  0  0
 13 24  2  0  0  0  0
 14 26  2  0  0  0  0
 14 27  1  0  0  0  0
 15 29  2  0  0  0  0
 15 64  1  0  0  0  0
 16 30  1  0  0  0  0
 16 63  2  0  0  0  0
 17 28  1  0  0  0  0
 18 28  1  0  0  0  0
 18 31  2  0  0  0  0
 18 32  1  0  0  0  0
 19 21  2  0  0  0  0
 19 37  1  0  0  0  0
 20 22  2  0  0  0  0
 20 38  1  0  0  0  0
 21 46  1  0  0  0  0
 22 39  1  0  0  0  0
 23 80  1  0  0  0  0
 24 81  1  0  0  0  0
 25 27  2  0  0  0  0
 25 80  1  0  0  0  0
 26 82  1  0  0  0  0
 27 83  1  0  0  0  0
 28 65  2  0  0  0  0
 29 55  1  0  0  0  0
 29 63  1  0  0  0  0
 30 56  1  0  0  0  0
 30 64  2  0  0  0  0
 31 66  1  0  0  0  0
 31 69  1  0  0  0  0
 32 70  1  0  0  0  0
 32 75  2  0  0  0  0
 33 47  1  0  0  0  0
 33 71  1  0  0  0  0
 33 76  2  0  0  0  0
 34 60  1  0  0  0  0
 34 67  1  0  0  0  0
 34 77  2  0  0  0  0
 35 61  1  0  0  0  0
 35 72  1  0  0  0  0
 35 78  2  0  0  0  0
 36 68  1  0  0  0  0
 36 73  1  0  0  0  0
 36 79  2  0  0  0  0
 37 40  1  0  0  0  0
 38 47  1  0  0  0  0
 39 67  1  0  0  0  0
 40 42  1  0  0  0  0
 41 43  1  0  0  0  0
 41 44  1  0  0  0  0
 42 46  1  0  0  0  0
 43 48  1  0  0  0  0
 44 68  1  0  0  0  0
 45 48  1  0  0  0  0
 45 68  1  0  0  0  0
 46 71  1  0  0  0  0
 47 67  1  0  0  0  0
 48 66  1  0  0  0  0
 49 61  1  0  0  0  0
 50 62  1  0  0  0  0
 51 62  1  0  0  0  0
 52 62  1  0  0  0  0
 53 73  1  0  0  0  0
 54 74  1  0  0  0  0
 55 57  1  0  0  0  0
 56 59  1  0  0  0  0
 57 58  1  0  0  0  0
 58 73  1  0  0  0  0
 59 81  1  0  0  0  0
 60 62  1  0  0  0  0
 60 72  1  0  0  0  0
 61 74  1  0  0  0  0
 65 66  1  0  0  0  0
M  CHG  1  74   1
M  ISO  4  36 100  59 101  73 100  81 101
M  END
> <Batch ID>
0046

> <Smiles>
CNC(C)C(=O)NC(C(=O)N1Cc2cc([101O:1][101CH2:1]Cc3cnc(CCC[100N:0](C)[100C:0](=O)N4CCCC(n5nc(-c6ccc(Oc7ccc(F)cc7F)cc6)c(C(N)=O)c5N)C4)cn3)ccc2CC1C(=O)NC1CCCc2ccccc21)C(C)(C)C

> <Shape>
0.197

> <Color>
0.082

> <Negative vol penalty>
0.000

$$$$

  -OEChem-04052317213D

 85 93  0     1  0  0  0  0  0999 V2000
  -19.6564  -34.1720   21.3052 C   0  0  0  0  0  0  0  0  0  0  0  0
  -20.9517  -33.7730   20.9915 C   0  0  0  0  0  0  0  0  0  0  0  0
  -26.1036  -13.5383   22.0570 C   0  0  0  0  0  0  0  0  0  0  0  0
  -25.9501  -12.7005   19.7961 C   0  0  0  0  0  0  0  0  0  0  0  0
  -18.9240  -33.4694   22.2612 C   0  0  0  0  0  0  0  0  0  0  0  0
  -21.5158  -32.6717   21.6345 C   0  0  0  0  0  0  0  0  0  0  0  0
  -25.4060  -28.5990   19.2294 C   0  0  0  0  0  0  0  0  0  0  0  0
  -24.9775  -12.7944   22.4091 C   0  0  0  0  0  0  0  0  0  0  0  0
  -24.8240  -11.9566   20.1482 C   0  0  0  0  0  0  0  0  0  0  0  0
  -26.7934  -28.4765   19.2925 C   0  0  0  0  0  0  0  0  0  0  0  0
  -22.1222   -9.5557   20.5411 C   0  0  0  0  0  0  0  0  0  0  0  0
  -22.0541   -8.2336   20.1019 C   0  0  0  0  0  0  0  0  0  0  0  0
  -26.5665  -26.9116   21.1142 C   0  0  0  0  0  0  0  0  0  0  0  0
  -28.3757  -25.0476   17.7590 C   0  0  0  0  0  0  0  0  0  0  0  0
  -24.0875   -7.7291   21.3051 C   0  0  0  0  0  0  0  0  0  0  0  0
  -30.3132  -23.6691   17.7082 C   0  0  0  0  0  0  0  0  0  0  0  0
  -26.5900  -13.4914   20.7505 C   0  0  0  0  0  0  0  0  0  0  0  0
  -29.0976  -13.8480   20.4472 C   0  0  0  0  0  0  0  0  0  0  0  0
  -19.4759  -32.3531   22.9091 C   0  0  0  0  0  0  0  0  0  0  0  0
  -24.5875  -27.8858   20.1170 C   0  0  0  0  0  0  0  0  0  0  0  0
  -20.7905  -31.9543   22.6009 C   0  0  0  0  0  0  0  0  0  0  0  0
  -25.1689  -27.0248   21.0587 C   0  0  0  0  0  0  0  0  0  0  0  0
  -29.7357  -24.8934   18.0038 C   0  0  0  0  0  0  0  0  0  0  0  0
  -27.6451  -23.9877   17.2335 C   0  0  0  0  0  0  0  0  0  0  0  0
  -24.3377  -12.0036   21.4548 C   0  0  0  0  0  0  0  0  0  0  0  0
  -27.3740  -27.6350   20.2369 C   0  0  0  0  0  0  0  0  0  0  0  0
  -23.1731   -9.9646   21.3622 C   0  0  0  0  0  0  0  0  0  0  0  0
  -23.0367   -7.3203   20.4839 C   0  0  0  0  0  0  0  0  0  0  0  0
  -24.1557   -9.0513   21.7443 C   0  0  0  0  0  0  0  0  0  0  0  0
  -27.7529  -14.2600   20.3860 C   0  0  0  0  0  0  0  0  0  0  0  0
  -28.3162  -22.8040   16.9722 C   0  0  0  0  0  0  0  0  0  0  0  0
  -29.8098  -14.9324   19.9961 C   0  0  0  0  0  0  0  0  0  0  0  0
  -29.6533  -12.5970   20.8735 C   0  0  0  0  0  0  0  0  0  0  0  0
  -22.4954  -28.6841   22.3731 C   0  0  0  0  0  0  0  0  0  0  0  0
  -21.9611  -25.4858   22.4622 C   0  0  0  0  0  0  0  0  0  0  0  0
  -23.1287  -22.3356   21.8627 C   0  0  0  0  0  0  0  0  0  0  0  0
  -28.5758  -19.3043   16.3946 C   0  0  0  0  0  0  0  0  0  0  0  0
  -18.6628  -31.6538   23.9697 C   0  0  0  0  0  0  0  0  0  0  0  0
  -23.0916  -28.0084   20.0185 C   0  0  0  0  0  0  0  0  0  0  0  0
  -24.3337  -26.2217   22.0210 C   0  0  0  0  0  0  0  0  0  0  0  0
  -19.1974  -30.2712   24.3341 C   0  0  0  0  0  0  0  0  0  0  0  0
  -29.6317  -19.6984   19.7415 C   0  0  0  0  0  0  0  0  0  0  0  0
  -20.7077  -30.3208   24.5427 C   0  0  0  0  0  0  0  0  0  0  0  0
  -29.3908  -18.2973   20.3018 C   0  0  0  0  0  0  0  0  0  0  0  0
  -28.5158  -20.1370   18.7914 C   0  0  0  0  0  0  0  0  0  0  0  0
  -28.0088  -17.7746   18.2576 C   0  0  0  0  0  0  0  0  0  0  0  0
  -21.4281  -30.7498   23.2588 C   0  0  1  0  0  0  0  0  0  0  0  0
  -22.3746  -27.6287   21.3104 C   0  0  1  0  0  0  0  0  0  0  0  0
  -29.1458  -17.2862   19.1683 C   0  0  2  0  0  0  0  0  0  0  0  0
  -26.1872  -24.1455   16.9705 C   0  0  0  0  0  0  0  0  0  0  0  0
  -28.8046  -20.9926   12.0889 C   0  0  0  0  0  0  0  0  0  0  0  0
  -22.4789  -19.9208   22.0724 C   0  0  0  0  0  0  0  0  0  0  0  0
  -22.4827  -25.6089   25.4660 C   0  0  0  0  0  0  0  0  0  0  0  0
  -22.7613  -23.1208   25.4491 C   0  0  0  0  0  0  0  0  0  0  0  0
  -20.5768  -24.1340   24.7977 C   0  0  0  0  0  0  0  0  0  0  0  0
  -23.3366  -21.9058   18.9419 C   0  0  0  0  0  0  0  0  0  0  0  0
  -30.5566  -26.0233   18.5721 C   0  0  0  0  0  0  0  0  0  0  0  0
  -27.5826  -21.6320   16.4065 C   0  0  0  0  0  0  0  0  0  0  0  0
  -28.1570  -20.7005   13.4353 C   0  0  0  0  0  0  0  0  0  0  0  0
  -30.6088  -26.0380   20.1014 C   0  0  0  0  0  0  0  0  0  0  0  0
  -29.1089  -20.9151   14.6059 C   0  0  0  0  0  0  0  0  0  0  0  0
  -29.2478  -26.2633   20.7498 C   0  0  0  0  0  0  0  0  0  1  0  0
  -22.5489  -24.3247   23.2272 C   0  0  1  0  0  0  0  0  0  0  0  0
  -22.4976  -21.1428   21.1674 C   0  0  2  0  0  0  0  0  0  0  0  0
  -22.1085  -24.3136   24.7183 C   0  0  0  0  0  0  0  0  0  0  0  0
  -29.6361  -22.6167   17.1969 N   0  0  0  0  0  0  0  0  0  0  0  0
  -27.6163  -15.5088   19.9320 N   0  0  0  0  0  0  0  0  0  0  0  0
  -28.8845  -15.8908   19.7039 N   0  0  0  0  0  0  0  0  0  0  0  0
  -22.8760  -26.3806   21.8893 N   0  0  0  0  0  0  0  0  0  0  0  0
  -28.2824  -19.1228   17.7542 N   0  0  0  0  0  0  0  0  0  0  0  0
  -31.1311  -15.1501   19.8250 N   0  0  0  0  0  0  0  0  0  0  0  0
  -28.7792  -11.5906   21.3065 N   0  0  0  0  0  0  0  0  0  0  0  0
  -21.5028  -29.6444   22.3277 N   0  0  0  0  0  0  0  0  0  0  0  0
  -22.1835  -23.1216   22.4873 N   0  0  0  0  0  0  0  0  0  0  0  0
  -28.4889  -20.6096   15.8875 N   0  0  0  0  0  0  0  0  0  0  0  0
  -23.2583  -20.8012   19.9322 N   0  3  0  0  0  0  0  0  0  0  0  0
  -30.8894  -12.3837   20.8860 O   0  0  0  0  0  0  0  0  0  0  0  0
  -23.4199  -28.6303   23.1757 O   0  0  0  0  0  0  0  0  0  0  0  0
  -20.7355  -25.5911   22.3702 O   0  0  0  0  0  0  0  0  0  0  0  0
  -24.3394  -22.5468   21.8559 O   0  0  0  0  0  0  0  0  0  0  0  0
  -28.8907  -18.3515   15.6700 O   0  0  0  0  0  0  0  0  0  0  0  0
  -23.2389  -11.2774   21.7981 O   0  0  0  0  0  0  0  0  0  0  0  0
  -28.7279  -27.5141   20.3010 O   0  0  0  0  0  0  0  0  0  1  0  0
  -22.9703   -6.0503   20.0634 F   0  0  0  0  0  0  0  0  0  0  0  0
  -25.1669   -9.4379   22.5340 F   0  0  0  0  0  0  0  0  0  0  0  0
  1  2  1  0  0  0  0
  1  5  2  0  0  0  0
  2  6  2  0  0  0  0
  3  8  2  0  0  0  0
  3 17  1  0  0  0  0
  4  9  1  0  0  0  0
  4 17  2  0  0  0  0
  5 19  1  0  0  0  0
  6 21  1  0  0  0  0
  7 10  2  0  0  0  0
  7 20  1  0  0  0  0
  8 25  1  0  0  0  0
  9 25  2  0  0  0  0
 10 26  1  0  0  0  0
 11 12  2  0  0  0  0
 11 27  1  0  0  0  0
 12 28  1  0  0  0  0
 13 22  1  0  0  0  0
 13 26  2  0  0  0  0
 14 23  2  0  0  0  0
 14 24  1  0  0  0  0
 15 28  2  0  0  0  0
 15 29  1  0  0  0  0
 16 23  1  0  0  0  0
 16 66  2  0  0  0  0
 17 30  1  0  0  0  0
 18 30  1  0  0  0  0
 18 32  2  0  0  0  0
 18 33  1  0  0  0  0
 19 21  2  0  0  0  0
 19 38  1  0  0  0  0
 20 22  2  0  0  0  0
 20 39  1  0  0  0  0
 21 47  1  0  0  0  0
 22 40  1  0  0  0  0
 23 57  1  0  0  0  0
 24 31  2  0  0  0  0
 24 50  1  0  0  0  0
 25 82  1  0  0  0  0
 26 83  1  0  0  0  0
 27 29  2  0  0  0  0
 27 82  1  0  0  0  0
 28 84  1  0  0  0  0
 29 85  1  0  0  0  0
 30 67  2  0  0  0  0
 31 58  1  0  0  0  0
 31 66  1  0  0  0  0
 32 68  1  0  0  0  0
 32 71  1  0  0  0  0
 33 72  1  0  0  0  0
 33 77  2  0  0  0  0
 34 48  1  0  0  0  0
 34 73  1  0  0  0  0
 34 78  2  0  0  0  0
 35 63  1  0  0  0  0
 35 69  1  0  0  0  0
 35 79  2  0  0  0  0
 36 64  1  0  0  0  0
 36 74  1  0  0  0  0
 36 80  2  0  0  0  0
 37 70  1  0  0  0  0
 37 75  1  0  0  0  0
 37 81  2  0  0  0  0
 38 41  1  0  0  0  0
 39 48  1  0  0  0  0
 40 69  1  0  0  0  0
 41 43  1  0  0  0  0
 42 44  1  0  0  0  0
 42 45  1  0  0  0  0
 43 47  1  0  0  0  0
 44 49  1  0  0  0  0
 45 70  1  0  0  0  0
 46 49  1  0  0  0  0
 46 70  1  0  0  0  0
 47 73  1  0  0  0  0
 48 69  1  0  0  0  0
 49 68  1  0  0  0  0
 51 59  1  0  0  0  0
 52 64  1  0  0  0  0
 53 65  1  0  0  0  0
 54 65  1  0  0  0  0
 55 65  1  0  0  0  0
 56 76  1  0  0  0  0
 57 60  1  0  0  0  0
 58 75  1  0  0  0  0
 59 61  1  0  0  0  0
 60 62  1  0  0  0  0
 61 75  1  0  0  0  0
 62 83  1  0  0  0  0
 63 65  1  0  0  0  0
 63 74  1  0  0  0  0
 64 76  1  0  0  0  0
 67 68  1  0  0  0  0
M  CHG  1  76   1
M  ISO  4  37 100  62 101  75 100  83 101
M  END
> <Batch ID>
0046

> <Smiles>
CCC[100N:0](Cc1ncc(CC[101CH2:1][101O:1]c2ccc3c(c2)CN(C(=O)C(NC(=O)C(C)NC)C(C)(C)C)C(C(=O)NC2CCCc4ccccc42)C3)cc1C)[100C:0](=O)N1CCCC(n2nc(-c3ccc(Oc4ccc(F)cc4F)cc3)c(C(N)=O)c2N)C1

> <Shape>
0.247

> <Color>
0.102

> <Negative vol penalty>
0.000

$$$$

  -OEChem-04052317213D

 88 96  0     1  0  0  0  0  0999 V2000
  -32.1419  -14.9494   21.0474 C   0  0  0  0  0  0  0  0  0  0  0  0
  -31.1189  -15.8525   21.3178 C   0  0  0  0  0  0  0  0  0  0  0  0
  -26.0187  -30.8432   20.8049 C   0  0  0  0  0  0  0  0  0  0  0  0
  -25.0870  -28.6442   21.1706 C   0  0  0  0  0  0  0  0  0  0  0  0
  -31.8583  -13.7528   20.3904 C   0  0  0  0  0  0  0  0  0  0  0  0
  -29.8117  -15.5601   20.9303 C   0  0  0  0  0  0  0  0  0  0  0  0
  -26.4346  -16.5766   24.5644 C   0  0  0  0  0  0  0  0  0  0  0  0
  -23.9913  -23.0569   22.3531 C   0  0  0  0  0  0  0  0  0  0  0  0
  -24.9855  -23.9076   21.8699 C   0  0  0  0  0  0  0  0  0  0  0  0
  -24.7321  -31.3794   20.7518 C   0  0  0  0  0  0  0  0  0  0  0  0
  -23.8004  -29.1805   21.1175 C   0  0  0  0  0  0  0  0  0  0  0  0
  -26.0750  -17.9116   24.7440 C   0  0  0  0  0  0  0  0  0  0  0  0
  -21.7292  -30.8891   23.1696 C   0  0  0  0  0  0  0  0  0  0  0  0
  -20.8166  -30.4778   24.1411 C   0  0  0  0  0  0  0  0  0  0  0  0
  -24.0529  -17.5301   23.4851 C   0  0  0  0  0  0  0  0  0  0  0  0
  -25.2263  -22.7825   24.4113 C   0  0  0  0  0  0  0  0  0  0  0  0
  -19.3661  -29.6140   22.4128 C   0  0  0  0  0  0  0  0  0  0  0  0
  -26.1961  -29.4755   21.0143 C   0  0  0  0  0  0  0  0  0  0  0  0
  -28.5486  -29.2541   21.9757 C   0  0  0  0  0  0  0  0  0  0  0  0
  -30.5454  -13.4412   20.0032 C   0  0  0  0  0  0  0  0  0  0  0  0
  -25.6100  -15.7096   23.8332 C   0  0  0  0  0  0  0  0  0  0  0  0
  -29.5104  -14.3588   20.2662 C   0  0  0  0  0  0  0  0  0  0  0  0
  -24.4031  -16.1839   23.2998 C   0  0  0  0  0  0  0  0  0  0  0  0
  -24.1116  -22.4944   23.6239 C   0  0  0  0  0  0  0  0  0  0  0  0
  -26.1001  -24.1957   22.6574 C   0  0  0  0  0  0  0  0  0  0  0  0
  -26.2206  -23.6331   23.9282 C   0  0  0  0  0  0  0  0  0  0  0  0
  -23.6230  -30.5481   20.9081 C   0  0  0  0  0  0  0  0  0  0  0  0
  -24.8855  -18.3892   24.2019 C   0  0  0  0  0  0  0  0  0  0  0  0
  -21.4601  -30.6629   21.8197 C   0  0  0  0  0  0  0  0  0  0  0  0
  -19.6351  -29.8402   23.7627 C   0  0  0  0  0  0  0  0  0  0  0  0
  -20.2786  -30.0254   21.4413 C   0  0  0  0  0  0  0  0  0  0  0  0
  -27.5248  -28.9209   21.0687 C   0  0  0  0  0  0  0  0  0  0  0  0
  -29.6041  -28.4545   21.6109 C   0  0  0  0  0  0  0  0  0  0  0  0
  -28.5458  -30.2016   23.0517 C   0  0  0  0  0  0  0  0  0  0  0  0
  -25.9422  -14.0175   21.1629 C   0  0  0  0  0  0  0  0  0  0  0  0
  -23.0271  -12.8627   21.9942 C   0  0  0  0  0  0  0  0  0  0  0  0
  -20.1093  -13.3207   23.7040 C   0  0  0  0  0  0  0  0  0  0  0  0
  -30.0762  -23.2641   18.8699 C   0  0  0  0  0  0  0  0  0  0  0  0
  -30.2952  -12.1567   19.2534 C   0  0  0  0  0  0  0  0  0  0  0  0
  -25.9991  -14.2657   23.6712 C   0  0  0  0  0  0  0  0  0  0  0  0
  -23.4728  -15.2888   22.5240 C   0  0  0  0  0  0  0  0  0  0  0  0
  -28.8235  -11.7537   19.2097 C   0  0  0  0  0  0  0  0  0  0  0  0
  -31.5093  -26.2457   17.8294 C   0  0  0  0  0  0  0  0  0  0  0  0
  -27.9530  -12.9503   18.8392 C   0  0  0  0  0  0  0  0  0  0  0  0
  -30.7547  -27.3123   18.6218 C   0  0  0  0  0  0  0  0  0  0  0  0
  -30.5617  -25.1540   17.3469 C   0  0  0  0  0  0  0  0  0  0  0  0
  -29.0334  -25.5470   19.2525 C   0  0  0  0  0  0  0  0  0  0  0  0
  -28.0758  -14.0663   19.8838 C   0  0  1  0  0  0  0  0  0  0  0  0
  -25.3337  -13.5986   22.4713 C   0  0  1  0  0  0  0  0  0  0  0  0
  -29.9462  -26.6788   19.7675 C   0  0  2  0  0  0  0  0  0  0  0  0
  -28.2734  -25.2097   26.7927 C   0  0  0  0  0  0  0  0  0  0  0  0
  -28.9125  -18.9527   20.1454 C   0  0  0  0  0  0  0  0  0  0  0  0
  -17.9010  -12.2203   24.1622 C   0  0  0  0  0  0  0  0  0  0  0  0
  -22.0600  -13.6495   19.2093 C   0  0  0  0  0  0  0  0  0  0  0  0
  -19.7084  -13.4215   20.0376 C   0  0  0  0  0  0  0  0  0  0  0  0
  -21.2201  -11.4374   20.0189 C   0  0  0  0  0  0  0  0  0  0  0  0
  -20.6456  -13.1914   26.6117 C   0  0  0  0  0  0  0  0  0  0  0  0
  -23.0359  -21.5735   24.1463 C   0  0  0  0  0  0  0  0  0  0  0  0
  -27.1523  -25.1084   22.1183 C   0  0  0  0  0  0  0  0  0  0  0  0
  -27.4052  -23.9269   24.7890 C   0  0  0  0  0  0  0  0  0  0  0  0
  -27.0753  -24.9375   25.8969 C   0  0  0  0  0  0  0  0  0  0  0  0
  -28.6879  -20.3778   19.6592 C   0  0  0  0  0  0  0  0  0  0  0  0
  -28.3984  -24.3880   21.5689 C   0  0  0  0  0  0  0  0  0  0  0  0
  -29.5579  -21.3936   20.3898 C   0  0  0  0  0  0  0  0  0  0  0  0
  -28.1058  -23.3871   20.4532 C   0  0  0  0  0  0  0  0  0  0  0  0
  -23.3000  -20.1140   23.7926 C   0  0  0  0  0  0  0  0  0  1  0  0
  -21.5989  -13.2682   21.7209 C   0  0  1  0  0  0  0  0  0  0  0  0
  -19.3340  -12.4072   24.6361 C   0  0  2  0  0  0  0  0  0  0  0  0
  -21.1651  -12.9618   20.2596 C   0  0  0  0  0  0  0  0  0  0  0  0
  -27.8964  -27.9828   20.1935 N   0  0  0  0  0  0  0  0  0  0  0  0
  -29.1656  -27.7198   20.5488 N   0  0  0  0  0  0  0  0  0  0  0  0
  -23.9005  -13.8867   22.3873 N   0  0  0  0  0  0  0  0  0  0  0  0
  -29.8065  -24.5783   18.4601 N   0  0  0  0  0  0  0  0  0  0  0  0
  -30.8553  -28.3153   22.0983 N   0  0  0  0  0  0  0  0  0  0  0  0
  -28.1472  -29.7674   24.3233 N   0  0  0  0  0  0  0  0  0  0  0  0
  -27.2933  -13.7471   21.0586 N   0  0  0  0  0  0  0  0  0  0  0  0
  -20.7857  -12.6082   22.7365 N   0  0  0  0  0  0  0  0  0  0  0  0
  -29.3187  -22.7562   19.9360 N   0  0  0  0  0  0  0  0  0  0  0  0
  -19.3031  -12.9771   26.0127 N   0  3  0  0  0  0  0  0  0  0  0  0
  -28.8708  -31.4019   22.8868 O   0  0  0  0  0  0  0  0  0  0  0  0
  -25.2378  -14.5456   20.3105 O   0  0  0  0  0  0  0  0  0  0  0  0
  -23.3541  -11.6797   21.8705 O   0  0  0  0  0  0  0  0  0  0  0  0
  -20.1116  -14.5442   23.8202 O   0  0  0  0  0  0  0  0  0  0  0  0
  -30.9411  -22.5783   18.3097 O   0  0  0  0  0  0  0  0  0  0  0  0
  -22.3675  -31.0711   20.8565 O   0  0  0  0  0  0  0  0  0  0  0  0
  -24.5324  -19.6920   24.3753 O   0  0  0  0  0  0  0  0  0  1  0  0
  -18.7596  -29.4439   24.6957 F   0  0  0  0  0  0  0  0  0  0  0  0
  -20.0152  -29.8042   20.1461 F   0  0  0  0  0  0  0  0  0  0  0  0
  1  2  1  0  0  0  0
  1  5  2  0  0  0  0
  2  6  2  0  0  0  0
  3 10  2  0  0  0  0
  3 18  1  0  0  0  0
  4 11  1  0  0  0  0
  4 18  2  0  0  0  0
  5 20  1  0  0  0  0
  6 22  1  0  0  0  0
  7 12  2  0  0  0  0
  7 21  1  0  0  0  0
  8  9  2  0  0  0  0
  8 24  1  0  0  0  0
  9 25  1  0  0  0  0
 10 27  1  0  0  0  0
 11 27  2  0  0  0  0
 12 28  1  0  0  0  0
 13 14  2  0  0  0  0
 13 29  1  0  0  0  0
 14 30  1  0  0  0  0
 15 23  1  0  0  0  0
 15 28  2  0  0  0  0
 16 24  2  0  0  0  0
 16 26  1  0  0  0  0
 17 30  2  0  0  0  0
 17 31  1  0  0  0  0
 18 32  1  0  0  0  0
 19 32  1  0  0  0  0
 19 33  2  0  0  0  0
 19 34  1  0  0  0  0
 20 22  2  0  0  0  0
 20 39  1  0  0  0  0
 21 23  2  0  0  0  0
 21 40  1  0  0  0  0
 22 48  1  0  0  0  0
 23 41  1  0  0  0  0
 24 58  1  0  0  0  0
 25 26  2  0  0  0  0
 25 59  1  0  0  0  0
 26 60  1  0  0  0  0
 27 85  1  0  0  0  0
 28 86  1  0  0  0  0
 29 31  2  0  0  0  0
 29 85  1  0  0  0  0
 30 87  1  0  0  0  0
 31 88  1  0  0  0  0
 32 70  2  0  0  0  0
 33 71  1  0  0  0  0
 33 74  1  0  0  0  0
 34 75  1  0  0  0  0
 34 80  2  0  0  0  0
 35 49  1  0  0  0  0
 35 76  1  0  0  0  0
 35 81  2  0  0  0  0
 36 67  1  0  0  0  0
 36 72  1  0  0  0  0
 36 82  2  0  0  0  0
 37 68  1  0  0  0  0
 37 77  1  0  0  0  0
 37 83  2  0  0  0  0
 38 73  1  0  0  0  0
 38 78  1  0  0  0  0
 38 84  2  0  0  0  0
 39 42  1  0  0  0  0
 40 49  1  0  0  0  0
 41 72  1  0  0  0  0
 42 44  1  0  0  0  0
 43 45  1  0  0  0  0
 43 46  1  0  0  0  0
 44 48  1  0  0  0  0
 45 50  1  0  0  0  0
 46 73  1  0  0  0  0
 47 50  1  0  0  0  0
 47 73  1  0  0  0  0
 48 76  1  0  0  0  0
 49 72  1  0  0  0  0
 50 71  1  0  0  0  0
 51 61  1  0  0  0  0
 52 62  1  0  0  0  0
 53 68  1  0  0  0  0
 54 69  1  0  0  0  0
 55 69  1  0  0  0  0
 56 69  1  0  0  0  0
 57 79  1  0  0  0  0
 58 66  1  0  0  0  0
 59 63  1  0  0  0  0
 60 61  1  0  0  0  0
 62 64  1  0  0  0  0
 63 65  1  0  0  0  0
 64 78  1  0  0  0  0
 65 78  1  0  0  0  0
 66 86  1  0  0  0  0
 67 69  1  0  0  0  0
 67 77  1  0  0  0  0
 68 79  1  0  0  0  0
 70 71  1  0  0  0  0
M  CHG  1  79   1
M  ISO  4  38 100  66 101  78 100  86 101
M  END
> <Batch ID>
0046

> <Smiles>
CCCc1cc(C[101CH2:1][101O:1]c2ccc3c(c2)CN(C(=O)C(NC(=O)C(C)NC)C(C)(C)C)C(C(=O)NC2CCCc4ccccc42)C3)ccc1CCC[100N:0](CCC)[100C:0](=O)N1CCCC(n2nc(-c3ccc(Oc4ccc(F)cc4F)cc3)c(C(N)=O)c2N)C1

> <Shape>
0.275

> <Color>
0.053

> <Negative vol penalty>
0.000

$$$$

  -OEChem-04052317213D

 85 93  0     1  0  0  0  0  0999 V2000
  -25.5678  -20.9146   29.1324 C   0  0  0  0  0  0  0  0  0  0  0  0
  -26.3940  -21.4503   28.1497 C   0  0  0  0  0  0  0  0  0  0  0  0
  -26.8878  -13.0383   21.0927 C   0  0  0  0  0  0  0  0  0  0  0  0
  -26.5648  -13.5233   18.7480 C   0  0  0  0  0  0  0  0  0  0  0  0
  -24.1918  -20.8399   28.9201 C   0  0  0  0  0  0  0  0  0  0  0  0
  -25.8448  -21.9106   26.9535 C   0  0  0  0  0  0  0  0  0  0  0  0
  -27.7637  -26.6715   23.6132 C   0  0  0  0  0  0  0  0  0  0  0  0
  -26.2015  -11.8339   20.9381 C   0  0  0  0  0  0  0  0  0  0  0  0
  -25.8785  -12.3188   18.5934 C   0  0  0  0  0  0  0  0  0  0  0  0
  -28.5666  -26.7570   22.4766 C   0  0  0  0  0  0  0  0  0  0  0  0
  -24.2212   -8.7987   21.2375 C   0  0  0  0  0  0  0  0  0  0  0  0
  -23.2681   -8.4655   22.1999 C   0  0  0  0  0  0  0  0  0  0  0  0
  -26.5914  -26.8154   21.0930 C   0  0  0  0  0  0  0  0  0  0  0  0
  -22.0337  -10.4744   21.6729 C   0  0  0  0  0  0  0  0  0  0  0  0
  -27.5344  -22.2460   16.0866 C   0  0  0  0  0  0  0  0  0  0  0  0
  -26.9176  -24.0238   17.2241 C   0  0  0  0  0  0  0  0  0  0  0  0
  -27.0695  -13.8830   19.9976 C   0  0  0  0  0  0  0  0  0  0  0  0
  -29.1614  -15.3430   20.0105 C   0  0  0  0  0  0  0  0  0  0  0  0
  -23.6244  -21.3085   27.7246 C   0  0  0  0  0  0  0  0  0  0  0  0
  -26.3665  -26.6463   23.4973 C   0  0  0  0  0  0  0  0  0  0  0  0
  -24.4601  -21.8409   26.7244 C   0  0  0  0  0  0  0  0  0  0  0  0
  -25.7730  -26.7321   22.2298 C   0  0  0  0  0  0  0  0  0  0  0  0
  -26.5372  -22.7321   16.9532 C   0  0  0  0  0  0  0  0  0  0  0  0
  -25.6968  -11.4741   19.6885 C   0  0  0  0  0  0  0  0  0  0  0  0
  -27.9806  -26.8261   21.2161 C   0  0  0  0  0  0  0  0  0  0  0  0
  -24.0806   -9.9698   20.4929 C   0  0  0  0  0  0  0  0  0  0  0  0
  -22.1743   -9.3033   22.4176 C   0  0  0  0  0  0  0  0  0  0  0  0
  -22.9869  -10.8076   20.7106 C   0  0  0  0  0  0  0  0  0  0  0  0
  -27.7779  -15.1276   20.1568 C   0  0  0  0  0  0  0  0  0  0  0  0
  -29.3289  -16.6825   20.2637 C   0  0  0  0  0  0  0  0  0  0  0  0
  -30.2019  -14.4152   19.6757 C   0  0  0  0  0  0  0  0  0  0  0  0
  -24.0908  -24.5575   24.2472 C   0  0  0  0  0  0  0  0  0  0  0  0
  -22.1205  -26.9692   23.3395 C   0  0  0  0  0  0  0  0  0  0  0  0
  -21.6777  -29.8156   21.5095 C   0  0  0  0  0  0  0  0  0  0  0  0
  -25.6686  -21.4018   19.8377 C   0  0  0  0  0  0  0  0  0  0  0  0
  -22.1370  -21.1634   27.5213 C   0  0  0  0  0  0  0  0  0  0  0  0
  -25.5139  -26.5807   24.7347 C   0  0  0  0  0  0  0  0  0  0  0  0
  -24.2773  -26.7291   22.0527 C   0  0  0  0  0  0  0  0  0  0  0  0
  -21.5923  -22.0170   26.3790 C   0  0  0  0  0  0  0  0  0  0  0  0
  -27.4046  -20.2943   22.7422 C   0  0  0  0  0  0  0  0  0  0  0  0
  -22.4748  -21.8800   25.1424 C   0  0  0  0  0  0  0  0  0  0  0  0
  -27.8220  -18.8640   22.3958 C   0  0  0  0  0  0  0  0  0  0  0  0
  -26.0328  -20.6372   22.1657 C   0  0  0  0  0  0  0  0  0  0  0  0
  -26.3115  -18.9727   20.3697 C   0  0  0  0  0  0  0  0  0  0  0  0
  -23.8991  -22.3735   25.4237 C   0  0  1  0  0  0  0  0  0  0  0  0
  -24.1114  -26.0439   24.4663 C   0  0  1  0  0  0  0  0  0  0  0  0
  -27.7129  -18.5991   20.8821 C   0  0  2  0  0  0  0  0  0  0  0  0
  -19.9475  -31.5412   20.9385 C   0  0  0  0  0  0  0  0  0  0  0  0
  -29.6126  -23.6350   19.2786 C   0  0  0  0  0  0  0  0  0  0  0  0
  -31.3170  -25.4321   19.6103 C   0  0  0  0  0  0  0  0  0  0  0  0
  -20.7732  -24.9892   21.4488 C   0  0  0  0  0  0  0  0  0  0  0  0
  -19.7408  -26.9350   20.2588 C   0  0  0  0  0  0  0  0  0  0  0  0
  -19.2008  -26.5128   22.6573 C   0  0  0  0  0  0  0  0  0  0  0  0
  -30.1278  -25.2504   15.5701 C   0  0  0  0  0  0  0  0  0  0  0  0
  -28.1571  -26.7163   15.8542 C   0  0  0  0  0  0  0  0  0  0  0  0
  -23.2990  -31.9969   22.6808 C   0  0  0  0  0  0  0  0  0  0  0  0
  -25.3515  -22.0198   17.4552 C   0  0  0  0  0  0  0  0  0  0  0  0
  -28.2449  -26.3388   18.9034 C   0  0  0  0  0  0  0  0  0  1  0  0
  -21.4863  -27.3995   22.0388 C   0  0  1  0  0  0  0  0  0  0  0  0
  -21.0863  -31.1654   21.8737 C   0  0  2  0  0  0  0  0  0  0  0  0
  -30.3361  -24.8079   18.6062 C   0  0  0  0  0  0  0  0  0  0  0  0
  -29.3992  -25.9036   17.9705 C   0  0  1  0  0  0  0  0  0  0  0  0
  -20.3285  -26.4572   21.6038 C   0  0  0  0  0  0  0  0  0  0  0  0
  -28.9134  -25.5294   16.4983 C   0  0  0  0  0  0  0  0  0  0  0  0
  -28.4774  -23.1548   15.8243 N   0  0  0  0  0  0  0  0  0  0  0  0
  -27.1138  -16.2410   20.4781 N   0  0  0  0  0  0  0  0  0  0  0  0
  -28.0743  -24.2251   16.5301 N   0  0  0  0  0  0  0  0  0  0  0  0
  -28.0842  -17.1690   20.5359 N   0  0  0  0  0  0  0  0  0  0  0  0
  -23.4866  -26.6571   23.2925 N   0  0  0  0  0  0  0  0  0  0  0  0
  -25.9964  -20.3648   20.7268 N   0  0  0  0  0  0  0  0  0  0  0  0
  -30.4182  -17.4799   20.2778 N   0  0  0  0  0  0  0  0  0  0  0  0
  -29.8555  -13.0765   19.4473 N   0  0  0  0  0  0  0  0  0  0  0  0
  -23.9455  -23.8199   25.4066 N   0  0  0  0  0  0  0  0  0  0  0  0
  -21.0880  -28.7913   22.2197 N   0  0  0  0  0  0  0  0  0  0  0  0
  -25.6632  -21.0601   18.4909 N   0  0  0  0  0  0  0  0  0  0  0  0
  -22.1297  -32.2266   21.7938 N   0  3  0  0  0  0  0  0  0  0  0  0
  -31.4056  -14.7597   19.5980 O   0  0  0  0  0  0  0  0  0  0  0  0
  -24.1974  -24.1129   23.1103 O   0  0  0  0  0  0  0  0  0  0  0  0
  -21.4308  -26.9189   24.3610 O   0  0  0  0  0  0  0  0  0  0  0  0
  -22.5706  -29.6827   20.6755 O   0  0  0  0  0  0  0  0  0  0  0  0
  -25.4057  -22.5484   20.2159 O   0  0  0  0  0  0  0  0  0  0  0  0
  -25.0273  -10.2988   19.5372 O   0  0  0  0  0  0  0  0  0  0  0  0
  -28.7620  -26.9089   20.1050 O   0  0  0  0  0  0  0  0  0  1  0  0
  -21.2584   -8.9824   23.3407 F   0  0  0  0  0  0  0  0  0  0  0  0
  -22.8458  -11.9334   19.9975 F   0  0  0  0  0  0  0  0  0  0  0  0
  1  2  1  0  0  0  0
  1  5  2  0  0  0  0
  2  6  2  0  0  0  0
  3  8  2  0  0  0  0
  3 17  1  0  0  0  0
  4  9  1  0  0  0  0
  4 17  2  0  0  0  0
  5 19  1  0  0  0  0
  6 21  1  0  0  0  0
  7 10  2  0  0  0  0
  7 20  1  0  0  0  0
  8 24  1  0  0  0  0
  9 24  2  0  0  0  0
 10 25  1  0  0  0  0
 11 12  2  0  0  0  0
 11 26  1  0  0  0  0
 12 27  1  0  0  0  0
 13 22  1  0  0  0  0
 13 25  2  0  0  0  0
 14 27  2  0  0  0  0
 14 28  1  0  0  0  0
 15 23  1  0  0  0  0
 15 65  2  0  0  0  0
 16 23  2  0  0  0  0
 16 67  1  0  0  0  0
 17 29  1  0  0  0  0
 18 29  1  0  0  0  0
 18 30  2  0  0  0  0
 18 31  1  0  0  0  0
 19 21  2  0  0  0  0
 19 36  1  0  0  0  0
 20 22  2  0  0  0  0
 20 37  1  0  0  0  0
 21 45  1  0  0  0  0
 22 38  1  0  0  0  0
 23 57  1  0  0  0  0
 24 82  1  0  0  0  0
 25 83  1  0  0  0  0
 26 28  2  0  0  0  0
 26 82  1  0  0  0  0
 27 84  1  0  0  0  0
 28 85  1  0  0  0  0
 29 66  2  0  0  0  0
 30 68  1  0  0  0  0
 30 71  1  0  0  0  0
 31 72  1  0  0  0  0
 31 77  2  0  0  0  0
 32 46  1  0  0  0  0
 32 73  1  0  0  0  0
 32 78  2  0  0  0  0
 33 59  1  0  0  0  0
 33 69  1  0  0  0  0
 33 79  2  0  0  0  0
 34 60  1  0  0  0  0
 34 74  1  0  0  0  0
 34 80  2  0  0  0  0
 35 70  1  0  0  0  0
 35 75  1  0  0  0  0
 35 81  2  0  0  0  0
 36 39  1  0  0  0  0
 37 46  1  0  0  0  0
 38 69  1  0  0  0  0
 39 41  1  0  0  0  0
 40 42  1  0  0  0  0
 40 43  1  0  0  0  0
 41 45  1  0  0  0  0
 42 47  1  0  0  0  0
 43 70  1  0  0  0  0
 44 47  1  0  0  0  0
 44 70  1  0  0  0  0
 45 73  1  0  0  0  0
 46 69  1  0  0  0  0
 47 68  1  0  0  0  0
 48 60  1  0  0  0  0
 49 61  1  0  0  0  0
 50 61  1  0  0  0  0
 51 63  1  0  0  0  0
 52 63  1  0  0  0  0
 53 63  1  0  0  0  0
 54 64  1  0  0  0  0
 55 64  1  0  0  0  0
 56 76  1  0  0  0  0
 57 75  1  0  0  0  0
 58 62  1  0  0  0  0
 58 83  1  0  0  0  0
 59 63  1  0  0  0  0
 59 74  1  0  0  0  0
 60 76  1  0  0  0  0
 61 62  1  0  0  0  0
 62 64  1  0  0  0  0
 64 67  1  0  0  0  0
 65 67  1  0  0  0  0
 66 68  1  0  0  0  0
M  CHG  1  76   1
M  ISO  4  35 100  58 101  75 100  83 101
M  END
> <Batch ID>
0046

> <Smiles>
CNC(C)C(=O)NC(C(=O)N1Cc2cc([101O:1][101CH2:1]C(C(C)C)C(C)(C)n3cc(C[100NH:0][100C:0](=O)N4CCCC(n5nc(-c6ccc(Oc7ccc(F)cc7F)cc6)c(C(N)=O)c5N)C4)cn3)ccc2CC1C(=O)NC1CCCc2ccccc21)C(C)(C)C

> <Shape>
0.202

> <Color>
0.076

> <Negative vol penalty>
0.000

$$$$

  -OEChem-04052317213D

 86 94  0     1  0  0  0  0  0999 V2000
  -26.6373  -35.2305   23.0494 C   0  0  0  0  0  0  0  0  0  0  0  0
  -27.0673  -33.9215   22.8573 C   0  0  0  0  0  0  0  0  0  0  0  0
  -26.1464  -13.6288   21.8900 C   0  0  0  0  0  0  0  0  0  0  0  0
  -26.6935  -13.9371   19.5570 C   0  0  0  0  0  0  0  0  0  0  0  0
  -25.3502  -35.4776   23.5251 C   0  0  0  0  0  0  0  0  0  0  0  0
  -26.2107  -32.8586   23.1418 C   0  0  0  0  0  0  0  0  0  0  0  0
  -26.2502  -29.3107   19.5285 C   0  0  0  0  0  0  0  0  0  0  0  0
  -25.7728  -12.3106   21.6282 C   0  0  0  0  0  0  0  0  0  0  0  0
  -26.3199  -12.6189   19.2952 C   0  0  0  0  0  0  0  0  0  0  0  0
  -27.3292  -28.4279   19.5148 C   0  0  0  0  0  0  0  0  0  0  0  0
  -23.1081  -10.6892   20.3265 C   0  0  0  0  0  0  0  0  0  0  0  0
  -21.9182  -10.2293   20.8906 C   0  0  0  0  0  0  0  0  0  0  0  0
  -25.9743  -26.7642   20.6172 C   0  0  0  0  0  0  0  0  0  0  0  0
  -23.1416   -8.5138   22.0728 C   0  0  0  0  0  0  0  0  0  0  0  0
  -28.9210  -21.6885   15.6383 C   0  0  0  0  0  0  0  0  0  0  0  0
  -29.8655  -21.7099   17.6238 C   0  0  0  0  0  0  0  0  0  0  0  0
  -26.6067  -14.4420   20.8544 C   0  0  0  0  0  0  0  0  0  0  0  0
  -28.2706  -16.2699   21.4853 C   0  0  0  0  0  0  0  0  0  0  0  0
  -24.4741  -34.4175   23.8064 C   0  0  0  0  0  0  0  0  0  0  0  0
  -25.0263  -28.9300   20.0975 C   0  0  0  0  0  0  0  0  0  0  0  0
  -24.9111  -33.0917   23.6230 C   0  0  0  0  0  0  0  0  0  0  0  0
  -24.8806  -27.6430   20.6347 C   0  0  0  0  0  0  0  0  0  0  0  0
  -28.9383  -21.0232   16.8788 C   0  0  0  0  0  0  0  0  0  0  0  0
  -25.8596  -11.8057   20.3308 C   0  0  0  0  0  0  0  0  0  0  0  0
  -27.1923  -27.1555   20.0618 C   0  0  0  0  0  0  0  0  0  0  0  0
  -24.3148  -10.0613   20.6354 C   0  0  0  0  0  0  0  0  0  0  0  0
  -21.9349   -9.1417   21.7638 C   0  0  0  0  0  0  0  0  0  0  0  0
  -24.3315   -8.9736   21.5085 C   0  0  0  0  0  0  0  0  0  0  0  0
  -26.9922  -15.8039   21.1241 C   0  0  0  0  0  0  0  0  0  0  0  0
  -28.1139  -17.6270   21.6271 C   0  0  0  0  0  0  0  0  0  0  0  0
  -29.4906  -15.5412   21.6756 C   0  0  0  0  0  0  0  0  0  0  0  0
  -23.2614  -29.9724   22.5269 C   0  0  0  0  0  0  0  0  0  0  0  0
  -21.1391  -27.7854   21.4155 C   0  0  0  0  0  0  0  0  0  0  0  0
  -20.5921  -24.9151   19.6522 C   0  0  0  0  0  0  0  0  0  0  0  0
  -23.7911  -21.2338   19.2100 C   0  0  0  0  0  0  0  0  0  0  0  0
  -23.1085  -34.7327   24.3636 C   0  0  0  0  0  0  0  0  0  0  0  0
  -23.8640  -29.8845   20.0805 C   0  0  0  0  0  0  0  0  0  0  0  0
  -23.5817  -27.1785   21.2393 C   0  0  0  0  0  0  0  0  0  0  0  0
  -22.1333  -33.5609   24.2853 C   0  0  0  0  0  0  0  0  0  0  0  0
  -24.8516  -20.9354   22.7438 C   0  0  0  0  0  0  0  0  0  0  0  0
  -22.7994  -32.2786   24.7742 C   0  0  0  0  0  0  0  0  0  0  0  0
  -25.5674  -19.5859   22.7639 C   0  0  0  0  0  0  0  0  0  0  0  0
  -23.7732  -20.9894   21.6659 C   0  0  0  0  0  0  0  0  0  0  0  0
  -24.9820  -19.3011   20.3232 C   0  0  0  0  0  0  0  0  0  0  0  0
  -24.0026  -31.9128   23.8967 C   0  0  1  0  0  0  0  0  0  0  0  0
  -22.8192  -29.5728   21.1476 C   0  0  1  0  0  0  0  0  0  0  0  0
  -26.1063  -19.2299   21.3674 C   0  0  2  0  0  0  0  0  0  0  0  0
  -24.4190  -23.5349   16.9551 C   0  0  0  0  0  0  0  0  0  0  0  0
  -28.4730  -18.5967   16.4458 C   0  0  0  0  0  0  0  0  0  0  0  0
  -18.7570  -23.3543   18.9496 C   0  0  0  0  0  0  0  0  0  0  0  0
  -21.0540  -26.6203   24.2342 C   0  0  0  0  0  0  0  0  0  0  0  0
  -19.9976  -24.5624   23.2766 C   0  0  0  0  0  0  0  0  0  0  0  0
  -18.8317  -26.7602   23.0957 C   0  0  0  0  0  0  0  0  0  0  0  0
  -21.1090  -25.4139   16.7812 C   0  0  0  0  0  0  0  0  0  0  0  0
  -30.7813  -25.1089   17.5337 C   0  0  0  0  0  0  0  0  0  0  0  0
  -29.7604  -25.0439   18.6708 C   0  0  0  0  0  0  0  0  0  0  0  0
  -26.5924  -20.0761   17.2545 C   0  0  0  0  0  0  0  0  0  0  0  0
  -31.3677  -23.7389   17.1748 C   0  0  0  0  0  0  0  0  0  0  0  0
  -24.1816  -22.0389   16.9124 C   0  0  0  0  0  0  0  0  0  0  0  0
  -26.1076  -21.1812   18.1932 C   0  0  0  0  0  0  0  0  0  0  0  0
  -29.1744  -26.4161   18.9753 C   0  0  0  0  0  0  0  0  0  1  0  0
  -28.1412  -19.8561   17.2886 C   0  0  2  0  0  0  0  0  0  0  0  0
  -20.8771  -26.3216   21.6758 C   0  0  1  0  0  0  0  0  0  0  0  0
  -19.5826  -24.5741   18.5710 C   0  0  2  0  0  0  0  0  0  0  0  0
  -20.2153  -26.0753   23.0610 C   0  0  0  0  0  0  0  0  0  0  0  0
  -29.7697  -22.7189   15.5939 N   0  0  0  0  0  0  0  0  0  0  0  0
  -26.0900  -16.7853   21.0417 N   0  0  0  0  0  0  0  0  0  0  0  0
  -30.3290  -22.7062   16.8158 N   0  0  0  0  0  0  0  0  0  0  0  0
  -26.8023  -17.8815   21.3532 N   0  0  0  0  0  0  0  0  0  0  0  0
  -22.4763  -28.1504   21.2045 N   0  0  0  0  0  0  0  0  0  0  0  0
  -24.3026  -20.6049   20.3570 N   0  0  0  0  0  0  0  0  0  0  0  0
  -28.9716  -18.6156   21.9581 N   0  0  0  0  0  0  0  0  0  0  0  0
  -29.4752  -14.1521   21.4891 N   0  0  0  0  0  0  0  0  0  0  0  0
  -23.5597  -31.3155   22.6551 N   0  0  0  0  0  0  0  0  0  0  0  0
  -20.0921  -25.8400   20.5444 N   0  0  0  0  0  0  0  0  0  0  0  0
  -24.6621  -21.3828   18.1201 N   0  0  0  0  0  0  0  0  0  0  0  0
  -20.2782  -24.2897   17.2840 N   0  3  0  0  0  0  0  0  0  0  0  0
  -30.5589  -16.1029   22.0173 O   0  0  0  0  0  0  0  0  0  0  0  0
  -23.3256  -29.1251   23.4099 O   0  0  0  0  0  0  0  0  0  0  0  0
  -20.1914  -28.5747   21.3929 O   0  0  0  0  0  0  0  0  0  0  0  0
  -21.7108  -24.4087   19.7027 O   0  0  0  0  0  0  0  0  0  0  0  0
  -22.6254  -21.6476   19.1662 O   0  0  0  0  0  0  0  0  0  0  0  0
  -25.4953  -10.5195   20.0750 O   0  0  0  0  0  0  0  0  0  0  0  0
  -28.2441  -26.2921   20.0502 O   0  0  0  0  0  0  0  0  0  1  0  0
  -20.7924   -8.7012   22.3067 F   0  0  0  0  0  0  0  0  0  0  0  0
  -25.4878   -8.3671   21.8100 F   0  0  0  0  0  0  0  0  0  0  0  0
  1  2  1  0  0  0  0
  1  5  2  0  0  0  0
  2  6  2  0  0  0  0
  3  8  2  0  0  0  0
  3 17  1  0  0  0  0
  4  9  1  0  0  0  0
  4 17  2  0  0  0  0
  5 19  1  0  0  0  0
  6 21  1  0  0  0  0
  7 10  2  0  0  0  0
  7 20  1  0  0  0  0
  8 24  1  0  0  0  0
  9 24  2  0  0  0  0
 10 25  1  0  0  0  0
 11 12  2  0  0  0  0
 11 26  1  0  0  0  0
 12 27  1  0  0  0  0
 13 22  1  0  0  0  0
 13 25  2  0  0  0  0
 14 27  2  0  0  0  0
 14 28  1  0  0  0  0
 15 23  1  0  0  0  0
 15 66  2  0  0  0  0
 16 23  2  0  0  0  0
 16 68  1  0  0  0  0
 17 29  1  0  0  0  0
 18 29  1  0  0  0  0
 18 30  2  0  0  0  0
 18 31  1  0  0  0  0
 19 21  2  0  0  0  0
 19 36  1  0  0  0  0
 20 22  2  0  0  0  0
 20 37  1  0  0  0  0
 21 45  1  0  0  0  0
 22 38  1  0  0  0  0
 23 62  1  0  0  0  0
 24 83  1  0  0  0  0
 25 84  1  0  0  0  0
 26 28  2  0  0  0  0
 26 83  1  0  0  0  0
 27 85  1  0  0  0  0
 28 86  1  0  0  0  0
 29 67  2  0  0  0  0
 30 69  1  0  0  0  0
 30 72  1  0  0  0  0
 31 73  1  0  0  0  0
 31 78  2  0  0  0  0
 32 46  1  0  0  0  0
 32 74  1  0  0  0  0
 32 79  2  0  0  0  0
 33 63  1  0  0  0  0
 33 70  1  0  0  0  0
 33 80  2  0  0  0  0
 34 64  1  0  0  0  0
 34 75  1  0  0  0  0
 34 81  2  0  0  0  0
 35 71  1  0  0  0  0
 35 76  1  0  0  0  0
 35 82  2  0  0  0  0
 36 39  1  0  0  0  0
 37 46  1  0  0  0  0
 38 70  1  0  0  0  0
 39 41  1  0  0  0  0
 40 42  1  0  0  0  0
 40 43  1  0  0  0  0
 41 45  1  0  0  0  0
 42 47  1  0  0  0  0
 43 71  1  0  0  0  0
 44 47  1  0  0  0  0
 44 71  1  0  0  0  0
 45 74  1  0  0  0  0
 46 70  1  0  0  0  0
 47 69  1  0  0  0  0
 48 59  1  0  0  0  0
 49 62  1  0  0  0  0
 50 64  1  0  0  0  0
 51 65  1  0  0  0  0
 52 65  1  0  0  0  0
 53 65  1  0  0  0  0
 54 77  1  0  0  0  0
 55 56  1  0  0  0  0
 55 58  1  0  0  0  0
 56 61  1  0  0  0  0
 57 60  1  0  0  0  0
 57 62  1  0  0  0  0
 58 68  1  0  0  0  0
 59 76  1  0  0  0  0
 60 76  1  0  0  0  0
 61 84  1  0  0  0  0
 63 65  1  0  0  0  0
 63 75  1  0  0  0  0
 64 77  1  0  0  0  0
 66 68  1  0  0  0  0
 67 69  1  0  0  0  0
M  CHG  1  77   1
M  ISO  4  35 100  61 101  76 100  84 101
M  END
> <Batch ID>
0046

> <Smiles>
CC[100N:0](CCC(C)c1cnn(CCC[101CH2:1][101O:1]c2ccc3c(c2)CN(C(=O)C(NC(=O)C(C)NC)C(C)(C)C)C(C(=O)NC2CCCc4ccccc42)C3)c1)[100C:0](=O)N1CCCC(n2nc(-c3ccc(Oc4ccc(F)cc4F)cc3)c(C(N)=O)c2N)C1

> <Shape>
0.266

> <Color>
0.080

> <Negative vol penalty>
0.000

$$$$

  -OEChem-04052317213D

 84 92  0     1  0  0  0  0  0999 V2000
  -19.0895  -33.6322   22.1027 C   0  0  0  0  0  0  0  0  0  0  0  0
  -20.4166  -33.4421   21.7309 C   0  0  0  0  0  0  0  0  0  0  0  0
  -26.1546  -12.9370   21.5711 C   0  0  0  0  0  0  0  0  0  0  0  0
  -25.8473  -13.6001   19.2683 C   0  0  0  0  0  0  0  0  0  0  0  0
  -18.4665  -32.7175   22.9507 C   0  0  0  0  0  0  0  0  0  0  0  0
  -21.1218  -32.3378   22.2079 C   0  0  0  0  0  0  0  0  0  0  0  0
  -25.4220  -29.1502   19.2324 C   0  0  0  0  0  0  0  0  0  0  0  0
  -24.9665  -12.2081   21.5198 C   0  0  0  0  0  0  0  0  0  0  0  0
  -24.6592  -12.8711   19.2169 C   0  0  0  0  0  0  0  0  0  0  0  0
  -26.8150  -29.1897   19.2727 C   0  0  0  0  0  0  0  0  0  0  0  0
  -23.9270   -9.2195   20.3279 C   0  0  0  0  0  0  0  0  0  0  0  0
  -23.9303   -7.9353   20.8723 C   0  0  0  0  0  0  0  0  0  0  0  0
  -26.8150  -27.3669   20.8527 C   0  0  0  0  0  0  0  0  0  0  0  0
  -22.2035   -8.5912   22.4296 C   0  0  0  0  0  0  0  0  0  0  0  0
  -26.5950  -13.6330   20.4454 C   0  0  0  0  0  0  0  0  0  0  0  0
  -29.1165  -13.9256   20.1922 C   0  0  0  0  0  0  0  0  0  0  0  0
  -19.1616  -31.5962   23.4306 C   0  0  0  0  0  0  0  0  0  0  0  0
  -24.7134  -28.2244   20.0116 C   0  0  0  0  0  0  0  0  0  0  0  0
  -20.5079  -31.4080   23.0642 C   0  0  0  0  0  0  0  0  0  0  0  0
  -25.4131  -27.3159   20.8186 C   0  0  0  0  0  0  0  0  0  0  0  0
  -24.2188  -12.1752   20.3427 C   0  0  0  0  0  0  0  0  0  0  0  0
  -27.5117  -28.2999   20.0852 C   0  0  0  0  0  0  0  0  0  0  0  0
  -23.0621  -10.1896   20.8344 C   0  0  0  0  0  0  0  0  0  0  0  0
  -23.0685   -7.6211   21.9232 C   0  0  0  0  0  0  0  0  0  0  0  0
  -22.2003   -9.8754   21.8852 C   0  0  0  0  0  0  0  0  0  0  0  0
  -27.8220  -14.3866   20.4979 C   0  0  0  0  0  0  0  0  0  0  0  0
  -28.7327  -24.9916   16.4408 C   0  0  0  0  0  0  0  0  0  0  0  0
  -29.8581  -24.2146   16.5826 C   0  0  0  0  0  0  0  0  0  0  0  0
  -29.9266  -15.0157   20.3971 C   0  0  0  0  0  0  0  0  0  0  0  0
  -30.1385  -26.2099   17.4752 C   0  0  0  0  0  0  0  0  0  0  0  0
  -29.5482  -12.6280   19.7615 C   0  0  0  0  0  0  0  0  0  0  0  0
  -22.5876  -28.4348   22.3654 C   0  0  0  0  0  0  0  0  0  0  0  0
  -22.4426  -25.2151   21.9981 C   0  0  0  0  0  0  0  0  0  0  0  0
  -23.9670  -22.3471   20.9504 C   0  0  0  0  0  0  0  0  0  0  0  0
  -28.9245  -20.9178   20.2892 C   0  0  0  0  0  0  0  0  0  0  0  0
  -18.4603  -30.6602   24.3829 C   0  0  0  0  0  0  0  0  0  0  0  0
  -23.2119  -28.1768   19.9365 C   0  0  0  0  0  0  0  0  0  0  0  0
  -24.7002  -26.2892   21.6588 C   0  0  0  0  0  0  0  0  0  0  0  0
  -19.1642  -29.3153   24.5441 C   0  0  0  0  0  0  0  0  0  0  0  0
  -30.2312  -19.0175   23.0017 C   0  0  0  0  0  0  0  0  0  0  0  0
  -20.6616  -29.5182   24.7527 C   0  0  0  0  0  0  0  0  0  0  0  0
  -29.8787  -17.5735   22.6400 C   0  0  0  0  0  0  0  0  0  0  0  0
  -29.1332  -19.9899   22.5765 C   0  0  0  0  0  0  0  0  0  0  0  0
  -28.3905  -18.4571   20.7953 C   0  0  0  0  0  0  0  0  0  0  0  0
  -21.2988  -30.2090   23.5410 C   0  0  1  0  0  0  0  0  0  0  0  0
  -22.5723  -27.5337   21.1632 C   0  0  1  0  0  0  0  0  0  0  0  0
  -29.4928  -17.4459   21.1541 C   0  0  2  0  0  0  0  0  0  0  0  0
  -27.4558  -24.6437   15.7976 C   0  0  0  0  0  0  0  0  0  0  0  0
  -23.6159  -19.8660   20.8148 C   0  0  0  0  0  0  0  0  0  0  0  0
  -23.0075  -24.9743   24.9869 C   0  0  0  0  0  0  0  0  0  0  0  0
  -23.5820  -22.5662   24.6134 C   0  0  0  0  0  0  0  0  0  0  0  0
  -21.2788  -23.3881   24.1207 C   0  0  0  0  0  0  0  0  0  0  0  0
  -32.0925  -24.6428   17.6381 C   0  0  0  0  0  0  0  0  0  0  0  0
  -24.1647  -22.3637   17.9975 C   0  0  0  0  0  0  0  0  0  0  0  0
  -30.1595  -22.8343   16.1623 C   0  0  0  0  0  0  0  0  0  0  0  0
  -30.8296  -27.3392   18.1966 C   0  0  0  0  0  0  0  0  0  0  0  0
  -30.0555  -21.7703   17.2829 C   0  0  0  0  0  0  0  0  0  0  0  0
  -30.9112  -27.1436   19.7121 C   0  0  0  0  0  0  0  0  0  0  0  0
  -28.6814  -21.6965   17.9453 C   0  0  0  0  0  0  0  0  0  0  0  0
  -29.5467  -27.1076   20.3905 C   0  0  0  0  0  0  0  0  0  1  0  0
  -23.1811  -24.0376   22.5872 C   0  0  1  0  0  0  0  0  0  0  0  0
  -23.4693  -21.1970   20.0937 C   0  0  2  0  0  0  0  0  0  0  0  0
  -22.7760  -23.7621   24.0628 C   0  0  0  0  0  0  0  0  0  0  0  0
  -27.8058  -15.6696   20.8690 N   0  0  0  0  0  0  0  0  0  0  0  0
  -28.9138  -26.2326   16.9983 N   0  0  0  0  0  0  0  0  0  0  0  0
  -30.7502  -25.0086   17.2467 N   0  0  0  0  0  0  0  0  0  0  0  0
  -29.1002  -16.0240   20.7978 N   0  0  0  0  0  0  0  0  0  0  0  0
  -23.2316  -26.2866   21.5560 N   0  0  0  0  0  0  0  0  0  0  0  0
  -28.8153  -19.8186   21.1568 N   0  0  0  0  0  0  0  0  0  0  0  0
  -31.2579  -15.2005   20.2719 N   0  0  0  0  0  0  0  0  0  0  0  0
  -28.5851  -11.6225   19.6012 N   0  0  0  0  0  0  0  0  0  0  0  0
  -21.4863  -29.2639   22.4611 N   0  0  0  0  0  0  0  0  0  0  0  0
  -22.9474  -22.9159   21.6840 N   0  0  0  0  0  0  0  0  0  0  0  0
  -28.6108  -20.6676   18.9589 N   0  0  0  0  0  0  0  0  0  0  0  0
  -24.2398  -21.1287   18.8199 N   0  3  0  0  0  0  0  0  0  0  0  0
  -30.7545  -12.3633   19.5414 O   0  0  0  0  0  0  0  0  0  0  0  0
  -23.5282  -28.3808   23.1491 O   0  0  0  0  0  0  0  0  0  0  0  0
  -21.2116  -25.1825   21.9261 O   0  0  0  0  0  0  0  0  0  0  0  0
  -25.1432  -22.7028   20.9699 O   0  0  0  0  0  0  0  0  0  0  0  0
  -29.2807  -22.0379   20.6708 O   0  0  0  0  0  0  0  0  0  0  0  0
  -23.0595  -11.4638   20.2922 O   0  0  0  0  0  0  0  0  0  0  0  0
  -28.8714  -28.3368   20.1269 O   0  0  0  0  0  0  0  0  0  1  0  0
  -23.0707   -6.3874   22.4449 F   0  0  0  0  0  0  0  0  0  0  0  0
  -21.3662  -10.8028   22.3751 F   0  0  0  0  0  0  0  0  0  0  0  0
  1  2  1  0  0  0  0
  1  5  2  0  0  0  0
  2  6  2  0  0  0  0
  3  8  2  0  0  0  0
  3 15  1  0  0  0  0
  4  9  1  0  0  0  0
  4 15  2  0  0  0  0
  5 17  1  0  0  0  0
  6 19  1  0  0  0  0
  7 10  2  0  0  0  0
  7 18  1  0  0  0  0
  8 21  1  0  0  0  0
  9 21  2  0  0  0  0
 10 22  1  0  0  0  0
 11 12  2  0  0  0  0
 11 23  1  0  0  0  0
 12 24  1  0  0  0  0
 13 20  1  0  0  0  0
 13 22  2  0  0  0  0
 14 24  2  0  0  0  0
 14 25  1  0  0  0  0
 15 26  1  0  0  0  0
 16 26  1  0  0  0  0
 16 29  2  0  0  0  0
 16 31  1  0  0  0  0
 17 19  2  0  0  0  0
 17 36  1  0  0  0  0
 18 20  2  0  0  0  0
 18 37  1  0  0  0  0
 19 45  1  0  0  0  0
 20 38  1  0  0  0  0
 21 81  1  0  0  0  0
 22 82  1  0  0  0  0
 23 25  2  0  0  0  0
 23 81  1  0  0  0  0
 24 83  1  0  0  0  0
 25 84  1  0  0  0  0
 26 64  2  0  0  0  0
 27 28  2  0  0  0  0
 27 48  1  0  0  0  0
 27 65  1  0  0  0  0
 28 55  1  0  0  0  0
 28 66  1  0  0  0  0
 29 67  1  0  0  0  0
 29 70  1  0  0  0  0
 30 56  1  0  0  0  0
 30 65  2  0  0  0  0
 30 66  1  0  0  0  0
 31 71  1  0  0  0  0
 31 76  2  0  0  0  0
 32 46  1  0  0  0  0
 32 72  1  0  0  0  0
 32 77  2  0  0  0  0
 33 61  1  0  0  0  0
 33 68  1  0  0  0  0
 33 78  2  0  0  0  0
 34 62  1  0  0  0  0
 34 73  1  0  0  0  0
 34 79  2  0  0  0  0
 35 69  1  0  0  0  0
 35 74  1  0  0  0  0
 35 80  2  0  0  0  0
 36 39  1  0  0  0  0
 37 46  1  0  0  0  0
 38 68  1  0  0  0  0
 39 41  1  0  0  0  0
 40 42  1  0  0  0  0
 40 43  1  0  0  0  0
 41 45  1  0  0  0  0
 42 47  1  0  0  0  0
 43 69  1  0  0  0  0
 44 47  1  0  0  0  0
 44 69  1  0  0  0  0
 45 72  1  0  0  0  0
 46 68  1  0  0  0  0
 47 67  1  0  0  0  0
 49 62  1  0  0  0  0
 50 63  1  0  0  0  0
 51 63  1  0  0  0  0
 52 63  1  0  0  0  0
 53 66  1  0  0  0  0
 54 75  1  0  0  0  0
 55 57  1  0  0  0  0
 56 58  1  0  0  0  0
 57 59  1  0  0  0  0
 58 60  1  0  0  0  0
 59 74  1  0  0  0  0
 60 82  1  0  0  0  0
 61 63  1  0  0  0  0
 61 73  1  0  0  0  0
 62 75  1  0  0  0  0
 64 67  1  0  0  0  0
M  CHG  1  75   1
M  ISO  4  35 100  60 101  74 100  82 101
M  END
> <Batch ID>
0046

> <Smiles>
CNC(C)C(=O)NC(C(=O)N1Cc2cc([101O:1][101CH2:1]CCc3nc(C)c(CCC[100NH:0][100C:0](=O)N4CCCC(n5nc(-c6ccc(Oc7ccc(F)cc7F)cc6)c(C(N)=O)c5N)C4)n3C)ccc2CC1C(=O)NC1CCCc2ccccc21)C(C)(C)C

> <Shape>
0.274

> <Color>
0.101

> <Negative vol penalty>
0.000

$$$$

  -OEChem-04052317213D

 81 89  0     1  0  0  0  0  0999 V2000
  -19.2272  -33.5937   23.5745 C   0  0  0  0  0  0  0  0  0  0  0  0
  -20.5703  -33.4583   23.2381 C   0  0  0  0  0  0  0  0  0  0  0  0
  -26.9677  -18.3461   19.7275 C   0  0  0  0  0  0  0  0  0  0  0  0
  -28.7133  -17.6325   21.2377 C   0  0  0  0  0  0  0  0  0  0  0  0
  -18.5005  -32.4820   23.9987 C   0  0  0  0  0  0  0  0  0  0  0  0
  -21.1878  -32.2112   23.3269 C   0  0  0  0  0  0  0  0  0  0  0  0
  -25.5712  -30.0044   19.6634 C   0  0  0  0  0  0  0  0  0  0  0  0
  -26.5434  -17.0242   19.5933 C   0  0  0  0  0  0  0  0  0  0  0  0
  -28.2890  -16.3105   21.1036 C   0  0  0  0  0  0  0  0  0  0  0  0
  -26.9570  -29.9319   19.7972 C   0  0  0  0  0  0  0  0  0  0  0  0
  -28.5997  -13.8111   18.8481 C   0  0  0  0  0  0  0  0  0  0  0  0
  -29.5757  -12.8338   18.6534 C   0  0  0  0  0  0  0  0  0  0  0  0
  -26.7540  -27.6710   20.6134 C   0  0  0  0  0  0  0  0  0  0  0  0
  -28.8705  -11.7257   20.6812 C   0  0  0  0  0  0  0  0  0  0  0  0
  -28.0527  -18.6503   20.5497 C   0  0  0  0  0  0  0  0  0  0  0  0
  -28.0543  -20.9569   21.6392 C   0  0  0  0  0  0  0  0  0  0  0  0
  -19.1068  -31.2188   24.0835 C   0  0  0  0  0  0  0  0  0  0  0  0
  -24.7642  -28.9126   20.0144 C   0  0  0  0  0  0  0  0  0  0  0  0
  -20.4688  -31.0818   23.7540 C   0  0  0  0  0  0  0  0  0  0  0  0
  -25.3583  -27.7312   20.4806 C   0  0  0  0  0  0  0  0  0  0  0  0
  -30.9314  -27.5947   21.0033 C   0  0  0  0  0  0  0  0  0  0  0  0
  -27.2040  -16.0064   20.2813 C   0  0  0  0  0  0  0  0  0  0  0  0
  -27.5485  -28.7661   20.2750 C   0  0  0  0  0  0  0  0  0  0  0  0
  -27.7591  -13.7458   19.9594 C   0  0  0  0  0  0  0  0  0  0  0  0
  -29.7111  -11.7911   19.5699 C   0  0  0  0  0  0  0  0  0  0  0  0
  -27.8945  -12.7030   20.8759 C   0  0  0  0  0  0  0  0  0  0  0  0
  -28.4918  -20.0156   20.6883 C   0  0  0  0  0  0  0  0  0  0  0  0
  -31.7083  -27.7639   22.1650 C   0  0  0  0  0  0  0  0  0  0  0  0
  -31.8460  -27.5721   19.9789 C   0  0  0  0  0  0  0  0  0  0  0  0
  -28.7693  -22.0937   21.3512 C   0  0  0  0  0  0  0  0  0  0  0  0
  -27.0879  -20.8163   22.6890 C   0  0  0  0  0  0  0  0  0  0  0  0
  -22.4691  -28.4169   22.1570 C   0  0  0  0  0  0  0  0  0  0  0  0
  -22.2169  -25.5561   20.6489 C   0  0  0  0  0  0  0  0  0  0  0  0
  -23.6962  -23.1511   18.7321 C   0  0  0  0  0  0  0  0  0  0  0  0
  -33.5143  -24.5644   20.1989 C   0  0  0  0  0  0  0  0  0  0  0  0
  -18.2929  -30.0556   24.5926 C   0  0  0  0  0  0  0  0  0  0  0  0
  -23.2727  -28.9974   19.8390 C   0  0  0  0  0  0  0  0  0  0  0  0
  -24.5379  -26.5240   20.8520 C   0  0  0  0  0  0  0  0  0  0  0  0
  -18.9240  -28.6966   24.3008 C   0  0  0  0  0  0  0  0  0  0  0  0
  -31.6815  -23.2353   17.3754 C   0  0  0  0  0  0  0  0  0  0  0  0
  -20.4073  -28.7094   24.6562 C   0  0  0  0  0  0  0  0  0  0  0  0
  -30.6462  -22.3517   18.0735 C   0  0  0  0  0  0  0  0  0  0  0  0
  -33.0278  -23.1806   18.0914 C   0  0  0  0  0  0  0  0  0  0  0  0
  -31.9371  -22.6530   20.2375 C   0  0  0  0  0  0  0  0  0  0  0  0
  -21.1676  -29.7408   23.8136 C   0  0  1  0  0  0  0  0  0  0  0  0
  -22.5110  -28.0054   20.7125 C   0  0  1  0  0  0  0  0  0  0  0  0
  -30.5480  -22.6826   19.5745 C   0  0  2  0  0  0  0  0  0  0  0  0
  -31.2408  -27.8563   23.5593 C   0  0  0  0  0  0  0  0  0  0  0  0
  -31.6726  -27.4244   18.5214 C   0  0  0  0  0  0  0  0  0  0  0  0
  -23.2517  -20.9104   17.6932 C   0  0  0  0  0  0  0  0  0  0  0  0
  -22.5318  -24.2305   23.3791 C   0  0  0  0  0  0  0  0  0  0  0  0
  -23.0312  -22.0794   22.1995 C   0  0  0  0  0  0  0  0  0  0  0  0
  -20.8115  -23.1776   21.9004 C   0  0  0  0  0  0  0  0  0  0  0  0
  -24.1283  -24.2028   15.9996 C   0  0  0  0  0  0  0  0  0  0  0  0
  -29.4397  -27.4681   20.9028 C   0  0  0  0  0  0  0  0  0  1  0  0
  -34.3506  -27.7640   19.9039 C   0  0  0  0  0  0  0  0  0  0  0  0
  -35.1177  -26.4483   20.0070 C   0  0  0  0  0  0  0  0  0  0  0  0
  -22.8554  -24.1986   20.8178 C   0  0  1  0  0  0  0  0  0  0  0  0
  -23.2196  -22.4174   17.4915 C   0  0  2  0  0  0  0  0  0  0  0  0
  -22.3230  -23.4448   22.0691 C   0  0  0  0  0  0  0  0  0  0  0  0
  -29.4133  -20.5114   19.8582 N   0  0  0  0  0  0  0  0  0  0  0  0
  -33.0159  -27.8429   21.9039 N   0  0  0  0  0  0  0  0  0  0  0  0
  -33.0676  -27.7228   20.5664 N   0  0  0  0  0  0  0  0  0  0  0  0
  -29.5606  -21.7766   20.2866 N   0  0  0  0  0  0  0  0  0  0  0  0
  -23.0833  -26.6582   20.6688 N   0  0  0  0  0  0  0  0  0  0  0  0
  -32.8675  -23.5238   19.5115 N   0  0  0  0  0  0  0  0  0  0  0  0
  -28.7920  -23.3236   21.9073 N   0  0  0  0  0  0  0  0  0  0  0  0
  -26.4463  -19.5801   22.8454 N   0  0  0  0  0  0  0  0  0  0  0  0
  -21.3999  -29.2309   22.4792 N   0  0  0  0  0  0  0  0  0  0  0  0
  -22.6467  -23.4900   19.5597 N   0  0  0  0  0  0  0  0  0  0  0  0
  -34.3844  -25.3381   19.4407 N   0  0  0  0  0  0  0  0  0  0  0  0
  -24.0853  -22.7541   16.3260 N   0  3  0  0  0  0  0  0  0  0  0  0
  -26.7899  -21.7639   23.4551 O   0  0  0  0  0  0  0  0  0  0  0  0
  -23.3413  -28.0239   22.9228 O   0  0  0  0  0  0  0  0  0  0  0  0
  -20.9952  -25.6351   20.4976 O   0  0  0  0  0  0  0  0  0  0  0  0
  -24.8813  -23.3955   18.9474 O   0  0  0  0  0  0  0  0  0  0  0  0
  -33.3261  -24.7908   21.3990 O   0  0  0  0  0  0  0  0  0  0  0  0
  -26.7901  -14.7163   20.1508 O   0  0  0  0  0  0  0  0  0  0  0  0
  -28.9009  -28.6930   20.4072 O   0  0  0  0  0  0  0  0  0  1  0  0
  -30.6473  -10.8518   19.3821 F   0  0  0  0  0  0  0  0  0  0  0  0
  -27.0891  -12.6342   21.9447 F   0  0  0  0  0  0  0  0  0  0  0  0
  1  2  1  0  0  0  0
  1  5  2  0  0  0  0
  2  6  2  0  0  0  0
  3  8  2  0  0  0  0
  3 15  1  0  0  0  0
  4  9  1  0  0  0  0
  4 15  2  0  0  0  0
  5 17  1  0  0  0  0
  6 19  1  0  0  0  0
  7 10  2  0  0  0  0
  7 18  1  0  0  0  0
  8 22  1  0  0  0  0
  9 22  2  0  0  0  0
 10 23  1  0  0  0  0
 11 12  2  0  0  0  0
 11 24  1  0  0  0  0
 12 25  1  0  0  0  0
 13 20  1  0  0  0  0
 13 23  2  0  0  0  0
 14 25  2  0  0  0  0
 14 26  1  0  0  0  0
 15 27  1  0  0  0  0
 16 27  1  0  0  0  0
 16 30  2  0  0  0  0
 16 31  1  0  0  0  0
 17 19  2  0  0  0  0
 17 36  1  0  0  0  0
 18 20  2  0  0  0  0
 18 37  1  0  0  0  0
 19 45  1  0  0  0  0
 20 38  1  0  0  0  0
 21 28  1  0  0  0  0
 21 29  2  0  0  0  0
 21 55  1  0  0  0  0
 22 78  1  0  0  0  0
 23 79  1  0  0  0  0
 24 26  2  0  0  0  0
 24 78  1  0  0  0  0
 25 80  1  0  0  0  0
 26 81  1  0  0  0  0
 27 61  2  0  0  0  0
 28 48  1  0  0  0  0
 28 62  2  0  0  0  0
 29 49  1  0  0  0  0
 29 63  1  0  0  0  0
 30 64  1  0  0  0  0
 30 67  1  0  0  0  0
 31 68  1  0  0  0  0
 31 73  2  0  0  0  0
 32 46  1  0  0  0  0
 32 69  1  0  0  0  0
 32 74  2  0  0  0  0
 33 58  1  0  0  0  0
 33 65  1  0  0  0  0
 33 75  2  0  0  0  0
 34 59  1  0  0  0  0
 34 70  1  0  0  0  0
 34 76  2  0  0  0  0
 35 66  1  0  0  0  0
 35 71  1  0  0  0  0
 35 77  2  0  0  0  0
 36 39  1  0  0  0  0
 37 46  1  0  0  0  0
 38 65  1  0  0  0  0
 39 41  1  0  0  0  0
 40 42  1  0  0  0  0
 40 43  1  0  0  0  0
 41 45  1  0  0  0  0
 42 47  1  0  0  0  0
 43 66  1  0  0  0  0
 44 47  1  0  0  0  0
 44 66  1  0  0  0  0
 45 69  1  0  0  0  0
 46 65  1  0  0  0  0
 47 64  1  0  0  0  0
 50 59  1  0  0  0  0
 51 60  1  0  0  0  0
 52 60  1  0  0  0  0
 53 60  1  0  0  0  0
 54 72  1  0  0  0  0
 55 79  1  0  0  0  0
 56 57  1  0  0  0  0
 56 63  1  0  0  0  0
 57 71  1  0  0  0  0
 58 60  1  0  0  0  0
 58 70  1  0  0  0  0
 59 72  1  0  0  0  0
 61 64  1  0  0  0  0
 62 63  1  0  0  0  0
M  CHG  1  72   1
M  ISO  4  35 100  55 101  71 100  79 101
M  END
> <Batch ID>
0046

> <Smiles>
CNC(C)C(=O)NC(C(=O)N1Cc2cc([101O:1][101CH2:1]c3c(C)nn(CC[100NH:0][100C:0](=O)N4CCCC(n5nc(-c6ccc(Oc7ccc(F)cc7F)cc6)c(C(N)=O)c5N)C4)c3C)ccc2CC1C(=O)NC1CCCc2ccccc21)C(C)(C)C

> <Shape>
0.216

> <Color>
0.082

> <Negative vol penalty>
0.000

$$$$

  -OEChem-04052317213D

 88 96  0     1  0  0  0  0  0999 V2000
  -28.0558  -11.3583   19.8250 C   0  0  0  0  0  0  0  0  0  0  0  0
  -27.9617  -12.4167   20.7229 C   0  0  0  0  0  0  0  0  0  0  0  0
  -19.9763  -25.2083   20.1158 C   0  0  0  0  0  0  0  0  0  0  0  0
  -20.4666  -24.8691   22.4571 C   0  0  0  0  0  0  0  0  0  0  0  0
  -28.9123  -11.4498   18.7286 C   0  0  0  0  0  0  0  0  0  0  0  0
  -28.7250  -13.5669   20.5256 C   0  0  0  0  0  0  0  0  0  0  0  0
  -26.0507  -17.8133   21.2044 C   0  0  0  0  0  0  0  0  0  0  0  0
  -19.5988  -23.8704   20.0011 C   0  0  0  0  0  0  0  0  0  0  0  0
  -20.0890  -23.5312   22.3424 C   0  0  0  0  0  0  0  0  0  0  0  0
  -25.8072  -18.2092   22.5188 C   0  0  0  0  0  0  0  0  0  0  0  0
  -21.4332  -20.6539   21.1826 C   0  0  0  0  0  0  0  0  0  0  0  0
  -22.2578  -19.6951   21.7710 C   0  0  0  0  0  0  0  0  0  0  0  0
  -27.6078  -19.8071   22.3649 C   0  0  0  0  0  0  0  0  0  0  0  0
  -26.6163  -28.5084   25.3233 C   0  0  0  0  0  0  0  0  0  0  0  0
  -20.4242  -18.9772   23.1709 C   0  0  0  0  0  0  0  0  0  0  0  0
  -24.0876  -27.6807   25.9290 C   0  0  0  0  0  0  0  0  0  0  0  0
  -20.4103  -25.7076   21.3439 C   0  0  0  0  0  0  0  0  0  0  0  0
  -19.9756  -28.1807   21.7941 C   0  0  0  0  0  0  0  0  0  0  0  0
  -29.6793  -12.6055   18.5125 C   0  0  0  0  0  0  0  0  0  0  0  0
  -27.0834  -18.4048   20.4627 C   0  0  0  0  0  0  0  0  0  0  0  0
  -29.5936  -13.6734   19.4261 C   0  0  0  0  0  0  0  0  0  0  0  0
  -27.8607  -19.4188   21.0404 C   0  0  0  0  0  0  0  0  0  0  0  0
  -26.4272  -27.2545   25.8938 C   0  0  0  0  0  0  0  0  0  0  0  0
  -25.1420  -26.8253   26.2054 C   0  0  0  0  0  0  0  0  0  0  0  0
  -19.6551  -23.0319   21.1143 C   0  0  0  0  0  0  0  0  0  0  0  0
  -26.5876  -19.2041   23.1003 C   0  0  0  0  0  0  0  0  0  0  0  0
  -20.1041  -20.7745   21.5884 C   0  0  0  0  0  0  0  0  0  0  0  0
  -21.7533  -18.8567   22.7651 C   0  0  0  0  0  0  0  0  0  0  0  0
  -19.5996  -19.9361   22.5825 C   0  0  0  0  0  0  0  0  0  0  0  0
  -20.8010  -27.0894   21.4630 C   0  0  0  0  0  0  0  0  0  0  0  0
  -25.4959  -29.2884   25.0862 C   0  0  0  0  0  0  0  0  0  0  0  0
  -20.8174  -29.2658   21.7759 C   0  0  0  0  0  0  0  0  0  0  0  0
  -18.5734  -28.2108   22.0916 C   0  0  0  0  0  0  0  0  0  0  0  0
  -29.7551  -17.3505   19.1009 C   0  0  0  0  0  0  0  0  0  0  0  0
  -29.9047  -20.3811   17.9542 C   0  0  0  0  0  0  0  0  0  0  0  0
  -26.3085  -30.6094   23.1138 C   0  0  0  0  0  0  0  0  0  0  0  0
  -29.0114  -23.6568   18.2994 C   0  0  0  0  0  0  0  0  0  0  0  0
  -30.6264  -12.6393   17.3393 C   0  0  0  0  0  0  0  0  0  0  0  0
  -27.3161  -17.9853   19.0371 C   0  0  0  0  0  0  0  0  0  0  0  0
  -28.9684  -20.0995   20.2801 C   0  0  0  0  0  0  0  0  0  0  0  0
  -31.1207  -14.0421   16.9958 C   0  0  0  0  0  0  0  0  0  0  0  0
  -25.1964  -30.2563   19.7258 C   0  0  0  0  0  0  0  0  0  0  0  0
  -31.5588  -14.7778   18.2582 C   0  0  0  0  0  0  0  0  0  0  0  0
  -23.8856  -29.4820   19.8571 C   0  0  0  0  0  0  0  0  0  0  0  0
  -26.2130  -29.8151   20.7741 C   0  0  0  0  0  0  0  0  0  0  0  0
  -24.4018  -29.1277   22.3133 C   0  0  0  0  0  0  0  0  0  0  0  0
  -30.3869  -14.9475   19.2326 C   0  0  1  0  0  0  0  0  0  0  0  0
  -28.7268  -18.2950   18.5458 C   0  0  1  0  0  0  0  0  0  0  0  0
  -23.3363  -29.5643   21.2923 C   0  0  2  0  0  0  0  0  0  0  0  0
  -27.6139  -26.3893   26.1616 C   0  0  0  0  0  0  0  0  0  0  0  0
  -29.3171  -25.9054   17.2281 C   0  0  0  0  0  0  0  0  0  0  0  0
  -23.5270  -31.6312   25.6750 C   0  0  0  0  0  0  0  0  0  0  0  0
  -24.4263  -32.7831   23.6469 C   0  0  0  0  0  0  0  0  0  0  0  0
  -26.6571  -31.4969   25.3248 C   0  0  0  0  0  0  0  0  0  0  0  0
  -32.7237  -20.5459   19.1100 C   0  0  0  0  0  0  0  0  0  0  0  0
  -32.6042  -23.0345   18.8635 C   0  0  0  0  0  0  0  0  0  0  0  0
  -32.4629  -21.5748   16.8456 C   0  0  0  0  0  0  0  0  0  0  0  0
  -26.1089  -23.9404   17.7956 C   0  0  0  0  0  0  0  0  0  0  0  0
  -24.8811  -25.4828   26.8224 C   0  0  0  0  0  0  0  0  0  0  0  0
  -25.0127  -21.9619   25.3639 C   0  0  0  0  0  0  0  0  0  0  0  0
  -24.7803  -20.5580   25.9172 C   0  0  0  0  0  0  0  0  0  0  0  0
  -24.8214  -23.0143   26.4459 C   0  0  0  0  0  0  0  0  0  0  0  0
  -25.0100  -19.4906   24.8568 C   0  0  0  0  0  0  0  0  0  1  0  0
  -30.5030  -21.6794   18.4394 C   0  0  1  0  0  0  0  0  0  0  0  0
  -28.4506  -24.6580   17.3057 C   0  0  2  0  0  0  0  0  0  0  0  0
  -24.2829  -31.4237   24.3527 C   0  0  0  0  0  0  0  0  0  0  0  0
  -25.6610  -30.6399   24.4754 C   0  0  2  0  0  0  0  0  0  0  0  0
  -32.0539  -21.6947   18.3299 C   0  0  0  0  0  0  0  0  0  0  0  0
  -24.2320  -28.9056   25.3755 N   0  0  0  0  0  0  0  0  0  0  0  0
  -22.0697  -27.4485   21.2498 N   0  0  0  0  0  0  0  0  0  0  0  0
  -22.0478  -28.7776   21.4474 N   0  0  0  0  0  0  0  0  0  0  0  0
  -29.1610  -19.6500   18.8914 N   0  0  0  0  0  0  0  0  0  0  0  0
  -25.6457  -29.8863   22.1219 N   0  0  0  0  0  0  0  0  0  0  0  0
  -20.6177  -30.5804   22.0089 N   0  0  0  0  0  0  0  0  0  0  0  0
  -17.8588  -27.0053   22.0658 N   0  0  0  0  0  0  0  0  0  0  0  0
  -29.5206  -16.0226   18.7988 N   0  0  0  0  0  0  0  0  0  0  0  0
  -29.8405  -22.7402   17.6881 N   0  0  0  0  0  0  0  0  0  0  0  0
  -27.0735  -25.0663   17.7030 N   0  3  0  0  0  0  0  0  0  0  0  0
  -25.0122  -24.3602   25.8535 N   0  3  0  0  0  0  0  0  0  0  0  0
  -17.9685  -29.2774   22.3560 O   0  0  0  0  0  0  0  0  0  0  0  0
  -30.6927  -17.7937   19.7537 O   0  0  0  0  0  0  0  0  0  0  0  0
  -30.0843  -20.0322   16.7848 O   0  0  0  0  0  0  0  0  0  0  0  0
  -27.3700  -31.2132   22.9383 O   0  0  0  0  0  0  0  0  0  0  0  0
  -28.7439  -23.6872   19.4986 O   0  0  0  0  0  0  0  0  0  0  0  0
  -19.2865  -21.7264   21.0027 O   0  0  0  0  0  0  0  0  0  0  0  0
  -26.3524  -19.5919   24.3833 O   0  0  0  0  0  0  0  0  0  1  0  0
  -22.5448  -17.9349   23.3290 F   0  0  0  0  0  0  0  0  0  0  0  0
  -18.3232  -20.0464   22.9756 F   0  0  0  0  0  0  0  0  0  0  0  0
  1  2  1  0  0  0  0
  1  5  2  0  0  0  0
  2  6  2  0  0  0  0
  3  8  2  0  0  0  0
  3 17  1  0  0  0  0
  4  9  1  0  0  0  0
  4 17  2  0  0  0  0
  5 19  1  0  0  0  0
  6 21  1  0  0  0  0
  7 10  2  0  0  0  0
  7 20  1  0  0  0  0
  8 25  1  0  0  0  0
  9 25  2  0  0  0  0
 10 26  1  0  0  0  0
 11 12  2  0  0  0  0
 11 27  1  0  0  0  0
 12 28  1  0  0  0  0
 13 22  1  0  0  0  0
 13 26  2  0  0  0  0
 14 23  1  0  0  0  0
 14 31  2  0  0  0  0
 15 28  2  0  0  0  0
 15 29  1  0  0  0  0
 16 24  1  0  0  0  0
 16 69  2  0  0  0  0
 17 30  1  0  0  0  0
 18 30  1  0  0  0  0
 18 32  2  0  0  0  0
 18 33  1  0  0  0  0
 19 21  2  0  0  0  0
 19 38  1  0  0  0  0
 20 22  2  0  0  0  0
 20 39  1  0  0  0  0
 21 47  1  0  0  0  0
 22 40  1  0  0  0  0
 23 24  2  0  0  0  0
 23 50  1  0  0  0  0
 24 59  1  0  0  0  0
 25 85  1  0  0  0  0
 26 86  1  0  0  0  0
 27 29  2  0  0  0  0
 27 85  1  0  0  0  0
 28 87  1  0  0  0  0
 29 88  1  0  0  0  0
 30 70  2  0  0  0  0
 31 67  1  0  0  0  0
 31 69  1  0  0  0  0
 32 71  1  0  0  0  0
 32 74  1  0  0  0  0
 33 75  1  0  0  0  0
 33 80  2  0  0  0  0
 34 48  1  0  0  0  0
 34 76  1  0  0  0  0
 34 81  2  0  0  0  0
 35 64  1  0  0  0  0
 35 72  1  0  0  0  0
 35 82  2  0  0  0  0
 36 67  1  0  0  0  0
 36 73  1  0  0  0  0
 36 83  2  0  0  0  0
 37 65  1  0  0  0  0
 37 77  1  0  0  0  0
 37 84  2  0  0  0  0
 38 41  1  0  0  0  0
 39 48  1  0  0  0  0
 40 72  1  0  0  0  0
 41 43  1  0  0  0  0
 42 44  1  0  0  0  0
 42 45  1  0  0  0  0
 43 47  1  0  0  0  0
 44 49  1  0  0  0  0
 45 73  1  0  0  0  0
 46 49  1  0  0  0  0
 46 73  1  0  0  0  0
 47 76  1  0  0  0  0
 48 72  1  0  0  0  0
 49 71  1  0  0  0  0
 51 65  1  0  0  0  0
 52 66  1  0  0  0  0
 53 66  1  0  0  0  0
 54 67  1  0  0  0  0
 55 68  1  0  0  0  0
 56 68  1  0  0  0  0
 57 68  1  0  0  0  0
 58 78  1  0  0  0  0
 59 79  1  0  0  0  0
 60 61  1  0  0  0  0
 60 62  1  0  0  0  0
 61 63  1  0  0  0  0
 62 79  1  0  0  0  0
 63 86  1  0  0  0  0
 64 68  1  0  0  0  0
 64 77  1  0  0  0  0
 65 78  1  0  0  0  0
 66 67  1  0  0  0  0
 70 71  1  0  0  0  0
M  CHG  2  78   1  79   1
M  ISO  4  36 100  63 101  67 100  86 101
M  END
> <Batch ID>
0046

> <Smiles>
CNC(C)C(=O)NC(C(=O)N1Cc2cc([101O:1][101CH2:1]CCCNCc3cnc([100C:0](C)(C(C)C)[100C:0](=O)N4CCCC(n5nc(-c6ccc(Oc7ccc(F)cc7F)cc6)c(C(N)=O)c5N)C4)cc3C)ccc2CC1C(=O)NC1CCCc2ccccc21)C(C)(C)C

> <Shape>
0.237

> <Color>
0.076

> <Negative vol penalty>
0.000

$$$$

  -OEChem-04052317213D

 87 95  0     1  0  0  0  0  0999 V2000
  -27.7701  -27.1695   15.1456 C   0  0  0  0  0  0  0  0  0  0  0  0
  -27.4236  -26.4704   16.2974 C   0  0  0  0  0  0  0  0  0  0  0  0
  -23.0296   -9.8242   19.9826 C   0  0  0  0  0  0  0  0  0  0  0  0
  -23.7161   -9.9458   22.2958 C   0  0  0  0  0  0  0  0  0  0  0  0
  -28.2224  -28.4850   15.2395 C   0  0  0  0  0  0  0  0  0  0  0  0
  -27.5302  -27.0862   17.5440 C   0  0  0  0  0  0  0  0  0  0  0  0
  -23.4830  -26.2570   20.4728 C   0  0  0  0  0  0  0  0  0  0  0  0
  -22.2724   -8.6879   20.2670 C   0  0  0  0  0  0  0  0  0  0  0  0
  -22.9588   -8.8094   22.5802 C   0  0  0  0  0  0  0  0  0  0  0  0
  -23.3956  -25.0157   21.1015 C   0  0  0  0  0  0  0  0  0  0  0  0
  -23.2506   -5.4624   22.2025 C   0  0  0  0  0  0  0  0  0  0  0  0
  -23.8378   -4.4730   22.9912 C   0  0  0  0  0  0  0  0  0  0  0  0
  -24.2126  -26.0006   23.1464 C   0  0  0  0  0  0  0  0  0  0  0  0
  -27.4575  -17.8817   22.4838 C   0  0  0  0  0  0  0  0  0  0  0  0
  -22.0838   -4.7393   24.6312 C   0  0  0  0  0  0  0  0  0  0  0  0
  -23.7515  -10.4532   20.9970 C   0  0  0  0  0  0  0  0  0  0  0  0
  -24.1097  -12.9677   20.7594 C   0  0  0  0  0  0  0  0  0  0  0  0
  -28.3254  -29.1204   16.4870 C   0  0  0  0  0  0  0  0  0  0  0  0
  -23.9470  -27.3791   21.1743 C   0  0  0  0  0  0  0  0  0  0  0  0
  -27.9855  -28.4110   17.6547 C   0  0  0  0  0  0  0  0  0  0  0  0
  -24.3025  -27.2556   22.5250 C   0  0  0  0  0  0  0  0  0  0  0  0
  -28.2753  -18.7842   21.8128 C   0  0  0  0  0  0  0  0  0  0  0  0
  -26.7812  -18.2842   23.6301 C   0  0  0  0  0  0  0  0  0  0  0  0
  -22.2369   -8.1805   21.5658 C   0  0  0  0  0  0  0  0  0  0  0  0
  -23.7632  -24.8867   22.4377 C   0  0  0  0  0  0  0  0  0  0  0  0
  -22.0801   -6.0903   22.6282 C   0  0  0  0  0  0  0  0  0  0  0  0
  -23.2544   -4.1115   24.2055 C   0  0  0  0  0  0  0  0  0  0  0  0
  -21.4966   -5.7288   23.8425 C   0  0  0  0  0  0  0  0  0  0  0  0
  -24.5344  -11.6267   20.7037 C   0  0  0  0  0  0  0  0  0  0  0  0
  -28.3822  -20.0672   22.3249 C   0  0  0  0  0  0  0  0  0  0  0  0
  -26.9552  -19.5896   24.0609 C   0  0  0  0  0  0  0  0  0  0  0  0
  -25.2166  -13.6939   20.3937 C   0  0  0  0  0  0  0  0  0  0  0  0
  -22.8291  -13.5085   21.1105 C   0  0  0  0  0  0  0  0  0  0  0  0
  -26.4204  -29.3517   20.8670 C   0  0  0  0  0  0  0  0  0  0  0  0
  -24.9447  -30.9512   23.2725 C   0  0  0  0  0  0  0  0  0  0  0  0
  -22.7961  -30.8593   25.9223 C   0  0  0  0  0  0  0  0  0  0  0  0
  -30.6966  -14.7027   20.7057 C   0  0  0  0  0  0  0  0  0  0  0  0
  -28.8642  -30.5280   16.5424 C   0  0  0  0  0  0  0  0  0  0  0  0
  -24.0100  -28.7166   20.4892 C   0  0  0  0  0  0  0  0  0  0  0  0
  -24.7877  -28.4337   23.3282 C   0  0  0  0  0  0  0  0  0  0  0  0
  -28.5923  -31.2325   17.8691 C   0  0  0  0  0  0  0  0  0  0  0  0
  -29.6237  -12.2032   18.4082 C   0  0  0  0  0  0  0  0  0  0  0  0
  -28.9332  -30.3160   19.0399 C   0  0  0  0  0  0  0  0  0  0  0  0
  -28.1717  -11.9369   18.8092 C   0  0  0  0  0  0  0  0  0  0  0  0
  -30.5032  -12.4820   19.6251 C   0  0  0  0  0  0  0  0  0  0  0  0
  -28.5619  -13.2894   20.9109 C   0  0  0  0  0  0  0  0  0  0  0  0
  -28.0639  -29.0529   19.0229 C   0  0  1  0  0  0  0  0  0  0  0  0
  -24.9837  -29.6839   21.1554 C   0  0  1  0  0  0  0  0  0  0  0  0
  -27.6249  -13.0582   19.7131 C   0  0  2  0  0  0  0  0  0  0  0  0
  -29.2469  -21.0791   21.6472 C   0  0  0  0  0  0  0  0  0  0  0  0
  -26.5592  -16.7749   25.6198 C   0  0  0  0  0  0  0  0  0  0  0  0
  -21.8197  -32.3150   27.7181 C   0  0  0  0  0  0  0  0  0  0  0  0
  -27.5784  -30.8199   24.8074 C   0  0  0  0  0  0  0  0  0  0  0  0
  -26.3149  -31.4066   26.8877 C   0  0  0  0  0  0  0  0  0  0  0  0
  -26.3803  -33.0086   24.9767 C   0  0  0  0  0  0  0  0  0  0  0  0
  -20.0395  -30.4271   24.9355 C   0  0  0  0  0  0  0  0  0  0  0  0
  -25.9037  -17.3222   24.3537 C   0  0  0  0  0  0  0  0  0  0  0  0
  -29.0024  -18.3592   20.5842 C   0  0  0  0  0  0  0  0  0  0  0  0
  -26.2455  -20.0814   25.2971 C   0  0  0  0  0  0  0  0  0  0  0  0
  -30.4898  -18.0179   20.8067 C   0  0  0  0  0  0  0  0  0  0  0  0
  -25.8909  -21.5720   25.2558 C   0  0  0  0  0  0  0  0  0  0  0  0
  -24.9078  -21.9227   24.1381 C   0  0  0  0  0  0  0  0  0  0  0  0
  -30.7338  -16.9134   21.8328 C   0  0  0  0  0  0  0  0  0  0  0  0
  -24.6104  -23.4157   24.1032 C   0  0  0  0  0  0  0  0  0  1  0  0
  -24.9980  -30.9008   24.7803 C   0  0  1  0  0  0  0  0  0  0  0  0
  -21.6395  -31.7616   26.3131 C   0  0  2  0  0  0  0  0  0  0  0  0
  -26.3106  -31.5112   25.3476 C   0  0  0  0  0  0  0  0  0  0  0  0
  -25.8115  -11.5053   20.3316 N   0  0  0  0  0  0  0  0  0  0  0  0
  -27.7410  -20.4947   23.4356 N   0  0  0  0  0  0  0  0  0  0  0  0
  -26.1987  -12.7794   20.1502 N   0  0  0  0  0  0  0  0  0  0  0  0
  -24.8377  -29.7190   22.6120 N   0  0  0  0  0  0  0  0  0  0  0  0
  -29.9298  -13.5563   20.4394 N   0  0  0  0  0  0  0  0  0  0  0  0
  -25.4359  -15.0192   20.2597 N   0  0  0  0  0  0  0  0  0  0  0  0
  -21.8024  -12.6212   21.4611 N   0  0  0  0  0  0  0  0  0  0  0  0
  -26.7374  -29.3455   19.5220 N   0  0  0  0  0  0  0  0  0  0  0  0
  -23.7821  -31.5535   25.2538 N   0  0  0  0  0  0  0  0  0  0  0  0
  -30.0756  -15.6753   21.4796 N   0  0  0  0  0  0  0  0  0  0  0  0
  -20.3552  -31.0071   26.2663 N   0  3  0  0  0  0  0  0  0  0  0  0
  -22.5973  -14.7413   21.0975 O   0  0  0  0  0  0  0  0  0  0  0  0
  -27.1852  -29.1198   21.7960 O   0  0  0  0  0  0  0  0  0  0  0  0
  -24.9889  -32.0439   22.7019 O   0  0  0  0  0  0  0  0  0  0  0  0
  -22.8237  -29.6594   26.1871 O   0  0  0  0  0  0  0  0  0  0  0  0
  -31.8473  -14.8509   20.2804 O   0  0  0  0  0  0  0  0  0  0  0  0
  -21.4979   -7.0718   21.8437 O   0  0  0  0  0  0  0  0  0  0  0  0
  -23.6795  -23.6761   23.0536 O   0  0  0  0  0  0  0  0  0  1  0  0
  -23.8175   -3.1603   24.9620 F   0  0  0  0  0  0  0  0  0  0  0  0
  -20.3714   -6.3276   24.2562 F   0  0  0  0  0  0  0  0  0  0  0  0
  1  2  1  0  0  0  0
  1  5  2  0  0  0  0
  2  6  2  0  0  0  0
  3  8  2  0  0  0  0
  3 16  1  0  0  0  0
  4  9  1  0  0  0  0
  4 16  2  0  0  0  0
  5 18  1  0  0  0  0
  6 20  1  0  0  0  0
  7 10  2  0  0  0  0
  7 19  1  0  0  0  0
  8 24  1  0  0  0  0
  9 24  2  0  0  0  0
 10 25  1  0  0  0  0
 11 12  2  0  0  0  0
 11 26  1  0  0  0  0
 12 27  1  0  0  0  0
 13 21  1  0  0  0  0
 13 25  2  0  0  0  0
 14 22  2  0  0  0  0
 14 23  1  0  0  0  0
 15 27  2  0  0  0  0
 15 28  1  0  0  0  0
 16 29  1  0  0  0  0
 17 29  1  0  0  0  0
 17 32  2  0  0  0  0
 17 33  1  0  0  0  0
 18 20  2  0  0  0  0
 18 38  1  0  0  0  0
 19 21  2  0  0  0  0
 19 39  1  0  0  0  0
 20 47  1  0  0  0  0
 21 40  1  0  0  0  0
 22 30  1  0  0  0  0
 22 58  1  0  0  0  0
 23 31  2  0  0  0  0
 23 57  1  0  0  0  0
 24 84  1  0  0  0  0
 25 85  1  0  0  0  0
 26 28  2  0  0  0  0
 26 84  1  0  0  0  0
 27 86  1  0  0  0  0
 28 87  1  0  0  0  0
 29 68  2  0  0  0  0
 30 50  1  0  0  0  0
 30 69  2  0  0  0  0
 31 59  1  0  0  0  0
 31 69  1  0  0  0  0
 32 70  1  0  0  0  0
 32 73  1  0  0  0  0
 33 74  1  0  0  0  0
 33 79  2  0  0  0  0
 34 48  1  0  0  0  0
 34 75  1  0  0  0  0
 34 80  2  0  0  0  0
 35 65  1  0  0  0  0
 35 71  1  0  0  0  0
 35 81  2  0  0  0  0
 36 66  1  0  0  0  0
 36 76  1  0  0  0  0
 36 82  2  0  0  0  0
 37 72  1  0  0  0  0
 37 77  1  0  0  0  0
 37 83  2  0  0  0  0
 38 41  1  0  0  0  0
 39 48  1  0  0  0  0
 40 71  1  0  0  0  0
 41 43  1  0  0  0  0
 42 44  1  0  0  0  0
 42 45  1  0  0  0  0
 43 47  1  0  0  0  0
 44 49  1  0  0  0  0
 45 72  1  0  0  0  0
 46 49  1  0  0  0  0
 46 72  1  0  0  0  0
 47 75  1  0  0  0  0
 48 71  1  0  0  0  0
 49 70  1  0  0  0  0
 51 57  1  0  0  0  0
 52 66  1  0  0  0  0
 53 67  1  0  0  0  0
 54 67  1  0  0  0  0
 55 67  1  0  0  0  0
 56 78  1  0  0  0  0
 58 60  1  0  0  0  0
 59 61  1  0  0  0  0
 60 63  1  0  0  0  0
 61 62  1  0  0  0  0
 62 64  1  0  0  0  0
 63 77  1  0  0  0  0
 64 85  1  0  0  0  0
 65 67  1  0  0  0  0
 65 76  1  0  0  0  0
 66 78  1  0  0  0  0
 68 70  1  0  0  0  0
M  CHG  1  78   1
M  ISO  4  37 100  64 101  77 100  85 101
M  END
> <Batch ID>
0046

> <Smiles>
CCc1cc(CCC[100NH:0][100C:0](=O)N2CCCC(n3nc(-c4ccc(Oc5ccc(F)cc5F)cc4)c(C(N)=O)c3N)C2)c(C)nc1CCC[101CH2:1][101O:1]c1ccc2c(c1)CN(C(=O)C(NC(=O)C(C)NC)C(C)(C)C)C(C(=O)NC1CCCc3ccccc31)C2

> <Shape>
0.293

> <Color>
0.222

> <Negative vol penalty>
0.000

$$$$

  -OEChem-04052317213D

 87 95  0     1  0  0  0  0  0999 V2000
  -17.8290  -29.1327   25.9138 C   0  0  0  0  0  0  0  0  0  0  0  0
  -19.1661  -28.8366   26.1583 C   0  0  0  0  0  0  0  0  0  0  0  0
  -25.5463  -14.7288   21.7254 C   0  0  0  0  0  0  0  0  0  0  0  0
  -25.3949  -15.3700   19.4010 C   0  0  0  0  0  0  0  0  0  0  0  0
  -17.3152  -29.0162   24.6229 C   0  0  0  0  0  0  0  0  0  0  0  0
  -19.9900  -28.4227   25.1123 C   0  0  0  0  0  0  0  0  0  0  0  0
  -25.9440  -29.6682   24.4014 C   0  0  0  0  0  0  0  0  0  0  0  0
  -24.5609  -13.7627   21.5231 C   0  0  0  0  0  0  0  0  0  0  0  0
  -24.4094  -14.4038   19.1986 C   0  0  0  0  0  0  0  0  0  0  0  0
  -27.0958  -28.9349   24.6830 C   0  0  0  0  0  0  0  0  0  0  0  0
  -24.3534  -10.6524   20.2130 C   0  0  0  0  0  0  0  0  0  0  0  0
  -24.5668   -9.3854   20.7557 C   0  0  0  0  0  0  0  0  0  0  0  0
  -27.1669  -28.1788   22.3933 C   0  0  0  0  0  0  0  0  0  0  0  0
  -22.5568   -9.6128   22.0769 C   0  0  0  0  0  0  0  0  0  0  0  0
  -25.9633  -15.5326   20.6643 C   0  0  0  0  0  0  0  0  0  0  0  0
  -28.3725  -16.3681   20.7369 C   0  0  0  0  0  0  0  0  0  0  0  0
  -18.1356  -28.6100   23.5587 C   0  0  0  0  0  0  0  0  0  0  0  0
  -25.3878  -29.6536   23.1142 C   0  0  0  0  0  0  0  0  0  0  0  0
  -19.4864  -28.2994   23.8062 C   0  0  0  0  0  0  0  0  0  0  0  0
  -26.0094  -28.9149   22.0973 C   0  0  0  0  0  0  0  0  0  0  0  0
  -23.9924  -13.6001   20.2597 C   0  0  0  0  0  0  0  0  0  0  0  0
  -27.7058  -28.1877   23.6796 C   0  0  0  0  0  0  0  0  0  0  0  0
  -23.2418  -11.3998   20.6022 C   0  0  0  0  0  0  0  0  0  0  0  0
  -23.6685   -8.8655   21.6876 C   0  0  0  0  0  0  0  0  0  0  0  0
  -22.3435  -10.8799   21.5341 C   0  0  0  0  0  0  0  0  0  0  0  0
  -26.9809  -16.5312   20.8728 C   0  0  0  0  0  0  0  0  0  0  0  0
  -29.5929  -25.0933   18.5230 C   0  0  0  0  0  0  0  0  0  0  0  0
  -30.9160  -22.8046   18.8949 C   0  0  0  0  0  0  0  0  0  0  0  0
  -29.0586  -23.8897   18.1190 C   0  0  0  0  0  0  0  0  0  0  0  0
  -31.4507  -24.0082   19.2983 C   0  0  0  0  0  0  0  0  0  0  0  0
  -28.8942  -17.6014   21.0423 C   0  0  0  0  0  0  0  0  0  0  0  0
  -29.1263  -15.2057   20.3676 C   0  0  0  0  0  0  0  0  0  0  0  0
  -22.6121  -28.7174   21.8804 C   0  0  0  0  0  0  0  0  0  0  0  0
  -23.8153  -30.0368   19.1723 C   0  0  0  0  0  0  0  0  0  0  0  0
  -26.5638  -30.9838   17.3846 C   0  0  0  0  0  0  0  0  0  0  0  0
  -26.6568  -23.1497   20.7955 C   0  0  0  0  0  0  0  0  0  0  0  0
  -17.5236  -28.4532   22.1892 C   0  0  0  0  0  0  0  0  0  0  0  0
  -24.1602  -30.4714   22.8200 C   0  0  0  0  0  0  0  0  0  0  0  0
  -25.4636  -28.8821   20.6940 C   0  0  0  0  0  0  0  0  0  0  0  0
  -18.5551  -28.3689   21.0671 C   0  0  0  0  0  0  0  0  0  0  0  0
  -27.9927  -21.5054   23.6570 C   0  0  0  0  0  0  0  0  0  0  0  0
  -19.6713  -27.3983   21.4398 C   0  0  0  0  0  0  0  0  0  0  0  0
  -28.0104  -20.0294   23.2557 C   0  0  0  0  0  0  0  0  0  0  0  0
  -26.7723  -22.2291   23.0924 C   0  0  0  0  0  0  0  0  0  0  0  0
  -26.6102  -20.6194   21.2333 C   0  0  0  0  0  0  0  0  0  0  0  0
  -20.4179  -27.8711   22.6930 C   0  0  1  0  0  0  0  0  0  0  0  0
  -23.3883  -29.9734   21.6020 C   0  0  1  0  0  0  0  0  0  0  0  0
  -27.8516  -19.8605   21.7327 C   0  0  2  0  0  0  0  0  0  0  0  0
  -28.8613  -26.3759   18.3201 C   0  0  0  0  0  0  0  0  0  0  0  0
  -31.6472  -21.5218   19.0979 C   0  0  0  0  0  0  0  0  0  0  0  0
  -27.2319  -31.9982   15.1887 C   0  0  0  0  0  0  0  0  0  0  0  0
  -23.2469  -27.3837   17.7765 C   0  0  0  0  0  0  0  0  0  0  0  0
  -24.7638  -28.1136   15.9232 C   0  0  0  0  0  0  0  0  0  0  0  0
  -22.6944  -29.4135   16.4240 C   0  0  0  0  0  0  0  0  0  0  0  0
  -27.8481  -33.2965   18.7116 C   0  0  0  0  0  0  0  0  0  0  0  0
  -27.7239  -23.8141   17.4597 C   0  0  0  0  0  0  0  0  0  0  0  0
  -32.7957  -24.0844   19.9611 C   0  0  0  0  0  0  0  0  0  0  0  0
  -31.1571  -27.1537   23.4657 C   0  0  0  0  0  0  0  0  0  0  0  0
  -26.5476  -23.9186   18.4384 C   0  0  0  0  0  0  0  0  0  0  0  0
  -33.0738  -25.4218   20.6399 C   0  0  0  0  0  0  0  0  0  0  0  0
  -32.2425  -26.9689   22.4159 C   0  0  0  0  0  0  0  0  0  0  0  0
  -29.7554  -27.2826   22.8822 C   0  0  0  0  0  0  0  0  0  1  0  0
  -24.6518  -29.5363   18.0196 C   0  0  1  0  0  0  0  0  0  0  0  0
  -26.8912  -32.2690   16.6459 C   0  0  2  0  0  0  0  0  0  0  0  0
  -23.8487  -28.6106   17.0627 C   0  0  0  0  0  0  0  0  0  0  0  0
  -26.6400  -17.7704   21.2363 N   0  0  0  0  0  0  0  0  0  0  0  0
  -29.7103  -22.7237   18.2980 N   0  0  0  0  0  0  0  0  0  0  0  0
  -30.7987  -25.1742   19.1196 N   0  0  0  0  0  0  0  0  0  0  0  0
  -27.8250  -18.3972   21.3315 N   0  0  0  0  0  0  0  0  0  0  0  0
  -24.2578  -29.6931   20.4576 N   0  0  0  0  0  0  0  0  0  0  0  0
  -26.6805  -22.0305   21.6439 N   0  0  0  0  0  0  0  0  0  0  0  0
  -30.1587  -18.0719   21.0889 N   0  0  0  0  0  0  0  0  0  0  0  0
  -28.4324  -14.0208   20.0868 N   0  0  0  0  0  0  0  0  0  0  0  0
  -21.3359  -28.9397   22.3614 N   0  0  0  0  0  0  0  0  0  0  0  0
  -25.2103  -30.7205   17.3761 N   0  0  0  0  0  0  0  0  0  0  0  0
  -26.5749  -22.8727   19.4363 N   0  0  0  0  0  0  0  0  0  0  0  0
  -28.0543  -32.9500   17.2818 N   0  3  0  0  0  0  0  0  0  0  0  0
  -32.0248  -25.7163   21.6550 N   0  3  0  0  0  0  0  0  0  0  0  0
  -30.3791  -15.2130   20.3050 O   0  0  0  0  0  0  0  0  0  0  0  0
  -23.1319  -27.6273   21.6728 O   0  0  0  0  0  0  0  0  0  0  0  0
  -22.8105  -30.7139   18.9412 O   0  0  0  0  0  0  0  0  0  0  0  0
  -27.4231  -30.2817   17.9129 O   0  0  0  0  0  0  0  0  0  0  0  0
  -26.7104  -24.3098   21.2176 O   0  0  0  0  0  0  0  0  0  0  0  0
  -23.0309  -12.6573   20.0619 O   0  0  0  0  0  0  0  0  0  0  0  0
  -28.8298  -27.4705   23.9519 O   0  0  0  0  0  0  0  0  0  1  0  0
  -23.8726   -7.6481   22.2076 F   0  0  0  0  0  0  0  0  0  0  0  0
  -21.2731  -11.5927   21.9111 F   0  0  0  0  0  0  0  0  0  0  0  0
  1  2  1  0  0  0  0
  1  5  2  0  0  0  0
  2  6  2  0  0  0  0
  3  8  2  0  0  0  0
  3 15  1  0  0  0  0
  4  9  1  0  0  0  0
  4 15  2  0  0  0  0
  5 17  1  0  0  0  0
  6 19  1  0  0  0  0
  7 10  2  0  0  0  0
  7 18  1  0  0  0  0
  8 21  1  0  0  0  0
  9 21  2  0  0  0  0
 10 22  1  0  0  0  0
 11 12  2  0  0  0  0
 11 23  1  0  0  0  0
 12 24  1  0  0  0  0
 13 20  1  0  0  0  0
 13 22  2  0  0  0  0
 14 24  2  0  0  0  0
 14 25  1  0  0  0  0
 15 26  1  0  0  0  0
 16 26  1  0  0  0  0
 16 31  2  0  0  0  0
 16 32  1  0  0  0  0
 17 19  2  0  0  0  0
 17 37  1  0  0  0  0
 18 20  2  0  0  0  0
 18 38  1  0  0  0  0
 19 46  1  0  0  0  0
 20 39  1  0  0  0  0
 21 84  1  0  0  0  0
 22 85  1  0  0  0  0
 23 25  2  0  0  0  0
 23 84  1  0  0  0  0
 24 86  1  0  0  0  0
 25 87  1  0  0  0  0
 26 66  2  0  0  0  0
 27 29  1  0  0  0  0
 27 49  1  0  0  0  0
 27 68  2  0  0  0  0
 28 30  2  0  0  0  0
 28 50  1  0  0  0  0
 28 67  1  0  0  0  0
 29 56  1  0  0  0  0
 29 67  2  0  0  0  0
 30 57  1  0  0  0  0
 30 68  1  0  0  0  0
 31 69  1  0  0  0  0
 31 72  1  0  0  0  0
 32 73  1  0  0  0  0
 32 79  2  0  0  0  0
 33 47  1  0  0  0  0
 33 74  1  0  0  0  0
 33 80  2  0  0  0  0
 34 63  1  0  0  0  0
 34 70  1  0  0  0  0
 34 81  2  0  0  0  0
 35 64  1  0  0  0  0
 35 75  1  0  0  0  0
 35 82  2  0  0  0  0
 36 71  1  0  0  0  0
 36 76  1  0  0  0  0
 36 83  2  0  0  0  0
 37 40  1  0  0  0  0
 38 47  1  0  0  0  0
 39 70  1  0  0  0  0
 40 42  1  0  0  0  0
 41 43  1  0  0  0  0
 41 44  1  0  0  0  0
 42 46  1  0  0  0  0
 43 48  1  0  0  0  0
 44 71  1  0  0  0  0
 45 48  1  0  0  0  0
 45 71  1  0  0  0  0
 46 74  1  0  0  0  0
 47 70  1  0  0  0  0
 48 69  1  0  0  0  0
 51 64  1  0  0  0  0
 52 65  1  0  0  0  0
 53 65  1  0  0  0  0
 54 65  1  0  0  0  0
 55 77  1  0  0  0  0
 56 59  1  0  0  0  0
 57 60  1  0  0  0  0
 58 61  1  0  0  0  0
 58 62  1  0  0  0  0
 59 76  1  0  0  0  0
 60 78  1  0  0  0  0
 61 78  1  0  0  0  0
 62 85  1  0  0  0  0
 63 65  1  0  0  0  0
 63 75  1  0  0  0  0
 64 77  1  0  0  0  0
 66 69  1  0  0  0  0
M  CHG  2  77   1  78   1
M  ISO  4  36 100  62 101  76 100  85 101
M  END
> <Batch ID>
0046

> <Smiles>
CNC(C)C(=O)NC(C(=O)N1Cc2cc([101O:1][101CH2:1]CCNCCc3nc(C)c(CC[100NH:0][100C:0](=O)N4CCCC(n5nc(-c6ccc(Oc7ccc(F)cc7F)cc6)c(C(N)=O)c5N)C4)nc3C)ccc2CC1C(=O)NC1CCCc2ccccc21)C(C)(C)C

> <Shape>
0.251

> <Color>
0.074

> <Negative vol penalty>
0.000

$$$$

  -OEChem-04052317213D

 85 93  0     1  0  0  0  0  0999 V2000
  -31.3520  -21.4406   16.9950 C   0  0  0  0  0  0  0  0  0  0  0  0
  -31.0554  -21.7421   18.3203 C   0  0  0  0  0  0  0  0  0  0  0  0
  -25.4447  -13.3331   19.5652 C   0  0  0  0  0  0  0  0  0  0  0  0
  -25.3288  -13.1486   21.9713 C   0  0  0  0  0  0  0  0  0  0  0  0
  -31.2496  -22.4287   16.0167 C   0  0  0  0  0  0  0  0  0  0  0  0
  -30.6571  -23.0324   18.6683 C   0  0  0  0  0  0  0  0  0  0  0  0
  -26.6896  -23.0586   21.8152 C   0  0  0  0  0  0  0  0  0  0  0  0
  -24.8581  -12.0738   19.4403 C   0  0  0  0  0  0  0  0  0  0  0  0
  -24.7421  -11.8893   21.8465 C   0  0  0  0  0  0  0  0  0  0  0  0
  -26.9404  -22.7815   23.1583 C   0  0  0  0  0  0  0  0  0  0  0  0
  -21.7576  -10.7393   19.6385 C   0  0  0  0  0  0  0  0  0  0  0  0
  -20.7342  -10.5908   18.7025 C   0  0  0  0  0  0  0  0  0  0  0  0
  -26.8765  -25.1421   23.6510 C   0  0  0  0  0  0  0  0  0  0  0  0
  -22.0342   -8.9136   17.5473 C   0  0  0  0  0  0  0  0  0  0  0  0
  -25.6801  -13.8705   20.8307 C   0  0  0  0  0  0  0  0  0  0  0  0
  -25.6278  -16.4137   21.0241 C   0  0  0  0  0  0  0  0  0  0  0  0
  -30.8406  -23.7292   16.3513 C   0  0  0  0  0  0  0  0  0  0  0  0
  -26.5409  -24.3824   21.3772 C   0  0  0  0  0  0  0  0  0  0  0  0
  -30.5504  -24.0392   17.6938 C   0  0  0  0  0  0  0  0  0  0  0  0
  -26.6213  -25.4332   22.3022 C   0  0  0  0  0  0  0  0  0  0  0  0
  -24.5068  -11.3519   20.5810 C   0  0  0  0  0  0  0  0  0  0  0  0
  -27.0368  -23.8235   24.0760 C   0  0  0  0  0  0  0  0  0  0  0  0
  -22.9194   -9.9751   19.5290 C   0  0  0  0  0  0  0  0  0  0  0  0
  -20.8725   -9.6780   17.6569 C   0  0  0  0  0  0  0  0  0  0  0  0
  -23.0576   -9.0622   18.4834 C   0  0  0  0  0  0  0  0  0  0  0  0
  -26.2865  -15.1711   20.9603 C   0  0  0  0  0  0  0  0  0  0  0  0
  -26.6408  -17.3334   21.1442 C   0  0  0  0  0  0  0  0  0  0  0  0
  -24.2258  -16.7099   20.9788 C   0  0  0  0  0  0  0  0  0  0  0  0
  -28.1038  -26.2617   19.3452 C   0  0  0  0  0  0  0  0  0  0  0  0
  -25.6634  -28.3064   19.9665 C   0  0  0  0  0  0  0  0  0  0  0  0
  -23.1945  -29.3079   22.0992 C   0  0  0  0  0  0  0  0  0  0  0  0
  -32.2370  -16.9848   23.2447 C   0  0  0  0  0  0  0  0  0  0  0  0
  -30.7902  -24.7760   15.2667 C   0  0  0  0  0  0  0  0  0  0  0  0
  -26.2442  -24.6629   19.9296 C   0  0  0  0  0  0  0  0  0  0  0  0
  -26.4492  -26.8705   21.8864 C   0  0  0  0  0  0  0  0  0  0  0  0
  -30.0000  -26.0218   15.6589 C   0  0  0  0  0  0  0  0  0  0  0  0
  -31.2328  -18.0187   19.9891 C   0  0  0  0  0  0  0  0  0  0  0  0
  -30.4012  -26.4914   17.0536 C   0  0  0  0  0  0  0  0  0  0  0  0
  -29.3951  -18.7327   27.6807 C   0  0  0  0  0  0  0  0  0  0  0  0
  -31.3842  -19.6628   26.4336 C   0  0  0  0  0  0  0  0  0  0  0  0
  -28.6370  -20.0378   27.4449 C   0  0  0  0  0  0  0  0  0  0  0  0
  -30.6259  -20.9678   26.1976 C   0  0  0  0  0  0  0  0  0  0  0  0
  -29.7919  -17.5183   19.8746 C   0  0  0  0  0  0  0  0  0  0  0  0
  -32.1087  -17.0427   20.7716 C   0  0  0  0  0  0  0  0  0  0  0  0
  -30.1489  -16.1745   21.9878 C   0  0  0  0  0  0  0  0  0  0  0  0
  -30.0912  -25.4207   18.1067 C   0  0  1  0  0  0  0  0  0  0  0  0
  -26.6211  -26.0792   19.5059 C   0  0  1  0  0  0  0  0  0  0  0  0
  -30.4298  -18.4708   26.5789 C   0  0  0  0  0  0  0  0  0  0  0  0
  -29.5917  -21.2297   27.2997 C   0  0  0  0  0  0  0  0  0  0  0  0
  -29.2141  -17.1520   21.2549 C   0  0  2  0  0  0  0  0  0  0  0  0
  -21.3882  -31.0316   22.3508 C   0  0  0  0  0  0  0  0  0  0  0  0
  -30.2194  -16.0081   26.9629 C   0  0  0  0  0  0  0  0  0  0  0  0
  -31.9443  -17.3141   28.2134 C   0  0  0  0  0  0  0  0  0  0  0  0
  -29.7977  -23.6899   26.9163 C   0  0  0  0  0  0  0  0  0  0  0  0
  -27.8392  -22.7714   28.1768 C   0  0  0  0  0  0  0  0  0  0  0  0
  -27.7650  -30.4019   20.6747 C   0  0  0  0  0  0  0  0  0  0  0  0
  -25.9632  -31.7281   21.7985 C   0  0  0  0  0  0  0  0  0  0  0  0
  -25.8303  -31.2712   19.3498 C   0  0  0  0  0  0  0  0  0  0  0  0
  -21.0758  -27.2433   22.1858 C   0  0  0  0  0  0  0  0  0  0  0  0
  -32.2096  -16.8776   25.7240 C   0  0  0  0  0  0  0  0  0  0  0  0
  -28.0508  -22.3896   25.6796 C   0  0  0  0  0  0  0  0  0  1  0  0
  -25.4101  -29.3903   20.9862 C   0  0  1  0  0  0  0  0  0  0  0  0
  -21.7303  -29.6322   21.8638 C   0  0  2  0  0  0  0  0  0  0  0  0
  -31.2088  -17.1883   26.8644 C   0  0  0  0  0  0  0  0  0  0  0  0
  -28.8134  -22.5129   27.0153 C   0  0  0  0  0  0  0  0  0  0  0  0
  -26.2474  -30.6710   20.7101 C   0  0  0  0  0  0  0  0  0  0  0  0
  -27.6151  -15.2874   21.0337 N   0  0  0  0  0  0  0  0  0  0  0  0
  -27.7995  -16.6140   21.1448 N   0  0  0  0  0  0  0  0  0  0  0  0
  -26.1668  -27.0940   20.4589 N   0  0  0  0  0  0  0  0  0  0  0  0
  -31.5055  -16.7379   22.0713 N   0  0  0  0  0  0  0  0  0  0  0  0
  -26.6445  -18.6794   21.2483 N   0  0  0  0  0  0  0  0  0  0  0  0
  -23.3218  -15.6463   20.8529 N   0  0  0  0  0  0  0  0  0  0  0  0
  -28.6780  -25.4127   18.4184 N   0  0  0  0  0  0  0  0  0  0  0  0
  -23.9680  -29.6104   20.9985 N   0  0  0  0  0  0  0  0  0  0  0  0
  -31.5892  -16.6737   24.4340 N   0  0  0  0  0  0  0  0  0  0  0  0
  -20.8619  -28.6585   22.5840 N   0  3  0  0  0  0  0  0  0  0  0  0
  -23.7883  -17.8844   21.0314 O   0  0  0  0  0  0  0  0  0  0  0  0
  -28.6838  -27.1111   20.0115 O   0  0  0  0  0  0  0  0  0  0  0  0
  -25.4166  -28.5248   18.7778 O   0  0  0  0  0  0  0  0  0  0  0  0
  -23.6111  -28.8372   23.1553 O   0  0  0  0  0  0  0  0  0  0  0  0
  -33.3804  -17.4531   23.2337 O   0  0  0  0  0  0  0  0  0  0  0  0
  -23.9342  -10.1231   20.4595 O   0  0  0  0  0  0  0  0  0  0  0  0
  -27.2822  -23.5559   25.3875 O   0  0  0  0  0  0  0  0  0  1  0  0
  -19.8890   -9.5343   16.7590 F   0  0  0  0  0  0  0  0  0  0  0  0
  -24.1709   -8.3243   18.3736 F   0  0  0  0  0  0  0  0  0  0  0  0
  1  2  1  0  0  0  0
  1  5  2  0  0  0  0
  2  6  2  0  0  0  0
  3  8  2  0  0  0  0
  3 15  1  0  0  0  0
  4  9  1  0  0  0  0
  4 15  2  0  0  0  0
  5 17  1  0  0  0  0
  6 19  1  0  0  0  0
  7 10  2  0  0  0  0
  7 18  1  0  0  0  0
  8 21  1  0  0  0  0
  9 21  2  0  0  0  0
 10 22  1  0  0  0  0
 11 12  2  0  0  0  0
 11 23  1  0  0  0  0
 12 24  1  0  0  0  0
 13 20  1  0  0  0  0
 13 22  2  0  0  0  0
 14 24  2  0  0  0  0
 14 25  1  0  0  0  0
 15 26  1  0  0  0  0
 16 26  1  0  0  0  0
 16 27  2  0  0  0  0
 16 28  1  0  0  0  0
 17 19  2  0  0  0  0
 17 33  1  0  0  0  0
 18 20  2  0  0  0  0
 18 34  1  0  0  0  0
 19 46  1  0  0  0  0
 20 35  1  0  0  0  0
 21 82  1  0  0  0  0
 22 83  1  0  0  0  0
 23 25  2  0  0  0  0
 23 82  1  0  0  0  0
 24 84  1  0  0  0  0
 25 85  1  0  0  0  0
 26 67  2  0  0  0  0
 27 68  1  0  0  0  0
 27 71  1  0  0  0  0
 28 72  1  0  0  0  0
 28 77  2  0  0  0  0
 29 47  1  0  0  0  0
 29 73  1  0  0  0  0
 29 78  2  0  0  0  0
 30 62  1  0  0  0  0
 30 69  1  0  0  0  0
 30 79  2  0  0  0  0
 31 63  1  0  0  0  0
 31 74  1  0  0  0  0
 31 80  2  0  0  0  0
 32 70  1  0  0  0  0
 32 75  1  0  0  0  0
 32 81  2  0  0  0  0
 33 36  1  0  0  0  0
 34 47  1  0  0  0  0
 35 69  1  0  0  0  0
 36 38  1  0  0  0  0
 37 43  1  0  0  0  0
 37 44  1  0  0  0  0
 38 46  1  0  0  0  0
 39 41  1  0  0  0  0
 39 48  1  0  0  0  0
 40 42  1  0  0  0  0
 40 48  1  0  0  0  0
 41 49  1  0  0  0  0
 42 49  1  0  0  0  0
 43 50  1  0  0  0  0
 44 70  1  0  0  0  0
 45 50  1  0  0  0  0
 45 70  1  0  0  0  0
 46 73  1  0  0  0  0
 47 69  1  0  0  0  0
 48 64  1  0  0  0  0
 49 65  1  0  0  0  0
 50 68  1  0  0  0  0
 51 63  1  0  0  0  0
 52 64  1  0  0  0  0
 53 64  1  0  0  0  0
 54 65  1  0  0  0  0
 55 65  1  0  0  0  0
 56 66  1  0  0  0  0
 57 66  1  0  0  0  0
 58 66  1  0  0  0  0
 59 76  1  0  0  0  0
 60 64  1  0  0  0  0
 60 75  1  0  0  0  0
 61 65  1  0  0  0  0
 61 83  1  0  0  0  0
 62 66  1  0  0  0  0
 62 74  1  0  0  0  0
 63 76  1  0  0  0  0
 67 68  1  0  0  0  0
M  CHG  1  76   1
M  ISO  4  32 100  61 101  75 100  83 101
M  END
> <Batch ID>
0046

> <Smiles>
CNC(C)C(=O)NC(C(=O)N1Cc2cc([101O:1][101CH2:1]C(C)(C)C3CCC(C(C)(C)C[100NH:0][100C:0](=O)N4CCCC(n5nc(-c6ccc(Oc7ccc(F)cc7F)cc6)c(C(N)=O)c5N)C4)CC3)ccc2CC1C(=O)NC1CCCc2ccccc21)C(C)(C)C

> <Shape>
0.211

> <Color>
0.060

> <Negative vol penalty>
0.000

$$$$

  -OEChem-04052317213D

 86 94  0     1  0  0  0  0  0999 V2000
  -27.3668  -31.7726   26.7484 C   0  0  0  0  0  0  0  0  0  0  0  0
  -26.9972  -30.5055   27.1879 C   0  0  0  0  0  0  0  0  0  0  0  0
  -23.1965   -9.8817   21.4312 C   0  0  0  0  0  0  0  0  0  0  0  0
  -23.9483  -10.7668   23.5499 C   0  0  0  0  0  0  0  0  0  0  0  0
  -26.8794  -32.2582   25.5358 C   0  0  0  0  0  0  0  0  0  0  0  0
  -26.1390  -29.7237   26.4155 C   0  0  0  0  0  0  0  0  0  0  0  0
  -26.2475  -23.6297   25.8170 C   0  0  0  0  0  0  0  0  0  0  0  0
  -22.5091   -8.8680   22.0986 C   0  0  0  0  0  0  0  0  0  0  0  0
  -23.2609   -9.7531   24.2173 C   0  0  0  0  0  0  0  0  0  0  0  0
  -25.5098  -22.6143   26.4241 C   0  0  0  0  0  0  0  0  0  0  0  0
  -23.2420   -5.9194   23.5796 C   0  0  0  0  0  0  0  0  0  0  0  0
  -23.3619   -4.6212   23.0839 C   0  0  0  0  0  0  0  0  0  0  0  0
  -24.0034  -22.5905   24.5402 C   0  0  0  0  0  0  0  0  0  0  0  0
  -20.9732   -4.5349   22.7322 C   0  0  0  0  0  0  0  0  0  0  0  0
  -26.9069  -18.4796   24.1045 C   0  0  0  0  0  0  0  0  0  0  0  0
  -23.9162  -10.8311   22.1568 C   0  0  0  0  0  0  0  0  0  0  0  0
  -24.1346  -13.1482   21.1124 C   0  0  0  0  0  0  0  0  0  0  0  0
  -26.0225  -31.4781   24.7435 C   0  0  0  0  0  0  0  0  0  0  0  0
  -25.8616  -24.1416   24.5697 C   0  0  0  0  0  0  0  0  0  0  0  0
  -25.6386  -30.1999   25.1918 C   0  0  0  0  0  0  0  0  0  0  0  0
  -24.7393  -23.6106   23.9182 C   0  0  0  0  0  0  0  0  0  0  0  0
  -22.5413   -8.8037   23.4916 C   0  0  0  0  0  0  0  0  0  0  0  0
  -24.3859  -22.0966   25.7870 C   0  0  0  0  0  0  0  0  0  0  0  0
  -21.9877   -6.5254   23.6516 C   0  0  0  0  0  0  0  0  0  0  0  0
  -22.2275   -3.9289   22.6602 C   0  0  0  0  0  0  0  0  0  0  0  0
  -20.8533   -5.8332   23.2279 C   0  0  0  0  0  0  0  0  0  0  0  0
  -24.6269  -11.8782   21.4680 C   0  0  0  0  0  0  0  0  0  0  0  0
  -26.6800  -17.3661   23.3259 C   0  0  0  0  0  0  0  0  0  0  0  0
  -24.8927  -16.8113   24.6404 C   0  0  0  0  0  0  0  0  0  0  0  0
  -25.1201  -17.9245   25.4193 C   0  0  0  0  0  0  0  0  0  0  0  0
  -25.1899  -13.7616   20.4826 C   0  0  0  0  0  0  0  0  0  0  0  0
  -22.8391  -13.7222   21.3318 C   0  0  0  0  0  0  0  0  0  0  0  0
  -24.9374  -26.9894   23.5023 C   0  0  0  0  0  0  0  0  0  0  0  0
  -25.0595  -25.5139   20.6161 C   0  0  0  0  0  0  0  0  0  0  0  0
  -24.9480  -22.5984   18.8457 C   0  0  0  0  0  0  0  0  0  0  0  0
  -31.0765  -13.7558   21.1395 C   0  0  0  0  0  0  0  0  0  0  0  0
  -25.4836  -32.0646   23.4627 C   0  0  0  0  0  0  0  0  0  0  0  0
  -26.6834  -25.2184   23.9159 C   0  0  0  0  0  0  0  0  0  0  0  0
  -24.2948  -24.1115   22.5691 C   0  0  0  0  0  0  0  0  0  0  0  0
  -24.8769  -31.0245   22.5244 C   0  0  0  0  0  0  0  0  0  0  0  0
  -29.3209  -12.2173   18.2667 C   0  0  0  0  0  0  0  0  0  0  0  0
  -23.9556  -30.0837   23.2944 C   0  0  0  0  0  0  0  0  0  0  0  0
  -27.9032  -12.0297   18.8044 C   0  0  0  0  0  0  0  0  0  0  0  0
  -30.3606  -12.1771   19.3826 C   0  0  0  0  0  0  0  0  0  0  0  0
  -28.6812  -12.9546   21.0225 C   0  0  0  0  0  0  0  0  0  0  0  0
  -24.7293  -29.3120   24.3702 C   0  0  1  0  0  0  0  0  0  0  0  0
  -25.9020  -26.0201   22.8796 C   0  0  1  0  0  0  0  0  0  0  0  0
  -27.6054  -13.0365   19.9291 C   0  0  2  0  0  0  0  0  0  0  0  0
  -23.7702  -15.8750   24.9319 C   0  0  0  0  0  0  0  0  0  0  0  0
  -32.7073  -16.5919   21.4049 C   0  0  0  0  0  0  0  0  0  0  0  0
  -25.0369  -21.7141   16.4989 C   0  0  0  0  0  0  0  0  0  0  0  0
  -22.1890  -26.4423   20.1601 C   0  0  0  0  0  0  0  0  0  0  0  0
  -22.0187  -24.7745   18.3006 C   0  0  0  0  0  0  0  0  0  0  0  0
  -23.6772  -26.6325   18.1593 C   0  0  0  0  0  0  0  0  0  0  0  0
  -27.3825  -21.0135   19.4115 C   0  0  0  0  0  0  0  0  0  0  0  0
  -27.5584  -17.0664   22.1621 C   0  0  0  0  0  0  0  0  0  0  0  0
  -24.2443  -18.2479   26.6033 C   0  0  0  0  0  0  0  0  0  0  0  0
  -28.7807  -16.1849   22.4919 C   0  0  0  0  0  0  0  0  0  0  0  0
  -22.8866  -18.8414   26.2212 C   0  0  0  0  0  0  0  0  0  0  0  0
  -31.8734  -15.7507   22.3499 C   0  0  0  0  0  0  0  0  0  0  0  0
  -29.6502  -15.8409   21.2845 C   0  0  0  0  0  0  0  0  0  0  0  0
  -22.9934  -20.1879   25.5150 C   0  0  0  0  0  0  0  0  0  1  0  0
  -24.0822  -24.7298   19.7741 C   0  0  1  0  0  0  0  0  0  0  0  0
  -25.8401  -22.0536   17.7449 C   0  0  2  0  0  0  0  0  0  0  0  0
  -22.9988  -25.6365   19.1248 C   0  0  0  0  0  0  0  0  0  0  0  0
  -26.1311  -18.7787   25.1652 N   0  0  0  0  0  0  0  0  0  0  0  0
  -25.8962  -11.6943   21.0950 N   0  0  0  0  0  0  0  0  0  0  0  0
  -25.6687  -16.5120   23.5799 N   0  0  0  0  0  0  0  0  0  0  0  0
  -26.2103  -12.8568   20.4984 N   0  0  0  0  0  0  0  0  0  0  0  0
  -25.1275  -25.1696   21.9736 N   0  0  0  0  0  0  0  0  0  0  0  0
  -30.0301  -13.1123   20.4584 N   0  0  0  0  0  0  0  0  0  0  0  0
  -25.3352  -14.9812   19.9224 N   0  0  0  0  0  0  0  0  0  0  0  0
  -21.8719  -12.9547   21.9948 N   0  0  0  0  0  0  0  0  0  0  0  0
  -25.4824  -28.2301   23.7728 N   0  0  0  0  0  0  0  0  0  0  0  0
  -24.8826  -23.9753   18.8157 N   0  0  0  0  0  0  0  0  0  0  0  0
  -30.8165  -15.0381   21.6462 N   0  0  0  0  0  0  0  0  0  0  0  0
  -26.5366  -20.8194   18.2058 N   0  3  0  0  0  0  0  0  0  0  0  0
  -22.5429  -14.8753   20.9366 O   0  0  0  0  0  0  0  0  0  0  0  0
  -23.7837  -26.6381   23.7198 O   0  0  0  0  0  0  0  0  0  0  0  0
  -25.7427  -26.3944   20.0874 O   0  0  0  0  0  0  0  0  0  0  0  0
  -24.3643  -21.8745   19.6495 O   0  0  0  0  0  0  0  0  0  0  0  0
  -32.1831  -13.2190   21.2779 O   0  0  0  0  0  0  0  0  0  0  0  0
  -21.8704   -7.8147   24.1432 O   0  0  0  0  0  0  0  0  0  0  0  0
  -23.6638  -21.1059   26.3777 O   0  0  0  0  0  0  0  0  0  1  0  0
  -22.3429   -2.6827   22.1828 F   0  0  0  0  0  0  0  0  0  0  0  0
  -19.6458   -6.4106   23.2936 F   0  0  0  0  0  0  0  0  0  0  0  0
  1  2  1  0  0  0  0
  1  5  2  0  0  0  0
  2  6  2  0  0  0  0
  3  8  2  0  0  0  0
  3 16  1  0  0  0  0
  4  9  1  0  0  0  0
  4 16  2  0  0  0  0
  5 18  1  0  0  0  0
  6 20  1  0  0  0  0
  7 10  2  0  0  0  0
  7 19  1  0  0  0  0
  8 22  1  0  0  0  0
  9 22  2  0  0  0  0
 10 23  1  0  0  0  0
 11 12  2  0  0  0  0
 11 24  1  0  0  0  0
 12 25  1  0  0  0  0
 13 21  1  0  0  0  0
 13 23  2  0  0  0  0
 14 25  2  0  0  0  0
 14 26  1  0  0  0  0
 15 28  1  0  0  0  0
 15 66  2  0  0  0  0
 16 27  1  0  0  0  0
 17 27  1  0  0  0  0
 17 31  2  0  0  0  0
 17 32  1  0  0  0  0
 18 20  2  0  0  0  0
 18 37  1  0  0  0  0
 19 21  2  0  0  0  0
 19 38  1  0  0  0  0
 20 46  1  0  0  0  0
 21 39  1  0  0  0  0
 22 83  1  0  0  0  0
 23 84  1  0  0  0  0
 24 26  2  0  0  0  0
 24 83  1  0  0  0  0
 25 85  1  0  0  0  0
 26 86  1  0  0  0  0
 27 67  2  0  0  0  0
 28 56  1  0  0  0  0
 28 68  2  0  0  0  0
 29 30  2  0  0  0  0
 29 49  1  0  0  0  0
 29 68  1  0  0  0  0
 30 57  1  0  0  0  0
 30 66  1  0  0  0  0
 31 69  1  0  0  0  0
 31 72  1  0  0  0  0
 32 73  1  0  0  0  0
 32 78  2  0  0  0  0
 33 47  1  0  0  0  0
 33 74  1  0  0  0  0
 33 79  2  0  0  0  0
 34 63  1  0  0  0  0
 34 70  1  0  0  0  0
 34 80  2  0  0  0  0
 35 64  1  0  0  0  0
 35 75  1  0  0  0  0
 35 81  2  0  0  0  0
 36 71  1  0  0  0  0
 36 76  1  0  0  0  0
 36 82  2  0  0  0  0
 37 40  1  0  0  0  0
 38 47  1  0  0  0  0
 39 70  1  0  0  0  0
 40 42  1  0  0  0  0
 41 43  1  0  0  0  0
 41 44  1  0  0  0  0
 42 46  1  0  0  0  0
 43 48  1  0  0  0  0
 44 71  1  0  0  0  0
 45 48  1  0  0  0  0
 45 71  1  0  0  0  0
 46 74  1  0  0  0  0
 47 70  1  0  0  0  0
 48 69  1  0  0  0  0
 50 60  1  0  0  0  0
 51 64  1  0  0  0  0
 52 65  1  0  0  0  0
 53 65  1  0  0  0  0
 54 65  1  0  0  0  0
 55 77  1  0  0  0  0
 56 58  1  0  0  0  0
 57 59  1  0  0  0  0
 58 61  1  0  0  0  0
 59 62  1  0  0  0  0
 60 76  1  0  0  0  0
 61 76  1  0  0  0  0
 62 84  1  0  0  0  0
 63 65  1  0  0  0  0
 63 75  1  0  0  0  0
 64 77  1  0  0  0  0
 67 69  1  0  0  0  0
M  CHG  1  77   1
M  ISO  4  36 100  62 101  76 100  84 101
M  END
> <Batch ID>
0046

> <Smiles>
CC[100N:0](CCCc1cnc(CC[101CH2:1][101O:1]c2ccc3c(c2)CN(C(=O)C(NC(=O)C(C)NC)C(C)(C)C)C(C(=O)NC2CCCc4ccccc42)C3)c(C)n1)[100C:0](=O)N1CCCC(n2nc(-c3ccc(Oc4ccc(F)cc4F)cc3)c(C(N)=O)c2N)C1

> <Shape>
0.224

> <Color>
0.137

> <Negative vol penalty>
0.000

$$$$

  -OEChem-04052317213D

 82 90  0     1  0  0  0  0  0999 V2000
  -23.2547  -24.0276   21.1150 C   0  0  0  0  0  0  0  0  0  0  0  0
  -24.4055  -23.2477   21.1693 C   0  0  0  0  0  0  0  0  0  0  0  0
  -26.6450  -28.6969   21.6475 C   0  0  0  0  0  0  0  0  0  0  0  0
  -26.0269  -26.5742   22.6215 C   0  0  0  0  0  0  0  0  0  0  0  0
  -22.0440  -23.5146   21.5785 C   0  0  0  0  0  0  0  0  0  0  0  0
  -24.3464  -21.9548   21.6882 C   0  0  0  0  0  0  0  0  0  0  0  0
  -26.8634  -18.6037   18.8457 C   0  0  0  0  0  0  0  0  0  0  0  0
  -25.4010  -29.2206   21.9993 C   0  0  0  0  0  0  0  0  0  0  0  0
  -24.7828  -27.0978   22.9733 C   0  0  0  0  0  0  0  0  0  0  0  0
  -28.2521  -18.5813   18.9674 C   0  0  0  0  0  0  0  0  0  0  0  0
  -21.3094  -27.7667   23.8085 C   0  0  0  0  0  0  0  0  0  0  0  0
  -20.1822  -26.9844   23.5576 C   0  0  0  0  0  0  0  0  0  0  0  0
  -28.0875  -16.6654   20.4240 C   0  0  0  0  0  0  0  0  0  0  0  0
  -33.6997  -19.9542   23.1993 C   0  0  0  0  0  0  0  0  0  0  0  0
  -20.7099  -26.9799   21.2000 C   0  0  0  0  0  0  0  0  0  0  0  0
  -35.5490  -21.2872   22.5214 C   0  0  0  0  0  0  0  0  0  0  0  0
  -26.9580  -27.3737   21.9586 C   0  0  0  0  0  0  0  0  0  0  0  0
  -29.4195  -26.8435   22.3674 C   0  0  0  0  0  0  0  0  0  0  0  0
  -21.9680  -22.2113   22.0945 C   0  0  0  0  0  0  0  0  0  0  0  0
  -26.0744  -17.6622   19.5221 C   0  0  0  0  0  0  0  0  0  0  0  0
  -23.1338  -21.4244   22.1603 C   0  0  0  0  0  0  0  0  0  0  0  0
  -26.6892  -16.6764   20.3072 C   0  0  0  0  0  0  0  0  0  0  0  0
  -34.8872  -20.5994   23.5258 C   0  0  0  0  0  0  0  0  0  0  0  0
  -33.2170  -20.0155   21.8968 C   0  0  0  0  0  0  0  0  0  0  0  0
  -24.4699  -28.4211   22.6622 C   0  0  0  0  0  0  0  0  0  0  0  0
  -28.8642  -17.6139   19.7590 C   0  0  0  0  0  0  0  0  0  0  0  0
  -22.1368  -28.1558   22.7551 C   0  0  0  0  0  0  0  0  0  0  0  0
  -19.8825  -26.5910   22.2534 C   0  0  0  0  0  0  0  0  0  0  0  0
  -21.8371  -27.7623   21.4508 C   0  0  0  0  0  0  0  0  0  0  0  0
  -28.2427  -26.8320   21.5950 C   0  0  0  0  0  0  0  0  0  0  0  0
  -33.9534  -20.7296   20.9653 C   0  0  0  0  0  0  0  0  0  0  0  0
  -30.3519  -26.2107   21.5820 C   0  0  0  0  0  0  0  0  0  0  0  0
  -29.6494  -27.3783   23.6777 C   0  0  0  0  0  0  0  0  0  0  0  0
  -23.8226  -17.8163   21.7603 C   0  0  0  0  0  0  0  0  0  0  0  0
  -23.5745  -14.6348   21.1784 C   0  0  0  0  0  0  0  0  0  0  0  0
  -25.0456  -11.7751   20.0360 C   0  0  0  0  0  0  0  0  0  0  0  0
  -31.8197  -22.0470   18.1681 C   0  0  0  0  0  0  0  0  0  0  0  0
  -20.6464  -21.7173   22.6273 C   0  0  0  0  0  0  0  0  0  0  0  0
  -24.5793  -17.6834   19.3591 C   0  0  0  0  0  0  0  0  0  0  0  0
  -25.8883  -15.6307   21.0377 C   0  0  0  0  0  0  0  0  0  0  0  0
  -20.5934  -20.2035   22.8165 C   0  0  0  0  0  0  0  0  0  0  0  0
  -30.1776  -24.8511   16.7130 C   0  0  0  0  0  0  0  0  0  0  0  0
  -21.8512  -19.7096   23.5242 C   0  0  0  0  0  0  0  0  0  0  0  0
  -29.6200  -25.6134   17.9162 C   0  0  0  0  0  0  0  0  0  0  0  0
  -30.1126  -23.3398   16.9228 C   0  0  0  0  0  0  0  0  0  0  0  0
  -30.1852  -23.6219   19.3700 C   0  0  0  0  0  0  0  0  0  0  0  0
  -23.1050  -20.0084   22.6934 C   0  0  1  0  0  0  0  0  0  0  0  0
  -23.8436  -16.9931   20.5035 C   0  0  1  0  0  0  0  0  0  0  0  0
  -30.2810  -25.1507   19.2286 C   0  0  2  0  0  0  0  0  0  0  0  0
  -35.4298  -20.5538   24.9098 C   0  0  0  0  0  0  0  0  0  0  0  0
  -24.6070   -9.3245   19.7210 C   0  0  0  0  0  0  0  0  0  0  0  0
  -23.9514  -14.1849   24.1726 C   0  0  0  0  0  0  0  0  0  0  0  0
  -24.4529  -11.7824   23.6778 C   0  0  0  0  0  0  0  0  0  0  0  0
  -22.2167  -12.7306   23.1093 C   0  0  0  0  0  0  0  0  0  0  0  0
  -25.4185  -11.9666   17.1063 C   0  0  0  0  0  0  0  0  0  0  0  0
  -31.9307  -19.3165   21.5354 C   0  0  0  0  0  0  0  0  0  0  0  0
  -33.4828  -20.8303   19.5511 C   0  0  0  0  0  0  0  0  0  0  0  0
  -32.0743  -17.8003   21.3873 C   0  0  0  0  0  0  0  0  0  0  0  0
  -30.7534  -17.0933   21.1066 C   0  0  0  0  0  0  0  0  0  1  0  0
  -24.2304  -13.3925   21.7312 C   0  0  1  0  0  0  0  0  0  0  0  0
  -24.5553  -10.7026   19.0801 C   0  0  2  0  0  0  0  0  0  0  0  0
  -23.7281  -13.0434   23.1607 C   0  0  0  0  0  0  0  0  0  0  0  0
  -35.1112  -21.3692   21.2450 N   0  0  0  0  0  0  0  0  0  0  0  0
  -28.4095  -26.2390   20.4098 N   0  0  0  0  0  0  0  0  0  0  0  0
  -29.7022  -25.8721   20.4316 N   0  0  0  0  0  0  0  0  0  0  0  0
  -24.4294  -15.6971   20.8518 N   0  0  0  0  0  0  0  0  0  0  0  0
  -30.7583  -22.9669   18.1837 N   0  0  0  0  0  0  0  0  0  0  0  0
  -31.6559  -25.9164   21.7701 N   0  0  0  0  0  0  0  0  0  0  0  0
  -28.5821  -27.9956   24.3440 N   0  0  0  0  0  0  0  0  0  0  0  0
  -23.2324  -19.0568   21.6105 N   0  0  0  0  0  0  0  0  0  0  0  0
  -24.0072  -12.3401   20.7458 N   0  0  0  0  0  0  0  0  0  0  0  0
  -32.3795  -21.7534   19.4055 N   0  0  0  0  0  0  0  0  0  0  0  0
  -25.3967  -10.6809   17.8503 N   0  3  0  0  0  0  0  0  0  0  0  0
  -30.7724  -27.3252   24.2342 O   0  0  0  0  0  0  0  0  0  0  0  0
  -24.3047  -17.3593   22.7900 O   0  0  0  0  0  0  0  0  0  0  0  0
  -22.3496  -14.6591   21.0347 O   0  0  0  0  0  0  0  0  0  0  0  0
  -26.2316  -12.0785   20.1451 O   0  0  0  0  0  0  0  0  0  0  0  0
  -32.2409  -21.5299   17.1279 O   0  0  0  0  0  0  0  0  0  0  0  0
  -23.2560  -28.9318   23.0058 O   0  0  0  0  0  0  0  0  0  0  0  0
  -30.2194  -17.5902   19.8800 O   0  0  0  0  0  0  0  0  0  1  0  0
  -18.8008  -25.8384   22.0129 F   0  0  0  0  0  0  0  0  0  0  0  0
  -22.6290  -28.1320   20.4349 F   0  0  0  0  0  0  0  0  0  0  0  0
  1  2  1  0  0  0  0
  1  5  2  0  0  0  0
  2  6  2  0  0  0  0
  3  8  2  0  0  0  0
  3 17  1  0  0  0  0
  4  9  1  0  0  0  0
  4 17  2  0  0  0  0
  5 19  1  0  0  0  0
  6 21  1  0  0  0  0
  7 10  2  0  0  0  0
  7 20  1  0  0  0  0
  8 25  1  0  0  0  0
  9 25  2  0  0  0  0
 10 26  1  0  0  0  0
 11 12  2  0  0  0  0
 11 27  1  0  0  0  0
 12 28  1  0  0  0  0
 13 22  1  0  0  0  0
 13 26  2  0  0  0  0
 14 23  2  0  0  0  0
 14 24  1  0  0  0  0
 15 28  2  0  0  0  0
 15 29  1  0  0  0  0
 16 23  1  0  0  0  0
 16 63  2  0  0  0  0
 17 30  1  0  0  0  0
 18 30  1  0  0  0  0
 18 32  2  0  0  0  0
 18 33  1  0  0  0  0
 19 21  2  0  0  0  0
 19 38  1  0  0  0  0
 20 22  2  0  0  0  0
 20 39  1  0  0  0  0
 21 47  1  0  0  0  0
 22 40  1  0  0  0  0
 23 50  1  0  0  0  0
 24 31  2  0  0  0  0
 24 56  1  0  0  0  0
 25 79  1  0  0  0  0
 26 80  1  0  0  0  0
 27 29  2  0  0  0  0
 27 79  1  0  0  0  0
 28 81  1  0  0  0  0
 29 82  1  0  0  0  0
 30 64  2  0  0  0  0
 31 57  1  0  0  0  0
 31 63  1  0  0  0  0
 32 65  1  0  0  0  0
 32 68  1  0  0  0  0
 33 69  1  0  0  0  0
 33 74  2  0  0  0  0
 34 48  1  0  0  0  0
 34 70  1  0  0  0  0
 34 75  2  0  0  0  0
 35 60  1  0  0  0  0
 35 66  1  0  0  0  0
 35 76  2  0  0  0  0
 36 61  1  0  0  0  0
 36 71  1  0  0  0  0
 36 77  2  0  0  0  0
 37 67  1  0  0  0  0
 37 72  1  0  0  0  0
 37 78  2  0  0  0  0
 38 41  1  0  0  0  0
 39 48  1  0  0  0  0
 40 66  1  0  0  0  0
 41 43  1  0  0  0  0
 42 44  1  0  0  0  0
 42 45  1  0  0  0  0
 43 47  1  0  0  0  0
 44 49  1  0  0  0  0
 45 67  1  0  0  0  0
 46 49  1  0  0  0  0
 46 67  1  0  0  0  0
 47 70  1  0  0  0  0
 48 66  1  0  0  0  0
 49 65  1  0  0  0  0
 51 61  1  0  0  0  0
 52 62  1  0  0  0  0
 53 62  1  0  0  0  0
 54 62  1  0  0  0  0
 55 73  1  0  0  0  0
 56 58  1  0  0  0  0
 57 72  1  0  0  0  0
 58 59  1  0  0  0  0
 59 80  1  0  0  0  0
 60 62  1  0  0  0  0
 60 71  1  0  0  0  0
 61 73  1  0  0  0  0
 64 65  1  0  0  0  0
M  CHG  1  73   1
M  ISO  4  37 100  59 101  72 100  80 101
M  END
> <Batch ID>
0046

> <Smiles>
CNC(C)C(=O)NC(C(=O)N1Cc2cc([101O:1][101CH2:1]CCc3cc(C)cnc3C[100NH:0][100C:0](=O)N3CCCC(n4nc(-c5ccc(Oc6ccc(F)cc6F)cc5)c(C(N)=O)c4N)C3)ccc2CC1C(=O)NC1CCCc2ccccc21)C(C)(C)C

> <Shape>
0.187

> <Color>
0.080

> <Negative vol penalty>
0.000

$$$$

  -OEChem-04052317213D

 87 95  0     1  0  0  0  0  0999 V2000
  -29.8962  -24.4898   19.7731 C   0  0  0  0  0  0  0  0  0  0  0  0
  -28.5473  -24.6074   20.0925 C   0  0  0  0  0  0  0  0  0  0  0  0
  -25.8690   -8.6174   21.2522 C   0  0  0  0  0  0  0  0  0  0  0  0
  -23.7330   -9.5800   21.8417 C   0  0  0  0  0  0  0  0  0  0  0  0
  -30.8172  -25.3952   20.2983 C   0  0  0  0  0  0  0  0  0  0  0  0
  -28.1188  -25.6299   20.9383 C   0  0  0  0  0  0  0  0  0  0  0  0
  -23.9464  -27.9397   19.2351 C   0  0  0  0  0  0  0  0  0  0  0  0
  -25.6256   -7.5488   22.1150 C   0  0  0  0  0  0  0  0  0  0  0  0
  -23.4895   -8.5114   22.7045 C   0  0  0  0  0  0  0  0  0  0  0  0
  -22.7318  -27.2824   19.4261 C   0  0  0  0  0  0  0  0  0  0  0  0
  -22.4775   -5.2963   22.4611 C   0  0  0  0  0  0  0  0  0  0  0  0
  -21.2135   -4.7078   22.4208 C   0  0  0  0  0  0  0  0  0  0  0  0
  -22.2807  -28.6842   21.3368 C   0  0  0  0  0  0  0  0  0  0  0  0
  -20.8805   -5.2641   24.7483 C   0  0  0  0  0  0  0  0  0  0  0  0
  -24.9227   -9.6330   21.1155 C   0  0  0  0  0  0  0  0  0  0  0  0
  -24.8360  -10.8233   18.8609 C   0  0  0  0  0  0  0  0  0  0  0  0
  -30.3985  -26.4351   21.1432 C   0  0  0  0  0  0  0  0  0  0  0  0
  -24.3429  -28.9685   20.1014 C   0  0  0  0  0  0  0  0  0  0  0  0
  -29.0353  -26.5492   21.4764 C   0  0  0  0  0  0  0  0  0  0  0  0
  -23.4996  -29.3547   21.1530 C   0  0  0  0  0  0  0  0  0  0  0  0
  -24.4359   -7.4958   22.8411 C   0  0  0  0  0  0  0  0  0  0  0  0
  -21.9000  -27.6527   20.4788 C   0  0  0  0  0  0  0  0  0  0  0  0
  -22.9431   -5.8686   23.6449 C   0  0  0  0  0  0  0  0  0  0  0  0
  -20.4150   -4.6918   23.5644 C   0  0  0  0  0  0  0  0  0  0  0  0
  -22.1445   -5.8525   24.7885 C   0  0  0  0  0  0  0  0  0  0  0  0
  -25.1739  -10.7374   20.2248 C   0  0  0  0  0  0  0  0  0  0  0  0
  -21.2703  -24.2684   22.9748 C   0  0  0  0  0  0  0  0  0  0  0  0
  -21.5040  -22.9173   23.0773 C   0  0  0  0  0  0  0  0  0  0  0  0
  -25.2861  -12.0617   18.4730 C   0  0  0  0  0  0  0  0  0  0  0  0
  -23.3278  -24.0843   23.4877 C   0  0  0  0  0  0  0  0  0  0  0  0
  -24.1744   -9.8691   18.0198 C   0  0  0  0  0  0  0  0  0  0  0  0
  -26.7747  -29.4044   22.1015 C   0  0  0  0  0  0  0  0  0  0  0  0
  -25.4976  -32.3721   22.3906 C   0  0  0  0  0  0  0  0  0  0  0  0
  -22.7505  -34.3813   22.1378 C   0  0  0  0  0  0  0  0  0  0  0  0
  -26.1288  -17.0645   21.2782 C   0  0  0  0  0  0  0  0  0  0  0  0
  -31.4374  -27.3611   21.7244 C   0  0  0  0  0  0  0  0  0  0  0  0
  -25.6440  -29.6856   19.8658 C   0  0  0  0  0  0  0  0  0  0  0  0
  -23.8699  -30.4666   22.0991 C   0  0  0  0  0  0  0  0  0  0  0  0
  -30.8509  -28.6416   22.3133 C   0  0  0  0  0  0  0  0  0  0  0  0
  -28.6225  -15.3278   19.4790 C   0  0  0  0  0  0  0  0  0  0  0  0
  -29.6433  -28.3222   23.1888 C   0  0  0  0  0  0  0  0  0  0  0  0
  -27.9869  -13.9454   19.3384 C   0  0  0  0  0  0  0  0  0  0  0  0
  -28.3653  -15.9411   20.8566 C   0  0  0  0  0  0  0  0  0  0  0  0
  -26.2989  -14.6008   21.0943 C   0  0  0  0  0  0  0  0  0  0  0  0
  -28.5283  -27.6599   22.3706 C   0  0  1  0  0  0  0  0  0  0  0  0
  -26.1827  -30.3727   21.1169 C   0  0  1  0  0  0  0  0  0  0  0  0
  -26.4917  -13.9881   19.6985 C   0  0  2  0  0  0  0  0  0  0  0  0
  -24.7397  -24.3528   23.8310 C   0  0  0  0  0  0  0  0  0  0  0  0
  -19.6921  -21.5154   24.0962 C   0  0  0  0  0  0  0  0  0  0  0  0
  -22.0077  -36.7543   22.4763 C   0  0  0  0  0  0  0  0  0  0  0  0
  -25.4720  -31.9309   25.4096 C   0  0  0  0  0  0  0  0  0  0  0  0
  -23.8904  -33.8615   25.6082 C   0  0  0  0  0  0  0  0  0  0  0  0
  -26.1843  -34.2194   24.6958 C   0  0  0  0  0  0  0  0  0  0  0  0
  -27.9022  -18.2961   22.5983 C   0  0  0  0  0  0  0  0  0  0  0  0
  -22.0119  -34.6790   19.2874 C   0  0  0  0  0  0  0  0  0  0  0  0
  -19.9820  -24.9737   22.6334 C   0  0  0  0  0  0  0  0  0  0  0  0
  -20.6213  -21.7503   22.8995 C   0  0  0  0  0  0  0  0  0  0  0  0
  -19.6296  -24.9262   21.1451 C   0  0  0  0  0  0  0  0  0  0  0  0
  -24.4370  -21.2277   22.4290 C   0  0  0  0  0  0  0  0  0  0  0  0
  -25.1739  -19.9053   22.6610 C   0  0  0  0  0  0  0  0  0  0  0  0
  -23.5584  -21.5889   23.6294 C   0  0  0  0  0  0  0  0  0  0  0  0
  -26.0703  -19.5202   21.4885 C   0  0  0  0  0  0  0  0  0  0  0  0
  -20.6417  -25.6464   20.2616 C   0  0  0  0  0  0  0  0  0  1  0  0
  -24.4662  -33.0092   23.2903 C   0  0  1  0  0  0  0  0  0  0  0  0
  -22.5509  -35.7371   21.4848 C   0  0  2  0  0  0  0  0  0  0  0  0
  -24.9969  -33.2330   24.7345 C   0  0  0  0  0  0  0  0  0  0  0  0
  -25.7911  -11.8338   20.6732 N   0  0  0  0  0  0  0  0  0  0  0  0
  -22.4096  -24.9893   23.2311 N   0  0  0  0  0  0  0  0  0  0  0  0
  -22.8264  -22.8150   23.4060 N   0  0  0  0  0  0  0  0  0  0  0  0
  -25.8447  -12.6203   19.5848 N   0  0  0  0  0  0  0  0  0  0  0  0
  -25.1550  -31.1331   21.8310 N   0  0  0  0  0  0  0  0  0  0  0  0
  -26.9323  -15.9190   21.1805 N   0  0  0  0  0  0  0  0  0  0  0  0
  -25.2546  -12.7163   17.2928 N   0  0  0  0  0  0  0  0  0  0  0  0
  -23.7786   -8.6465   18.5792 N   0  0  0  0  0  0  0  0  0  0  0  0
  -27.8153  -28.6506   21.5931 N   0  0  0  0  0  0  0  0  0  0  0  0
  -24.0346  -34.2292   22.6166 N   0  0  0  0  0  0  0  0  0  0  0  0
  -26.7487  -18.2496   21.7019 N   0  0  0  0  0  0  0  0  0  0  0  0
  -21.5916  -35.6290   20.3494 N   0  3  0  0  0  0  0  0  0  0  0  0
  -23.9557  -10.0874   16.8041 O   0  0  0  0  0  0  0  0  0  0  0  0
  -26.3220  -29.3465   23.2388 O   0  0  0  0  0  0  0  0  0  0  0  0
  -26.5648  -32.9559   22.1859 O   0  0  0  0  0  0  0  0  0  0  0  0
  -21.8558  -33.5426   22.2186 O   0  0  0  0  0  0  0  0  0  0  0  0
  -24.9210  -17.0300   21.0095 O   0  0  0  0  0  0  0  0  0  0  0  0
  -24.1979   -6.4531   23.6830 O   0  0  0  0  0  0  0  0  0  0  0  0
  -20.7142  -27.0124   20.6679 O   0  0  0  0  0  0  0  0  0  1  0  0
  -19.2006   -4.1280   23.5252 F   0  0  0  0  0  0  0  0  0  0  0  0
  -22.5859   -6.4018   25.9283 F   0  0  0  0  0  0  0  0  0  0  0  0
  1  2  1  0  0  0  0
  1  5  2  0  0  0  0
  2  6  2  0  0  0  0
  3  8  2  0  0  0  0
  3 15  1  0  0  0  0
  4  9  1  0  0  0  0
  4 15  2  0  0  0  0
  5 17  1  0  0  0  0
  6 19  1  0  0  0  0
  7 10  2  0  0  0  0
  7 18  1  0  0  0  0
  8 21  1  0  0  0  0
  9 21  2  0  0  0  0
 10 22  1  0  0  0  0
 11 12  2  0  0  0  0
 11 23  1  0  0  0  0
 12 24  1  0  0  0  0
 13 20  1  0  0  0  0
 13 22  2  0  0  0  0
 14 24  2  0  0  0  0
 14 25  1  0  0  0  0
 15 26  1  0  0  0  0
 16 26  1  0  0  0  0
 16 29  2  0  0  0  0
 16 31  1  0  0  0  0
 17 19  2  0  0  0  0
 17 36  1  0  0  0  0
 18 20  2  0  0  0  0
 18 37  1  0  0  0  0
 19 45  1  0  0  0  0
 20 38  1  0  0  0  0
 21 84  1  0  0  0  0
 22 85  1  0  0  0  0
 23 25  2  0  0  0  0
 23 84  1  0  0  0  0
 24 86  1  0  0  0  0
 25 87  1  0  0  0  0
 26 67  2  0  0  0  0
 27 28  2  0  0  0  0
 27 56  1  0  0  0  0
 27 68  1  0  0  0  0
 28 57  1  0  0  0  0
 28 69  1  0  0  0  0
 29 70  1  0  0  0  0
 29 73  1  0  0  0  0
 30 48  1  0  0  0  0
 30 68  2  0  0  0  0
 30 69  1  0  0  0  0
 31 74  1  0  0  0  0
 31 79  2  0  0  0  0
 32 46  1  0  0  0  0
 32 75  1  0  0  0  0
 32 80  2  0  0  0  0
 33 64  1  0  0  0  0
 33 71  1  0  0  0  0
 33 81  2  0  0  0  0
 34 65  1  0  0  0  0
 34 76  1  0  0  0  0
 34 82  2  0  0  0  0
 35 72  1  0  0  0  0
 35 77  1  0  0  0  0
 35 83  2  0  0  0  0
 36 39  1  0  0  0  0
 37 46  1  0  0  0  0
 38 71  1  0  0  0  0
 39 41  1  0  0  0  0
 40 42  1  0  0  0  0
 40 43  1  0  0  0  0
 41 45  1  0  0  0  0
 42 47  1  0  0  0  0
 43 72  1  0  0  0  0
 44 47  1  0  0  0  0
 44 72  1  0  0  0  0
 45 75  1  0  0  0  0
 46 71  1  0  0  0  0
 47 70  1  0  0  0  0
 49 57  1  0  0  0  0
 50 65  1  0  0  0  0
 51 66  1  0  0  0  0
 52 66  1  0  0  0  0
 53 66  1  0  0  0  0
 54 77  1  0  0  0  0
 55 78  1  0  0  0  0
 56 58  1  0  0  0  0
 58 63  1  0  0  0  0
 59 60  1  0  0  0  0
 59 61  1  0  0  0  0
 60 62  1  0  0  0  0
 61 69  1  0  0  0  0
 62 77  1  0  0  0  0
 63 85  1  0  0  0  0
 64 66  1  0  0  0  0
 64 76  1  0  0  0  0
 65 78  1  0  0  0  0
 67 70  1  0  0  0  0
M  CHG  1  78   1
M  ISO  4  35 100  63 101  77 100  85 101
M  END
> <Batch ID>
0046

> <Smiles>
CCc1c(CC[101CH2:1][101O:1]c2ccc3c(c2)CN(C(=O)C(NC(=O)C(C)NC)C(C)(C)C)C(C(=O)NC2CCCc4ccccc42)C3)nc(C)n1CCCC[100N:0](C)[100C:0](=O)N1CCCC(n2nc(-c3ccc(Oc4ccc(F)cc4F)cc3)c(C(N)=O)c2N)C1

> <Shape>
0.234

> <Color>
0.059

> <Negative vol penalty>
0.000

$$$$

  -OEChem-04052317213D

 85 93  0     1  0  0  0  0  0999 V2000
  -32.4345  -15.1167   20.4230 C   0  0  0  0  0  0  0  0  0  0  0  0
  -31.5913  -16.0866   19.8901 C   0  0  0  0  0  0  0  0  0  0  0  0
  -26.3760  -27.9548   21.4358 C   0  0  0  0  0  0  0  0  0  0  0  0
  -24.5057  -28.3099   19.9483 C   0  0  0  0  0  0  0  0  0  0  0  0
  -31.9786  -13.8086   20.5803 C   0  0  0  0  0  0  0  0  0  0  0  0
  -30.2920  -15.7485   19.5133 C   0  0  0  0  0  0  0  0  0  0  0  0
  -24.6025  -19.0602   22.4379 C   0  0  0  0  0  0  0  0  0  0  0  0
  -26.9314  -27.0578   20.5234 C   0  0  0  0  0  0  0  0  0  0  0  0
  -25.0611  -27.4129   19.0358 C   0  0  0  0  0  0  0  0  0  0  0  0
  -23.4707  -19.7930   22.7960 C   0  0  0  0  0  0  0  0  0  0  0  0
  -28.6627  -24.4009   18.7439 C   0  0  0  0  0  0  0  0  0  0  0  0
  -29.1687  -23.1992   19.2394 C   0  0  0  0  0  0  0  0  0  0  0  0
  -22.0807  -18.3027   21.4940 C   0  0  0  0  0  0  0  0  0  0  0  0
  -26.9829  -22.6334   20.0991 C   0  0  0  0  0  0  0  0  0  0  0  0
  -19.5246  -28.1452   22.3088 C   0  0  0  0  0  0  0  0  0  0  0  0
  -25.1631  -28.5808   21.1483 C   0  0  0  0  0  0  0  0  0  0  0  0
  -24.8017  -30.8971   22.1542 C   0  0  0  0  0  0  0  0  0  0  0  0
  -30.6699  -13.4565   20.2142 C   0  0  0  0  0  0  0  0  0  0  0  0
  -24.4756  -17.9355   21.6179 C   0  0  0  0  0  0  0  0  0  0  0  0
  -29.8186  -14.4341   19.6647 C   0  0  0  0  0  0  0  0  0  0  0  0
  -23.2093  -17.5575   21.1421 C   0  0  0  0  0  0  0  0  0  0  0  0
  -26.2740  -26.7869   19.3234 C   0  0  0  0  0  0  0  0  0  0  0  0
  -22.2130  -19.4153   22.3250 C   0  0  0  0  0  0  0  0  0  0  0  0
  -27.3168  -24.7188   18.9260 C   0  0  0  0  0  0  0  0  0  0  0  0
  -28.3288  -22.3154   19.9170 C   0  0  0  0  0  0  0  0  0  0  0  0
  -26.4769  -23.8351   19.6036 C   0  0  0  0  0  0  0  0  0  0  0  0
  -24.5885  -29.5070   22.0907 C   0  0  0  0  0  0  0  0  0  0  0  0
  -18.8712  -28.0973   23.5079 C   0  0  0  0  0  0  0  0  0  0  0  0
  -24.0357  -31.3138   23.2153 C   0  0  0  0  0  0  0  0  0  0  0  0
  -18.9933  -26.0346   22.7137 C   0  0  0  0  0  0  0  0  0  0  0  0
  -25.6189  -31.7366   21.3277 C   0  0  0  0  0  0  0  0  0  0  0  0
  -26.1882  -15.0891   19.8741 C   0  0  0  0  0  0  0  0  0  0  0  0
  -23.5657  -13.9840   21.0194 C   0  0  0  0  0  0  0  0  0  0  0  0
  -19.1481  -28.9637   25.8038 C   0  0  0  0  0  0  0  0  0  0  0  0
  -20.8016  -13.0647   22.7948 C   0  0  0  0  0  0  0  0  0  0  0  0
  -30.2374  -12.0189   20.3592 C   0  0  0  0  0  0  0  0  0  0  0  0
  -25.6748  -17.1525   21.1568 C   0  0  0  0  0  0  0  0  0  0  0  0
  -23.1250  -16.3609   20.2343 C   0  0  0  0  0  0  0  0  0  0  0  0
  -28.7249  -11.8273   20.2834 C   0  0  0  0  0  0  0  0  0  0  0  0
  -22.2550  -29.7996   27.3812 C   0  0  0  0  0  0  0  0  0  0  0  0
  -28.1462  -12.6072   19.1071 C   0  0  0  0  0  0  0  0  0  0  0  0
  -23.2312  -29.9177   26.2114 C   0  0  0  0  0  0  0  0  0  0  0  0
  -21.2168  -28.7096   27.1342 C   0  0  0  0  0  0  0  0  0  0  0  0
  -21.4328  -28.9891   24.6854 C   0  0  0  0  0  0  0  0  0  0  0  0
  -28.3945  -14.1119   19.2672 C   0  0  1  0  0  0  0  0  0  0  0  0
  -25.3953  -15.6451   21.0202 C   0  0  1  0  0  0  0  0  0  0  0  0
  -22.4799  -30.1000   24.8807 C   0  0  2  0  0  0  0  0  0  0  0  0
  -19.3618  -11.0744   23.3075 C   0  0  0  0  0  0  0  0  0  0  0  0
  -18.7186  -25.3056   25.7098 C   0  0  0  0  0  0  0  0  0  0  0  0
  -16.5098  -25.6339   24.5184 C   0  0  0  0  0  0  0  0  0  0  0  0
  -16.9836  -29.2646   24.6769 C   0  0  0  0  0  0  0  0  0  0  0  0
  -18.9906  -30.6191   24.0676 C   0  0  0  0  0  0  0  0  0  0  0  0
  -22.2938  -14.1968   18.2552 C   0  0  0  0  0  0  0  0  0  0  0  0
  -20.3304  -12.9187   19.1383 C   0  0  0  0  0  0  0  0  0  0  0  0
  -22.5878  -11.8583   19.0915 C   0  0  0  0  0  0  0  0  0  0  0  0
  -21.3917  -13.2378   25.6898 C   0  0  0  0  0  0  0  0  0  0  0  0
  -18.8560  -24.5411   22.5576 C   0  0  0  0  0  0  0  0  0  0  0  0
  -20.1477  -23.7673   22.8438 C   0  0  0  0  0  0  0  0  0  0  0  0
  -20.0097  -22.2629   22.6058 C   0  0  0  0  0  0  0  0  0  0  0  0
  -21.2987  -21.5238   22.9382 C   0  0  0  0  0  0  0  0  0  1  0  0
  -22.1088  -13.6798   20.7780 C   0  0  1  0  0  0  0  0  0  0  0  0
  -20.5545  -11.9090   23.7475 C   0  0  2  0  0  0  0  0  0  0  0  0
  -17.8511  -26.2664   24.8943 C   0  0  0  0  0  0  0  0  0  0  0  0
  -18.5248  -29.1716   24.4465 C   0  0  0  0  0  0  0  0  0  0  0  0
  -21.8385  -13.1876   19.3282 C   0  0  0  0  0  0  0  0  0  0  0  0
  -23.7527  -29.0698   23.0364 N   0  0  0  0  0  0  0  0  0  0  0  0
  -18.5537  -26.7796   23.7332 N   0  0  0  0  0  0  0  0  0  0  0  0
  -23.4340  -30.1917   23.7042 N   0  0  0  0  0  0  0  0  0  0  0  0
  -19.5861  -26.8550   21.8402 N   0  3  0  0  0  0  0  0  0  0  0  0
  -23.9952  -15.2865   20.7373 N   0  0  0  0  0  0  0  0  0  0  0  0
  -20.5411  -28.9057   25.8504 N   0  0  0  0  0  0  0  0  0  0  0  0
  -23.8250  -32.5270   23.7687 N   0  0  0  0  0  0  0  0  0  0  0  0
  -26.3400  -31.1456   20.2812 N   0  0  0  0  0  0  0  0  0  0  0  0
  -27.4624  -14.6796   20.2177 N   0  0  0  0  0  0  0  0  0  0  0  0
  -21.7125  -12.7325   21.8143 N   0  0  0  0  0  0  0  0  0  0  0  0
  -20.2895  -12.4189   25.1226 N   0  3  0  0  0  0  0  0  0  0  0  0
  -25.7200  -32.9718   21.5220 O   0  0  0  0  0  0  0  0  0  0  0  0
  -25.6817  -15.0337   18.7596 O   0  0  0  0  0  0  0  0  0  0  0  0
  -24.3064  -13.0914   21.4412 O   0  0  0  0  0  0  0  0  0  0  0  0
  -18.4172  -28.8593   26.7922 O   0  0  0  0  0  0  0  0  0  0  0  0
  -20.2399  -14.1521   22.9068 O   0  0  0  0  0  0  0  0  0  0  0  0
  -26.8158  -25.9119   18.4327 O   0  0  0  0  0  0  0  0  0  0  0  0
  -21.1117  -20.1324   22.6821 O   0  0  0  0  0  0  0  0  0  1  0  0
  -28.8145  -21.1608   20.3915 F   0  0  0  0  0  0  0  0  0  0  0  0
  -25.1827  -24.1345   19.7805 F   0  0  0  0  0  0  0  0  0  0  0  0
  1  2  1  0  0  0  0
  1  5  2  0  0  0  0
  2  6  2  0  0  0  0
  3  8  2  0  0  0  0
  3 16  1  0  0  0  0
  4  9  1  0  0  0  0
  4 16  2  0  0  0  0
  5 18  1  0  0  0  0
  6 20  1  0  0  0  0
  7 10  2  0  0  0  0
  7 19  1  0  0  0  0
  8 22  1  0  0  0  0
  9 22  2  0  0  0  0
 10 23  1  0  0  0  0
 11 12  2  0  0  0  0
 11 24  1  0  0  0  0
 12 25  1  0  0  0  0
 13 21  1  0  0  0  0
 13 23  2  0  0  0  0
 14 25  2  0  0  0  0
 14 26  1  0  0  0  0
 15 28  2  0  0  0  0
 15 69  1  0  0  0  0
 16 27  1  0  0  0  0
 17 27  1  0  0  0  0
 17 29  2  0  0  0  0
 17 31  1  0  0  0  0
 18 20  2  0  0  0  0
 18 36  1  0  0  0  0
 19 21  2  0  0  0  0
 19 37  1  0  0  0  0
 20 45  1  0  0  0  0
 21 38  1  0  0  0  0
 22 82  1  0  0  0  0
 23 83  1  0  0  0  0
 24 26  2  0  0  0  0
 24 82  1  0  0  0  0
 25 84  1  0  0  0  0
 26 85  1  0  0  0  0
 27 66  2  0  0  0  0
 28 64  1  0  0  0  0
 28 67  1  0  0  0  0
 29 68  1  0  0  0  0
 29 72  1  0  0  0  0
 30 57  1  0  0  0  0
 30 67  1  0  0  0  0
 30 69  2  0  0  0  0
 31 73  1  0  0  0  0
 31 77  2  0  0  0  0
 32 46  1  0  0  0  0
 32 74  1  0  0  0  0
 32 78  2  0  0  0  0
 33 61  1  0  0  0  0
 33 70  1  0  0  0  0
 33 79  2  0  0  0  0
 34 64  1  0  0  0  0
 34 71  1  0  0  0  0
 34 80  2  0  0  0  0
 35 62  1  0  0  0  0
 35 75  1  0  0  0  0
 35 81  2  0  0  0  0
 36 39  1  0  0  0  0
 37 46  1  0  0  0  0
 38 70  1  0  0  0  0
 39 41  1  0  0  0  0
 40 42  1  0  0  0  0
 40 43  1  0  0  0  0
 41 45  1  0  0  0  0
 42 47  1  0  0  0  0
 43 71  1  0  0  0  0
 44 47  1  0  0  0  0
 44 71  1  0  0  0  0
 45 74  1  0  0  0  0
 46 70  1  0  0  0  0
 47 68  1  0  0  0  0
 48 62  1  0  0  0  0
 49 63  1  0  0  0  0
 50 63  1  0  0  0  0
 51 64  1  0  0  0  0
 52 64  1  0  0  0  0
 53 65  1  0  0  0  0
 54 65  1  0  0  0  0
 55 65  1  0  0  0  0
 56 76  1  0  0  0  0
 57 58  1  0  0  0  0
 58 59  1  0  0  0  0
 59 60  1  0  0  0  0
 60 83  1  0  0  0  0
 61 65  1  0  0  0  0
 61 75  1  0  0  0  0
 62 76  1  0  0  0  0
 63 67  1  0  0  0  0
 66 68  1  0  0  0  0
M  CHG  2  69   1  76   1
M  ISO  4  34 100  60 101  64 100  83 101
M  END
> <Batch ID>
0046

> <Smiles>
CNC(C)C(=O)NC(C(=O)N1Cc2cc([101O:1][101CH2:1]CCCc3ncc([100C:0](C)(C)[100C:0](=O)N4CCCC(n5nc(-c6ccc(Oc7ccc(F)cc7F)cc6)c(C(N)=O)c5N)C4)n3C(C)C)ccc2CC1C(=O)NC1CCCc2ccccc21)C(C)(C)C

> <Shape>
0.243

> <Color>
0.090

> <Negative vol penalty>
0.000

$$$$

  -OEChem-04052317213D

 81 88  0     1  0  0  0  0  0999 V2000
  -25.7417  -37.5681   22.4232 C   0  0  0  0  0  0  0  0  0  0  0  0
  -26.4870  -36.4872   21.9633 C   0  0  0  0  0  0  0  0  0  0  0  0
  -23.5980  -14.2941   21.3779 C   0  0  0  0  0  0  0  0  0  0  0  0
  -25.9085  -14.4505   22.0665 C   0  0  0  0  0  0  0  0  0  0  0  0
  -24.7205  -37.3651   23.3505 C   0  0  0  0  0  0  0  0  0  0  0  0
  -26.2123  -35.2027   22.4313 C   0  0  0  0  0  0  0  0  0  0  0  0
  -26.6300  -29.9684   19.2795 C   0  0  0  0  0  0  0  0  0  0  0  0
  -23.8283  -13.0049   20.8979 C   0  0  0  0  0  0  0  0  0  0  0  0
  -26.1388  -13.1612   21.5866 C   0  0  0  0  0  0  0  0  0  0  0  0
  -27.6192  -28.9880   19.2163 C   0  0  0  0  0  0  0  0  0  0  0  0
  -23.7199   -9.5356   19.8174 C   0  0  0  0  0  0  0  0  0  0  0  0
  -22.7805   -8.5516   20.1252 C   0  0  0  0  0  0  0  0  0  0  0  0
  -26.4286  -27.6890   20.8638 C   0  0  0  0  0  0  0  0  0  0  0  0
  -23.1850   -8.9024   22.4812 C   0  0  0  0  0  0  0  0  0  0  0  0
  -24.6381  -15.0170   21.9622 C   0  0  0  0  0  0  0  0  0  0  0  0
  -23.9902  -16.7132   23.7540 C   0  0  0  0  0  0  0  0  0  0  0  0
  -24.4267  -36.0762   23.8228 C   0  0  0  0  0  0  0  0  0  0  0  0
  -25.5364  -29.8213   20.1449 C   0  0  0  0  0  0  0  0  0  0  0  0
  -25.1871  -34.9824   23.3668 C   0  0  0  0  0  0  0  0  0  0  0  0
  -25.4256  -28.6678   20.9343 C   0  0  0  0  0  0  0  0  0  0  0  0
  -25.0987  -12.4384   21.0023 C   0  0  0  0  0  0  0  0  0  0  0  0
  -27.5201  -27.8494   20.0106 C   0  0  0  0  0  0  0  0  0  0  0  0
  -24.3919  -10.2030   20.8415 C   0  0  0  0  0  0  0  0  0  0  0  0
  -22.5130   -8.2350   21.4571 C   0  0  0  0  0  0  0  0  0  0  0  0
  -24.1245   -9.8864   22.1733 C   0  0  0  0  0  0  0  0  0  0  0  0
  -24.4010  -16.3490   22.4577 C   0  0  0  0  0  0  0  0  0  0  0  0
  -23.9096  -18.0838   23.7162 C   0  0  0  0  0  0  0  0  0  0  0  0
  -23.7069  -15.8865   24.8906 C   0  0  0  0  0  0  0  0  0  0  0  0
  -24.4144  -31.4435   22.6375 C   0  0  0  0  0  0  0  0  0  0  0  0
  -21.9609  -29.3336   22.4111 C   0  0  0  0  0  0  0  0  0  0  0  0
  -20.8546  -26.2775   21.3705 C   0  0  0  0  0  0  0  0  0  0  0  0
  -26.5753  -22.2331   20.3209 C   0  0  0  0  0  0  0  0  0  0  0  0
  -23.3446  -35.9125   24.8605 C   0  0  0  0  0  0  0  0  0  0  0  0
  -24.4641  -30.8755   20.1817 C   0  0  0  0  0  0  0  0  0  0  0  0
  -24.2611  -28.4526   21.8649 C   0  0  0  0  0  0  0  0  0  0  0  0
  -22.8702  -34.4707   25.0236 C   0  0  0  0  0  0  0  0  0  0  0  0
  -23.0751  -21.7040   20.7014 C   0  0  0  0  0  0  0  0  0  0  0  0
  -24.0624  -33.5234   25.1139 C   0  0  0  0  0  0  0  0  0  0  0  0
  -22.9809  -20.3044   21.3116 C   0  0  0  0  0  0  0  0  0  0  0  0
  -24.2176  -21.8044   19.6932 C   0  0  0  0  0  0  0  0  0  0  0  0
  -25.4405  -19.9829   20.8160 C   0  0  0  0  0  0  0  0  0  0  0  0
  -24.9029  -33.5708   23.8321 C   0  0  1  0  0  0  0  0  0  0  0  0
  -23.6577  -30.8625   21.4767 C   0  0  1  0  0  0  0  0  0  0  0  0
  -24.3380  -19.8482   21.8803 C   0  0  2  0  0  0  0  0  0  0  0  0
  -33.2210  -24.2006   20.9869 C   0  0  0  0  0  0  0  0  0  0  0  0
  -18.8112  -24.8209   21.3604 C   0  0  0  0  0  0  0  0  0  0  0  0
  -30.3018  -20.8636   19.6944 C   0  0  0  0  0  0  0  0  0  0  0  0
  -22.4127  -28.6836   25.3578 C   0  0  0  0  0  0  0  0  0  0  0  0
  -21.0393  -26.6145   25.0401 C   0  0  0  0  0  0  0  0  0  0  0  0
  -20.0105  -28.8591   24.6846 C   0  0  0  0  0  0  0  0  0  0  0  0
  -31.8590  -23.1584   18.4544 C   0  0  0  0  0  0  0  0  0  0  0  0
  -20.7678  -26.2206   18.4128 C   0  0  0  0  0  0  0  0  0  0  0  0
  -32.0368  -23.2378   20.9659 C   0  0  0  0  0  0  0  0  0  0  0  0
  -29.6175  -25.2789   18.5709 C   0  0  0  0  0  0  0  0  0  0  0  0
  -30.5785  -24.8874   19.6933 C   0  0  0  0  0  0  0  0  0  0  0  0
  -28.9387  -22.5167   21.0233 C   0  0  0  0  0  0  0  0  0  0  0  0
  -29.1660  -26.7295   18.7095 C   0  0  0  0  0  0  0  0  0  1  0  0
  -21.6650  -27.9718   22.9913 C   0  0  1  0  0  0  0  0  0  0  0  0
  -19.6141  -25.8643   20.5993 C   0  0  2  0  0  0  0  0  0  0  0  0
  -29.8708  -22.3379   19.8048 C   0  0  1  0  0  0  0  0  0  0  0  0
  -21.3050  -28.0369   24.5025 C   0  0  0  0  0  0  0  0  0  0  0  0
  -31.0491  -23.3945   19.7647 C   0  0  1  0  0  0  0  0  0  0  0  0
  -24.5695  -17.4031   21.6549 N   0  0  0  0  0  0  0  0  0  0  0  0
  -24.2629  -18.4432   22.4489 N   0  0  0  0  0  0  0  0  0  0  0  0
  -23.2416  -29.5147   21.8699 N   0  0  0  0  0  0  0  0  0  0  0  0
  -25.4764  -21.3586   20.2956 N   0  0  0  0  0  0  0  0  0  0  0  0
  -23.5715  -19.0046   24.6438 N   0  0  0  0  0  0  0  0  0  0  0  0
  -23.8401  -14.4978   24.7566 N   0  0  0  0  0  0  0  0  0  0  0  0
  -24.2636  -32.8097   22.7802 N   0  0  0  0  0  0  0  0  0  0  0  0
  -20.6228  -27.3886   22.1533 N   0  0  0  0  0  0  0  0  0  0  0  0
  -27.7276  -21.7340   20.9157 N   0  0  0  0  0  0  0  0  0  0  0  0
  -19.9932  -25.2925   19.2763 N   0  3  0  0  0  0  0  0  0  0  0  0
  -23.3305  -16.3641   25.9878 O   0  0  0  0  0  0  0  0  0  0  0  0
  -25.0841  -30.7067   23.3518 O   0  0  0  0  0  0  0  0  0  0  0  0
  -21.0855  -30.2025   22.4306 O   0  0  0  0  0  0  0  0  0  0  0  0
  -21.9215  -25.6726   21.2897 O   0  0  0  0  0  0  0  0  0  0  0  0
  -26.5311  -23.3760   19.8531 O   0  0  0  0  0  0  0  0  0  0  0  0
  -25.3237  -11.1803   20.5342 O   0  0  0  0  0  0  0  0  0  0  0  0
  -28.4916  -26.8843   19.9508 O   0  0  0  0  0  0  0  0  0  1  0  0
  -21.6098   -7.2911   21.7526 F   0  0  0  0  0  0  0  0  0  0  0  0
  -24.7660  -10.5251   23.1614 F   0  0  0  0  0  0  0  0  0  0  0  0
  1  2  1  0  0  0  0
  1  5  2  0  0  0  0
  2  6  2  0  0  0  0
  3  8  2  0  0  0  0
  3 15  1  0  0  0  0
  4  9  1  0  0  0  0
  4 15  2  0  0  0  0
  5 17  1  0  0  0  0
  6 19  1  0  0  0  0
  7 10  2  0  0  0  0
  7 18  1  0  0  0  0
  8 21  1  0  0  0  0
  9 21  2  0  0  0  0
 10 22  1  0  0  0  0
 11 12  2  0  0  0  0
 11 23  1  0  0  0  0
 12 24  1  0  0  0  0
 13 20  1  0  0  0  0
 13 22  2  0  0  0  0
 14 24  2  0  0  0  0
 14 25  1  0  0  0  0
 15 26  1  0  0  0  0
 16 26  1  0  0  0  0
 16 27  2  0  0  0  0
 16 28  1  0  0  0  0
 17 19  2  0  0  0  0
 17 33  1  0  0  0  0
 18 20  2  0  0  0  0
 18 34  1  0  0  0  0
 19 42  1  0  0  0  0
 20 35  1  0  0  0  0
 21 78  1  0  0  0  0
 22 79  1  0  0  0  0
 23 25  2  0  0  0  0
 23 78  1  0  0  0  0
 24 80  1  0  0  0  0
 25 81  1  0  0  0  0
 26 63  2  0  0  0  0
 27 64  1  0  0  0  0
 27 67  1  0  0  0  0
 28 68  1  0  0  0  0
 28 73  2  0  0  0  0
 29 43  1  0  0  0  0
 29 69  1  0  0  0  0
 29 74  2  0  0  0  0
 30 58  1  0  0  0  0
 30 65  1  0  0  0  0
 30 75  2  0  0  0  0
 31 59  1  0  0  0  0
 31 70  1  0  0  0  0
 31 76  2  0  0  0  0
 32 66  1  0  0  0  0
 32 71  1  0  0  0  0
 32 77  2  0  0  0  0
 33 36  1  0  0  0  0
 34 43  1  0  0  0  0
 35 65  1  0  0  0  0
 36 38  1  0  0  0  0
 37 39  1  0  0  0  0
 37 40  1  0  0  0  0
 38 42  1  0  0  0  0
 39 44  1  0  0  0  0
 40 66  1  0  0  0  0
 41 44  1  0  0  0  0
 41 66  1  0  0  0  0
 42 69  1  0  0  0  0
 43 65  1  0  0  0  0
 44 64  1  0  0  0  0
 45 53  1  0  0  0  0
 46 59  1  0  0  0  0
 47 60  1  0  0  0  0
 48 61  1  0  0  0  0
 49 61  1  0  0  0  0
 50 61  1  0  0  0  0
 51 62  1  0  0  0  0
 52 72  1  0  0  0  0
 53 62  1  0  0  0  0
 54 55  1  0  0  0  0
 54 57  1  0  0  0  0
 55 62  1  0  0  0  0
 56 60  1  0  0  0  0
 56 71  1  0  0  0  0
 57 79  1  0  0  0  0
 58 61  1  0  0  0  0
 58 70  1  0  0  0  0
 59 72  1  0  0  0  0
 60 62  1  0  0  0  0
 63 64  1  0  0  0  0
M  CHG  1  72   1
M  ISO  4  32 100  57 101  71 100  79 101
M  END
> <Batch ID>
0046

> <Smiles>
CCC(C)(CC[101CH2:1][101O:1]c1ccc2c(c1)CN(C(=O)C(NC(=O)C(C)NC)C(C)(C)C)C(C(=O)NC1CCCc3ccccc31)C2)C(C)C[100NH:0][100C:0](=O)N1CCCC(n2nc(-c3ccc(Oc4ccc(F)cc4F)cc3)c(C(N)=O)c2N)C1

> <Shape>
0.274

> <Color>
0.069

> <Negative vol penalty>
0.000

$$$$

  -OEChem-04052317213D

 84 91  0     1  0  0  0  0  0999 V2000
  -16.6220  -22.3511   19.7506 C   0  0  0  0  0  0  0  0  0  0  0  0
  -17.5600  -21.4032   19.3545 C   0  0  0  0  0  0  0  0  0  0  0  0
  -26.2948  -28.5646   18.9408 C   0  0  0  0  0  0  0  0  0  0  0  0
  -26.2259  -27.8246   21.2397 C   0  0  0  0  0  0  0  0  0  0  0  0
  -16.9279  -23.2477   20.7736 C   0  0  0  0  0  0  0  0  0  0  0  0
  -18.8050  -21.3520   19.9805 C   0  0  0  0  0  0  0  0  0  0  0  0
  -22.1436  -16.3486   21.1321 C   0  0  0  0  0  0  0  0  0  0  0  0
  -25.4511  -29.6290   19.2581 C   0  0  0  0  0  0  0  0  0  0  0  0
  -25.3821  -28.8890   21.5570 C   0  0  0  0  0  0  0  0  0  0  0  0
  -23.2231  -15.7680   20.4679 C   0  0  0  0  0  0  0  0  0  0  0  0
  -25.6732  -32.2009   22.1634 C   0  0  0  0  0  0  0  0  0  0  0  0
  -25.9532  -32.9245   23.3225 C   0  0  0  0  0  0  0  0  0  0  0  0
  -24.7428  -16.9033   21.9581 C   0  0  0  0  0  0  0  0  0  0  0  0
  -23.7823  -32.3436   24.2095 C   0  0  0  0  0  0  0  0  0  0  0  0
  -26.6822  -27.6623   19.9316 C   0  0  0  0  0  0  0  0  0  0  0  0
  -28.9605  -26.5515   19.6433 C   0  0  0  0  0  0  0  0  0  0  0  0
  -18.1736  -23.2012   21.4190 C   0  0  0  0  0  0  0  0  0  0  0  0
  -22.3562  -17.2209   22.2092 C   0  0  0  0  0  0  0  0  0  0  0  0
  -19.1283  -22.2496   21.0122 C   0  0  0  0  0  0  0  0  0  0  0  0
  -23.6642  -17.4916   22.6359 C   0  0  0  0  0  0  0  0  0  0  0  0
  -24.9947  -29.7912   20.5662 C   0  0  0  0  0  0  0  0  0  0  0  0
  -24.5231  -16.0475   20.8790 C   0  0  0  0  0  0  0  0  0  0  0  0
  -24.4477  -31.5486   22.0273 C   0  0  0  0  0  0  0  0  0  0  0  0
  -25.0077  -32.9958   24.3456 C   0  0  0  0  0  0  0  0  0  0  0  0
  -23.5023  -31.6199   23.0504 C   0  0  0  0  0  0  0  0  0  0  0  0
  -27.5533  -26.5623   19.6044 C   0  0  0  0  0  0  0  0  0  0  0  0
  -29.3053  -25.2828   19.2461 C   0  0  0  0  0  0  0  0  0  0  0  0
  -29.8742  -27.5951   20.0062 C   0  0  0  0  0  0  0  0  0  0  0  0
  -21.7055  -20.2792   22.7811 C   0  0  0  0  0  0  0  0  0  0  0  0
  -28.5862  -19.8418   19.6420 C   0  0  0  0  0  0  0  0  0  0  0  0
  -22.8207  -19.5596   25.7409 C   0  0  0  0  0  0  0  0  0  0  0  0
  -24.7615  -17.5439   27.6947 C   0  0  0  0  0  0  0  0  0  0  0  0
  -18.4762  -24.2217   22.4875 C   0  0  0  0  0  0  0  0  0  0  0  0
  -21.1801  -17.8181   22.9321 C   0  0  0  0  0  0  0  0  0  0  0  0
  -23.9455  -18.4054   23.7997 C   0  0  0  0  0  0  0  0  0  0  0  0
  -19.6789  -23.8578   23.3543 C   0  0  0  0  0  0  0  0  0  0  0  0
  -26.5270  -21.5909   17.2074 C   0  0  0  0  0  0  0  0  0  0  0  0
  -20.8460  -23.4026   22.4840 C   0  0  0  0  0  0  0  0  0  0  0  0
  -26.7071  -23.0445   17.6428 C   0  0  0  0  0  0  0  0  0  0  0  0
  -26.5157  -20.6437   18.4043 C   0  0  0  0  0  0  0  0  0  0  0  0
  -27.9020  -22.2183   19.7170 C   0  0  0  0  0  0  0  0  0  0  0  0
  -20.4804  -22.1464   21.6839 C   0  0  1  0  0  0  0  0  0  0  0  0
  -21.5300  -19.0953   23.6895 C   0  0  1  0  0  0  0  0  0  0  0  0
  -27.9494  -23.2030   18.5367 C   0  0  2  0  0  0  0  0  0  0  0  0
  -29.2130  -14.5224   17.0765 C   0  0  0  0  0  0  0  0  0  0  0  0
  -32.6044  -14.7972   20.2616 C   0  0  0  0  0  0  0  0  0  0  0  0
  -25.5037  -17.2264   30.0708 C   0  0  0  0  0  0  0  0  0  0  0  0
  -24.7410  -21.9132   25.4530 C   0  0  0  0  0  0  0  0  0  0  0  0
  -26.0582  -20.9828   27.3682 C   0  0  0  0  0  0  0  0  0  0  0  0
  -23.6918  -21.6932   27.7125 C   0  0  0  0  0  0  0  0  0  0  0  0
  -28.4771  -13.2564   22.6710 C   0  0  0  0  0  0  0  0  0  0  0  0
  -29.3256  -12.3203   20.5245 C   0  0  0  0  0  0  0  0  0  0  0  0
  -23.5453  -14.8496   27.8367 C   0  0  0  0  0  0  0  0  0  0  0  0
  -28.2872  -18.4459   19.1563 C   0  0  0  0  0  0  0  0  0  0  0  0
  -29.2991  -15.9361   17.6368 C   0  0  0  0  0  0  0  0  0  0  0  0
  -29.3312  -17.4515   19.6627 C   0  0  0  0  0  0  0  0  0  0  0  0
  -27.4621  -13.9934   20.4678 C   0  0  0  0  0  0  0  0  0  0  0  0
  -31.5719  -15.7663   19.7286 C   0  0  0  0  0  0  0  0  0  0  0  0
  -29.8430  -14.7138   21.1790 C   0  0  0  0  0  0  0  0  0  0  0  0
  -26.7562  -15.2385   21.0003 C   0  0  0  0  0  0  0  0  0  1  0  0
  -24.1749  -19.5821   26.4078 C   0  0  1  0  0  0  0  0  0  0  0  0
  -24.4802  -16.8450   29.0126 C   0  0  2  0  0  0  0  0  0  0  0  0
  -29.1583  -16.0068   19.1641 C   0  0  2  0  0  0  0  0  0  0  0  0
  -24.6616  -21.0271   26.7122 C   0  0  0  0  0  0  0  0  0  0  0  0
  -28.7748  -13.5974   21.1957 C   0  0  0  0  0  0  0  0  0  0  0  0
  -27.0394  -25.3931   19.2132 N   0  0  0  0  0  0  0  0  0  0  0  0
  -28.1296  -24.6359   19.0026 N   0  0  0  0  0  0  0  0  0  0  0  0
  -22.7625  -18.9699   24.4702 N   0  0  0  0  0  0  0  0  0  0  0  0
  -27.7016  -20.8450   19.2455 N   0  0  0  0  0  0  0  0  0  0  0  0
  -30.4966  -24.6685   19.0849 N   0  0  0  0  0  0  0  0  0  0  0  0
  -29.3513  -28.8376   20.3896 N   0  0  0  0  0  0  0  0  0  0  0  0
  -20.5375  -20.9738   22.5302 N   0  0  0  0  0  0  0  0  0  0  0  0
  -24.0641  -18.7284   27.5856 N   0  0  0  0  0  0  0  0  0  0  0  0
  -24.5185  -15.3661   28.8331 N   0  3  0  0  0  0  0  0  0  0  0  0
  -30.2063  -15.1277   19.8020 N   0  3  1  0  0  0  0  0  0  0  0  0
  -31.1181  -27.4358   19.9750 O   0  0  0  0  0  0  0  0  0  0  0  0
  -22.8183  -20.5439   22.3415 O   0  0  0  0  0  0  0  0  0  0  0  0
  -29.5781  -20.0332   20.3502 O   0  0  0  0  0  0  0  0  0  0  0  0
  -21.8489  -20.0408   26.3289 O   0  0  0  0  0  0  0  0  0  0  0  0
  -25.5266  -17.0868   26.8483 O   0  0  0  0  0  0  0  0  0  0  0  0
  -24.1716  -30.8299   20.8762 O   0  0  0  0  0  0  0  0  0  0  0  0
  -25.5787  -15.4827   20.2320 O   0  0  0  0  0  0  0  0  0  1  0  0
  -25.2774  -33.6895   25.4592 F   0  0  0  0  0  0  0  0  0  0  0  0
  -22.3237  -30.9944   22.9259 F   0  0  0  0  0  0  0  0  0  0  0  0
  1  2  1  0  0  0  0
  1  5  2  0  0  0  0
  2  6  2  0  0  0  0
  3  8  2  0  0  0  0
  3 15  1  0  0  0  0
  4  9  1  0  0  0  0
  4 15  2  0  0  0  0
  5 17  1  0  0  0  0
  6 19  1  0  0  0  0
  7 10  2  0  0  0  0
  7 18  1  0  0  0  0
  8 21  1  0  0  0  0
  9 21  2  0  0  0  0
 10 22  1  0  0  0  0
 11 12  2  0  0  0  0
 11 23  1  0  0  0  0
 12 24  1  0  0  0  0
 13 20  1  0  0  0  0
 13 22  2  0  0  0  0
 14 24  2  0  0  0  0
 14 25  1  0  0  0  0
 15 26  1  0  0  0  0
 16 26  1  0  0  0  0
 16 27  2  0  0  0  0
 16 28  1  0  0  0  0
 17 19  2  0  0  0  0
 17 33  1  0  0  0  0
 18 20  2  0  0  0  0
 18 34  1  0  0  0  0
 19 42  1  0  0  0  0
 20 35  1  0  0  0  0
 21 81  1  0  0  0  0
 22 82  1  0  0  0  0
 23 25  2  0  0  0  0
 23 81  1  0  0  0  0
 24 83  1  0  0  0  0
 25 84  1  0  0  0  0
 26 66  2  0  0  0  0
 27 67  1  0  0  0  0
 27 70  1  0  0  0  0
 28 71  1  0  0  0  0
 28 76  2  0  0  0  0
 29 43  1  0  0  0  0
 29 72  1  0  0  0  0
 29 77  2  0  0  0  0
 30 54  1  0  0  0  0
 30 69  1  0  0  0  0
 30 78  2  0  0  0  0
 31 61  1  0  0  0  0
 31 68  1  0  0  0  0
 31 79  2  0  0  0  0
 32 62  1  0  0  0  0
 32 73  1  0  0  0  0
 32 80  2  0  0  0  0
 33 36  1  0  0  0  0
 34 43  1  0  0  0  0
 35 68  1  0  0  0  0
 36 38  1  0  0  0  0
 37 39  1  0  0  0  0
 37 40  1  0  0  0  0
 38 42  1  0  0  0  0
 39 44  1  0  0  0  0
 40 69  1  0  0  0  0
 41 44  1  0  0  0  0
 41 69  1  0  0  0  0
 42 72  1  0  0  0  0
 43 68  1  0  0  0  0
 44 67  1  0  0  0  0
 45 55  1  0  0  0  0
 46 58  1  0  0  0  0
 47 62  1  0  0  0  0
 48 64  1  0  0  0  0
 49 64  1  0  0  0  0
 50 64  1  0  0  0  0
 51 65  1  0  0  0  0
 52 65  1  0  0  0  0
 53 74  1  0  0  0  0
 54 56  1  0  0  0  0
 55 63  1  0  0  0  0
 56 63  1  0  0  0  0
 57 60  1  0  0  0  0
 57 65  1  0  0  0  0
 58 75  1  0  0  0  0
 59 65  1  0  0  0  0
 59 75  1  0  0  0  0
 60 82  1  0  0  0  0
 61 64  1  0  0  0  0
 61 73  1  0  0  0  0
 62 74  1  0  0  0  0
 63 75  1  0  0  0  0
 66 67  1  0  0  0  0
M  CHG  2  74   1  75   1
M  ISO  4  30 100  54 100  60 101  82 101
M  END
> <Batch ID>
0046

> <Smiles>
CCC(C[100CH2:0][100C:0](=O)N1CCCC(n2nc(-c3ccc(Oc4ccc(F)cc4F)cc3)c(C(N)=O)c2N)C1)N(CC)CC(C)(C)C[101CH2:1][101O:1]c1ccc2c(c1)CN(C(=O)C(NC(=O)C(C)NC)C(C)(C)C)C(C(=O)NC1CCCc3ccccc31)C2

> <Shape>
0.201

> <Color>
0.054

> <Negative vol penalty>
0.000

$$$$

  -OEChem-04052317213D

 87 95  0     1  0  0  0  0  0999 V2000
  -32.2388  -21.1015   26.6161 C   0  0  0  0  0  0  0  0  0  0  0  0
  -31.7161  -21.6592   25.4537 C   0  0  0  0  0  0  0  0  0  0  0  0
  -22.8132  -10.1710   20.0862 C   0  0  0  0  0  0  0  0  0  0  0  0
  -23.6459  -10.1033   22.3531 C   0  0  0  0  0  0  0  0  0  0  0  0
  -31.3840  -20.7101   27.6457 C   0  0  0  0  0  0  0  0  0  0  0  0
  -30.3380  -21.8248   25.3198 C   0  0  0  0  0  0  0  0  0  0  0  0
  -29.0996  -26.3641   23.4473 C   0  0  0  0  0  0  0  0  0  0  0  0
  -21.9772   -9.0888   20.3609 C   0  0  0  0  0  0  0  0  0  0  0  0
  -22.8099   -9.0210   22.6279 C   0  0  0  0  0  0  0  0  0  0  0  0
  -29.2479  -26.5481   22.0733 C   0  0  0  0  0  0  0  0  0  0  0  0
  -22.7819   -5.6879   22.0620 C   0  0  0  0  0  0  0  0  0  0  0  0
  -23.3260   -4.6094   22.7594 C   0  0  0  0  0  0  0  0  0  0  0  0
  -26.8809  -26.1906   21.7760 C   0  0  0  0  0  0  0  0  0  0  0  0
  -28.0993  -18.1862   20.7873 C   0  0  0  0  0  0  0  0  0  0  0  0
  -30.2601  -16.8323   19.6558 C   0  0  0  0  0  0  0  0  0  0  0  0
  -21.7043   -4.9307   24.5213 C   0  0  0  0  0  0  0  0  0  0  0  0
  -23.6477  -10.6782   21.0823 C   0  0  0  0  0  0  0  0  0  0  0  0
  -24.2113  -13.1627   20.9504 C   0  0  0  0  0  0  0  0  0  0  0  0
  -29.9955  -20.8798   27.5283 C   0  0  0  0  0  0  0  0  0  0  0  0
  -27.8404  -26.0807   23.9956 C   0  0  0  0  0  0  0  0  0  0  0  0
  -29.4637  -21.4340   26.3482 C   0  0  0  0  0  0  0  0  0  0  0  0
  -26.7188  -26.0060   23.1575 C   0  0  0  0  0  0  0  0  0  0  0  0
  -28.6922  -17.1245   21.4706 C   0  0  0  0  0  0  0  0  0  0  0  0
  -29.6671  -17.8940   18.9725 C   0  0  0  0  0  0  0  0  0  0  0  0
  -28.5867  -18.5709   19.5383 C   0  0  0  0  0  0  0  0  0  0  0  0
  -29.7726  -16.4476   20.9048 C   0  0  0  0  0  0  0  0  0  0  0  0
  -21.9755   -8.5138   21.6317 C   0  0  0  0  0  0  0  0  0  0  0  0
  -28.1390  -26.4585   21.2370 C   0  0  0  0  0  0  0  0  0  0  0  0
  -21.6991   -6.3879   22.5942 C   0  0  0  0  0  0  0  0  0  0  0  0
  -22.7872   -4.2308   23.9890 C   0  0  0  0  0  0  0  0  0  0  0  0
  -21.1603   -6.0093   23.8238 C   0  0  0  0  0  0  0  0  0  0  0  0
  -24.5119  -11.7957   20.7989 C   0  0  0  0  0  0  0  0  0  0  0  0
  -25.3539  -13.8118   20.5510 C   0  0  0  0  0  0  0  0  0  0  0  0
  -23.0069  -13.7896   21.4110 C   0  0  0  0  0  0  0  0  0  0  0  0
  -26.5957  -23.6453   25.6152 C   0  0  0  0  0  0  0  0  0  0  0  0
  -30.9284  -14.2644   20.6537 C   0  0  0  0  0  0  0  0  0  0  0  0
  -24.0333  -25.6201   25.8534 C   0  0  0  0  0  0  0  0  0  0  0  0
  -22.2842  -28.2623   24.5862 C   0  0  0  0  0  0  0  0  0  0  0  0
  -29.1080  -20.3979   28.6484 C   0  0  0  0  0  0  0  0  0  0  0  0
  -27.6927  -25.9113   25.4829 C   0  0  0  0  0  0  0  0  0  0  0  0
  -25.3418  -25.7241   23.6988 C   0  0  0  0  0  0  0  0  0  0  0  0
  -27.6873  -20.9524   28.5814 C   0  0  0  0  0  0  0  0  0  0  0  0
  -29.4799  -12.0888   18.2024 C   0  0  0  0  0  0  0  0  0  0  0  0
  -27.1351  -20.8361   27.1643 C   0  0  0  0  0  0  0  0  0  0  0  0
  -28.0426  -11.9068   18.6885 C   0  0  0  0  0  0  0  0  0  0  0  0
  -30.4540  -12.2045   19.3707 C   0  0  0  0  0  0  0  0  0  0  0  0
  -28.6718  -13.1037   20.8325 C   0  0  0  0  0  0  0  0  0  0  0  0
  -27.9763  -21.6526   26.1757 C   0  0  1  0  0  0  0  0  0  0  0  0
  -26.4493  -25.1182   25.8733 C   0  0  1  0  0  0  0  0  0  0  0  0
  -27.6514  -13.0134   19.6840 C   0  0  2  0  0  0  0  0  0  0  0  0
  -28.1536  -16.7310   22.8068 C   0  0  0  0  0  0  0  0  0  0  0  0
  -30.2056  -18.2875   17.6362 C   0  0  0  0  0  0  0  0  0  0  0  0
  -31.5745  -15.7457   22.5335 C   0  0  0  0  0  0  0  0  0  0  0  0
  -20.2101  -29.6203   24.9754 C   0  0  0  0  0  0  0  0  0  0  0  0
  -22.3383  -23.3535   24.7134 C   0  0  0  0  0  0  0  0  0  0  0  0
  -20.5394  -25.0296   24.2414 C   0  0  0  0  0  0  0  0  0  0  0  0
  -21.2688  -24.6136   26.5903 C   0  0  0  0  0  0  0  0  0  0  0  0
  -23.8440  -30.7475   24.9731 C   0  0  0  0  0  0  0  0  0  0  0  0
  -27.9290  -19.7210   18.8182 C   0  0  0  0  0  0  0  0  0  0  0  0
  -28.6897  -21.0478   18.9419 C   0  0  0  0  0  0  0  0  0  0  0  0
  -29.2987  -25.8368   17.8762 C   0  0  0  0  0  0  0  0  0  0  0  0
  -28.0260  -22.2478   18.2734 C   0  0  0  0  0  0  0  0  0  0  0  0
  -28.3373  -24.6665   17.7331 C   0  0  0  0  0  0  0  0  0  0  0  0
  -29.5327  -26.2650   19.3197 C   0  0  0  0  0  0  0  0  0  1  0  0
  -30.4239  -15.3083   21.6179 C   0  0  1  0  0  0  0  0  0  0  0  0
  -22.7991  -25.8750   25.0222 C   0  0  1  0  0  0  0  0  0  0  0  0
  -21.7005  -29.4958   25.2511 C   0  0  2  0  0  0  0  0  0  0  0  0
  -21.7625  -24.7213   25.1311 C   0  0  0  0  0  0  0  0  0  0  0  0
  -25.7485  -11.5876   20.3390 N   0  0  0  0  0  0  0  0  0  0  0  0
  -26.2350  -12.8324   20.1980 N   0  0  0  0  0  0  0  0  0  0  0  0
  -25.2498  -25.5598   25.1589 N   0  0  0  0  0  0  0  0  0  0  0  0
  -30.0354  -13.2510   20.3050 N   0  0  0  0  0  0  0  0  0  0  0  0
  -25.6808  -15.1191   20.4708 N   0  0  0  0  0  0  0  0  0  0  0  0
  -21.9290  -12.9742   21.7818 N   0  0  0  0  0  0  0  0  0  0  0  0
  -27.6555  -23.0599   26.2812 N   0  0  0  0  0  0  0  0  0  0  0  0
  -22.2894  -27.1775   25.4373 N   0  0  0  0  0  0  0  0  0  0  0  0
  -22.3759  -30.7248   24.7468 N   0  3  0  0  0  0  0  0  0  0  0  0
  -28.8756  -23.4632   18.4098 N   0  3  0  0  0  0  0  0  0  0  0  0
  -22.8845  -15.0363   21.4759 O   0  0  0  0  0  0  0  0  0  0  0  0
  -25.8046  -23.0812   24.8683 O   0  0  0  0  0  0  0  0  0  0  0  0
  -32.0810  -14.3504   20.2222 O   0  0  0  0  0  0  0  0  0  0  0  0
  -23.9229  -25.4866   27.0747 O   0  0  0  0  0  0  0  0  0  0  0  0
  -22.6911  -28.2603   23.4265 O   0  0  0  0  0  0  0  0  0  0  0  0
  -21.1597   -7.4580   21.9002 O   0  0  0  0  0  0  0  0  0  0  0  0
  -28.2811  -26.6370   19.8955 O   0  0  0  0  0  0  0  0  0  1  0  0
  -23.3087   -3.1941   24.6579 F   0  0  0  0  0  0  0  0  0  0  0  0
  -20.1193   -6.6772   24.3396 F   0  0  0  0  0  0  0  0  0  0  0  0
  1  2  1  0  0  0  0
  1  5  2  0  0  0  0
  2  6  2  0  0  0  0
  3  8  2  0  0  0  0
  3 17  1  0  0  0  0
  4  9  1  0  0  0  0
  4 17  2  0  0  0  0
  5 19  1  0  0  0  0
  6 21  1  0  0  0  0
  7 10  2  0  0  0  0
  7 20  1  0  0  0  0
  8 27  1  0  0  0  0
  9 27  2  0  0  0  0
 10 28  1  0  0  0  0
 11 12  2  0  0  0  0
 11 29  1  0  0  0  0
 12 30  1  0  0  0  0
 13 22  1  0  0  0  0
 13 28  2  0  0  0  0
 14 23  2  0  0  0  0
 14 25  1  0  0  0  0
 15 24  1  0  0  0  0
 15 26  2  0  0  0  0
 16 30  2  0  0  0  0
 16 31  1  0  0  0  0
 17 32  1  0  0  0  0
 18 32  1  0  0  0  0
 18 33  2  0  0  0  0
 18 34  1  0  0  0  0
 19 21  2  0  0  0  0
 19 39  1  0  0  0  0
 20 22  2  0  0  0  0
 20 40  1  0  0  0  0
 21 48  1  0  0  0  0
 22 41  1  0  0  0  0
 23 26  1  0  0  0  0
 23 51  1  0  0  0  0
 24 25  2  0  0  0  0
 24 52  1  0  0  0  0
 25 59  1  0  0  0  0
 26 65  1  0  0  0  0
 27 84  1  0  0  0  0
 28 85  1  0  0  0  0
 29 31  2  0  0  0  0
 29 84  1  0  0  0  0
 30 86  1  0  0  0  0
 31 87  1  0  0  0  0
 32 69  2  0  0  0  0
 33 70  1  0  0  0  0
 33 73  1  0  0  0  0
 34 74  1  0  0  0  0
 34 79  2  0  0  0  0
 35 49  1  0  0  0  0
 35 75  1  0  0  0  0
 35 80  2  0  0  0  0
 36 65  1  0  0  0  0
 36 72  1  0  0  0  0
 36 81  2  0  0  0  0
 37 66  1  0  0  0  0
 37 71  1  0  0  0  0
 37 82  2  0  0  0  0
 38 67  1  0  0  0  0
 38 76  1  0  0  0  0
 38 83  2  0  0  0  0
 39 42  1  0  0  0  0
 40 49  1  0  0  0  0
 41 71  1  0  0  0  0
 42 44  1  0  0  0  0
 43 45  1  0  0  0  0
 43 46  1  0  0  0  0
 44 48  1  0  0  0  0
 45 50  1  0  0  0  0
 46 72  1  0  0  0  0
 47 50  1  0  0  0  0
 47 72  1  0  0  0  0
 48 75  1  0  0  0  0
 49 71  1  0  0  0  0
 50 70  1  0  0  0  0
 53 65  1  0  0  0  0
 54 67  1  0  0  0  0
 55 68  1  0  0  0  0
 56 68  1  0  0  0  0
 57 68  1  0  0  0  0
 58 77  1  0  0  0  0
 59 60  1  0  0  0  0
 60 62  1  0  0  0  0
 61 63  1  0  0  0  0
 61 64  1  0  0  0  0
 62 78  1  0  0  0  0
 63 78  1  0  0  0  0
 64 85  1  0  0  0  0
 66 68  1  0  0  0  0
 66 76  1  0  0  0  0
 67 77  1  0  0  0  0
 69 70  1  0  0  0  0
M  CHG  2  77   1  78   1
M  ISO  4  36 100  64 101  65 100  85 101
M  END
> <Batch ID>
0046

> <Smiles>
CNC(C)C(=O)NC(C(=O)N1Cc2cc([101O:1][101CH2:1]CCNCCCc3cc(C)c([100CH:0](C)[100C:0](=O)N4CCCC(n5nc(-c6ccc(Oc7ccc(F)cc7F)cc6)c(C(N)=O)c5N)C4)cc3C)ccc2CC1C(=O)NC1CCCc2ccccc21)C(C)(C)C

> <Shape>
0.269

> <Color>
0.216

> <Negative vol penalty>
0.000

$$$$

  -OEChem-04052317213D

 79 87  0     1  0  0  0  0  0999 V2000
  -26.7712  -28.2795   10.2391 C   0  0  0  0  0  0  0  0  0  0  0  0
  -27.0237  -27.1566   11.0206 C   0  0  0  0  0  0  0  0  0  0  0  0
  -23.0962   -9.8187   19.9696 C   0  0  0  0  0  0  0  0  0  0  0  0
  -23.8432   -9.8935   22.2660 C   0  0  0  0  0  0  0  0  0  0  0  0
  -27.2457  -29.5276   10.6403 C   0  0  0  0  0  0  0  0  0  0  0  0
  -27.7520  -27.2809   12.2032 C   0  0  0  0  0  0  0  0  0  0  0  0
  -26.9557  -24.0908   17.3699 C   0  0  0  0  0  0  0  0  0  0  0  0
  -22.3734   -8.6574   20.2426 C   0  0  0  0  0  0  0  0  0  0  0  0
  -23.1203   -8.7323   22.5390 C   0  0  0  0  0  0  0  0  0  0  0  0
  -27.6093  -22.9767   17.8946 C   0  0  0  0  0  0  0  0  0  0  0  0
  -19.9049   -7.8861   23.1436 C   0  0  0  0  0  0  0  0  0  0  0  0
  -19.1424   -7.8586   24.3113 C   0  0  0  0  0  0  0  0  0  0  0  0
  -29.0064  -24.4286   19.2210 C   0  0  0  0  0  0  0  0  0  0  0  0
  -20.4169   -5.9632   25.0988 C   0  0  0  0  0  0  0  0  0  0  0  0
  -29.3136  -18.8617   20.5986 C   0  0  0  0  0  0  0  0  0  0  0  0
  -23.8312  -10.4367   20.9814 C   0  0  0  0  0  0  0  0  0  0  0  0
  -24.1249  -12.9646   20.8044 C   0  0  0  0  0  0  0  0  0  0  0  0
  -27.9719  -29.6689   11.8334 C   0  0  0  0  0  0  0  0  0  0  0  0
  -27.3304  -25.3848   17.7593 C   0  0  0  0  0  0  0  0  0  0  0  0
  -28.2379  -28.5319   12.6200 C   0  0  0  0  0  0  0  0  0  0  0  0
  -28.3542  -25.5574   18.7018 C   0  0  0  0  0  0  0  0  0  0  0  0
  -22.3854   -8.1142   21.5273 C   0  0  0  0  0  0  0  0  0  0  0  0
  -28.6368  -23.1456   18.8181 C   0  0  0  0  0  0  0  0  0  0  0  0
  -20.9233   -6.9521   22.9535 C   0  0  0  0  0  0  0  0  0  0  0  0
  -19.3984   -6.8972   25.2889 C   0  0  0  0  0  0  0  0  0  0  0  0
  -21.1793   -5.9907   23.9311 C   0  0  0  0  0  0  0  0  0  0  0  0
  -24.5786  -11.6360   20.6999 C   0  0  0  0  0  0  0  0  0  0  0  0
  -30.4805  -18.1050   20.8169 C   0  0  0  0  0  0  0  0  0  0  0  0
  -29.6454  -19.7171   19.5765 C   0  0  0  0  0  0  0  0  0  0  0  0
  -25.2044  -13.7265   20.4293 C   0  0  0  0  0  0  0  0  0  0  0  0
  -22.8424  -13.4652   21.2047 C   0  0  0  0  0  0  0  0  0  0  0  0
  -28.5011  -27.9290   16.2560 C   0  0  0  0  0  0  0  0  0  0  0  0
  -28.0734  -29.3462   19.1423 C   0  0  0  0  0  0  0  0  0  0  0  0
  -27.7790  -29.0001   22.5247 C   0  0  0  0  0  0  0  0  0  0  0  0
  -30.6663  -14.8559   20.6216 C   0  0  0  0  0  0  0  0  0  0  0  0
  -28.5050  -31.0308   12.2018 C   0  0  0  0  0  0  0  0  0  0  0  0
  -26.5975  -26.5752   17.2042 C   0  0  0  0  0  0  0  0  0  0  0  0
  -28.7807  -26.9246   19.1679 C   0  0  0  0  0  0  0  0  0  0  0  0
  -28.9471  -31.1381   13.6589 C   0  0  0  0  0  0  0  0  0  0  0  0
  -29.5881  -12.3952   18.2852 C   0  0  0  0  0  0  0  0  0  0  0  0
  -29.7995  -29.9345   14.0482 C   0  0  0  0  0  0  0  0  0  0  0  0
  -28.1542  -12.0837   18.7176 C   0  0  0  0  0  0  0  0  0  0  0  0
  -30.4942  -12.6615   19.4853 C   0  0  0  0  0  0  0  0  0  0  0  0
  -28.5711  -13.3874   20.8449 C   0  0  0  0  0  0  0  0  0  0  0  0
  -29.0029  -28.6303   13.9220 C   0  0  1  0  0  0  0  0  0  0  0  0
  -27.4070  -27.8658   17.2839 C   0  0  1  0  0  0  0  0  0  0  0  0
  -27.6070  -13.1667   19.6667 C   0  0  2  0  0  0  0  0  0  0  0  0
  -27.4756  -30.3423   24.6232 C   0  0  0  0  0  0  0  0  0  0  0  0
  -31.0004  -30.1988   19.0174 C   0  0  0  0  0  0  0  0  0  0  0  0
  -30.8945  -30.6739   21.4733 C   0  0  0  0  0  0  0  0  0  0  0  0
  -29.4414  -31.9464   19.8948 C   0  0  0  0  0  0  0  0  0  0  0  0
  -31.7425  -20.0657   18.2367 C   0  0  0  0  0  0  0  0  0  0  0  0
  -25.2196  -27.6538   23.1539 C   0  0  0  0  0  0  0  0  0  0  0  0
  -30.6839  -17.0354   21.8085 C   0  0  0  0  0  0  0  0  0  0  0  0
  -28.8445  -20.7773   18.8794 C   0  0  0  0  0  0  0  0  0  1  0  0
  -28.9161  -29.5219   20.3825 C   0  0  1  0  0  0  0  0  0  0  0  0
  -26.7783  -29.5723   23.5125 C   0  0  2  0  0  0  0  0  0  0  0  0
  -30.0566  -30.5594   20.1819 C   0  0  0  0  0  0  0  0  0  0  0  0
  -25.8473  -11.5551   20.2903 N   0  0  0  0  0  0  0  0  0  0  0  0
  -31.4788  -18.4492   19.9991 N   0  0  0  0  0  0  0  0  0  0  0  0
  -30.9402  -19.4316   19.2569 N   0  0  0  0  0  0  0  0  0  0  0  0
  -26.2001  -12.8425   20.1341 N   0  0  0  0  0  0  0  0  0  0  0  0
  -28.0379  -28.0574   18.5914 N   0  0  0  0  0  0  0  0  0  0  0  0
  -29.9190  -13.6994   20.3443 N   0  0  0  0  0  0  0  0  0  0  0  0
  -25.3895  -15.0598   20.3264 N   0  0  0  0  0  0  0  0  0  0  0  0
  -21.8464  -12.5446   21.5579 N   0  0  0  0  0  0  0  0  0  0  0  0
  -28.1079  -28.4738   15.0485 N   0  0  0  0  0  0  0  0  0  0  0  0
  -27.9911  -29.8518   21.4613 N   0  0  0  0  0  0  0  0  0  0  0  0
  -30.0448  -15.7922   21.4388 N   0  0  0  0  0  0  0  0  0  0  0  0
  -25.9770  -28.4782   24.1304 N   0  3  0  0  0  0  0  0  0  0  0  0
  -22.5822  -14.6920   21.2322 O   0  0  0  0  0  0  0  0  0  0  0  0
  -29.6197  -27.5156   16.5380 O   0  0  0  0  0  0  0  0  0  0  0  0
  -27.4632  -30.3152   18.6836 O   0  0  0  0  0  0  0  0  0  0  0  0
  -28.3213  -27.9085   22.6827 O   0  0  0  0  0  0  0  0  0  0  0  0
  -31.8012  -15.0429   20.1698 O   0  0  0  0  0  0  0  0  0  0  0  0
  -21.6800   -6.9812   21.7940 O   0  0  0  0  0  0  0  0  0  0  0  0
  -29.2769  -22.0599   19.3313 O   0  0  0  0  0  0  0  0  0  1  0  0
  -18.6672   -6.8719   26.4109 F   0  0  0  0  0  0  0  0  0  0  0  0
  -22.1572   -5.0915   23.7547 F   0  0  0  0  0  0  0  0  0  0  0  0
  1  2  1  0  0  0  0
  1  5  2  0  0  0  0
  2  6  2  0  0  0  0
  3  8  2  0  0  0  0
  3 16  1  0  0  0  0
  4  9  1  0  0  0  0
  4 16  2  0  0  0  0
  5 18  1  0  0  0  0
  6 20  1  0  0  0  0
  7 10  2  0  0  0  0
  7 19  1  0  0  0  0
  8 22  1  0  0  0  0
  9 22  2  0  0  0  0
 10 23  1  0  0  0  0
 11 12  2  0  0  0  0
 11 24  1  0  0  0  0
 12 25  1  0  0  0  0
 13 21  1  0  0  0  0
 13 23  2  0  0  0  0
 14 25  2  0  0  0  0
 14 26  1  0  0  0  0
 15 28  1  0  0  0  0
 15 29  2  0  0  0  0
 16 27  1  0  0  0  0
 17 27  1  0  0  0  0
 17 30  2  0  0  0  0
 17 31  1  0  0  0  0
 18 20  2  0  0  0  0
 18 36  1  0  0  0  0
 19 21  2  0  0  0  0
 19 37  1  0  0  0  0
 20 45  1  0  0  0  0
 21 38  1  0  0  0  0
 22 76  1  0  0  0  0
 23 77  1  0  0  0  0
 24 26  2  0  0  0  0
 24 76  1  0  0  0  0
 25 78  1  0  0  0  0
 26 79  1  0  0  0  0
 27 59  2  0  0  0  0
 28 54  1  0  0  0  0
 28 60  2  0  0  0  0
 29 55  1  0  0  0  0
 29 61  1  0  0  0  0
 30 62  1  0  0  0  0
 30 65  1  0  0  0  0
 31 66  1  0  0  0  0
 31 71  2  0  0  0  0
 32 46  1  0  0  0  0
 32 67  1  0  0  0  0
 32 72  2  0  0  0  0
 33 56  1  0  0  0  0
 33 63  1  0  0  0  0
 33 73  2  0  0  0  0
 34 57  1  0  0  0  0
 34 68  1  0  0  0  0
 34 74  2  0  0  0  0
 35 64  1  0  0  0  0
 35 69  1  0  0  0  0
 35 75  2  0  0  0  0
 36 39  1  0  0  0  0
 37 46  1  0  0  0  0
 38 63  1  0  0  0  0
 39 41  1  0  0  0  0
 40 42  1  0  0  0  0
 40 43  1  0  0  0  0
 41 45  1  0  0  0  0
 42 47  1  0  0  0  0
 43 64  1  0  0  0  0
 44 47  1  0  0  0  0
 44 64  1  0  0  0  0
 45 67  1  0  0  0  0
 46 63  1  0  0  0  0
 47 62  1  0  0  0  0
 48 57  1  0  0  0  0
 49 58  1  0  0  0  0
 50 58  1  0  0  0  0
 51 58  1  0  0  0  0
 52 61  1  0  0  0  0
 53 70  1  0  0  0  0
 54 69  1  0  0  0  0
 55 77  1  0  0  0  0
 56 58  1  0  0  0  0
 56 68  1  0  0  0  0
 57 70  1  0  0  0  0
 59 62  1  0  0  0  0
 60 61  1  0  0  0  0
M  CHG  1  70   1
M  ISO  4  35 100  55 101  69 100  77 101
M  END
> <Batch ID>
0046

> <Smiles>
CNC(C)C(=O)NC(C(=O)N1Cc2cc([101O:1][101CH2:1]c3cc(C[100NH:0][100C:0](=O)N4CCCC(n5nc(-c6ccc(Oc7ccc(F)cc7F)cc6)c(C(N)=O)c5N)C4)nn3C)ccc2CC1C(=O)NC1CCCc2ccccc21)C(C)(C)C

> <Shape>
0.256

> <Color>
0.207

> <Negative vol penalty>
0.000

$$$$

  -OEChem-04052317213D

 86 94  0     1  0  0  0  0  0999 V2000
  -19.7859  -10.8588   21.3638 C   0  0  0  0  0  0  0  0  0  0  0  0
  -20.3658  -11.9940   21.9209 C   0  0  0  0  0  0  0  0  0  0  0  0
  -23.4644  -29.7268   22.5205 C   0  0  0  0  0  0  0  0  0  0  0  0
  -24.4177  -28.4816   24.3584 C   0  0  0  0  0  0  0  0  0  0  0  0
  -20.5924   -9.8108   20.9219 C   0  0  0  0  0  0  0  0  0  0  0  0
  -21.7526  -12.0814   22.0375 C   0  0  0  0  0  0  0  0  0  0  0  0
  -23.5429  -16.5931   20.5937 C   0  0  0  0  0  0  0  0  0  0  0  0
  -22.1827  -29.4154   22.9742 C   0  0  0  0  0  0  0  0  0  0  0  0
  -23.1360  -28.1702   24.8122 C   0  0  0  0  0  0  0  0  0  0  0  0
  -23.4079  -17.6494   21.4937 C   0  0  0  0  0  0  0  0  0  0  0  0
  -20.0756  -26.7748   22.8652 C   0  0  0  0  0  0  0  0  0  0  0  0
  -19.1383  -26.3568   21.9206 C   0  0  0  0  0  0  0  0  0  0  0  0
  -25.7078  -17.3647   22.1636 C   0  0  0  0  0  0  0  0  0  0  0  0
  -26.3522  -21.4522   23.6908 C   0  0  0  0  0  0  0  0  0  0  0  0
  -17.7220  -28.2271   22.4982 C   0  0  0  0  0  0  0  0  0  0  0  0
  -24.5819  -29.2599   23.2126 C   0  0  0  0  0  0  0  0  0  0  0  0
  -26.6853  -30.6988   23.0976 C   0  0  0  0  0  0  0  0  0  0  0  0
  -21.9903   -9.8895   21.0243 C   0  0  0  0  0  0  0  0  0  0  0  0
  -24.7603  -15.9065   20.4796 C   0  0  0  0  0  0  0  0  0  0  0  0
  -22.5785  -11.0330   21.5978 C   0  0  0  0  0  0  0  0  0  0  0  0
  -25.8564  -16.3017   21.2596 C   0  0  0  0  0  0  0  0  0  0  0  0
  -27.5896  -21.8901   23.2321 C   0  0  0  0  0  0  0  0  0  0  0  0
  -27.6587  -22.7120   22.1127 C   0  0  0  0  0  0  0  0  0  0  0  0
  -22.0185  -28.6371   24.1201 C   0  0  0  0  0  0  0  0  0  0  0  0
  -24.4896  -18.0334   22.2808 C   0  0  0  0  0  0  0  0  0  0  0  0
  -19.8361  -27.9190   23.6264 C   0  0  0  0  0  0  0  0  0  0  0  0
  -17.9615  -27.0829   21.7371 C   0  0  0  0  0  0  0  0  0  0  0  0
  -18.6593  -28.6451   23.4428 C   0  0  0  0  0  0  0  0  0  0  0  0
  -25.9061  -29.5808   22.7441 C   0  0  0  0  0  0  0  0  0  0  0  0
  -25.2227  -21.8610   23.0002 C   0  0  0  0  0  0  0  0  0  0  0  0
  -26.4707  -23.0643   21.4926 C   0  0  0  0  0  0  0  0  0  0  0  0
  -27.8511  -30.5429   22.3884 C   0  0  0  0  0  0  0  0  0  0  0  0
  -26.3823  -31.7813   23.9876 C   0  0  0  0  0  0  0  0  0  0  0  0
  -25.6984  -12.9083   20.9635 C   0  0  0  0  0  0  0  0  0  0  0  0
  -28.4930  -13.9945   19.7255 C   0  0  0  0  0  0  0  0  0  0  0  0
  -30.5462  -25.6754   20.1177 C   0  0  0  0  0  0  0  0  0  0  0  0
  -30.5536  -16.6447   19.1109 C   0  0  0  0  0  0  0  0  0  0  0  0
  -22.8185   -8.7114   20.5762 C   0  0  0  0  0  0  0  0  0  0  0  0
  -24.8975  -14.7866   19.4849 C   0  0  0  0  0  0  0  0  0  0  0  0
  -27.1907  -15.6102   21.1604 C   0  0  0  0  0  0  0  0  0  0  0  0
  -24.2975   -9.0413   20.3924 C   0  0  0  0  0  0  0  0  0  0  0  0
  -29.5645  -28.6378   18.3569 C   0  0  0  0  0  0  0  0  0  0  0  0
  -24.8188   -9.8385   21.5839 C   0  0  0  0  0  0  0  0  0  0  0  0
  -28.5644  -29.3024   19.3021 C   0  0  0  0  0  0  0  0  0  0  0  0
  -29.4685  -27.1168   18.4220 C   0  0  0  0  0  0  0  0  0  0  0  0
  -28.6247  -27.2198   20.7456 C   0  0  0  0  0  0  0  0  0  0  0  0
  -24.0802  -11.1756   21.7186 C   0  0  1  0  0  0  0  0  0  0  0  0
  -26.0330  -13.8248   19.8208 C   0  0  1  0  0  0  0  0  0  0  0  0
  -28.7097  -28.7563   20.7335 C   0  0  2  0  0  0  0  0  0  0  0  0
  -28.8242  -21.4632   23.9549 C   0  0  0  0  0  0  0  0  0  0  0  0
  -26.4808  -23.9460   20.2868 C   0  0  0  0  0  0  0  0  0  0  0  0
  -32.3592  -27.0956   22.0698 C   0  0  0  0  0  0  0  0  0  0  0  0
  -32.7866  -17.2149   18.1181 C   0  0  0  0  0  0  0  0  0  0  0  0
  -31.7286  -24.1849   21.6744 C   0  0  0  0  0  0  0  0  0  0  0  0
  -29.8766  -12.9002   22.2151 C   0  0  0  0  0  0  0  0  0  0  0  0
  -31.8701  -14.3004   21.6376 C   0  0  0  0  0  0  0  0  0  0  0  0
  -31.1130  -12.5077   20.0769 C   0  0  0  0  0  0  0  0  0  0  0  0
  -29.3257  -18.3862   17.0571 C   0  0  0  0  0  0  0  0  0  0  0  0
  -28.9719  -23.1991   21.5993 C   0  0  0  0  0  0  0  0  0  0  0  0
  -23.8623  -21.4063   23.4701 C   0  0  0  0  0  0  0  0  0  0  0  0
  -31.0131  -26.4660   22.4135 C   0  0  0  0  0  0  0  0  0  0  0  0
  -29.2401  -24.6665   21.9939 C   0  0  0  0  0  0  0  0  0  0  0  0
  -23.4335  -20.0945   22.8218 C   0  0  0  0  0  0  0  0  0  1  0  0
  -29.7427  -14.6212   20.2952 C   0  0  1  0  0  0  0  0  0  0  0  0
  -31.2948  -17.0749   17.8579 C   0  0  2  0  0  0  0  0  0  0  0  0
  -30.6124  -25.2361   21.5587 C   0  0  1  0  0  0  0  0  0  0  0  0
  -30.6250  -13.5943   21.0597 C   0  0  0  0  0  0  0  0  0  0  0  0
  -26.5248  -28.7744   21.8775 N   0  0  0  0  0  0  0  0  0  0  0  0
  -25.2502  -22.6586   21.9091 N   0  0  0  0  0  0  0  0  0  0  0  0
  -27.7050  -29.3863   21.6805 N   0  0  0  0  0  0  0  0  0  0  0  0
  -27.2731  -14.5170   20.1777 N   0  0  0  0  0  0  0  0  0  0  0  0
  -29.5887  -26.6391   19.8007 N   0  0  0  0  0  0  0  0  0  0  0  0
  -28.9767  -31.2837   22.3075 N   0  0  0  0  0  0  0  0  0  0  0  0
  -25.1391  -31.7862   24.6348 N   0  0  0  0  0  0  0  0  0  0  0  0
  -24.5782  -12.1280   20.7494 N   0  0  0  0  0  0  0  0  0  0  0  0
  -30.4174  -15.2742   19.1785 N   0  0  0  0  0  0  0  0  0  0  0  0
  -30.7770  -18.3859   17.3741 N   0  3  0  0  0  0  0  0  0  0  0  0
  -27.1835  -32.7250   24.1900 O   0  0  0  0  0  0  0  0  0  0  0  0
  -26.4051  -12.9079   21.9646 O   0  0  0  0  0  0  0  0  0  0  0  0
  -28.5955  -13.0801   18.9040 O   0  0  0  0  0  0  0  0  0  0  0  0
  -31.3250  -25.1780   19.3003 O   0  0  0  0  0  0  0  0  0  0  0  0
  -30.1402  -17.4441   19.9478 O   0  0  0  0  0  0  0  0  0  0  0  0
  -20.7680  -28.3332   24.5632 O   0  0  0  0  0  0  0  0  0  0  0  0
  -24.3603  -19.0636   23.1605 O   0  0  0  0  0  0  0  0  0  1  0  0
  -17.0622  -26.6822   20.8288 F   0  0  0  0  0  0  0  0  0  0  0  0
  -18.4243  -29.7457   24.1703 F   0  0  0  0  0  0  0  0  0  0  0  0
  1  2  1  0  0  0  0
  1  5  2  0  0  0  0
  2  6  2  0  0  0  0
  3  8  2  0  0  0  0
  3 16  1  0  0  0  0
  4  9  1  0  0  0  0
  4 16  2  0  0  0  0
  5 18  1  0  0  0  0
  6 20  1  0  0  0  0
  7 10  2  0  0  0  0
  7 19  1  0  0  0  0
  8 24  1  0  0  0  0
  9 24  2  0  0  0  0
 10 25  1  0  0  0  0
 11 12  2  0  0  0  0
 11 26  1  0  0  0  0
 12 27  1  0  0  0  0
 13 21  1  0  0  0  0
 13 25  2  0  0  0  0
 14 22  2  0  0  0  0
 14 30  1  0  0  0  0
 15 27  2  0  0  0  0
 15 28  1  0  0  0  0
 16 29  1  0  0  0  0
 17 29  1  0  0  0  0
 17 32  2  0  0  0  0
 17 33  1  0  0  0  0
 18 20  2  0  0  0  0
 18 38  1  0  0  0  0
 19 21  2  0  0  0  0
 19 39  1  0  0  0  0
 20 47  1  0  0  0  0
 21 40  1  0  0  0  0
 22 23  1  0  0  0  0
 22 50  1  0  0  0  0
 23 31  2  0  0  0  0
 23 59  1  0  0  0  0
 24 83  1  0  0  0  0
 25 84  1  0  0  0  0
 26 28  2  0  0  0  0
 26 83  1  0  0  0  0
 27 85  1  0  0  0  0
 28 86  1  0  0  0  0
 29 68  2  0  0  0  0
 30 60  1  0  0  0  0
 30 69  2  0  0  0  0
 31 51  1  0  0  0  0
 31 69  1  0  0  0  0
 32 70  1  0  0  0  0
 32 73  1  0  0  0  0
 33 74  1  0  0  0  0
 33 78  2  0  0  0  0
 34 48  1  0  0  0  0
 34 75  1  0  0  0  0
 34 79  2  0  0  0  0
 35 64  1  0  0  0  0
 35 71  1  0  0  0  0
 35 80  2  0  0  0  0
 36 66  1  0  0  0  0
 36 72  1  0  0  0  0
 36 81  2  0  0  0  0
 37 65  1  0  0  0  0
 37 76  1  0  0  0  0
 37 82  2  0  0  0  0
 38 41  1  0  0  0  0
 39 48  1  0  0  0  0
 40 71  1  0  0  0  0
 41 43  1  0  0  0  0
 42 44  1  0  0  0  0
 42 45  1  0  0  0  0
 43 47  1  0  0  0  0
 44 49  1  0  0  0  0
 45 72  1  0  0  0  0
 46 49  1  0  0  0  0
 46 72  1  0  0  0  0
 47 75  1  0  0  0  0
 48 71  1  0  0  0  0
 49 70  1  0  0  0  0
 52 61  1  0  0  0  0
 53 65  1  0  0  0  0
 54 66  1  0  0  0  0
 55 67  1  0  0  0  0
 56 67  1  0  0  0  0
 57 67  1  0  0  0  0
 58 77  1  0  0  0  0
 59 62  1  0  0  0  0
 60 63  1  0  0  0  0
 61 66  1  0  0  0  0
 62 66  1  0  0  0  0
 63 84  1  0  0  0  0
 64 67  1  0  0  0  0
 64 76  1  0  0  0  0
 65 77  1  0  0  0  0
 68 70  1  0  0  0  0
M  CHG  1  77   1
M  ISO  4  36 100  63 101  66 100  84 101
M  END
> <Batch ID>
0046

> <Smiles>
CC[100C:0](C)(CCc1c(C)cc(C[101CH2:1][101O:1]c2ccc3c(c2)CN(C(=O)C(NC(=O)C(C)NC)C(C)(C)C)C(C(=O)NC2CCCc4ccccc42)C3)nc1C)[100C:0](=O)N1CCCC(n2nc(-c3ccc(Oc4ccc(F)cc4F)cc3)c(C(N)=O)c2N)C1

> <Shape>
0.289

> <Color>
0.056

> <Negative vol penalty>
0.000

$$$$
