
  -OEChem-04052317243D

 85 93  0     1  0  0  0  0  0999 V2000
  -19.9861   -8.3930   20.3843 C   0  0  0  0  0  0  0  0  0  0  0  0
  -20.2209   -9.7283   20.6962 C   0  0  0  0  0  0  0  0  0  0  0  0
  -29.4998  -28.3747   20.1822 C   0  0  0  0  0  0  0  0  0  0  0  0
  -27.7589  -27.1009   19.0942 C   0  0  0  0  0  0  0  0  0  0  0  0
  -21.0576   -7.5117   20.2461 C   0  0  0  0  0  0  0  0  0  0  0  0
  -21.5275  -10.1828   20.8711 C   0  0  0  0  0  0  0  0  0  0  0  0
  -22.3811  -14.5907   18.5286 C   0  0  0  0  0  0  0  0  0  0  0  0
  -30.3620  -27.2828   20.0810 C   0  0  0  0  0  0  0  0  0  0  0  0
  -28.6211  -26.0091   18.9929 C   0  0  0  0  0  0  0  0  0  0  0  0
  -21.9043  -15.7444   19.1493 C   0  0  0  0  0  0  0  0  0  0  0  0
  -29.7787  -23.5536   21.0082 C   0  0  0  0  0  0  0  0  0  0  0  0
  -29.2760  -22.2973   21.3467 C   0  0  0  0  0  0  0  0  0  0  0  0
  -24.1160  -16.1925   20.0019 C   0  0  0  0  0  0  0  0  0  0  0  0
  -29.7443  -21.5077   19.1118 C   0  0  0  0  0  0  0  0  0  0  0  0
  -20.5803  -20.6316   22.4248 C   0  0  0  0  0  0  0  0  0  0  0  0
  -28.1983  -28.2837   19.6888 C   0  0  0  0  0  0  0  0  0  0  0  0
  -27.1337  -30.4476   18.8570 C   0  0  0  0  0  0  0  0  0  0  0  0
  -22.3785   -7.9578   20.4099 C   0  0  0  0  0  0  0  0  0  0  0  0
  -23.7289  -14.2227   18.6491 C   0  0  0  0  0  0  0  0  0  0  0  0
  -22.6177   -9.3064   20.7363 C   0  0  0  0  0  0  0  0  0  0  0  0
  -24.6080  -15.0350   19.3796 C   0  0  0  0  0  0  0  0  0  0  0  0
  -29.9226  -26.1001   19.4863 C   0  0  0  0  0  0  0  0  0  0  0  0
  -22.7712  -16.5440   19.8885 C   0  0  0  0  0  0  0  0  0  0  0  0
  -30.2642  -23.7870   19.7215 C   0  0  0  0  0  0  0  0  0  0  0  0
  -29.2588  -21.2744   20.3985 C   0  0  0  0  0  0  0  0  0  0  0  0
  -30.2470  -22.7641   18.7733 C   0  0  0  0  0  0  0  0  0  0  0  0
  -27.3071  -29.4110   19.7936 C   0  0  0  0  0  0  0  0  0  0  0  0
  -21.2809  -21.7014   22.9369 C   0  0  0  0  0  0  0  0  0  0  0  0
  -23.2487  -20.6880   22.3615 C   0  0  0  0  0  0  0  0  0  0  0  0
  -22.5480  -19.6179   21.8502 C   0  0  0  0  0  0  0  0  0  0  0  0
  -26.1834  -31.2638   19.4201 C   0  0  0  0  0  0  0  0  0  0  0  0
  -27.7744  -30.6541   17.5911 C   0  0  0  0  0  0  0  0  0  0  0  0
  -25.2721  -11.7264   19.8700 C   0  0  0  0  0  0  0  0  0  0  0  0
  -27.8631  -13.1922   18.5813 C   0  0  0  0  0  0  0  0  0  0  0  0
  -29.3128  -16.0832   17.4917 C   0  0  0  0  0  0  0  0  0  0  0  0
  -21.8270  -30.2983   23.4127 C   0  0  0  0  0  0  0  0  0  0  0  0
  -23.5017   -6.9576   20.2972 C   0  0  0  0  0  0  0  0  0  0  0  0
  -24.2333  -12.9894   17.9512 C   0  0  0  0  0  0  0  0  0  0  0  0
  -26.0682  -14.6949   19.5226 C   0  0  0  0  0  0  0  0  0  0  0  0
  -24.8758   -7.6012   20.1297 C   0  0  0  0  0  0  0  0  0  0  0  0
  -24.4845  -32.6536   23.6713 C   0  0  0  0  0  0  0  0  0  0  0  0
  -25.0597   -8.7359   21.1324 C   0  0  0  0  0  0  0  0  0  0  0  0
  -25.4936  -32.1832   22.6224 C   0  0  0  0  0  0  0  0  0  0  0  0
  -23.7913  -31.4772   24.3551 C   0  0  0  0  0  0  0  0  0  0  0  0
  -24.1678  -30.0417   22.3875 C   0  0  0  0  0  0  0  0  0  0  0  0
  -24.0221   -9.8428   20.9094 C   0  0  1  0  0  0  0  0  0  0  0  0
  -25.5142  -12.4357   18.5677 C   0  0  1  0  0  0  0  0  0  0  0  0
  -24.8520  -31.1934   21.6314 C   0  0  2  0  0  0  0  0  0  0  0  0
  -24.7384  -20.7281   22.3298 C   0  0  0  0  0  0  0  0  0  0  0  0
  -31.4522  -16.9724   16.5276 C   0  0  0  0  0  0  0  0  0  0  0  0
  -29.1687  -13.0288   21.3343 C   0  0  0  0  0  0  0  0  0  0  0  0
  -30.8378  -14.7297   20.5667 C   0  0  0  0  0  0  0  0  0  0  0  0
  -30.6977  -12.5175   19.4225 C   0  0  0  0  0  0  0  0  0  0  0  0
  -27.9585  -16.9890   15.0209 C   0  0  0  0  0  0  0  0  0  0  0  0
  -20.5614  -22.8561   23.5408 C   0  0  0  0  0  0  0  0  0  0  0  0
  -23.2516  -18.4428   21.2374 C   0  0  0  0  0  0  0  0  0  1  0  0
  -19.6448  -27.8081   23.1561 C   0  0  0  0  0  0  0  0  0  0  0  0
  -20.4287  -26.5859   22.6636 C   0  0  0  0  0  0  0  0  0  0  0  0
  -19.9555  -29.0645   22.3476 C   0  0  0  0  0  0  0  0  0  0  0  0
  -20.0806  -25.3037   23.4107 C   0  0  0  0  0  0  0  0  0  0  0  0
  -28.8611  -14.2173   19.0630 C   0  0  1  0  0  0  0  0  0  0  0  0
  -30.0727  -16.4116   16.2192 C   0  0  2  0  0  0  0  0  0  0  0  0
  -29.8635  -13.6290   20.0957 C   0  0  0  0  0  0  0  0  0  0  0  0
  -21.2013  -19.5706   21.8723 N   0  0  0  0  0  0  0  0  0  0  0  0
  -26.5294  -29.5534   20.8701 N   0  0  0  0  0  0  0  0  0  0  0  0
  -22.6277  -21.7488   22.9144 N   0  0  0  0  0  0  0  0  0  0  0  0
  -25.8582  -30.6891   20.6135 N   0  0  0  0  0  0  0  0  0  0  0  0
  -26.5121  -13.4756   18.8270 N   0  0  0  0  0  0  0  0  0  0  0  0
  -23.2026  -30.5775   23.3601 N   0  0  0  0  0  0  0  0  0  0  0  0
  -25.6027  -32.4099   19.0060 N   0  0  0  0  0  0  0  0  0  0  0  0
  -28.7268  -29.7188   17.1638 N   0  0  0  0  0  0  0  0  0  0  0  0
  -24.3941  -10.6634   19.7769 N   0  0  0  0  0  0  0  0  0  0  0  0
  -29.4897  -14.7683   17.8672 N   0  0  0  0  0  0  0  0  0  0  0  0
  -21.3491  -29.4413   22.4288 N   0  0  0  0  0  0  0  0  0  0  0  0
  -29.3250  -17.4189   15.4147 N   0  3  0  0  0  0  0  0  0  0  0  0
  -20.8354  -24.1507   22.8556 N   0  3  0  0  0  0  0  0  0  0  0  0
  -27.5221  -31.6476   16.8679 O   0  0  0  0  0  0  0  0  0  0  0  0
  -25.8410  -12.1138   20.8839 O   0  0  0  0  0  0  0  0  0  0  0  0
  -28.2668  -12.1808   18.0019 O   0  0  0  0  0  0  0  0  0  0  0  0
  -28.6334  -16.9113   18.0944 O   0  0  0  0  0  0  0  0  0  0  0  0
  -21.0790  -30.7815   24.2694 O   0  0  0  0  0  0  0  0  0  0  0  0
  -30.7637  -25.0345   19.3872 O   0  0  0  0  0  0  0  0  0  0  0  0
  -22.3083  -17.6703   20.4960 O   0  0  0  0  0  0  0  0  0  1  0  0
  -28.7774  -20.0675   20.7242 F   0  0  0  0  0  0  0  0  0  0  0  0
  -30.7131  -22.9820   17.5360 F   0  0  0  0  0  0  0  0  0  0  0  0
  1  2  1  0  0  0  0
  1  5  2  0  0  0  0
  2  6  2  0  0  0  0
  3  8  2  0  0  0  0
  3 16  1  0  0  0  0
  4  9  1  0  0  0  0
  4 16  2  0  0  0  0
  5 18  1  0  0  0  0
  6 20  1  0  0  0  0
  7 10  2  0  0  0  0
  7 19  1  0  0  0  0
  8 22  1  0  0  0  0
  9 22  2  0  0  0  0
 10 23  1  0  0  0  0
 11 12  2  0  0  0  0
 11 24  1  0  0  0  0
 12 25  1  0  0  0  0
 13 21  1  0  0  0  0
 13 23  2  0  0  0  0
 14 25  2  0  0  0  0
 14 26  1  0  0  0  0
 15 28  1  0  0  0  0
 15 64  2  0  0  0  0
 16 27  1  0  0  0  0
 17 27  1  0  0  0  0
 17 31  2  0  0  0  0
 17 32  1  0  0  0  0
 18 20  2  0  0  0  0
 18 37  1  0  0  0  0
 19 21  2  0  0  0  0
 19 38  1  0  0  0  0
 20 46  1  0  0  0  0
 21 39  1  0  0  0  0
 22 82  1  0  0  0  0
 23 83  1  0  0  0  0
 24 26  2  0  0  0  0
 24 82  1  0  0  0  0
 25 84  1  0  0  0  0
 26 85  1  0  0  0  0
 27 65  2  0  0  0  0
 28 55  1  0  0  0  0
 28 66  2  0  0  0  0
 29 30  2  0  0  0  0
 29 49  1  0  0  0  0
 29 66  1  0  0  0  0
 30 56  1  0  0  0  0
 30 64  1  0  0  0  0
 31 67  1  0  0  0  0
 31 70  1  0  0  0  0
 32 71  1  0  0  0  0
 32 77  2  0  0  0  0
 33 47  1  0  0  0  0
 33 72  1  0  0  0  0
 33 78  2  0  0  0  0
 34 61  1  0  0  0  0
 34 68  1  0  0  0  0
 34 79  2  0  0  0  0
 35 62  1  0  0  0  0
 35 73  1  0  0  0  0
 35 80  2  0  0  0  0
 36 69  1  0  0  0  0
 36 74  1  0  0  0  0
 36 81  2  0  0  0  0
 37 40  1  0  0  0  0
 38 47  1  0  0  0  0
 39 68  1  0  0  0  0
 40 42  1  0  0  0  0
 41 43  1  0  0  0  0
 41 44  1  0  0  0  0
 42 46  1  0  0  0  0
 43 48  1  0  0  0  0
 44 69  1  0  0  0  0
 45 48  1  0  0  0  0
 45 69  1  0  0  0  0
 46 72  1  0  0  0  0
 47 68  1  0  0  0  0
 48 67  1  0  0  0  0
 50 62  1  0  0  0  0
 51 63  1  0  0  0  0
 52 63  1  0  0  0  0
 53 63  1  0  0  0  0
 54 75  1  0  0  0  0
 55 76  1  0  0  0  0
 56 83  1  0  0  0  0
 57 58  1  0  0  0  0
 57 59  1  0  0  0  0
 58 60  1  0  0  0  0
 59 74  1  0  0  0  0
 60 76  1  0  0  0  0
 61 63  1  0  0  0  0
 61 73  1  0  0  0  0
 62 75  1  0  0  0  0
 65 67  1  0  0  0  0
M  CHG  2  75   1  76   1
M  ISO  4  36 100  56 101  74 100  83 101
M  END
> <Batch ID>
0047

> <Smiles>
CNC(C)C(=O)NC(C(=O)N1Cc2cc([101O:1][101CH2:1]c3ncc(CNCCCC[100NH:0][100C:0](=O)N4CCCC(n5nc(-c6ccc(Oc7ccc(F)cc7F)cc6)c(C(N)=O)c5N)C4)nc3C)ccc2CC1C(=O)NC1CCCc2ccccc21)C(C)(C)C

> <Shape>
0.275

> <Color>
0.054

> <Negative vol penalty>
0.000

$$$$

  -OEChem-04052317243D

 84 92  0     1  0  0  0  0  0999 V2000
  -22.8948   -6.4498   23.6529 C   0  0  0  0  0  0  0  0  0  0  0  0
  -24.2323   -6.8307   23.6913 C   0  0  0  0  0  0  0  0  0  0  0  0
  -25.3100  -31.4519   22.6163 C   0  0  0  0  0  0  0  0  0  0  0  0
  -26.0549  -31.8543   20.3536 C   0  0  0  0  0  0  0  0  0  0  0  0
  -22.0128   -7.0925   22.7852 C   0  0  0  0  0  0  0  0  0  0  0  0
  -24.6888   -7.8539   22.8611 C   0  0  0  0  0  0  0  0  0  0  0  0
  -29.4675  -13.1877   22.6852 C   0  0  0  0  0  0  0  0  0  0  0  0
  -25.7562  -32.7199   22.9888 C   0  0  0  0  0  0  0  0  0  0  0  0
  -26.5012  -33.1223   20.7260 C   0  0  0  0  0  0  0  0  0  0  0  0
  -30.4945  -13.6877   21.8858 C   0  0  0  0  0  0  0  0  0  0  0  0
  -24.6826  -35.9153   22.7252 C   0  0  0  0  0  0  0  0  0  0  0  0
  -23.8375  -36.6935   23.5162 C   0  0  0  0  0  0  0  0  0  0  0  0
  -28.8633  -14.7803   20.4842 C   0  0  0  0  0  0  0  0  0  0  0  0
  -25.5249  -36.7704   25.2436 C   0  0  0  0  0  0  0  0  0  0  0  0
  -25.4594  -31.0191   21.2987 C   0  0  0  0  0  0  0  0  0  0  0  0
  -23.7221  -29.3645   20.4316 C   0  0  0  0  0  0  0  0  0  0  0  0
  -22.4566   -8.1306   21.9509 C   0  0  0  0  0  0  0  0  0  0  0  0
  -28.1279  -13.4717   22.3832 C   0  0  0  0  0  0  0  0  0  0  0  0
  -23.8121   -8.5102   21.9805 C   0  0  0  0  0  0  0  0  0  0  0  0
  -27.8213  -14.2848   21.2828 C   0  0  0  0  0  0  0  0  0  0  0  0
  -26.3518  -33.5551   22.0436 C   0  0  0  0  0  0  0  0  0  0  0  0
  -30.1923  -14.4818   20.7834 C   0  0  0  0  0  0  0  0  0  0  0  0
  -25.9489  -35.5646   23.1934 C   0  0  0  0  0  0  0  0  0  0  0  0
  -24.2586  -37.1211   24.7753 C   0  0  0  0  0  0  0  0  0  0  0  0
  -26.3701  -35.9921   24.4526 C   0  0  0  0  0  0  0  0  0  0  0  0
  -24.9991  -29.7092   20.9135 C   0  0  0  0  0  0  0  0  0  0  0  0
  -30.9290  -19.1619   20.3553 C   0  0  0  0  0  0  0  0  0  0  0  0
  -31.6413  -19.8590   19.4020 C   0  0  0  0  0  0  0  0  0  0  0  0
  -23.7917  -28.0104   20.2128 C   0  0  0  0  0  0  0  0  0  0  0  0
  -32.4217  -17.6293   19.8729 C   0  0  0  0  0  0  0  0  0  0  0  0
  -22.5755  -30.1943   20.2022 C   0  0  0  0  0  0  0  0  0  0  0  0
  -25.5863  -11.7293   21.6034 C   0  0  0  0  0  0  0  0  0  0  0  0
  -28.4313  -24.4868   19.0580 C   0  0  0  0  0  0  0  0  0  0  0  0
  -24.0484  -14.5757   21.8387 C   0  0  0  0  0  0  0  0  0  0  0  0
  -24.2269  -17.9823   21.7375 C   0  0  0  0  0  0  0  0  0  0  0  0
  -21.4762   -8.7636   20.9956 C   0  0  0  0  0  0  0  0  0  0  0  0
  -27.0331  -12.9467   23.2710 C   0  0  0  0  0  0  0  0  0  0  0  0
  -26.4003  -14.6357   20.9276 C   0  0  0  0  0  0  0  0  0  0  0  0
  -21.9592  -10.0917   20.4183 C   0  0  0  0  0  0  0  0  0  0  0  0
  -26.0173  -24.0710   21.7463 C   0  0  0  0  0  0  0  0  0  0  0  0
  -23.4051   -9.9743   19.9467 C   0  0  0  0  0  0  0  0  0  0  0  0
  -25.3851  -25.4608   21.8070 C   0  0  0  0  0  0  0  0  0  0  0  0
  -27.5020  -24.1444   21.3991 C   0  0  0  0  0  0  0  0  0  0  0  0
  -27.1578  -26.2783   20.1939 C   0  0  0  0  0  0  0  0  0  0  0  0
  -24.3399   -9.6324   21.1132 C   0  0  1  0  0  0  0  0  0  0  0  0
  -25.6793  -12.8748   22.5713 C   0  0  1  0  0  0  0  0  0  0  0  0
  -25.6534  -26.2463   20.5114 C   0  0  2  0  0  0  0  0  0  0  0  0
  -28.4318  -19.0814   20.5660 C   0  0  0  0  0  0  0  0  0  0  0  0
  -22.7979  -20.0363   21.9279 C   0  0  0  0  0  0  0  0  0  0  0  0
  -22.9723  -14.0848   19.0261 C   0  0  0  0  0  0  0  0  0  0  0  0
  -22.3704  -16.5122   18.9080 C   0  0  0  0  0  0  0  0  0  0  0  0
  -21.3089  -15.0479   20.6261 C   0  0  0  0  0  0  0  0  0  0  0  0
  -25.7366  -18.9558   24.0895 C   0  0  0  0  0  0  0  0  0  0  0  0
  -30.6105  -20.7989   16.5672 C   0  0  0  0  0  0  0  0  0  0  0  0
  -29.7494  -19.6577   21.0938 C   0  0  0  0  0  0  0  0  0  0  0  0
  -31.4424  -21.2243   18.8754 C   0  0  0  0  0  0  0  0  0  0  0  0
  -33.1867  -16.3281   19.8837 C   0  0  0  0  0  0  0  0  0  0  0  0
  -29.0182  -23.0997   19.1312 C   0  0  0  0  0  0  0  0  0  0  0  0
  -29.7646  -22.7554   17.8549 C   0  0  0  0  0  0  0  0  0  0  0  0
  -32.4460  -15.2263   20.6338 C   0  0  0  0  0  0  0  0  0  1  0  0
  -23.7366  -15.7044   20.8859 C   0  0  1  0  0  0  0  0  0  0  0  0
  -23.6823  -19.0477   22.6717 C   0  0  2  0  0  0  0  0  0  0  0  0
  -22.6238  -15.3293   19.8668 C   0  0  0  0  0  0  0  0  0  0  0  0
  -25.8198  -28.6587   20.9964 N   0  0  0  0  0  0  0  0  0  0  0  0
  -31.3748  -17.8830   20.6264 N   0  0  0  0  0  0  0  0  0  0  0  0
  -25.0567  -27.6406   20.5637 N   0  0  0  0  0  0  0  0  0  0  0  0
  -25.3647  -14.0932   21.8224 N   0  0  0  0  0  0  0  0  0  0  0  0
  -27.7177  -24.9238   20.1742 N   0  0  0  0  0  0  0  0  0  0  0  0
  -22.8935  -27.1117   19.7565 N   0  0  0  0  0  0  0  0  0  0  0  0
  -22.6760  -31.5644   20.4797 N   0  0  0  0  0  0  0  0  0  0  0  0
  -24.6021  -10.8100   21.9126 N   0  0  0  0  0  0  0  0  0  0  0  0
  -23.4219  -16.8631   21.7147 N   0  0  0  0  0  0  0  0  0  0  0  0
  -24.8007  -19.8019   23.3052 N   0  3  0  0  0  0  0  0  0  0  0  0
  -30.2899  -21.3473   17.9313 N   0  3  1  0  0  0  0  0  0  0  0  0
  -21.4889  -29.7316   19.7796 O   0  0  0  0  0  0  0  0  0  0  0  0
  -26.3498  -11.6838   20.6460 O   0  0  0  0  0  0  0  0  0  0  0  0
  -28.6007  -25.1590   18.0374 O   0  0  0  0  0  0  0  0  0  0  0  0
  -23.1587  -14.1431   22.5756 O   0  0  0  0  0  0  0  0  0  0  0  0
  -25.2609  -18.1297   21.0897 O   0  0  0  0  0  0  0  0  0  0  0  0
  -26.7871  -34.7925   22.4066 O   0  0  0  0  0  0  0  0  0  0  0  0
  -31.1928  -14.9707   20.0011 O   0  0  0  0  0  0  0  0  0  1  0  0
  -23.4475  -37.8697   25.5342 F   0  0  0  0  0  0  0  0  0  0  0  0
  -27.5859  -35.6593   24.9073 F   0  0  0  0  0  0  0  0  0  0  0  0
  -32.9247  -18.8841   18.8158 S   0  0  0  0  0  0  0  0  0  0  0  0
  1  2  1  0  0  0  0
  1  5  2  0  0  0  0
  2  6  2  0  0  0  0
  3  8  2  0  0  0  0
  3 15  1  0  0  0  0
  4  9  1  0  0  0  0
  4 15  2  0  0  0  0
  5 17  1  0  0  0  0
  6 19  1  0  0  0  0
  7 10  2  0  0  0  0
  7 18  1  0  0  0  0
  8 21  1  0  0  0  0
  9 21  2  0  0  0  0
 10 22  1  0  0  0  0
 11 12  2  0  0  0  0
 11 23  1  0  0  0  0
 12 24  1  0  0  0  0
 13 20  1  0  0  0  0
 13 22  2  0  0  0  0
 14 24  2  0  0  0  0
 14 25  1  0  0  0  0
 15 26  1  0  0  0  0
 16 26  1  0  0  0  0
 16 29  2  0  0  0  0
 16 31  1  0  0  0  0
 17 19  2  0  0  0  0
 17 36  1  0  0  0  0
 18 20  2  0  0  0  0
 18 37  1  0  0  0  0
 19 45  1  0  0  0  0
 20 38  1  0  0  0  0
 21 80  1  0  0  0  0
 22 81  1  0  0  0  0
 23 25  2  0  0  0  0
 23 80  1  0  0  0  0
 24 82  1  0  0  0  0
 25 83  1  0  0  0  0
 26 64  2  0  0  0  0
 27 28  2  0  0  0  0
 27 55  1  0  0  0  0
 27 65  1  0  0  0  0
 28 56  1  0  0  0  0
 28 84  1  0  0  0  0
 29 66  1  0  0  0  0
 29 69  1  0  0  0  0
 30 57  1  0  0  0  0
 30 65  2  0  0  0  0
 30 84  1  0  0  0  0
 31 70  1  0  0  0  0
 31 75  2  0  0  0  0
 32 46  1  0  0  0  0
 32 71  1  0  0  0  0
 32 76  2  0  0  0  0
 33 58  1  0  0  0  0
 33 68  1  0  0  0  0
 33 77  2  0  0  0  0
 34 61  1  0  0  0  0
 34 67  1  0  0  0  0
 34 78  2  0  0  0  0
 35 62  1  0  0  0  0
 35 72  1  0  0  0  0
 35 79  2  0  0  0  0
 36 39  1  0  0  0  0
 37 46  1  0  0  0  0
 38 67  1  0  0  0  0
 39 41  1  0  0  0  0
 40 42  1  0  0  0  0
 40 43  1  0  0  0  0
 41 45  1  0  0  0  0
 42 47  1  0  0  0  0
 43 68  1  0  0  0  0
 44 47  1  0  0  0  0
 44 68  1  0  0  0  0
 45 71  1  0  0  0  0
 46 67  1  0  0  0  0
 47 66  1  0  0  0  0
 48 55  1  0  0  0  0
 49 62  1  0  0  0  0
 50 63  1  0  0  0  0
 51 63  1  0  0  0  0
 52 63  1  0  0  0  0
 53 73  1  0  0  0  0
 54 74  1  0  0  0  0
 56 74  1  0  0  0  0
 57 60  1  0  0  0  0
 58 59  1  0  0  0  0
 59 74  1  0  0  0  0
 60 81  1  0  0  0  0
 61 63  1  0  0  0  0
 61 72  1  0  0  0  0
 62 73  1  0  0  0  0
 64 66  1  0  0  0  0
M  CHG  2  73   1  74   1
M  ISO  4  33 100  58 100  60 101  81 101
M  END
> <Batch ID>
0047

> <Smiles>
CCc1nc(C[101CH2:1][101O:1]c2ccc3c(c2)CN(C(=O)C(NC(=O)C(C)NC)C(C)(C)C)C(C(=O)NC2CCCc4ccccc42)C3)sc1CN(C)C[100CH2:0][100C:0](=O)N1CCCC(n2nc(-c3ccc(Oc4ccc(F)cc4F)cc3)c(C(N)=O)c2N)C1

> <Shape>
0.274

> <Color>
0.071

> <Negative vol penalty>
0.000

$$$$

  -OEChem-04052317243D

 82 90  0     1  0  0  0  0  0999 V2000
  -25.1867  -10.4088   21.0612 C   0  0  0  0  0  0  0  0  0  0  0  0
  -24.5958  -11.3739   21.8705 C   0  0  0  0  0  0  0  0  0  0  0  0
  -22.4139  -29.5752   19.7813 C   0  0  0  0  0  0  0  0  0  0  0  0
  -22.3507  -28.1658   21.7427 C   0  0  0  0  0  0  0  0  0  0  0  0
  -26.2147  -10.7658   20.1896 C   0  0  0  0  0  0  0  0  0  0  0  0
  -25.0333  -12.6965   21.8093 C   0  0  0  0  0  0  0  0  0  0  0  0
  -22.6172  -19.4110   22.4378 C   0  0  0  0  0  0  0  0  0  0  0  0
  -21.0283  -29.7226   19.8426 C   0  0  0  0  0  0  0  0  0  0  0  0
  -20.9650  -28.3133   21.8040 C   0  0  0  0  0  0  0  0  0  0  0  0
  -22.8916  -20.5949   23.1211 C   0  0  0  0  0  0  0  0  0  0  0  0
  -18.7538  -30.6418   22.8569 C   0  0  0  0  0  0  0  0  0  0  0  0
  -18.1861  -30.9050   24.1035 C   0  0  0  0  0  0  0  0  0  0  0  0
  -24.6210  -21.1107   21.5204 C   0  0  0  0  0  0  0  0  0  0  0  0
  -16.8842  -28.8764   23.9391 C   0  0  0  0  0  0  0  0  0  0  0  0
  -27.1773  -22.2213   25.8695 C   0  0  0  0  0  0  0  0  0  0  0  0
  -23.0752  -28.7967   20.7313 C   0  0  0  0  0  0  0  0  0  0  0  0
  -25.4765  -29.4570   21.2842 C   0  0  0  0  0  0  0  0  0  0  0  0
  -26.6585  -12.0953   20.1107 C   0  0  0  0  0  0  0  0  0  0  0  0
  -23.3512  -19.0622   21.2950 C   0  0  0  0  0  0  0  0  0  0  0  0
  -26.0691  -13.0714   20.9367 C   0  0  0  0  0  0  0  0  0  0  0  0
  -24.3523  -19.9231   20.8230 C   0  0  0  0  0  0  0  0  0  0  0  0
  -20.3038  -29.0917   20.8539 C   0  0  0  0  0  0  0  0  0  0  0  0
  -23.8956  -21.4435   22.6641 C   0  0  0  0  0  0  0  0  0  0  0  0
  -18.3866  -29.4959   22.1513 C   0  0  0  0  0  0  0  0  0  0  0  0
  -17.2513  -30.0224   24.6446 C   0  0  0  0  0  0  0  0  0  0  0  0
  -17.4519  -28.6132   22.6924 C   0  0  0  0  0  0  0  0  0  0  0  0
  -24.5065  -28.6436   20.6682 C   0  0  0  0  0  0  0  0  0  0  0  0
  -26.3653  -23.0760   25.1789 C   0  0  0  0  0  0  0  0  0  0  0  0
  -26.6762  -28.8958   20.9207 C   0  0  0  0  0  0  0  0  0  0  0  0
  -28.3136  -22.9887   24.1316 C   0  0  0  0  0  0  0  0  0  0  0  0
  -25.3080  -30.6161   22.1111 C   0  0  0  0  0  0  0  0  0  0  0  0
  -25.2731  -16.6545   20.5119 C   0  0  0  0  0  0  0  0  0  0  0  0
  -25.2074  -18.0647   17.5914 C   0  0  0  0  0  0  0  0  0  0  0  0
  -24.7262  -20.8994   15.7530 C   0  0  0  0  0  0  0  0  0  0  0  0
  -28.2558  -23.3604   19.2730 C   0  0  0  0  0  0  0  0  0  0  0  0
  -27.8048  -12.4244   19.1876 C   0  0  0  0  0  0  0  0  0  0  0  0
  -23.0249  -17.7946   20.5539 C   0  0  0  0  0  0  0  0  0  0  0  0
  -25.1554  -19.6044   19.5894 C   0  0  0  0  0  0  0  0  0  0  0  0
  -27.9555  -13.9182   18.9121 C   0  0  0  0  0  0  0  0  0  0  0  0
  -28.7140  -26.3608   17.4118 C   0  0  0  0  0  0  0  0  0  0  0  0
  -27.8654  -14.7124   20.2113 C   0  0  0  0  0  0  0  0  0  0  0  0
  -27.7751  -27.3595   18.0909 C   0  0  0  0  0  0  0  0  0  0  0  0
  -28.1174  -24.9554   17.3827 C   0  0  0  0  0  0  0  0  0  0  0  0
  -26.7477  -25.4368   19.3741 C   0  0  0  0  0  0  0  0  0  0  0  0
  -26.4993  -14.5212   20.8812 C   0  0  1  0  0  0  0  0  0  0  0  0
  -24.1814  -17.2887   19.6972 C   0  0  1  0  0  0  0  0  0  0  0  0
  -27.3299  -26.8569   19.4774 C   0  0  2  0  0  0  0  0  0  0  0  0
  -24.7791  -21.7490   13.3923 C   0  0  0  0  0  0  0  0  0  0  0  0
  -28.2578  -18.0733   17.6653 C   0  0  0  0  0  0  0  0  0  0  0  0
  -28.2289  -19.7406   15.7979 C   0  0  0  0  0  0  0  0  0  0  0  0
  -27.2697  -17.4643   15.4501 C   0  0  0  0  0  0  0  0  0  0  0  0
  -29.5278  -21.3981   25.5916 C   0  0  0  0  0  0  0  0  0  0  0  0
  -21.8641  -21.6479   15.8354 C   0  0  0  0  0  0  0  0  0  0  0  0
  -24.9426  -23.5167   25.4241 C   0  0  0  0  0  0  0  0  0  0  0  0
  -29.3894  -23.2401   23.1405 C   0  0  0  0  0  0  0  0  0  0  0  0
  -29.5562  -22.1346   22.0749 C   0  0  0  0  0  0  0  0  0  0  0  0
  -28.2984  -21.8635   21.2521 C   0  0  0  0  0  0  0  0  0  0  0  0
  -23.9279  -22.6097   24.7365 C   0  0  0  0  0  0  0  0  0  1  0  0
  -26.0282  -19.1246   16.8972 C   0  0  1  0  0  0  0  0  0  0  0  0
  -23.9152  -21.1595   14.4964 C   0  0  2  0  0  0  0  0  0  0  0  0
  -27.4325  -18.6061   16.4770 C   0  0  0  0  0  0  0  0  0  0  0  0
  -25.0436  -27.6420   19.9665 N   0  0  0  0  0  0  0  0  0  0  0  0
  -28.3761  -22.1859   25.1989 N   0  0  0  0  0  0  0  0  0  0  0  0
  -26.3641  -27.8225   20.1392 N   0  0  0  0  0  0  0  0  0  0  0  0
  -27.0942  -23.5362   24.1088 N   0  3  0  0  0  0  0  0  0  0  0  0
  -24.8031  -18.3504   18.9031 N   0  0  0  0  0  0  0  0  0  0  0  0
  -27.7173  -24.5380   18.7286 N   0  0  0  0  0  0  0  0  0  0  0  0
  -27.9571  -29.2208   21.1964 N   0  0  0  0  0  0  0  0  0  0  0  0
  -24.0064  -31.0576   22.3855 N   0  0  0  0  0  0  0  0  0  0  0  0
  -25.4940  -15.3228   20.2168 N   0  0  0  0  0  0  0  0  0  0  0  0
  -25.2141  -19.6102   15.7883 N   0  0  0  0  0  0  0  0  0  0  0  0
  -27.8287  -23.0406   20.5560 N   0  0  0  0  0  0  0  0  0  0  0  0
  -22.8055  -22.1117   14.7839 N   0  3  0  0  0  0  0  0  0  0  0  0
  -26.2832  -31.2514   22.5789 O   0  0  0  0  0  0  0  0  0  0  0  0
  -25.8718  -17.3243   21.3454 O   0  0  0  0  0  0  0  0  0  0  0  0
  -24.9291  -17.0247   16.9893 O   0  0  0  0  0  0  0  0  0  0  0  0
  -24.9117  -21.7555   16.6151 O   0  0  0  0  0  0  0  0  0  0  0  0
  -29.0619  -22.6496   18.6631 O   0  0  0  0  0  0  0  0  0  0  0  0
  -18.9517  -29.2355   20.9141 O   0  0  0  0  0  0  0  0  0  0  0  0
  -24.1659  -22.5994   23.3295 O   0  0  0  0  0  0  0  0  0  1  0  0
  -16.7074  -30.2745   25.8424 F   0  0  0  0  0  0  0  0  0  0  0  0
  -17.0961  -27.5101   22.0198 F   0  0  0  0  0  0  0  0  0  0  0  0
  1  2  1  0  0  0  0
  1  5  2  0  0  0  0
  2  6  2  0  0  0  0
  3  8  2  0  0  0  0
  3 16  1  0  0  0  0
  4  9  1  0  0  0  0
  4 16  2  0  0  0  0
  5 18  1  0  0  0  0
  6 20  1  0  0  0  0
  7 10  2  0  0  0  0
  7 19  1  0  0  0  0
  8 22  1  0  0  0  0
  9 22  2  0  0  0  0
 10 23  1  0  0  0  0
 11 12  2  0  0  0  0
 11 24  1  0  0  0  0
 12 25  1  0  0  0  0
 13 21  1  0  0  0  0
 13 23  2  0  0  0  0
 14 25  2  0  0  0  0
 14 26  1  0  0  0  0
 15 28  2  0  0  0  0
 15 63  1  0  0  0  0
 16 27  1  0  0  0  0
 17 27  1  0  0  0  0
 17 29  2  0  0  0  0
 17 31  1  0  0  0  0
 18 20  2  0  0  0  0
 18 36  1  0  0  0  0
 19 21  2  0  0  0  0
 19 37  1  0  0  0  0
 20 45  1  0  0  0  0
 21 38  1  0  0  0  0
 22 79  1  0  0  0  0
 23 80  1  0  0  0  0
 24 26  2  0  0  0  0
 24 79  1  0  0  0  0
 25 81  1  0  0  0  0
 26 82  1  0  0  0  0
 27 62  2  0  0  0  0
 28 54  1  0  0  0  0
 28 65  1  0  0  0  0
 29 64  1  0  0  0  0
 29 68  1  0  0  0  0
 30 55  1  0  0  0  0
 30 63  1  0  0  0  0
 30 65  2  0  0  0  0
 31 69  1  0  0  0  0
 31 74  2  0  0  0  0
 32 46  1  0  0  0  0
 32 70  1  0  0  0  0
 32 75  2  0  0  0  0
 33 59  1  0  0  0  0
 33 66  1  0  0  0  0
 33 76  2  0  0  0  0
 34 60  1  0  0  0  0
 34 71  1  0  0  0  0
 34 77  2  0  0  0  0
 35 67  1  0  0  0  0
 35 72  1  0  0  0  0
 35 78  2  0  0  0  0
 36 39  1  0  0  0  0
 37 46  1  0  0  0  0
 38 66  1  0  0  0  0
 39 41  1  0  0  0  0
 40 42  1  0  0  0  0
 40 43  1  0  0  0  0
 41 45  1  0  0  0  0
 42 47  1  0  0  0  0
 43 67  1  0  0  0  0
 44 47  1  0  0  0  0
 44 67  1  0  0  0  0
 45 70  1  0  0  0  0
 46 66  1  0  0  0  0
 47 64  1  0  0  0  0
 48 60  1  0  0  0  0
 49 61  1  0  0  0  0
 50 61  1  0  0  0  0
 51 61  1  0  0  0  0
 52 63  1  0  0  0  0
 53 73  1  0  0  0  0
 54 58  1  0  0  0  0
 55 56  1  0  0  0  0
 56 57  1  0  0  0  0
 57 72  1  0  0  0  0
 58 80  1  0  0  0  0
 59 61  1  0  0  0  0
 59 71  1  0  0  0  0
 60 73  1  0  0  0  0
 62 64  1  0  0  0  0
M  CHG  2  65   1  73   1
M  ISO  4  35 100  58 101  72 100  80 101
M  END
> <Batch ID>
0047

> <Smiles>
CNC(C)C(=O)NC(C(=O)N1Cc2cc([101O:1][101CH2:1]Cc3cn(C)c(CCC[100NH:0][100C:0](=O)N4CCCC(n5nc(-c6ccc(Oc7ccc(F)cc7F)cc6)c(C(N)=O)c5N)C4)n3)ccc2CC1C(=O)NC1CCCc2ccccc21)C(C)(C)C

> <Shape>
0.200

> <Color>
0.070

> <Negative vol penalty>
0.000

$$$$

  -OEChem-04052317243D

 80 88  0     1  0  0  0  0  0999 V2000
  -17.7343  -23.8478   25.5906 C   0  0  0  0  0  0  0  0  0  0  0  0
  -19.0408  -23.7130   25.1321 C   0  0  0  0  0  0  0  0  0  0  0  0
  -23.0487   -9.8706   19.9276 C   0  0  0  0  0  0  0  0  0  0  0  0
  -23.8319   -9.8359   22.2128 C   0  0  0  0  0  0  0  0  0  0  0  0
  -16.8164  -22.8177   25.3898 C   0  0  0  0  0  0  0  0  0  0  0  0
  -19.4306  -22.5473   24.4735 C   0  0  0  0  0  0  0  0  0  0  0  0
  -23.4465  -22.0856   19.8730 C   0  0  0  0  0  0  0  0  0  0  0  0
  -22.3062   -8.7138   20.1644 C   0  0  0  0  0  0  0  0  0  0  0  0
  -23.0893   -8.6791   22.4497 C   0  0  0  0  0  0  0  0  0  0  0  0
  -24.7955  -21.7351   19.8371 C   0  0  0  0  0  0  0  0  0  0  0  0
  -21.1152   -5.9203   23.7574 C   0  0  0  0  0  0  0  0  0  0  0  0
  -20.3708   -5.8565   24.9353 C   0  0  0  0  0  0  0  0  0  0  0  0
  -29.0473  -19.0109   18.2095 C   0  0  0  0  0  0  0  0  0  0  0  0
  -24.1851  -19.4661   19.2909 C   0  0  0  0  0  0  0  0  0  0  0  0
  -19.1210   -7.8077   24.2512 C   0  0  0  0  0  0  0  0  0  0  0  0
  -30.4055  -18.7962   18.3258 C   0  0  0  0  0  0  0  0  0  0  0  0
  -23.8116  -10.4316   20.9517 C   0  0  0  0  0  0  0  0  0  0  0  0
  -24.1549  -12.9582   20.8734 C   0  0  0  0  0  0  0  0  0  0  0  0
  -17.1925  -21.6428   24.7199 C   0  0  0  0  0  0  0  0  0  0  0  0
  -22.4547  -21.1249   19.6284 C   0  0  0  0  0  0  0  0  0  0  0  0
  -18.5172  -21.5000   24.2647 C   0  0  0  0  0  0  0  0  0  0  0  0
  -22.8244  -19.8075   19.3218 C   0  0  0  0  0  0  0  0  0  0  0  0
  -22.3265   -8.1181   21.4255 C   0  0  0  0  0  0  0  0  0  0  0  0
  -25.1649  -20.4245   19.5488 C   0  0  0  0  0  0  0  0  0  0  0  0
  -20.8625   -6.9279   22.8264 C   0  0  0  0  0  0  0  0  0  0  0  0
  -19.3737   -6.8001   25.1822 C   0  0  0  0  0  0  0  0  0  0  0  0
  -19.8654   -7.8715   23.0733 C   0  0  0  0  0  0  0  0  0  0  0  0
  -24.5793  -11.6262   20.7075 C   0  0  0  0  0  0  0  0  0  0  0  0
  -28.2762  -18.5332   19.2494 C   0  0  0  0  0  0  0  0  0  0  0  0
  -25.2441  -13.7131   20.5124 C   0  0  0  0  0  0  0  0  0  0  0  0
  -30.1197  -17.7464   20.3216 C   0  0  0  0  0  0  0  0  0  0  0  0
  -22.8893  -13.4676   21.3144 C   0  0  0  0  0  0  0  0  0  0  0  0
  -20.0607  -19.8923   21.3175 C   0  0  0  0  0  0  0  0  0  0  0  0
  -30.7524  -14.6555   20.7586 C   0  0  0  0  0  0  0  0  0  0  0  0
  -19.3504  -18.4279   18.5115 C   0  0  0  0  0  0  0  0  0  0  0  0
  -20.4332  -17.2915   15.4812 C   0  0  0  0  0  0  0  0  0  0  0  0
  -16.1780  -20.5372   24.5681 C   0  0  0  0  0  0  0  0  0  0  0  0
  -21.0049  -21.5250   19.6446 C   0  0  0  0  0  0  0  0  0  0  0  0
  -21.7990  -18.7432   19.0318 C   0  0  0  0  0  0  0  0  0  0  0  0
  -16.5703  -19.4888   23.5303 C   0  0  0  0  0  0  0  0  0  0  0  0
  -29.5598  -12.4049   18.2382 C   0  0  0  0  0  0  0  0  0  0  0  0
  -18.0251  -19.0700   23.7180 C   0  0  0  0  0  0  0  0  0  0  0  0
  -28.1336  -12.0876   18.6860 C   0  0  0  0  0  0  0  0  0  0  0  0
  -30.4926  -12.5852   19.4316 C   0  0  0  0  0  0  0  0  0  0  0  0
  -28.6044  -13.2965   20.8636 C   0  0  0  0  0  0  0  0  0  0  0  0
  -18.9714  -20.2610   23.5239 C   0  0  1  0  0  0  0  0  0  0  0  0
  -20.0632  -20.3493   19.8862 C   0  0  1  0  0  0  0  0  0  0  0  0
  -27.6228  -13.1370   19.6891 C   0  0  2  0  0  0  0  0  0  0  0  0
  -30.4042  -15.1426   23.1453 C   0  0  0  0  0  0  0  0  0  0  0  0
  -19.6306  -16.1045   13.4211 C   0  0  0  0  0  0  0  0  0  0  0  0
  -19.3690  -15.7823   20.0315 C   0  0  0  0  0  0  0  0  0  0  0  0
  -19.5144  -14.5986   17.8302 C   0  0  0  0  0  0  0  0  0  0  0  0
  -17.5261  -16.0101   18.3564 C   0  0  0  0  0  0  0  0  0  0  0  0
  -21.1027  -19.5974   13.7510 C   0  0  0  0  0  0  0  0  0  0  0  0
  -26.7878  -18.7190   19.2120 C   0  0  0  0  0  0  0  0  0  1  0  0
  -30.7149  -17.0433   21.4940 C   0  0  0  0  0  0  0  0  0  0  0  0
  -30.1350  -15.6331   21.7267 C   0  0  1  0  0  0  0  0  0  0  0  0
  -19.7399  -17.1244   17.8573 C   0  0  1  0  0  0  0  0  0  0  0  0
  -19.8648  -17.4535   14.0829 C   0  0  2  0  0  0  0  0  0  0  0  0
  -19.0569  -15.8982   18.5262 C   0  0  0  0  0  0  0  0  0  0  0  0
  -30.9778  -18.1652   19.3720 N   0  0  0  0  0  0  0  0  0  0  0  0
  -25.8397  -11.5367   20.2747 N   0  0  0  0  0  0  0  0  0  0  0  0
  -28.7811  -17.8937   20.3248 N   0  0  0  0  0  0  0  0  0  0  0  0
  -26.2167  -12.8221   20.1655 N   0  0  0  0  0  0  0  0  0  0  0  0
  -20.3941  -19.1824   19.0659 N   0  0  0  0  0  0  0  0  0  0  0  0
  -29.9613  -13.5735   20.3720 N   0  0  0  0  0  0  0  0  0  0  0  0
  -25.4552  -15.0454   20.4611 N   0  0  0  0  0  0  0  0  0  0  0  0
  -21.8799  -12.5534   21.6456 N   0  0  0  0  0  0  0  0  0  0  0  0
  -19.1419  -20.5468   22.1155 N   0  0  0  0  0  0  0  0  0  0  0  0
  -19.4400  -17.2746   16.4375 N   0  0  0  0  0  0  0  0  0  0  0  0
  -20.8018  -18.2388   13.2307 N   0  3  0  0  0  0  0  0  0  0  0  0
  -22.6550  -14.6972   21.3961 O   0  0  0  0  0  0  0  0  0  0  0  0
  -20.8341  -19.0100   21.6714 O   0  0  0  0  0  0  0  0  0  0  0  0
  -31.9024  -14.8510   20.3568 O   0  0  0  0  0  0  0  0  0  0  0  0
  -18.1647  -18.7678   18.5238 O   0  0  0  0  0  0  0  0  0  0  0  0
  -21.6376  -17.1865   15.7026 O   0  0  0  0  0  0  0  0  0  0  0  0
  -21.6018   -6.9894   21.6571 O   0  0  0  0  0  0  0  0  0  0  0  0
  -26.4808  -20.0796   19.5138 O   0  0  0  0  0  0  0  0  0  1  0  0
  -18.6579   -6.7378   26.3127 F   0  0  0  0  0  0  0  0  0  0  0  0
  -19.6172   -8.8410   22.1821 F   0  0  0  0  0  0  0  0  0  0  0  0
  1  2  1  0  0  0  0
  1  5  2  0  0  0  0
  2  6  2  0  0  0  0
  3  8  2  0  0  0  0
  3 17  1  0  0  0  0
  4  9  1  0  0  0  0
  4 17  2  0  0  0  0
  5 19  1  0  0  0  0
  6 21  1  0  0  0  0
  7 10  2  0  0  0  0
  7 20  1  0  0  0  0
  8 23  1  0  0  0  0
  9 23  2  0  0  0  0
 10 24  1  0  0  0  0
 11 12  2  0  0  0  0
 11 25  1  0  0  0  0
 12 26  1  0  0  0  0
 13 16  2  0  0  0  0
 13 29  1  0  0  0  0
 14 22  1  0  0  0  0
 14 24  2  0  0  0  0
 15 26  2  0  0  0  0
 15 27  1  0  0  0  0
 16 61  1  0  0  0  0
 17 28  1  0  0  0  0
 18 28  1  0  0  0  0
 18 30  2  0  0  0  0
 18 32  1  0  0  0  0
 19 21  2  0  0  0  0
 19 37  1  0  0  0  0
 20 22  2  0  0  0  0
 20 38  1  0  0  0  0
 21 46  1  0  0  0  0
 22 39  1  0  0  0  0
 23 77  1  0  0  0  0
 24 78  1  0  0  0  0
 25 27  2  0  0  0  0
 25 77  1  0  0  0  0
 26 79  1  0  0  0  0
 27 80  1  0  0  0  0
 28 62  2  0  0  0  0
 29 55  1  0  0  0  0
 29 63  2  0  0  0  0
 30 64  1  0  0  0  0
 30 67  1  0  0  0  0
 31 56  1  0  0  0  0
 31 61  2  0  0  0  0
 31 63  1  0  0  0  0
 32 68  1  0  0  0  0
 32 72  2  0  0  0  0
 33 47  1  0  0  0  0
 33 69  1  0  0  0  0
 33 73  2  0  0  0  0
 34 57  1  0  0  0  0
 34 66  1  0  0  0  0
 34 74  2  0  0  0  0
 35 58  1  0  0  0  0
 35 65  1  0  0  0  0
 35 75  2  0  0  0  0
 36 59  1  0  0  0  0
 36 70  1  0  0  0  0
 36 76  2  0  0  0  0
 37 40  1  0  0  0  0
 38 47  1  0  0  0  0
 39 65  1  0  0  0  0
 40 42  1  0  0  0  0
 41 43  1  0  0  0  0
 41 44  1  0  0  0  0
 42 46  1  0  0  0  0
 43 48  1  0  0  0  0
 44 66  1  0  0  0  0
 45 48  1  0  0  0  0
 45 66  1  0  0  0  0
 46 69  1  0  0  0  0
 47 65  1  0  0  0  0
 48 64  1  0  0  0  0
 49 57  1  0  0  0  0
 50 59  1  0  0  0  0
 51 60  1  0  0  0  0
 52 60  1  0  0  0  0
 53 60  1  0  0  0  0
 54 71  1  0  0  0  0
 55 78  1  0  0  0  0
 56 57  1  0  0  0  0
 58 60  1  0  0  0  0
 58 70  1  0  0  0  0
 59 71  1  0  0  0  0
 62 64  1  0  0  0  0
M  CHG  1  71   1
M  ISO  4  34 100  55 101  57 100  78 101
M  END
> <Batch ID>
0047

> <Smiles>
CNC(C)C(=O)NC(C(=O)N1Cc2cc([101O:1][101CH2:1]c3ccnc(C[100CH:0](C)[100C:0](=O)N4CCCC(n5nc(-c6ccc(Oc7ccc(F)cc7F)cc6)c(C(N)=O)c5N)C4)n3)ccc2CC1C(=O)NC1CCCc2ccccc21)C(C)(C)C

> <Shape>
0.196

> <Color>
0.201

> <Negative vol penalty>
0.000

$$$$

  -OEChem-04052317243D

 81 89  0     1  0  0  0  0  0999 V2000
  -31.4293  -22.8454   21.9860 C   0  0  0  0  0  0  0  0  0  0  0  0
  -30.0614  -22.8624   21.7331 C   0  0  0  0  0  0  0  0  0  0  0  0
  -28.3919  -28.2055   21.1451 C   0  0  0  0  0  0  0  0  0  0  0  0
  -27.2558  -27.2503   19.2388 C   0  0  0  0  0  0  0  0  0  0  0  0
  -32.2203  -21.8212   21.4669 C   0  0  0  0  0  0  0  0  0  0  0  0
  -29.4838  -21.8558   20.9600 C   0  0  0  0  0  0  0  0  0  0  0  0
  -25.1767  -20.0989   22.9617 C   0  0  0  0  0  0  0  0  0  0  0  0
  -29.5138  -27.4245   20.8678 C   0  0  0  0  0  0  0  0  0  0  0  0
  -28.3778  -26.4693   18.9615 C   0  0  0  0  0  0  0  0  0  0  0  0
  -24.0320  -20.8763   22.7918 C   0  0  0  0  0  0  0  0  0  0  0  0
  -31.0750  -24.4889   17.5397 C   0  0  0  0  0  0  0  0  0  0  0  0
  -31.5031  -24.4149   16.2142 C   0  0  0  0  0  0  0  0  0  0  0  0
  -23.3382  -19.4471   20.9765 C   0  0  0  0  0  0  0  0  0  0  0  0
  -31.8335  -26.8081   16.1873 C   0  0  0  0  0  0  0  0  0  0  0  0
  -27.2628  -28.1184   20.3306 C   0  0  0  0  0  0  0  0  0  0  0  0
  -25.8266  -30.2174   20.1335 C   0  0  0  0  0  0  0  0  0  0  0  0
  -31.6506  -20.7963   20.6952 C   0  0  0  0  0  0  0  0  0  0  0  0
  -25.4166  -18.9942   22.1319 C   0  0  0  0  0  0  0  0  0  0  0  0
  -30.2681  -20.8177   20.4291 C   0  0  0  0  0  0  0  0  0  0  0  0
  -24.4854  -18.6557   21.1397 C   0  0  0  0  0  0  0  0  0  0  0  0
  -29.5068  -26.5564   19.7761 C   0  0  0  0  0  0  0  0  0  0  0  0
  -23.1139  -20.5522   21.7972 C   0  0  0  0  0  0  0  0  0  0  0  0
  -31.0260  -25.7226   18.1889 C   0  0  0  0  0  0  0  0  0  0  0  0
  -31.8824  -25.5745   15.5380 C   0  0  0  0  0  0  0  0  0  0  0  0
  -31.4053  -26.8821   17.5127 C   0  0  0  0  0  0  0  0  0  0  0  0
  -26.1034  -28.9245   20.6167 C   0  0  0  0  0  0  0  0  0  0  0  0
  -18.8146  -23.8907   21.1995 C   0  0  0  0  0  0  0  0  0  0  0  0
  -18.6947  -24.2793   22.5129 C   0  0  0  0  0  0  0  0  0  0  0  0
  -24.6145  -30.5408   20.6928 C   0  0  0  0  0  0  0  0  0  0  0  0
  -20.5322  -23.1081   22.1833 C   0  0  0  0  0  0  0  0  0  0  0  0
  -26.5963  -31.0515   19.2574 C   0  0  0  0  0  0  0  0  0  0  0  0
  -27.6850  -18.2030   20.0505 C   0  0  0  0  0  0  0  0  0  0  0  0
  -26.0828  -15.3836   19.9692 C   0  0  0  0  0  0  0  0  0  0  0  0
  -23.1514  -13.7023   20.4452 C   0  0  0  0  0  0  0  0  0  0  0  0
  -20.1354  -27.1908   22.5822 C   0  0  0  0  0  0  0  0  0  0  0  0
  -32.5535  -19.7361   20.1161 C   0  0  0  0  0  0  0  0  0  0  0  0
  -26.6429  -18.1499   22.3455 C   0  0  0  0  0  0  0  0  0  0  0  0
  -24.6864  -17.4679   20.2357 C   0  0  0  0  0  0  0  0  0  0  0  0
  -31.8040  -18.5024   19.6196 C   0  0  0  0  0  0  0  0  0  0  0  0
  -21.9125  -29.6590   24.5436 C   0  0  0  0  0  0  0  0  0  0  0  0
  -30.5959  -18.9125   18.7834 C   0  0  0  0  0  0  0  0  0  0  0  0
  -23.1708  -29.8697   23.6996 C   0  0  0  0  0  0  0  0  0  0  0  0
  -21.4747  -28.1974   24.5279 C   0  0  0  0  0  0  0  0  0  0  0  0
  -22.5118  -27.8440   22.3204 C   0  0  0  0  0  0  0  0  0  0  0  0
  -29.6007  -19.7300   19.6157 C   0  0  1  0  0  0  0  0  0  0  0  0
  -27.0417  -17.3515   21.1082 C   0  0  1  0  0  0  0  0  0  0  0  0
  -22.9925  -29.3060   22.2774 C   0  0  2  0  0  0  0  0  0  0  0  0
  -17.9010  -24.1616   20.0782 C   0  0  0  0  0  0  0  0  0  0  0  0
  -22.1414  -11.4125   20.2607 C   0  0  0  0  0  0  0  0  0  0  0  0
  -25.9551  -15.6871   16.9358 C   0  0  0  0  0  0  0  0  0  0  0  0
  -24.1669  -13.9350   16.9056 C   0  0  0  0  0  0  0  0  0  0  0  0
  -26.4513  -13.3689   17.7323 C   0  0  0  0  0  0  0  0  0  0  0  0
  -20.1399  -23.9102   24.5291 C   0  0  0  0  0  0  0  0  0  0  0  0
  -22.5274  -13.6178   23.3370 C   0  0  0  0  0  0  0  0  0  0  0  0
  -17.6633  -25.0628   23.2164 C   0  0  0  0  0  0  0  0  0  0  0  0
  -21.8270  -22.4222   22.5062 C   0  0  0  0  0  0  0  0  0  1  0  0
  -17.7651  -26.5839   22.9949 C   0  0  0  0  0  0  0  0  0  0  0  0
  -24.9455  -14.8235   19.1496 C   0  0  1  0  0  0  0  0  0  0  0  0
  -22.8395  -12.4079   21.1743 C   0  0  2  0  0  0  0  0  0  0  0  0
  -25.3766  -14.4772   17.6964 C   0  0  0  0  0  0  0  0  0  0  0  0
  -25.1444  -28.4584   21.4212 N   0  0  0  0  0  0  0  0  0  0  0  0
  -19.9603  -23.1617   21.0009 N   0  0  0  0  0  0  0  0  0  0  0  0
  -19.8021  -23.7702   23.1308 N   0  0  0  0  0  0  0  0  0  0  0  0
  -24.2532  -29.4640   21.4478 N   0  0  0  0  0  0  0  0  0  0  0  0
  -25.9039  -16.6770   20.4799 N   0  0  0  0  0  0  0  0  0  0  0  0
  -21.3048  -27.7279   23.1456 N   0  0  0  0  0  0  0  0  0  0  0  0
  -23.8332  -31.6384   20.6075 N   0  0  0  0  0  0  0  0  0  0  0  0
  -27.8184  -30.5646   18.7741 N   0  0  0  0  0  0  0  0  0  0  0  0
  -28.8246  -18.8602   20.4733 N   0  0  0  0  0  0  0  0  0  0  0  0
  -24.4190  -13.6904   19.9028 N   0  0  0  0  0  0  0  0  0  0  0  0
  -19.0394  -27.1088   23.4324 N   0  0  0  0  0  0  0  0  0  0  0  0
  -21.9551  -12.6724   22.3442 N   0  3  0  0  0  0  0  0  0  0  0  0
  -26.2195  -32.2013   18.9265 O   0  0  0  0  0  0  0  0  0  0  0  0
  -27.1852  -18.2584   18.9329 O   0  0  0  0  0  0  0  0  0  0  0  0
  -27.0899  -14.6960   20.1556 O   0  0  0  0  0  0  0  0  0  0  0  0
  -22.3492  -14.6298   20.3618 O   0  0  0  0  0  0  0  0  0  0  0  0
  -20.0710  -26.8165   21.4063 O   0  0  0  0  0  0  0  0  0  0  0  0
  -30.6015  -25.7943   19.5051 O   0  0  0  0  0  0  0  0  0  0  0  0
  -21.9961  -21.3097   21.6287 O   0  0  0  0  0  0  0  0  0  1  0  0
  -32.2950  -25.5030   14.2657 F   0  0  0  0  0  0  0  0  0  0  0  0
  -31.3615  -28.0699   18.1316 F   0  0  0  0  0  0  0  0  0  0  0  0
  1  2  1  0  0  0  0
  1  5  2  0  0  0  0
  2  6  2  0  0  0  0
  3  8  2  0  0  0  0
  3 15  1  0  0  0  0
  4  9  1  0  0  0  0
  4 15  2  0  0  0  0
  5 17  1  0  0  0  0
  6 19  1  0  0  0  0
  7 10  2  0  0  0  0
  7 18  1  0  0  0  0
  8 21  1  0  0  0  0
  9 21  2  0  0  0  0
 10 22  1  0  0  0  0
 11 12  2  0  0  0  0
 11 23  1  0  0  0  0
 12 24  1  0  0  0  0
 13 20  1  0  0  0  0
 13 22  2  0  0  0  0
 14 24  2  0  0  0  0
 14 25  1  0  0  0  0
 15 26  1  0  0  0  0
 16 26  1  0  0  0  0
 16 29  2  0  0  0  0
 16 31  1  0  0  0  0
 17 19  2  0  0  0  0
 17 36  1  0  0  0  0
 18 20  2  0  0  0  0
 18 37  1  0  0  0  0
 19 45  1  0  0  0  0
 20 38  1  0  0  0  0
 21 78  1  0  0  0  0
 22 79  1  0  0  0  0
 23 25  2  0  0  0  0
 23 78  1  0  0  0  0
 24 80  1  0  0  0  0
 25 81  1  0  0  0  0
 26 61  2  0  0  0  0
 27 28  2  0  0  0  0
 27 48  1  0  0  0  0
 27 62  1  0  0  0  0
 28 55  1  0  0  0  0
 28 63  1  0  0  0  0
 29 64  1  0  0  0  0
 29 67  1  0  0  0  0
 30 56  1  0  0  0  0
 30 62  2  0  0  0  0
 30 63  1  0  0  0  0
 31 68  1  0  0  0  0
 31 73  2  0  0  0  0
 32 46  1  0  0  0  0
 32 69  1  0  0  0  0
 32 74  2  0  0  0  0
 33 58  1  0  0  0  0
 33 65  1  0  0  0  0
 33 75  2  0  0  0  0
 34 59  1  0  0  0  0
 34 70  1  0  0  0  0
 34 76  2  0  0  0  0
 35 66  1  0  0  0  0
 35 71  1  0  0  0  0
 35 77  2  0  0  0  0
 36 39  1  0  0  0  0
 37 46  1  0  0  0  0
 38 65  1  0  0  0  0
 39 41  1  0  0  0  0
 40 42  1  0  0  0  0
 40 43  1  0  0  0  0
 41 45  1  0  0  0  0
 42 47  1  0  0  0  0
 43 66  1  0  0  0  0
 44 47  1  0  0  0  0
 44 66  1  0  0  0  0
 45 69  1  0  0  0  0
 46 65  1  0  0  0  0
 47 64  1  0  0  0  0
 49 59  1  0  0  0  0
 50 60  1  0  0  0  0
 51 60  1  0  0  0  0
 52 60  1  0  0  0  0
 53 63  1  0  0  0  0
 54 72  1  0  0  0  0
 55 57  1  0  0  0  0
 56 79  1  0  0  0  0
 57 71  1  0  0  0  0
 58 60  1  0  0  0  0
 58 70  1  0  0  0  0
 59 72  1  0  0  0  0
 61 64  1  0  0  0  0
M  CHG  1  72   1
M  ISO  4  35 100  56 101  71 100  79 101
M  END
> <Batch ID>
0047

> <Smiles>
CNC(C)C(=O)NC(C(=O)N1Cc2cc([101O:1][101CH2:1]c3nc(C)c(CC[100NH:0][100C:0](=O)N4CCCC(n5nc(-c6ccc(Oc7ccc(F)cc7F)cc6)c(C(N)=O)c5N)C4)n3C)ccc2CC1C(=O)NC1CCCc2ccccc21)C(C)(C)C

> <Shape>
0.225

> <Color>
0.061

> <Negative vol penalty>
0.000

$$$$

  -OEChem-04052317243D

 89 97  0     1  0  0  0  0  0999 V2000
  -32.2619  -26.4650   33.3460 C   0  0  0  0  0  0  0  0  0  0  0  0
  -32.4183  -25.1602   32.8893 C   0  0  0  0  0  0  0  0  0  0  0  0
  -22.9986   -9.8965   19.9870 C   0  0  0  0  0  0  0  0  0  0  0  0
  -23.7589   -9.9388   22.2798 C   0  0  0  0  0  0  0  0  0  0  0  0
  -32.0228  -27.4961   32.4385 C   0  0  0  0  0  0  0  0  0  0  0  0
  -32.3345  -24.8857   31.5247 C   0  0  0  0  0  0  0  0  0  0  0  0
  -35.5056  -20.6680   28.4165 C   0  0  0  0  0  0  0  0  0  0  0  0
  -22.2403   -8.7580   20.2594 C   0  0  0  0  0  0  0  0  0  0  0  0
  -23.0006   -8.8003   22.5523 C   0  0  0  0  0  0  0  0  0  0  0  0
  -35.1871  -19.3782   27.9936 C   0  0  0  0  0  0  0  0  0  0  0  0
  -23.2494   -5.4646   22.0601 C   0  0  0  0  0  0  0  0  0  0  0  0
  -23.8520   -4.4459   22.7981 C   0  0  0  0  0  0  0  0  0  0  0  0
  -34.5706  -20.2467   25.8291 C   0  0  0  0  0  0  0  0  0  0  0  0
  -22.1533   -4.6743   24.5007 C   0  0  0  0  0  0  0  0  0  0  0  0
  -29.6204  -18.0284   25.0346 C   0  0  0  0  0  0  0  0  0  0  0  0
  -23.7580  -10.4869   20.9972 C   0  0  0  0  0  0  0  0  0  0  0  0
  -24.1316  -13.0047   20.8277 C   0  0  0  0  0  0  0  0  0  0  0  0
  -31.9456  -27.2355   31.0613 C   0  0  0  0  0  0  0  0  0  0  0  0
  -35.3484  -21.7600   27.5510 C   0  0  0  0  0  0  0  0  0  0  0  0
  -32.0927  -25.9140   30.5980 C   0  0  0  0  0  0  0  0  0  0  0  0
  -34.8903  -21.5490   26.2427 C   0  0  0  0  0  0  0  0  0  0  0  0
  -22.2412   -8.2099   21.5421 C   0  0  0  0  0  0  0  0  0  0  0  0
  -34.7168  -19.1678   26.7007 C   0  0  0  0  0  0  0  0  0  0  0  0
  -22.0987   -6.0883   22.5425 C   0  0  0  0  0  0  0  0  0  0  0  0
  -23.3040   -4.0507   24.0183 C   0  0  0  0  0  0  0  0  0  0  0  0
  -21.5507   -5.6931   23.7628 C   0  0  0  0  0  0  0  0  0  0  0  0
  -24.5420  -11.6627   20.7162 C   0  0  0  0  0  0  0  0  0  0  0  0
  -29.7615  -17.8244   26.3921 C   0  0  0  0  0  0  0  0  0  0  0  0
  -30.6400  -17.5334   24.2474 C   0  0  0  0  0  0  0  0  0  0  0  0
  -25.2331  -13.7331   20.4499 C   0  0  0  0  0  0  0  0  0  0  0  0
  -31.7403  -16.7514   26.0762 C   0  0  0  0  0  0  0  0  0  0  0  0
  -22.8678  -13.5446   21.2364 C   0  0  0  0  0  0  0  0  0  0  0  0
  -33.5845  -24.4042   27.5735 C   0  0  0  0  0  0  0  0  0  0  0  0
  -30.7493  -14.6215   20.7168 C   0  0  0  0  0  0  0  0  0  0  0  0
  -35.3136  -25.1135   24.9222 C   0  0  0  0  0  0  0  0  0  0  0  0
  -37.1747  -23.9910   22.2910 C   0  0  0  0  0  0  0  0  0  0  0  0
  -31.6383  -28.3755   30.1228 C   0  0  0  0  0  0  0  0  0  0  0  0
  -35.7217  -23.1416   28.0138 C   0  0  0  0  0  0  0  0  0  0  0  0
  -34.7231  -22.6851   25.2681 C   0  0  0  0  0  0  0  0  0  0  0  0
  -31.9366  -28.0574   28.6599 C   0  0  0  0  0  0  0  0  0  0  0  0
  -29.5551  -12.2915   18.2705 C   0  0  0  0  0  0  0  0  0  0  0  0
  -31.3797  -26.6871   28.2873 C   0  0  0  0  0  0  0  0  0  0  0  0
  -28.1210  -12.0075   18.7153 C   0  0  0  0  0  0  0  0  0  0  0  0
  -30.4783  -12.5059   19.4658 C   0  0  0  0  0  0  0  0  0  0  0  0
  -28.5847  -13.2919   20.8507 C   0  0  0  0  0  0  0  0  0  0  0  0
  -32.0332  -25.5800   29.1232 C   0  0  1  0  0  0  0  0  0  0  0  0
  -35.0350  -24.2452   27.2152 C   0  0  1  0  0  0  0  0  0  0  0  0
  -27.6128  -13.0995   19.6731 C   0  0  2  0  0  0  0  0  0  0  0  0
  -28.7094  -18.3244   27.3242 C   0  0  0  0  0  0  0  0  0  0  0  0
  -38.4226  -24.8046   20.2715 C   0  0  0  0  0  0  0  0  0  0  0  0
  -30.1508  -22.8391   24.3760 C   0  0  0  0  0  0  0  0  0  0  0  0
  -29.2732  -23.8797   22.2770 C   0  0  0  0  0  0  0  0  0  0  0  0
  -31.9473  -20.2361   22.2692 C   0  0  0  0  0  0  0  0  0  0  0  0
  -32.6680  -25.5483   23.4656 C   0  0  0  0  0  0  0  0  0  0  0  0
  -33.9180  -25.4146   21.3005 C   0  0  0  0  0  0  0  0  0  0  0  0
  -34.4416  -27.2284   22.9310 C   0  0  0  0  0  0  0  0  0  0  0  0
  -39.7390  -22.9068   23.2950 C   0  0  0  0  0  0  0  0  0  0  0  0
  -32.9319  -16.0333   26.6617 C   0  0  0  0  0  0  0  0  0  0  0  0
  -30.1341  -15.6418   21.6413 C   0  0  0  0  0  0  0  0  0  0  0  0
  -29.6728  -21.3993   22.3201 C   0  0  0  0  0  0  0  0  0  0  0  0
  -31.1186  -16.7627   21.9372 C   0  0  0  0  0  0  0  0  0  0  0  0
  -29.8263  -18.8680   22.3194 C   0  0  0  0  0  0  0  0  0  0  0  0
  -33.9428  -16.9944   27.2778 C   0  0  0  0  0  0  0  0  0  1  0  0
  -35.1557  -24.8577   23.4427 C   0  0  1  0  0  0  0  0  0  0  0  0
  -38.5185  -24.4380   21.7443 C   0  0  2  0  0  0  0  0  0  0  0  0
  -30.1558  -22.7658   22.8488 C   0  0  0  0  0  0  0  0  0  0  0  0
  -30.5003  -20.1737   22.7650 C   0  0  1  0  0  0  0  0  0  0  0  0
  -34.0470  -25.7409   22.8037 C   0  0  0  0  0  0  0  0  0  0  0  0
  -25.8054  -11.5428   20.2999 N   0  0  0  0  0  0  0  0  0  0  0  0
  -30.8124  -17.1876   26.9492 N   0  0  0  0  0  0  0  0  0  0  0  0
  -31.7188  -16.8875   24.7366 N   0  0  0  0  0  0  0  0  0  0  0  0
  -26.1985  -12.8187   20.1465 N   0  0  0  0  0  0  0  0  0  0  0  0
  -35.0954  -24.0182   25.7698 N   0  0  0  0  0  0  0  0  0  0  0  0
  -29.9495  -13.5348   20.3630 N   0  0  0  0  0  0  0  0  0  0  0  0
  -25.4603  -15.0601   20.3509 N   0  0  0  0  0  0  0  0  0  0  0  0
  -21.8446  -12.6551   21.5913 N   0  0  0  0  0  0  0  0  0  0  0  0
  -33.3556  -25.2792   28.6182 N   0  0  0  0  0  0  0  0  0  0  0  0
  -36.4779  -25.0394   22.8537 N   0  0  0  0  0  0  0  0  0  0  0  0
  -30.5333  -17.7220   22.8475 N   0  0  3  0  0  0  0  0  0  0  0  0
  -39.5261  -23.3500   21.8932 N   0  3  0  0  0  0  0  0  0  0  0  0
  -22.6472  -14.7790   21.2696 O   0  0  0  0  0  0  0  0  0  0  0  0
  -32.7356  -23.7804   26.9474 O   0  0  0  0  0  0  0  0  0  0  0  0
  -31.9054  -14.7887   20.3198 O   0  0  0  0  0  0  0  0  0  0  0  0
  -35.6262  -26.2417   25.3108 O   0  0  0  0  0  0  0  0  0  0  0  0
  -36.7808  -22.8288   22.2222 O   0  0  0  0  0  0  0  0  0  0  0  0
  -21.5012   -7.0990   21.8083 O   0  0  0  0  0  0  0  0  0  0  0  0
  -34.4046  -17.9100   26.2855 O   0  0  0  0  0  0  0  0  0  1  0  0
  -23.8819   -3.0713   24.7261 F   0  0  0  0  0  0  0  0  0  0  0  0
  -20.4447   -6.2878   24.2308 F   0  0  0  0  0  0  0  0  0  0  0  0
  1  2  1  0  0  0  0
  1  5  2  0  0  0  0
  2  6  2  0  0  0  0
  3  8  2  0  0  0  0
  3 16  1  0  0  0  0
  4  9  1  0  0  0  0
  4 16  2  0  0  0  0
  5 18  1  0  0  0  0
  6 20  1  0  0  0  0
  7 10  2  0  0  0  0
  7 19  1  0  0  0  0
  8 22  1  0  0  0  0
  9 22  2  0  0  0  0
 10 23  1  0  0  0  0
 11 12  2  0  0  0  0
 11 24  1  0  0  0  0
 12 25  1  0  0  0  0
 13 21  1  0  0  0  0
 13 23  2  0  0  0  0
 14 25  2  0  0  0  0
 14 26  1  0  0  0  0
 15 28  1  0  0  0  0
 15 29  2  0  0  0  0
 16 27  1  0  0  0  0
 17 27  1  0  0  0  0
 17 30  2  0  0  0  0
 17 32  1  0  0  0  0
 18 20  2  0  0  0  0
 18 37  1  0  0  0  0
 19 21  2  0  0  0  0
 19 38  1  0  0  0  0
 20 46  1  0  0  0  0
 21 39  1  0  0  0  0
 22 86  1  0  0  0  0
 23 87  1  0  0  0  0
 24 26  2  0  0  0  0
 24 86  1  0  0  0  0
 25 88  1  0  0  0  0
 26 89  1  0  0  0  0
 27 69  2  0  0  0  0
 28 49  1  0  0  0  0
 28 70  2  0  0  0  0
 29 71  1  0  0  0  0
 29 79  1  0  0  0  0
 30 72  1  0  0  0  0
 30 75  1  0  0  0  0
 31 58  1  0  0  0  0
 31 70  1  0  0  0  0
 31 71  2  0  0  0  0
 32 76  1  0  0  0  0
 32 81  2  0  0  0  0
 33 47  1  0  0  0  0
 33 77  1  0  0  0  0
 33 82  2  0  0  0  0
 34 59  1  0  0  0  0
 34 74  1  0  0  0  0
 34 83  2  0  0  0  0
 35 64  1  0  0  0  0
 35 73  1  0  0  0  0
 35 84  2  0  0  0  0
 36 65  1  0  0  0  0
 36 78  1  0  0  0  0
 36 85  2  0  0  0  0
 37 40  1  0  0  0  0
 38 47  1  0  0  0  0
 39 73  1  0  0  0  0
 40 42  1  0  0  0  0
 41 43  1  0  0  0  0
 41 44  1  0  0  0  0
 42 46  1  0  0  0  0
 43 48  1  0  0  0  0
 44 74  1  0  0  0  0
 45 48  1  0  0  0  0
 45 74  1  0  0  0  0
 46 77  1  0  0  0  0
 47 73  1  0  0  0  0
 48 72  1  0  0  0  0
 50 65  1  0  0  0  0
 51 66  1  0  0  0  0
 52 66  1  0  0  0  0
 53 67  1  0  0  0  0
 54 68  1  0  0  0  0
 55 68  1  0  0  0  0
 56 68  1  0  0  0  0
 57 80  1  0  0  0  0
 58 63  1  0  0  0  0
 59 61  1  0  0  0  0
 60 66  1  0  0  0  0
 60 67  1  0  0  0  0
 61 79  1  0  0  0  0
 62 67  1  0  0  0  0
 62 79  1  0  0  0  0
 63 87  1  0  0  0  0
 64 68  1  0  0  0  0
 64 78  1  0  0  0  0
 65 80  1  0  0  0  0
 69 72  1  0  0  0  0
M  CHG  1  80   1
M  ISO  4  34 100  59 100  63 101  87 101
M  END
> <Batch ID>
0047

> <Smiles>
CNC(C)C(=O)NC(C(=O)N1Cc2cc([101O:1][101CH2:1]Cc3nc(C)cc(N(C[100CH2:0][100C:0](=O)N4CCCC(n5nc(-c6ccc(Oc7ccc(F)cc7F)cc6)c(C(N)=O)c5N)C4)CC(C)CC(C)C)n3)ccc2CC1C(=O)NC1CCCc2ccccc21)C(C)(C)C

> <Shape>
0.175

> <Color>
0.192

> <Negative vol penalty>
0.000

$$$$

  -OEChem-04052317243D

 82 90  0     1  0  0  0  0  0999 V2000
  -17.6558  -26.9175   22.6673 C   0  0  0  0  0  0  0  0  0  0  0  0
  -18.8669  -26.3105   22.3508 C   0  0  0  0  0  0  0  0  0  0  0  0
  -24.1450  -13.6776   20.6656 C   0  0  0  0  0  0  0  0  0  0  0  0
  -26.3893  -13.5552   21.5517 C   0  0  0  0  0  0  0  0  0  0  0  0
  -17.6194  -28.2748   22.9843 C   0  0  0  0  0  0  0  0  0  0  0  0
  -20.0423  -27.0608   22.3501 C   0  0  0  0  0  0  0  0  0  0  0  0
  -25.6314  -25.1483   23.9657 C   0  0  0  0  0  0  0  0  0  0  0  0
  -24.2066  -12.3270   20.3228 C   0  0  0  0  0  0  0  0  0  0  0  0
  -26.4510  -12.2045   21.2088 C   0  0  0  0  0  0  0  0  0  0  0  0
  -26.7251  -24.7109   23.2199 C   0  0  0  0  0  0  0  0  0  0  0  0
  -23.6392   -8.8224   19.5413 C   0  0  0  0  0  0  0  0  0  0  0  0
  -22.5351   -8.0254   19.8437 C   0  0  0  0  0  0  0  0  0  0  0  0
  -27.6607  -26.9329   23.3001 C   0  0  0  0  0  0  0  0  0  0  0  0
  -22.8018   -8.5457   22.1880 C   0  0  0  0  0  0  0  0  0  0  0  0
  -31.5278  -26.1391   21.5979 C   0  0  0  0  0  0  0  0  0  0  0  0
  -25.2363  -14.2918   21.2801 C   0  0  0  0  0  0  0  0  0  0  0  0
  -24.7237  -16.2363   22.8496 C   0  0  0  0  0  0  0  0  0  0  0  0
  -18.7963  -29.0398   22.9969 C   0  0  0  0  0  0  0  0  0  0  0  0
  -25.5386  -26.4861   24.3758 C   0  0  0  0  0  0  0  0  0  0  0  0
  -20.0215  -28.4298   22.6663 C   0  0  0  0  0  0  0  0  0  0  0  0
  -26.5660  -27.3841   24.0533 C   0  0  0  0  0  0  0  0  0  0  0  0
  -25.3596  -11.5904   20.5944 C   0  0  0  0  0  0  0  0  0  0  0  0
  -27.7386  -25.6039   22.8845 C   0  0  0  0  0  0  0  0  0  0  0  0
  -24.3246   -9.4809   20.5622 C   0  0  0  0  0  0  0  0  0  0  0  0
  -22.1164   -7.8871   21.1671 C   0  0  0  0  0  0  0  0  0  0  0  0
  -23.9059   -9.3426   21.8855 C   0  0  0  0  0  0  0  0  0  0  0  0
  -25.1734  -15.6871   21.6340 C   0  0  0  0  0  0  0  0  0  0  0  0
  -30.3765  -26.5021   20.9578 C   0  0  0  0  0  0  0  0  0  0  0  0
  -24.8632  -17.5929   22.6860 C   0  0  0  0  0  0  0  0  0  0  0  0
  -31.9048  -28.0494   20.5447 C   0  0  0  0  0  0  0  0  0  0  0  0
  -24.2245  -15.5790   24.0220 C   0  0  0  0  0  0  0  0  0  0  0  0
  -23.5024  -28.8644   23.8270 C   0  0  0  0  0  0  0  0  0  0  0  0
  -25.3104  -30.4034   26.0372 C   0  0  0  0  0  0  0  0  0  0  0  0
  -28.3129  -30.6893   27.6341 C   0  0  0  0  0  0  0  0  0  0  0  0
  -28.4705  -20.7935   19.2803 C   0  0  0  0  0  0  0  0  0  0  0  0
  -18.7005  -30.5142   23.2998 C   0  0  0  0  0  0  0  0  0  0  0  0
  -24.3654  -26.9359   25.2025 C   0  0  0  0  0  0  0  0  0  0  0  0
  -26.5240  -28.8260   24.4865 C   0  0  0  0  0  0  0  0  0  0  0  0
  -20.0436  -31.1543   23.6417 C   0  0  0  0  0  0  0  0  0  0  0  0
  -24.8561  -20.9768   19.3012 C   0  0  0  0  0  0  0  0  0  0  0  0
  -21.1107  -30.7230   22.6407 C   0  0  0  0  0  0  0  0  0  0  0  0
  -24.4900  -19.6797   20.0249 C   0  0  0  0  0  0  0  0  0  0  0  0
  -26.0627  -20.7789   18.3885 C   0  0  0  0  0  0  0  0  0  0  0  0
  -26.9071  -18.9410   19.7967 C   0  0  0  0  0  0  0  0  0  0  0  0
  -21.3214  -29.2045   22.6788 C   0  0  1  0  0  0  0  0  0  0  0  0
  -24.1235  -28.4403   25.1278 C   0  0  1  0  0  0  0  0  0  0  0  0
  -25.7083  -19.0809   20.7525 C   0  0  2  0  0  0  0  0  0  0  0  0
  -32.5920  -29.2626   20.0366 C   0  0  0  0  0  0  0  0  0  0  0  0
  -29.5009  -32.0656   29.3638 C   0  0  0  0  0  0  0  0  0  0  0  0
  -25.6488  -32.6569   24.0081 C   0  0  0  0  0  0  0  0  0  0  0  0
  -27.5589  -33.5130   25.3819 C   0  0  0  0  0  0  0  0  0  0  0  0
  -25.2657  -33.4188   26.3591 C   0  0  0  0  0  0  0  0  0  0  0  0
  -29.6937  -28.4382   19.5086 C   0  0  0  0  0  0  0  0  0  0  0  0
  -28.7165  -28.3427   29.3917 C   0  0  0  0  0  0  0  0  0  0  0  0
  -29.9952  -23.6903   19.8501 C   0  0  0  0  0  0  0  0  0  0  0  0
  -28.9122  -24.7728   19.7786 C   0  0  0  0  0  0  0  0  0  0  0  0
  -29.9204  -22.7152   18.6787 C   0  0  0  0  0  0  0  0  0  0  0  0
  -29.0307  -25.8178   20.8994 C   0  0  1  0  0  0  0  0  0  1  0  0
  -26.5459  -31.2697   25.9923 C   0  0  1  0  0  0  0  0  0  0  0  0
  -28.6626  -30.8234   29.1052 C   0  0  2  0  0  0  0  0  0  0  0  0
  -26.2550  -32.6879   25.4254 C   0  0  0  0  0  0  0  0  0  0  0  0
  -25.5689  -16.6186   20.7623 N   0  0  0  0  0  0  0  0  0  0  0  0
  -30.6383  -27.6878   20.3147 N   0  0  0  0  0  0  0  0  0  0  0  0
  -25.3680  -17.7669   21.4310 N   0  0  0  0  0  0  0  0  0  0  0  0
  -32.4565  -27.1143   21.3248 N   0  3  0  0  0  0  0  0  0  0  0  0
  -25.3531  -29.2191   25.2878 N   0  0  0  0  0  0  0  0  0  0  0  0
  -27.1933  -20.2241   19.1462 N   0  0  0  0  0  0  0  0  0  0  0  0
  -24.6019  -18.6419   23.4945 N   0  0  0  0  0  0  0  0  0  0  0  0
  -24.1475  -14.1796   24.0218 N   0  0  0  0  0  0  0  0  0  0  0  0
  -22.1209  -28.8339   23.8268 N   0  0  0  0  0  0  0  0  0  0  0  0
  -27.0952  -31.2676   27.3438 N   0  0  0  0  0  0  0  0  0  0  0  0
  -28.6616  -22.0054   18.6279 N   0  0  0  0  0  0  0  0  0  0  0  0
  -29.4322  -29.6329   29.5652 N   0  3  0  0  0  0  0  0  0  0  0  0
  -23.8422  -16.2147   25.0336 O   0  0  0  0  0  0  0  0  0  0  0  0
  -24.2232  -29.1961   22.8931 O   0  0  0  0  0  0  0  0  0  0  0  0
  -24.3457  -30.7606   26.7179 O   0  0  0  0  0  0  0  0  0  0  0  0
  -29.0482  -30.1311   26.8228 O   0  0  0  0  0  0  0  0  0  0  0  0
  -29.3728  -20.2636   19.9376 O   0  0  0  0  0  0  0  0  0  0  0  0
  -25.4201  -10.2724   20.2602 O   0  0  0  0  0  0  0  0  0  0  0  0
  -28.8069  -25.1797   22.1561 O   0  0  0  0  0  0  0  0  0  1  0  0
  -21.0552   -7.1230   21.4572 F   0  0  0  0  0  0  0  0  0  0  0  0
  -24.5597   -9.9738   22.8704 F   0  0  0  0  0  0  0  0  0  0  0  0
  1  2  1  0  0  0  0
  1  5  2  0  0  0  0
  2  6  2  0  0  0  0
  3  8  2  0  0  0  0
  3 16  1  0  0  0  0
  4  9  1  0  0  0  0
  4 16  2  0  0  0  0
  5 18  1  0  0  0  0
  6 20  1  0  0  0  0
  7 10  2  0  0  0  0
  7 19  1  0  0  0  0
  8 22  1  0  0  0  0
  9 22  2  0  0  0  0
 10 23  1  0  0  0  0
 11 12  2  0  0  0  0
 11 24  1  0  0  0  0
 12 25  1  0  0  0  0
 13 21  1  0  0  0  0
 13 23  2  0  0  0  0
 14 25  2  0  0  0  0
 14 26  1  0  0  0  0
 15 28  2  0  0  0  0
 15 65  1  0  0  0  0
 16 27  1  0  0  0  0
 17 27  1  0  0  0  0
 17 29  2  0  0  0  0
 17 31  1  0  0  0  0
 18 20  2  0  0  0  0
 18 36  1  0  0  0  0
 19 21  2  0  0  0  0
 19 37  1  0  0  0  0
 20 45  1  0  0  0  0
 21 38  1  0  0  0  0
 22 79  1  0  0  0  0
 23 80  1  0  0  0  0
 24 26  2  0  0  0  0
 24 79  1  0  0  0  0
 25 81  1  0  0  0  0
 26 82  1  0  0  0  0
 27 62  2  0  0  0  0
 28 58  1  0  0  0  0
 28 63  1  0  0  0  0
 29 64  1  0  0  0  0
 29 68  1  0  0  0  0
 30 48  1  0  0  0  0
 30 63  1  0  0  0  0
 30 65  2  0  0  0  0
 31 69  1  0  0  0  0
 31 74  2  0  0  0  0
 32 46  1  0  0  0  0
 32 70  1  0  0  0  0
 32 75  2  0  0  0  0
 33 59  1  0  0  0  0
 33 66  1  0  0  0  0
 33 76  2  0  0  0  0
 34 60  1  0  0  0  0
 34 71  1  0  0  0  0
 34 77  2  0  0  0  0
 35 67  1  0  0  0  0
 35 72  1  0  0  0  0
 35 78  2  0  0  0  0
 36 39  1  0  0  0  0
 37 46  1  0  0  0  0
 38 66  1  0  0  0  0
 39 41  1  0  0  0  0
 40 42  1  0  0  0  0
 40 43  1  0  0  0  0
 41 45  1  0  0  0  0
 42 47  1  0  0  0  0
 43 67  1  0  0  0  0
 44 47  1  0  0  0  0
 44 67  1  0  0  0  0
 45 70  1  0  0  0  0
 46 66  1  0  0  0  0
 47 64  1  0  0  0  0
 49 60  1  0  0  0  0
 50 61  1  0  0  0  0
 51 61  1  0  0  0  0
 52 61  1  0  0  0  0
 53 63  1  0  0  0  0
 54 73  1  0  0  0  0
 55 56  1  0  0  0  0
 55 57  1  0  0  0  0
 56 58  1  0  0  0  0
 57 72  1  0  0  0  0
 58 80  1  0  0  0  0
 59 61  1  0  0  0  0
 59 71  1  0  0  0  0
 60 73  1  0  0  0  0
 62 64  1  0  0  0  0
M  CHG  2  65   1  73   1
M  ISO  4  35 100  58 101  72 100  80 101
M  END
> <Batch ID>
0047

> <Smiles>
CNC(C)C(=O)NC(C(=O)N1Cc2cc([101O:1][101CH:1](CCC[100NH:0][100C:0](=O)N3CCCC(n4nc(-c5ccc(Oc6ccc(F)cc6F)cc5)c(C(N)=O)c4N)C3)c3cnc(C)n3C)ccc2CC1C(=O)NC1CCCc2ccccc21)C(C)(C)C

> <Shape>
0.255

> <Color>
0.076

> <Negative vol penalty>
0.000

$$$$

  -OEChem-04052317243D

 82 90  0     1  0  0  0  0  0999 V2000
  -34.5977  -17.6985   25.2252 C   0  0  0  0  0  0  0  0  0  0  0  0
  -33.6415  -18.4875   24.5940 C   0  0  0  0  0  0  0  0  0  0  0  0
  -29.4182  -26.1749   20.1703 C   0  0  0  0  0  0  0  0  0  0  0  0
  -27.3427  -25.2680   21.0109 C   0  0  0  0  0  0  0  0  0  0  0  0
  -34.7585  -16.3656   24.8491 C   0  0  0  0  0  0  0  0  0  0  0  0
  -32.8462  -17.9444   23.5855 C   0  0  0  0  0  0  0  0  0  0  0  0
  -26.9946  -19.2931   22.3831 C   0  0  0  0  0  0  0  0  0  0  0  0
  -29.0209  -27.4518   20.5669 C   0  0  0  0  0  0  0  0  0  0  0  0
  -26.9454  -26.5449   21.4076 C   0  0  0  0  0  0  0  0  0  0  0  0
  -26.4000  -20.1381   21.4470 C   0  0  0  0  0  0  0  0  0  0  0  0
  -25.2291  -29.6168   22.3170 C   0  0  0  0  0  0  0  0  0  0  0  0
  -23.9222  -30.0086   22.0268 C   0  0  0  0  0  0  0  0  0  0  0  0
  -26.0828  -18.2620   19.9641 C   0  0  0  0  0  0  0  0  0  0  0  0
  -24.3565  -29.7106   19.6689 C   0  0  0  0  0  0  0  0  0  0  0  0
  -21.2333  -19.3383   17.6713 C   0  0  0  0  0  0  0  0  0  0  0  0
  -21.7935  -20.2963   19.6163 C   0  0  0  0  0  0  0  0  0  0  0  0
  -28.5791  -25.0830   20.3922 C   0  0  0  0  0  0  0  0  0  0  0  0
  -29.7078  -22.8223   20.7426 C   0  0  0  0  0  0  0  0  0  0  0  0
  -33.9582  -15.8031   23.8422 C   0  0  0  0  0  0  0  0  0  0  0  0
  -27.1479  -17.9259   22.1118 C   0  0  0  0  0  0  0  0  0  0  0  0
  -32.9974  -16.6031   23.1947 C   0  0  0  0  0  0  0  0  0  0  0  0
  -26.6773  -17.4014   20.8995 C   0  0  0  0  0  0  0  0  0  0  0  0
  -22.1974  -20.2843   17.4013 C   0  0  0  0  0  0  0  0  0  0  0  0
  -22.5517  -20.8905   18.6318 C   0  0  0  0  0  0  0  0  0  0  0  0
  -27.7845  -27.6368   21.1856 C   0  0  0  0  0  0  0  0  0  0  0  0
  -25.9466  -19.6231   20.2361 C   0  0  0  0  0  0  0  0  0  0  0  0
  -26.0997  -29.2721   21.2832 C   0  0  0  0  0  0  0  0  0  0  0  0
  -23.4859  -30.0555   20.7028 C   0  0  0  0  0  0  0  0  0  0  0  0
  -25.6634  -29.3189   19.9591 C   0  0  0  0  0  0  0  0  0  0  0  0
  -28.9887  -23.7638   19.9822 C   0  0  0  0  0  0  0  0  0  0  0  0
  -29.8427  -21.7389   19.9091 C   0  0  0  0  0  0  0  0  0  0  0  0
  -30.2090  -22.9183   22.0824 C   0  0  0  0  0  0  0  0  0  0  0  0
  -29.6297  -15.9621   21.8160 C   0  0  0  0  0  0  0  0  0  0  0  0
  -27.3162  -13.6978   21.6092 C   0  0  0  0  0  0  0  0  0  0  0  0
  -24.0752  -12.9263   20.8693 C   0  0  0  0  0  0  0  0  0  0  0  0
  -26.6587  -19.7670   15.2374 C   0  0  0  0  0  0  0  0  0  0  0  0
  -34.2010  -14.3708   23.4372 C   0  0  0  0  0  0  0  0  0  0  0  0
  -27.7672  -17.0230   23.1431 C   0  0  0  0  0  0  0  0  0  0  0  0
  -26.7997  -15.9372   20.5682 C   0  0  0  0  0  0  0  0  0  0  0  0
  -33.0623  -13.7678   22.6186 C   0  0  0  0  0  0  0  0  0  0  0  0
  -30.1217  -20.5936   15.2722 C   0  0  0  0  0  0  0  0  0  0  0  0
  -32.6265  -14.7317   21.5196 C   0  0  0  0  0  0  0  0  0  0  0  0
  -30.2889  -21.4149   16.5519 C   0  0  0  0  0  0  0  0  0  0  0  0
  -28.7813  -20.8707   14.5949 C   0  0  0  0  0  0  0  0  0  0  0  0
  -27.7691  -21.5257   16.7443 C   0  0  0  0  0  0  0  0  0  0  0  0
  -32.0987  -16.0433   22.1135 C   0  0  1  0  0  0  0  0  0  0  0  0
  -28.3368  -15.7389   22.5482 C   0  0  1  0  0  0  0  0  0  0  0  0
  -29.0819  -21.2387   17.4929 C   0  0  2  0  0  0  0  0  0  0  0  0
  -22.4881  -10.9856   20.7588 C   0  0  0  0  0  0  0  0  0  0  0  0
  -28.6153  -12.7870   19.0029 C   0  0  0  0  0  0  0  0  0  0  0  0
  -26.5121  -11.5365   18.4728 C   0  0  0  0  0  0  0  0  0  0  0  0
  -27.8473  -10.9292   20.4906 C   0  0  0  0  0  0  0  0  0  0  0  0
  -20.0511  -18.5060   19.7108 C   0  0  0  0  0  0  0  0  0  0  0  0
  -22.2929  -14.1182   22.9094 C   0  0  0  0  0  0  0  0  0  0  0  0
  -22.7528  -20.5988   16.0699 C   0  0  0  0  0  0  0  0  0  0  0  0
  -23.5696  -21.9857   18.8388 C   0  0  0  0  0  0  0  0  0  0  0  0
  -23.3576  -19.3919   15.3129 C   0  0  0  0  0  0  0  0  0  0  0  0
  -24.5411  -18.7396   16.0244 C   0  0  0  0  0  0  0  0  0  0  0  0
  -24.6637  -21.5821   19.8213 C   0  0  0  0  0  0  0  0  0  1  0  0
  -26.5209  -13.0816   20.4837 C   0  0  1  0  0  0  0  0  0  0  0  0
  -23.0368  -12.1124   21.6202 C   0  0  2  0  0  0  0  0  0  0  0  0
  -27.3732  -12.1116   19.6176 C   0  0  0  0  0  0  0  0  0  0  0  0
  -28.6879  -23.3178   18.7597 N   0  0  0  0  0  0  0  0  0  0  0  0
  -20.9959  -19.3542   19.0210 N   0  0  0  0  0  0  0  0  0  0  0  0
  -29.2207  -22.0841   18.7455 N   0  0  0  0  0  0  0  0  0  0  0  0
  -27.4181  -15.0962   21.6064 N   0  0  0  0  0  0  0  0  0  0  0  0
  -27.6783  -20.6843   15.5407 N   0  0  0  0  0  0  0  0  0  0  0  0
  -30.4316  -20.5342   20.0655 N   0  0  0  0  0  0  0  0  0  0  0  0
  -29.9821  -24.1023   22.7974 N   0  0  0  0  0  0  0  0  0  0  0  0
  -30.7529  -15.8655   22.6151 N   0  0  0  0  0  0  0  0  0  0  0  0
  -25.3528  -12.4623   21.1006 N   0  0  0  0  0  0  0  0  0  0  0  0
  -25.6547  -19.6468   16.1905 N   0  0  0  0  0  0  0  0  0  0  0  0
  -21.9002  -12.9812   22.0375 N   0  3  0  0  0  0  0  0  0  0  0  0
  -30.8536  -21.9883   22.6237 O   0  0  0  0  0  0  0  0  0  0  0  0
  -29.6099  -16.2027   20.6145 O   0  0  0  0  0  0  0  0  0  0  0  0
  -27.8222  -12.9658   22.4635 O   0  0  0  0  0  0  0  0  0  0  0  0
  -23.7818  -13.8763   20.1468 O   0  0  0  0  0  0  0  0  0  0  0  0
  -26.6469  -19.1005   14.1970 O   0  0  0  0  0  0  0  0  0  0  0  0
  -27.3966  -28.8826   21.5730 O   0  0  0  0  0  0  0  0  0  0  0  0
  -25.3665  -20.4457   19.3203 O   0  0  0  0  0  0  0  0  0  1  0  0
  -22.2304  -30.4302   20.4243 F   0  0  0  0  0  0  0  0  0  0  0  0
  -26.4949  -28.9877   18.9618 F   0  0  0  0  0  0  0  0  0  0  0  0
  1  2  1  0  0  0  0
  1  5  2  0  0  0  0
  2  6  2  0  0  0  0
  3  8  2  0  0  0  0
  3 17  1  0  0  0  0
  4  9  1  0  0  0  0
  4 17  2  0  0  0  0
  5 19  1  0  0  0  0
  6 21  1  0  0  0  0
  7 10  2  0  0  0  0
  7 20  1  0  0  0  0
  8 25  1  0  0  0  0
  9 25  2  0  0  0  0
 10 26  1  0  0  0  0
 11 12  2  0  0  0  0
 11 27  1  0  0  0  0
 12 28  1  0  0  0  0
 13 22  1  0  0  0  0
 13 26  2  0  0  0  0
 14 28  2  0  0  0  0
 14 29  1  0  0  0  0
 15 23  2  0  0  0  0
 15 64  1  0  0  0  0
 16 24  2  0  0  0  0
 16 64  1  0  0  0  0
 17 30  1  0  0  0  0
 18 30  1  0  0  0  0
 18 31  2  0  0  0  0
 18 32  1  0  0  0  0
 19 21  2  0  0  0  0
 19 37  1  0  0  0  0
 20 22  2  0  0  0  0
 20 38  1  0  0  0  0
 21 46  1  0  0  0  0
 22 39  1  0  0  0  0
 23 24  1  0  0  0  0
 23 55  1  0  0  0  0
 24 56  1  0  0  0  0
 25 79  1  0  0  0  0
 26 80  1  0  0  0  0
 27 29  2  0  0  0  0
 27 79  1  0  0  0  0
 28 81  1  0  0  0  0
 29 82  1  0  0  0  0
 30 63  2  0  0  0  0
 31 65  1  0  0  0  0
 31 68  1  0  0  0  0
 32 69  1  0  0  0  0
 32 74  2  0  0  0  0
 33 47  1  0  0  0  0
 33 70  1  0  0  0  0
 33 75  2  0  0  0  0
 34 60  1  0  0  0  0
 34 66  1  0  0  0  0
 34 76  2  0  0  0  0
 35 61  1  0  0  0  0
 35 71  1  0  0  0  0
 35 77  2  0  0  0  0
 36 67  1  0  0  0  0
 36 72  1  0  0  0  0
 36 78  2  0  0  0  0
 37 40  1  0  0  0  0
 38 47  1  0  0  0  0
 39 66  1  0  0  0  0
 40 42  1  0  0  0  0
 41 43  1  0  0  0  0
 41 44  1  0  0  0  0
 42 46  1  0  0  0  0
 43 48  1  0  0  0  0
 44 67  1  0  0  0  0
 45 48  1  0  0  0  0
 45 67  1  0  0  0  0
 46 70  1  0  0  0  0
 47 66  1  0  0  0  0
 48 65  1  0  0  0  0
 49 61  1  0  0  0  0
 50 62  1  0  0  0  0
 51 62  1  0  0  0  0
 52 62  1  0  0  0  0
 53 64  1  0  0  0  0
 54 73  1  0  0  0  0
 55 57  1  0  0  0  0
 56 59  1  0  0  0  0
 57 58  1  0  0  0  0
 58 72  1  0  0  0  0
 59 80  1  0  0  0  0
 60 62  1  0  0  0  0
 60 71  1  0  0  0  0
 61 73  1  0  0  0  0
 63 65  1  0  0  0  0
M  CHG  1  73   1
M  ISO  4  36 100  59 101  72 100  80 101
M  END
> <Batch ID>
0047

> <Smiles>
CNC(C)C(=O)NC(C(=O)N1Cc2cc([101O:1][101CH2:1]Cc3cn(C)cc3CCC[100NH:0][100C:0](=O)N3CCCC(n4nc(-c5ccc(Oc6ccc(F)cc6F)cc5)c(C(N)=O)c4N)C3)ccc2CC1C(=O)NC1CCCc2ccccc21)C(C)(C)C

> <Shape>
0.196

> <Color>
0.059

> <Negative vol penalty>
0.000

$$$$

  -OEChem-04052317243D

 84 92  0     1  0  0  0  0  0999 V2000
  -29.6532  -23.4531   15.7359 C   0  0  0  0  0  0  0  0  0  0  0  0
  -28.5946  -23.4410   16.6384 C   0  0  0  0  0  0  0  0  0  0  0  0
  -29.4285  -17.0202   21.8097 C   0  0  0  0  0  0  0  0  0  0  0  0
  -29.2672  -17.4074   19.4304 C   0  0  0  0  0  0  0  0  0  0  0  0
  -30.7541  -24.2773   15.9654 C   0  0  0  0  0  0  0  0  0  0  0  0
  -28.6367  -24.2524   17.7717 C   0  0  0  0  0  0  0  0  0  0  0  0
  -24.2587  -26.6581   18.6025 C   0  0  0  0  0  0  0  0  0  0  0  0
  -30.3924  -16.0375   21.5845 C   0  0  0  0  0  0  0  0  0  0  0  0
  -30.2312  -16.4247   19.2052 C   0  0  0  0  0  0  0  0  0  0  0  0
  -23.2257  -25.9197   19.1784 C   0  0  0  0  0  0  0  0  0  0  0  0
  -30.3695  -13.0482   19.1004 C   0  0  0  0  0  0  0  0  0  0  0  0
  -30.1297  -12.1267   18.0811 C   0  0  0  0  0  0  0  0  0  0  0  0
  -23.7396  -26.8883   21.3272 C   0  0  0  0  0  0  0  0  0  0  0  0
  -32.1459  -12.8433   16.9591 C   0  0  0  0  0  0  0  0  0  0  0  0
  -19.0995  -21.8387   23.9782 C   0  0  0  0  0  0  0  0  0  0  0  0
  -28.8658  -17.7051   20.7327 C   0  0  0  0  0  0  0  0  0  0  0  0
  -28.0891  -20.0947   21.1733 C   0  0  0  0  0  0  0  0  0  0  0  0
  -30.8054  -25.1064   17.0971 C   0  0  0  0  0  0  0  0  0  0  0  0
  -25.0481  -27.5103   19.3880 C   0  0  0  0  0  0  0  0  0  0  0  0
  -29.7399  -25.0875   18.0173 C   0  0  0  0  0  0  0  0  0  0  0  0
  -24.7802  -27.6383   20.7583 C   0  0  0  0  0  0  0  0  0  0  0  0
  -30.7938  -15.7398   20.2823 C   0  0  0  0  0  0  0  0  0  0  0  0
  -22.9679  -26.0326   20.5415 C   0  0  0  0  0  0  0  0  0  0  0  0
  -31.4975  -13.8673   19.0490 C   0  0  0  0  0  0  0  0  0  0  0  0
  -31.0179  -12.0242   17.0105 C   0  0  0  0  0  0  0  0  0  0  0  0
  -32.3856  -13.7648   17.9784 C   0  0  0  0  0  0  0  0  0  0  0  0
  -27.8696  -18.7199   20.9646 C   0  0  0  0  0  0  0  0  0  0  0  0
  -18.2932  -20.7432   23.8493 C   0  0  0  0  0  0  0  0  0  0  0  0
  -26.8320  -20.6213   21.3433 C   0  0  0  0  0  0  0  0  0  0  0  0
  -18.3320  -21.7959   21.9023 C   0  0  0  0  0  0  0  0  0  0  0  0
  -29.3194  -20.8301   21.2100 C   0  0  0  0  0  0  0  0  0  0  0  0
  -28.1335  -27.6507   20.1391 C   0  0  0  0  0  0  0  0  0  0  0  0
  -27.2626  -30.4375   21.5525 C   0  0  0  0  0  0  0  0  0  0  0  0
  -24.7900  -32.3256   22.9554 C   0  0  0  0  0  0  0  0  0  0  0  0
  -21.6129  -21.0789   19.7627 C   0  0  0  0  0  0  0  0  0  0  0  0
  -32.0376  -25.9451   17.3272 C   0  0  0  0  0  0  0  0  0  0  0  0
  -26.1414  -28.3202   18.7466 C   0  0  0  0  0  0  0  0  0  0  0  0
  -25.5856  -28.5547   21.6416 C   0  0  0  0  0  0  0  0  0  0  0  0
  -31.8365  -27.0529   18.3580 C   0  0  0  0  0  0  0  0  0  0  0  0
  -22.3659  -18.3390   22.0039 C   0  0  0  0  0  0  0  0  0  0  0  0
  -31.1306  -26.5086   19.5959 C   0  0  0  0  0  0  0  0  0  0  0  0
  -23.8943  -18.3109   21.9472 C   0  0  0  0  0  0  0  0  0  0  0  0
  -21.7681  -18.6708   20.6398 C   0  0  0  0  0  0  0  0  0  0  0  0
  -23.7908  -19.9173   19.9854 C   0  0  0  0  0  0  0  0  0  0  0  0
  -29.7376  -25.9718   19.2453 C   0  0  1  0  0  0  0  0  0  0  0  0
  -27.2126  -28.7676   19.7364 C   0  0  1  0  0  0  0  0  0  0  0  0
  -24.4564  -19.6095   21.3390 C   0  0  2  0  0  0  0  0  0  0  0  0
  -17.9123  -19.7033   24.8086 C   0  0  0  0  0  0  0  0  0  0  0  0
  -24.3903  -34.5454   24.0554 C   0  0  0  0  0  0  0  0  0  0  0  0
  -17.3911  -23.5345   20.2325 C   0  0  0  0  0  0  0  0  0  0  0  0
  -17.0737  -21.1047   19.8440 C   0  0  0  0  0  0  0  0  0  0  0  0
  -28.5614  -29.4006   24.1114 C   0  0  0  0  0  0  0  0  0  0  0  0
  -27.3281  -31.1762   25.3741 C   0  0  0  0  0  0  0  0  0  0  0  0
  -28.9910  -31.8165   23.6284 C   0  0  0  0  0  0  0  0  0  0  0  0
  -22.8759  -33.1525   20.8551 C   0  0  0  0  0  0  0  0  0  0  0  0
  -21.3718  -23.6266   22.7086 C   0  0  0  0  0  0  0  0  0  0  0  0
  -19.8691  -23.7318   22.4393 C   0  0  0  0  0  0  0  0  0  0  0  0
  -19.3626  -22.1108   19.5935 C   0  0  0  0  0  0  0  0  0  0  0  0
  -22.1206  -24.9331   22.4726 C   0  0  0  0  0  0  0  0  0  1  0  0
  -26.7711  -30.8327   22.9241 C   0  0  1  0  0  0  0  0  0  0  0  0
  -24.3862  -33.7738   22.7450 C   0  0  2  0  0  0  0  0  0  0  0  0
  -18.0643  -22.1364   20.4827 C   0  0  0  0  0  0  0  0  0  0  0  0
  -27.8988  -30.7876   23.9935 C   0  0  0  0  0  0  0  0  0  0  0  0
  -26.5749  -18.3935   20.9988 N   0  0  0  0  0  0  0  0  0  0  0  0
  -19.1057  -22.4712   22.7584 N   0  0  0  0  0  0  0  0  0  0  0  0
  -25.9695  -19.5707   21.2309 N   0  0  0  0  0  0  0  0  0  0  0  0
  -17.8319  -20.7417   22.5550 N   0  3  0  0  0  0  0  0  0  0  0  0
  -26.6478  -29.3207   20.9689 N   0  0  0  0  0  0  0  0  0  0  0  0
  -22.3309  -19.9272   20.1253 N   0  0  0  0  0  0  0  0  0  0  0  0
  -26.3913  -21.8758   21.5766 N   0  0  0  0  0  0  0  0  0  0  0  0
  -30.5201  -20.1337   21.0160 N   0  0  0  0  0  0  0  0  0  0  0  0
  -28.8017  -27.0635   19.0817 N   0  0  0  0  0  0  0  0  0  0  0  0
  -26.1441  -32.1412   22.7716 N   0  0  0  0  0  0  0  0  0  0  0  0
  -20.2342  -21.0038   19.9188 N   0  0  0  0  0  0  0  0  0  0  0  0
  -23.0181  -33.8501   22.1590 N   0  3  0  0  0  0  0  0  0  0  0  0
  -29.3540  -22.0654   21.4252 O   0  0  0  0  0  0  0  0  0  0  0  0
  -28.2318  -27.3454   21.3218 O   0  0  0  0  0  0  0  0  0  0  0  0
  -28.1541  -31.0997   21.0156 O   0  0  0  0  0  0  0  0  0  0  0  0
  -23.9854  -31.4468   23.2565 O   0  0  0  0  0  0  0  0  0  0  0  0
  -22.1606  -22.1012   19.3361 O   0  0  0  0  0  0  0  0  0  0  0  0
  -31.7345  -14.7811   20.0621 O   0  0  0  0  0  0  0  0  0  0  0  0
  -21.9607  -25.3125   21.1063 O   0  0  0  0  0  0  0  0  0  1  0  0
  -30.7883  -11.1382   16.0325 F   0  0  0  0  0  0  0  0  0  0  0  0
  -33.4715  -14.5481   17.9241 F   0  0  0  0  0  0  0  0  0  0  0  0
  1  2  1  0  0  0  0
  1  5  2  0  0  0  0
  2  6  2  0  0  0  0
  3  8  2  0  0  0  0
  3 16  1  0  0  0  0
  4  9  1  0  0  0  0
  4 16  2  0  0  0  0
  5 18  1  0  0  0  0
  6 20  1  0  0  0  0
  7 10  2  0  0  0  0
  7 19  1  0  0  0  0
  8 22  1  0  0  0  0
  9 22  2  0  0  0  0
 10 23  1  0  0  0  0
 11 12  2  0  0  0  0
 11 24  1  0  0  0  0
 12 25  1  0  0  0  0
 13 21  1  0  0  0  0
 13 23  2  0  0  0  0
 14 25  2  0  0  0  0
 14 26  1  0  0  0  0
 15 28  2  0  0  0  0
 15 65  1  0  0  0  0
 16 27  1  0  0  0  0
 17 27  1  0  0  0  0
 17 29  2  0  0  0  0
 17 31  1  0  0  0  0
 18 20  2  0  0  0  0
 18 36  1  0  0  0  0
 19 21  2  0  0  0  0
 19 37  1  0  0  0  0
 20 45  1  0  0  0  0
 21 38  1  0  0  0  0
 22 81  1  0  0  0  0
 23 82  1  0  0  0  0
 24 26  2  0  0  0  0
 24 81  1  0  0  0  0
 25 83  1  0  0  0  0
 26 84  1  0  0  0  0
 27 64  2  0  0  0  0
 28 48  1  0  0  0  0
 28 67  1  0  0  0  0
 29 66  1  0  0  0  0
 29 70  1  0  0  0  0
 30 62  1  0  0  0  0
 30 65  1  0  0  0  0
 30 67  2  0  0  0  0
 31 71  1  0  0  0  0
 31 76  2  0  0  0  0
 32 46  1  0  0  0  0
 32 72  1  0  0  0  0
 32 77  2  0  0  0  0
 33 60  1  0  0  0  0
 33 68  1  0  0  0  0
 33 78  2  0  0  0  0
 34 61  1  0  0  0  0
 34 73  1  0  0  0  0
 34 79  2  0  0  0  0
 35 69  1  0  0  0  0
 35 74  1  0  0  0  0
 35 80  2  0  0  0  0
 36 39  1  0  0  0  0
 37 46  1  0  0  0  0
 38 68  1  0  0  0  0
 39 41  1  0  0  0  0
 40 42  1  0  0  0  0
 40 43  1  0  0  0  0
 41 45  1  0  0  0  0
 42 47  1  0  0  0  0
 43 69  1  0  0  0  0
 44 47  1  0  0  0  0
 44 69  1  0  0  0  0
 45 72  1  0  0  0  0
 46 68  1  0  0  0  0
 47 66  1  0  0  0  0
 49 61  1  0  0  0  0
 50 62  1  0  0  0  0
 51 62  1  0  0  0  0
 52 63  1  0  0  0  0
 53 63  1  0  0  0  0
 54 63  1  0  0  0  0
 55 75  1  0  0  0  0
 56 57  1  0  0  0  0
 56 59  1  0  0  0  0
 57 65  1  0  0  0  0
 58 62  1  0  0  0  0
 58 74  1  0  0  0  0
 59 82  1  0  0  0  0
 60 63  1  0  0  0  0
 60 73  1  0  0  0  0
 61 75  1  0  0  0  0
 64 66  1  0  0  0  0
M  CHG  2  67   1  75   1
M  ISO  4  35 100  59 101  74 100  82 101
M  END
> <Batch ID>
0047

> <Smiles>
CNC(C)C(=O)NC(C(=O)N1Cc2cc([101O:1][101CH2:1]CCn3cc(C)nc3C(C)(C)C[100NH:0][100C:0](=O)N3CCCC(n4nc(-c5ccc(Oc6ccc(F)cc6F)cc5)c(C(N)=O)c4N)C3)ccc2CC1C(=O)NC1CCCc2ccccc21)C(C)(C)C

> <Shape>
0.213

> <Color>
0.046

> <Negative vol penalty>
0.000

$$$$

  -OEChem-04052317243D

 85 93  0     1  0  0  0  0  0999 V2000
  -36.0139  -23.9580   25.3559 C   0  0  0  0  0  0  0  0  0  0  0  0
  -35.0022  -23.0707   25.0028 C   0  0  0  0  0  0  0  0  0  0  0  0
  -23.2906   -9.7988   19.9268 C   0  0  0  0  0  0  0  0  0  0  0  0
  -23.7486   -9.9551   22.2939 C   0  0  0  0  0  0  0  0  0  0  0  0
  -35.6908  -25.2195   25.8539 C   0  0  0  0  0  0  0  0  0  0  0  0
  -33.6666  -23.4442   25.1487 C   0  0  0  0  0  0  0  0  0  0  0  0
  -30.8551  -22.2174   21.1194 C   0  0  0  0  0  0  0  0  0  0  0  0
  -22.5659   -8.6270   20.1444 C   0  0  0  0  0  0  0  0  0  0  0  0
  -23.0238   -8.7834   22.5115 C   0  0  0  0  0  0  0  0  0  0  0  0
  -30.4620  -20.8852   20.9991 C   0  0  0  0  0  0  0  0  0  0  0  0
  -20.9907   -6.0294   23.7365 C   0  0  0  0  0  0  0  0  0  0  0  0
  -20.0925   -6.0103   24.8034 C   0  0  0  0  0  0  0  0  0  0  0  0
  -28.2890  -21.4533   21.8793 C   0  0  0  0  0  0  0  0  0  0  0  0
  -29.5451  -18.8548   24.8479 C   0  0  0  0  0  0  0  0  0  0  0  0
  -18.8784   -7.8500   23.8142 C   0  0  0  0  0  0  0  0  0  0  0  0
  -23.8820  -10.4628   21.0016 C   0  0  0  0  0  0  0  0  0  0  0  0
  -24.1387  -12.9917   20.7858 C   0  0  0  0  0  0  0  0  0  0  0  0
  -34.3506  -25.6122   25.9969 C   0  0  0  0  0  0  0  0  0  0  0  0
  -29.9703  -23.1771   21.6316 C   0  0  0  0  0  0  0  0  0  0  0  0
  -33.3253  -24.7116   25.6504 C   0  0  0  0  0  0  0  0  0  0  0  0
  -28.6725  -22.7974   22.0026 C   0  0  0  0  0  0  0  0  0  0  0  0
  -30.4384  -19.2123   25.8517 C   0  0  0  0  0  0  0  0  0  0  0  0
  -29.4894  -17.5356   24.4121 C   0  0  0  0  0  0  0  0  0  0  0  0
  -22.4324   -8.1193   21.4367 C   0  0  0  0  0  0  0  0  0  0  0  0
  -29.1797  -20.5024   21.3817 C   0  0  0  0  0  0  0  0  0  0  0  0
  -20.8329   -6.9589   22.7084 C   0  0  0  0  0  0  0  0  0  0  0  0
  -19.0363   -6.9206   24.8422 C   0  0  0  0  0  0  0  0  0  0  0  0
  -19.7767   -7.8692   22.7472 C   0  0  0  0  0  0  0  0  0  0  0  0
  -24.6313  -11.6729   20.7774 C   0  0  0  0  0  0  0  0  0  0  0  0
  -31.2477  -18.2210   26.3829 C   0  0  0  0  0  0  0  0  0  0  0  0
  -30.3414  -16.6194   25.0075 C   0  0  0  0  0  0  0  0  0  0  0  0
  -25.2387  -13.7708   20.5224 C   0  0  0  0  0  0  0  0  0  0  0  0
  -22.8060  -13.4696   21.0116 C   0  0  0  0  0  0  0  0  0  0  0  0
  -29.9635  -25.0957   24.1659 C   0  0  0  0  0  0  0  0  0  0  0  0
  -27.2763  -26.2720   22.7812 C   0  0  0  0  0  0  0  0  0  0  0  0
  -24.6437  -25.7624   20.6701 C   0  0  0  0  0  0  0  0  0  0  0  0
  -31.1129  -12.9379   21.3292 C   0  0  0  0  0  0  0  0  0  0  0  0
  -34.0503  -26.9685   26.5842 C   0  0  0  0  0  0  0  0  0  0  0  0
  -30.4008  -24.6150   21.7300 C   0  0  0  0  0  0  0  0  0  0  0  0
  -27.6779  -23.7930   22.5394 C   0  0  0  0  0  0  0  0  0  0  0  0
  -32.6120  -27.4261   26.3560 C   0  0  0  0  0  0  0  0  0  0  0  0
  -29.4539  -13.6561   18.2619 C   0  0  0  0  0  0  0  0  0  0  0  0
  -31.6355  -26.3006   26.6827 C   0  0  0  0  0  0  0  0  0  0  0  0
  -27.9854  -13.3483   18.5595 C   0  0  0  0  0  0  0  0  0  0  0  0
  -30.3902  -12.6820   18.9736 C   0  0  0  0  0  0  0  0  0  0  0  0
  -28.7094  -12.2626   20.7265 C   0  0  0  0  0  0  0  0  0  0  0  0
  -31.8648  -25.0893   25.7708 C   0  0  1  0  0  0  0  0  0  0  0  0
  -29.5895  -25.4134   22.7457 C   0  0  1  0  0  0  0  0  0  0  0  0
  -27.7286  -13.2528   20.0755 C   0  0  2  0  0  0  0  0  0  0  0  0
  -30.5029  -20.6239   26.3232 C   0  0  0  0  0  0  0  0  0  0  0  0
  -32.2271  -18.5463   27.4627 C   0  0  0  0  0  0  0  0  0  0  0  0
  -22.5924  -26.8939   19.7705 C   0  0  0  0  0  0  0  0  0  0  0  0
  -25.8461  -25.7809   25.4313 C   0  0  0  0  0  0  0  0  0  0  0  0
  -23.6679  -26.0151   24.2194 C   0  0  0  0  0  0  0  0  0  0  0  0
  -25.2552  -27.9373   24.3110 C   0  0  0  0  0  0  0  0  0  0  0  0
  -25.6354  -25.6033   17.8861 C   0  0  0  0  0  0  0  0  0  0  0  0
  -28.5232  -17.1414   23.3236 C   0  0  0  0  0  0  0  0  0  0  0  0
  -30.3236  -15.1884   24.5797 C   0  0  0  0  0  0  0  0  0  0  0  0
  -29.1832  -16.9386   21.9580 C   0  0  0  0  0  0  0  0  0  0  0  0
  -31.6903  -14.6448   24.1215 C   0  0  0  0  0  0  0  0  0  0  0  0
  -31.6821  -13.1677   23.7339 C   0  0  0  0  0  0  0  0  0  0  0  0
  -29.8098  -18.2092   21.3956 C   0  0  0  0  0  0  0  0  0  1  0  0
  -25.8044  -25.9447   22.8550 C   0  0  1  0  0  0  0  0  0  0  0  0
  -24.0708  -26.6130   19.5508 C   0  0  2  0  0  0  0  0  0  0  0  0
  -25.1625  -26.4001   24.1959 C   0  0  0  0  0  0  0  0  0  0  0  0
  -25.9422  -11.6138   20.5281 N   0  0  0  0  0  0  0  0  0  0  0  0
  -31.2222  -16.9292   25.9852 N   0  0  0  0  0  0  0  0  0  0  0  0
  -26.2826  -12.9051   20.3774 N   0  0  0  0  0  0  0  0  0  0  0  0
  -28.1483  -25.1856   22.6226 N   0  0  0  0  0  0  0  0  0  0  0  0
  -30.0954  -12.6397   20.4079 N   0  0  0  0  0  0  0  0  0  0  0  0
  -25.4052  -15.1051   20.4027 N   0  0  0  0  0  0  0  0  0  0  0  0
  -21.7949  -12.5335   21.2683 N   0  0  0  0  0  0  0  0  0  0  0  0
  -31.2933  -25.3262   24.4625 N   0  0  0  0  0  0  0  0  0  0  0  0
  -25.1946  -26.5367   21.6692 N   0  0  0  0  0  0  0  0  0  0  0  0
  -30.7474  -12.8807   22.6686 N   0  0  0  0  0  0  0  0  0  0  0  0
  -24.2280  -25.9198   18.2410 N   0  3  0  0  0  0  0  0  0  0  0  0
  -22.5170  -14.6896   20.9703 O   0  0  0  0  0  0  0  0  0  0  0  0
  -29.1085  -24.6741   24.9360 O   0  0  0  0  0  0  0  0  0  0  0  0
  -27.6384  -27.4490   22.8542 O   0  0  0  0  0  0  0  0  0  0  0  0
  -24.6031  -24.5341   20.6608 O   0  0  0  0  0  0  0  0  0  0  0  0
  -32.2606  -13.2384   20.9835 O   0  0  0  0  0  0  0  0  0  0  0  0
  -21.7251   -6.9761   21.6495 O   0  0  0  0  0  0  0  0  0  0  0  0
  -28.7936  -19.2026   21.2660 O   0  0  0  0  0  0  0  0  0  1  0  0
  -18.1728   -6.9011   25.8661 F   0  0  0  0  0  0  0  0  0  0  0  0
  -19.6192   -8.7637   21.7619 F   0  0  0  0  0  0  0  0  0  0  0  0
  1  2  1  0  0  0  0
  1  5  2  0  0  0  0
  2  6  2  0  0  0  0
  3  8  2  0  0  0  0
  3 16  1  0  0  0  0
  4  9  1  0  0  0  0
  4 16  2  0  0  0  0
  5 18  1  0  0  0  0
  6 20  1  0  0  0  0
  7 10  2  0  0  0  0
  7 19  1  0  0  0  0
  8 24  1  0  0  0  0
  9 24  2  0  0  0  0
 10 25  1  0  0  0  0
 11 12  2  0  0  0  0
 11 26  1  0  0  0  0
 12 27  1  0  0  0  0
 13 21  1  0  0  0  0
 13 25  2  0  0  0  0
 14 22  2  0  0  0  0
 14 23  1  0  0  0  0
 15 27  2  0  0  0  0
 15 28  1  0  0  0  0
 16 29  1  0  0  0  0
 17 29  1  0  0  0  0
 17 32  2  0  0  0  0
 17 33  1  0  0  0  0
 18 20  2  0  0  0  0
 18 38  1  0  0  0  0
 19 21  2  0  0  0  0
 19 39  1  0  0  0  0
 20 47  1  0  0  0  0
 21 40  1  0  0  0  0
 22 30  1  0  0  0  0
 22 50  1  0  0  0  0
 23 31  2  0  0  0  0
 23 57  1  0  0  0  0
 24 82  1  0  0  0  0
 25 83  1  0  0  0  0
 26 28  2  0  0  0  0
 26 82  1  0  0  0  0
 27 84  1  0  0  0  0
 28 85  1  0  0  0  0
 29 66  2  0  0  0  0
 30 51  1  0  0  0  0
 30 67  2  0  0  0  0
 31 58  1  0  0  0  0
 31 67  1  0  0  0  0
 32 68  1  0  0  0  0
 32 71  1  0  0  0  0
 33 72  1  0  0  0  0
 33 77  2  0  0  0  0
 34 48  1  0  0  0  0
 34 73  1  0  0  0  0
 34 78  2  0  0  0  0
 35 63  1  0  0  0  0
 35 69  1  0  0  0  0
 35 79  2  0  0  0  0
 36 64  1  0  0  0  0
 36 74  1  0  0  0  0
 36 80  2  0  0  0  0
 37 70  1  0  0  0  0
 37 75  1  0  0  0  0
 37 81  2  0  0  0  0
 38 41  1  0  0  0  0
 39 48  1  0  0  0  0
 40 69  1  0  0  0  0
 41 43  1  0  0  0  0
 42 44  1  0  0  0  0
 42 45  1  0  0  0  0
 43 47  1  0  0  0  0
 44 49  1  0  0  0  0
 45 70  1  0  0  0  0
 46 49  1  0  0  0  0
 46 70  1  0  0  0  0
 47 73  1  0  0  0  0
 48 69  1  0  0  0  0
 49 68  1  0  0  0  0
 52 64  1  0  0  0  0
 53 65  1  0  0  0  0
 54 65  1  0  0  0  0
 55 65  1  0  0  0  0
 56 76  1  0  0  0  0
 57 59  1  0  0  0  0
 58 60  1  0  0  0  0
 59 62  1  0  0  0  0
 60 61  1  0  0  0  0
 61 75  1  0  0  0  0
 62 83  1  0  0  0  0
 63 65  1  0  0  0  0
 63 74  1  0  0  0  0
 64 76  1  0  0  0  0
 66 68  1  0  0  0  0
M  CHG  1  76   1
M  ISO  4  37 100  62 101  75 100  83 101
M  END
> <Batch ID>
0047

> <Smiles>
CNC(C)C(=O)NC(C(=O)N1Cc2cc([101O:1][101CH2:1]CCc3cc(C)c(C)nc3CCC[100NH:0][100C:0](=O)N3CCCC(n4nc(-c5ccc(Oc6ccc(F)cc6F)cc5)c(C(N)=O)c4N)C3)ccc2CC1C(=O)NC1CCCc2ccccc21)C(C)(C)C

> <Shape>
0.185

> <Color>
0.178

> <Negative vol penalty>
0.000

$$$$

  -OEChem-04052317243D

 75 82  0     1  0  0  0  0  0999 V2000
  -26.9855  -10.0398   37.1854 C   0  0  0  0  0  0  0  0  0  0  0  0
  -27.6302  -11.0810   36.5253 C   0  0  0  0  0  0  0  0  0  0  0  0
  -23.2888   -9.7995   19.9126 C   0  0  0  0  0  0  0  0  0  0  0  0
  -23.7392   -9.9397   22.2821 C   0  0  0  0  0  0  0  0  0  0  0  0
  -26.4813   -8.9618   36.4592 C   0  0  0  0  0  0  0  0  0  0  0  0
  -27.7721  -11.0441   35.1386 C   0  0  0  0  0  0  0  0  0  0  0  0
  -27.9999  -15.3695   29.4329 C   0  0  0  0  0  0  0  0  0  0  0  0
  -22.5625   -8.6269   20.1199 C   0  0  0  0  0  0  0  0  0  0  0  0
  -23.0129   -8.7671   22.4895 C   0  0  0  0  0  0  0  0  0  0  0  0
  -28.7950  -15.6452   28.3213 C   0  0  0  0  0  0  0  0  0  0  0  0
  -20.9737   -6.0066   23.6894 C   0  0  0  0  0  0  0  0  0  0  0  0
  -20.0720   -5.9810   24.7532 C   0  0  0  0  0  0  0  0  0  0  0  0
  -27.8144  -13.7704   27.1626 C   0  0  0  0  0  0  0  0  0  0  0  0
  -18.8625   -7.8283   23.7724 C   0  0  0  0  0  0  0  0  0  0  0  0
  -23.8773  -10.4559   20.9936 C   0  0  0  0  0  0  0  0  0  0  0  0
  -24.1365  -12.9859   20.7956 C   0  0  0  0  0  0  0  0  0  0  0  0
  -26.6085   -8.9163   35.0619 C   0  0  0  0  0  0  0  0  0  0  0  0
  -27.1124  -14.2839   29.4216 C   0  0  0  0  0  0  0  0  0  0  0  0
  -27.2703   -9.9637   34.3932 C   0  0  0  0  0  0  0  0  0  0  0  0
  -27.0072  -13.4847   28.2743 C   0  0  0  0  0  0  0  0  0  0  0  0
  -22.4245   -8.1107   21.4084 C   0  0  0  0  0  0  0  0  0  0  0  0
  -28.7044  -14.8438   27.1870 C   0  0  0  0  0  0  0  0  0  0  0  0
  -20.8199   -6.9430   22.6671 C   0  0  0  0  0  0  0  0  0  0  0  0
  -19.0163   -6.8918   24.7947 C   0  0  0  0  0  0  0  0  0  0  0  0
  -19.7643   -7.8538   22.7086 C   0  0  0  0  0  0  0  0  0  0  0  0
  -24.6282  -11.6669   20.7799 C   0  0  0  0  0  0  0  0  0  0  0  0
  -25.2380  -13.7659   20.5409 C   0  0  0  0  0  0  0  0  0  0  0  0
  -22.8034  -13.4634   21.0203 C   0  0  0  0  0  0  0  0  0  0  0  0
  -26.8151  -11.6120   31.1177 C   0  0  0  0  0  0  0  0  0  0  0  0
  -24.0868  -11.2835   29.3941 C   0  0  0  0  0  0  0  0  0  0  0  0
  -22.3398  -12.0419   26.5623 C   0  0  0  0  0  0  0  0  0  0  0  0
  -31.1089  -12.9231   21.3613 C   0  0  0  0  0  0  0  0  0  0  0  0
  -26.0892   -7.7074   34.3246 C   0  0  0  0  0  0  0  0  0  0  0  0
  -26.2423  -14.0160   30.6190 C   0  0  0  0  0  0  0  0  0  0  0  0
  -26.0555  -12.3194   28.2041 C   0  0  0  0  0  0  0  0  0  0  0  0
  -25.9500   -7.9248   32.8201 C   0  0  0  0  0  0  0  0  0  0  0  0
  -29.4604  -13.6631   18.2934 C   0  0  0  0  0  0  0  0  0  0  0  0
  -27.2026   -8.5905   32.2588 C   0  0  0  0  0  0  0  0  0  0  0  0
  -27.9907  -13.3544   18.5842 C   0  0  0  0  0  0  0  0  0  0  0  0
  -30.3937  -12.6836   19.0017 C   0  0  0  0  0  0  0  0  0  0  0  0
  -28.7068  -12.2537   20.7463 C   0  0  0  0  0  0  0  0  0  0  0  0
  -27.4220   -9.9718   32.8875 C   0  0  1  0  0  0  0  0  0  0  0  0
  -25.7456  -12.5751   30.6862 C   0  0  1  0  0  0  0  0  0  0  0  0
  -27.7289  -13.2490   20.0987 C   0  0  2  0  0  0  0  0  0  0  0  0
  -20.1510  -11.5954   25.4190 C   0  0  0  0  0  0  0  0  0  0  0  0
  -25.0703   -8.5060   28.6013 C   0  0  0  0  0  0  0  0  0  0  0  0
  -23.3698   -8.5047   26.7637 C   0  0  0  0  0  0  0  0  0  0  0  0
  -22.6322   -8.6340   29.1432 C   0  0  0  0  0  0  0  0  0  0  0  0
  -21.6012  -14.9075   26.6033 C   0  0  0  0  0  0  0  0  0  0  0  0
  -31.6704  -13.1363   23.7693 C   0  0  0  0  0  0  0  0  0  0  0  0
  -29.8589  -14.0019   25.2859 C   0  0  0  0  0  0  0  0  0  1  0  0
  -23.7265  -10.6466   28.0737 C   0  0  1  0  0  0  0  0  0  0  0  0
  -20.9135  -12.5191   26.3560 C   0  0  2  0  0  0  0  0  0  0  0  0
  -31.2022  -14.3046   24.6317 C   0  0  1  0  0  0  0  0  0  0  0  0
  -23.7191   -9.0935   28.1472 C   0  0  0  0  0  0  0  0  0  0  0  0
  -25.9398  -11.6084   20.5346 N   0  0  0  0  0  0  0  0  0  0  0  0
  -26.2817  -12.9004   20.3936 N   0  0  0  0  0  0  0  0  0  0  0  0
  -25.2306  -12.0943   29.4025 N   0  0  0  0  0  0  0  0  0  0  0  0
  -30.0942  -12.6318   20.4347 N   0  0  0  0  0  0  0  0  0  0  0  0
  -25.4059  -15.1009   20.4308 N   0  0  0  0  0  0  0  0  0  0  0  0
  -21.7909  -12.5264   21.2674 N   0  0  0  0  0  0  0  0  0  0  0  0
  -26.5303  -10.9448   32.2937 N   0  0  0  0  0  0  0  0  0  0  0  0
  -22.4518  -11.2319   27.6725 N   0  0  0  0  0  0  0  0  0  0  0  0
  -30.7390  -12.8573   22.6990 N   0  0  0  0  0  0  0  0  0  0  0  0
  -20.9054  -13.8907   25.7733 N   0  3  0  0  0  0  0  0  0  0  0  0
  -22.5155  -14.6839   20.9862 O   0  0  0  0  0  0  0  0  0  0  0  0
  -27.8235  -11.4826   30.4334 O   0  0  0  0  0  0  0  0  0  0  0  0
  -23.3754  -11.0751   30.3801 O   0  0  0  0  0  0  0  0  0  0  0  0
  -23.2615  -12.3534   25.8113 O   0  0  0  0  0  0  0  0  0  0  0  0
  -32.2579  -13.2250   21.0214 O   0  0  0  0  0  0  0  0  0  0  0  0
  -32.1546  -14.5262   25.6736 O   0  0  0  0  0  0  0  0  0  0  0  0
  -21.7156   -6.9666   21.6112 O   0  0  0  0  0  0  0  0  0  0  0  0
  -29.4798  -15.1102   26.1009 O   0  0  0  0  0  0  0  0  0  1  0  0
  -18.1495   -6.8662   25.8156 F   0  0  0  0  0  0  0  0  0  0  0  0
  -19.6107   -8.7550   21.7287 F   0  0  0  0  0  0  0  0  0  0  0  0
  1  2  1  0  0  0  0
  1  5  2  0  0  0  0
  2  6  2  0  0  0  0
  3  8  2  0  0  0  0
  3 15  1  0  0  0  0
  4  9  1  0  0  0  0
  4 15  2  0  0  0  0
  5 17  1  0  0  0  0
  6 19  1  0  0  0  0
  7 10  2  0  0  0  0
  7 18  1  0  0  0  0
  8 21  1  0  0  0  0
  9 21  2  0  0  0  0
 10 22  1  0  0  0  0
 11 12  2  0  0  0  0
 11 23  1  0  0  0  0
 12 24  1  0  0  0  0
 13 20  1  0  0  0  0
 13 22  2  0  0  0  0
 14 24  2  0  0  0  0
 14 25  1  0  0  0  0
 15 26  1  0  0  0  0
 16 26  1  0  0  0  0
 16 27  2  0  0  0  0
 16 28  1  0  0  0  0
 17 19  2  0  0  0  0
 17 33  1  0  0  0  0
 18 20  2  0  0  0  0
 18 34  1  0  0  0  0
 19 42  1  0  0  0  0
 20 35  1  0  0  0  0
 21 72  1  0  0  0  0
 22 73  1  0  0  0  0
 23 25  2  0  0  0  0
 23 72  1  0  0  0  0
 24 74  1  0  0  0  0
 25 75  1  0  0  0  0
 26 56  2  0  0  0  0
 27 57  1  0  0  0  0
 27 60  1  0  0  0  0
 28 61  1  0  0  0  0
 28 66  2  0  0  0  0
 29 43  1  0  0  0  0
 29 62  1  0  0  0  0
 29 67  2  0  0  0  0
 30 52  1  0  0  0  0
 30 58  1  0  0  0  0
 30 68  2  0  0  0  0
 31 53  1  0  0  0  0
 31 63  1  0  0  0  0
 31 69  2  0  0  0  0
 32 59  1  0  0  0  0
 32 64  1  0  0  0  0
 32 70  2  0  0  0  0
 33 36  1  0  0  0  0
 34 43  1  0  0  0  0
 35 58  1  0  0  0  0
 36 38  1  0  0  0  0
 37 39  1  0  0  0  0
 37 40  1  0  0  0  0
 38 42  1  0  0  0  0
 39 44  1  0  0  0  0
 40 59  1  0  0  0  0
 41 44  1  0  0  0  0
 41 59  1  0  0  0  0
 42 62  1  0  0  0  0
 43 58  1  0  0  0  0
 44 57  1  0  0  0  0
 45 53  1  0  0  0  0
 46 55  1  0  0  0  0
 47 55  1  0  0  0  0
 48 55  1  0  0  0  0
 49 65  1  0  0  0  0
 50 54  1  0  0  0  0
 50 64  1  0  0  0  0
 51 54  1  0  0  0  0
 51 73  1  0  0  0  0
 52 55  1  0  0  0  0
 52 63  1  0  0  0  0
 53 65  1  0  0  0  0
 54 71  1  0  0  0  0
 56 57  1  0  0  0  0
M  CHG  1  65   1
M  ISO  4  32 100  51 101  64 100  73 101
M  END
> <Batch ID>
0047

> <Smiles>
CNC(C)C(=O)NC(C(=O)N1Cc2cc([101O:1][101CH2:1]C(O)C[100NH:0][100C:0](=O)N3CCCC(n4nc(-c5ccc(Oc6ccc(F)cc6F)cc5)c(C(N)=O)c4N)C3)ccc2CC1C(=O)NC1CCCc2ccccc21)C(C)(C)C

> <Shape>
0.133

> <Color>
0.178

> <Negative vol penalty>
0.000

$$$$

  -OEChem-04052317243D

 81 89  0     1  0  0  0  0  0999 V2000
  -30.3312  -24.7888   16.9066 C   0  0  0  0  0  0  0  0  0  0  0  0
  -29.0954  -24.7274   17.5425 C   0  0  0  0  0  0  0  0  0  0  0  0
  -27.2596  -19.4237   21.5611 C   0  0  0  0  0  0  0  0  0  0  0  0
  -27.1817  -19.8032   19.1764 C   0  0  0  0  0  0  0  0  0  0  0  0
  -31.3582  -25.5567   17.4539 C   0  0  0  0  0  0  0  0  0  0  0  0
  -28.8863  -25.4330   18.7270 C   0  0  0  0  0  0  0  0  0  0  0  0
  -24.4542  -27.8824   18.7724 C   0  0  0  0  0  0  0  0  0  0  0  0
  -28.4717  -18.7495   21.4143 C   0  0  0  0  0  0  0  0  0  0  0  0
  -28.3939  -19.1290   19.0295 C   0  0  0  0  0  0  0  0  0  0  0  0
  -23.3115  -27.1263   19.0296 C   0  0  0  0  0  0  0  0  0  0  0  0
  -30.1934  -15.7003   20.8732 C   0  0  0  0  0  0  0  0  0  0  0  0
  -30.1482  -14.3230   20.6571 C   0  0  0  0  0  0  0  0  0  0  0  0
  -23.3328  -27.8841   21.3197 C   0  0  0  0  0  0  0  0  0  0  0  0
  -30.0687  -14.6999   18.2720 C   0  0  0  0  0  0  0  0  0  0  0  0
  -19.1859  -24.9490   22.3112 C   0  0  0  0  0  0  0  0  0  0  0  0
  -26.6145  -19.9506   20.4422 C   0  0  0  0  0  0  0  0  0  0  0  0
  -25.1766  -22.0239   20.8182 C   0  0  0  0  0  0  0  0  0  0  0  0
  -31.1586  -26.2797   18.6405 C   0  0  0  0  0  0  0  0  0  0  0  0
  -25.0522  -28.6377   19.7915 C   0  0  0  0  0  0  0  0  0  0  0  0
  -29.9120  -26.2102   19.2914 C   0  0  0  0  0  0  0  0  0  0  0  0
  -24.4816  -28.6509   21.0722 C   0  0  0  0  0  0  0  0  0  0  0  0
  -19.2348  -24.7853   20.9418 C   0  0  0  0  0  0  0  0  0  0  0  0
  -29.0389  -18.6021   20.1485 C   0  0  0  0  0  0  0  0  0  0  0  0
  -22.7522  -27.1247   20.3041 C   0  0  0  0  0  0  0  0  0  0  0  0
  -30.1762  -16.5774   19.7887 C   0  0  0  0  0  0  0  0  0  0  0  0
  -30.0858  -13.8228   19.3566 C   0  0  0  0  0  0  0  0  0  0  0  0
  -30.1139  -16.0771   18.4881 C   0  0  0  0  0  0  0  0  0  0  0  0
  -25.3620  -20.6467   20.5932 C   0  0  0  0  0  0  0  0  0  0  0  0
  -19.1996  -23.4802   20.4949 C   0  0  0  0  0  0  0  0  0  0  0  0
  -23.8138  -22.1802   20.8867 C   0  0  0  0  0  0  0  0  0  0  0  0
  -19.0810  -22.7003   22.6268 C   0  0  0  0  0  0  0  0  0  0  0  0
  -26.1494  -23.0685   20.9531 C   0  0  0  0  0  0  0  0  0  0  0  0
  -27.8879  -28.6201   21.2274 C   0  0  0  0  0  0  0  0  0  0  0  0
  -26.7426  -31.2942   22.6626 C   0  0  0  0  0  0  0  0  0  0  0  0
  -24.0322  -33.1215   23.6432 C   0  0  0  0  0  0  0  0  0  0  0  0
  -18.9613  -20.2403   23.1011 C   0  0  0  0  0  0  0  0  0  0  0  0
  -32.3135  -27.0581   19.2193 C   0  0  0  0  0  0  0  0  0  0  0  0
  -26.2691  -29.4691   19.4911 C   0  0  0  0  0  0  0  0  0  0  0  0
  -25.0734  -29.4609   22.1957 C   0  0  0  0  0  0  0  0  0  0  0  0
  -31.8932  -28.0751   20.2773 C   0  0  0  0  0  0  0  0  0  0  0  0
  -20.0403  -19.0178   19.7793 C   0  0  0  0  0  0  0  0  0  0  0  0
  -30.9204  -27.4436   21.2682 C   0  0  0  0  0  0  0  0  0  0  0  0
  -21.5260  -19.3721   19.7535 C   0  0  0  0  0  0  0  0  0  0  0  0
  -19.5422  -18.7681   21.1996 C   0  0  0  0  0  0  0  0  0  0  0  0
  -21.3013  -20.2584   22.1084 C   0  0  0  0  0  0  0  0  0  0  0  0
  -29.6388  -26.9812   20.5646 C   0  0  1  0  0  0  0  0  0  0  0  0
  -27.0917  -29.7950   20.7339 C   0  0  1  0  0  0  0  0  0  0  0  0
  -21.8181  -20.5541   20.6925 C   0  0  1  0  0  0  0  0  0  0  0  0
  -19.2484  -23.1824   19.0326 C   0  0  0  0  0  0  0  0  0  0  0  0
  -23.4121  -35.2452   24.8276 C   0  0  0  0  0  0  0  0  0  0  0  0
  -27.4185  -29.9957   25.3397 C   0  0  0  0  0  0  0  0  0  0  0  0
  -25.9460  -31.6871   26.4528 C   0  0  0  0  0  0  0  0  0  0  0  0
  -27.9667  -32.4314   25.1937 C   0  0  0  0  0  0  0  0  0  0  0  0
  -18.6812  -21.8532   24.9318 C   0  0  0  0  0  0  0  0  0  0  0  0
  -22.6512  -34.1880   21.2528 C   0  0  0  0  0  0  0  0  0  0  0  0
  -19.3205  -25.9739   20.0154 C   0  0  0  0  0  0  0  0  0  0  0  0
  -20.7302  -26.1871   19.4746 C   0  0  0  0  0  0  0  0  0  1  0  0
  -25.9562  -31.5799   23.9191 C   0  0  1  0  0  0  0  0  0  0  0  0
  -23.6988  -34.5938   23.4836 C   0  0  2  0  0  0  0  0  0  0  0  0
  -26.8116  -31.4066   25.2059 C   0  0  0  0  0  0  0  0  0  0  0  0
  -19.1084  -23.9250   23.1862 N   0  0  0  0  0  0  0  0  0  0  0  0
  -24.2091  -19.9758   20.5236 N   0  0  0  0  0  0  0  0  0  0  0  0
  -19.1227  -22.4097   21.3125 N   0  0  0  0  0  0  0  0  0  0  0  0
  -23.2862  -20.9356   20.7060 N   0  0  0  0  0  0  0  0  0  0  0  0
  -26.2667  -30.2524   21.8539 N   0  0  0  0  0  0  0  0  0  0  0  0
  -19.8801  -19.8751   22.0958 N   0  0  0  0  0  0  0  0  0  0  0  0
  -23.0272  -23.2596   21.0835 N   0  0  0  0  0  0  0  0  0  0  0  0
  -27.5069  -22.7339   20.8563 N   0  0  0  0  0  0  0  0  0  0  0  0
  -28.7735  -28.1101   20.2973 N   0  0  0  0  0  0  0  0  0  0  0  0
  -25.3911  -32.9145   23.7525 N   0  0  0  0  0  0  0  0  0  0  0  0
  -18.9987  -21.5802   23.5319 N   0  0  0  0  0  0  0  0  0  0  0  0
  -22.4999  -34.7622   22.6145 N   0  3  0  0  0  0  0  0  0  0  0  0
  -25.8249  -24.2607   21.1700 O   0  0  0  0  0  0  0  0  0  0  0  0
  -27.7128  -28.2079   22.3680 O   0  0  0  0  0  0  0  0  0  0  0  0
  -27.7382  -31.9752   22.4043 O   0  0  0  0  0  0  0  0  0  0  0  0
  -23.1729  -32.2432   23.6721 O   0  0  0  0  0  0  0  0  0  0  0  0
  -18.1975  -19.4169   23.6199 O   0  0  0  0  0  0  0  0  0  0  0  0
  -30.2219  -17.9444   20.0048 O   0  0  0  0  0  0  0  0  0  0  0  0
  -21.6372  -26.3871   20.5579 O   0  0  0  0  0  0  0  0  0  1  0  0
  -30.0440  -12.5002   19.1491 F   0  0  0  0  0  0  0  0  0  0  0  0
  -30.0982  -16.9148   17.4422 F   0  0  0  0  0  0  0  0  0  0  0  0
  1  2  1  0  0  0  0
  1  5  2  0  0  0  0
  2  6  2  0  0  0  0
  3  8  2  0  0  0  0
  3 16  1  0  0  0  0
  4  9  1  0  0  0  0
  4 16  2  0  0  0  0
  5 18  1  0  0  0  0
  6 20  1  0  0  0  0
  7 10  2  0  0  0  0
  7 19  1  0  0  0  0
  8 23  1  0  0  0  0
  9 23  2  0  0  0  0
 10 24  1  0  0  0  0
 11 12  2  0  0  0  0
 11 25  1  0  0  0  0
 12 26  1  0  0  0  0
 13 21  1  0  0  0  0
 13 24  2  0  0  0  0
 14 26  2  0  0  0  0
 14 27  1  0  0  0  0
 15 22  1  0  0  0  0
 15 61  2  0  0  0  0
 16 28  1  0  0  0  0
 17 28  1  0  0  0  0
 17 30  2  0  0  0  0
 17 32  1  0  0  0  0
 18 20  2  0  0  0  0
 18 37  1  0  0  0  0
 19 21  2  0  0  0  0
 19 38  1  0  0  0  0
 20 46  1  0  0  0  0
 21 39  1  0  0  0  0
 22 29  2  0  0  0  0
 22 56  1  0  0  0  0
 23 78  1  0  0  0  0
 24 79  1  0  0  0  0
 25 27  2  0  0  0  0
 25 78  1  0  0  0  0
 26 80  1  0  0  0  0
 27 81  1  0  0  0  0
 28 62  2  0  0  0  0
 29 49  1  0  0  0  0
 29 63  1  0  0  0  0
 30 64  1  0  0  0  0
 30 67  1  0  0  0  0
 31 61  1  0  0  0  0
 31 63  2  0  0  0  0
 31 71  1  0  0  0  0
 32 68  1  0  0  0  0
 32 73  2  0  0  0  0
 33 47  1  0  0  0  0
 33 69  1  0  0  0  0
 33 74  2  0  0  0  0
 34 58  1  0  0  0  0
 34 65  1  0  0  0  0
 34 75  2  0  0  0  0
 35 59  1  0  0  0  0
 35 70  1  0  0  0  0
 35 76  2  0  0  0  0
 36 66  1  0  0  0  0
 36 71  1  0  0  0  0
 36 77  2  0  0  0  0
 37 40  1  0  0  0  0
 38 47  1  0  0  0  0
 39 65  1  0  0  0  0
 40 42  1  0  0  0  0
 41 43  1  0  0  0  0
 41 44  1  0  0  0  0
 42 46  1  0  0  0  0
 43 48  1  0  0  0  0
 44 66  1  0  0  0  0
 45 48  1  0  0  0  0
 45 66  1  0  0  0  0
 46 69  1  0  0  0  0
 47 65  1  0  0  0  0
 48 64  1  0  0  0  0
 50 59  1  0  0  0  0
 51 60  1  0  0  0  0
 52 60  1  0  0  0  0
 53 60  1  0  0  0  0
 54 71  1  0  0  0  0
 55 72  1  0  0  0  0
 56 57  1  0  0  0  0
 57 79  1  0  0  0  0
 58 60  1  0  0  0  0
 58 70  1  0  0  0  0
 59 72  1  0  0  0  0
 62 64  1  0  0  0  0
M  CHG  1  72   1
M  ISO  4  36 100  57 101  71 100  79 101
M  END
> <Batch ID>
0047

> <Smiles>
CNC(C)C(=O)NC(C(=O)N1Cc2cc([101O:1][101CH2:1]Cc3cnc([100N:0](C)[100C:0](=O)N4CCCC(n5nc(-c6ccc(Oc7ccc(F)cc7F)cc6)c(C(N)=O)c5N)C4)nc3C)ccc2CC1C(=O)NC1CCCc2ccccc21)C(C)(C)C

> <Shape>
0.236

> <Color>
0.063

> <Negative vol penalty>
0.000

$$$$

  -OEChem-04052317243D

 75 82  0     1  0  0  0  0  0999 V2000
  -32.6757  -26.9307   24.1935 C   0  0  0  0  0  0  0  0  0  0  0  0
  -33.2702  -25.6961   23.9527 C   0  0  0  0  0  0  0  0  0  0  0  0
  -23.1714   -9.8811   19.9137 C   0  0  0  0  0  0  0  0  0  0  0  0
  -23.5557  -10.0089   22.2955 C   0  0  0  0  0  0  0  0  0  0  0  0
  -31.2939  -27.0727   24.0744 C   0  0  0  0  0  0  0  0  0  0  0  0
  -32.4830  -24.6026   23.5938 C   0  0  0  0  0  0  0  0  0  0  0  0
  -34.0021  -20.0717   19.7637 C   0  0  0  0  0  0  0  0  0  0  0  0
  -22.3855   -8.7442   20.1014 C   0  0  0  0  0  0  0  0  0  0  0  0
  -22.7697   -8.8720   22.4833 C   0  0  0  0  0  0  0  0  0  0  0  0
  -34.4800  -18.7802   19.9813 C   0  0  0  0  0  0  0  0  0  0  0  0
  -21.1601   -5.7946   23.5550 C   0  0  0  0  0  0  0  0  0  0  0  0
  -21.6407   -4.8094   24.4175 C   0  0  0  0  0  0  0  0  0  0  0  0
  -32.2307  -17.9255   19.8106 C   0  0  0  0  0  0  0  0  0  0  0  0
  -23.5927   -4.5381   23.0199 C   0  0  0  0  0  0  0  0  0  0  0  0
  -23.7566  -10.5135   21.0107 C   0  0  0  0  0  0  0  0  0  0  0  0
  -24.1389  -13.0281   20.8149 C   0  0  0  0  0  0  0  0  0  0  0  0
  -30.4903  -25.9827   23.7044 C   0  0  0  0  0  0  0  0  0  0  0  0
  -32.6312  -20.3016   19.5785 C   0  0  0  0  0  0  0  0  0  0  0  0
  -31.0889  -24.7299   23.4710 C   0  0  0  0  0  0  0  0  0  0  0  0
  -31.7382  -19.2206   19.5883 C   0  0  0  0  0  0  0  0  0  0  0  0
  -22.1846   -8.2396   21.3862 C   0  0  0  0  0  0  0  0  0  0  0  0
  -33.5940  -17.7072   20.0076 C   0  0  0  0  0  0  0  0  0  0  0  0
  -21.8957   -6.1515   22.4248 C   0  0  0  0  0  0  0  0  0  0  0  0
  -22.8571   -4.1812   24.1500 C   0  0  0  0  0  0  0  0  0  0  0  0
  -23.1120   -5.5233   22.1573 C   0  0  0  0  0  0  0  0  0  0  0  0
  -24.5690  -11.6876   20.8173 C   0  0  0  0  0  0  0  0  0  0  0  0
  -25.2825  -13.7553   20.5922 C   0  0  0  0  0  0  0  0  0  0  0  0
  -22.8231  -13.5676   20.9979 C   0  0  0  0  0  0  0  0  0  0  0  0
  -30.4033  -21.9519   21.1331 C   0  0  0  0  0  0  0  0  0  0  0  0
  -28.5643  -21.1105   18.5969 C   0  0  0  0  0  0  0  0  0  0  0  0
  -27.9950  -18.9426   16.0234 C   0  0  0  0  0  0  0  0  0  0  0  0
  -30.8946  -12.8120   21.6977 C   0  0  0  0  0  0  0  0  0  0  0  0
  -28.9959  -26.1732   23.6345 C   0  0  0  0  0  0  0  0  0  0  0  0
  -32.1347  -21.6974   19.3183 C   0  0  0  0  0  0  0  0  0  0  0  0
  -30.2595  -19.4115   19.3746 C   0  0  0  0  0  0  0  0  0  0  0  0
  -28.2739  -25.0566   22.8848 C   0  0  0  0  0  0  0  0  0  0  0  0
  -29.5634  -13.4701   18.4935 C   0  0  0  0  0  0  0  0  0  0  0  0
  -28.7751  -23.6921   23.3473 C   0  0  0  0  0  0  0  0  0  0  0  0
  -28.0758  -13.2078   18.7242 C   0  0  0  0  0  0  0  0  0  0  0  0
  -30.4457  -12.4569   19.2251 C   0  0  0  0  0  0  0  0  0  0  0  0
  -28.6659  -12.0818   20.9026 C   0  0  0  0  0  0  0  0  0  0  0  0
  -30.2714  -23.5261   23.0554 C   0  0  1  0  0  0  0  0  0  0  0  0
  -30.6576  -21.8785   19.6540 C   0  0  1  0  0  0  0  0  0  0  0  0
  -27.7589  -13.1219   20.2273 C   0  0  2  0  0  0  0  0  0  0  0  0
  -26.3932  -18.4922   14.1448 C   0  0  0  0  0  0  0  0  0  0  0  0
  -26.5394  -20.0021   20.5923 C   0  0  0  0  0  0  0  0  0  0  0  0
  -25.4680  -18.7534   18.7052 C   0  0  0  0  0  0  0  0  0  0  0  0
  -25.5353  -21.2467   18.6695 C   0  0  0  0  0  0  0  0  0  0  0  0
  -32.9464  -11.7573   20.6572 C   0  0  0  0  0  0  0  0  0  0  0  0
  -30.1157  -19.2623   13.9840 C   0  0  0  0  0  0  0  0  0  0  0  0
  -34.0098  -14.5134   21.6426 C   0  0  0  0  0  0  0  0  0  0  0  0
  -33.1585  -13.4978   22.3926 C   0  0  0  0  0  0  0  0  0  0  0  0
  -33.1773  -15.5314   20.8726 C   0  0  0  0  0  0  0  0  0  1  0  0
  -27.6645  -19.9435   18.2691 C   0  0  1  0  0  0  0  0  0  0  0  0
  -27.6858  -19.1798   14.5562 C   0  0  2  0  0  0  0  0  0  0  0  0
  -26.3294  -19.9827   19.0650 C   0  0  0  0  0  0  0  0  0  0  0  0
  -25.8833  -11.5675   20.6121 N   0  0  0  0  0  0  0  0  0  0  0  0
  -26.2889  -12.8418   20.4787 N   0  0  0  0  0  0  0  0  0  0  0  0
  -29.8221  -20.7959   19.1303 N   0  0  0  0  0  0  0  0  0  0  0  0
  -30.0786  -12.3718   20.6452 N   0  0  0  0  0  0  0  0  0  0  0  0
  -25.5154  -15.0806   20.4843 N   0  0  0  0  0  0  0  0  0  0  0  0
  -21.7612  -12.6794   21.2161 N   0  0  0  0  0  0  0  0  0  0  0  0
  -30.4832  -23.2289   21.6549 N   0  0  0  0  0  0  0  0  0  0  0  0
  -27.4967  -19.9518   16.8199 N   0  0  0  0  0  0  0  0  0  0  0  0
  -32.2827  -12.7457   21.5051 N   0  0  0  0  0  0  0  0  0  0  0  0
  -28.7893  -18.6552   13.7029 N   0  3  0  0  0  0  0  0  0  0  0  0
  -22.5933  -14.7999   20.9523 O   0  0  0  0  0  0  0  0  0  0  0  0
  -30.1517  -20.9261   21.7545 O   0  0  0  0  0  0  0  0  0  0  0  0
  -28.1685  -22.2586   18.3806 O   0  0  0  0  0  0  0  0  0  0  0  0
  -28.6131  -17.9585   16.4232 O   0  0  0  0  0  0  0  0  0  0  0  0
  -30.4107  -13.2342   22.7559 O   0  0  0  0  0  0  0  0  0  0  0  0
  -21.4176   -7.1304   21.5699 O   0  0  0  0  0  0  0  0  0  0  0  0
  -34.0578  -16.4457   20.2205 O   0  0  0  0  0  0  0  0  0  1  0  0
  -23.3193   -3.2362   24.9792 F   0  0  0  0  0  0  0  0  0  0  0  0
  -23.8238   -5.8629   21.0738 F   0  0  0  0  0  0  0  0  0  0  0  0
  1  2  1  0  0  0  0
  1  5  2  0  0  0  0
  2  6  2  0  0  0  0
  3  8  2  0  0  0  0
  3 15  1  0  0  0  0
  4  9  1  0  0  0  0
  4 15  2  0  0  0  0
  5 17  1  0  0  0  0
  6 19  1  0  0  0  0
  7 10  2  0  0  0  0
  7 18  1  0  0  0  0
  8 21  1  0  0  0  0
  9 21  2  0  0  0  0
 10 22  1  0  0  0  0
 11 12  2  0  0  0  0
 11 23  1  0  0  0  0
 12 24  1  0  0  0  0
 13 20  1  0  0  0  0
 13 22  2  0  0  0  0
 14 24  2  0  0  0  0
 14 25  1  0  0  0  0
 15 26  1  0  0  0  0
 16 26  1  0  0  0  0
 16 27  2  0  0  0  0
 16 28  1  0  0  0  0
 17 19  2  0  0  0  0
 17 33  1  0  0  0  0
 18 20  2  0  0  0  0
 18 34  1  0  0  0  0
 19 42  1  0  0  0  0
 20 35  1  0  0  0  0
 21 72  1  0  0  0  0
 22 73  1  0  0  0  0
 23 25  2  0  0  0  0
 23 72  1  0  0  0  0
 24 74  1  0  0  0  0
 25 75  1  0  0  0  0
 26 57  2  0  0  0  0
 27 58  1  0  0  0  0
 27 61  1  0  0  0  0
 28 62  1  0  0  0  0
 28 67  2  0  0  0  0
 29 43  1  0  0  0  0
 29 63  1  0  0  0  0
 29 68  2  0  0  0  0
 30 54  1  0  0  0  0
 30 59  1  0  0  0  0
 30 69  2  0  0  0  0
 31 55  1  0  0  0  0
 31 64  1  0  0  0  0
 31 70  2  0  0  0  0
 32 60  1  0  0  0  0
 32 65  1  0  0  0  0
 32 71  2  0  0  0  0
 33 36  1  0  0  0  0
 34 43  1  0  0  0  0
 35 59  1  0  0  0  0
 36 38  1  0  0  0  0
 37 39  1  0  0  0  0
 37 40  1  0  0  0  0
 38 42  1  0  0  0  0
 39 44  1  0  0  0  0
 40 60  1  0  0  0  0
 41 44  1  0  0  0  0
 41 60  1  0  0  0  0
 42 63  1  0  0  0  0
 43 59  1  0  0  0  0
 44 58  1  0  0  0  0
 45 55  1  0  0  0  0
 46 56  1  0  0  0  0
 47 56  1  0  0  0  0
 48 56  1  0  0  0  0
 49 65  1  0  0  0  0
 50 66  1  0  0  0  0
 51 52  1  0  0  0  0
 51 53  1  0  0  0  0
 52 65  1  0  0  0  0
 53 73  1  0  0  0  0
 54 56  1  0  0  0  0
 54 64  1  0  0  0  0
 55 66  1  0  0  0  0
 57 58  1  0  0  0  0
M  CHG  1  66   1
M  ISO  4  32 100  53 101  65 100  73 101
M  END
> <Batch ID>
0047

> <Smiles>
CNC(C)C(=O)NC(C(=O)N1Cc2cc([101O:1][101CH2:1]CC[100N:0](C)[100C:0](=O)N3CCCC(n4nc(-c5ccc(Oc6ccc(F)cc6F)cc5)c(C(N)=O)c4N)C3)ccc2CC1C(=O)NC1CCCc2ccccc21)C(C)(C)C

> <Shape>
0.188

> <Color>
0.204

> <Negative vol penalty>
0.000

$$$$

  -OEChem-04052317243D

 83 91  0     1  0  0  0  0  0999 V2000
  -22.7895  -24.0785   23.3815 C   0  0  0  0  0  0  0  0  0  0  0  0
  -23.9109  -23.4183   22.8895 C   0  0  0  0  0  0  0  0  0  0  0  0
  -24.2305  -29.1008   19.8785 C   0  0  0  0  0  0  0  0  0  0  0  0
  -24.3028  -27.6192   21.7856 C   0  0  0  0  0  0  0  0  0  0  0  0
  -21.8994  -23.4085   24.2198 C   0  0  0  0  0  0  0  0  0  0  0  0
  -24.1435  -22.0880   23.2365 C   0  0  0  0  0  0  0  0  0  0  0  0
  -26.6647  -17.7531   19.7211 C   0  0  0  0  0  0  0  0  0  0  0  0
  -22.9734  -29.5540   20.2783 C   0  0  0  0  0  0  0  0  0  0  0  0
  -23.0457  -28.0725   22.1854 C   0  0  0  0  0  0  0  0  0  0  0  0
  -27.9591  -17.2402   19.6478 C   0  0  0  0  0  0  0  0  0  0  0  0
  -19.8181  -27.5424   21.3294 C   0  0  0  0  0  0  0  0  0  0  0  0
  -18.8820  -26.5885   21.7287 C   0  0  0  0  0  0  0  0  0  0  0  0
  -27.3173  -15.4287   21.1057 C   0  0  0  0  0  0  0  0  0  0  0  0
  -18.7609  -27.6204   23.9099 C   0  0  0  0  0  0  0  0  0  0  0  0
  -32.4127  -17.8009   23.6274 C   0  0  0  0  0  0  0  0  0  0  0  0
  -24.8952  -28.1333   20.6322 C   0  0  0  0  0  0  0  0  0  0  0  0
  -27.3634  -28.4311   20.0603 C   0  0  0  0  0  0  0  0  0  0  0  0
  -22.1161  -22.0663   24.5695 C   0  0  0  0  0  0  0  0  0  0  0  0
  -25.6882  -17.1126   20.4973 C   0  0  0  0  0  0  0  0  0  0  0  0
  -23.2562  -21.3997   24.0814 C   0  0  0  0  0  0  0  0  0  0  0  0
  -26.0107  -15.9340   21.1852 C   0  0  0  0  0  0  0  0  0  0  0  0
  -22.3810  -29.0399   21.4317 C   0  0  0  0  0  0  0  0  0  0  0  0
  -28.2863  -16.0795   20.3425 C   0  0  0  0  0  0  0  0  0  0  0  0
  -20.2256  -28.5353   22.2204 C   0  0  0  0  0  0  0  0  0  0  0  0
  -18.3534  -26.6275   23.0189 C   0  0  0  0  0  0  0  0  0  0  0  0
  -19.6970  -28.5743   23.5106 C   0  0  0  0  0  0  0  0  0  0  0  0
  -26.1936  -27.6642   20.2194 C   0  0  0  0  0  0  0  0  0  0  0  0
  -31.4615  -16.9499   23.0335 C   0  0  0  0  0  0  0  0  0  0  0  0
  -28.3149  -27.5262   19.6576 C   0  0  0  0  0  0  0  0  0  0  0  0
  -31.6653  -18.7784   24.2376 C   0  0  0  0  0  0  0  0  0  0  0  0
  -27.5713  -29.8357   20.2589 C   0  0  0  0  0  0  0  0  0  0  0  0
  -23.9457  -17.9257   23.0283 C   0  0  0  0  0  0  0  0  0  0  0  0
  -22.5158  -15.0672   22.4746 C   0  0  0  0  0  0  0  0  0  0  0  0
  -22.7199  -11.9383   21.1273 C   0  0  0  0  0  0  0  0  0  0  0  0
  -28.8852  -21.6110   20.3900 C   0  0  0  0  0  0  0  0  0  0  0  0
  -21.1512  -21.3980   25.5166 C   0  0  0  0  0  0  0  0  0  0  0  0
  -24.2895  -17.6638   20.5446 C   0  0  0  0  0  0  0  0  0  0  0  0
  -24.9933  -15.1973   22.0163 C   0  0  0  0  0  0  0  0  0  0  0  0
  -21.2708  -19.8763   25.5348 C   0  0  0  0  0  0  0  0  0  0  0  0
  -28.7878  -23.3867   17.3055 C   0  0  0  0  0  0  0  0  0  0  0  0
  -22.7343  -19.4570   25.6303 C   0  0  0  0  0  0  0  0  0  0  0  0
  -28.2175  -24.7535   17.6882 C   0  0  0  0  0  0  0  0  0  0  0  0
  -28.1485  -22.2614   18.1161 C   0  0  0  0  0  0  0  0  0  0  0  0
  -27.6313  -23.8111   19.9613 C   0  0  0  0  0  0  0  0  0  0  0  0
  -23.5297  -19.9492   24.4151 C   0  0  1  0  0  0  0  0  0  0  0  0
  -23.5117  -17.2148   21.7778 C   0  0  1  0  0  0  0  0  0  0  0  0
  -28.2853  -24.9833   19.2100 C   0  0  2  0  0  0  0  0  0  0  0  0
  -21.4064   -9.8160   20.8672 C   0  0  0  0  0  0  0  0  0  0  0  0
  -23.0925  -14.3563   25.3853 C   0  0  0  0  0  0  0  0  0  0  0  0
  -22.6438  -11.9599   24.8161 C   0  0  0  0  0  0  0  0  0  0  0  0
  -20.8340  -13.6587   24.5689 C   0  0  0  0  0  0  0  0  0  0  0  0
  -22.7547  -12.1420   18.1750 C   0  0  0  0  0  0  0  0  0  0  0  0
  -31.7219  -15.7024   22.2274 C   0  0  0  0  0  0  0  0  0  0  0  0
  -31.8739  -15.9594   20.7266 C   0  0  0  0  0  0  0  0  0  0  0  0
  -28.5947  -20.1057   23.3385 C   0  0  0  0  0  0  0  0  0  0  0  0
  -29.2041  -19.2052   24.4214 C   0  0  0  0  0  0  0  0  0  0  0  0
  -29.5707  -21.1048   22.7209 C   0  0  0  0  0  0  0  0  0  0  0  0
  -30.6100  -16.5112   20.0775 C   0  0  0  0  0  0  0  0  0  1  0  0
  -22.7555  -13.6467   22.9258 C   0  0  1  0  0  0  0  0  0  0  0  0
  -21.7630  -11.1571   20.2450 C   0  0  2  0  0  0  0  0  0  0  0  0
  -22.3514  -13.4201   24.4100 C   0  0  0  0  0  0  0  0  0  0  0  0
  -26.3823  -26.3718   19.9404 N   0  0  0  0  0  0  0  0  0  0  0  0
  -30.2057  -17.3514   23.2473 N   0  0  0  0  0  0  0  0  0  0  0  0
  -27.6818  -26.3194   19.6018 N   0  0  0  0  0  0  0  0  0  0  0  0
  -30.3626  -18.4654   23.9824 N   0  0  0  0  0  0  0  0  0  0  0  0
  -23.6411  -15.7792   22.0360 N   0  0  0  0  0  0  0  0  0  0  0  0
  -28.2479  -22.5398   19.5508 N   0  0  0  0  0  0  0  0  0  0  0  0
  -29.6231  -27.6530   19.3492 N   0  0  0  0  0  0  0  0  0  0  0  0
  -27.9662  -30.2798   21.5282 N   0  0  0  0  0  0  0  0  0  0  0  0
  -23.2705  -19.1076   23.2667 N   0  0  0  0  0  0  0  0  0  0  0  0
  -22.0494  -12.7924   21.9772 N   0  0  0  0  0  0  0  0  0  0  0  0
  -28.9416  -21.9552   21.7350 N   0  0  0  0  0  0  0  0  0  0  0  0
  -22.3760  -10.9076   18.9098 N   0  3  0  0  0  0  0  0  0  0  0  0
  -27.3957  -30.6740   19.3423 O   0  0  0  0  0  0  0  0  0  0  0  0
  -24.8267  -17.4374   23.7261 O   0  0  0  0  0  0  0  0  0  0  0  0
  -21.3710  -15.5258   22.5033 O   0  0  0  0  0  0  0  0  0  0  0  0
  -23.9401  -11.8017   21.0710 O   0  0  0  0  0  0  0  0  0  0  0  0
  -29.3728  -20.5558   19.9707 O   0  0  0  0  0  0  0  0  0  0  0  0
  -21.1544  -29.4821   21.8222 O   0  0  0  0  0  0  0  0  0  0  0  0
  -29.5491  -15.5771   20.2732 O   0  0  0  0  0  0  0  0  0  1  0  0
  -17.4534  -25.7123   23.4017 F   0  0  0  0  0  0  0  0  0  0  0  0
  -20.0837  -29.5265   24.3706 F   0  0  0  0  0  0  0  0  0  0  0  0
  -32.1195  -19.8188   24.9359 F   0  0  0  0  0  0  0  0  0  0  0  0
  1  2  1  0  0  0  0
  1  5  2  0  0  0  0
  2  6  2  0  0  0  0
  3  8  2  0  0  0  0
  3 16  1  0  0  0  0
  4  9  1  0  0  0  0
  4 16  2  0  0  0  0
  5 18  1  0  0  0  0
  6 20  1  0  0  0  0
  7 10  2  0  0  0  0
  7 19  1  0  0  0  0
  8 22  1  0  0  0  0
  9 22  2  0  0  0  0
 10 23  1  0  0  0  0
 11 12  2  0  0  0  0
 11 24  1  0  0  0  0
 12 25  1  0  0  0  0
 13 21  1  0  0  0  0
 13 23  2  0  0  0  0
 14 25  2  0  0  0  0
 14 26  1  0  0  0  0
 15 28  1  0  0  0  0
 15 30  2  0  0  0  0
 16 27  1  0  0  0  0
 17 27  1  0  0  0  0
 17 29  2  0  0  0  0
 17 31  1  0  0  0  0
 18 20  2  0  0  0  0
 18 36  1  0  0  0  0
 19 21  2  0  0  0  0
 19 37  1  0  0  0  0
 20 45  1  0  0  0  0
 21 38  1  0  0  0  0
 22 79  1  0  0  0  0
 23 80  1  0  0  0  0
 24 26  2  0  0  0  0
 24 79  1  0  0  0  0
 25 81  1  0  0  0  0
 26 82  1  0  0  0  0
 27 62  2  0  0  0  0
 28 53  1  0  0  0  0
 28 63  2  0  0  0  0
 29 64  1  0  0  0  0
 29 68  1  0  0  0  0
 30 65  1  0  0  0  0
 30 83  1  0  0  0  0
 31 69  1  0  0  0  0
 31 74  2  0  0  0  0
 32 46  1  0  0  0  0
 32 70  1  0  0  0  0
 32 75  2  0  0  0  0
 33 59  1  0  0  0  0
 33 66  1  0  0  0  0
 33 76  2  0  0  0  0
 34 60  1  0  0  0  0
 34 71  1  0  0  0  0
 34 77  2  0  0  0  0
 35 67  1  0  0  0  0
 35 72  1  0  0  0  0
 35 78  2  0  0  0  0
 36 39  1  0  0  0  0
 37 46  1  0  0  0  0
 38 66  1  0  0  0  0
 39 41  1  0  0  0  0
 40 42  1  0  0  0  0
 40 43  1  0  0  0  0
 41 45  1  0  0  0  0
 42 47  1  0  0  0  0
 43 67  1  0  0  0  0
 44 47  1  0  0  0  0
 44 67  1  0  0  0  0
 45 70  1  0  0  0  0
 46 66  1  0  0  0  0
 47 64  1  0  0  0  0
 48 60  1  0  0  0  0
 49 61  1  0  0  0  0
 50 61  1  0  0  0  0
 51 61  1  0  0  0  0
 52 73  1  0  0  0  0
 53 54  1  0  0  0  0
 54 58  1  0  0  0  0
 55 56  1  0  0  0  0
 55 57  1  0  0  0  0
 56 65  1  0  0  0  0
 57 72  1  0  0  0  0
 58 80  1  0  0  0  0
 59 61  1  0  0  0  0
 59 71  1  0  0  0  0
 60 73  1  0  0  0  0
 62 64  1  0  0  0  0
 63 65  1  0  0  0  0
M  CHG  1  73   1
M  ISO  4  35 100  58 101  72 100  80 101
M  END
> <Batch ID>
0047

> <Smiles>
CNC(C)C(=O)NC(C(=O)N1Cc2cc([101O:1][101CH2:1]CCc3cc(F)n(CCC[100NH:0][100C:0](=O)N4CCCC(n5nc(-c6ccc(Oc7ccc(F)cc7F)cc6)c(C(N)=O)c5N)C4)n3)ccc2CC1C(=O)NC1CCCc2ccccc21)C(C)(C)C

> <Shape>
0.221

> <Color>
0.062

> <Negative vol penalty>
0.000

$$$$

  -OEChem-04052317243D

 87 96  0     1  0  0  0  0  0999 V2000
  -31.4395  -29.0031   18.2282 C   0  0  0  0  0  0  0  0  0  0  0  0
  -30.4873  -28.0426   17.9060 C   0  0  0  0  0  0  0  0  0  0  0  0
  -30.3475  -19.7427   19.9607 C   0  0  0  0  0  0  0  0  0  0  0  0
  -27.9897  -19.8952   20.4651 C   0  0  0  0  0  0  0  0  0  0  0  0
  -31.4945  -29.5180   19.5217 C   0  0  0  0  0  0  0  0  0  0  0  0
  -29.5823  -27.6054   18.8738 C   0  0  0  0  0  0  0  0  0  0  0  0
  -24.4229  -22.8375   20.3084 C   0  0  0  0  0  0  0  0  0  0  0  0
  -30.3133  -21.0250   19.4130 C   0  0  0  0  0  0  0  0  0  0  0  0
  -27.9554  -21.1776   19.9174 C   0  0  0  0  0  0  0  0  0  0  0  0
  -24.0331  -21.8067   21.1623 C   0  0  0  0  0  0  0  0  0  0  0  0
  -30.3008  -24.2141   20.5366 C   0  0  0  0  0  0  0  0  0  0  0  0
  -31.3253  -25.0947   20.8837 C   0  0  0  0  0  0  0  0  0  0  0  0
  -23.4111  -23.4330   22.8318 C   0  0  0  0  0  0  0  0  0  0  0  0
  -31.9514  -25.2829   18.5578 C   0  0  0  0  0  0  0  0  0  0  0  0
  -29.1857  -19.1777   20.4867 C   0  0  0  0  0  0  0  0  0  0  0  0
  -29.4840  -17.5066   22.3909 C   0  0  0  0  0  0  0  0  0  0  0  0
  -30.5974  -29.0772   20.5085 C   0  0  0  0  0  0  0  0  0  0  0  0
  -24.3198  -24.1757   20.7146 C   0  0  0  0  0  0  0  0  0  0  0  0
  -29.6063  -28.1305   20.1785 C   0  0  0  0  0  0  0  0  0  0  0  0
  -23.7979  -24.4791   21.9802 C   0  0  0  0  0  0  0  0  0  0  0  0
  -29.1173  -21.7425   19.3913 C   0  0  0  0  0  0  0  0  0  0  0  0
  -23.5298  -22.1042   22.4253 C   0  0  0  0  0  0  0  0  0  0  0  0
  -30.1016  -23.8678   19.2002 C   0  0  0  0  0  0  0  0  0  0  0  0
  -32.1506  -25.6292   19.8942 C   0  0  0  0  0  0  0  0  0  0  0  0
  -30.9269  -24.4022   18.2108 C   0  0  0  0  0  0  0  0  0  0  0  0
  -29.2202  -17.8529   21.0521 C   0  0  0  0  0  0  0  0  0  0  0  0
  -23.1926  -14.7810   22.6018 C   0  0  0  0  0  0  0  0  0  0  0  0
  -23.0089  -13.5215   22.0858 C   0  0  0  0  0  0  0  0  0  0  0  0
  -29.3995  -16.1359   22.4140 C   0  0  0  0  0  0  0  0  0  0  0  0
  -21.1902  -14.5805   21.6959 C   0  0  0  0  0  0  0  0  0  0  0  0
  -21.8717  -16.7652   22.7425 C   0  0  0  0  0  0  0  0  0  0  0  0
  -24.2508  -15.4807   23.2878 C   0  0  0  0  0  0  0  0  0  0  0  0
  -22.9009  -17.3639   23.3811 C   0  0  0  0  0  0  0  0  0  0  0  0
  -29.7790  -18.3486   23.5132 C   0  0  0  0  0  0  0  0  0  0  0  0
  -26.3870  -26.5464   21.1732 C   0  0  0  0  0  0  0  0  0  0  0  0
  -23.6900  -28.2871   21.6405 C   0  0  0  0  0  0  0  0  0  0  0  0
  -20.3876  -28.3388   22.4999 C   0  0  0  0  0  0  0  0  0  0  0  0
  -26.5127  -12.1702   18.9802 C   0  0  0  0  0  0  0  0  0  0  0  0
  -30.6965  -29.6738   21.8904 C   0  0  0  0  0  0  0  0  0  0  0  0
  -24.7196  -25.2771   19.7715 C   0  0  0  0  0  0  0  0  0  0  0  0
  -23.6479  -25.9001   22.4564 C   0  0  0  0  0  0  0  0  0  0  0  0
  -29.9949  -28.8335   22.9524 C   0  0  0  0  0  0  0  0  0  0  0  0
  -30.0123  -12.2989   19.6225 C   0  0  0  0  0  0  0  0  0  0  0  0
  -28.5890  -28.4801   22.4906 C   0  0  0  0  0  0  0  0  0  0  0  0
  -30.2300  -13.7056   20.1825 C   0  0  0  0  0  0  0  0  0  0  0  0
  -28.9458  -12.2853   18.5296 C   0  0  0  0  0  0  0  0  0  0  0  0
  -27.8727  -14.2917   19.4765 C   0  0  0  0  0  0  0  0  0  0  0  0
  -28.6313  -27.6175   21.2229 C   0  0  1  0  0  0  0  0  0  0  0  0
  -25.0516  -26.5839   20.4854 C   0  0  1  0  0  0  0  0  0  0  0  0
  -28.8995  -14.3468   20.6206 C   0  0  2  0  0  0  0  0  0  0  0  0
  -19.8295  -14.9548   21.2584 C   0  0  0  0  0  0  0  0  0  0  0  0
  -25.5443  -14.7733   23.5813 C   0  0  0  0  0  0  0  0  0  0  0  0
  -18.4620  -29.9141   22.8286 C   0  0  0  0  0  0  0  0  0  0  0  0
  -24.8761  -29.1767   24.3073 C   0  0  0  0  0  0  0  0  0  0  0  0
  -22.5908  -29.9374   24.9906 C   0  0  0  0  0  0  0  0  0  0  0  0
  -23.7166  -30.9847   23.0264 C   0  0  0  0  0  0  0  0  0  0  0  0
  -18.8003  -27.0262   20.3746 C   0  0  0  0  0  0  0  0  0  0  0  0
  -23.9287  -12.3732   22.0694 C   0  0  0  0  0  0  0  0  0  0  0  0
  -22.8112  -18.7824   23.8386 C   0  0  0  0  0  0  0  0  0  0  0  0
  -23.8312  -11.4697   20.8139 C   0  0  0  0  0  0  0  0  0  0  0  0
  -24.0860  -12.2035   19.4990 C   0  0  0  0  0  0  0  0  0  0  0  0
  -23.2928  -19.7644   22.7791 C   0  0  0  0  0  0  0  0  0  1  0  0
  -22.8291  -28.6253   22.8337 C   0  0  1  0  0  0  0  0  0  0  0  0
  -19.1879  -29.0041   21.8499 C   0  0  2  0  0  0  0  0  0  0  0  0
  -23.5076  -29.6541   23.7816 C   0  0  0  0  0  0  0  0  0  0  0  0
  -28.9858  -16.7880   20.2807 N   0  0  0  0  0  0  0  0  0  0  0  0
  -21.7586  -13.4049   21.5232 N   0  0  0  0  0  0  0  0  0  0  0  0
  -24.1079  -16.7249   23.6620 N   0  0  0  0  0  0  0  0  0  0  0  0
  -22.0209  -15.4496   22.3458 N   0  0  0  0  0  0  0  0  0  0  0  0
  -29.1021  -15.7592   21.1374 N   0  0  0  0  0  0  0  0  0  0  0  0
  -24.0585  -26.9416   21.5003 N   0  0  0  0  0  0  0  0  0  0  0  0
  -27.7088  -12.9060   19.0097 N   0  0  0  0  0  0  0  0  0  0  0  0
  -29.5513  -15.2282   23.4017 N   0  0  0  0  0  0  0  0  0  0  0  0
  -29.8268  -19.7351   23.3140 N   0  0  0  0  0  0  0  0  0  0  0  0
  -27.2896  -27.4798   20.7006 N   0  0  0  0  0  0  0  0  0  0  0  0
  -21.5440  -29.0624   22.2990 N   0  0  0  0  0  0  0  0  0  0  0  0
  -25.3881  -12.8309   19.4593 N   0  0  0  0  0  0  0  0  0  0  0  0
  -18.2260  -27.9755   21.3626 N   0  3  0  0  0  0  0  0  0  0  0  0
  -30.0101  -17.8842   24.6554 O   0  0  0  0  0  0  0  0  0  0  0  0
  -26.5833  -25.7320   22.0676 O   0  0  0  0  0  0  0  0  0  0  0  0
  -24.0173  -29.1826   20.8578 O   0  0  0  0  0  0  0  0  0  0  0  0
  -20.3063  -27.2846   23.1265 O   0  0  0  0  0  0  0  0  0  0  0  0
  -26.4525  -11.0086   18.5632 O   0  0  0  0  0  0  0  0  0  0  0  0
  -29.0836  -22.9939   18.8572 O   0  0  0  0  0  0  0  0  0  0  0  0
  -23.1492  -21.0999   23.2610 O   0  0  0  0  0  0  0  0  0  1  0  0
  -33.1334  -26.4761   20.2275 F   0  0  0  0  0  0  0  0  0  0  0  0
  -30.7397  -24.0741   16.9250 F   0  0  0  0  0  0  0  0  0  0  0  0
  1  2  1  0  0  0  0
  1  5  2  0  0  0  0
  2  6  2  0  0  0  0
  3  8  2  0  0  0  0
  3 15  1  0  0  0  0
  4  9  1  0  0  0  0
  4 15  2  0  0  0  0
  5 17  1  0  0  0  0
  6 19  1  0  0  0  0
  7 10  2  0  0  0  0
  7 18  1  0  0  0  0
  8 21  1  0  0  0  0
  9 21  2  0  0  0  0
 10 22  1  0  0  0  0
 11 12  2  0  0  0  0
 11 23  1  0  0  0  0
 12 24  1  0  0  0  0
 13 20  1  0  0  0  0
 13 22  2  0  0  0  0
 14 24  2  0  0  0  0
 14 25  1  0  0  0  0
 15 26  1  0  0  0  0
 16 26  1  0  0  0  0
 16 29  2  0  0  0  0
 16 34  1  0  0  0  0
 17 19  2  0  0  0  0
 17 39  1  0  0  0  0
 18 20  2  0  0  0  0
 18 40  1  0  0  0  0
 19 48  1  0  0  0  0
 20 41  1  0  0  0  0
 21 84  1  0  0  0  0
 22 85  1  0  0  0  0
 23 25  2  0  0  0  0
 23 84  1  0  0  0  0
 24 86  1  0  0  0  0
 25 87  1  0  0  0  0
 26 66  2  0  0  0  0
 27 28  2  0  0  0  0
 27 32  1  0  0  0  0
 27 69  1  0  0  0  0
 28 58  1  0  0  0  0
 28 67  1  0  0  0  0
 29 70  1  0  0  0  0
 29 73  1  0  0  0  0
 30 51  1  0  0  0  0
 30 67  2  0  0  0  0
 30 69  1  0  0  0  0
 31 33  2  0  0  0  0
 31 69  1  0  0  0  0
 32 52  1  0  0  0  0
 32 68  2  0  0  0  0
 33 59  1  0  0  0  0
 33 68  1  0  0  0  0
 34 74  1  0  0  0  0
 34 79  2  0  0  0  0
 35 49  1  0  0  0  0
 35 75  1  0  0  0  0
 35 80  2  0  0  0  0
 36 63  1  0  0  0  0
 36 71  1  0  0  0  0
 36 81  2  0  0  0  0
 37 64  1  0  0  0  0
 37 76  1  0  0  0  0
 37 82  2  0  0  0  0
 38 72  1  0  0  0  0
 38 77  1  0  0  0  0
 38 83  2  0  0  0  0
 39 42  1  0  0  0  0
 40 49  1  0  0  0  0
 41 71  1  0  0  0  0
 42 44  1  0  0  0  0
 43 45  1  0  0  0  0
 43 46  1  0  0  0  0
 44 48  1  0  0  0  0
 45 50  1  0  0  0  0
 46 72  1  0  0  0  0
 47 50  1  0  0  0  0
 47 72  1  0  0  0  0
 48 75  1  0  0  0  0
 49 71  1  0  0  0  0
 50 70  1  0  0  0  0
 53 64  1  0  0  0  0
 54 65  1  0  0  0  0
 55 65  1  0  0  0  0
 56 65  1  0  0  0  0
 57 78  1  0  0  0  0
 58 60  1  0  0  0  0
 59 62  1  0  0  0  0
 60 61  1  0  0  0  0
 61 77  1  0  0  0  0
 62 85  1  0  0  0  0
 63 65  1  0  0  0  0
 63 76  1  0  0  0  0
 64 78  1  0  0  0  0
 66 70  1  0  0  0  0
M  CHG  1  78   1
M  ISO  4  38 100  62 101  77 100  85 101
M  END
> <Batch ID>
0047

> <Smiles>
CNC(C)C(=O)NC(C(=O)N1Cc2cc([101O:1][101CH2:1]Cc3cn4c(C)nc(CCC[100NH:0][100C:0](=O)N5CCCC(n6nc(-c7ccc(Oc8ccc(F)cc8F)cc7)c(C(N)=O)c6N)C5)c4c(C)n3)ccc2CC1C(=O)NC1CCCc2ccccc21)C(C)(C)C

> <Shape>
0.261

> <Color>
0.050

> <Negative vol penalty>
0.000

$$$$

  -OEChem-04052317243D

 83 91  0     1  0  0  0  0  0999 V2000
  -17.5257  -24.6226   22.3467 C   0  0  0  0  0  0  0  0  0  0  0  0
  -18.6226  -24.4505   21.5085 C   0  0  0  0  0  0  0  0  0  0  0  0
  -25.8945  -14.9405   21.4014 C   0  0  0  0  0  0  0  0  0  0  0  0
  -25.0981  -16.6711   19.9156 C   0  0  0  0  0  0  0  0  0  0  0  0
  -17.3127  -25.8510   22.9708 C   0  0  0  0  0  0  0  0  0  0  0  0
  -19.5067  -25.5071   21.2931 C   0  0  0  0  0  0  0  0  0  0  0  0
  -24.3548  -24.0659   21.5445 C   0  0  0  0  0  0  0  0  0  0  0  0
  -24.6173  -14.3809   21.4342 C   0  0  0  0  0  0  0  0  0  0  0  0
  -23.8209  -16.1115   19.9484 C   0  0  0  0  0  0  0  0  0  0  0  0
  -24.8819  -23.4080   20.4340 C   0  0  0  0  0  0  0  0  0  0  0  0
  -22.7041  -12.4224   19.4500 C   0  0  0  0  0  0  0  0  0  0  0  0
  -22.5990  -11.0384   19.3119 C   0  0  0  0  0  0  0  0  0  0  0  0
  -25.9156  -25.4651   19.7136 C   0  0  0  0  0  0  0  0  0  0  0  0
  -21.5450  -10.9019   21.4816 C   0  0  0  0  0  0  0  0  0  0  0  0
  -26.1350  -16.0857   20.6421 C   0  0  0  0  0  0  0  0  0  0  0  0
  -28.4906  -16.3655   19.7040 C   0  0  0  0  0  0  0  0  0  0  0  0
  -18.1999  -26.9203   22.7706 C   0  0  0  0  0  0  0  0  0  0  0  0
  -24.5955  -25.4331   21.7424 C   0  0  0  0  0  0  0  0  0  0  0  0
  -19.3046  -26.7514   21.9141 C   0  0  0  0  0  0  0  0  0  0  0  0
  -25.3926  -26.1374   20.8288 C   0  0  0  0  0  0  0  0  0  0  0  0
  -23.5805  -14.9664   20.7077 C   0  0  0  0  0  0  0  0  0  0  0  0
  -25.6600  -24.1083   19.5168 C   0  0  0  0  0  0  0  0  0  0  0  0
  -22.2297  -13.0462   20.6040 C   0  0  0  0  0  0  0  0  0  0  0  0
  -22.0195  -10.2782   20.3276 C   0  0  0  0  0  0  0  0  0  0  0  0
  -21.6502  -12.2859   21.6197 C   0  0  0  0  0  0  0  0  0  0  0  0
  -27.4540  -16.6645   20.6083 C   0  0  0  0  0  0  0  0  0  0  0  0
  -31.1220  -23.7948   18.3829 C   0  0  0  0  0  0  0  0  0  0  0  0
  -29.9154  -22.4388   16.9919 C   0  0  0  0  0  0  0  0  0  0  0  0
  -30.0761  -23.8060   19.2793 C   0  0  0  0  0  0  0  0  0  0  0  0
  -28.8698  -22.4493   17.8886 C   0  0  0  0  0  0  0  0  0  0  0  0
  -29.5289  -17.1770   20.0913 C   0  0  0  0  0  0  0  0  0  0  0  0
  -28.5130  -15.4373   18.6115 C   0  0  0  0  0  0  0  0  0  0  0  0
  -22.7711  -28.0305   21.9115 C   0  0  0  0  0  0  0  0  0  0  0  0
  -25.5699  -29.4701   22.6970 C   0  0  0  0  0  0  0  0  0  0  0  0
  -28.9797  -29.4448   22.5584 C   0  0  0  0  0  0  0  0  0  0  0  0
  -29.7530  -22.3877   23.0322 C   0  0  0  0  0  0  0  0  0  0  0  0
  -17.9021  -28.2438   23.4296 C   0  0  0  0  0  0  0  0  0  0  0  0
  -24.0420  -26.1220   22.9596 C   0  0  0  0  0  0  0  0  0  0  0  0
  -25.6974  -27.6016   21.0064 C   0  0  0  0  0  0  0  0  0  0  0  0
  -19.0931  -29.1986   23.4443 C   0  0  0  0  0  0  0  0  0  0  0  0
  -31.3514  -19.3413   23.9494 C   0  0  0  0  0  0  0  0  0  0  0  0
  -19.7574  -29.2446   22.0719 C   0  0  0  0  0  0  0  0  0  0  0  0
  -30.6273  -18.2829   23.1155 C   0  0  0  0  0  0  0  0  0  0  0  0
  -30.3990  -20.4390   24.4184 C   0  0  0  0  0  0  0  0  0  0  0  0
  -28.8947  -20.0239   22.5109 C   0  0  0  0  0  0  0  0  0  0  0  0
  -20.2997  -27.8662   21.6751 C   0  0  1  0  0  0  0  0  0  0  0  0
  -23.9244  -27.6334   22.7890 C   0  0  1  0  0  0  0  0  0  0  0  0
  -29.8248  -18.9254   21.9682 C   0  0  2  0  0  0  0  0  0  0  0  0
  -32.3830  -24.5431   18.6499 C   0  0  0  0  0  0  0  0  0  0  0  0
  -29.8344  -21.6784   15.7124 C   0  0  0  0  0  0  0  0  0  0  0  0
  -30.9896  -30.7743   23.2584 C   0  0  0  0  0  0  0  0  0  0  0  0
  -25.0301  -31.4639   20.4512 C   0  0  0  0  0  0  0  0  0  0  0  0
  -27.4370  -32.1429   20.5699 C   0  0  0  0  0  0  0  0  0  0  0  0
  -25.9503  -32.4752   22.5452 C   0  0  0  0  0  0  0  0  0  0  0  0
  -30.0126  -27.2256   24.2219 C   0  0  0  0  0  0  0  0  0  0  0  0
  -30.1568  -24.5675   20.5580 C   0  0  0  0  0  0  0  0  0  0  0  0
  -27.5930  -21.6912   17.6180 C   0  0  0  0  0  0  0  0  0  0  0  0
  -29.0289  -24.2365   21.5432 C   0  0  0  0  0  0  0  0  0  0  0  0
  -26.4730  -22.0807   18.5766 C   0  0  0  0  0  0  0  0  0  1  0  0
  -26.6830  -30.1363   21.9249 C   0  0  1  0  0  0  0  0  0  0  0  0
  -30.0330  -29.6525   23.6316 C   0  0  2  0  0  0  0  0  0  0  0  0
  -26.2679  -31.5274   21.3681 C   0  0  0  0  0  0  0  0  0  0  0  0
  -27.8020  -17.5934   21.5028 N   0  0  0  0  0  0  0  0  0  0  0  0
  -31.0604  -23.1111   17.2231 N   0  0  0  0  0  0  0  0  0  0  0  0
  -28.9312  -23.1334   19.0482 N   0  0  0  0  0  0  0  0  0  0  0  0
  -29.0690  -17.8849   21.1625 N   0  0  0  0  0  0  0  0  0  0  0  0
  -25.1282  -28.2321   22.2089 N   0  0  0  0  0  0  0  0  0  0  0  0
  -29.6699  -21.0081   23.2824 N   0  0  0  0  0  0  0  0  0  0  0  0
  -30.7812  -17.3468   19.6167 N   0  0  0  0  0  0  0  0  0  0  0  0
  -27.3606  -14.6830   18.3518 N   0  0  0  0  0  0  0  0  0  0  0  0
  -21.5416  -27.5935   22.3662 N   0  0  0  0  0  0  0  0  0  0  0  0
  -27.8360  -30.1699   22.8181 N   0  0  0  0  0  0  0  0  0  0  0  0
  -29.0369  -22.8438   21.9322 N   0  0  0  0  0  0  0  0  0  0  0  0
  -30.8250  -28.4055   23.8283 N   0  3  0  0  0  0  0  0  0  0  0  0
  -29.5305  -15.2694   17.8972 O   0  0  0  0  0  0  0  0  0  0  0  0
  -22.9811  -28.6862   20.8977 O   0  0  0  0  0  0  0  0  0  0  0  0
  -25.1141  -30.0242   23.7004 O   0  0  0  0  0  0  0  0  0  0  0  0
  -29.1554  -28.7154   21.5849 O   0  0  0  0  0  0  0  0  0  0  0  0
  -30.4206  -23.1553   23.7337 O   0  0  0  0  0  0  0  0  0  0  0  0
  -22.3341  -14.4204   20.7393 O   0  0  0  0  0  0  0  0  0  0  0  0
  -26.1752  -23.4688   18.4317 O   0  0  0  0  0  0  0  0  0  1  0  0
  -21.9172   -8.9493   20.1942 F   0  0  0  0  0  0  0  0  0  0  0  0
  -21.1916  -12.8797   22.7301 F   0  0  0  0  0  0  0  0  0  0  0  0
  1  2  1  0  0  0  0
  1  5  2  0  0  0  0
  2  6  2  0  0  0  0
  3  8  2  0  0  0  0
  3 15  1  0  0  0  0
  4  9  1  0  0  0  0
  4 15  2  0  0  0  0
  5 17  1  0  0  0  0
  6 19  1  0  0  0  0
  7 10  2  0  0  0  0
  7 18  1  0  0  0  0
  8 21  1  0  0  0  0
  9 21  2  0  0  0  0
 10 22  1  0  0  0  0
 11 12  2  0  0  0  0
 11 23  1  0  0  0  0
 12 24  1  0  0  0  0
 13 20  1  0  0  0  0
 13 22  2  0  0  0  0
 14 24  2  0  0  0  0
 14 25  1  0  0  0  0
 15 26  1  0  0  0  0
 16 26  1  0  0  0  0
 16 31  2  0  0  0  0
 16 32  1  0  0  0  0
 17 19  2  0  0  0  0
 17 37  1  0  0  0  0
 18 20  2  0  0  0  0
 18 38  1  0  0  0  0
 19 46  1  0  0  0  0
 20 39  1  0  0  0  0
 21 80  1  0  0  0  0
 22 81  1  0  0  0  0
 23 25  2  0  0  0  0
 23 80  1  0  0  0  0
 24 82  1  0  0  0  0
 25 83  1  0  0  0  0
 26 63  2  0  0  0  0
 27 29  1  0  0  0  0
 27 49  1  0  0  0  0
 27 64  2  0  0  0  0
 28 30  2  0  0  0  0
 28 50  1  0  0  0  0
 28 64  1  0  0  0  0
 29 56  1  0  0  0  0
 29 65  2  0  0  0  0
 30 57  1  0  0  0  0
 30 65  1  0  0  0  0
 31 66  1  0  0  0  0
 31 69  1  0  0  0  0
 32 70  1  0  0  0  0
 32 75  2  0  0  0  0
 33 47  1  0  0  0  0
 33 71  1  0  0  0  0
 33 76  2  0  0  0  0
 34 60  1  0  0  0  0
 34 67  1  0  0  0  0
 34 77  2  0  0  0  0
 35 61  1  0  0  0  0
 35 72  1  0  0  0  0
 35 78  2  0  0  0  0
 36 68  1  0  0  0  0
 36 73  1  0  0  0  0
 36 79  2  0  0  0  0
 37 40  1  0  0  0  0
 38 47  1  0  0  0  0
 39 67  1  0  0  0  0
 40 42  1  0  0  0  0
 41 43  1  0  0  0  0
 41 44  1  0  0  0  0
 42 46  1  0  0  0  0
 43 48  1  0  0  0  0
 44 68  1  0  0  0  0
 45 48  1  0  0  0  0
 45 68  1  0  0  0  0
 46 71  1  0  0  0  0
 47 67  1  0  0  0  0
 48 66  1  0  0  0  0
 51 61  1  0  0  0  0
 52 62  1  0  0  0  0
 53 62  1  0  0  0  0
 54 62  1  0  0  0  0
 55 74  1  0  0  0  0
 56 58  1  0  0  0  0
 57 59  1  0  0  0  0
 58 73  1  0  0  0  0
 59 81  1  0  0  0  0
 60 62  1  0  0  0  0
 60 72  1  0  0  0  0
 61 74  1  0  0  0  0
 63 66  1  0  0  0  0
M  CHG  1  74   1
M  ISO  4  36 100  59 101  73 100  81 101
M  END
> <Batch ID>
0047

> <Smiles>
CNC(C)C(=O)NC(C(=O)N1Cc2cc([101O:1][101CH2:1]Cc3nc(CC[100NH:0][100C:0](=O)N4CCCC(n5nc(-c6ccc(Oc7ccc(F)cc7F)cc6)c(C(N)=O)c5N)C4)c(C)nc3C)ccc2CC1C(=O)NC1CCCc2ccccc21)C(C)(C)C

> <Shape>
0.245

> <Color>
0.066

> <Negative vol penalty>
0.000

$$$$

  -OEChem-04052317243D

 82 90  0     1  0  0  0  0  0999 V2000
  -25.9521  -16.4440   23.7355 C   0  0  0  0  0  0  0  0  0  0  0  0
  -26.6354  -17.6551   23.7774 C   0  0  0  0  0  0  0  0  0  0  0  0
  -26.3551  -12.9325   21.4495 C   0  0  0  0  0  0  0  0  0  0  0  0
  -26.1211  -13.4633   19.1042 C   0  0  0  0  0  0  0  0  0  0  0  0
  -24.6705  -16.3866   23.1896 C   0  0  0  0  0  0  0  0  0  0  0  0
  -26.0379  -18.8094   23.2724 C   0  0  0  0  0  0  0  0  0  0  0  0
  -26.6537  -24.5133   25.4153 C   0  0  0  0  0  0  0  0  0  0  0  0
  -28.3155  -25.7505   20.6581 C   0  0  0  0  0  0  0  0  0  0  0  0
  -25.1314  -12.2637   21.4203 C   0  0  0  0  0  0  0  0  0  0  0  0
  -24.8974  -12.7944   19.0749 C   0  0  0  0  0  0  0  0  0  0  0  0
  -27.4538  -25.5834   25.0175 C   0  0  0  0  0  0  0  0  0  0  0  0
  -23.9568   -9.2627   20.3967 C   0  0  0  0  0  0  0  0  0  0  0  0
  -23.8838   -8.0171   21.0202 C   0  0  0  0  0  0  0  0  0  0  0  0
  -28.5531  -24.4881   20.1259 C   0  0  0  0  0  0  0  0  0  0  0  0
  -25.6210  -26.4635   23.7193 C   0  0  0  0  0  0  0  0  0  0  0  0
  -22.1682   -8.8578   22.4991 C   0  0  0  0  0  0  0  0  0  0  0  0
  -26.8499  -13.5324   20.2915 C   0  0  0  0  0  0  0  0  0  0  0  0
  -29.3871  -13.6788   20.0705 C   0  0  0  0  0  0  0  0  0  0  0  0
  -24.0531  -17.5426   22.6864 C   0  0  0  0  0  0  0  0  0  0  0  0
  -25.3323  -24.4042   24.9586 C   0  0  0  0  0  0  0  0  0  0  0  0
  -24.7473  -18.7671   22.7180 C   0  0  0  0  0  0  0  0  0  0  0  0
  -24.8053  -25.3924   24.1148 C   0  0  0  0  0  0  0  0  0  0  0  0
  -29.3286  -26.7028   20.6533 C   0  0  0  0  0  0  0  0  0  0  0  0
  -24.4026  -12.1946   20.2330 C   0  0  0  0  0  0  0  0  0  0  0  0
  -26.9385  -26.5572   24.1671 C   0  0  0  0  0  0  0  0  0  0  0  0
  -23.1355  -10.3060   20.8245 C   0  0  0  0  0  0  0  0  0  0  0  0
  -22.9895   -7.8146   22.0713 C   0  0  0  0  0  0  0  0  0  0  0  0
  -22.2412  -10.1035   21.8756 C   0  0  0  0  0  0  0  0  0  0  0  0
  -28.1136  -14.2239   20.3212 C   0  0  0  0  0  0  0  0  0  0  0  0
  -29.8108  -24.2301   19.6051 C   0  0  0  0  0  0  0  0  0  0  0  0
  -30.5517  -26.3456   20.1090 C   0  0  0  0  0  0  0  0  0  0  0  0
  -30.2496  -14.7368   20.2231 C   0  0  0  0  0  0  0  0  0  0  0  0
  -29.7573  -12.3361   19.7302 C   0  0  0  0  0  0  0  0  0  0  0  0
  -23.7293  -22.2841   23.2152 C   0  0  0  0  0  0  0  0  0  0  0  0
  -21.1906  -24.1488   23.9898 C   0  0  0  0  0  0  0  0  0  0  0  0
  -20.0314  -27.2115   24.9506 C   0  0  0  0  0  0  0  0  0  0  0  0
  -29.4784  -20.5588   19.6194 C   0  0  0  0  0  0  0  0  0  0  0  0
  -22.6851  -17.4221   22.0629 C   0  0  0  0  0  0  0  0  0  0  0  0
  -24.4737  -23.2579   25.4183 C   0  0  0  0  0  0  0  0  0  0  0  0
  -23.3866  -25.3322   23.6127 C   0  0  0  0  0  0  0  0  0  0  0  0
  -21.9744  -18.7620   21.8900 C   0  0  0  0  0  0  0  0  0  0  0  0
  -30.7165  -18.8785   22.5759 C   0  0  0  0  0  0  0  0  0  0  0  0
  -22.9206  -19.7939   21.2846 C   0  0  0  0  0  0  0  0  0  0  0  0
  -30.3034  -17.4318   22.2990 C   0  0  0  0  0  0  0  0  0  0  0  0
  -29.6569  -19.8598   22.0836 C   0  0  0  0  0  0  0  0  0  0  0  0
  -28.8909  -18.2691   20.3641 C   0  0  0  0  0  0  0  0  0  0  0  0
  -24.1228  -20.0456   22.2027 C   0  0  1  0  0  0  0  0  0  0  0  0
  -23.3043  -22.9738   24.4807 C   0  0  1  0  0  0  0  0  0  0  0  0
  -29.9312  -17.2290   20.8183 C   0  0  2  0  0  0  0  0  0  0  0  0
  -31.6755  -27.3287   20.0738 C   0  0  0  0  0  0  0  0  0  0  0  0
  -17.9048  -28.4397   25.4669 C   0  0  0  0  0  0  0  0  0  0  0  0
  -20.5779  -24.3370   21.0067 C   0  0  0  0  0  0  0  0  0  0  0  0
  -19.0853  -26.2838   21.5071 C   0  0  0  0  0  0  0  0  0  0  0  0
  -18.5697  -24.0400   22.4674 C   0  0  0  0  0  0  0  0  0  0  0  0
  -20.8840  -27.7546   27.7322 C   0  0  0  0  0  0  0  0  0  0  0  0
  -29.0774  -28.0731   21.2302 C   0  0  0  0  0  0  0  0  0  0  0  0
  -30.0999  -22.8861   19.0242 C   0  0  0  0  0  0  0  0  0  0  0  0
  -29.7011  -28.2836   22.6115 C   0  0  0  0  0  0  0  0  0  0  0  0
  -29.1216  -27.3661   23.6819 C   0  0  0  0  0  0  0  0  0  1  0  0
  -20.5259  -25.3580   23.3775 C   0  0  1  0  0  0  0  0  0  0  0  0
  -19.0543  -27.6233   26.0369 C   0  0  2  0  0  0  0  0  0  0  0  0
  -19.7171  -25.0051   22.0974 C   0  0  0  0  0  0  0  0  0  0  0  0
  -28.1585  -15.5270   20.6111 N   0  0  0  0  0  0  0  0  0  0  0  0
  -30.8198  -25.1295   19.5828 N   0  0  0  0  0  0  0  0  0  0  0  0
  -29.4707  -15.8095   20.5437 N   0  0  0  0  0  0  0  0  0  0  0  0
  -22.5888  -24.1887   24.0853 N   0  0  0  0  0  0  0  0  0  0  0  0
  -29.3618  -19.6256   20.6630 N   0  0  0  0  0  0  0  0  0  0  0  0
  -31.5907  -14.8448   20.1130 N   0  0  0  0  0  0  0  0  0  0  0  0
  -28.7456  -11.3732   19.6139 N   0  0  0  0  0  0  0  0  0  0  0  0
  -23.7462  -20.9053   23.3044 N   0  0  0  0  0  0  0  0  0  0  0  0
  -19.7305  -25.9674   24.4379 N   0  0  0  0  0  0  0  0  0  0  0  0
  -29.9242  -21.8223   19.9877 N   0  0  0  0  0  0  0  0  0  0  0  0
  -19.7455  -28.4435   27.0716 N   0  3  0  0  0  0  0  0  0  0  0  0
  -30.9515  -11.9966   19.5510 O   0  0  0  0  0  0  0  0  0  0  0  0
  -24.0190  -22.9533   22.2304 O   0  0  0  0  0  0  0  0  0  0  0  0
  -20.4942  -23.2067   24.3760 O   0  0  0  0  0  0  0  0  0  0  0  0
  -20.9658  -27.9239   24.5901 O   0  0  0  0  0  0  0  0  0  0  0  0
  -29.2101  -20.2847   18.4447 O   0  0  0  0  0  0  0  0  0  0  0  0
  -23.2086  -11.5418   20.2040 O   0  0  0  0  0  0  0  0  0  0  0  0
  -27.7175  -27.6025   23.7767 O   0  0  0  0  0  0  0  0  0  1  0  0
  -22.9184   -6.6180   22.6689 F   0  0  0  0  0  0  0  0  0  0  0  0
  -21.4488  -11.1015   22.2902 F   0  0  0  0  0  0  0  0  0  0  0  0
  1  2  1  0  0  0  0
  1  5  2  0  0  0  0
  2  6  2  0  0  0  0
  3  9  2  0  0  0  0
  3 17  1  0  0  0  0
  4 10  1  0  0  0  0
  4 17  2  0  0  0  0
  5 19  1  0  0  0  0
  6 21  1  0  0  0  0
  7 11  2  0  0  0  0
  7 20  1  0  0  0  0
  8 14  2  0  0  0  0
  8 23  1  0  0  0  0
  9 24  1  0  0  0  0
 10 24  2  0  0  0  0
 11 25  1  0  0  0  0
 12 13  2  0  0  0  0
 12 26  1  0  0  0  0
 13 27  1  0  0  0  0
 14 30  1  0  0  0  0
 15 22  1  0  0  0  0
 15 25  2  0  0  0  0
 16 27  2  0  0  0  0
 16 28  1  0  0  0  0
 17 29  1  0  0  0  0
 18 29  1  0  0  0  0
 18 32  2  0  0  0  0
 18 33  1  0  0  0  0
 19 21  2  0  0  0  0
 19 38  1  0  0  0  0
 20 22  2  0  0  0  0
 20 39  1  0  0  0  0
 21 47  1  0  0  0  0
 22 40  1  0  0  0  0
 23 31  2  0  0  0  0
 23 56  1  0  0  0  0
 24 79  1  0  0  0  0
 25 80  1  0  0  0  0
 26 28  2  0  0  0  0
 26 79  1  0  0  0  0
 27 81  1  0  0  0  0
 28 82  1  0  0  0  0
 29 63  2  0  0  0  0
 30 57  1  0  0  0  0
 30 64  2  0  0  0  0
 31 50  1  0  0  0  0
 31 64  1  0  0  0  0
 32 65  1  0  0  0  0
 32 68  1  0  0  0  0
 33 69  1  0  0  0  0
 33 74  2  0  0  0  0
 34 48  1  0  0  0  0
 34 70  1  0  0  0  0
 34 75  2  0  0  0  0
 35 60  1  0  0  0  0
 35 66  1  0  0  0  0
 35 76  2  0  0  0  0
 36 61  1  0  0  0  0
 36 71  1  0  0  0  0
 36 77  2  0  0  0  0
 37 67  1  0  0  0  0
 37 72  1  0  0  0  0
 37 78  2  0  0  0  0
 38 41  1  0  0  0  0
 39 48  1  0  0  0  0
 40 66  1  0  0  0  0
 41 43  1  0  0  0  0
 42 44  1  0  0  0  0
 42 45  1  0  0  0  0
 43 47  1  0  0  0  0
 44 49  1  0  0  0  0
 45 67  1  0  0  0  0
 46 49  1  0  0  0  0
 46 67  1  0  0  0  0
 47 70  1  0  0  0  0
 48 66  1  0  0  0  0
 49 65  1  0  0  0  0
 51 61  1  0  0  0  0
 52 62  1  0  0  0  0
 53 62  1  0  0  0  0
 54 62  1  0  0  0  0
 55 73  1  0  0  0  0
 56 58  1  0  0  0  0
 57 72  1  0  0  0  0
 58 59  1  0  0  0  0
 59 80  1  0  0  0  0
 60 62  1  0  0  0  0
 60 71  1  0  0  0  0
 61 73  1  0  0  0  0
 63 65  1  0  0  0  0
M  CHG  1  73   1
M  ISO  4  37 100  59 101  72 100  80 101
M  END
> <Batch ID>
0047

> <Smiles>
CNC(C)C(=O)NC(C(=O)N1Cc2cc([101O:1][101CH2:1]CCc3ccc(C[100NH:0][100C:0](=O)N4CCCC(n5nc(-c6ccc(Oc7ccc(F)cc7F)cc6)c(C(N)=O)c5N)C4)nc3C)ccc2CC1C(=O)NC1CCCc2ccccc21)C(C)(C)C

> <Shape>
0.218

> <Color>
0.070

> <Negative vol penalty>
0.000

$$$$

  -OEChem-04052317243D

 84 92  0     1  0  0  0  0  0999 V2000
  -33.1700  -19.6090   19.7291 C   0  0  0  0  0  0  0  0  0  0  0  0
  -32.0964  -19.2231   20.5252 C   0  0  0  0  0  0  0  0  0  0  0  0
  -23.1543   -9.8649   19.9615 C   0  0  0  0  0  0  0  0  0  0  0  0
  -23.8223   -9.9649   22.2812 C   0  0  0  0  0  0  0  0  0  0  0  0
  -33.9833  -20.6703   20.1242 C   0  0  0  0  0  0  0  0  0  0  0  0
  -31.8361  -19.8977   21.7175 C   0  0  0  0  0  0  0  0  0  0  0  0
  -26.9190  -20.9473   22.3223 C   0  0  0  0  0  0  0  0  0  0  0  0
  -27.9638  -17.0736   25.6126 C   0  0  0  0  0  0  0  0  0  0  0  0
  -22.4407   -8.6940   20.2175 C   0  0  0  0  0  0  0  0  0  0  0  0
  -23.1087   -8.7940   22.5371 C   0  0  0  0  0  0  0  0  0  0  0  0
  -26.0922  -19.9053   22.7398 C   0  0  0  0  0  0  0  0  0  0  0  0
  -23.5341   -5.4696   22.0922 C   0  0  0  0  0  0  0  0  0  0  0  0
  -24.1552   -4.4877   22.8641 C   0  0  0  0  0  0  0  0  0  0  0  0
  -29.2886  -16.8034   25.2886 C   0  0  0  0  0  0  0  0  0  0  0  0
  -26.1715  -20.7543   24.9963 C   0  0  0  0  0  0  0  0  0  0  0  0
  -22.3828   -4.6508   24.4978 C   0  0  0  0  0  0  0  0  0  0  0  0
  -23.8452  -10.5003   20.9933 C   0  0  0  0  0  0  0  0  0  0  0  0
  -24.1055  -13.0314   20.8102 C   0  0  0  0  0  0  0  0  0  0  0  0
  -33.7271  -21.3644   21.3171 C   0  0  0  0  0  0  0  0  0  0  0  0
  -27.3880  -21.8961   23.2423 C   0  0  0  0  0  0  0  0  0  0  0  0
  -32.6475  -20.9684   22.1296 C   0  0  0  0  0  0  0  0  0  0  0  0
  -27.0021  -21.8089   24.5876 C   0  0  0  0  0  0  0  0  0  0  0  0
  -27.0237  -16.0496   25.5823 C   0  0  0  0  0  0  0  0  0  0  0  0
  -22.4179   -8.1586   21.5053 C   0  0  0  0  0  0  0  0  0  0  0  0
  -25.7206  -19.8070   24.0775 C   0  0  0  0  0  0  0  0  0  0  0  0
  -22.3373   -6.0421   22.5232 C   0  0  0  0  0  0  0  0  0  0  0  0
  -23.5796   -4.0783   24.0668 C   0  0  0  0  0  0  0  0  0  0  0  0
  -21.7617   -5.6327   23.7260 C   0  0  0  0  0  0  0  0  0  0  0  0
  -24.5829  -11.7095   20.7294 C   0  0  0  0  0  0  0  0  0  0  0  0
  -29.6196  -15.5029   24.9437 C   0  0  0  0  0  0  0  0  0  0  0  0
  -27.4561  -14.7829   25.2241 C   0  0  0  0  0  0  0  0  0  0  0  0
  -25.1851  -13.8079   20.4666 C   0  0  0  0  0  0  0  0  0  0  0  0
  -22.8027  -13.5142   21.1641 C   0  0  0  0  0  0  0  0  0  0  0  0
  -30.2569  -22.7807   24.2867 C   0  0  0  0  0  0  0  0  0  0  0  0
  -28.5584  -25.0755   25.8267 C   0  0  0  0  0  0  0  0  0  0  0  0
  -25.5719  -26.0816   27.1364 C   0  0  0  0  0  0  0  0  0  0  0  0
  -30.9413  -13.9732   21.0604 C   0  0  0  0  0  0  0  0  0  0  0  0
  -34.6623  -22.4747   21.7262 C   0  0  0  0  0  0  0  0  0  0  0  0
  -28.2575  -23.0294   22.7712 C   0  0  0  0  0  0  0  0  0  0  0  0
  -27.4620  -22.8135   25.6112 C   0  0  0  0  0  0  0  0  0  0  0  0
  -34.0942  -23.3785   22.8174 C   0  0  0  0  0  0  0  0  0  0  0  0
  -29.3955  -13.0244   17.9966 C   0  0  0  0  0  0  0  0  0  0  0  0
  -33.4824  -22.5433   23.9375 C   0  0  0  0  0  0  0  0  0  0  0  0
  -27.9525  -12.7115   18.3965 C   0  0  0  0  0  0  0  0  0  0  0  0
  -30.3860  -12.5966   19.0772 C   0  0  0  0  0  0  0  0  0  0  0  0
  -28.6602  -12.8171   20.8227 C   0  0  0  0  0  0  0  0  0  0  0  0
  -32.3181  -21.6914   23.4176 C   0  0  1  0  0  0  0  0  0  0  0  0
  -29.0941  -23.6451   23.8885 C   0  0  1  0  0  0  0  0  0  0  0  0
  -27.6203  -13.2814   19.7887 C   0  0  2  0  0  0  0  0  0  0  0  0
  -27.1946  -12.2936   25.0777 C   0  0  0  0  0  0  0  0  0  0  0  0
  -24.5028  -27.9908   28.3649 C   0  0  0  0  0  0  0  0  0  0  0  0
  -29.9142  -24.1716   28.4064 C   0  0  0  0  0  0  0  0  0  0  0  0
  -28.1567  -25.4156   29.6838 C   0  0  0  0  0  0  0  0  0  0  0  0
  -29.6947  -26.6502   28.1564 C   0  0  0  0  0  0  0  0  0  0  0  0
  -23.6525  -26.5733   24.9380 C   0  0  0  0  0  0  0  0  0  0  0  0
  -25.5852  -16.3367   25.9314 C   0  0  0  0  0  0  0  0  0  0  0  0
  -31.0328  -15.1770   24.5918 C   0  0  0  0  0  0  0  0  0  0  0  0
  -26.4912  -13.6438   25.1774 C   0  0  0  0  0  0  0  0  0  0  0  0
  -24.6601  -16.4156   24.7150 C   0  0  0  0  0  0  0  0  0  0  0  0
  -31.3441  -15.3306   23.0986 C   0  0  0  0  0  0  0  0  0  0  0  0
  -25.0027  -17.5608   23.7692 C   0  0  0  0  0  0  0  0  0  1  0  0
  -27.8845  -25.1844   27.1731 C   0  0  1  0  0  0  0  0  0  0  0  0
  -24.8007  -27.3823   27.0034 C   0  0  2  0  0  0  0  0  0  0  0  0
  -28.9052  -25.3353   28.3362 C   0  0  0  0  0  0  0  0  0  0  0  0
  -25.8659  -11.6461   20.3632 N   0  0  0  0  0  0  0  0  0  0  0  0
  -28.7343  -14.4820   24.9030 N   0  0  0  0  0  0  0  0  0  0  0  0
  -26.2037  -12.9378   20.2107 N   0  0  0  0  0  0  0  0  0  0  0  0
  -28.3159  -23.8997   25.1026 N   0  0  0  0  0  0  0  0  0  0  0  0
  -30.0153  -13.1719   20.3724 N   0  0  0  0  0  0  0  0  0  0  0  0
  -25.3529  -15.1433   20.3615 N   0  0  0  0  0  0  0  0  0  0  0  0
  -21.8097  -12.5802   21.4896 N   0  0  0  0  0  0  0  0  0  0  0  0
  -31.1315  -22.5034   23.2535 N   0  0  0  0  0  0  0  0  0  0  0  0
  -26.9338  -26.2857   27.0659 N   0  0  0  0  0  0  0  0  0  0  0  0
  -30.5074  -14.4841   22.2775 N   0  0  0  0  0  0  0  0  0  0  0  0
  -23.5078  -27.1484   26.3001 N   0  3  0  0  0  0  0  0  0  0  0  0
  -22.5227  -14.7369   21.1750 O   0  0  0  0  0  0  0  0  0  0  0  0
  -30.3541  -22.3952   25.4458 O   0  0  0  0  0  0  0  0  0  0  0  0
  -29.2680  -26.0028   25.4288 O   0  0  0  0  0  0  0  0  0  0  0  0
  -25.0215  -24.9937   27.2914 O   0  0  0  0  0  0  0  0  0  0  0  0
  -32.0693  -14.2197   20.6199 O   0  0  0  0  0  0  0  0  0  0  0  0
  -21.7215   -7.0163   21.7555 O   0  0  0  0  0  0  0  0  0  0  0  0
  -24.9142  -18.7905   24.4877 O   0  0  0  0  0  0  0  0  0  1  0  0
  -24.1753   -3.1343   24.8071 F   0  0  0  0  0  0  0  0  0  0  0  0
  -20.6115   -6.1782   24.1447 F   0  0  0  0  0  0  0  0  0  0  0  0
  1  2  1  0  0  0  0
  1  5  2  0  0  0  0
  2  6  2  0  0  0  0
  3  9  2  0  0  0  0
  3 17  1  0  0  0  0
  4 10  1  0  0  0  0
  4 17  2  0  0  0  0
  5 19  1  0  0  0  0
  6 21  1  0  0  0  0
  7 11  2  0  0  0  0
  7 20  1  0  0  0  0
  8 14  2  0  0  0  0
  8 23  1  0  0  0  0
  9 24  1  0  0  0  0
 10 24  2  0  0  0  0
 11 25  1  0  0  0  0
 12 13  2  0  0  0  0
 12 26  1  0  0  0  0
 13 27  1  0  0  0  0
 14 30  1  0  0  0  0
 15 22  1  0  0  0  0
 15 25  2  0  0  0  0
 16 27  2  0  0  0  0
 16 28  1  0  0  0  0
 17 29  1  0  0  0  0
 18 29  1  0  0  0  0
 18 32  2  0  0  0  0
 18 33  1  0  0  0  0
 19 21  2  0  0  0  0
 19 38  1  0  0  0  0
 20 22  2  0  0  0  0
 20 39  1  0  0  0  0
 21 47  1  0  0  0  0
 22 40  1  0  0  0  0
 23 31  2  0  0  0  0
 23 56  1  0  0  0  0
 24 81  1  0  0  0  0
 25 82  1  0  0  0  0
 26 28  2  0  0  0  0
 26 81  1  0  0  0  0
 27 83  1  0  0  0  0
 28 84  1  0  0  0  0
 29 65  2  0  0  0  0
 30 57  1  0  0  0  0
 30 66  2  0  0  0  0
 31 58  1  0  0  0  0
 31 66  1  0  0  0  0
 32 67  1  0  0  0  0
 32 70  1  0  0  0  0
 33 71  1  0  0  0  0
 33 76  2  0  0  0  0
 34 48  1  0  0  0  0
 34 72  1  0  0  0  0
 34 77  2  0  0  0  0
 35 62  1  0  0  0  0
 35 68  1  0  0  0  0
 35 78  2  0  0  0  0
 36 63  1  0  0  0  0
 36 73  1  0  0  0  0
 36 79  2  0  0  0  0
 37 69  1  0  0  0  0
 37 74  1  0  0  0  0
 37 80  2  0  0  0  0
 38 41  1  0  0  0  0
 39 48  1  0  0  0  0
 40 68  1  0  0  0  0
 41 43  1  0  0  0  0
 42 44  1  0  0  0  0
 42 45  1  0  0  0  0
 43 47  1  0  0  0  0
 44 49  1  0  0  0  0
 45 69  1  0  0  0  0
 46 49  1  0  0  0  0
 46 69  1  0  0  0  0
 47 72  1  0  0  0  0
 48 68  1  0  0  0  0
 49 67  1  0  0  0  0
 50 58  1  0  0  0  0
 51 63  1  0  0  0  0
 52 64  1  0  0  0  0
 53 64  1  0  0  0  0
 54 64  1  0  0  0  0
 55 75  1  0  0  0  0
 56 59  1  0  0  0  0
 57 60  1  0  0  0  0
 59 61  1  0  0  0  0
 60 74  1  0  0  0  0
 61 82  1  0  0  0  0
 62 64  1  0  0  0  0
 62 73  1  0  0  0  0
 63 75  1  0  0  0  0
 65 67  1  0  0  0  0
M  CHG  1  75   1
M  ISO  4  37 100  61 101  74 100  82 101
M  END
> <Batch ID>
0047

> <Smiles>
CCc1nc(CC[100NH:0][100C:0](=O)N2CCCC(n3nc(-c4ccc(Oc5ccc(F)cc5F)cc4)c(C(N)=O)c3N)C2)ccc1CC[101CH2:1][101O:1]c1ccc2c(c1)CN(C(=O)C(NC(=O)C(C)NC)C(C)(C)C)C(C(=O)NC1CCCc3ccccc31)C2

> <Shape>
0.157

> <Color>
0.187

> <Negative vol penalty>
0.000

$$$$

  -OEChem-04052317243D

 80 88  0     1  0  0  0  0  0999 V2000
  -23.6588  -24.2208   18.4210 C   0  0  0  0  0  0  0  0  0  0  0  0
  -24.4319  -23.2227   17.8366 C   0  0  0  0  0  0  0  0  0  0  0  0
  -26.2371  -27.7161   18.8976 C   0  0  0  0  0  0  0  0  0  0  0  0
  -26.4829  -27.4481   21.2861 C   0  0  0  0  0  0  0  0  0  0  0  0
  -23.2209  -24.0810   19.7373 C   0  0  0  0  0  0  0  0  0  0  0  0
  -24.7686  -22.0846   18.5686 C   0  0  0  0  0  0  0  0  0  0  0  0
  -25.9794  -15.0724   17.7446 C   0  0  0  0  0  0  0  0  0  0  0  0
  -25.1117  -28.5141   19.1029 C   0  0  0  0  0  0  0  0  0  0  0  0
  -25.3574  -28.2462   21.4914 C   0  0  0  0  0  0  0  0  0  0  0  0
  -26.9353  -14.1022   18.0425 C   0  0  0  0  0  0  0  0  0  0  0  0
  -21.9974  -27.8995   21.3459 C   0  0  0  0  0  0  0  0  0  0  0  0
  -21.0543  -27.4628   22.2761 C   0  0  0  0  0  0  0  0  0  0  0  0
  -26.0563  -13.9326   20.2826 C   0  0  0  0  0  0  0  0  0  0  0  0
  -21.3926  -29.4780   23.5652 C   0  0  0  0  0  0  0  0  0  0  0  0
  -26.9227  -27.1831   19.9892 C   0  0  0  0  0  0  0  0  0  0  0  0
  -29.4241  -26.7832   19.6879 C   0  0  0  0  0  0  0  0  0  0  0  0
  -23.5443  -22.9362   20.4826 C   0  0  0  0  0  0  0  0  0  0  0  0
  -25.0603  -15.4886   18.7184 C   0  0  0  0  0  0  0  0  0  0  0  0
  -24.3358  -21.9300   19.8966 C   0  0  0  0  0  0  0  0  0  0  0  0
  -25.0882  -14.9064   19.9937 C   0  0  0  0  0  0  0  0  0  0  0  0
  -24.6718  -28.7792   20.3998 C   0  0  0  0  0  0  0  0  0  0  0  0
  -26.9757  -13.5342   19.3125 C   0  0  0  0  0  0  0  0  0  0  0  0
  -22.6383  -29.1255   21.5253 C   0  0  0  0  0  0  0  0  0  0  0  0
  -20.7518  -28.2520   23.3858 C   0  0  0  0  0  0  0  0  0  0  0  0
  -22.3358  -29.9147   22.6350 C   0  0  0  0  0  0  0  0  0  0  0  0
  -28.0851  -26.3582   19.7778 C   0  0  0  0  0  0  0  0  0  0  0  0
  -30.1383  -25.6276   19.4856 C   0  0  0  0  0  0  0  0  0  0  0  0
  -30.8072  -14.2572   21.0086 C   0  0  0  0  0  0  0  0  0  0  0  0
  -31.1615  -16.5767   21.2569 C   0  0  0  0  0  0  0  0  0  0  0  0
  -29.9733  -28.1045   19.7792 C   0  0  0  0  0  0  0  0  0  0  0  0
  -24.4182  -18.2456   20.1642 C   0  0  0  0  0  0  0  0  0  0  0  0
  -21.9528  -16.5600   21.4301 C   0  0  0  0  0  0  0  0  0  0  0  0
  -20.6591  -13.5206   22.2873 C   0  0  0  0  0  0  0  0  0  0  0  0
  -30.1609  -20.1865   21.1607 C   0  0  0  0  0  0  0  0  0  0  0  0
  -23.0878  -22.8514   21.9176 C   0  0  0  0  0  0  0  0  0  0  0  0
  -24.0183  -16.5170   18.3732 C   0  0  0  0  0  0  0  0  0  0  0  0
  -24.1107  -15.3038   21.0685 C   0  0  0  0  0  0  0  0  0  0  0  0
  -23.1735  -21.4437   22.5019 C   0  0  0  0  0  0  0  0  0  0  0  0
  -29.0410  -21.0948   17.8414 C   0  0  0  0  0  0  0  0  0  0  0  0
  -24.5187  -20.8075   22.1665 C   0  0  0  0  0  0  0  0  0  0  0  0
  -28.8105  -22.5988   17.9991 C   0  0  0  0  0  0  0  0  0  0  0  0
  -28.6338  -20.3379   19.1021 C   0  0  0  0  0  0  0  0  0  0  0  0
  -29.0718  -22.3147   20.5073 C   0  0  0  0  0  0  0  0  0  0  0  0
  -24.7009  -20.6694   20.6501 C   0  0  1  0  0  0  0  0  0  0  0  0
  -23.4603  -17.2364   19.5972 C   0  0  1  0  0  0  0  0  0  0  0  0
  -29.4852  -23.1384   19.2742 C   0  0  2  0  0  0  0  0  0  0  0  0
  -18.6397  -12.4647   23.3383 C   0  0  0  0  0  0  0  0  0  0  0  0
  -22.9283  -17.4411   24.1837 C   0  0  0  0  0  0  0  0  0  0  0  0
  -21.5085  -15.6390   25.1863 C   0  0  0  0  0  0  0  0  0  0  0  0
  -20.4448  -17.4876   23.8926 C   0  0  0  0  0  0  0  0  0  0  0  0
  -20.0366  -11.9914   19.8311 C   0  0  0  0  0  0  0  0  0  0  0  0
  -30.3858  -12.8158   21.1437 C   0  0  0  0  0  0  0  0  0  0  0  0
  -31.1806  -17.9874   21.6914 C   0  0  0  0  0  0  0  0  0  0  0  0
  -30.2460  -12.0870   19.8055 C   0  0  0  0  0  0  0  0  0  0  0  0
  -29.1535  -12.6657   18.9139 C   0  0  0  0  0  0  0  0  0  1  0  0
  -21.7596  -15.7118   22.6639 C   0  0  1  0  0  0  0  0  0  0  0  0
  -19.2969  -12.8989   22.0374 C   0  0  2  0  0  0  0  0  0  0  0  0
  -21.6801  -16.5636   23.9622 C   0  0  0  0  0  0  0  0  0  0  0  0
  -27.9536  -25.0358   19.6434 N   0  0  0  0  0  0  0  0  0  0  0  0
  -31.5776  -14.7377   20.0559 N   0  0  0  0  0  0  0  0  0  0  0  0
  -31.7862  -16.0980   20.2022 N   0  0  0  0  0  0  0  0  0  0  0  0
  -29.2193  -24.6199   19.4670 N   0  0  0  0  0  0  0  0  0  0  0  0
  -23.1149  -16.3179   20.6841 N   0  0  0  0  0  0  0  0  0  0  0  0
  -29.3252  -20.8886   20.2764 N   0  0  0  0  0  0  0  0  0  0  0  0
  -31.4564  -25.3852   19.3235 N   0  0  0  0  0  0  0  0  0  0  0  0
  -29.0981  -29.1788   19.9890 N   0  0  0  0  0  0  0  0  0  0  0  0
  -23.9423  -19.5428   20.1504 N   0  0  0  0  0  0  0  0  0  0  0  0
  -20.5794  -14.8912   22.4144 N   0  0  0  0  0  0  0  0  0  0  0  0
  -30.3435  -18.8388   20.8756 N   0  0  0  0  0  0  0  0  0  0  0  0
  -19.4264  -11.7050   21.1549 N   0  3  0  0  0  0  0  0  0  0  0  0
  -31.2021  -28.3276   19.6613 O   0  0  0  0  0  0  0  0  0  0  0  0
  -25.5079  -17.8747   20.5845 O   0  0  0  0  0  0  0  0  0  0  0  0
  -21.1003  -17.4014   21.1351 O   0  0  0  0  0  0  0  0  0  0  0  0
  -21.6901  -12.8563   22.3659 O   0  0  0  0  0  0  0  0  0  0  0  0
  -30.7087  -20.7224   22.1302 O   0  0  0  0  0  0  0  0  0  0  0  0
  -23.5738  -29.5580   20.6005 O   0  0  0  0  0  0  0  0  0  0  0  0
  -27.9081  -12.5874   19.6061 O   0  0  0  0  0  0  0  0  0  1  0  0
  -19.8450  -27.8332   24.2782 F   0  0  0  0  0  0  0  0  0  0  0  0
  -22.9473  -31.0939   22.8121 F   0  0  0  0  0  0  0  0  0  0  0  0
  -30.2733  -15.4163   22.1546 S   0  0  0  0  0  0  0  0  0  0  0  0
  1  2  1  0  0  0  0
  1  5  2  0  0  0  0
  2  6  2  0  0  0  0
  3  8  2  0  0  0  0
  3 15  1  0  0  0  0
  4  9  1  0  0  0  0
  4 15  2  0  0  0  0
  5 17  1  0  0  0  0
  6 19  1  0  0  0  0
  7 10  2  0  0  0  0
  7 18  1  0  0  0  0
  8 21  1  0  0  0  0
  9 21  2  0  0  0  0
 10 22  1  0  0  0  0
 11 12  2  0  0  0  0
 11 23  1  0  0  0  0
 12 24  1  0  0  0  0
 13 20  1  0  0  0  0
 13 22  2  0  0  0  0
 14 24  2  0  0  0  0
 14 25  1  0  0  0  0
 15 26  1  0  0  0  0
 16 26  1  0  0  0  0
 16 27  2  0  0  0  0
 16 30  1  0  0  0  0
 17 19  2  0  0  0  0
 17 35  1  0  0  0  0
 18 20  2  0  0  0  0
 18 36  1  0  0  0  0
 19 44  1  0  0  0  0
 20 37  1  0  0  0  0
 21 76  1  0  0  0  0
 22 77  1  0  0  0  0
 23 25  2  0  0  0  0
 23 76  1  0  0  0  0
 24 78  1  0  0  0  0
 25 79  1  0  0  0  0
 26 59  2  0  0  0  0
 27 62  1  0  0  0  0
 27 65  1  0  0  0  0
 28 52  1  0  0  0  0
 28 60  2  0  0  0  0
 28 80  1  0  0  0  0
 29 53  1  0  0  0  0
 29 61  2  0  0  0  0
 29 80  1  0  0  0  0
 30 66  1  0  0  0  0
 30 71  2  0  0  0  0
 31 45  1  0  0  0  0
 31 67  1  0  0  0  0
 31 72  2  0  0  0  0
 32 56  1  0  0  0  0
 32 63  1  0  0  0  0
 32 73  2  0  0  0  0
 33 57  1  0  0  0  0
 33 68  1  0  0  0  0
 33 74  2  0  0  0  0
 34 64  1  0  0  0  0
 34 69  1  0  0  0  0
 34 75  2  0  0  0  0
 35 38  1  0  0  0  0
 36 45  1  0  0  0  0
 37 63  1  0  0  0  0
 38 40  1  0  0  0  0
 39 41  1  0  0  0  0
 39 42  1  0  0  0  0
 40 44  1  0  0  0  0
 41 46  1  0  0  0  0
 42 64  1  0  0  0  0
 43 46  1  0  0  0  0
 43 64  1  0  0  0  0
 44 67  1  0  0  0  0
 45 63  1  0  0  0  0
 46 62  1  0  0  0  0
 47 57  1  0  0  0  0
 48 58  1  0  0  0  0
 49 58  1  0  0  0  0
 50 58  1  0  0  0  0
 51 70  1  0  0  0  0
 52 54  1  0  0  0  0
 53 69  1  0  0  0  0
 54 55  1  0  0  0  0
 55 77  1  0  0  0  0
 56 58  1  0  0  0  0
 56 68  1  0  0  0  0
 57 70  1  0  0  0  0
 59 62  1  0  0  0  0
 60 61  1  0  0  0  0
M  CHG  1  70   1
M  ISO  4  34 100  55 101  69 100  77 101
M  END
> <Batch ID>
0047

> <Smiles>
CNC(C)C(=O)NC(C(=O)N1Cc2cc([101O:1][101CH2:1]CCc3nnc(C[100NH:0][100C:0](=O)N4CCCC(n5nc(-c6ccc(Oc7ccc(F)cc7F)cc6)c(C(N)=O)c5N)C4)s3)ccc2CC1C(=O)NC1CCCc2ccccc21)C(C)(C)C

> <Shape>
0.247

> <Color>
0.049

> <Negative vol penalty>
0.000

$$$$

  -OEChem-04052317243D

 89 97  0     1  0  0  0  0  0999 V2000
  -32.1199  -34.9982   21.6761 C   0  0  0  0  0  0  0  0  0  0  0  0
  -31.3786  -33.9940   21.0617 C   0  0  0  0  0  0  0  0  0  0  0  0
  -24.7391   -8.6863   21.7534 C   0  0  0  0  0  0  0  0  0  0  0  0
  -23.3780   -9.5755   19.9663 C   0  0  0  0  0  0  0  0  0  0  0  0
  -32.0428  -35.1745   23.0570 C   0  0  0  0  0  0  0  0  0  0  0  0
  -30.5606  -33.1646   21.8282 C   0  0  0  0  0  0  0  0  0  0  0  0
  -25.1742  -30.7626   20.1782 C   0  0  0  0  0  0  0  0  0  0  0  0
  -23.5867   -8.3435   22.4605 C   0  0  0  0  0  0  0  0  0  0  0  0
  -22.2256   -9.2327   20.6734 C   0  0  0  0  0  0  0  0  0  0  0  0
  -24.8177  -29.5068   19.6887 C   0  0  0  0  0  0  0  0  0  0  0  0
  -21.2656   -5.8855   22.3996 C   0  0  0  0  0  0  0  0  0  0  0  0
  -21.2170   -4.6209   22.9859 C   0  0  0  0  0  0  0  0  0  0  0  0
  -24.2394  -28.8065   21.9235 C   0  0  0  0  0  0  0  0  0  0  0  0
  -20.9522   -5.6393   25.1607 C   0  0  0  0  0  0  0  0  0  0  0  0
  -29.1427  -19.9297   19.3742 C   0  0  0  0  0  0  0  0  0  0  0  0
  -24.6348   -9.3024   20.5063 C   0  0  0  0  0  0  0  0  0  0  0  0
  -26.5221   -8.8605   18.8479 C   0  0  0  0  0  0  0  0  0  0  0  0
  -31.2160  -34.3531   23.8395 C   0  0  0  0  0  0  0  0  0  0  0  0
  -25.0762  -31.0468   21.5479 C   0  0  0  0  0  0  0  0  0  0  0  0
  -30.4735  -33.3291   23.2210 C   0  0  0  0  0  0  0  0  0  0  0  0
  -24.5929  -30.0675   22.4275 C   0  0  0  0  0  0  0  0  0  0  0  0
  -22.3300   -8.6166   21.9205 C   0  0  0  0  0  0  0  0  0  0  0  0
  -24.3530  -28.5276   20.5617 C   0  0  0  0  0  0  0  0  0  0  0  0
  -21.1576   -7.0272   23.1938 C   0  0  0  0  0  0  0  0  0  0  0  0
  -21.0603   -4.4977   24.3665 C   0  0  0  0  0  0  0  0  0  0  0  0
  -21.0009   -6.9040   24.5744 C   0  0  0  0  0  0  0  0  0  0  0  0
  -25.8249   -9.6573   19.7756 C   0  0  0  0  0  0  0  0  0  0  0  0
  -28.0608  -20.8285   19.4324 C   0  0  0  0  0  0  0  0  0  0  0  0
  -28.5630  -18.6880   19.4671 C   0  0  0  0  0  0  0  0  0  0  0  0
  -27.5711   -9.6474   18.4394 C   0  0  0  0  0  0  0  0  0  0  0  0
  -26.2462   -7.5282   18.3957 C   0  0  0  0  0  0  0  0  0  0  0  0
  -27.1429  -31.8478   23.8261 C   0  0  0  0  0  0  0  0  0  0  0  0
  -24.4520  -32.1926   25.6044 C   0  0  0  0  0  0  0  0  0  0  0  0
  -21.1782  -31.3633   26.0961 C   0  0  0  0  0  0  0  0  0  0  0  0
  -28.3604  -15.3792   18.0773 C   0  0  0  0  0  0  0  0  0  0  0  0
  -31.2017  -34.5512   25.3346 C   0  0  0  0  0  0  0  0  0  0  0  0
  -25.4394  -32.4150   22.0563 C   0  0  0  0  0  0  0  0  0  0  0  0
  -24.4498  -30.3288   23.9039 C   0  0  0  0  0  0  0  0  0  0  0  0
  -30.0236  -33.8717   26.0278 C   0  0  0  0  0  0  0  0  0  0  0  0
  -30.4141  -13.1837   19.9304 C   0  0  0  0  0  0  0  0  0  0  0  0
  -29.8562  -32.4435   25.5189 C   0  0  0  0  0  0  0  0  0  0  0  0
  -29.5272  -11.9427   20.0197 C   0  0  0  0  0  0  0  0  0  0  0  0
  -29.6118  -14.4762   20.0923 C   0  0  0  0  0  0  0  0  0  0  0  0
  -27.5764  -13.3462   19.2540 C   0  0  0  0  0  0  0  0  0  0  0  0
  -29.5557  -32.4252   24.0153 C   0  0  1  0  0  0  0  0  0  0  0  0
  -25.7862  -32.4277   23.5419 C   0  0  1  0  0  0  0  0  0  0  0  0
  -28.3491  -12.0364   19.0346 C   0  0  2  0  0  0  0  0  0  0  0  0
  -31.5093  -16.4817   16.5821 C   0  0  0  0  0  0  0  0  0  0  0  0
  -19.2549  -31.7736   27.6549 C   0  0  0  0  0  0  0  0  0  0  0  0
  -25.7168  -30.3195   27.6542 C   0  0  0  0  0  0  0  0  0  0  0  0
  -23.4499  -30.0165   28.6728 C   0  0  0  0  0  0  0  0  0  0  0  0
  -24.5067  -32.2758   28.6356 C   0  0  0  0  0  0  0  0  0  0  0  0
  -26.1834  -17.9126   19.6927 C   0  0  0  0  0  0  0  0  0  0  0  0
  -19.5321  -32.5461   23.9397 C   0  0  0  0  0  0  0  0  0  0  0  0
  -24.2486  -22.5437   17.5280 C   0  0  0  0  0  0  0  0  0  0  0  0
  -28.1133  -22.3344   19.3767 C   0  0  0  0  0  0  0  0  0  0  0  0
  -29.1578  -17.3389   19.4660 C   0  0  0  0  0  0  0  0  0  0  0  0
  -30.6718  -17.7385   16.7733 C   0  0  0  0  0  0  0  0  0  0  0  0
  -28.0170  -22.9071   17.9564 C   0  0  0  0  0  0  0  0  0  0  0  0
  -24.7500  -25.3105   18.9746 C   0  0  0  0  0  0  0  0  0  0  0  0
  -29.1960  -17.4339   17.0012 C   0  0  0  0  0  0  0  0  0  0  0  0
  -26.7182  -22.6050   17.2152 C   0  0  0  0  0  0  0  0  0  0  0  0
  -25.4850  -24.6887   17.7967 C   0  0  0  0  0  0  0  0  0  0  0  0
  -24.6958  -26.8326   18.9292 C   0  0  0  0  0  0  0  0  0  1  0  0
  -23.6274  -31.2832   26.4831 C   0  0  1  0  0  0  0  0  0  0  0  0
  -19.9547  -32.2160   26.3793 C   0  0  2  0  0  0  0  0  0  0  0  0
  -24.3296  -30.9679   27.8339 C   0  0  0  0  0  0  0  0  0  0  0  0
  -26.3839  -10.8583   19.9467 N   0  0  0  0  0  0  0  0  0  0  0  0
  -26.8828  -20.2104   19.5528 N   0  0  0  0  0  0  0  0  0  0  0  0
  -27.2213  -18.9099   19.5710 N   0  0  0  0  0  0  0  0  0  0  0  0
  -27.4436  -10.8219   19.1210 N   0  0  0  0  0  0  0  0  0  0  0  0
  -24.8237  -31.6800   24.3535 N   0  0  0  0  0  0  0  0  0  0  0  0
  -28.4705  -14.5034   19.1674 N   0  0  0  0  0  0  0  0  0  0  0  0
  -28.5810   -9.4424   17.5673 N   0  0  0  0  0  0  0  0  0  0  0  0
  -25.1281   -6.8636   18.9176 N   0  0  0  0  0  0  0  0  0  0  0  0
  -28.1712  -32.7694   23.7723 N   0  0  0  0  0  0  0  0  0  0  0  0
  -22.3235  -31.9225   26.6224 N   0  0  0  0  0  0  0  0  0  0  0  0
  -28.9735  -16.6353   18.1983 N   0  0  0  0  0  0  0  0  0  0  0  0
  -18.9838  -32.1191   25.2528 N   0  3  0  0  0  0  0  0  0  0  0  0
  -25.5388  -23.2144   17.9345 N   0  3  1  0  0  0  0  0  0  0  0  0
  -26.9791   -6.9382   17.5660 O   0  0  0  0  0  0  0  0  0  0  0  0
  -27.2488  -30.6531   24.0772 O   0  0  0  0  0  0  0  0  0  0  0  0
  -24.7490  -33.3190   26.0100 O   0  0  0  0  0  0  0  0  0  0  0  0
  -21.1230  -30.3049   25.4738 O   0  0  0  0  0  0  0  0  0  0  0  0
  -27.7413  -15.0606   17.0540 O   0  0  0  0  0  0  0  0  0  0  0  0
  -21.2052   -8.2820   22.6101 O   0  0  0  0  0  0  0  0  0  0  0  0
  -24.0049  -27.3008   20.0867 O   0  0  0  0  0  0  0  0  0  1  0  0
  -21.0121   -3.2832   24.9292 F   0  0  0  0  0  0  0  0  0  0  0  0
  -20.8954   -7.9971   25.3424 F   0  0  0  0  0  0  0  0  0  0  0  0
  1  2  1  0  0  0  0
  1  5  2  0  0  0  0
  2  6  2  0  0  0  0
  3  8  2  0  0  0  0
  3 16  1  0  0  0  0
  4  9  1  0  0  0  0
  4 16  2  0  0  0  0
  5 18  1  0  0  0  0
  6 20  1  0  0  0  0
  7 10  2  0  0  0  0
  7 19  1  0  0  0  0
  8 22  1  0  0  0  0
  9 22  2  0  0  0  0
 10 23  1  0  0  0  0
 11 12  2  0  0  0  0
 11 24  1  0  0  0  0
 12 25  1  0  0  0  0
 13 21  1  0  0  0  0
 13 23  2  0  0  0  0
 14 25  2  0  0  0  0
 14 26  1  0  0  0  0
 15 28  1  0  0  0  0
 15 29  2  0  0  0  0
 16 27  1  0  0  0  0
 17 27  1  0  0  0  0
 17 30  2  0  0  0  0
 17 31  1  0  0  0  0
 18 20  2  0  0  0  0
 18 36  1  0  0  0  0
 19 21  2  0  0  0  0
 19 37  1  0  0  0  0
 20 45  1  0  0  0  0
 21 38  1  0  0  0  0
 22 86  1  0  0  0  0
 23 87  1  0  0  0  0
 24 26  2  0  0  0  0
 24 86  1  0  0  0  0
 25 88  1  0  0  0  0
 26 89  1  0  0  0  0
 27 68  2  0  0  0  0
 28 56  1  0  0  0  0
 28 69  2  0  0  0  0
 29 57  1  0  0  0  0
 29 70  1  0  0  0  0
 30 71  1  0  0  0  0
 30 74  1  0  0  0  0
 31 75  1  0  0  0  0
 31 81  2  0  0  0  0
 32 46  1  0  0  0  0
 32 76  1  0  0  0  0
 32 82  2  0  0  0  0
 33 65  1  0  0  0  0
 33 72  1  0  0  0  0
 33 83  2  0  0  0  0
 34 66  1  0  0  0  0
 34 77  1  0  0  0  0
 34 84  2  0  0  0  0
 35 73  1  0  0  0  0
 35 78  1  0  0  0  0
 35 85  2  0  0  0  0
 36 39  1  0  0  0  0
 37 46  1  0  0  0  0
 38 72  1  0  0  0  0
 39 41  1  0  0  0  0
 40 42  1  0  0  0  0
 40 43  1  0  0  0  0
 41 45  1  0  0  0  0
 42 47  1  0  0  0  0
 43 73  1  0  0  0  0
 44 47  1  0  0  0  0
 44 73  1  0  0  0  0
 45 76  1  0  0  0  0
 46 72  1  0  0  0  0
 47 71  1  0  0  0  0
 48 58  1  0  0  0  0
 49 66  1  0  0  0  0
 50 67  1  0  0  0  0
 51 67  1  0  0  0  0
 52 67  1  0  0  0  0
 53 70  1  0  0  0  0
 54 79  1  0  0  0  0
 55 80  1  0  0  0  0
 56 59  1  0  0  0  0
 57 78  1  0  0  0  0
 58 61  1  0  0  0  0
 59 62  1  0  0  0  0
 60 63  1  0  0  0  0
 60 64  1  0  0  0  0
 61 78  1  0  0  0  0
 62 80  1  0  0  0  0
 63 80  1  0  0  0  0
 64 87  1  0  0  0  0
 65 67  1  0  0  0  0
 65 77  1  0  0  0  0
 66 79  1  0  0  0  0
 68 71  1  0  0  0  0
 69 70  1  0  0  0  0
M  CHG  2  79   1  80   1
M  ISO  4  35 100  64 101  78 100  87 101
M  END
> <Batch ID>
0047

> <Smiles>
CCC[100N:0](Cc1cc(CCCN(C)CC[101CH2:1][101O:1]c2ccc3c(c2)CN(C(=O)C(NC(=O)C(C)NC)C(C)(C)C)C(C(=O)NC2CCCc4ccccc42)C3)nn1C)[100C:0](=O)N1CCCC(n2nc(-c3ccc(Oc4ccc(F)cc4F)cc3)c(C(N)=O)c2N)C1

> <Shape>
0.249

> <Color>
0.063

> <Negative vol penalty>
0.000

$$$$

  -OEChem-04052317243D

 81 89  0     1  0  0  0  0  0999 V2000
  -20.9444  -20.1415   22.4728 C   0  0  0  0  0  0  0  0  0  0  0  0
  -22.2541  -20.2939   22.0292 C   0  0  0  0  0  0  0  0  0  0  0  0
  -27.7806  -12.2368   22.7522 C   0  0  0  0  0  0  0  0  0  0  0  0
  -27.4087  -11.6425   20.4402 C   0  0  0  0  0  0  0  0  0  0  0  0
  -20.0477  -21.2044   22.3732 C   0  0  0  0  0  0  0  0  0  0  0  0
  -22.6676  -21.5091   21.4846 C   0  0  0  0  0  0  0  0  0  0  0  0
  -28.2046  -24.0764   21.9910 C   0  0  0  0  0  0  0  0  0  0  0  0
  -26.8689  -11.2590   23.1502 C   0  0  0  0  0  0  0  0  0  0  0  0
  -26.4971  -10.6647   20.8381 C   0  0  0  0  0  0  0  0  0  0  0  0
  -29.3059  -24.1071   21.1367 C   0  0  0  0  0  0  0  0  0  0  0  0
  -23.8031   -8.2557   21.2243 C   0  0  0  0  0  0  0  0  0  0  0  0
  -22.5986   -8.1696   20.5262 C   0  0  0  0  0  0  0  0  0  0  0  0
  -28.5883  -26.2522   20.2984 C   0  0  0  0  0  0  0  0  0  0  0  0
  -22.0704  -10.4411   21.1575 C   0  0  0  0  0  0  0  0  0  0  0  0
  -30.0261  -23.4168   16.1361 C   0  0  0  0  0  0  0  0  0  0  0  0
  -31.8110  -22.8327   17.3558 C   0  0  0  0  0  0  0  0  0  0  0  0
  -28.0504  -12.4286   21.3972 C   0  0  0  0  0  0  0  0  0  0  0  0
  -30.3788  -13.2842   20.8019 C   0  0  0  0  0  0  0  0  0  0  0  0
  -20.4530  -22.4364   21.8359 C   0  0  0  0  0  0  0  0  0  0  0  0
  -27.2794  -25.1302   21.9976 C   0  0  0  0  0  0  0  0  0  0  0  0
  -21.7751  -22.5892   21.3764 C   0  0  0  0  0  0  0  0  0  0  0  0
  -27.4775  -26.2337   21.1556 C   0  0  0  0  0  0  0  0  0  0  0  0
  -30.1057  -22.0418   16.1164 C   0  0  0  0  0  0  0  0  0  0  0  0
  -26.2272  -10.4729   22.1932 C   0  0  0  0  0  0  0  0  0  0  0  0
  -29.4964  -25.1938   20.2882 C   0  0  0  0  0  0  0  0  0  0  0  0
  -24.1412   -9.4344   21.8892 C   0  0  0  0  0  0  0  0  0  0  0  0
  -21.7323   -9.2623   20.4927 C   0  0  0  0  0  0  0  0  0  0  0  0
  -23.2749  -10.5271   21.8557 C   0  0  0  0  0  0  0  0  0  0  0  0
  -31.2350  -21.6722   16.8880 C   0  0  0  0  0  0  0  0  0  0  0  0
  -28.9916  -13.4389   20.9854 C   0  0  0  0  0  0  0  0  0  0  0  0
  -30.8142  -14.5270   20.4115 C   0  0  0  0  0  0  0  0  0  0  0  0
  -31.2003  -12.1211   20.9692 C   0  0  0  0  0  0  0  0  0  0  0  0
  -24.1779  -25.3961   21.3543 C   0  0  0  0  0  0  0  0  0  0  0  0
  -24.6131  -28.4263   22.4270 C   0  0  0  0  0  0  0  0  0  0  0  0
  -26.7559  -31.0244   22.9793 C   0  0  0  0  0  0  0  0  0  0  0  0
  -28.0626  -18.9807   17.6821 C   0  0  0  0  0  0  0  0  0  0  0  0
  -19.4350  -23.5415   21.7051 C   0  0  0  0  0  0  0  0  0  0  0  0
  -26.1110  -25.0943   22.9442 C   0  0  0  0  0  0  0  0  0  0  0  0
  -26.5243  -27.3997   21.1389 C   0  0  0  0  0  0  0  0  0  0  0  0
  -20.0549  -24.9149   21.4604 C   0  0  0  0  0  0  0  0  0  0  0  0
  -29.7686  -19.1753   20.8679 C   0  0  0  0  0  0  0  0  0  0  0  0
  -21.1266  -24.8316   20.3781 C   0  0  0  0  0  0  0  0  0  0  0  0
  -29.8920  -17.6960   21.2377 C   0  0  0  0  0  0  0  0  0  0  0  0
  -28.4397  -19.4631   20.1757 C   0  0  0  0  0  0  0  0  0  0  0  0
  -28.3033  -17.1502   19.3356 C   0  0  0  0  0  0  0  0  0  0  0  0
  -22.2681  -23.8998   20.8025 C   0  0  1  0  0  0  0  0  0  0  0  0
  -24.9539  -25.9833   22.4991 C   0  0  1  0  0  0  0  0  0  0  0  0
  -29.6352  -16.7904   20.0186 C   0  0  2  0  0  0  0  0  0  0  0  0
  -26.8124  -33.3844   23.8306 C   0  0  0  0  0  0  0  0  0  0  0  0
  -23.3737  -29.3963   19.8130 C   0  0  0  0  0  0  0  0  0  0  0  0
  -24.3095  -31.6682   20.2933 C   0  0  0  0  0  0  0  0  0  0  0  0
  -22.6402  -30.6552   21.8456 C   0  0  0  0  0  0  0  0  0  0  0  0
  -28.6163  -30.3132   25.1684 C   0  0  0  0  0  0  0  0  0  0  0  0
  -29.1734  -21.1376   15.4120 C   0  0  0  0  0  0  0  0  0  0  0  0
  -31.3531  -25.3425   17.1713 C   0  0  0  0  0  0  0  0  0  0  0  0
  -27.8386  -20.9160   16.1455 C   0  0  0  0  0  0  0  0  0  0  0  0
  -30.4133  -25.9274   18.2201 C   0  0  0  0  0  0  0  0  0  1  0  0
  -24.9966  -29.7407   21.7912 C   0  0  1  0  0  0  0  0  0  0  0  0
  -26.9682  -31.9150   24.1902 C   0  0  2  0  0  0  0  0  0  0  0  0
  -23.8471  -30.3424   20.9345 C   0  0  0  0  0  0  0  0  0  0  0  0
  -28.5735  -14.6820   20.7326 N   0  0  0  0  0  0  0  0  0  0  0  0
  -31.0677  -23.8868   16.8928 N   0  0  0  0  0  0  0  0  0  0  0  0
  -29.7046  -15.3198   20.3863 N   0  0  0  0  0  0  0  0  0  0  0  0
  -25.3938  -27.3151   22.0783 N   0  0  0  0  0  0  0  0  0  0  0  0
  -28.2653  -18.5806   19.0134 N   0  0  0  0  0  0  0  0  0  0  0  0
  -32.0340  -15.0082   20.0909 N   0  0  0  0  0  0  0  0  0  0  0  0
  -30.5913  -10.9258   21.3751 N   0  0  0  0  0  0  0  0  0  0  0  0
  -23.1425  -24.5675   21.7427 N   0  0  0  0  0  0  0  0  0  0  0  0
  -25.4467  -30.6039   22.8779 N   0  0  0  0  0  0  0  0  0  0  0  0
  -28.0327  -20.3525   17.4629 N   0  0  0  0  0  0  0  0  0  0  0  0
  -28.3340  -31.7106   24.7505 N   0  3  0  0  0  0  0  0  0  0  0  0
  -32.4402  -12.1453   20.7806 O   0  0  0  0  0  0  0  0  0  0  0  0
  -24.4941  -25.6754   20.2037 O   0  0  0  0  0  0  0  0  0  0  0  0
  -23.6606  -28.3883   23.2099 O   0  0  0  0  0  0  0  0  0  0  0  0
  -27.6601  -30.7342   22.1992 O   0  0  0  0  0  0  0  0  0  0  0  0
  -27.9239  -18.1746   16.7558 O   0  0  0  0  0  0  0  0  0  0  0  0
  -25.3377   -9.5185   22.5812 O   0  0  0  0  0  0  0  0  0  0  0  0
  -30.5702  -25.2260   19.4528 O   0  0  0  0  0  0  0  0  0  1  0  0
  -20.5764   -9.1800   19.8210 F   0  0  0  0  0  0  0  0  0  0  0  0
  -23.5948  -11.6625   22.4915 F   0  0  0  0  0  0  0  0  0  0  0  0
  -31.7703  -20.0857   17.1754 Cl  0  0  0  0  0  0  0  0  0  0  0  0
  1  2  1  0  0  0  0
  1  5  2  0  0  0  0
  2  6  2  0  0  0  0
  3  8  2  0  0  0  0
  3 17  1  0  0  0  0
  4  9  1  0  0  0  0
  4 17  2  0  0  0  0
  5 19  1  0  0  0  0
  6 21  1  0  0  0  0
  7 10  2  0  0  0  0
  7 20  1  0  0  0  0
  8 24  1  0  0  0  0
  9 24  2  0  0  0  0
 10 25  1  0  0  0  0
 11 12  2  0  0  0  0
 11 26  1  0  0  0  0
 12 27  1  0  0  0  0
 13 22  1  0  0  0  0
 13 25  2  0  0  0  0
 14 27  2  0  0  0  0
 14 28  1  0  0  0  0
 15 23  2  0  0  0  0
 15 62  1  0  0  0  0
 16 29  2  0  0  0  0
 16 62  1  0  0  0  0
 17 30  1  0  0  0  0
 18 30  1  0  0  0  0
 18 31  2  0  0  0  0
 18 32  1  0  0  0  0
 19 21  2  0  0  0  0
 19 37  1  0  0  0  0
 20 22  2  0  0  0  0
 20 38  1  0  0  0  0
 21 46  1  0  0  0  0
 22 39  1  0  0  0  0
 23 29  1  0  0  0  0
 23 54  1  0  0  0  0
 24 77  1  0  0  0  0
 25 78  1  0  0  0  0
 26 28  2  0  0  0  0
 26 77  1  0  0  0  0
 27 79  1  0  0  0  0
 28 80  1  0  0  0  0
 29 81  1  0  0  0  0
 30 61  2  0  0  0  0
 31 63  1  0  0  0  0
 31 66  1  0  0  0  0
 32 67  1  0  0  0  0
 32 72  2  0  0  0  0
 33 47  1  0  0  0  0
 33 68  1  0  0  0  0
 33 73  2  0  0  0  0
 34 58  1  0  0  0  0
 34 64  1  0  0  0  0
 34 74  2  0  0  0  0
 35 59  1  0  0  0  0
 35 69  1  0  0  0  0
 35 75  2  0  0  0  0
 36 65  1  0  0  0  0
 36 70  1  0  0  0  0
 36 76  2  0  0  0  0
 37 40  1  0  0  0  0
 38 47  1  0  0  0  0
 39 64  1  0  0  0  0
 40 42  1  0  0  0  0
 41 43  1  0  0  0  0
 41 44  1  0  0  0  0
 42 46  1  0  0  0  0
 43 48  1  0  0  0  0
 44 65  1  0  0  0  0
 45 48  1  0  0  0  0
 45 65  1  0  0  0  0
 46 68  1  0  0  0  0
 47 64  1  0  0  0  0
 48 63  1  0  0  0  0
 49 59  1  0  0  0  0
 50 60  1  0  0  0  0
 51 60  1  0  0  0  0
 52 60  1  0  0  0  0
 53 71  1  0  0  0  0
 54 56  1  0  0  0  0
 55 57  1  0  0  0  0
 55 62  1  0  0  0  0
 56 70  1  0  0  0  0
 57 78  1  0  0  0  0
 58 60  1  0  0  0  0
 58 69  1  0  0  0  0
 59 71  1  0  0  0  0
 61 63  1  0  0  0  0
M  CHG  1  71   1
M  ISO  4  36 100  57 101  70 100  78 101
M  END
> <Batch ID>
0047

> <Smiles>
CNC(C)C(=O)NC(C(=O)N1Cc2cc([101O:1][101CH2:1]Cn3cc(Cl)c(CC[100NH:0][100C:0](=O)N4CCCC(n5nc(-c6ccc(Oc7ccc(F)cc7F)cc6)c(C(N)=O)c5N)C4)c3)ccc2CC1C(=O)NC1CCCc2ccccc21)C(C)(C)C

> <Shape>
0.250

> <Color>
0.070

> <Negative vol penalty>
0.000

$$$$

  -OEChem-04052317243D

 83 91  0     1  0  0  0  0  0999 V2000
  -28.5587  -23.6629   17.5804 C   0  0  0  0  0  0  0  0  0  0  0  0
  -27.3557  -23.8890   18.2416 C   0  0  0  0  0  0  0  0  0  0  0  0
  -27.7018  -15.1153   20.5620 C   0  0  0  0  0  0  0  0  0  0  0  0
  -25.4744  -15.4421   19.6852 C   0  0  0  0  0  0  0  0  0  0  0  0
  -29.7271  -24.2745   18.0329 C   0  0  0  0  0  0  0  0  0  0  0  0
  -27.3207  -24.7260   19.3564 C   0  0  0  0  0  0  0  0  0  0  0  0
  -23.4134  -27.9456   19.2466 C   0  0  0  0  0  0  0  0  0  0  0  0
  -27.4368  -13.7562   20.7289 C   0  0  0  0  0  0  0  0  0  0  0  0
  -25.2093  -14.0829   19.8521 C   0  0  0  0  0  0  0  0  0  0  0  0
  -22.1619  -27.4401   19.5958 C   0  0  0  0  0  0  0  0  0  0  0  0
  -23.8222  -10.7656   20.3825 C   0  0  0  0  0  0  0  0  0  0  0  0
  -22.5984  -10.4084   20.9484 C   0  0  0  0  0  0  0  0  0  0  0  0
  -22.4020  -28.3862   21.8018 C   0  0  0  0  0  0  0  0  0  0  0  0
  -23.1645  -11.6386   22.9492 C   0  0  0  0  0  0  0  0  0  0  0  0
  -17.7065  -24.9167   22.9920 C   0  0  0  0  0  0  0  0  0  0  0  0
  -26.7206  -15.9584   20.0402 C   0  0  0  0  0  0  0  0  0  0  0  0
  -27.5336  -17.9903   18.7295 C   0  0  0  0  0  0  0  0  0  0  0  0
  -29.7047  -25.1270   19.1480 C   0  0  0  0  0  0  0  0  0  0  0  0
  -24.1746  -28.6670   20.1774 C   0  0  0  0  0  0  0  0  0  0  0  0
  -28.4902  -25.3484   19.8250 C   0  0  0  0  0  0  0  0  0  0  0  0
  -23.6617  -28.9020   21.4611 C   0  0  0  0  0  0  0  0  0  0  0  0
  -26.1905  -13.2399   20.3740 C   0  0  0  0  0  0  0  0  0  0  0  0
  -21.6572  -27.6579   20.8744 C   0  0  0  0  0  0  0  0  0  0  0  0
  -24.7173  -11.5592   21.1000 C   0  0  0  0  0  0  0  0  0  0  0  0
  -22.2695  -10.8449   22.2317 C   0  0  0  0  0  0  0  0  0  0  0  0
  -24.3884  -11.9958   22.3833 C   0  0  0  0  0  0  0  0  0  0  0  0
  -26.9936  -17.3626   19.8680 C   0  0  0  0  0  0  0  0  0  0  0  0
  -18.6467  -24.9999   21.9887 C   0  0  0  0  0  0  0  0  0  0  0  0
  -19.0239  -23.4127   24.1019 C   0  0  0  0  0  0  0  0  0  0  0  0
  -19.9638  -23.4952   23.0983 C   0  0  0  0  0  0  0  0  0  0  0  0
  -27.5949  -19.3202   19.0672 C   0  0  0  0  0  0  0  0  0  0  0  0
  -27.9432  -17.4221   17.4785 C   0  0  0  0  0  0  0  0  0  0  0  0
  -27.0088  -28.2568   21.5569 C   0  0  0  0  0  0  0  0  0  0  0  0
  -26.4213  -31.2158   22.7492 C   0  0  0  0  0  0  0  0  0  0  0  0
  -24.1256  -33.5938   23.5987 C   0  0  0  0  0  0  0  0  0  0  0  0
  -24.5437  -22.6800   22.9728 C   0  0  0  0  0  0  0  0  0  0  0  0
  -31.0018  -25.7281   19.6284 C   0  0  0  0  0  0  0  0  0  0  0  0
  -25.5113  -29.2285   19.7767 C   0  0  0  0  0  0  0  0  0  0  0  0
  -24.4306  -29.6876   22.4907 C   0  0  0  0  0  0  0  0  0  0  0  0
  -30.8116  -26.8972   20.5913 C   0  0  0  0  0  0  0  0  0  0  0  0
  -28.0702  -22.2034   22.8557 C   0  0  0  0  0  0  0  0  0  0  0  0
  -29.7758  -26.5491   21.6556 C   0  0  0  0  0  0  0  0  0  0  0  0
  -28.2429  -20.9654   21.9740 C   0  0  0  0  0  0  0  0  0  0  0  0
  -26.8275  -22.0996   23.7371 C   0  0  0  0  0  0  0  0  0  0  0  0
  -25.7486  -20.5742   22.1300 C   0  0  0  0  0  0  0  0  0  0  0  0
  -28.4072  -26.2693   21.0230 C   0  0  1  0  0  0  0  0  0  0  0  0
  -26.4230  -29.5086   20.9673 C   0  0  1  0  0  0  0  0  0  0  0  0
  -26.9577  -20.6569   21.1826 C   0  0  2  0  0  0  0  0  0  0  0  0
  -19.6435  -23.3097   26.5292 C   0  0  0  0  0  0  0  0  0  0  0  0
  -23.9451  -35.8944   24.5847 C   0  0  0  0  0  0  0  0  0  0  0  0
  -26.9438  -30.0641   25.5259 C   0  0  0  0  0  0  0  0  0  0  0  0
  -25.8444  -32.0925   26.4979 C   0  0  0  0  0  0  0  0  0  0  0  0
  -27.9210  -32.3330   25.1369 C   0  0  0  0  0  0  0  0  0  0  0  0
  -22.8782  -34.6749   21.1422 C   0  0  0  0  0  0  0  0  0  0  0  0
  -18.4206  -25.9023   20.8000 C   0  0  0  0  0  0  0  0  0  0  0  0
  -19.2259  -22.5291   25.2853 C   0  0  0  0  0  0  0  0  0  0  0  0
  -21.2265  -22.7047   23.1492 C   0  0  0  0  0  0  0  0  0  0  0  0
  -22.2637  -23.1346   22.1044 C   0  0  0  0  0  0  0  0  0  0  0  0
  -19.7262  -26.4340   20.2191 C   0  0  0  0  0  0  0  0  0  1  0  0
  -25.7451  -31.7550   23.9865 C   0  0  1  0  0  0  0  0  0  0  0  0
  -24.0605  -35.0817   23.3045 C   0  0  2  0  0  0  0  0  0  0  0  0
  -26.5997  -31.5447   25.2682 C   0  0  0  0  0  0  0  0  0  0  0  0
  -17.8782  -24.1216   24.0666 N   0  0  0  0  0  0  0  0  0  0  0  0
  -26.7307  -18.2230   20.8553 N   0  0  0  0  0  0  0  0  0  0  0  0
  -19.7922  -24.2906   22.0238 N   0  0  0  0  0  0  0  0  0  0  0  0
  -27.1072  -19.4049   20.3381 N   0  0  0  0  0  0  0  0  0  0  0  0
  -25.7353  -30.2106   22.0530 N   0  0  0  0  0  0  0  0  0  0  0  0
  -25.6435  -21.8075   22.9254 N   0  0  0  0  0  0  0  0  0  0  0  0
  -28.0179  -20.4137   18.3982 N   0  0  0  0  0  0  0  0  0  0  0  0
  -27.8119  -16.0384   17.2983 N   0  0  0  0  0  0  0  0  0  0  0  0
  -27.7532  -27.5095   20.6642 N   0  0  0  0  0  0  0  0  0  0  0  0
  -25.4270  -33.1502   23.7027 N   0  0  0  0  0  0  0  0  0  0  0  0
  -23.4654  -22.3328   22.1682 N   0  0  0  0  0  0  0  0  0  0  0  0
  -22.8823  -35.3887   22.4451 N   0  3  0  0  0  0  0  0  0  0  0  0
  -28.4269  -18.1184   16.5540 O   0  0  0  0  0  0  0  0  0  0  0  0
  -26.8021  -27.9896   22.7348 O   0  0  0  0  0  0  0  0  0  0  0  0
  -27.5145  -31.6749   22.4088 O   0  0  0  0  0  0  0  0  0  0  0  0
  -23.1223  -32.8957   23.7273 O   0  0  0  0  0  0  0  0  0  0  0  0
  -24.5263  -23.6961   23.6758 O   0  0  0  0  0  0  0  0  0  0  0  0
  -25.9316  -11.9136   20.5365 O   0  0  0  0  0  0  0  0  0  0  0  0
  -20.4362  -27.1651   21.2180 O   0  0  0  0  0  0  0  0  0  1  0  0
  -21.0936  -10.5032   22.7744 F   0  0  0  0  0  0  0  0  0  0  0  0
  -25.2437  -12.7594   23.0770 F   0  0  0  0  0  0  0  0  0  0  0  0
  1  2  1  0  0  0  0
  1  5  2  0  0  0  0
  2  6  2  0  0  0  0
  3  8  2  0  0  0  0
  3 16  1  0  0  0  0
  4  9  1  0  0  0  0
  4 16  2  0  0  0  0
  5 18  1  0  0  0  0
  6 20  1  0  0  0  0
  7 10  2  0  0  0  0
  7 19  1  0  0  0  0
  8 22  1  0  0  0  0
  9 22  2  0  0  0  0
 10 23  1  0  0  0  0
 11 12  2  0  0  0  0
 11 24  1  0  0  0  0
 12 25  1  0  0  0  0
 13 21  1  0  0  0  0
 13 23  2  0  0  0  0
 14 25  2  0  0  0  0
 14 26  1  0  0  0  0
 15 28  1  0  0  0  0
 15 63  2  0  0  0  0
 16 27  1  0  0  0  0
 17 27  1  0  0  0  0
 17 31  2  0  0  0  0
 17 32  1  0  0  0  0
 18 20  2  0  0  0  0
 18 37  1  0  0  0  0
 19 21  2  0  0  0  0
 19 38  1  0  0  0  0
 20 46  1  0  0  0  0
 21 39  1  0  0  0  0
 22 80  1  0  0  0  0
 23 81  1  0  0  0  0
 24 26  2  0  0  0  0
 24 80  1  0  0  0  0
 25 82  1  0  0  0  0
 26 83  1  0  0  0  0
 27 64  2  0  0  0  0
 28 55  1  0  0  0  0
 28 65  2  0  0  0  0
 29 30  2  0  0  0  0
 29 56  1  0  0  0  0
 29 63  1  0  0  0  0
 30 57  1  0  0  0  0
 30 65  1  0  0  0  0
 31 66  1  0  0  0  0
 31 69  1  0  0  0  0
 32 70  1  0  0  0  0
 32 75  2  0  0  0  0
 33 47  1  0  0  0  0
 33 71  1  0  0  0  0
 33 76  2  0  0  0  0
 34 60  1  0  0  0  0
 34 67  1  0  0  0  0
 34 77  2  0  0  0  0
 35 61  1  0  0  0  0
 35 72  1  0  0  0  0
 35 78  2  0  0  0  0
 36 68  1  0  0  0  0
 36 73  1  0  0  0  0
 36 79  2  0  0  0  0
 37 40  1  0  0  0  0
 38 47  1  0  0  0  0
 39 67  1  0  0  0  0
 40 42  1  0  0  0  0
 41 43  1  0  0  0  0
 41 44  1  0  0  0  0
 42 46  1  0  0  0  0
 43 48  1  0  0  0  0
 44 68  1  0  0  0  0
 45 48  1  0  0  0  0
 45 68  1  0  0  0  0
 46 71  1  0  0  0  0
 47 67  1  0  0  0  0
 48 66  1  0  0  0  0
 49 56  1  0  0  0  0
 50 61  1  0  0  0  0
 51 62  1  0  0  0  0
 52 62  1  0  0  0  0
 53 62  1  0  0  0  0
 54 74  1  0  0  0  0
 55 59  1  0  0  0  0
 57 58  1  0  0  0  0
 58 73  1  0  0  0  0
 59 81  1  0  0  0  0
 60 62  1  0  0  0  0
 60 72  1  0  0  0  0
 61 74  1  0  0  0  0
 64 66  1  0  0  0  0
M  CHG  1  74   1
M  ISO  4  36 100  59 101  73 100  81 101
M  END
> <Batch ID>
0047

> <Smiles>
CCc1ncc(C[101CH2:1][101O:1]c2ccc3c(c2)CN(C(=O)C(NC(=O)C(C)NC)C(C)(C)C)C(C(=O)NC2CCCc4ccccc42)C3)nc1CC[100NH:0][100C:0](=O)N1CCCC(n2nc(-c3ccc(Oc4ccc(F)cc4F)cc3)c(C(N)=O)c2N)C1

> <Shape>
0.275

> <Color>
0.062

> <Negative vol penalty>
0.000

$$$$

  -OEChem-04052317243D

 84 92  0     1  0  0  0  0  0999 V2000
  -24.8705  -33.0797   26.3410 C   0  0  0  0  0  0  0  0  0  0  0  0
  -24.8905  -31.7156   26.6134 C   0  0  0  0  0  0  0  0  0  0  0  0
  -22.9407   -9.9052   20.0002 C   0  0  0  0  0  0  0  0  0  0  0  0
  -23.6724   -9.9379   22.3025 C   0  0  0  0  0  0  0  0  0  0  0  0
  -24.7166  -33.5252   25.0288 C   0  0  0  0  0  0  0  0  0  0  0  0
  -24.7556  -30.7961   25.5737 C   0  0  0  0  0  0  0  0  0  0  0  0
  -27.4431  -25.3104   25.1386 C   0  0  0  0  0  0  0  0  0  0  0  0
  -22.1495   -8.7880   20.2675 C   0  0  0  0  0  0  0  0  0  0  0  0
  -22.8811   -8.8207   22.5698 C   0  0  0  0  0  0  0  0  0  0  0  0
  -26.9927  -24.0205   25.4164 C   0  0  0  0  0  0  0  0  0  0  0  0
  -23.0491   -5.4775   22.0948 C   0  0  0  0  0  0  0  0  0  0  0  0
  -23.6154   -4.4467   22.8446 C   0  0  0  0  0  0  0  0  0  0  0  0
  -26.4247  -23.7245   23.0907 C   0  0  0  0  0  0  0  0  0  0  0  0
  -21.9015   -4.7270   24.5242 C   0  0  0  0  0  0  0  0  0  0  0  0
  -23.7022  -10.4801   21.0177 C   0  0  0  0  0  0  0  0  0  0  0  0
  -24.1436  -12.9865   20.8427 C   0  0  0  0  0  0  0  0  0  0  0  0
  -24.5894  -32.6107   23.9715 C   0  0  0  0  0  0  0  0  0  0  0  0
  -27.3775  -25.8218   23.8346 C   0  0  0  0  0  0  0  0  0  0  0  0
  -24.5985  -31.2298   24.2464 C   0  0  0  0  0  0  0  0  0  0  0  0
  -26.8773  -25.0202   22.7985 C   0  0  0  0  0  0  0  0  0  0  0  0
  -22.1197   -8.2458   21.5523 C   0  0  0  0  0  0  0  0  0  0  0  0
  -26.4807  -23.2284   24.3930 C   0  0  0  0  0  0  0  0  0  0  0  0
  -21.9090   -6.1331   22.5596 C   0  0  0  0  0  0  0  0  0  0  0  0
  -23.0416   -4.0714   24.0594 C   0  0  0  0  0  0  0  0  0  0  0  0
  -21.3352   -5.7578   23.7743 C   0  0  0  0  0  0  0  0  0  0  0  0
  -24.5202  -11.6338   20.7420 C   0  0  0  0  0  0  0  0  0  0  0  0
  -28.6988  -19.8841   22.5082 C   0  0  0  0  0  0  0  0  0  0  0  0
  -27.1152  -18.0921   23.6951 C   0  0  0  0  0  0  0  0  0  0  0  0
  -28.5284  -18.6242   21.9777 C   0  0  0  0  0  0  0  0  0  0  0  0
  -27.2861  -19.3516   24.2261 C   0  0  0  0  0  0  0  0  0  0  0  0
  -25.2685  -13.6843   20.4762 C   0  0  0  0  0  0  0  0  0  0  0  0
  -22.8892  -13.5610   21.2327 C   0  0  0  0  0  0  0  0  0  0  0  0
  -25.8807  -28.2632   22.4552 C   0  0  0  0  0  0  0  0  0  0  0  0
  -27.6223  -27.3650   19.8702 C   0  0  0  0  0  0  0  0  0  0  0  0
  -29.3169  -24.8953   18.2345 C   0  0  0  0  0  0  0  0  0  0  0  0
  -30.7851  -14.4948   20.7121 C   0  0  0  0  0  0  0  0  0  0  0  0
  -24.3778  -33.1401   22.5752 C   0  0  0  0  0  0  0  0  0  0  0  0
  -27.8922  -27.2054   23.5465 C   0  0  0  0  0  0  0  0  0  0  0  0
  -26.8041  -25.5149   21.3779 C   0  0  0  0  0  0  0  0  0  0  0  0
  -24.6170  -32.0979   21.4858 C   0  0  0  0  0  0  0  0  0  0  0  0
  -29.5845  -12.0993   18.3675 C   0  0  0  0  0  0  0  0  0  0  0  0
  -23.9224  -30.7867   21.8396 C   0  0  0  0  0  0  0  0  0  0  0  0
  -28.1315  -11.8719   18.7884 C   0  0  0  0  0  0  0  0  0  0  0  0
  -30.4949  -12.3133   19.5748 C   0  0  0  0  0  0  0  0  0  0  0  0
  -28.6064  -13.1505   20.9188 C   0  0  0  0  0  0  0  0  0  0  0  0
  -24.4799  -30.2013   23.1427 C   0  0  1  0  0  0  0  0  0  0  0  0
  -27.3020  -27.8100   22.2762 C   0  0  1  0  0  0  0  0  0  0  0  0
  -27.6405  -12.9855   19.7329 C   0  0  2  0  0  0  0  0  0  0  0  0
  -29.5803  -20.8911   21.8522 C   0  0  0  0  0  0  0  0  0  0  0  0
  -26.2336  -17.0850   24.3507 C   0  0  0  0  0  0  0  0  0  0  0  0
  -30.6013  -24.4519   16.1247 C   0  0  0  0  0  0  0  0  0  0  0  0
  -25.0057  -27.2456   18.3052 C   0  0  0  0  0  0  0  0  0  0  0  0
  -26.1972  -25.9165   16.5497 C   0  0  0  0  0  0  0  0  0  0  0  0
  -26.9248  -28.2487   17.0540 C   0  0  0  0  0  0  0  0  0  0  0  0
  -31.7810  -24.2365   19.7356 C   0  0  0  0  0  0  0  0  0  0  0  0
  -29.2181  -18.2095   20.7231 C   0  0  0  0  0  0  0  0  0  0  0  0
  -26.5888  -19.7711   25.4973 C   0  0  0  0  0  0  0  0  0  0  0  0
  -30.6960  -17.8110   20.9082 C   0  0  0  0  0  0  0  0  0  0  0  0
  -30.9197  -16.6703   21.8988 C   0  0  0  0  0  0  0  0  0  0  0  0
  -26.6726  -21.2748   25.7356 C   0  0  0  0  0  0  0  0  0  1  0  0
  -27.4133  -26.4104   18.7196 C   0  0  1  0  0  0  0  0  0  0  0  0
  -30.6878  -24.8758   17.5827 C   0  0  2  0  0  0  0  0  0  0  0  0
  -26.3847  -26.9464   17.6842 C   0  0  0  0  0  0  0  0  0  0  0  0
  -25.7853  -11.4791   20.3427 N   0  0  0  0  0  0  0  0  0  0  0  0
  -27.7334  -17.7058   22.5614 N   0  0  0  0  0  0  0  0  0  0  0  0
  -28.0810  -20.2702   23.6421 N   0  0  0  0  0  0  0  0  0  0  0  0
  -26.2135  -12.7437   20.1891 N   0  0  0  0  0  0  0  0  0  0  0  0
  -27.3137  -26.8769   21.1478 N   0  0  0  0  0  0  0  0  0  0  0  0
  -29.9741  -13.3834   20.4290 N   0  0  0  0  0  0  0  0  0  0  0  0
  -25.5315  -15.0045   20.3746 N   0  0  0  0  0  0  0  0  0  0  0  0
  -21.8386  -12.7000   21.5780 N   0  0  0  0  0  0  0  0  0  0  0  0
  -25.7573  -29.5641   22.9046 N   0  0  0  0  0  0  0  0  0  0  0  0
  -28.7361  -26.1439   18.1649 N   0  0  0  0  0  0  0  0  0  0  0  0
  -30.2124  -15.4660   21.5241 N   0  0  0  0  0  0  0  0  0  0  0  0
  -31.5870  -23.9252   18.2960 N   0  3  0  0  0  0  0  0  0  0  0  0
  -22.7004  -14.8009   21.2579 O   0  0  0  0  0  0  0  0  0  0  0  0
  -24.9638  -27.4904   22.2029 O   0  0  0  0  0  0  0  0  0  0  0  0
  -28.0505  -28.4996   19.6445 O   0  0  0  0  0  0  0  0  0  0  0  0
  -28.8104  -23.9014   18.7503 O   0  0  0  0  0  0  0  0  0  0  0  0
  -31.9324  -14.6152   20.2694 O   0  0  0  0  0  0  0  0  0  0  0  0
  -21.3475   -7.1558   21.8136 O   0  0  0  0  0  0  0  0  0  0  0  0
  -26.0398  -21.9693   24.6615 O   0  0  0  0  0  0  0  0  0  1  0  0
  -23.5846   -3.0805   24.7786 F   0  0  0  0  0  0  0  0  0  0  0  0
  -20.2392   -6.3832   24.2255 F   0  0  0  0  0  0  0  0  0  0  0  0
  1  2  1  0  0  0  0
  1  5  2  0  0  0  0
  2  6  2  0  0  0  0
  3  8  2  0  0  0  0
  3 15  1  0  0  0  0
  4  9  1  0  0  0  0
  4 15  2  0  0  0  0
  5 17  1  0  0  0  0
  6 19  1  0  0  0  0
  7 10  2  0  0  0  0
  7 18  1  0  0  0  0
  8 21  1  0  0  0  0
  9 21  2  0  0  0  0
 10 22  1  0  0  0  0
 11 12  2  0  0  0  0
 11 23  1  0  0  0  0
 12 24  1  0  0  0  0
 13 20  1  0  0  0  0
 13 22  2  0  0  0  0
 14 24  2  0  0  0  0
 14 25  1  0  0  0  0
 15 26  1  0  0  0  0
 16 26  1  0  0  0  0
 16 31  2  0  0  0  0
 16 32  1  0  0  0  0
 17 19  2  0  0  0  0
 17 37  1  0  0  0  0
 18 20  2  0  0  0  0
 18 38  1  0  0  0  0
 19 46  1  0  0  0  0
 20 39  1  0  0  0  0
 21 81  1  0  0  0  0
 22 82  1  0  0  0  0
 23 25  2  0  0  0  0
 23 81  1  0  0  0  0
 24 83  1  0  0  0  0
 25 84  1  0  0  0  0
 26 64  2  0  0  0  0
 27 29  1  0  0  0  0
 27 49  1  0  0  0  0
 27 66  2  0  0  0  0
 28 30  2  0  0  0  0
 28 50  1  0  0  0  0
 28 65  1  0  0  0  0
 29 56  1  0  0  0  0
 29 65  2  0  0  0  0
 30 57  1  0  0  0  0
 30 66  1  0  0  0  0
 31 67  1  0  0  0  0
 31 70  1  0  0  0  0
 32 71  1  0  0  0  0
 32 76  2  0  0  0  0
 33 47  1  0  0  0  0
 33 72  1  0  0  0  0
 33 77  2  0  0  0  0
 34 61  1  0  0  0  0
 34 68  1  0  0  0  0
 34 78  2  0  0  0  0
 35 62  1  0  0  0  0
 35 73  1  0  0  0  0
 35 79  2  0  0  0  0
 36 69  1  0  0  0  0
 36 74  1  0  0  0  0
 36 80  2  0  0  0  0
 37 40  1  0  0  0  0
 38 47  1  0  0  0  0
 39 68  1  0  0  0  0
 40 42  1  0  0  0  0
 41 43  1  0  0  0  0
 41 44  1  0  0  0  0
 42 46  1  0  0  0  0
 43 48  1  0  0  0  0
 44 69  1  0  0  0  0
 45 48  1  0  0  0  0
 45 69  1  0  0  0  0
 46 72  1  0  0  0  0
 47 68  1  0  0  0  0
 48 67  1  0  0  0  0
 51 62  1  0  0  0  0
 52 63  1  0  0  0  0
 53 63  1  0  0  0  0
 54 63  1  0  0  0  0
 55 75  1  0  0  0  0
 56 58  1  0  0  0  0
 57 60  1  0  0  0  0
 58 59  1  0  0  0  0
 59 74  1  0  0  0  0
 60 82  1  0  0  0  0
 61 63  1  0  0  0  0
 61 73  1  0  0  0  0
 62 75  1  0  0  0  0
 64 67  1  0  0  0  0
M  CHG  1  75   1
M  ISO  4  36 100  60 101  74 100  82 101
M  END
> <Batch ID>
0047

> <Smiles>
CNC(C)C(=O)NC(C(=O)N1Cc2cc([101O:1][101CH2:1]Cc3nc(C)c(CCC[100NH:0][100C:0](=O)N4CCCC(n5nc(-c6ccc(Oc7ccc(F)cc7F)cc6)c(C(N)=O)c5N)C4)nc3C)ccc2CC1C(=O)NC1CCCc2ccccc21)C(C)(C)C

> <Shape>
0.319

> <Color>
0.207

> <Negative vol penalty>
0.000

$$$$

  -OEChem-04052317243D

 82 90  0     1  0  0  0  0  0999 V2000
  -36.4820  -23.7900   22.6048 C   0  0  0  0  0  0  0  0  0  0  0  0
  -35.3902  -23.0845   22.1091 C   0  0  0  0  0  0  0  0  0  0  0  0
  -23.0790   -9.8608   19.9490 C   0  0  0  0  0  0  0  0  0  0  0  0
  -23.8394   -9.8796   22.2421 C   0  0  0  0  0  0  0  0  0  0  0  0
  -36.3138  -25.0910   23.0770 C   0  0  0  0  0  0  0  0  0  0  0  0
  -34.1292  -23.6793   22.0863 C   0  0  0  0  0  0  0  0  0  0  0  0
  -31.7024  -22.9211   17.7067 C   0  0  0  0  0  0  0  0  0  0  0  0
  -22.3374   -8.7074   20.2044 C   0  0  0  0  0  0  0  0  0  0  0  0
  -23.0978   -8.7262   22.4976 C   0  0  0  0  0  0  0  0  0  0  0  0
  -31.1096  -21.6739   17.5149 C   0  0  0  0  0  0  0  0  0  0  0  0
  -21.1184   -5.9914   23.8471 C   0  0  0  0  0  0  0  0  0  0  0  0
  -20.3625   -5.9517   25.0187 C   0  0  0  0  0  0  0  0  0  0  0  0
  -28.9673  -22.6067   18.1145 C   0  0  0  0  0  0  0  0  0  0  0  0
  -19.1141   -7.8832   24.2787 C   0  0  0  0  0  0  0  0  0  0  0  0
  -26.4787  -19.0461   20.6546 C   0  0  0  0  0  0  0  0  0  0  0  0
  -23.8301  -10.4469   20.9679 C   0  0  0  0  0  0  0  0  0  0  0  0
  -24.1670  -12.9721   20.8363 C   0  0  0  0  0  0  0  0  0  0  0  0
  -35.0519  -25.7055   23.0511 C   0  0  0  0  0  0  0  0  0  0  0  0
  -30.9327  -24.0198   18.1151 C   0  0  0  0  0  0  0  0  0  0  0  0
  -33.9437  -24.9893   22.5598 C   0  0  0  0  0  0  0  0  0  0  0  0
  -29.5523  -23.8674   18.3083 C   0  0  0  0  0  0  0  0  0  0  0  0
  -22.3467   -8.1401   21.4787 C   0  0  0  0  0  0  0  0  0  0  0  0
  -29.7423  -21.5159   17.7216 C   0  0  0  0  0  0  0  0  0  0  0  0
  -20.8722   -6.9771   22.8913 C   0  0  0  0  0  0  0  0  0  0  0  0
  -19.3603   -6.8976   25.2345 C   0  0  0  0  0  0  0  0  0  0  0  0
  -19.8700   -7.9230   23.1071 C   0  0  0  0  0  0  0  0  0  0  0  0
  -24.5968  -11.6380   20.7045 C   0  0  0  0  0  0  0  0  0  0  0  0
  -27.1438  -19.0621   21.8608 C   0  0  0  0  0  0  0  0  0  0  0  0
  -28.4015  -18.3932   19.6029 C   0  0  0  0  0  0  0  0  0  0  0  0
  -29.0669  -18.4100   20.8089 C   0  0  0  0  0  0  0  0  0  0  0  0
  -25.2577  -13.7220   20.4693 C   0  0  0  0  0  0  0  0  0  0  0  0
  -22.8957  -13.4874   21.2532 C   0  0  0  0  0  0  0  0  0  0  0  0
  -30.9180  -25.9273   20.6577 C   0  0  0  0  0  0  0  0  0  0  0  0
  -28.6718  -27.5328   18.9550 C   0  0  0  0  0  0  0  0  0  0  0  0
  -26.2899  -27.4629   16.5119 C   0  0  0  0  0  0  0  0  0  0  0  0
  -30.7395  -14.7524   20.6516 C   0  0  0  0  0  0  0  0  0  0  0  0
  -34.9102  -27.0967   23.6162 C   0  0  0  0  0  0  0  0  0  0  0  0
  -31.5826  -25.3647   18.2918 C   0  0  0  0  0  0  0  0  0  0  0  0
  -28.6781  -25.0201   18.7274 C   0  0  0  0  0  0  0  0  0  0  0  0
  -33.6119  -27.7895   23.2106 C   0  0  0  0  0  0  0  0  0  0  0  0
  -29.6059  -12.3549   18.2760 C   0  0  0  0  0  0  0  0  0  0  0  0
  -32.4256  -26.8474   23.3895 C   0  0  0  0  0  0  0  0  0  0  0  0
  -28.1691  -12.0604   18.7106 C   0  0  0  0  0  0  0  0  0  0  0  0
  -30.5229  -12.5829   19.4757 C   0  0  0  0  0  0  0  0  0  0  0  0
  -28.6201  -13.3166   20.8594 C   0  0  0  0  0  0  0  0  0  0  0  0
  -32.5647  -25.6092   22.4957 C   0  0  1  0  0  0  0  0  0  0  0  0
  -30.7918  -26.2950   19.2064 C   0  0  1  0  0  0  0  0  0  0  0  0
  -27.6460  -13.1348   19.6828 C   0  0  2  0  0  0  0  0  0  0  0  0
  -26.4297  -19.4362   23.1122 C   0  0  0  0  0  0  0  0  0  0  0  0
  -24.5940  -28.9194   15.3719 C   0  0  0  0  0  0  0  0  0  0  0  0
  -26.8453  -27.3067   21.3887 C   0  0  0  0  0  0  0  0  0  0  0  0
  -24.9151  -27.8986   19.9080 C   0  0  0  0  0  0  0  0  0  0  0  0
  -26.7777  -29.5252   20.2361 C   0  0  0  0  0  0  0  0  0  0  0  0
  -27.5959  -27.1213   13.8781 C   0  0  0  0  0  0  0  0  0  0  0  0
  -29.1043  -18.0165   18.3213 C   0  0  0  0  0  0  0  0  0  0  0  0
  -30.5119  -18.0569   20.9041 C   0  0  0  0  0  0  0  0  0  0  0  0
  -30.8016  -16.9086   21.8787 C   0  0  0  0  0  0  0  0  0  0  0  0
  -29.9698  -19.1493   17.7802 C   0  0  0  0  0  0  0  0  0  1  0  0
  -27.1689  -27.4595   18.8317 C   0  0  1  0  0  0  0  0  0  0  0  0
  -26.0197  -28.3913   15.3416 C   0  0  2  0  0  0  0  0  0  0  0  0
  -26.4433  -28.0251   20.0851 C   0  0  0  0  0  0  0  0  0  0  0  0
  -27.0955  -18.7112   19.5040 N   0  0  0  0  0  0  0  0  0  0  0  0
  -25.8617  -11.5427   20.2864 N   0  0  0  0  0  0  0  0  0  0  0  0
  -28.4499  -18.7444   21.9595 N   0  0  0  0  0  0  0  0  0  0  0  0
  -26.2362  -12.8264   20.1521 N   0  0  0  0  0  0  0  0  0  0  0  0
  -29.3614  -26.3136   18.8934 N   0  0  0  0  0  0  0  0  0  0  0  0
  -29.9706  -13.6144   20.3571 N   0  0  0  0  0  0  0  0  0  0  0  0
  -25.4655  -15.0535   20.3902 N   0  0  0  0  0  0  0  0  0  0  0  0
  -21.8856  -12.5778   21.5949 N   0  0  0  0  0  0  0  0  0  0  0  0
  -32.2172  -25.9314   21.1282 N   0  0  0  0  0  0  0  0  0  0  0  0
  -26.8279  -28.1389   17.5865 N   0  0  0  0  0  0  0  0  0  0  0  0
  -30.1388  -15.6838   21.4896 N   0  0  0  0  0  0  0  0  0  0  0  0
  -26.2277  -27.6734   14.0522 N   0  3  0  0  0  0  0  0  0  0  0  0
  -22.6571  -14.7178   21.3050 O   0  0  0  0  0  0  0  0  0  0  0  0
  -29.9110  -25.6611   21.3034 O   0  0  0  0  0  0  0  0  0  0  0  0
  -29.2143  -28.6319   19.0933 O   0  0  0  0  0  0  0  0  0  0  0  0
  -26.0444  -26.2591   16.4776 O   0  0  0  0  0  0  0  0  0  0  0  0
  -31.8750  -14.9279   20.1969 O   0  0  0  0  0  0  0  0  0  0  0  0
  -21.6230   -7.0147   21.7283 O   0  0  0  0  0  0  0  0  0  0  0  0
  -29.1613  -20.2994   17.5357 O   0  0  0  0  0  0  0  0  0  1  0  0
  -18.6335   -6.8584   26.3589 F   0  0  0  0  0  0  0  0  0  0  0  0
  -19.6281   -8.8716   22.1919 F   0  0  0  0  0  0  0  0  0  0  0  0
  1  2  1  0  0  0  0
  1  5  2  0  0  0  0
  2  6  2  0  0  0  0
  3  8  2  0  0  0  0
  3 16  1  0  0  0  0
  4  9  1  0  0  0  0
  4 16  2  0  0  0  0
  5 18  1  0  0  0  0
  6 20  1  0  0  0  0
  7 10  2  0  0  0  0
  7 19  1  0  0  0  0
  8 22  1  0  0  0  0
  9 22  2  0  0  0  0
 10 23  1  0  0  0  0
 11 12  2  0  0  0  0
 11 24  1  0  0  0  0
 12 25  1  0  0  0  0
 13 21  1  0  0  0  0
 13 23  2  0  0  0  0
 14 25  2  0  0  0  0
 14 26  1  0  0  0  0
 15 28  1  0  0  0  0
 15 62  2  0  0  0  0
 16 27  1  0  0  0  0
 17 27  1  0  0  0  0
 17 31  2  0  0  0  0
 17 32  1  0  0  0  0
 18 20  2  0  0  0  0
 18 37  1  0  0  0  0
 19 21  2  0  0  0  0
 19 38  1  0  0  0  0
 20 46  1  0  0  0  0
 21 39  1  0  0  0  0
 22 79  1  0  0  0  0
 23 80  1  0  0  0  0
 24 26  2  0  0  0  0
 24 79  1  0  0  0  0
 25 81  1  0  0  0  0
 26 82  1  0  0  0  0
 27 63  2  0  0  0  0
 28 49  1  0  0  0  0
 28 64  2  0  0  0  0
 29 30  2  0  0  0  0
 29 55  1  0  0  0  0
 29 62  1  0  0  0  0
 30 56  1  0  0  0  0
 30 64  1  0  0  0  0
 31 65  1  0  0  0  0
 31 68  1  0  0  0  0
 32 69  1  0  0  0  0
 32 74  2  0  0  0  0
 33 47  1  0  0  0  0
 33 70  1  0  0  0  0
 33 75  2  0  0  0  0
 34 59  1  0  0  0  0
 34 66  1  0  0  0  0
 34 76  2  0  0  0  0
 35 60  1  0  0  0  0
 35 71  1  0  0  0  0
 35 77  2  0  0  0  0
 36 67  1  0  0  0  0
 36 72  1  0  0  0  0
 36 78  2  0  0  0  0
 37 40  1  0  0  0  0
 38 47  1  0  0  0  0
 39 66  1  0  0  0  0
 40 42  1  0  0  0  0
 41 43  1  0  0  0  0
 41 44  1  0  0  0  0
 42 46  1  0  0  0  0
 43 48  1  0  0  0  0
 44 67  1  0  0  0  0
 45 48  1  0  0  0  0
 45 67  1  0  0  0  0
 46 70  1  0  0  0  0
 47 66  1  0  0  0  0
 48 65  1  0  0  0  0
 50 60  1  0  0  0  0
 51 61  1  0  0  0  0
 52 61  1  0  0  0  0
 53 61  1  0  0  0  0
 54 73  1  0  0  0  0
 55 58  1  0  0  0  0
 56 57  1  0  0  0  0
 57 72  1  0  0  0  0
 58 80  1  0  0  0  0
 59 61  1  0  0  0  0
 59 71  1  0  0  0  0
 60 73  1  0  0  0  0
 63 65  1  0  0  0  0
M  CHG  1  73   1
M  ISO  4  36 100  58 101  72 100  80 101
M  END
> <Batch ID>
0047

> <Smiles>
CNC(C)C(=O)NC(C(=O)N1Cc2cc([101O:1][101CH2:1]Cc3ncc(C)nc3CC[100NH:0][100C:0](=O)N3CCCC(n4nc(-c5ccc(Oc6ccc(F)cc6F)cc5)c(C(N)=O)c4N)C3)ccc2CC1C(=O)NC1CCCc2ccccc21)C(C)(C)C

> <Shape>
0.295

> <Color>
0.192

> <Negative vol penalty>
0.000

$$$$

  -OEChem-04052317243D

 82 90  0     1  0  0  0  0  0999 V2000
  -23.0770  -19.9541   26.2487 C   0  0  0  0  0  0  0  0  0  0  0  0
  -24.0582  -20.3676   25.3534 C   0  0  0  0  0  0  0  0  0  0  0  0
  -27.0850  -13.0630   21.1033 C   0  0  0  0  0  0  0  0  0  0  0  0
  -26.9092  -13.4549   18.7258 C   0  0  0  0  0  0  0  0  0  0  0  0
  -21.8519  -20.6181   26.2941 C   0  0  0  0  0  0  0  0  0  0  0  0
  -23.8145  -21.4448   24.5022 C   0  0  0  0  0  0  0  0  0  0  0  0
  -27.7136  -24.6687   24.2828 C   0  0  0  0  0  0  0  0  0  0  0  0
  -26.3347  -11.8952   20.9662 C   0  0  0  0  0  0  0  0  0  0  0  0
  -26.1589  -12.2871   18.5887 C   0  0  0  0  0  0  0  0  0  0  0  0
  -28.8013  -24.2996   23.4925 C   0  0  0  0  0  0  0  0  0  0  0  0
  -24.1598   -8.9994   21.2950 C   0  0  0  0  0  0  0  0  0  0  0  0
  -23.1414   -8.7688   22.2199 C   0  0  0  0  0  0  0  0  0  0  0  0
  -27.9962  -25.7319   21.7262 C   0  0  0  0  0  0  0  0  0  0  0  0
  -22.0601  -10.8198   21.5407 C   0  0  0  0  0  0  0  0  0  0  0  0
  -32.1426  -22.2125   20.0063 C   0  0  0  0  0  0  0  0  0  0  0  0
  -27.3722  -13.8429   19.9830 C   0  0  0  0  0  0  0  0  0  0  0  0
  -29.5463  -15.1761   20.0412 C   0  0  0  0  0  0  0  0  0  0  0  0
  -21.5965  -21.7101   25.4498 C   0  0  0  0  0  0  0  0  0  0  0  0
  -26.7516  -25.5653   23.7958 C   0  0  0  0  0  0  0  0  0  0  0  0
  -22.5843  -22.1232   24.5354 C   0  0  0  0  0  0  0  0  0  0  0  0
  -26.8986  -26.1127   22.5133 C   0  0  0  0  0  0  0  0  0  0  0  0
  -25.8717  -11.5072   19.7090 C   0  0  0  0  0  0  0  0  0  0  0  0
  -28.9411  -24.8290   22.2129 C   0  0  0  0  0  0  0  0  0  0  0  0
  -24.1284  -10.1403   20.4931 C   0  0  0  0  0  0  0  0  0  0  0  0
  -22.0916   -9.6789   22.3427 C   0  0  0  0  0  0  0  0  0  0  0  0
  -23.0785  -11.0504   20.6159 C   0  0  0  0  0  0  0  0  0  0  0  0
  -28.1467  -15.0497   20.1240 C   0  0  0  0  0  0  0  0  0  0  0  0
  -29.7829  -16.5139   20.2434 C   0  0  0  0  0  0  0  0  0  0  0  0
  -30.7494  -22.3406   18.3475 C   0  0  0  0  0  0  0  0  0  0  0  0
  -30.5435  -14.1739   19.8027 C   0  0  0  0  0  0  0  0  0  0  0  0
  -23.6341  -25.4035   23.1973 C   0  0  0  0  0  0  0  0  0  0  0  0
  -23.9759  -28.5774   22.6209 C   0  0  0  0  0  0  0  0  0  0  0  0
  -26.0322  -31.1597   21.7549 C   0  0  0  0  0  0  0  0  0  0  0  0
  -25.9401  -21.2209   19.4587 C   0  0  0  0  0  0  0  0  0  0  0  0
  -20.2397  -22.3665   25.5022 C   0  0  0  0  0  0  0  0  0  0  0  0
  -25.5985  -25.9739   24.6709 C   0  0  0  0  0  0  0  0  0  0  0  0
  -25.9044  -27.0947   21.9515 C   0  0  0  0  0  0  0  0  0  0  0  0
  -20.1989  -23.7354   24.8278 C   0  0  0  0  0  0  0  0  0  0  0  0
  -27.9748  -20.3598   22.4285 C   0  0  0  0  0  0  0  0  0  0  0  0
  -20.8876  -23.6813   23.4678 C   0  0  0  0  0  0  0  0  0  0  0  0
  -28.3035  -18.8868   22.1914 C   0  0  0  0  0  0  0  0  0  0  0  0
  -26.6550  -20.7588   21.7753 C   0  0  0  0  0  0  0  0  0  0  0  0
  -26.9118  -18.9723   20.0851 C   0  0  0  0  0  0  0  0  0  0  0  0
  -22.3666  -23.3032   23.6132 C   0  0  1  0  0  0  0  0  0  0  0  0
  -24.4044  -26.4984   23.8794 C   0  0  1  0  0  0  0  0  0  0  0  0
  -28.2585  -18.5493   20.6910 C   0  0  2  0  0  0  0  0  0  0  0  0
  -26.0163  -33.6325   21.3281 C   0  0  0  0  0  0  0  0  0  0  0  0
  -22.6666  -28.0981   19.9068 C   0  0  0  0  0  0  0  0  0  0  0  0
  -23.5275  -30.3323   19.1750 C   0  0  0  0  0  0  0  0  0  0  0  0
  -21.9170  -30.1791   21.0738 C   0  0  0  0  0  0  0  0  0  0  0  0
  -25.4905  -21.5356   17.0549 C   0  0  0  0  0  0  0  0  0  0  0  0
  -27.9469  -31.6687   23.9535 C   0  0  0  0  0  0  0  0  0  0  0  0
  -29.8385  -22.9145   17.3410 C   0  0  0  0  0  0  0  0  0  0  0  0
  -28.3310  -22.7884   17.6734 C   0  0  0  0  0  0  0  0  0  0  0  0
  -31.3621  -24.5917   19.4478 C   0  0  0  0  0  0  0  0  0  0  0  0
  -27.8378  -21.3477   17.7898 C   0  0  0  0  0  0  0  0  0  0  0  0
  -30.0824  -25.0508   20.1383 C   0  0  0  0  0  0  0  0  0  1  0  0
  -24.3035  -29.4145   21.4081 C   0  0  1  0  0  0  0  0  0  0  0  0
  -26.2294  -32.5373   22.3614 C   0  0  2  0  0  0  0  0  0  0  0  0
  -23.1215  -29.4860   20.4005 C   0  0  0  0  0  0  0  0  0  0  0  0
  -31.9410  -20.9914   19.5650 N   0  0  0  0  0  0  0  0  0  0  0  0
  -27.5369  -16.2143   20.3606 N   0  0  0  0  0  0  0  0  0  0  0  0
  -31.0546  -21.0729   18.5096 N   0  0  0  0  0  0  0  0  0  0  0  0
  -31.4120  -23.0938   19.2686 N   0  0  0  0  0  0  0  0  0  0  0  0
  -28.5582  -17.0852   20.4282 N   0  0  0  0  0  0  0  0  0  0  0  0
  -24.7907  -27.4582   22.8432 N   0  0  0  0  0  0  0  0  0  0  0  0
  -26.6225  -20.3876   20.3603 N   0  0  0  0  0  0  0  0  0  0  0  0
  -30.9168  -17.2455   20.2795 N   0  0  0  0  0  0  0  0  0  0  0  0
  -30.1275  -12.8486   19.6158 N   0  0  0  0  0  0  0  0  0  0  0  0
  -23.1384  -24.4435   24.0587 N   0  0  0  0  0  0  0  0  0  0  0  0
  -24.7375  -30.7125   21.9132 N   0  0  0  0  0  0  0  0  0  0  0  0
  -26.4218  -21.2685   18.1417 N   0  0  0  0  0  0  0  0  0  0  0  0
  -27.6092  -32.6695   22.9088 N   0  3  0  0  0  0  0  0  0  0  0  0
  -31.7684  -14.4428   19.7731 O   0  0  0  0  0  0  0  0  0  0  0  0
  -23.4981  -25.4287   21.9797 O   0  0  0  0  0  0  0  0  0  0  0  0
  -23.0363  -28.9084   23.3483 O   0  0  0  0  0  0  0  0  0  0  0  0
  -26.9353  -30.5436   21.1933 O   0  0  0  0  0  0  0  0  0  0  0  0
  -24.9623  -21.8918   19.8132 O   0  0  0  0  0  0  0  0  0  0  0  0
  -25.1397  -10.3675   19.5748 O   0  0  0  0  0  0  0  0  0  0  0  0
  -30.0015  -24.4699   21.4392 O   0  0  0  0  0  0  0  0  0  1  0  0
  -21.1129   -9.4565   23.2298 F   0  0  0  0  0  0  0  0  0  0  0  0
  -23.0423  -12.1477   19.8474 F   0  0  0  0  0  0  0  0  0  0  0  0
  1  2  1  0  0  0  0
  1  5  2  0  0  0  0
  2  6  2  0  0  0  0
  3  8  2  0  0  0  0
  3 16  1  0  0  0  0
  4  9  1  0  0  0  0
  4 16  2  0  0  0  0
  5 18  1  0  0  0  0
  6 20  1  0  0  0  0
  7 10  2  0  0  0  0
  7 19  1  0  0  0  0
  8 22  1  0  0  0  0
  9 22  2  0  0  0  0
 10 23  1  0  0  0  0
 11 12  2  0  0  0  0
 11 24  1  0  0  0  0
 12 25  1  0  0  0  0
 13 21  1  0  0  0  0
 13 23  2  0  0  0  0
 14 25  2  0  0  0  0
 14 26  1  0  0  0  0
 15 61  2  0  0  0  0
 15 64  1  0  0  0  0
 16 27  1  0  0  0  0
 17 27  1  0  0  0  0
 17 28  2  0  0  0  0
 17 30  1  0  0  0  0
 18 20  2  0  0  0  0
 18 35  1  0  0  0  0
 19 21  2  0  0  0  0
 19 36  1  0  0  0  0
 20 44  1  0  0  0  0
 21 37  1  0  0  0  0
 22 79  1  0  0  0  0
 23 80  1  0  0  0  0
 24 26  2  0  0  0  0
 24 79  1  0  0  0  0
 25 81  1  0  0  0  0
 26 82  1  0  0  0  0
 27 62  2  0  0  0  0
 28 65  1  0  0  0  0
 28 68  1  0  0  0  0
 29 53  1  0  0  0  0
 29 63  2  0  0  0  0
 29 64  1  0  0  0  0
 30 69  1  0  0  0  0
 30 74  2  0  0  0  0
 31 45  1  0  0  0  0
 31 70  1  0  0  0  0
 31 75  2  0  0  0  0
 32 58  1  0  0  0  0
 32 66  1  0  0  0  0
 32 76  2  0  0  0  0
 33 59  1  0  0  0  0
 33 71  1  0  0  0  0
 33 77  2  0  0  0  0
 34 67  1  0  0  0  0
 34 72  1  0  0  0  0
 34 78  2  0  0  0  0
 35 38  1  0  0  0  0
 36 45  1  0  0  0  0
 37 66  1  0  0  0  0
 38 40  1  0  0  0  0
 39 41  1  0  0  0  0
 39 42  1  0  0  0  0
 40 44  1  0  0  0  0
 41 46  1  0  0  0  0
 42 67  1  0  0  0  0
 43 46  1  0  0  0  0
 43 67  1  0  0  0  0
 44 70  1  0  0  0  0
 45 66  1  0  0  0  0
 46 65  1  0  0  0  0
 47 59  1  0  0  0  0
 48 60  1  0  0  0  0
 49 60  1  0  0  0  0
 50 60  1  0  0  0  0
 51 72  1  0  0  0  0
 52 73  1  0  0  0  0
 53 54  1  0  0  0  0
 54 56  1  0  0  0  0
 55 57  1  0  0  0  0
 55 64  1  0  0  0  0
 56 72  1  0  0  0  0
 57 80  1  0  0  0  0
 58 60  1  0  0  0  0
 58 71  1  0  0  0  0
 59 73  1  0  0  0  0
 61 63  1  0  0  0  0
 62 65  1  0  0  0  0
M  CHG  1  73   1
M  ISO  4  34 100  57 101  72 100  80 101
M  END
> <Batch ID>
0047

> <Smiles>
CNC(C)C(=O)NC(C(=O)N1Cc2cc([101O:1][101CH2:1]Cn3cnnc3CCC[100N:0](C)[100C:0](=O)N3CCCC(n4nc(-c5ccc(Oc6ccc(F)cc6F)cc5)c(C(N)=O)c4N)C3)ccc2CC1C(=O)NC1CCCc2ccccc21)C(C)(C)C

> <Shape>
0.207

> <Color>
0.057

> <Negative vol penalty>
0.000

$$$$

  -OEChem-04052317243D

 85 93  0     1  0  0  0  0  0999 V2000
  -18.4361  -33.3396   23.6833 C   0  0  0  0  0  0  0  0  0  0  0  0
  -19.6421  -33.3975   22.9923 C   0  0  0  0  0  0  0  0  0  0  0  0
  -24.7126  -13.9927   21.1012 C   0  0  0  0  0  0  0  0  0  0  0  0
  -27.0419  -13.3821   20.9051 C   0  0  0  0  0  0  0  0  0  0  0  0
  -18.1436  -32.2345   24.4814 C   0  0  0  0  0  0  0  0  0  0  0  0
  -20.5569  -32.3506   23.0998 C   0  0  0  0  0  0  0  0  0  0  0  0
  -25.5212  -28.8614   19.2922 C   0  0  0  0  0  0  0  0  0  0  0  0
  -24.3427  -12.7335   20.6289 C   0  0  0  0  0  0  0  0  0  0  0  0
  -26.6721  -12.1228   20.4329 C   0  0  0  0  0  0  0  0  0  0  0  0
  -26.8556  -28.4649   19.3690 C   0  0  0  0  0  0  0  0  0  0  0  0
  -24.0866   -9.5913   21.8511 C   0  0  0  0  0  0  0  0  0  0  0  0
  -23.0634   -8.9220   22.5225 C   0  0  0  0  0  0  0  0  0  0  0  0
  -26.2089  -26.5699   20.7143 C   0  0  0  0  0  0  0  0  0  0  0  0
  -21.7567   -8.8815   20.4907 C   0  0  0  0  0  0  0  0  0  0  0  0
  -26.0622  -14.3171   21.2392 C   0  0  0  0  0  0  0  0  0  0  0  0
  -26.6569  -15.9955   23.0660 C   0  0  0  0  0  0  0  0  0  0  0  0
  -19.0511  -31.1691   24.5912 C   0  0  0  0  0  0  0  0  0  0  0  0
  -24.5202  -28.1199   19.9361 C   0  0  0  0  0  0  0  0  0  0  0  0
  -20.2769  -31.2308   23.9012 C   0  0  0  0  0  0  0  0  0  0  0  0
  -24.8622  -26.9577   20.6421 C   0  0  0  0  0  0  0  0  0  0  0  0
  -31.6441  -24.7360   20.0561 C   0  0  0  0  0  0  0  0  0  0  0  0
  -25.3224  -11.7985   20.2948 C   0  0  0  0  0  0  0  0  0  0  0  0
  -27.2000  -27.3206   20.0825 C   0  0  0  0  0  0  0  0  0  0  0  0
  -23.9448   -9.9057   20.4995 C   0  0  0  0  0  0  0  0  0  0  0  0
  -21.8985   -8.5671   21.8423 C   0  0  0  0  0  0  0  0  0  0  0  0
  -22.7799   -9.5508   19.8193 C   0  0  0  0  0  0  0  0  0  0  0  0
  -26.4449  -15.6180   21.7265 C   0  0  0  0  0  0  0  0  0  0  0  0
  -32.4293  -24.9505   18.9075 C   0  0  0  0  0  0  0  0  0  0  0  0
  -31.2451  -25.9933   20.4390 C   0  0  0  0  0  0  0  0  0  0  0  0
  -27.0002  -17.3236   22.9982 C   0  0  0  0  0  0  0  0  0  0  0  0
  -26.5528  -15.2153   24.2644 C   0  0  0  0  0  0  0  0  0  0  0  0
  -22.4229  -28.7174   22.2487 C   0  0  0  0  0  0  0  0  0  0  0  0
  -29.9957  -21.3245   20.6964 C   0  0  0  0  0  0  0  0  0  0  0  0
  -21.3299  -25.7595   21.4880 C   0  0  0  0  0  0  0  0  0  0  0  0
  -21.9716  -22.6935   20.1335 C   0  0  0  0  0  0  0  0  0  0  0  0
  -18.7114  -30.0171   25.5034 C   0  0  0  0  0  0  0  0  0  0  0  0
  -23.0823  -28.5461   19.8214 C   0  0  0  0  0  0  0  0  0  0  0  0
  -23.8229  -26.1155   21.3342 C   0  0  0  0  0  0  0  0  0  0  0  0
  -19.5723  -28.7788   25.2674 C   0  0  0  0  0  0  0  0  0  0  0  0
  -26.7791  -20.6002   19.1614 C   0  0  0  0  0  0  0  0  0  0  0  0
  -21.0443  -29.1645   25.1611 C   0  0  0  0  0  0  0  0  0  0  0  0
  -26.4398  -19.2477   19.7865 C   0  0  0  0  0  0  0  0  0  0  0  0
  -28.2785  -20.7439   18.9142 C   0  0  0  0  0  0  0  0  0  0  0  0
  -28.7763  -19.1726   20.7602 C   0  0  0  0  0  0  0  0  0  0  0  0
  -21.2842  -30.1036   23.9728 C   0  0  1  0  0  0  0  0  0  0  0  0
  -22.2062  -28.0016   20.9455 C   0  0  1  0  0  0  0  0  0  0  0  0
  -27.2766  -18.9999   21.0537 C   0  0  2  0  0  0  0  0  0  0  0  0
  -32.3819  -23.6468   16.7664 C   0  0  0  0  0  0  0  0  0  0  0  0
  -20.8930  -20.4719   19.6881 C   0  0  0  0  0  0  0  0  0  0  0  0
  -32.4069  -30.5339   20.4507 C   0  0  0  0  0  0  0  0  0  0  0  0
  -34.0378  -28.6469   20.2379 C   0  0  0  0  0  0  0  0  0  0  0  0
  -21.6168  -25.0317   24.4373 C   0  0  0  0  0  0  0  0  0  0  0  0
  -21.4548  -22.6197   23.7860 C   0  0  0  0  0  0  0  0  0  0  0  0
  -19.5430  -24.1601   23.3447 C   0  0  0  0  0  0  0  0  0  0  0  0
  -22.3396  -22.9703   17.2100 C   0  0  0  0  0  0  0  0  0  0  0  0
  -31.3215  -23.4533   20.7048 C   0  0  0  0  0  0  0  0  0  0  0  0
  -33.1150  -23.9421   18.0804 C   0  0  0  0  0  0  0  0  0  0  0  0
  -30.3885  -26.4593   21.5911 C   0  0  0  0  0  0  0  0  0  0  0  0
  -30.2482  -22.6234   19.9733 C   0  0  0  0  0  0  0  0  0  0  0  0
  -31.6636  -28.2894   19.5073 C   0  0  0  0  0  0  0  0  0  0  0  0
  -28.9022  -26.2326   21.3374 C   0  0  0  0  0  0  0  0  0  1  0  0
  -21.6400  -24.3548   21.9458 C   0  0  1  0  0  0  0  0  0  0  0  0
  -21.2001  -21.8535   19.1317 C   0  0  2  0  0  0  0  0  0  0  0  0
  -32.5779  -29.0144   20.5108 C   0  0  0  0  0  0  0  0  0  0  0  0
  -21.0837  -24.0583   23.3671 C   0  0  0  0  0  0  0  0  0  0  0  0
  -26.6374  -16.6249   20.8703 N   0  0  0  0  0  0  0  0  0  0  0  0
  -32.5245  -26.2424   18.5819 N   0  0  0  0  0  0  0  0  0  0  0  0
  -31.7938  -26.8510   19.5316 N   0  0  0  0  0  0  0  0  0  0  0  0
  -26.9737  -17.6483   21.6738 N   0  0  0  0  0  0  0  0  0  0  0  0
  -22.4315  -26.5770   21.1982 N   0  0  0  0  0  0  0  0  0  0  0  0
  -29.0417  -20.4731   20.1384 N   0  0  0  0  0  0  0  0  0  0  0  0
  -27.3190  -18.2337   23.9429 N   0  0  0  0  0  0  0  0  0  0  0  0
  -26.1890  -13.8663   24.1540 N   0  0  0  0  0  0  0  0  0  0  0  0
  -21.2978  -29.3569   22.7332 N   0  0  0  0  0  0  0  0  0  0  0  0
  -21.1310  -23.4653   20.9074 N   0  0  0  0  0  0  0  0  0  0  0  0
  -21.9877  -21.6904   17.8770 N   0  3  0  0  0  0  0  0  0  0  0  0
  -26.7597  -15.7043   25.4009 O   0  0  0  0  0  0  0  0  0  0  0  0
  -23.5285  -28.6901   22.7765 O   0  0  0  0  0  0  0  0  0  0  0  0
  -30.6263  -21.0770   21.7275 O   0  0  0  0  0  0  0  0  0  0  0  0
  -20.1536  -26.1160   21.3844 O   0  0  0  0  0  0  0  0  0  0  0  0
  -23.1970  -22.6649   20.2232 O   0  0  0  0  0  0  0  0  0  0  0  0
  -24.9619  -10.5695   19.8342 O   0  0  0  0  0  0  0  0  0  0  0  0
  -28.5018  -26.9318   20.1596 O   0  0  0  0  0  0  0  0  0  1  0  0
  -20.9166   -7.9230   22.4867 F   0  0  0  0  0  0  0  0  0  0  0  0
  -22.6385   -9.8492   18.5206 F   0  0  0  0  0  0  0  0  0  0  0  0
  1  2  1  0  0  0  0
  1  5  2  0  0  0  0
  2  6  2  0  0  0  0
  3  8  2  0  0  0  0
  3 15  1  0  0  0  0
  4  9  1  0  0  0  0
  4 15  2  0  0  0  0
  5 17  1  0  0  0  0
  6 19  1  0  0  0  0
  7 10  2  0  0  0  0
  7 18  1  0  0  0  0
  8 22  1  0  0  0  0
  9 22  2  0  0  0  0
 10 23  1  0  0  0  0
 11 12  2  0  0  0  0
 11 24  1  0  0  0  0
 12 25  1  0  0  0  0
 13 20  1  0  0  0  0
 13 23  2  0  0  0  0
 14 25  2  0  0  0  0
 14 26  1  0  0  0  0
 15 27  1  0  0  0  0
 16 27  1  0  0  0  0
 16 30  2  0  0  0  0
 16 31  1  0  0  0  0
 17 19  2  0  0  0  0
 17 36  1  0  0  0  0
 18 20  2  0  0  0  0
 18 37  1  0  0  0  0
 19 45  1  0  0  0  0
 20 38  1  0  0  0  0
 21 28  1  0  0  0  0
 21 29  2  0  0  0  0
 21 56  1  0  0  0  0
 22 82  1  0  0  0  0
 23 83  1  0  0  0  0
 24 26  2  0  0  0  0
 24 82  1  0  0  0  0
 25 84  1  0  0  0  0
 26 85  1  0  0  0  0
 27 66  2  0  0  0  0
 28 57  1  0  0  0  0
 28 67  2  0  0  0  0
 29 58  1  0  0  0  0
 29 68  1  0  0  0  0
 30 69  1  0  0  0  0
 30 72  1  0  0  0  0
 31 73  1  0  0  0  0
 31 77  2  0  0  0  0
 32 46  1  0  0  0  0
 32 74  1  0  0  0  0
 32 78  2  0  0  0  0
 33 59  1  0  0  0  0
 33 71  1  0  0  0  0
 33 79  2  0  0  0  0
 34 62  1  0  0  0  0
 34 70  1  0  0  0  0
 34 80  2  0  0  0  0
 35 63  1  0  0  0  0
 35 75  1  0  0  0  0
 35 81  2  0  0  0  0
 36 39  1  0  0  0  0
 37 46  1  0  0  0  0
 38 70  1  0  0  0  0
 39 41  1  0  0  0  0
 40 42  1  0  0  0  0
 40 43  1  0  0  0  0
 41 45  1  0  0  0  0
 42 47  1  0  0  0  0
 43 71  1  0  0  0  0
 44 47  1  0  0  0  0
 44 71  1  0  0  0  0
 45 74  1  0  0  0  0
 46 70  1  0  0  0  0
 47 69  1  0  0  0  0
 48 57  1  0  0  0  0
 49 63  1  0  0  0  0
 50 64  1  0  0  0  0
 51 64  1  0  0  0  0
 52 65  1  0  0  0  0
 53 65  1  0  0  0  0
 54 65  1  0  0  0  0
 55 76  1  0  0  0  0
 56 59  1  0  0  0  0
 58 61  1  0  0  0  0
 60 64  1  0  0  0  0
 60 68  1  0  0  0  0
 61 83  1  0  0  0  0
 62 65  1  0  0  0  0
 62 75  1  0  0  0  0
 63 76  1  0  0  0  0
 66 69  1  0  0  0  0
 67 68  1  0  0  0  0
M  CHG  1  76   1
M  ISO  4  33 100  59 100  61 101  83 101
M  END
> <Batch ID>
0047

> <Smiles>
CCc1nn(CC(C)C)c(C[101CH2:1][101O:1]c2ccc3c(c2)CN(C(=O)C(NC(=O)C(C)NC)C(C)(C)C)C(C(=O)NC2CCCc4ccccc42)C3)c1C[100CH2:0][100C:0](=O)N1CCCC(n2nc(-c3ccc(Oc4ccc(F)cc4F)cc3)c(C(N)=O)c2N)C1

> <Shape>
0.222

> <Color>
0.098

> <Negative vol penalty>
0.000

$$$$

  -OEChem-04052317243D

 83 91  0     1  0  0  0  0  0999 V2000
  -16.6943  -29.0095   23.9010 C   0  0  0  0  0  0  0  0  0  0  0  0
  -17.1412  -28.3216   22.7774 C   0  0  0  0  0  0  0  0  0  0  0  0
  -28.1679  -11.2536   22.4095 C   0  0  0  0  0  0  0  0  0  0  0  0
  -27.1330  -11.4249   20.2331 C   0  0  0  0  0  0  0  0  0  0  0  0
  -17.4537  -30.0549   24.4247 C   0  0  0  0  0  0  0  0  0  0  0  0
  -18.3474  -28.6795   22.1762 C   0  0  0  0  0  0  0  0  0  0  0  0
  -22.3627  -24.9344   19.4636 C   0  0  0  0  0  0  0  0  0  0  0  0
  -27.3581  -10.1579   22.7083 C   0  0  0  0  0  0  0  0  0  0  0  0
  -26.3233  -10.3291   20.5318 C   0  0  0  0  0  0  0  0  0  0  0  0
  -22.5869  -24.6094   18.1265 C   0  0  0  0  0  0  0  0  0  0  0  0
  -23.5163   -9.7182   22.3147 C   0  0  0  0  0  0  0  0  0  0  0  0
  -22.1609   -9.8085   21.9982 C   0  0  0  0  0  0  0  0  0  0  0  0
  -24.3382  -26.2652   18.0240 C   0  0  0  0  0  0  0  0  0  0  0  0
  -22.3734   -7.8927   20.5416 C   0  0  0  0  0  0  0  0  0  0  0  0
  -26.7041  -20.5789   16.9277 C   0  0  0  0  0  0  0  0  0  0  0  0
  -26.9902  -22.7482   17.1455 C   0  0  0  0  0  0  0  0  0  0  0  0
  -28.0553  -11.8872   21.1719 C   0  0  0  0  0  0  0  0  0  0  0  0
  -30.1615  -12.9981   20.2569 C   0  0  0  0  0  0  0  0  0  0  0  0
  -18.6745  -30.4195   23.8354 C   0  0  0  0  0  0  0  0  0  0  0  0
  -23.1185  -25.9366   20.0889 C   0  0  0  0  0  0  0  0  0  0  0  0
  -19.1232  -29.7317   22.6917 C   0  0  0  0  0  0  0  0  0  0  0  0
  -24.1234  -26.5993   19.3698 C   0  0  0  0  0  0  0  0  0  0  0  0
  -27.2131  -21.5607   17.7988 C   0  0  0  0  0  0  0  0  0  0  0  0
  -26.4358   -9.6956   21.7695 C   0  0  0  0  0  0  0  0  0  0  0  0
  -23.5728  -25.2768   17.4056 C   0  0  0  0  0  0  0  0  0  0  0  0
  -24.3004   -8.7151   21.7447 C   0  0  0  0  0  0  0  0  0  0  0  0
  -21.5894   -8.8958   21.1117 C   0  0  0  0  0  0  0  0  0  0  0  0
  -23.7289   -7.8024   20.8582 C   0  0  0  0  0  0  0  0  0  0  0  0
  -28.8910  -13.0194   20.8629 C   0  0  0  0  0  0  0  0  0  0  0  0
  -30.5299  -14.3193   20.1848 C   0  0  0  0  0  0  0  0  0  0  0  0
  -30.9392  -11.8835   19.7999 C   0  0  0  0  0  0  0  0  0  0  0  0
  -22.4525  -28.7387   21.4336 C   0  0  0  0  0  0  0  0  0  0  0  0
  -25.5942  -28.6595   22.2369 C   0  0  0  0  0  0  0  0  0  0  0  0
  -28.7235  -27.4667   21.5799 C   0  0  0  0  0  0  0  0  0  0  0  0
  -29.5492  -19.4954   19.0864 C   0  0  0  0  0  0  0  0  0  0  0  0
  -19.4375  -31.5872   24.4091 C   0  0  0  0  0  0  0  0  0  0  0  0
  -22.8824  -26.2568   21.5395 C   0  0  0  0  0  0  0  0  0  0  0  0
  -24.9760  -27.6687   20.0005 C   0  0  0  0  0  0  0  0  0  0  0  0
  -20.8871  -31.6591   23.9361 C   0  0  0  0  0  0  0  0  0  0  0  0
  -28.4978  -18.4355   22.2869 C   0  0  0  0  0  0  0  0  0  0  0  0
  -20.9667  -31.4570   22.4263 C   0  0  0  0  0  0  0  0  0  0  0  0
  -28.6012  -16.9170   22.1519 C   0  0  0  0  0  0  0  0  0  0  0  0
  -27.9516  -19.0895   21.0164 C   0  0  0  0  0  0  0  0  0  0  0  0
  -28.7975  -17.2052   19.6539 C   0  0  0  0  0  0  0  0  0  0  0  0
  -20.4384  -30.0741   22.0261 C   0  0  1  0  0  0  0  0  0  0  0  0
  -23.3630  -27.6512   21.9294 C   0  0  1  0  0  0  0  0  0  0  0  0
  -29.4000  -16.5295   20.8953 C   0  0  2  0  0  0  0  0  0  0  0  0
  -31.0884  -22.2664   20.9084 C   0  0  0  0  0  0  0  0  0  0  0  0
  -31.1757  -27.0527   21.9159 C   0  0  0  0  0  0  0  0  0  0  0  0
  -25.8658  -31.4092   20.9426 C   0  0  0  0  0  0  0  0  0  0  0  0
  -28.3474  -31.0779   20.9231 C   0  0  0  0  0  0  0  0  0  0  0  0
  -27.1161  -31.1397   23.0917 C   0  0  0  0  0  0  0  0  0  0  0  0
  -28.2104  -25.0545   23.2161 C   0  0  0  0  0  0  0  0  0  0  0  0
  -27.8407  -21.3623   19.1149 C   0  0  0  0  0  0  0  0  0  0  0  0
  -30.5183  -22.8679   19.6314 C   0  0  0  0  0  0  0  0  0  0  0  0
  -24.4506  -23.2576   14.5448 C   0  0  0  0  0  0  0  0  0  0  0  0
  -25.9356  -23.3764   14.8945 C   0  0  0  0  0  0  0  0  0  0  0  0
  -30.2044  -21.8163   18.5739 C   0  0  0  0  0  0  0  0  0  0  0  0
  -23.5266  -23.6177   15.7023 C   0  0  0  0  0  0  0  0  0  1  0  0
  -26.8759  -29.1222   21.5871 C   0  0  1  0  0  0  0  0  0  0  0  0
  -29.7788  -26.8553   22.4838 C   0  0  2  0  0  0  0  0  0  0  0  0
  -27.0341  -30.6685   21.6234 C   0  0  0  0  0  0  0  0  0  0  0  0
  -26.1960  -21.0976   15.8066 N   0  0  0  0  0  0  0  0  0  0  0  0
  -28.4799  -14.2562   21.1551 N   0  0  0  0  0  0  0  0  0  0  0  0
  -26.3845  -22.4183   15.9689 N   0  0  0  0  0  0  0  0  0  0  0  0
  -29.4980  -15.0242   20.7311 N   0  0  0  0  0  0  0  0  0  0  0  0
  -24.7027  -27.9504   21.4195 N   0  0  0  0  0  0  0  0  0  0  0  0
  -28.7118  -18.6562   19.8360 N   0  0  0  0  0  0  0  0  0  0  0  0
  -31.6325  -14.9352   19.7082 N   0  0  0  0  0  0  0  0  0  0  0  0
  -30.4112  -10.5940   19.9502 N   0  0  0  0  0  0  0  0  0  0  0  0
  -21.4276  -29.0552   22.3048 N   0  0  0  0  0  0  0  0  0  0  0  0
  -27.9543  -28.3955   22.2484 N   0  0  0  0  0  0  0  0  0  0  0  0
  -29.2086  -20.8551   19.0266 N   0  0  0  0  0  0  0  0  0  0  0  0
  -29.5391  -25.3932   22.6445 N   0  3  0  0  0  0  0  0  0  0  0  0
  -32.0758  -12.0258   19.2887 O   0  0  0  0  0  0  0  0  0  0  0  0
  -22.6649  -29.2536   20.3421 O   0  0  0  0  0  0  0  0  0  0  0  0
  -25.3948  -28.9115   23.4279 O   0  0  0  0  0  0  0  0  0  0  0  0
  -28.5968  -27.1545   20.3979 O   0  0  0  0  0  0  0  0  0  0  0  0
  -30.5430  -19.0538   18.4954 O   0  0  0  0  0  0  0  0  0  0  0  0
  -25.6457   -8.6263   22.0606 O   0  0  0  0  0  0  0  0  0  0  0  0
  -23.7932  -24.9620   16.1002 O   0  0  0  0  0  0  0  0  0  1  0  0
  -20.2874   -8.9818   20.8089 F   0  0  0  0  0  0  0  0  0  0  0  0
  -24.4767   -6.8359   20.3083 F   0  0  0  0  0  0  0  0  0  0  0  0
  1  2  1  0  0  0  0
  1  5  2  0  0  0  0
  2  6  2  0  0  0  0
  3  8  2  0  0  0  0
  3 17  1  0  0  0  0
  4  9  1  0  0  0  0
  4 17  2  0  0  0  0
  5 19  1  0  0  0  0
  6 21  1  0  0  0  0
  7 10  2  0  0  0  0
  7 20  1  0  0  0  0
  8 24  1  0  0  0  0
  9 24  2  0  0  0  0
 10 25  1  0  0  0  0
 11 12  2  0  0  0  0
 11 26  1  0  0  0  0
 12 27  1  0  0  0  0
 13 22  1  0  0  0  0
 13 25  2  0  0  0  0
 14 27  2  0  0  0  0
 14 28  1  0  0  0  0
 15 23  1  0  0  0  0
 15 63  2  0  0  0  0
 16 23  2  0  0  0  0
 16 65  1  0  0  0  0
 17 29  1  0  0  0  0
 18 29  1  0  0  0  0
 18 30  2  0  0  0  0
 18 31  1  0  0  0  0
 19 21  2  0  0  0  0
 19 36  1  0  0  0  0
 20 22  2  0  0  0  0
 20 37  1  0  0  0  0
 21 45  1  0  0  0  0
 22 38  1  0  0  0  0
 23 54  1  0  0  0  0
 24 80  1  0  0  0  0
 25 81  1  0  0  0  0
 26 28  2  0  0  0  0
 26 80  1  0  0  0  0
 27 82  1  0  0  0  0
 28 83  1  0  0  0  0
 29 64  2  0  0  0  0
 30 66  1  0  0  0  0
 30 69  1  0  0  0  0
 31 70  1  0  0  0  0
 31 75  2  0  0  0  0
 32 46  1  0  0  0  0
 32 71  1  0  0  0  0
 32 76  2  0  0  0  0
 33 60  1  0  0  0  0
 33 67  1  0  0  0  0
 33 77  2  0  0  0  0
 34 61  1  0  0  0  0
 34 72  1  0  0  0  0
 34 78  2  0  0  0  0
 35 68  1  0  0  0  0
 35 73  1  0  0  0  0
 35 79  2  0  0  0  0
 36 39  1  0  0  0  0
 37 46  1  0  0  0  0
 38 67  1  0  0  0  0
 39 41  1  0  0  0  0
 40 42  1  0  0  0  0
 40 43  1  0  0  0  0
 41 45  1  0  0  0  0
 42 47  1  0  0  0  0
 43 68  1  0  0  0  0
 44 47  1  0  0  0  0
 44 68  1  0  0  0  0
 45 71  1  0  0  0  0
 46 67  1  0  0  0  0
 47 66  1  0  0  0  0
 48 55  1  0  0  0  0
 49 61  1  0  0  0  0
 50 62  1  0  0  0  0
 51 62  1  0  0  0  0
 52 62  1  0  0  0  0
 53 74  1  0  0  0  0
 54 73  1  0  0  0  0
 55 58  1  0  0  0  0
 56 57  1  0  0  0  0
 56 59  1  0  0  0  0
 57 65  1  0  0  0  0
 58 73  1  0  0  0  0
 59 81  1  0  0  0  0
 60 62  1  0  0  0  0
 60 72  1  0  0  0  0
 61 74  1  0  0  0  0
 63 65  1  0  0  0  0
 64 66  1  0  0  0  0
M  CHG  1  74   1
M  ISO  4  35 100  59 101  73 100  81 101
M  END
> <Batch ID>
0047

> <Smiles>
CCC[100N:0](Cc1cnn(CC[101CH2:1][101O:1]c2ccc3c(c2)CN(C(=O)C(NC(=O)C(C)NC)C(C)(C)C)C(C(=O)NC2CCCc4ccccc42)C3)c1)[100C:0](=O)N1CCCC(n2nc(-c3ccc(Oc4ccc(F)cc4F)cc3)c(C(N)=O)c2N)C1

> <Shape>
0.268

> <Color>
0.084

> <Negative vol penalty>
0.000

$$$$

  -OEChem-04052317243D

 82 90  0     1  0  0  0  0  0999 V2000
  -32.2633  -13.4584   21.4057 C   0  0  0  0  0  0  0  0  0  0  0  0
  -31.4060  -14.3282   22.0721 C   0  0  0  0  0  0  0  0  0  0  0  0
  -26.5769  -28.6198   18.8746 C   0  0  0  0  0  0  0  0  0  0  0  0
  -26.0966  -27.5644   20.9942 C   0  0  0  0  0  0  0  0  0  0  0  0
  -31.8115  -12.7548   20.2901 C   0  0  0  0  0  0  0  0  0  0  0  0
  -30.0968  -14.4957   21.6225 C   0  0  0  0  0  0  0  0  0  0  0  0
  -26.7231  -14.4351   25.3986 C   0  0  0  0  0  0  0  0  0  0  0  0
  -25.5656  -29.5513   19.1092 C   0  0  0  0  0  0  0  0  0  0  0  0
  -25.0853  -28.4960   21.2288 C   0  0  0  0  0  0  0  0  0  0  0  0
  -26.6015  -15.5950   26.1625 C   0  0  0  0  0  0  0  0  0  0  0  0
  -24.8474  -31.7041   22.2642 C   0  0  0  0  0  0  0  0  0  0  0  0
  -24.7817  -32.2815   23.5322 C   0  0  0  0  0  0  0  0  0  0  0  0
  -24.6338  -16.2073   24.9085 C   0  0  0  0  0  0  0  0  0  0  0  0
  -22.5532  -31.3940   23.8209 C   0  0  0  0  0  0  0  0  0  0  0  0
  -28.3087  -19.4099   24.4458 C   0  0  0  0  0  0  0  0  0  0  0  0
  -26.8424  -27.6263   19.8170 C   0  0  0  0  0  0  0  0  0  0  0  0
  -29.2429  -26.7713   19.9363 C   0  0  0  0  0  0  0  0  0  0  0  0
  -30.4931  -12.9064   19.8323 C   0  0  0  0  0  0  0  0  0  0  0  0
  -25.8057  -14.1575   24.3750 C   0  0  0  0  0  0  0  0  0  0  0  0
  -29.6273  -13.7944   20.4988 C   0  0  0  0  0  0  0  0  0  0  0  0
  -24.7445  -15.0419   24.1348 C   0  0  0  0  0  0  0  0  0  0  0  0
  -24.8198  -29.4894   20.2863 C   0  0  0  0  0  0  0  0  0  0  0  0
  -25.5584  -16.4828   25.9156 C   0  0  0  0  0  0  0  0  0  0  0  0
  -23.7660  -30.9717   21.7745 C   0  0  0  0  0  0  0  0  0  0  0  0
  -23.6347  -32.1264   24.3106 C   0  0  0  0  0  0  0  0  0  0  0  0
  -22.6189  -30.8167   22.5528 C   0  0  0  0  0  0  0  0  0  0  0  0
  -27.8866  -26.6633   19.5750 C   0  0  0  0  0  0  0  0  0  0  0  0
  -28.3806  -19.9458   23.1846 C   0  0  0  0  0  0  0  0  0  0  0  0
  -29.8121  -25.6053   19.4857 C   0  0  0  0  0  0  0  0  0  0  0  0
  -29.9271  -27.8307   20.6183 C   0  0  0  0  0  0  0  0  0  0  0  0
  -26.0042  -13.7894   21.2240 C   0  0  0  0  0  0  0  0  0  0  0  0
  -22.8780  -12.9740   21.5140 C   0  0  0  0  0  0  0  0  0  0  0  0
  -19.9834  -13.1846   23.3096 C   0  0  0  0  0  0  0  0  0  0  0  0
  -27.6027  -20.1515   18.3784 C   0  0  0  0  0  0  0  0  0  0  0  0
  -30.0644  -12.1603   18.5937 C   0  0  0  0  0  0  0  0  0  0  0  0
  -25.9352  -12.8886   23.5777 C   0  0  0  0  0  0  0  0  0  0  0  0
  -23.7214  -14.7798   23.0609 C   0  0  0  0  0  0  0  0  0  0  0  0
  -28.5503  -12.1109   18.4058 C   0  0  0  0  0  0  0  0  0  0  0  0
  -29.3252  -22.2684   16.0918 C   0  0  0  0  0  0  0  0  0  0  0  0
  -27.9397  -13.4912   18.6265 C   0  0  0  0  0  0  0  0  0  0  0  0
  -29.2742  -23.6445   16.7578 C   0  0  0  0  0  0  0  0  0  0  0  0
  -28.0414  -21.4771   16.3322 C   0  0  0  0  0  0  0  0  0  0  0  0
  -27.6014  -22.7196   18.4146 C   0  0  0  0  0  0  0  0  0  0  0  0
  -28.1927  -13.9843   20.0563 C   0  0  1  0  0  0  0  0  0  0  0  0
  -25.2423  -12.9623   22.2206 C   0  0  1  0  0  0  0  0  0  0  0  0
  -28.8962  -23.5330   18.2471 C   0  0  2  0  0  0  0  0  0  0  0  0
  -17.5857  -12.4450   23.2751 C   0  0  0  0  0  0  0  0  0  0  0  0
  -22.2615  -15.0797   19.3936 C   0  0  0  0  0  0  0  0  0  0  0  0
  -19.8570  -14.9689   20.0825 C   0  0  0  0  0  0  0  0  0  0  0  0
  -20.9796  -12.9463   19.1489 C   0  0  0  0  0  0  0  0  0  0  0  0
  -20.2888  -11.6842   25.8422 C   0  0  0  0  0  0  0  0  0  0  0  0
  -29.1757  -19.4985   22.0338 C   0  0  0  0  0  0  0  0  0  0  0  0
  -28.4768  -18.4690   21.1077 C   0  0  0  0  0  0  0  0  0  0  0  0
  -25.4254  -20.0152   26.6480 C   0  0  0  0  0  0  0  0  0  0  0  0
  -26.9463  -20.1182   26.5138 C   0  0  0  0  0  0  0  0  0  0  0  0
  -27.1604  -18.9638   20.5122 C   0  0  0  0  0  0  0  0  0  0  0  0
  -24.8482  -18.7499   26.0243 C   0  0  0  0  0  0  0  0  0  1  0  0
  -21.5694  -13.7261   21.4804 C   0  0  1  0  0  0  0  0  0  0  0  0
  -18.9932  -12.1226   23.7523 C   0  0  2  0  0  0  0  0  0  0  0  0
  -21.1871  -14.1865   20.0454 C   0  0  0  0  0  0  0  0  0  0  0  0
  -27.6107  -25.5193   18.9434 N   0  0  0  0  0  0  0  0  0  0  0  0
  -27.5590  -21.0355   23.1009 N   0  0  0  0  0  0  0  0  0  0  0  0
  -26.9731  -21.1967   24.2823 N   0  0  0  0  0  0  0  0  0  0  0  0
  -27.4240  -20.2211   25.0874 N   0  0  0  0  0  0  0  0  0  0  0  0
  -28.8015  -24.8976   18.9042 N   0  0  0  0  0  0  0  0  0  0  0  0
  -23.8946  -13.5289   22.3041 N   0  0  0  0  0  0  0  0  0  0  0  0
  -27.7403  -21.4072   17.7641 N   0  0  0  0  0  0  0  0  0  0  0  0
  -31.0734  -25.1267   19.5340 N   0  0  0  0  0  0  0  0  0  0  0  0
  -29.1913  -28.9569   21.0115 N   0  0  0  0  0  0  0  0  0  0  0  0
  -27.2873  -13.3373   20.9816 N   0  0  0  0  0  0  0  0  0  0  0  0
  -20.5826  -12.8566   22.1118 N   0  0  0  0  0  0  0  0  0  0  0  0
  -27.3237  -20.1750   19.7394 N   0  0  0  0  0  0  0  0  0  0  0  0
  -18.9735  -12.0203   25.2389 N   0  3  0  0  0  0  0  0  0  0  0  0
  -31.1578  -27.7874   20.8571 O   0  0  0  0  0  0  0  0  0  0  0  0
  -25.4672  -14.7645   20.7117 O   0  0  0  0  0  0  0  0  0  0  0  0
  -22.9915  -11.9288   20.8687 O   0  0  0  0  0  0  0  0  0  0  0  0
  -20.2008  -14.2050   23.9593 O   0  0  0  0  0  0  0  0  0  0  0  0
  -27.7250  -19.0882   17.7609 O   0  0  0  0  0  0  0  0  0  0  0  0
  -23.8330  -30.3984   20.5157 O   0  0  0  0  0  0  0  0  0  0  0  0
  -25.4378  -17.6161   26.6592 O   0  0  0  0  0  0  0  0  0  1  0  0
  -23.5723  -32.6797   25.5289 F   0  0  0  0  0  0  0  0  0  0  0  0
  -21.5772  -30.1132   22.0882 F   0  0  0  0  0  0  0  0  0  0  0  0
  1  2  1  0  0  0  0
  1  5  2  0  0  0  0
  2  6  2  0  0  0  0
  3  8  2  0  0  0  0
  3 16  1  0  0  0  0
  4  9  1  0  0  0  0
  4 16  2  0  0  0  0
  5 18  1  0  0  0  0
  6 20  1  0  0  0  0
  7 10  2  0  0  0  0
  7 19  1  0  0  0  0
  8 22  1  0  0  0  0
  9 22  2  0  0  0  0
 10 23  1  0  0  0  0
 11 12  2  0  0  0  0
 11 24  1  0  0  0  0
 12 25  1  0  0  0  0
 13 21  1  0  0  0  0
 13 23  2  0  0  0  0
 14 25  2  0  0  0  0
 14 26  1  0  0  0  0
 15 28  2  0  0  0  0
 15 64  1  0  0  0  0
 16 27  1  0  0  0  0
 17 27  1  0  0  0  0
 17 29  2  0  0  0  0
 17 30  1  0  0  0  0
 18 20  2  0  0  0  0
 18 35  1  0  0  0  0
 19 21  2  0  0  0  0
 19 36  1  0  0  0  0
 20 44  1  0  0  0  0
 21 37  1  0  0  0  0
 22 79  1  0  0  0  0
 23 80  1  0  0  0  0
 24 26  2  0  0  0  0
 24 79  1  0  0  0  0
 25 81  1  0  0  0  0
 26 82  1  0  0  0  0
 27 61  2  0  0  0  0
 28 52  1  0  0  0  0
 28 62  1  0  0  0  0
 29 65  1  0  0  0  0
 29 68  1  0  0  0  0
 30 69  1  0  0  0  0
 30 74  2  0  0  0  0
 31 45  1  0  0  0  0
 31 70  1  0  0  0  0
 31 75  2  0  0  0  0
 32 58  1  0  0  0  0
 32 66  1  0  0  0  0
 32 76  2  0  0  0  0
 33 59  1  0  0  0  0
 33 71  1  0  0  0  0
 33 77  2  0  0  0  0
 34 67  1  0  0  0  0
 34 72  1  0  0  0  0
 34 78  2  0  0  0  0
 35 38  1  0  0  0  0
 36 45  1  0  0  0  0
 37 66  1  0  0  0  0
 38 40  1  0  0  0  0
 39 41  1  0  0  0  0
 39 42  1  0  0  0  0
 40 44  1  0  0  0  0
 41 46  1  0  0  0  0
 42 67  1  0  0  0  0
 43 46  1  0  0  0  0
 43 67  1  0  0  0  0
 44 70  1  0  0  0  0
 45 66  1  0  0  0  0
 46 65  1  0  0  0  0
 47 59  1  0  0  0  0
 48 60  1  0  0  0  0
 49 60  1  0  0  0  0
 50 60  1  0  0  0  0
 51 73  1  0  0  0  0
 52 53  1  0  0  0  0
 53 56  1  0  0  0  0
 54 55  1  0  0  0  0
 54 57  1  0  0  0  0
 55 64  1  0  0  0  0
 56 72  1  0  0  0  0
 57 80  1  0  0  0  0
 58 60  1  0  0  0  0
 58 71  1  0  0  0  0
 59 73  1  0  0  0  0
 61 65  1  0  0  0  0
 62 63  2  0  0  0  0
 63 64  1  0  0  0  0
M  CHG  1  73   1
M  ISO  4  34 100  57 101  72 100  80 101
M  END
> <Batch ID>
0047

> <Smiles>
CNC(C)C(=O)NC(C(=O)N1Cc2cc([101O:1][101CH2:1]CCn3cc(CCC[100NH:0][100C:0](=O)N4CCCC(n5nc(-c6ccc(Oc7ccc(F)cc7F)cc6)c(C(N)=O)c5N)C4)nn3)ccc2CC1C(=O)NC1CCCc2ccccc21)C(C)(C)C

> <Shape>
0.242

> <Color>
0.066

> <Negative vol penalty>
0.000

$$$$

  -OEChem-04052317243D

 81 89  0     1  0  0  0  0  0999 V2000
  -18.2221  -31.3825   22.4288 C   0  0  0  0  0  0  0  0  0  0  0  0
  -19.6095  -31.4097   22.3304 C   0  0  0  0  0  0  0  0  0  0  0  0
  -27.4046  -17.5596   19.8430 C   0  0  0  0  0  0  0  0  0  0  0  0
  -29.1518  -17.3463   21.4979 C   0  0  0  0  0  0  0  0  0  0  0  0
  -17.5611  -30.1688   22.6127 C   0  0  0  0  0  0  0  0  0  0  0  0
  -20.3369  -30.2232   22.4169 C   0  0  0  0  0  0  0  0  0  0  0  0
  -25.4985  -28.8427   19.4240 C   0  0  0  0  0  0  0  0  0  0  0  0
  -27.2713  -16.1717   19.8048 C   0  0  0  0  0  0  0  0  0  0  0  0
  -29.0185  -15.9584   21.4598 C   0  0  0  0  0  0  0  0  0  0  0  0
  -26.8406  -28.8854   19.7994 C   0  0  0  0  0  0  0  0  0  0  0  0
  -25.8236  -13.7559   21.6759 C   0  0  0  0  0  0  0  0  0  0  0  0
  -24.5328  -13.2278   21.6979 C   0  0  0  0  0  0  0  0  0  0  0  0
  -26.7525  -26.5405   20.3585 C   0  0  0  0  0  0  0  0  0  0  0  0
  -31.1461  -26.8946   22.8298 C   0  0  0  0  0  0  0  0  0  0  0  0
  -31.7525  -26.9626   20.5033 C   0  0  0  0  0  0  0  0  0  0  0  0
  -24.9282  -12.1723   19.5609 C   0  0  0  0  0  0  0  0  0  0  0  0
  -28.3449  -18.1469   20.6895 C   0  0  0  0  0  0  0  0  0  0  0  0
  -27.7976  -20.4781   21.5691 C   0  0  0  0  0  0  0  0  0  0  0  0
  -18.2800  -28.9657   22.6918 C   0  0  0  0  0  0  0  0  0  0  0  0
  -24.7693  -27.6492   19.5234 C   0  0  0  0  0  0  0  0  0  0  0  0
  -19.6850  -28.9923   22.6033 C   0  0  0  0  0  0  0  0  0  0  0  0
  -25.4021  -26.4847   19.9813 C   0  0  0  0  0  0  0  0  0  0  0  0
  -30.7843  -26.8113   21.4898 C   0  0  0  0  0  0  0  0  0  0  0  0
  -28.0782  -15.3710   20.6132 C   0  0  0  0  0  0  0  0  0  0  0  0
  -27.4670  -27.7349   20.2695 C   0  0  0  0  0  0  0  0  0  0  0  0
  -26.6668  -13.4923   20.5964 C   0  0  0  0  0  0  0  0  0  0  0  0
  -24.0851  -12.4360   20.6404 C   0  0  0  0  0  0  0  0  0  0  0  0
  -26.2191  -12.7005   19.5389 C   0  0  0  0  0  0  0  0  0  0  0  0
  -28.4835  -19.5806   20.7290 C   0  0  0  0  0  0  0  0  0  0  0  0
  -32.4787  -27.1288   23.1284 C   0  0  0  0  0  0  0  0  0  0  0  0
  -33.0579  -27.1939   20.9061 C   0  0  0  0  0  0  0  0  0  0  0  0
  -28.2818  -21.7147   21.2185 C   0  0  0  0  0  0  0  0  0  0  0  0
  -26.8111  -20.2174   22.5763 C   0  0  0  0  0  0  0  0  0  0  0  0
  -22.2110  -26.7134   21.1616 C   0  0  0  0  0  0  0  0  0  0  0  0
  -22.5383  -24.0214   19.3816 C   0  0  0  0  0  0  0  0  0  0  0  0
  -24.5802  -21.9859   17.5557 C   0  0  0  0  0  0  0  0  0  0  0  0
  -33.1728  -24.1864   19.6755 C   0  0  0  0  0  0  0  0  0  0  0  0
  -17.5249  -27.6836   22.9383 C   0  0  0  0  0  0  0  0  0  0  0  0
  -23.3296  -27.6133   19.0892 C   0  0  0  0  0  0  0  0  0  0  0  0
  -24.6690  -25.1733   20.0878 C   0  0  0  0  0  0  0  0  0  0  0  0
  -18.3430  -26.4287   22.6445 C   0  0  0  0  0  0  0  0  0  0  0  0
  -30.5671  -23.5641   17.2423 C   0  0  0  0  0  0  0  0  0  0  0  0
  -19.7332  -26.5410   23.2622 C   0  0  0  0  0  0  0  0  0  0  0  0
  -29.6923  -22.5527   17.9853 C   0  0  0  0  0  0  0  0  0  0  0  0
  -32.0472  -23.3326   17.5315 C   0  0  0  0  0  0  0  0  0  0  0  0
  -31.5282  -22.3329   19.7235 C   0  0  0  0  0  0  0  0  0  0  0  0
  -20.5073  -27.7236   22.6675 C   0  0  1  0  0  0  0  0  0  0  0  0
  -22.5444  -26.4661   19.7175 C   0  0  1  0  0  0  0  0  0  0  0  0
  -30.0190  -22.5283   19.4902 C   0  0  2  0  0  0  0  0  0  0  0  0
  -32.9037  -27.2227   24.5557 C   0  0  0  0  0  0  0  0  0  0  0  0
  -24.5704  -19.8391   16.2562 C   0  0  0  0  0  0  0  0  0  0  0  0
  -22.5269  -22.4435   21.9931 C   0  0  0  0  0  0  0  0  0  0  0  0
  -23.4553  -20.4883   20.7347 C   0  0  0  0  0  0  0  0  0  0  0  0
  -21.2117  -21.4013   20.1388 C   0  0  0  0  0  0  0  0  0  0  0  0
  -25.3537  -23.3624   15.0526 C   0  0  0  0  0  0  0  0  0  0  0  0
  -29.3550  -26.5581   21.1099 C   0  0  0  0  0  0  0  0  0  1  0  0
  -34.1223  -27.3630   19.8741 C   0  0  0  0  0  0  0  0  0  0  0  0
  -34.8001  -26.0483   19.4709 C   0  0  0  0  0  0  0  0  0  0  0  0
  -23.2848  -22.7189   19.5404 C   0  0  1  0  0  0  0  0  0  0  0  0
  -24.4067  -21.3495   16.1885 C   0  0  2  0  0  0  0  0  0  0  0  0
  -22.6332  -21.7880   20.6017 C   0  0  0  0  0  0  0  0  0  0  0  0
  -29.3382  -20.1947   19.9066 N   0  0  0  0  0  0  0  0  0  0  0  0
  -33.4474  -27.2812   22.1977 N   0  0  0  0  0  0  0  0  0  0  0  0
  -29.1925  -21.4915   20.2281 N   0  0  0  0  0  0  0  0  0  0  0  0
  -23.2612  -25.1907   19.6571 N   0  0  0  0  0  0  0  0  0  0  0  0
  -32.2937  -23.3393   18.9804 N   0  0  0  0  0  0  0  0  0  0  0  0
  -28.0130  -22.9605   21.6639 N   0  0  0  0  0  0  0  0  0  0  0  0
  -26.4281  -18.8893   22.8084 N   0  0  0  0  0  0  0  0  0  0  0  0
  -21.0191  -27.3848   21.3569 N   0  0  0  0  0  0  0  0  0  0  0  0
  -23.3738  -22.1342   18.2068 N   0  0  0  0  0  0  0  0  0  0  0  0
  -33.8648  -25.1064   18.8974 N   0  0  0  0  0  0  0  0  0  0  0  0
  -25.4161  -21.8893   15.2341 N   0  3  0  0  0  0  0  0  0  0  0  0
  -26.2729  -21.1363   23.2391 O   0  0  0  0  0  0  0  0  0  0  0  0
  -22.9777  -26.3227   22.0341 O   0  0  0  0  0  0  0  0  0  0  0  0
  -21.3593  -24.0024   19.0193 O   0  0  0  0  0  0  0  0  0  0  0  0
  -25.6766  -22.3147   18.0031 O   0  0  0  0  0  0  0  0  0  0  0  0
  -33.3258  -24.1307   20.9005 O   0  0  0  0  0  0  0  0  0  0  0  0
  -27.9483  -14.0167   20.5764 O   0  0  0  0  0  0  0  0  0  0  0  0
  -28.7766  -27.7740   20.6372 O   0  0  0  0  0  0  0  0  0  1  0  0
  -22.8461  -11.9277   20.6624 F   0  0  0  0  0  0  0  0  0  0  0  0
  -27.0249  -12.4428   18.4997 F   0  0  0  0  0  0  0  0  0  0  0  0
  1  2  1  0  0  0  0
  1  5  2  0  0  0  0
  2  6  2  0  0  0  0
  3  8  2  0  0  0  0
  3 17  1  0  0  0  0
  4  9  1  0  0  0  0
  4 17  2  0  0  0  0
  5 19  1  0  0  0  0
  6 21  1  0  0  0  0
  7 10  2  0  0  0  0
  7 20  1  0  0  0  0
  8 24  1  0  0  0  0
  9 24  2  0  0  0  0
 10 25  1  0  0  0  0
 11 12  2  0  0  0  0
 11 26  1  0  0  0  0
 12 27  1  0  0  0  0
 13 22  1  0  0  0  0
 13 25  2  0  0  0  0
 14 23  1  0  0  0  0
 14 30  2  0  0  0  0
 15 23  2  0  0  0  0
 15 31  1  0  0  0  0
 16 27  2  0  0  0  0
 16 28  1  0  0  0  0
 17 29  1  0  0  0  0
 18 29  1  0  0  0  0
 18 32  2  0  0  0  0
 18 33  1  0  0  0  0
 19 21  2  0  0  0  0
 19 38  1  0  0  0  0
 20 22  2  0  0  0  0
 20 39  1  0  0  0  0
 21 47  1  0  0  0  0
 22 40  1  0  0  0  0
 23 56  1  0  0  0  0
 24 78  1  0  0  0  0
 25 79  1  0  0  0  0
 26 28  2  0  0  0  0
 26 78  1  0  0  0  0
 27 80  1  0  0  0  0
 28 81  1  0  0  0  0
 29 62  2  0  0  0  0
 30 50  1  0  0  0  0
 30 63  1  0  0  0  0
 31 57  1  0  0  0  0
 31 63  2  0  0  0  0
 32 64  1  0  0  0  0
 32 67  1  0  0  0  0
 33 68  1  0  0  0  0
 33 73  2  0  0  0  0
 34 48  1  0  0  0  0
 34 69  1  0  0  0  0
 34 74  2  0  0  0  0
 35 59  1  0  0  0  0
 35 65  1  0  0  0  0
 35 75  2  0  0  0  0
 36 60  1  0  0  0  0
 36 70  1  0  0  0  0
 36 76  2  0  0  0  0
 37 66  1  0  0  0  0
 37 71  1  0  0  0  0
 37 77  2  0  0  0  0
 38 41  1  0  0  0  0
 39 48  1  0  0  0  0
 40 65  1  0  0  0  0
 41 43  1  0  0  0  0
 42 44  1  0  0  0  0
 42 45  1  0  0  0  0
 43 47  1  0  0  0  0
 44 49  1  0  0  0  0
 45 66  1  0  0  0  0
 46 49  1  0  0  0  0
 46 66  1  0  0  0  0
 47 69  1  0  0  0  0
 48 65  1  0  0  0  0
 49 64  1  0  0  0  0
 51 60  1  0  0  0  0
 52 61  1  0  0  0  0
 53 61  1  0  0  0  0
 54 61  1  0  0  0  0
 55 72  1  0  0  0  0
 56 79  1  0  0  0  0
 57 58  1  0  0  0  0
 58 71  1  0  0  0  0
 59 61  1  0  0  0  0
 59 70  1  0  0  0  0
 60 72  1  0  0  0  0
 62 64  1  0  0  0  0
M  CHG  1  72   1
M  ISO  4  37 100  56 101  71 100  79 101
M  END
> <Batch ID>
0047

> <Smiles>
CNC(C)C(=O)NC(C(=O)N1Cc2cc([101O:1][101CH2:1]c3cc(C)nc(CC[100NH:0][100C:0](=O)N4CCCC(n5nc(-c6ccc(Oc7ccc(F)cc7F)cc6)c(C(N)=O)c5N)C4)c3)ccc2CC1C(=O)NC1CCCc2ccccc21)C(C)(C)C

> <Shape>
0.227

> <Color>
0.071

> <Negative vol penalty>
0.000

$$$$

  -OEChem-04052317243D

 82 90  0     1  0  0  0  0  0999 V2000
  -14.6860  -14.4318   15.8553 C   0  0  0  0  0  0  0  0  0  0  0  0
  -16.0729  -14.3454   15.9213 C   0  0  0  0  0  0  0  0  0  0  0  0
  -27.3646  -23.5119   20.2956 C   0  0  0  0  0  0  0  0  0  0  0  0
  -29.2279  -23.6716   18.7660 C   0  0  0  0  0  0  0  0  0  0  0  0
  -14.0562  -15.6631   16.0319 C   0  0  0  0  0  0  0  0  0  0  0  0
  -16.8310  -15.4905   16.1630 C   0  0  0  0  0  0  0  0  0  0  0  0
  -20.4812  -14.7170   19.5868 C   0  0  0  0  0  0  0  0  0  0  0  0
  -27.4317  -24.8868   20.5210 C   0  0  0  0  0  0  0  0  0  0  0  0
  -29.2950  -25.0466   18.9913 C   0  0  0  0  0  0  0  0  0  0  0  0
  -21.6303  -14.0564   19.1543 C   0  0  0  0  0  0  0  0  0  0  0  0
  -26.8810  -28.4108   21.2231 C   0  0  0  0  0  0  0  0  0  0  0  0
  -25.6844  -29.1274   21.2212 C   0  0  0  0  0  0  0  0  0  0  0  0
  -22.7690  -16.1745   18.9638 C   0  0  0  0  0  0  0  0  0  0  0  0
  -25.2746  -28.4372   18.9424 C   0  0  0  0  0  0  0  0  0  0  0  0
  -29.6371  -11.5593   20.4670 C   0  0  0  0  0  0  0  0  0  0  0  0
  -28.2628  -22.9043   19.4181 C   0  0  0  0  0  0  0  0  0  0  0  0
  -27.4415  -20.8196   18.1986 C   0  0  0  0  0  0  0  0  0  0  0  0
  -14.8064  -16.8222   16.2855 C   0  0  0  0  0  0  0  0  0  0  0  0
  -20.4640  -16.1146   19.7008 C   0  0  0  0  0  0  0  0  0  0  0  0
  -16.2107  -16.7387   16.3419 C   0  0  0  0  0  0  0  0  0  0  0  0
  -21.6192  -16.8502   19.4004 C   0  0  0  0  0  0  0  0  0  0  0  0
  -28.3969  -25.6541   19.8688 C   0  0  0  0  0  0  0  0  0  0  0  0
  -22.7734  -14.7853   18.8399 C   0  0  0  0  0  0  0  0  0  0  0  0
  -27.2745  -27.7074   20.0846 C   0  0  0  0  0  0  0  0  0  0  0  0
  -24.8811  -29.1406   20.0809 C   0  0  0  0  0  0  0  0  0  0  0  0
  -26.4713  -27.7206   18.9443 C   0  0  0  0  0  0  0  0  0  0  0  0
  -28.1943  -21.4840   19.1854 C   0  0  0  0  0  0  0  0  0  0  0  0
  -28.6230  -13.1208   19.4355 C   0  0  0  0  0  0  0  0  0  0  0  0
  -29.6306  -12.7167   18.5917 C   0  0  0  0  0  0  0  0  0  0  0  0
  -27.7175  -19.4885   18.3945 C   0  0  0  0  0  0  0  0  0  0  0  0
  -26.5706  -21.3576   17.1947 C   0  0  0  0  0  0  0  0  0  0  0  0
  -18.8076  -18.4566   18.3314 C   0  0  0  0  0  0  0  0  0  0  0  0
  -20.3803  -20.3019   20.4864 C   0  0  0  0  0  0  0  0  0  0  0  0
  -23.0930  -20.7128   22.5159 C   0  0  0  0  0  0  0  0  0  0  0  0
  -31.3468  -15.3635   19.3734 C   0  0  0  0  0  0  0  0  0  0  0  0
  -14.0838  -18.1389   16.4229 C   0  0  0  0  0  0  0  0  0  0  0  0
  -19.2249  -16.8100   20.1944 C   0  0  0  0  0  0  0  0  0  0  0  0
  -21.6588  -18.3506   19.5255 C   0  0  0  0  0  0  0  0  0  0  0  0
  -14.9373  -19.2398   17.0473 C   0  0  0  0  0  0  0  0  0  0  0  0
  -30.0978  -17.1439   22.1924 C   0  0  0  0  0  0  0  0  0  0  0  0
  -16.3192  -19.2745   16.4024 C   0  0  0  0  0  0  0  0  0  0  0  0
  -29.4350  -18.3793   21.5805 C   0  0  0  0  0  0  0  0  0  0  0  0
  -31.3592  -16.7442   21.4301 C   0  0  0  0  0  0  0  0  0  0  0  0
  -30.5098  -17.7916   19.3672 C   0  0  0  0  0  0  0  0  0  0  0  0
  -17.0661  -17.9541   16.6269 C   0  0  1  0  0  0  0  0  0  0  0  0
  -19.1585  -18.2771   19.7813 C   0  0  1  0  0  0  0  0  0  0  0  0
  -29.2027  -18.1999   20.0681 C   0  0  2  0  0  0  0  0  0  0  0  0
  -24.1193  -22.3401   24.1271 C   0  0  0  0  0  0  0  0  0  0  0  0
  -21.2829  -22.0431   18.1490 C   0  0  0  0  0  0  0  0  0  0  0  0
  -23.0209  -23.0377   19.6517 C   0  0  0  0  0  0  0  0  0  0  0  0
  -20.6014  -23.3124   20.1932 C   0  0  0  0  0  0  0  0  0  0  0  0
  -31.4092  -10.9528   18.8100 C   0  0  0  0  0  0  0  0  0  0  0  0
  -22.9530  -18.7718   24.7456 C   0  0  0  0  0  0  0  0  0  0  0  0
  -27.5916  -14.1986   19.2164 C   0  0  0  0  0  0  0  0  0  0  0  0
  -30.0305  -13.1732   17.2486 C   0  0  0  0  0  0  0  0  0  0  0  0
  -26.2036  -13.6601   18.8627 C   0  0  0  0  0  0  0  0  0  0  0  0
  -31.2584  -14.1035   17.2371 C   0  0  0  0  0  0  0  0  0  0  0  0
  -25.1488  -14.7521   18.7274 C   0  0  0  0  0  0  0  0  0  1  0  0
  -21.6907  -21.0513   20.4976 C   0  0  1  0  0  0  0  0  0  0  0  0
  -23.2086  -21.1323   23.9702 C   0  0  2  0  0  0  0  0  0  0  0  0
  -21.6480  -22.3330   19.6186 C   0  0  0  0  0  0  0  0  0  0  0  0
  -28.6327  -12.3966   20.6013 N   0  0  0  0  0  0  0  0  0  0  0  0
  -28.8958  -20.6442   19.9513 N   0  0  0  0  0  0  0  0  0  0  0  0
  -30.2718  -11.7163   19.2663 N   0  0  0  0  0  0  0  0  0  0  0  0
  -28.5848  -19.4384   19.4459 N   0  0  0  0  0  0  0  0  0  0  0  0
  -20.4204  -18.9852   20.0061 N   0  0  0  0  0  0  0  0  0  0  0  0
  -31.0703  -16.5886   20.0024 N   0  0  0  0  0  0  0  0  0  0  0  0
  -27.3004  -18.3676   17.7683 N   0  0  0  0  0  0  0  0  0  0  0  0
  -26.4001  -22.7474   17.1332 N   0  0  0  0  0  0  0  0  0  0  0  0
  -17.5968  -17.8960   17.9720 N   0  0  0  0  0  0  0  0  0  0  0  0
  -22.0074  -21.2988   21.9001 N   0  0  0  0  0  0  0  0  0  0  0  0
  -31.0372  -15.2986   18.0203 N   0  0  0  0  0  0  0  0  0  0  0  0
  -23.7624  -20.0167   24.7886 N   0  3  0  0  0  0  0  0  0  0  0  0
  -25.9490  -20.6264   16.3869 O   0  0  0  0  0  0  0  0  0  0  0  0
  -19.5777  -19.0602   17.5936 O   0  0  0  0  0  0  0  0  0  0  0  0
  -19.3600  -20.8616   20.8955 O   0  0  0  0  0  0  0  0  0  0  0  0
  -23.8885  -19.9452   21.9787 O   0  0  0  0  0  0  0  0  0  0  0  0
  -31.8286  -14.3972   19.9743 O   0  0  0  0  0  0  0  0  0  0  0  0
  -28.4625  -26.9958   20.0883 O   0  0  0  0  0  0  0  0  0  0  0  0
  -23.8961  -14.1431   18.4169 O   0  0  0  0  0  0  0  0  0  1  0  0
  -23.7312  -29.8276   20.0798 F   0  0  0  0  0  0  0  0  0  0  0  0
  -26.8435  -27.0458   17.8480 F   0  0  0  0  0  0  0  0  0  0  0  0
  1  2  1  0  0  0  0
  1  5  2  0  0  0  0
  2  6  2  0  0  0  0
  3  8  2  0  0  0  0
  3 16  1  0  0  0  0
  4  9  1  0  0  0  0
  4 16  2  0  0  0  0
  5 18  1  0  0  0  0
  6 20  1  0  0  0  0
  7 10  2  0  0  0  0
  7 19  1  0  0  0  0
  8 22  1  0  0  0  0
  9 22  2  0  0  0  0
 10 23  1  0  0  0  0
 11 12  2  0  0  0  0
 11 24  1  0  0  0  0
 12 25  1  0  0  0  0
 13 21  1  0  0  0  0
 13 23  2  0  0  0  0
 14 25  2  0  0  0  0
 14 26  1  0  0  0  0
 15 62  2  0  0  0  0
 15 64  1  0  0  0  0
 16 27  1  0  0  0  0
 17 27  1  0  0  0  0
 17 30  2  0  0  0  0
 17 31  1  0  0  0  0
 18 20  2  0  0  0  0
 18 36  1  0  0  0  0
 19 21  2  0  0  0  0
 19 37  1  0  0  0  0
 20 45  1  0  0  0  0
 21 38  1  0  0  0  0
 22 79  1  0  0  0  0
 23 80  1  0  0  0  0
 24 26  2  0  0  0  0
 24 79  1  0  0  0  0
 25 81  1  0  0  0  0
 26 82  1  0  0  0  0
 27 63  2  0  0  0  0
 28 29  2  0  0  0  0
 28 54  1  0  0  0  0
 28 62  1  0  0  0  0
 29 55  1  0  0  0  0
 29 64  1  0  0  0  0
 30 65  1  0  0  0  0
 30 68  1  0  0  0  0
 31 69  1  0  0  0  0
 31 74  2  0  0  0  0
 32 46  1  0  0  0  0
 32 70  1  0  0  0  0
 32 75  2  0  0  0  0
 33 59  1  0  0  0  0
 33 66  1  0  0  0  0
 33 76  2  0  0  0  0
 34 60  1  0  0  0  0
 34 71  1  0  0  0  0
 34 77  2  0  0  0  0
 35 67  1  0  0  0  0
 35 72  1  0  0  0  0
 35 78  2  0  0  0  0
 36 39  1  0  0  0  0
 37 46  1  0  0  0  0
 38 66  1  0  0  0  0
 39 41  1  0  0  0  0
 40 42  1  0  0  0  0
 40 43  1  0  0  0  0
 41 45  1  0  0  0  0
 42 47  1  0  0  0  0
 43 67  1  0  0  0  0
 44 47  1  0  0  0  0
 44 67  1  0  0  0  0
 45 70  1  0  0  0  0
 46 66  1  0  0  0  0
 47 65  1  0  0  0  0
 48 60  1  0  0  0  0
 49 61  1  0  0  0  0
 50 61  1  0  0  0  0
 51 61  1  0  0  0  0
 52 64  1  0  0  0  0
 53 73  1  0  0  0  0
 54 56  1  0  0  0  0
 55 57  1  0  0  0  0
 56 58  1  0  0  0  0
 57 72  1  0  0  0  0
 58 80  1  0  0  0  0
 59 61  1  0  0  0  0
 59 71  1  0  0  0  0
 60 73  1  0  0  0  0
 63 65  1  0  0  0  0
M  CHG  1  73   1
M  ISO  4  35 100  58 101  72 100  80 101
M  END
> <Batch ID>
0047

> <Smiles>
CNC(C)C(=O)NC(C(=O)N1Cc2cc([101O:1][101CH2:1]CCc3ncn(C)c3CC[100NH:0][100C:0](=O)N3CCCC(n4nc(-c5ccc(Oc6ccc(F)cc6F)cc5)c(C(N)=O)c4N)C3)ccc2CC1C(=O)NC1CCCc2ccccc21)C(C)(C)C

> <Shape>
0.174

> <Color>
0.083

> <Negative vol penalty>
0.000

$$$$

  -OEChem-04052317243D

 82 90  0     1  0  0  0  0  0999 V2000
  -23.4601  -10.2019   18.7080 C   0  0  0  0  0  0  0  0  0  0  0  0
  -22.7011  -11.3594   18.5677 C   0  0  0  0  0  0  0  0  0  0  0  0
  -30.5079  -26.9026   19.9554 C   0  0  0  0  0  0  0  0  0  0  0  0
  -29.4321  -25.2372   21.3359 C   0  0  0  0  0  0  0  0  0  0  0  0
  -24.5771  -10.1990   19.5423 C   0  0  0  0  0  0  0  0  0  0  0  0
  -23.0582  -12.5144   19.2626 C   0  0  0  0  0  0  0  0  0  0  0  0
  -22.9659  -19.6512   18.6506 C   0  0  0  0  0  0  0  0  0  0  0  0
  -21.3758  -26.6169   21.6923 C   0  0  0  0  0  0  0  0  0  0  0  0
  -21.6084  -25.4719   20.9305 C   0  0  0  0  0  0  0  0  0  0  0  0
  -31.7557  -26.4635   20.3979 C   0  0  0  0  0  0  0  0  0  0  0  0
  -30.6799  -24.7980   21.7784 C   0  0  0  0  0  0  0  0  0  0  0  0
  -22.5486  -20.7864   19.3441 C   0  0  0  0  0  0  0  0  0  0  0  0
  -33.0207  -25.7842   24.0097 C   0  0  0  0  0  0  0  0  0  0  0  0
  -33.1782  -25.5496   25.3756 C   0  0  0  0  0  0  0  0  0  0  0  0
  -24.5443  -20.6869   20.6956 C   0  0  0  0  0  0  0  0  0  0  0  0
  -20.7920  -25.2373   23.5878 C   0  0  0  0  0  0  0  0  0  0  0  0
  -33.7245  -23.2414   24.9162 C   0  0  0  0  0  0  0  0  0  0  0  0
  -29.3461  -26.2895   20.4244 C   0  0  0  0  0  0  0  0  0  0  0  0
  -27.3394  -26.2789   18.8494 C   0  0  0  0  0  0  0  0  0  0  0  0
  -24.9537  -11.3573   20.2403 C   0  0  0  0  0  0  0  0  0  0  0  0
  -24.1723  -19.0179   18.9822 C   0  0  0  0  0  0  0  0  0  0  0  0
  -24.1806  -12.5266   20.1081 C   0  0  0  0  0  0  0  0  0  0  0  0
  -24.9759  -19.5453   20.0030 C   0  0  0  0  0  0  0  0  0  0  0  0
  -20.9677  -26.4996   23.0210 C   0  0  0  0  0  0  0  0  0  0  0  0
  -21.4328  -24.2095   21.4973 C   0  0  0  0  0  0  0  0  0  0  0  0
  -21.0246  -24.0922   22.8260 C   0  0  0  0  0  0  0  0  0  0  0  0
  -31.8417  -25.4111   21.3094 C   0  0  0  0  0  0  0  0  0  0  0  0
  -23.3364  -21.3027   20.3687 C   0  0  0  0  0  0  0  0  0  0  0  0
  -33.2150  -24.7474   23.0970 C   0  0  0  0  0  0  0  0  0  0  0  0
  -33.5301  -24.2782   25.8289 C   0  0  0  0  0  0  0  0  0  0  0  0
  -33.5670  -23.4761   23.5502 C   0  0  0  0  0  0  0  0  0  0  0  0
  -28.0569  -26.7431   19.9682 C   0  0  0  0  0  0  0  0  0  0  0  0
  -26.1850  -27.0230   18.8489 C   0  0  0  0  0  0  0  0  0  0  0  0
  -27.6855  -25.2656   17.8960 C   0  0  0  0  0  0  0  0  0  0  0  0
  -24.9707  -16.1358   20.0590 C   0  0  0  0  0  0  0  0  0  0  0  0
  -27.9900  -17.2267   19.5941 C   0  0  0  0  0  0  0  0  0  0  0  0
  -30.0957  -19.8988   19.3248 C   0  0  0  0  0  0  0  0  0  0  0  0
  -23.1661  -29.8683   23.1666 C   0  0  0  0  0  0  0  0  0  0  0  0
  -26.1416  -11.2924   21.1672 C   0  0  0  0  0  0  0  0  0  0  0  0
  -24.6213  -17.8098   18.2067 C   0  0  0  0  0  0  0  0  0  0  0  0
  -26.2894  -18.9146   20.3842 C   0  0  0  0  0  0  0  0  0  0  0  0
  -26.6699  -12.6646   21.5774 C   0  0  0  0  0  0  0  0  0  0  0  0
  -24.4806  -31.2911   20.1792 C   0  0  0  0  0  0  0  0  0  0  0  0
  -25.5200  -13.5773   21.9916 C   0  0  0  0  0  0  0  0  0  0  0  0
  -25.4815  -30.2450   19.6854 C   0  0  0  0  0  0  0  0  0  0  0  0
  -24.4681  -31.3850   21.7033 C   0  0  0  0  0  0  0  0  0  0  0  0
  -25.2525  -29.0575   21.9072 C   0  0  0  0  0  0  0  0  0  0  0  0
  -24.5502  -13.8065   20.8260 C   0  0  1  0  0  0  0  0  0  0  0  0
  -25.6187  -16.9454   18.9717 C   0  0  1  0  0  0  0  0  0  0  0  0
  -25.2609  -28.8869   20.3784 C   0  0  2  0  0  0  0  0  0  0  0  0
  -21.9853  -22.3699   24.3743 C   0  0  0  0  0  0  0  0  0  0  0  0
  -32.2323  -21.1468   18.9065 C   0  0  0  0  0  0  0  0  0  0  0  0
  -28.5774  -16.4645   22.4896 C   0  0  0  0  0  0  0  0  0  0  0  0
  -30.6288  -17.8953   22.3769 C   0  0  0  0  0  0  0  0  0  0  0  0
  -30.4067  -15.9162   20.8748 C   0  0  0  0  0  0  0  0  0  0  0  0
  -29.5331  -20.1238   16.4279 C   0  0  0  0  0  0  0  0  0  0  0  0
  -20.7186  -27.7240   23.8352 C   0  0  0  0  0  0  0  0  0  0  0  0
  -20.8297  -22.7512   23.4540 C   0  0  0  0  0  0  0  0  0  0  0  0
  -21.6880  -22.9924   20.6578 C   0  0  0  0  0  0  0  0  0  1  0  0
  -21.9589  -28.2270   24.5835 C   0  0  0  0  0  0  0  0  0  0  0  0
  -28.9995  -17.9701   20.4350 C   0  0  1  0  0  0  0  0  0  0  0  0
  -31.1727  -20.2342   18.3089 C   0  0  2  0  0  0  0  0  0  0  0  0
  -29.6275  -17.0725   21.5384 C   0  0  0  0  0  0  0  0  0  0  0  0
  -27.4123  -27.7076   20.6302 N   0  0  0  0  0  0  0  0  0  0  0  0
  -26.2777  -27.8555   19.9253 N   0  0  0  0  0  0  0  0  0  0  0  0
  -26.6820  -17.7316   19.6007 N   0  0  0  0  0  0  0  0  0  0  0  0
  -24.2532  -30.0639   22.2987 N   0  0  0  0  0  0  0  0  0  0  0  0
  -25.1098  -27.0399   18.0328 N   0  0  0  0  0  0  0  0  0  0  0  0
  -28.9094  -24.5989   18.0441 N   0  0  0  0  0  0  0  0  0  0  0  0
  -25.0977  -14.7696   19.8949 N   0  0  0  0  0  0  0  0  0  0  0  0
  -29.9682  -18.5375   19.5034 N   0  0  0  0  0  0  0  0  0  0  0  0
  -23.0312  -28.5850   23.6820 N   0  0  0  0  0  0  0  0  0  0  0  0
  -30.5753  -20.9184   17.1274 N   0  3  0  0  0  0  0  0  0  0  0  0
  -26.9392  -24.9718   16.9315 O   0  0  0  0  0  0  0  0  0  0  0  0
  -24.3992  -16.7082   20.9796 O   0  0  0  0  0  0  0  0  0  0  0  0
  -28.3504  -16.2388   18.9492 O   0  0  0  0  0  0  0  0  0  0  0  0
  -29.4363  -20.7586   19.9048 O   0  0  0  0  0  0  0  0  0  0  0  0
  -22.3714  -30.7692   23.4561 O   0  0  0  0  0  0  0  0  0  0  0  0
  -33.0591  -24.9822   21.7412 O   0  0  0  0  0  0  0  0  0  0  0  0
  -22.9311  -22.4102   21.0477 O   0  0  0  0  0  0  0  0  0  1  0  0
  -33.6828  -24.0535   27.1405 F   0  0  0  0  0  0  0  0  0  0  0  0
  -33.7562  -22.4764   22.6781 F   0  0  0  0  0  0  0  0  0  0  0  0
  1  2  1  0  0  0  0
  1  5  2  0  0  0  0
  2  6  2  0  0  0  0
  3 10  2  0  0  0  0
  3 18  1  0  0  0  0
  4 11  1  0  0  0  0
  4 18  2  0  0  0  0
  5 20  1  0  0  0  0
  6 22  1  0  0  0  0
  7 12  2  0  0  0  0
  7 21  1  0  0  0  0
  8  9  2  0  0  0  0
  8 24  1  0  0  0  0
  9 25  1  0  0  0  0
 10 27  1  0  0  0  0
 11 27  2  0  0  0  0
 12 28  1  0  0  0  0
 13 14  2  0  0  0  0
 13 29  1  0  0  0  0
 14 30  1  0  0  0  0
 15 23  1  0  0  0  0
 15 28  2  0  0  0  0
 16 24  2  0  0  0  0
 16 26  1  0  0  0  0
 17 30  2  0  0  0  0
 17 31  1  0  0  0  0
 18 32  1  0  0  0  0
 19 32  1  0  0  0  0
 19 33  2  0  0  0  0
 19 34  1  0  0  0  0
 20 22  2  0  0  0  0
 20 39  1  0  0  0  0
 21 23  2  0  0  0  0
 21 40  1  0  0  0  0
 22 48  1  0  0  0  0
 23 41  1  0  0  0  0
 24 57  1  0  0  0  0
 25 26  2  0  0  0  0
 25 59  1  0  0  0  0
 26 58  1  0  0  0  0
 27 79  1  0  0  0  0
 28 80  1  0  0  0  0
 29 31  2  0  0  0  0
 29 79  1  0  0  0  0
 30 81  1  0  0  0  0
 31 82  1  0  0  0  0
 32 64  2  0  0  0  0
 33 65  1  0  0  0  0
 33 68  1  0  0  0  0
 34 69  1  0  0  0  0
 34 74  2  0  0  0  0
 35 49  1  0  0  0  0
 35 70  1  0  0  0  0
 35 75  2  0  0  0  0
 36 61  1  0  0  0  0
 36 66  1  0  0  0  0
 36 76  2  0  0  0  0
 37 62  1  0  0  0  0
 37 71  1  0  0  0  0
 37 77  2  0  0  0  0
 38 67  1  0  0  0  0
 38 72  1  0  0  0  0
 38 78  2  0  0  0  0
 39 42  1  0  0  0  0
 40 49  1  0  0  0  0
 41 66  1  0  0  0  0
 42 44  1  0  0  0  0
 43 45  1  0  0  0  0
 43 46  1  0  0  0  0
 44 48  1  0  0  0  0
 45 50  1  0  0  0  0
 46 67  1  0  0  0  0
 47 50  1  0  0  0  0
 47 67  1  0  0  0  0
 48 70  1  0  0  0  0
 49 66  1  0  0  0  0
 50 65  1  0  0  0  0
 51 58  1  0  0  0  0
 52 62  1  0  0  0  0
 53 63  1  0  0  0  0
 54 63  1  0  0  0  0
 55 63  1  0  0  0  0
 56 73  1  0  0  0  0
 57 60  1  0  0  0  0
 59 80  1  0  0  0  0
 60 72  1  0  0  0  0
 61 63  1  0  0  0  0
 61 71  1  0  0  0  0
 62 73  1  0  0  0  0
 64 65  1  0  0  0  0
M  CHG  1  73   1
M  ISO  4  38 100  59 101  72 100  80 101
M  END
> <Batch ID>
0047

> <Smiles>
CCc1cc(CC[100NH:0][100C:0](=O)N2CCCC(n3nc(-c4ccc(Oc5ccc(F)cc5F)cc4)c(C(N)=O)c3N)C2)ccc1[101CH2:1][101O:1]c1ccc2c(c1)CN(C(=O)C(NC(=O)C(C)NC)C(C)(C)C)C(C(=O)NC1CCCc3ccccc31)C2

> <Shape>
0.210

> <Color>
0.070

> <Negative vol penalty>
0.000

$$$$

  -OEChem-04052317243D

 88 96  0     1  0  0  0  0  0999 V2000
  -33.0025  -25.0035   18.9268 C   0  0  0  0  0  0  0  0  0  0  0  0
  -31.7310  -24.6056   19.3272 C   0  0  0  0  0  0  0  0  0  0  0  0
  -24.6096   -9.0098   21.7325 C   0  0  0  0  0  0  0  0  0  0  0  0
  -22.7693  -10.3319   20.8944 C   0  0  0  0  0  0  0  0  0  0  0  0
  -33.4955  -26.2493   19.3126 C   0  0  0  0  0  0  0  0  0  0  0  0
  -30.9521  -25.4528   20.1145 C   0  0  0  0  0  0  0  0  0  0  0  0
  -26.1535  -25.7217   18.5189 C   0  0  0  0  0  0  0  0  0  0  0  0
  -23.7206   -8.2610   22.5035 C   0  0  0  0  0  0  0  0  0  0  0  0
  -21.8802   -9.5831   21.6654 C   0  0  0  0  0  0  0  0  0  0  0  0
  -25.3135  -24.6580   18.8452 C   0  0  0  0  0  0  0  0  0  0  0  0
  -21.5309   -5.7291   22.0261 C   0  0  0  0  0  0  0  0  0  0  0  0
  -21.6800   -4.3423   22.0240 C   0  0  0  0  0  0  0  0  0  0  0  0
  -24.3929  -25.9504   20.6622 C   0  0  0  0  0  0  0  0  0  0  0  0
  -25.1042  -19.0789   21.4360 C   0  0  0  0  0  0  0  0  0  0  0  0
  -22.0416   -4.3775   24.4125 C   0  0  0  0  0  0  0  0  0  0  0  0
  -24.1340  -10.0453   20.9280 C   0  0  0  0  0  0  0  0  0  0  0  0
  -25.4635  -10.5558   18.8115 C   0  0  0  0  0  0  0  0  0  0  0  0
  -32.7185  -27.1163   20.0970 C   0  0  0  0  0  0  0  0  0  0  0  0
  -26.1273  -26.9057   19.2698 C   0  0  0  0  0  0  0  0  0  0  0  0
  -31.4357  -26.7108   20.5123 C   0  0  0  0  0  0  0  0  0  0  0  0
  -25.2318  -27.0286   20.3417 C   0  0  0  0  0  0  0  0  0  0  0  0
  -23.9750  -19.8591   21.6579 C   0  0  0  0  0  0  0  0  0  0  0  0
  -26.3390  -19.6902   21.2489 C   0  0  0  0  0  0  0  0  0  0  0  0
  -22.3559   -8.5476   22.4700 C   0  0  0  0  0  0  0  0  0  0  0  0
  -24.4350  -24.7711   19.9188 C   0  0  0  0  0  0  0  0  0  0  0  0
  -21.6372   -6.4402   23.2214 C   0  0  0  0  0  0  0  0  0  0  0  0
  -21.9354   -3.6665   23.2172 C   0  0  0  0  0  0  0  0  0  0  0  0
  -21.8925   -5.7644   24.4146 C   0  0  0  0  0  0  0  0  0  0  0  0
  -25.0520  -10.8195   20.1317 C   0  0  0  0  0  0  0  0  0  0  0  0
  -24.1325  -21.2355   21.6834 C   0  0  0  0  0  0  0  0  0  0  0  0
  -26.3906  -21.0741   21.2925 C   0  0  0  0  0  0  0  0  0  0  0  0
  -26.3322  -11.5768   18.5123 C   0  0  0  0  0  0  0  0  0  0  0  0
  -25.0936   -9.4839   17.9341 C   0  0  0  0  0  0  0  0  0  0  0  0
  -28.2355  -28.4758   21.0568 C   0  0  0  0  0  0  0  0  0  0  0  0
  -25.8793  -30.7013   21.1908 C   0  0  0  0  0  0  0  0  0  0  0  0
  -22.5490  -31.4119   20.9643 C   0  0  0  0  0  0  0  0  0  0  0  0
  -27.1034  -17.0573   19.2918 C   0  0  0  0  0  0  0  0  0  0  0  0
  -33.3126  -28.4336   20.5288 C   0  0  0  0  0  0  0  0  0  0  0  0
  -27.0209  -28.0539   18.8883 C   0  0  0  0  0  0  0  0  0  0  0  0
  -25.1504  -28.2860   21.1669 C   0  0  0  0  0  0  0  0  0  0  0  0
  -32.2775  -29.4268   21.0505 C   0  0  0  0  0  0  0  0  0  0  0  0
  -29.0331  -14.7551   21.1487 C   0  0  0  0  0  0  0  0  0  0  0  0
  -31.3281  -28.7436   22.0296 C   0  0  0  0  0  0  0  0  0  0  0  0
  -28.2358  -13.4661   20.9546 C   0  0  0  0  0  0  0  0  0  0  0  0
  -28.1234  -15.9692   21.3454 C   0  0  0  0  0  0  0  0  0  0  0  0
  -26.3137  -14.8480   20.0842 C   0  0  0  0  0  0  0  0  0  0  0  0
  -30.5510  -27.6121   21.3460 C   0  0  1  0  0  0  0  0  0  0  0  0
  -27.2740  -29.0222   20.0397 C   0  0  1  0  0  0  0  0  0  0  0  0
  -27.2035  -13.6226   19.8246 C   0  0  2  0  0  0  0  0  0  0  0  0
  -22.0349  -18.7221   20.5490 C   0  0  0  0  0  0  0  0  0  0  0  0
  -28.5705  -21.7282   22.3446 C   0  0  0  0  0  0  0  0  0  0  0  0
  -20.9228  -33.3131   21.1592 C   0  0  0  0  0  0  0  0  0  0  0  0
  -29.7310  -20.6999   17.5359 C   0  0  0  0  0  0  0  0  0  0  0  0
  -30.2980  -18.4598   18.5034 C   0  0  0  0  0  0  0  0  0  0  0  0
  -26.1244  -30.5962   24.2303 C   0  0  0  0  0  0  0  0  0  0  0  0
  -23.9053  -31.7457   24.3794 C   0  0  0  0  0  0  0  0  0  0  0  0
  -25.8315  -32.8934   23.2861 C   0  0  0  0  0  0  0  0  0  0  0  0
  -21.6679  -31.0986   18.1564 C   0  0  0  0  0  0  0  0  0  0  0  0
  -22.6493  -19.2103   21.8591 C   0  0  0  0  0  0  0  0  0  0  0  0
  -27.5527  -18.8599   21.0104 C   0  0  0  0  0  0  0  0  0  0  0  0
  -22.9425  -22.1337   21.9190 C   0  0  0  0  0  0  0  0  0  0  0  0
  -27.6906  -21.7840   21.0995 C   0  0  0  0  0  0  0  0  0  0  0  0
  -27.9284  -19.2778   18.6083 C   0  0  0  0  0  0  0  0  0  0  0  0
  -23.2497  -23.5955   21.6126 C   0  0  0  0  0  0  0  0  0  1  0  0
  -24.7061  -30.9624   22.1042 C   0  0  1  0  0  0  0  0  0  0  0  0
  -21.8000  -32.5016   20.2186 C   0  0  2  0  0  0  0  0  0  0  0  0
  -29.4036  -19.6925   18.6404 C   0  0  0  0  0  0  0  0  0  0  0  0
  -25.1445  -31.5249   23.4859 C   0  0  0  0  0  0  0  0  0  0  0  0
  -25.6132  -11.9215   20.6364 N   0  0  0  0  0  0  0  0  0  0  0  0
  -25.3154  -21.8653   21.5058 N   0  0  0  0  0  0  0  0  0  0  0  0
  -26.3863  -12.3592   19.6281 N   0  0  0  0  0  0  0  0  0  0  0  0
  -26.0489  -29.3784   20.7583 N   0  0  0  0  0  0  0  0  0  0  0  0
  -27.1238  -16.0541   20.2719 N   0  0  0  0  0  0  0  0  0  0  0  0
  -27.0474  -11.8725   17.4062 N   0  0  0  0  0  0  0  0  0  0  0  0
  -24.1895   -8.5201   18.4009 N   0  0  0  0  0  0  0  0  0  0  0  0
  -29.4759  -28.1518   20.5413 N   0  0  0  0  0  0  0  0  0  0  0  0
  -23.7992  -31.8338   21.3649 N   0  0  0  0  0  0  0  0  0  0  0  0
  -27.5997  -18.3187   19.6535 N   0  0  0  0  0  0  0  0  0  0  0  0
  -20.9323  -31.9051   19.1640 N   0  3  0  0  0  0  0  0  0  0  0  0
  -25.5639   -9.3747   16.7763 O   0  0  0  0  0  0  0  0  0  0  0  0
  -27.8790  -28.3585   22.2234 O   0  0  0  0  0  0  0  0  0  0  0  0
  -26.6138  -31.6378   20.8669 O   0  0  0  0  0  0  0  0  0  0  0  0
  -22.0714  -30.2990   21.1739 O   0  0  0  0  0  0  0  0  0  0  0  0
  -26.6586  -16.8414   18.1570 O   0  0  0  0  0  0  0  0  0  0  0  0
  -21.4880   -7.8170   23.2220 O   0  0  0  0  0  0  0  0  0  0  0  0
  -23.6144  -23.7341   20.2399 O   0  0  0  0  0  0  0  0  0  1  0  0
  -22.0771   -2.3345   23.2152 F   0  0  0  0  0  0  0  0  0  0  0  0
  -21.9945   -6.4420   25.5663 F   0  0  0  0  0  0  0  0  0  0  0  0
  1  2  1  0  0  0  0
  1  5  2  0  0  0  0
  2  6  2  0  0  0  0
  3  8  2  0  0  0  0
  3 16  1  0  0  0  0
  4  9  1  0  0  0  0
  4 16  2  0  0  0  0
  5 18  1  0  0  0  0
  6 20  1  0  0  0  0
  7 10  2  0  0  0  0
  7 19  1  0  0  0  0
  8 24  1  0  0  0  0
  9 24  2  0  0  0  0
 10 25  1  0  0  0  0
 11 12  2  0  0  0  0
 11 26  1  0  0  0  0
 12 27  1  0  0  0  0
 13 21  1  0  0  0  0
 13 25  2  0  0  0  0
 14 22  1  0  0  0  0
 14 23  2  0  0  0  0
 15 27  2  0  0  0  0
 15 28  1  0  0  0  0
 16 29  1  0  0  0  0
 17 29  1  0  0  0  0
 17 32  2  0  0  0  0
 17 33  1  0  0  0  0
 18 20  2  0  0  0  0
 18 38  1  0  0  0  0
 19 21  2  0  0  0  0
 19 39  1  0  0  0  0
 20 47  1  0  0  0  0
 21 40  1  0  0  0  0
 22 30  2  0  0  0  0
 22 59  1  0  0  0  0
 23 31  1  0  0  0  0
 23 60  1  0  0  0  0
 24 85  1  0  0  0  0
 25 86  1  0  0  0  0
 26 28  2  0  0  0  0
 26 85  1  0  0  0  0
 27 87  1  0  0  0  0
 28 88  1  0  0  0  0
 29 69  2  0  0  0  0
 30 61  1  0  0  0  0
 30 70  1  0  0  0  0
 31 62  1  0  0  0  0
 31 70  2  0  0  0  0
 32 71  1  0  0  0  0
 32 74  1  0  0  0  0
 33 75  1  0  0  0  0
 33 80  2  0  0  0  0
 34 48  1  0  0  0  0
 34 76  1  0  0  0  0
 34 81  2  0  0  0  0
 35 65  1  0  0  0  0
 35 72  1  0  0  0  0
 35 82  2  0  0  0  0
 36 66  1  0  0  0  0
 36 77  1  0  0  0  0
 36 83  2  0  0  0  0
 37 73  1  0  0  0  0
 37 78  1  0  0  0  0
 37 84  2  0  0  0  0
 38 41  1  0  0  0  0
 39 48  1  0  0  0  0
 40 72  1  0  0  0  0
 41 43  1  0  0  0  0
 42 44  1  0  0  0  0
 42 45  1  0  0  0  0
 43 47  1  0  0  0  0
 44 49  1  0  0  0  0
 45 73  1  0  0  0  0
 46 49  1  0  0  0  0
 46 73  1  0  0  0  0
 47 76  1  0  0  0  0
 48 72  1  0  0  0  0
 49 71  1  0  0  0  0
 50 59  1  0  0  0  0
 51 62  1  0  0  0  0
 52 66  1  0  0  0  0
 53 67  1  0  0  0  0
 54 67  1  0  0  0  0
 55 68  1  0  0  0  0
 56 68  1  0  0  0  0
 57 68  1  0  0  0  0
 58 79  1  0  0  0  0
 60 78  1  0  0  0  0
 61 64  1  0  0  0  0
 63 67  1  0  0  0  0
 63 78  1  0  0  0  0
 64 86  1  0  0  0  0
 65 68  1  0  0  0  0
 65 77  1  0  0  0  0
 66 79  1  0  0  0  0
 69 71  1  0  0  0  0
M  CHG  1  79   1
M  ISO  4  37 100  64 101  78 100  86 101
M  END
> <Batch ID>
0047

> <Smiles>
CCc1cc(C[100N:0](CC(C)C)[100C:0](=O)N2CCCC(n3nc(-c4ccc(Oc5ccc(F)cc5F)cc4)c(C(N)=O)c3N)C2)c(CC)nc1C[101CH2:1][101O:1]c1ccc2c(c1)CN(C(=O)C(NC(=O)C(C)NC)C(C)(C)C)C(C(=O)NC1CCCc3ccccc31)C2

> <Shape>
0.279

> <Color>
0.065

> <Negative vol penalty>
0.000

$$$$

  -OEChem-04052317243D

 81 89  0     1  0  0  0  0  0999 V2000
  -22.9888  -34.0797   22.5156 C   0  0  0  0  0  0  0  0  0  0  0  0
  -23.9155  -33.0426   22.4856 C   0  0  0  0  0  0  0  0  0  0  0  0
  -26.7207  -14.4017   22.0299 C   0  0  0  0  0  0  0  0  0  0  0  0
  -26.3590  -14.1724   19.6521 C   0  0  0  0  0  0  0  0  0  0  0  0
  -21.6582  -33.8150   22.8370 C   0  0  0  0  0  0  0  0  0  0  0  0
  -23.5123  -31.7401   22.7780 C   0  0  0  0  0  0  0  0  0  0  0  0
  -25.3891  -28.3477   19.5200 C   0  0  0  0  0  0  0  0  0  0  0  0
  -25.8903  -13.3053   22.2620 C   0  0  0  0  0  0  0  0  0  0  0  0
  -25.5286  -13.0759   19.8842 C   0  0  0  0  0  0  0  0  0  0  0  0
  -26.7192  -27.9671   19.6929 C   0  0  0  0  0  0  0  0  0  0  0  0
  -23.0272  -10.4392   19.8711 C   0  0  0  0  0  0  0  0  0  0  0  0
  -21.8220  -10.3790   19.1714 C   0  0  0  0  0  0  0  0  0  0  0  0
  -25.9920  -25.9512   20.8004 C   0  0  0  0  0  0  0  0  0  0  0  0
  -21.1361  -12.4678   20.1733 C   0  0  0  0  0  0  0  0  0  0  0  0
  -31.2579  -25.1565   18.4071 C   0  0  0  0  0  0  0  0  0  0  0  0
  -26.9550  -14.8353   20.7250 C   0  0  0  0  0  0  0  0  0  0  0  0
  -29.2041  -15.9517   20.2743 C   0  0  0  0  0  0  0  0  0  0  0  0
  -21.2365  -32.5072   23.1240 C   0  0  0  0  0  0  0  0  0  0  0  0
  -24.3490  -27.5368   19.9965 C   0  0  0  0  0  0  0  0  0  0  0  0
  -22.1751  -31.4578   23.1048 C   0  0  0  0  0  0  0  0  0  0  0  0
  -24.6495  -26.3226   20.6300 C   0  0  0  0  0  0  0  0  0  0  0  0
  -25.2943  -12.6424   21.1891 C   0  0  0  0  0  0  0  0  0  0  0  0
  -27.0209  -26.7701   20.3357 C   0  0  0  0  0  0  0  0  0  0  0  0
  -23.2868  -11.5136   20.7219 C   0  0  0  0  0  0  0  0  0  0  0  0
  -20.8765  -11.3934   19.3225 C   0  0  0  0  0  0  0  0  0  0  0  0
  -22.3413  -12.5279   20.8730 C   0  0  0  0  0  0  0  0  0  0  0  0
  -27.8122  -15.9683   20.4846 C   0  0  0  0  0  0  0  0  0  0  0  0
  -31.4090  -23.8064   18.2619 C   0  0  0  0  0  0  0  0  0  0  0  0
  -29.5400  -17.2713   20.0951 C   0  0  0  0  0  0  0  0  0  0  0  0
  -30.9215  -24.2152   20.3822 C   0  0  0  0  0  0  0  0  0  0  0  0
  -30.1121  -14.8425   20.2436 C   0  0  0  0  0  0  0  0  0  0  0  0
  -22.0249  -27.8955   22.1351 C   0  0  0  0  0  0  0  0  0  0  0  0
  -21.0823  -24.9992   21.0194 C   0  0  0  0  0  0  0  0  0  0  0  0
  -21.9255  -22.0747   19.4757 C   0  0  0  0  0  0  0  0  0  0  0  0
  -28.5686  -22.2753   17.8230 C   0  0  0  0  0  0  0  0  0  0  0  0
  -19.7974  -32.2772   23.5122 C   0  0  0  0  0  0  0  0  0  0  0  0
  -22.9189  -27.9487   19.7785 C   0  0  0  0  0  0  0  0  0  0  0  0
  -23.5691  -25.4065   21.1419 C   0  0  0  0  0  0  0  0  0  0  0  0
  -19.3745  -30.8121   23.4431 C   0  0  0  0  0  0  0  0  0  0  0  0
  -26.8414  -21.4853   20.8346 C   0  0  0  0  0  0  0  0  0  0  0  0
  -20.4198  -29.9228   24.1090 C   0  0  0  0  0  0  0  0  0  0  0  0
  -27.0496  -19.9779   20.9910 C   0  0  0  0  0  0  0  0  0  0  0  0
  -26.6738  -21.8828   19.3697 C   0  0  0  0  0  0  0  0  0  0  0  0
  -27.9606  -19.9147   18.6320 C   0  0  0  0  0  0  0  0  0  0  0  0
  -21.7711  -30.0280   23.3918 C   0  0  1  0  0  0  0  0  0  0  0  0
  -21.9522  -27.2939   20.7602 C   0  0  1  0  0  0  0  0  0  0  0  0
  -28.1904  -19.4727   20.0874 C   0  0  2  0  0  0  0  0  0  0  0  0
  -30.6330  -24.0088   21.8234 C   0  0  0  0  0  0  0  0  0  0  0  0
  -20.9489  -19.8841   18.7373 C   0  0  0  0  0  0  0  0  0  0  0  0
  -21.1014  -24.0194   23.9090 C   0  0  0  0  0  0  0  0  0  0  0  0
  -21.0613  -21.6718   23.0400 C   0  0  0  0  0  0  0  0  0  0  0  0
  -19.1641  -23.2148   22.5474 C   0  0  0  0  0  0  0  0  0  0  0  0
  -22.5666  -22.6132   16.6370 C   0  0  0  0  0  0  0  0  0  0  0  0
  -31.7311  -22.9889   17.0895 C   0  0  0  0  0  0  0  0  0  0  0  0
  -30.7035  -26.7364   20.3431 C   0  0  0  0  0  0  0  0  0  0  0  0
  -30.5028  -22.5095   16.2859 C   0  0  0  0  0  0  0  0  0  0  0  0
  -29.3199  -27.2788   20.0019 C   0  0  0  0  0  0  0  0  0  1  0  0
  -21.3807  -23.5647   21.3829 C   0  0  1  0  0  0  0  0  0  0  0  0
  -21.2746  -21.3139   18.3345 C   0  0  2  0  0  0  0  0  0  0  0  0
  -20.6975  -23.1356   22.7120 C   0  0  0  0  0  0  0  0  0  0  0  0
  -27.2991  -17.2008   20.4433 N   0  0  0  0  0  0  0  0  0  0  0  0
  -30.9562  -25.3810   19.7287 N   0  0  0  0  0  0  0  0  0  0  0  0
  -28.3744  -17.9709   20.2050 N   0  0  0  0  0  0  0  0  0  0  0  0
  -31.1955  -23.2491   19.4996 N   0  3  0  0  0  0  0  0  0  0  0  0
  -22.1865  -25.8562   20.9103 N   0  0  0  0  0  0  0  0  0  0  0  0
  -27.7891  -21.3746   18.5675 N   0  0  0  0  0  0  0  0  0  0  0  0
  -30.7158  -17.8900   19.8558 N   0  0  0  0  0  0  0  0  0  0  0  0
  -29.5998  -13.5538   20.4466 N   0  0  0  0  0  0  0  0  0  0  0  0
  -21.7573  -29.2507   22.1711 N   0  0  0  0  0  0  0  0  0  0  0  0
  -20.9958  -22.7621   20.2270 N   0  0  0  0  0  0  0  0  0  0  0  0
  -29.6095  -21.7114   17.0957 N   0  0  0  0  0  0  0  0  0  0  0  0
  -22.1831  -21.2742   17.1538 N   0  3  0  0  0  0  0  0  0  0  0  0
  -31.3438  -14.9915   20.0585 O   0  0  0  0  0  0  0  0  0  0  0  0
  -22.3018  -27.1827   23.0927 O   0  0  0  0  0  0  0  0  0  0  0  0
  -19.9131  -25.3448   20.8320 O   0  0  0  0  0  0  0  0  0  0  0  0
  -23.1369  -22.0576   19.6823 O   0  0  0  0  0  0  0  0  0  0  0  0
  -28.3560  -23.4925   17.8119 O   0  0  0  0  0  0  0  0  0  0  0  0
  -24.4842  -11.5722   21.4152 O   0  0  0  0  0  0  0  0  0  0  0  0
  -28.3182  -26.3965   20.5063 O   0  0  0  0  0  0  0  0  0  1  0  0
  -19.7198  -11.3363   18.6494 F   0  0  0  0  0  0  0  0  0  0  0  0
  -22.5857  -13.5632   21.6881 F   0  0  0  0  0  0  0  0  0  0  0  0
  1  2  1  0  0  0  0
  1  5  2  0  0  0  0
  2  6  2  0  0  0  0
  3  8  2  0  0  0  0
  3 16  1  0  0  0  0
  4  9  1  0  0  0  0
  4 16  2  0  0  0  0
  5 18  1  0  0  0  0
  6 20  1  0  0  0  0
  7 10  2  0  0  0  0
  7 19  1  0  0  0  0
  8 22  1  0  0  0  0
  9 22  2  0  0  0  0
 10 23  1  0  0  0  0
 11 12  2  0  0  0  0
 11 24  1  0  0  0  0
 12 25  1  0  0  0  0
 13 21  1  0  0  0  0
 13 23  2  0  0  0  0
 14 25  2  0  0  0  0
 14 26  1  0  0  0  0
 15 28  2  0  0  0  0
 15 62  1  0  0  0  0
 16 27  1  0  0  0  0
 17 27  1  0  0  0  0
 17 29  2  0  0  0  0
 17 31  1  0  0  0  0
 18 20  2  0  0  0  0
 18 36  1  0  0  0  0
 19 21  2  0  0  0  0
 19 37  1  0  0  0  0
 20 45  1  0  0  0  0
 21 38  1  0  0  0  0
 22 78  1  0  0  0  0
 23 79  1  0  0  0  0
 24 26  2  0  0  0  0
 24 78  1  0  0  0  0
 25 80  1  0  0  0  0
 26 81  1  0  0  0  0
 27 61  2  0  0  0  0
 28 54  1  0  0  0  0
 28 64  1  0  0  0  0
 29 63  1  0  0  0  0
 29 67  1  0  0  0  0
 30 48  1  0  0  0  0
 30 62  1  0  0  0  0
 30 64  2  0  0  0  0
 31 68  1  0  0  0  0
 31 73  2  0  0  0  0
 32 46  1  0  0  0  0
 32 69  1  0  0  0  0
 32 74  2  0  0  0  0
 33 58  1  0  0  0  0
 33 65  1  0  0  0  0
 33 75  2  0  0  0  0
 34 59  1  0  0  0  0
 34 70  1  0  0  0  0
 34 76  2  0  0  0  0
 35 66  1  0  0  0  0
 35 71  1  0  0  0  0
 35 77  2  0  0  0  0
 36 39  1  0  0  0  0
 37 46  1  0  0  0  0
 38 65  1  0  0  0  0
 39 41  1  0  0  0  0
 40 42  1  0  0  0  0
 40 43  1  0  0  0  0
 41 45  1  0  0  0  0
 42 47  1  0  0  0  0
 43 66  1  0  0  0  0
 44 47  1  0  0  0  0
 44 66  1  0  0  0  0
 45 69  1  0  0  0  0
 46 65  1  0  0  0  0
 47 63  1  0  0  0  0
 49 59  1  0  0  0  0
 50 60  1  0  0  0  0
 51 60  1  0  0  0  0
 52 60  1  0  0  0  0
 53 72  1  0  0  0  0
 54 56  1  0  0  0  0
 55 57  1  0  0  0  0
 55 62  1  0  0  0  0
 56 71  1  0  0  0  0
 57 79  1  0  0  0  0
 58 60  1  0  0  0  0
 58 70  1  0  0  0  0
 59 72  1  0  0  0  0
 61 63  1  0  0  0  0
M  CHG  2  64   1  72   1
M  ISO  4  35 100  57 101  71 100  79 101
M  END
> <Batch ID>
0047

> <Smiles>
CNC(C)C(=O)NC(C(=O)N1Cc2cc([101O:1][101CH2:1]Cn3cc(CC[100NH:0][100C:0](=O)N4CCCC(n5nc(-c6ccc(Oc7ccc(F)cc7F)cc6)c(C(N)=O)c5N)C4)nc3C)ccc2CC1C(=O)NC1CCCc2ccccc21)C(C)(C)C

> <Shape>
0.242

> <Color>
0.072

> <Negative vol penalty>
0.000

$$$$

  -OEChem-04052317243D

 82 90  0     1  0  0  0  0  0999 V2000
  -31.1231  -31.7251   11.0476 C   0  0  0  0  0  0  0  0  0  0  0  0
  -30.8758  -30.4879   11.6337 C   0  0  0  0  0  0  0  0  0  0  0  0
  -23.0817   -9.8432   19.8825 C   0  0  0  0  0  0  0  0  0  0  0  0
  -23.8829   -9.7437   22.1596 C   0  0  0  0  0  0  0  0  0  0  0  0
  -31.2922  -32.8535   11.8489 C   0  0  0  0  0  0  0  0  0  0  0  0
  -30.7985  -30.3783   13.0217 C   0  0  0  0  0  0  0  0  0  0  0  0
  -27.1696  -26.6234   16.2214 C   0  0  0  0  0  0  0  0  0  0  0  0
  -22.3643   -8.6639   20.0833 C   0  0  0  0  0  0  0  0  0  0  0  0
  -23.1655   -8.5645   22.3605 C   0  0  0  0  0  0  0  0  0  0  0  0
  -27.3981  -25.3885   16.8267 C   0  0  0  0  0  0  0  0  0  0  0  0
  -19.9645   -7.6721   22.9749 C   0  0  0  0  0  0  0  0  0  0  0  0
  -19.2298   -7.5553   24.1548 C   0  0  0  0  0  0  0  0  0  0  0  0
  -27.7969  -26.5001   18.9301 C   0  0  0  0  0  0  0  0  0  0  0  0
  -20.5207   -5.6065   24.7656 C   0  0  0  0  0  0  0  0  0  0  0  0
  -23.8410  -10.3831   20.9206 C   0  0  0  0  0  0  0  0  0  0  0  0
  -24.1329  -12.9173   20.9294 C   0  0  0  0  0  0  0  0  0  0  0  0
  -31.2073  -32.7594   13.2469 C   0  0  0  0  0  0  0  0  0  0  0  0
  -27.2638  -27.8088   16.9647 C   0  0  0  0  0  0  0  0  0  0  0  0
  -30.9679  -31.5062   13.8425 C   0  0  0  0  0  0  0  0  0  0  0  0
  -27.5665  -27.7486   18.3325 C   0  0  0  0  0  0  0  0  0  0  0  0
  -22.4062   -8.0245   21.3223 C   0  0  0  0  0  0  0  0  0  0  0  0
  -27.7147  -25.3269   18.1806 C   0  0  0  0  0  0  0  0  0  0  0  0
  -20.9772   -6.7561   22.6903 C   0  0  0  0  0  0  0  0  0  0  0  0
  -19.5080   -6.5225   25.0502 C   0  0  0  0  0  0  0  0  0  0  0  0
  -21.2554   -5.7233   23.5856 C   0  0  0  0  0  0  0  0  0  0  0  0
  -24.5827  -11.6009   20.7135 C   0  0  0  0  0  0  0  0  0  0  0  0
  -27.2966  -19.9238   19.8675 C   0  0  0  0  0  0  0  0  0  0  0  0
  -28.5779  -19.6203   20.2502 C   0  0  0  0  0  0  0  0  0  0  0  0
  -25.2040  -13.7064   20.5879 C   0  0  0  0  0  0  0  0  0  0  0  0
  -28.0844  -21.7431   18.7862 C   0  0  0  0  0  0  0  0  0  0  0  0
  -22.8608  -13.3850   21.3970 C   0  0  0  0  0  0  0  0  0  0  0  0
  -29.1017  -30.3988   16.8331 C   0  0  0  0  0  0  0  0  0  0  0  0
  -27.1114  -31.4532   19.1675 C   0  0  0  0  0  0  0  0  0  0  0  0
  -24.9344  -30.6895   21.6823 C   0  0  0  0  0  0  0  0  0  0  0  0
  -30.6700  -14.8224   20.7362 C   0  0  0  0  0  0  0  0  0  0  0  0
  -31.4439  -33.9984   14.0737 C   0  0  0  0  0  0  0  0  0  0  0  0
  -26.9881  -29.1311   16.3029 C   0  0  0  0  0  0  0  0  0  0  0  0
  -27.6599  -28.9906   19.1793 C   0  0  0  0  0  0  0  0  0  0  0  0
  -30.9748  -33.8643   15.5201 C   0  0  0  0  0  0  0  0  0  0  0  0
  -29.5344  -12.5456   18.2456 C   0  0  0  0  0  0  0  0  0  0  0  0
  -31.4432  -32.5390   16.1126 C   0  0  0  0  0  0  0  0  0  0  0  0
  -28.1108  -12.2010   18.6869 C   0  0  0  0  0  0  0  0  0  0  0  0
  -30.4689  -12.7206   19.4406 C   0  0  0  0  0  0  0  0  0  0  0  0
  -28.5792  -13.3395   20.8967 C   0  0  0  0  0  0  0  0  0  0  0  0
  -30.8522  -31.3513   15.3434 C   0  0  1  0  0  0  0  0  0  0  0  0
  -27.6161  -30.3103   17.0394 C   0  0  1  0  0  0  0  0  0  0  0  0
  -27.5872  -13.2082   19.7283 C   0  0  2  0  0  0  0  0  0  0  0  0
  -26.1432  -19.0675   20.2642 C   0  0  0  0  0  0  0  0  0  0  0  0
  -23.4957  -31.7628   23.4360 C   0  0  0  0  0  0  0  0  0  0  0  0
  -29.5908  -32.0126   20.8556 C   0  0  0  0  0  0  0  0  0  0  0  0
  -28.1038  -32.1632   22.8642 C   0  0  0  0  0  0  0  0  0  0  0  0
  -27.8225  -33.7766   20.9826 C   0  0  0  0  0  0  0  0  0  0  0  0
  -22.4650  -29.5386   20.5262 C   0  0  0  0  0  0  0  0  0  0  0  0
  -28.8937  -18.4255   21.0796 C   0  0  0  0  0  0  0  0  0  0  0  0
  -27.8332  -22.9629   17.9494 C   0  0  0  0  0  0  0  0  0  1  0  0
  -30.3982  -18.1029   21.1924 C   0  0  0  0  0  0  0  0  0  0  0  0
  -30.7178  -16.9053   22.0846 C   0  0  0  0  0  0  0  0  0  0  0  0
  -27.0955  -31.3747   20.6750 C   0  0  1  0  0  0  0  0  0  0  0  0
  -23.5529  -31.2232   22.0153 C   0  0  2  0  0  0  0  0  0  0  0  0
  -28.1534  -32.3083   21.3282 C   0  0  0  0  0  0  0  0  0  0  0  0
  -25.8413  -11.5524   20.2690 N   0  0  0  0  0  0  0  0  0  0  0  0
  -27.0173  -21.0020   19.1195 N   0  0  0  0  0  0  0  0  0  0  0  0
  -29.6100  -20.4023   19.8851 N   0  0  0  0  0  0  0  0  0  0  0  0
  -29.3628  -21.4947   19.1328 N   0  0  0  0  0  0  0  0  0  0  0  0
  -26.1915  -12.8482   20.2029 N   0  0  0  0  0  0  0  0  0  0  0  0
  -27.3879  -30.2601   18.4850 N   0  0  0  0  0  0  0  0  0  0  0  0
  -29.9152  -13.6897   20.3895 N   0  0  0  0  0  0  0  0  0  0  0  0
  -25.3879  -15.0438   20.5824 N   0  0  0  0  0  0  0  0  0  0  0  0
  -21.8725  -12.4393   21.7026 N   0  0  0  0  0  0  0  0  0  0  0  0
  -29.4730  -31.1374   15.7258 N   0  0  0  0  0  0  0  0  0  0  0  0
  -25.7222  -31.6498   21.0835 N   0  0  0  0  0  0  0  0  0  0  0  0
  -30.0689  -15.6933   21.6367 N   0  0  0  0  0  0  0  0  0  0  0  0
  -22.5343  -30.1436   21.8813 N   0  3  0  0  0  0  0  0  0  0  0  0
  -22.6024  -14.6059   21.5239 O   0  0  0  0  0  0  0  0  0  0  0  0
  -29.8555  -29.8397   17.6211 O   0  0  0  0  0  0  0  0  0  0  0  0
  -26.8797  -32.5319   18.6156 O   0  0  0  0  0  0  0  0  0  0  0  0
  -25.2813  -29.5372   21.9319 O   0  0  0  0  0  0  0  0  0  0  0  0
  -31.7940  -15.0441   20.2731 O   0  0  0  0  0  0  0  0  0  0  0  0
  -21.7062   -6.8739   21.5188 O   0  0  0  0  0  0  0  0  0  0  0  0
  -27.9389  -24.1228   18.7738 O   0  0  0  0  0  0  0  0  0  1  0  0
  -18.8034   -6.4113   26.1840 F   0  0  0  0  0  0  0  0  0  0  0  0
  -22.2279   -4.8410   23.3182 F   0  0  0  0  0  0  0  0  0  0  0  0
  1  2  1  0  0  0  0
  1  5  2  0  0  0  0
  2  6  2  0  0  0  0
  3  8  2  0  0  0  0
  3 15  1  0  0  0  0
  4  9  1  0  0  0  0
  4 15  2  0  0  0  0
  5 17  1  0  0  0  0
  6 19  1  0  0  0  0
  7 10  2  0  0  0  0
  7 18  1  0  0  0  0
  8 21  1  0  0  0  0
  9 21  2  0  0  0  0
 10 22  1  0  0  0  0
 11 12  2  0  0  0  0
 11 23  1  0  0  0  0
 12 24  1  0  0  0  0
 13 20  1  0  0  0  0
 13 22  2  0  0  0  0
 14 24  2  0  0  0  0
 14 25  1  0  0  0  0
 15 26  1  0  0  0  0
 16 26  1  0  0  0  0
 16 29  2  0  0  0  0
 16 31  1  0  0  0  0
 17 19  2  0  0  0  0
 17 36  1  0  0  0  0
 18 20  2  0  0  0  0
 18 37  1  0  0  0  0
 19 45  1  0  0  0  0
 20 38  1  0  0  0  0
 21 79  1  0  0  0  0
 22 80  1  0  0  0  0
 23 25  2  0  0  0  0
 23 79  1  0  0  0  0
 24 81  1  0  0  0  0
 25 82  1  0  0  0  0
 26 61  2  0  0  0  0
 27 28  2  0  0  0  0
 27 48  1  0  0  0  0
 27 62  1  0  0  0  0
 28 54  1  0  0  0  0
 28 63  1  0  0  0  0
 29 65  1  0  0  0  0
 29 68  1  0  0  0  0
 30 55  1  0  0  0  0
 30 62  2  0  0  0  0
 30 64  1  0  0  0  0
 31 69  1  0  0  0  0
 31 74  2  0  0  0  0
 32 46  1  0  0  0  0
 32 70  1  0  0  0  0
 32 75  2  0  0  0  0
 33 58  1  0  0  0  0
 33 66  1  0  0  0  0
 33 76  2  0  0  0  0
 34 59  1  0  0  0  0
 34 71  1  0  0  0  0
 34 77  2  0  0  0  0
 35 67  1  0  0  0  0
 35 72  1  0  0  0  0
 35 78  2  0  0  0  0
 36 39  1  0  0  0  0
 37 46  1  0  0  0  0
 38 66  1  0  0  0  0
 39 41  1  0  0  0  0
 40 42  1  0  0  0  0
 40 43  1  0  0  0  0
 41 45  1  0  0  0  0
 42 47  1  0  0  0  0
 43 67  1  0  0  0  0
 44 47  1  0  0  0  0
 44 67  1  0  0  0  0
 45 70  1  0  0  0  0
 46 66  1  0  0  0  0
 47 65  1  0  0  0  0
 49 59  1  0  0  0  0
 50 60  1  0  0  0  0
 51 60  1  0  0  0  0
 52 60  1  0  0  0  0
 53 73  1  0  0  0  0
 54 56  1  0  0  0  0
 55 80  1  0  0  0  0
 56 57  1  0  0  0  0
 57 72  1  0  0  0  0
 58 60  1  0  0  0  0
 58 71  1  0  0  0  0
 59 73  1  0  0  0  0
 61 65  1  0  0  0  0
 63 64  2  0  0  0  0
M  CHG  1  73   1
M  ISO  4  35 100  55 101  72 100  80 101
M  END
> <Batch ID>
0047

> <Smiles>
CNC(C)C(=O)NC(C(=O)N1Cc2cc([101O:1][101CH2:1]c3nnc(CCC[100NH:0][100C:0](=O)N4CCCC(n5nc(-c6ccc(Oc7ccc(F)cc7F)cc6)c(C(N)=O)c5N)C4)c(C)n3)ccc2CC1C(=O)NC1CCCc2ccccc21)C(C)(C)C

> <Shape>
0.280

> <Color>
0.216

> <Negative vol penalty>
0.000

$$$$

  -OEChem-04052317243D

 81 89  0     1  0  0  0  0  0999 V2000
  -21.4876  -12.5135   20.5498 C   0  0  0  0  0  0  0  0  0  0  0  0
  -21.6493  -13.6357   21.3558 C   0  0  0  0  0  0  0  0  0  0  0  0
  -25.8269  -26.3230   20.2904 C   0  0  0  0  0  0  0  0  0  0  0  0
  -25.0756  -28.6108   20.0937 C   0  0  0  0  0  0  0  0  0  0  0  0
  -22.6045  -11.8793   20.0074 C   0  0  0  0  0  0  0  0  0  0  0  0
  -22.9283  -14.1239   21.6209 C   0  0  0  0  0  0  0  0  0  0  0  0
  -23.2120  -19.1620   21.1936 C   0  0  0  0  0  0  0  0  0  0  0  0
  -27.1515  -26.7595   20.3085 C   0  0  0  0  0  0  0  0  0  0  0  0
  -26.4003  -29.0474   20.1118 C   0  0  0  0  0  0  0  0  0  0  0  0
  -22.7114  -19.9199   22.2513 C   0  0  0  0  0  0  0  0  0  0  0  0
  -29.4624  -27.7976   18.0709 C   0  0  0  0  0  0  0  0  0  0  0  0
  -30.3816  -27.1095   17.2790 C   0  0  0  0  0  0  0  0  0  0  0  0
  -24.9549  -20.2342   23.0800 C   0  0  0  0  0  0  0  0  0  0  0  0
  -31.6653  -26.5563   19.2496 C   0  0  0  0  0  0  0  0  0  0  0  0
  -22.7479  -23.7114   26.1345 C   0  0  0  0  0  0  0  0  0  0  0  0
  -24.7889  -27.2487   20.1829 C   0  0  0  0  0  0  0  0  0  0  0  0
  -22.8242  -25.9304   19.2292 C   0  0  0  0  0  0  0  0  0  0  0  0
  -23.8973  -12.3657   20.2580 C   0  0  0  0  0  0  0  0  0  0  0  0
  -24.5892  -18.9249   21.0771 C   0  0  0  0  0  0  0  0  0  0  0  0
  -24.0637  -13.4949   21.0824 C   0  0  0  0  0  0  0  0  0  0  0  0
  -25.4707  -19.4751   22.0185 C   0  0  0  0  0  0  0  0  0  0  0  0
  -23.3178  -22.4657   26.2342 C   0  0  0  0  0  0  0  0  0  0  0  0
  -27.4383  -28.1217   20.2193 C   0  0  0  0  0  0  0  0  0  0  0  0
  -23.5826  -20.4537   23.1963 C   0  0  0  0  0  0  0  0  0  0  0  0
  -29.6446  -27.8651   19.4522 C   0  0  0  0  0  0  0  0  0  0  0  0
  -31.4830  -26.4889   17.8683 C   0  0  0  0  0  0  0  0  0  0  0  0
  -30.7461  -27.2445   20.0416 C   0  0  0  0  0  0  0  0  0  0  0  0
  -23.4204  -26.7984   20.1635 C   0  0  0  0  0  0  0  0  0  0  0  0
  -23.0637  -22.0676   27.5604 C   0  0  0  0  0  0  0  0  0  0  0  0
  -21.5208  -25.8183   19.6477 C   0  0  0  0  0  0  0  0  0  0  0  0
  -23.3973  -25.2832   18.0854 C   0  0  0  0  0  0  0  0  0  0  0  0
  -26.4293  -16.3333   21.1030 C   0  0  0  0  0  0  0  0  0  0  0  0
  -28.7635  -18.4594   20.3590 C   0  0  0  0  0  0  0  0  0  0  0  0
  -29.8761  -21.6848   20.4349 C   0  0  0  0  0  0  0  0  0  0  0  0
  -18.8783  -26.4859   24.9789 C   0  0  0  0  0  0  0  0  0  0  0  0
  -25.0771  -11.6186   19.6883 C   0  0  0  0  0  0  0  0  0  0  0  0
  -25.1157  -18.1277   19.9154 C   0  0  0  0  0  0  0  0  0  0  0  0
  -26.9596  -19.2669   21.9272 C   0  0  0  0  0  0  0  0  0  0  0  0
  -26.3754  -12.4213   19.7119 C   0  0  0  0  0  0  0  0  0  0  0  0
  -18.1143  -28.2400   21.9762 C   0  0  0  0  0  0  0  0  0  0  0  0
  -26.5690  -13.0834   21.0724 C   0  0  0  0  0  0  0  0  0  0  0  0
  -19.3338  -27.9911   21.0869 C   0  0  0  0  0  0  0  0  0  0  0  0
  -18.5081  -28.3943   23.4436 C   0  0  0  0  0  0  0  0  0  0  0  0
  -20.5372  -27.0391   23.0979 C   0  0  0  0  0  0  0  0  0  0  0  0
  -25.4334  -14.0692   21.3728 C   0  0  1  0  0  0  0  0  0  0  0  0
  -26.4890  -17.5190   20.1819 C   0  0  1  0  0  0  0  0  0  0  0  0
  -20.1846  -26.8211   21.6165 C   0  0  2  0  0  0  0  0  0  0  0  0
  -23.4540  -20.8067   28.2153 C   0  0  0  0  0  0  0  0  0  0  0  0
  -31.8377  -23.1078   19.7834 C   0  0  0  0  0  0  0  0  0  0  0  0
  -30.3393  -17.3703   22.7340 C   0  0  0  0  0  0  0  0  0  0  0  0
  -31.7915  -19.4062   22.6150 C   0  0  0  0  0  0  0  0  0  0  0  0
  -31.7097  -17.8205   20.6910 C   0  0  0  0  0  0  0  0  0  0  0  0
  -28.2230  -23.3356   18.6180 C   0  0  0  0  0  0  0  0  0  0  0  0
  -24.0459  -21.7098   25.1619 C   0  0  0  0  0  0  0  0  0  1  0  0
  -19.9726  -25.0134   27.7499 C   0  0  0  0  0  0  0  0  0  0  0  0
  -21.4992  -25.1702   27.7444 C   0  0  0  0  0  0  0  0  0  0  0  0
  -19.3794  -24.5336   26.4269 C   0  0  0  0  0  0  0  0  0  0  0  0
  -29.7228  -19.3146   21.1511 C   0  0  1  0  0  0  0  0  0  0  0  0
  -30.4814  -22.5671   19.3581 C   0  0  2  0  0  0  0  0  0  0  0  0
  -30.8627  -18.4804   21.8009 C   0  0  0  0  0  0  0  0  0  0  0  0
  -22.5658  -27.2087   21.1045 N   0  0  0  0  0  0  0  0  0  0  0  0
  -22.3853  -22.9859   28.2535 N   0  0  0  0  0  0  0  0  0  0  0  0
  -22.2083  -23.9736   27.3594 N   0  0  0  0  0  0  0  0  0  0  0  0
  -21.4194  -26.5959   20.7635 N   0  0  0  0  0  0  0  0  0  0  0  0
  -27.4252  -18.4749   20.7767 N   0  0  0  0  0  0  0  0  0  0  0  0
  -19.3117  -27.2515   23.8839 N   0  0  0  0  0  0  0  0  0  0  0  0
  -20.4630  -25.1315   19.1662 N   0  0  0  0  0  0  0  0  0  0  0  0
  -23.9723  -24.0161   18.2529 N   0  0  0  0  0  0  0  0  0  0  0  0
  -25.6299  -15.3039   20.6439 N   0  0  0  0  0  0  0  0  0  0  0  0
  -30.1882  -20.3558   20.2414 N   0  0  0  0  0  0  0  0  0  0  0  0
  -19.6952  -25.4170   25.3266 N   0  0  0  0  0  0  0  0  0  0  0  0
  -29.5845  -23.7219   19.0698 N   0  3  0  0  0  0  0  0  0  0  0  0
  -23.4142  -25.8200   16.9517 O   0  0  0  0  0  0  0  0  0  0  0  0
  -27.0629  -16.3504   22.1517 O   0  0  0  0  0  0  0  0  0  0  0  0
  -29.1849  -17.8073   19.4004 O   0  0  0  0  0  0  0  0  0  0  0  0
  -29.1975  -22.1305   21.3576 O   0  0  0  0  0  0  0  0  0  0  0  0
  -17.8375  -26.7332   25.5974 O   0  0  0  0  0  0  0  0  0  0  0  0
  -28.7307  -28.5480   20.2372 O   0  0  0  0  0  0  0  0  0  0  0  0
  -23.0965  -21.1933   24.2301 O   0  0  0  0  0  0  0  0  0  1  0  0
  -32.3649  -25.8268   17.1079 F   0  0  0  0  0  0  0  0  0  0  0  0
  -30.9258  -27.3049   21.3682 F   0  0  0  0  0  0  0  0  0  0  0  0
  1  2  1  0  0  0  0
  1  5  2  0  0  0  0
  2  6  2  0  0  0  0
  3  8  2  0  0  0  0
  3 16  1  0  0  0  0
  4  9  1  0  0  0  0
  4 16  2  0  0  0  0
  5 18  1  0  0  0  0
  6 20  1  0  0  0  0
  7 10  2  0  0  0  0
  7 19  1  0  0  0  0
  8 23  1  0  0  0  0
  9 23  2  0  0  0  0
 10 24  1  0  0  0  0
 11 12  2  0  0  0  0
 11 25  1  0  0  0  0
 12 26  1  0  0  0  0
 13 21  1  0  0  0  0
 13 24  2  0  0  0  0
 14 26  2  0  0  0  0
 14 27  1  0  0  0  0
 15 22  2  0  0  0  0
 15 63  1  0  0  0  0
 16 28  1  0  0  0  0
 17 28  1  0  0  0  0
 17 30  2  0  0  0  0
 17 31  1  0  0  0  0
 18 20  2  0  0  0  0
 18 36  1  0  0  0  0
 19 21  2  0  0  0  0
 19 37  1  0  0  0  0
 20 45  1  0  0  0  0
 21 38  1  0  0  0  0
 22 29  1  0  0  0  0
 22 54  1  0  0  0  0
 23 78  1  0  0  0  0
 24 79  1  0  0  0  0
 25 27  2  0  0  0  0
 25 78  1  0  0  0  0
 26 80  1  0  0  0  0
 27 81  1  0  0  0  0
 28 61  2  0  0  0  0
 29 48  1  0  0  0  0
 29 62  2  0  0  0  0
 30 64  1  0  0  0  0
 30 67  1  0  0  0  0
 31 68  1  0  0  0  0
 31 73  2  0  0  0  0
 32 46  1  0  0  0  0
 32 69  1  0  0  0  0
 32 74  2  0  0  0  0
 33 58  1  0  0  0  0
 33 65  1  0  0  0  0
 33 75  2  0  0  0  0
 34 59  1  0  0  0  0
 34 70  1  0  0  0  0
 34 76  2  0  0  0  0
 35 66  1  0  0  0  0
 35 71  1  0  0  0  0
 35 77  2  0  0  0  0
 36 39  1  0  0  0  0
 37 46  1  0  0  0  0
 38 65  1  0  0  0  0
 39 41  1  0  0  0  0
 40 42  1  0  0  0  0
 40 43  1  0  0  0  0
 41 45  1  0  0  0  0
 42 47  1  0  0  0  0
 43 66  1  0  0  0  0
 44 47  1  0  0  0  0
 44 66  1  0  0  0  0
 45 69  1  0  0  0  0
 46 65  1  0  0  0  0
 47 64  1  0  0  0  0
 49 59  1  0  0  0  0
 50 60  1  0  0  0  0
 51 60  1  0  0  0  0
 52 60  1  0  0  0  0
 53 72  1  0  0  0  0
 54 79  1  0  0  0  0
 55 56  1  0  0  0  0
 55 57  1  0  0  0  0
 56 63  1  0  0  0  0
 57 71  1  0  0  0  0
 58 60  1  0  0  0  0
 58 70  1  0  0  0  0
 59 72  1  0  0  0  0
 61 64  1  0  0  0  0
 62 63  1  0  0  0  0
M  CHG  1  72   1
M  ISO  4  35 100  54 101  71 100  79 101
M  END
> <Batch ID>
0047

> <Smiles>
CNC(C)C(=O)NC(C(=O)N1Cc2cc([101O:1][101CH2:1]c3cn(CCC[100NH:0][100C:0](=O)N4CCCC(n5nc(-c6ccc(Oc7ccc(F)cc7F)cc6)c(C(N)=O)c5N)C4)nc3C)ccc2CC1C(=O)NC1CCCc2ccccc21)C(C)(C)C

> <Shape>
0.221

> <Color>
0.074

> <Negative vol penalty>
0.000

$$$$

  -OEChem-04052317243D

 81 89  0     1  0  0  0  0  0999 V2000
  -20.3825  -31.3830   22.1656 C   0  0  0  0  0  0  0  0  0  0  0  0
  -21.6375  -30.7837   22.1319 C   0  0  0  0  0  0  0  0  0  0  0  0
  -26.0995  -12.9497   21.6973 C   0  0  0  0  0  0  0  0  0  0  0  0
  -26.1199  -12.6436   19.3009 C   0  0  0  0  0  0  0  0  0  0  0  0
  -19.2416  -30.5997   22.3357 C   0  0  0  0  0  0  0  0  0  0  0  0
  -21.7525  -29.4008   22.2693 C   0  0  0  0  0  0  0  0  0  0  0  0
  -24.9626  -27.3756   18.9169 C   0  0  0  0  0  0  0  0  0  0  0  0
  -24.9848  -12.1168   21.7943 C   0  0  0  0  0  0  0  0  0  0  0  0
  -25.0052  -11.8107   19.3978 C   0  0  0  0  0  0  0  0  0  0  0  0
  -26.3253  -27.5078   19.1801 C   0  0  0  0  0  0  0  0  0  0  0  0
  -21.9474   -9.8922   18.9740 C   0  0  0  0  0  0  0  0  0  0  0  0
  -20.9126  -10.0849   18.0588 C   0  0  0  0  0  0  0  0  0  0  0  0
  -26.3734  -25.2517   20.0325 C   0  0  0  0  0  0  0  0  0  0  0  0
  -20.6270  -12.3470   18.8579 C   0  0  0  0  0  0  0  0  0  0  0  0
  -30.2011  -25.0660   17.3213 C   0  0  0  0  0  0  0  0  0  0  0  0
  -31.1479  -24.4433   19.2114 C   0  0  0  0  0  0  0  0  0  0  0  0
  -26.6670  -13.2131   20.4506 C   0  0  0  0  0  0  0  0  0  0  0  0
  -29.1721  -13.6931   20.4097 C   0  0  0  0  0  0  0  0  0  0  0  0
  -19.3419  -29.2056   22.4656 C   0  0  0  0  0  0  0  0  0  0  0  0
  -24.2916  -26.1822   19.2201 C   0  0  0  0  0  0  0  0  0  0  0  0
  -20.6120  -28.5983   22.4426 C   0  0  0  0  0  0  0  0  0  0  0  0
  -25.0027  -25.1060   19.7698 C   0  0  0  0  0  0  0  0  0  0  0  0
  -24.4377  -11.5473   20.6445 C   0  0  0  0  0  0  0  0  0  0  0  0
  -27.0303  -26.4468   19.7407 C   0  0  0  0  0  0  0  0  0  0  0  0
  -22.3220  -10.9269   19.8313 C   0  0  0  0  0  0  0  0  0  0  0  0
  -20.2524  -11.3122   18.0007 C   0  0  0  0  0  0  0  0  0  0  0  0
  -21.6619  -12.1543   19.7732 C   0  0  0  0  0  0  0  0  0  0  0  0
  -27.8182  -14.0738   20.3498 C   0  0  0  0  0  0  0  0  0  0  0  0
  -30.4854  -23.7208   17.3221 C   0  0  0  0  0  0  0  0  0  0  0  0
  -29.8663  -14.8694   20.2645 C   0  0  0  0  0  0  0  0  0  0  0  0
  -29.7507  -12.3925   20.5812 C   0  0  0  0  0  0  0  0  0  0  0  0
  -21.8984  -25.3833   21.1535 C   0  0  0  0  0  0  0  0  0  0  0  0
  -22.2059  -22.4980   19.7035 C   0  0  0  0  0  0  0  0  0  0  0  0
  -24.1921  -20.3112   17.9948 C   0  0  0  0  0  0  0  0  0  0  0  0
  -28.4586  -19.9697   17.6453 C   0  0  0  0  0  0  0  0  0  0  0  0
  -18.0841  -28.4055   22.6947 C   0  0  0  0  0  0  0  0  0  0  0  0
  -22.8271  -26.0463   18.9054 C   0  0  0  0  0  0  0  0  0  0  0  0
  -24.3332  -23.7966   20.0951 C   0  0  0  0  0  0  0  0  0  0  0  0
  -18.2630  -26.9082   22.4575 C   0  0  0  0  0  0  0  0  0  0  0  0
  -29.4868  -19.5682   21.0919 C   0  0  0  0  0  0  0  0  0  0  0  0
  -19.5332  -26.4078   23.1380 C   0  0  0  0  0  0  0  0  0  0  0  0
  -29.3001  -18.0631   21.2916 C   0  0  0  0  0  0  0  0  0  0  0  0
  -28.3887  -20.1487   20.2057 C   0  0  0  0  0  0  0  0  0  0  0  0
  -28.0682  -17.9828   19.0744 C   0  0  0  0  0  0  0  0  0  0  0  0
  -20.7757  -27.0987   22.5634 C   0  0  1  0  0  0  0  0  0  0  0  0
  -22.1366  -24.9645   19.7303 C   0  0  1  0  0  0  0  0  0  0  0  0
  -29.1598  -17.3320   19.9433 C   0  0  2  0  0  0  0  0  0  0  0  0
  -24.1762  -18.0170   16.9779 C   0  0  0  0  0  0  0  0  0  0  0  0
  -31.3909  -27.8861   18.1755 C   0  0  0  0  0  0  0  0  0  0  0  0
  -22.4470  -21.2662   22.4846 C   0  0  0  0  0  0  0  0  0  0  0  0
  -23.3612  -19.1966   21.4125 C   0  0  0  0  0  0  0  0  0  0  0  0
  -21.0451  -19.9555   20.8811 C   0  0  0  0  0  0  0  0  0  0  0  0
  -24.7264  -21.3810   15.2876 C   0  0  0  0  0  0  0  0  0  0  0  0
  -30.2332  -22.7365   16.2586 C   0  0  0  0  0  0  0  0  0  0  0  0
  -28.8576  -22.0458   16.3462 C   0  0  0  0  0  0  0  0  0  0  0  0
  -29.1071  -27.4438   19.1501 C   0  0  0  0  0  0  0  0  0  1  0  0
  -23.0143  -21.2503   19.9659 C   0  0  1  0  0  0  0  0  0  0  0  0
  -23.9466  -19.5006   16.7349 C   0  0  2  0  0  0  0  0  0  0  0  0
  -30.5552  -26.9456   19.0483 C   0  0  1  0  0  0  0  0  0  0  0  0
  -22.4794  -20.4424   21.1818 C   0  0  0  0  0  0  0  0  0  0  0  0
  -31.0744  -23.3393   18.5016 N   0  0  0  0  0  0  0  0  0  0  0  0
  -27.6594  -15.3891   20.1799 N   0  0  0  0  0  0  0  0  0  0  0  0
  -30.6307  -25.5151   18.5382 N   0  0  0  0  0  0  0  0  0  0  0  0
  -28.9227  -15.8452   20.1319 N   0  0  0  0  0  0  0  0  0  0  0  0
  -22.8986  -23.7149   19.7747 N   0  0  0  0  0  0  0  0  0  0  0  0
  -28.3202  -19.4206   18.9309 N   0  0  0  0  0  0  0  0  0  0  0  0
  -31.1857  -15.1539   20.2387 N   0  0  0  0  0  0  0  0  0  0  0  0
  -28.8930  -11.2922   20.7152 N   0  0  0  0  0  0  0  0  0  0  0  0
  -21.1276  -26.5229   21.2831 N   0  0  0  0  0  0  0  0  0  0  0  0
  -23.0307  -20.5035   18.7127 N   0  0  0  0  0  0  0  0  0  0  0  0
  -28.6882  -21.3393   17.5964 N   0  0  0  0  0  0  0  0  0  0  0  0
  -24.8617  -19.9457   15.6461 N   0  3  0  0  0  0  0  0  0  0  0  0
  -30.9912  -12.2136   20.6311 O   0  0  0  0  0  0  0  0  0  0  0  0
  -22.3771  -24.7207   22.0664 O   0  0  0  0  0  0  0  0  0  0  0  0
  -21.0056  -22.3960   19.4378 O   0  0  0  0  0  0  0  0  0  0  0  0
  -25.3036  -20.7286   18.3123 O   0  0  0  0  0  0  0  0  0  0  0  0
  -28.3881  -19.2887   16.6165 O   0  0  0  0  0  0  0  0  0  0  0  0
  -23.3501  -10.7343   20.7388 O   0  0  0  0  0  0  0  0  0  0  0  0
  -28.3604  -26.5734   19.9992 O   0  0  0  0  0  0  0  0  0  1  0  0
  -19.2598  -11.4976   17.1208 F   0  0  0  0  0  0  0  0  0  0  0  0
  -22.0181  -13.1524   20.5933 F   0  0  0  0  0  0  0  0  0  0  0  0
  1  2  1  0  0  0  0
  1  5  2  0  0  0  0
  2  6  2  0  0  0  0
  3  8  2  0  0  0  0
  3 17  1  0  0  0  0
  4  9  1  0  0  0  0
  4 17  2  0  0  0  0
  5 19  1  0  0  0  0
  6 21  1  0  0  0  0
  7 10  2  0  0  0  0
  7 20  1  0  0  0  0
  8 23  1  0  0  0  0
  9 23  2  0  0  0  0
 10 24  1  0  0  0  0
 11 12  2  0  0  0  0
 11 25  1  0  0  0  0
 12 26  1  0  0  0  0
 13 22  1  0  0  0  0
 13 24  2  0  0  0  0
 14 26  2  0  0  0  0
 14 27  1  0  0  0  0
 15 29  2  0  0  0  0
 15 63  1  0  0  0  0
 16 61  2  0  0  0  0
 16 63  1  0  0  0  0
 17 28  1  0  0  0  0
 18 28  1  0  0  0  0
 18 30  2  0  0  0  0
 18 31  1  0  0  0  0
 19 21  2  0  0  0  0
 19 36  1  0  0  0  0
 20 22  2  0  0  0  0
 20 37  1  0  0  0  0
 21 45  1  0  0  0  0
 22 38  1  0  0  0  0
 23 78  1  0  0  0  0
 24 79  1  0  0  0  0
 25 27  2  0  0  0  0
 25 78  1  0  0  0  0
 26 80  1  0  0  0  0
 27 81  1  0  0  0  0
 28 62  2  0  0  0  0
 29 54  1  0  0  0  0
 29 61  1  0  0  0  0
 30 64  1  0  0  0  0
 30 67  1  0  0  0  0
 31 68  1  0  0  0  0
 31 73  2  0  0  0  0
 32 46  1  0  0  0  0
 32 69  1  0  0  0  0
 32 74  2  0  0  0  0
 33 57  1  0  0  0  0
 33 65  1  0  0  0  0
 33 75  2  0  0  0  0
 34 58  1  0  0  0  0
 34 70  1  0  0  0  0
 34 76  2  0  0  0  0
 35 66  1  0  0  0  0
 35 71  1  0  0  0  0
 35 77  2  0  0  0  0
 36 39  1  0  0  0  0
 37 46  1  0  0  0  0
 38 65  1  0  0  0  0
 39 41  1  0  0  0  0
 40 42  1  0  0  0  0
 40 43  1  0  0  0  0
 41 45  1  0  0  0  0
 42 47  1  0  0  0  0
 43 66  1  0  0  0  0
 44 47  1  0  0  0  0
 44 66  1  0  0  0  0
 45 69  1  0  0  0  0
 46 65  1  0  0  0  0
 47 64  1  0  0  0  0
 48 58  1  0  0  0  0
 49 59  1  0  0  0  0
 50 60  1  0  0  0  0
 51 60  1  0  0  0  0
 52 60  1  0  0  0  0
 53 72  1  0  0  0  0
 54 55  1  0  0  0  0
 55 71  1  0  0  0  0
 56 59  1  0  0  0  0
 56 79  1  0  0  0  0
 57 60  1  0  0  0  0
 57 70  1  0  0  0  0
 58 72  1  0  0  0  0
 59 63  1  0  0  0  0
 62 64  1  0  0  0  0
M  CHG  1  72   1
M  ISO  4  35 100  56 101  71 100  79 101
M  END
> <Batch ID>
0047

> <Smiles>
CNC(C)C(=O)NC(C(=O)N1Cc2cc([101O:1][101CH2:1]C(C)n3cnc(CC[100NH:0][100C:0](=O)N4CCCC(n5nc(-c6ccc(Oc7ccc(F)cc7F)cc6)c(C(N)=O)c5N)C4)c3)ccc2CC1C(=O)NC1CCCc2ccccc21)C(C)(C)C

> <Shape>
0.254

> <Color>
0.064

> <Negative vol penalty>
0.000

$$$$

  -OEChem-04052317243D

 81 89  0     1  0  0  0  0  0999 V2000
  -18.7938  -33.0300   19.7255 C   0  0  0  0  0  0  0  0  0  0  0  0
  -19.9423  -32.3425   19.3463 C   0  0  0  0  0  0  0  0  0  0  0  0
  -27.1748  -13.7504   21.9955 C   0  0  0  0  0  0  0  0  0  0  0  0
  -26.5916  -14.1061   19.6781 C   0  0  0  0  0  0  0  0  0  0  0  0
  -18.4226  -33.0773   21.0685 C   0  0  0  0  0  0  0  0  0  0  0  0
  -20.7209  -31.7029   20.3102 C   0  0  0  0  0  0  0  0  0  0  0  0
  -22.1313  -27.0500   18.8938 C   0  0  0  0  0  0  0  0  0  0  0  0
  -26.3040  -12.6621   22.0476 C   0  0  0  0  0  0  0  0  0  0  0  0
  -25.7208  -13.0177   19.7302 C   0  0  0  0  0  0  0  0  0  0  0  0
  -23.1863  -26.9527   17.9875 C   0  0  0  0  0  0  0  0  0  0  0  0
  -23.0746  -10.5548   19.3533 C   0  0  0  0  0  0  0  0  0  0  0  0
  -21.8110  -10.7077   18.7829 C   0  0  0  0  0  0  0  0  0  0  0  0
  -24.6933  -26.4555   19.8043 C   0  0  0  0  0  0  0  0  0  0  0  0
  -30.3919  -25.5843   16.8674 C   0  0  0  0  0  0  0  0  0  0  0  0
  -21.3425  -12.5228   20.3070 C   0  0  0  0  0  0  0  0  0  0  0  0
  -27.3185  -14.4725   20.8108 C   0  0  0  0  0  0  0  0  0  0  0  0
  -29.5818  -15.5791   20.4102 C   0  0  0  0  0  0  0  0  0  0  0  0
  -19.1917  -32.4298   22.0482 C   0  0  0  0  0  0  0  0  0  0  0  0
  -22.3518  -26.8612   20.2657 C   0  0  0  0  0  0  0  0  0  0  0  0
  -20.3603  -31.7428   21.6678 C   0  0  0  0  0  0  0  0  0  0  0  0
  -23.6390  -26.5484   20.7257 C   0  0  0  0  0  0  0  0  0  0  0  0
  -29.5156  -24.7667   17.5592 C   0  0  0  0  0  0  0  0  0  0  0  0
  -25.5770  -12.2956   20.9150 C   0  0  0  0  0  0  0  0  0  0  0  0
  -24.4680  -26.6582   18.4430 C   0  0  0  0  0  0  0  0  0  0  0  0
  -23.4722  -11.3860   20.4007 C   0  0  0  0  0  0  0  0  0  0  0  0
  -20.9449  -11.6916   19.2597 C   0  0  0  0  0  0  0  0  0  0  0  0
  -22.6062  -12.3699   20.8775 C   0  0  0  0  0  0  0  0  0  0  0  0
  -28.2175  -15.5973   20.7565 C   0  0  0  0  0  0  0  0  0  0  0  0
  -31.4616  -26.1163   17.5589 C   0  0  0  0  0  0  0  0  0  0  0  0
  -29.7673  -24.5349   18.8966 C   0  0  0  0  0  0  0  0  0  0  0  0
  -29.9790  -16.8901   20.5105 C   0  0  0  0  0  0  0  0  0  0  0  0
  -30.4156  -14.4759   20.0315 C   0  0  0  0  0  0  0  0  0  0  0  0
  -22.0372  -28.6730   22.8584 C   0  0  0  0  0  0  0  0  0  0  0  0
  -29.0803  -22.2042   19.4009 C   0  0  0  0  0  0  0  0  0  0  0  0
  -22.7801  -25.9166   24.3988 C   0  0  0  0  0  0  0  0  0  0  0  0
  -24.2691  -22.8478   24.2903 C   0  0  0  0  0  0  0  0  0  0  0  0
  -18.7762  -32.5487   23.4932 C   0  0  0  0  0  0  0  0  0  0  0  0
  -21.1983  -26.9432   21.2275 C   0  0  0  0  0  0  0  0  0  0  0  0
  -23.9246  -26.3167   22.1863 C   0  0  0  0  0  0  0  0  0  0  0  0
  -19.4514  -31.5292   24.4070 C   0  0  0  0  0  0  0  0  0  0  0  0
  -27.6371  -20.9090   22.4777 C   0  0  0  0  0  0  0  0  0  0  0  0
  -20.9486  -31.4660   24.1220 C   0  0  0  0  0  0  0  0  0  0  0  0
  -27.7475  -19.4011   22.2560 C   0  0  0  0  0  0  0  0  0  0  0  0
  -27.3460  -21.6481   21.1742 C   0  0  0  0  0  0  0  0  0  0  0  0
  -28.4448  -19.8585   19.8649 C   0  0  0  0  0  0  0  0  0  0  0  0
  -21.2174  -31.0155   22.6810 C   0  0  1  0  0  0  0  0  0  0  0  0
  -21.6339  -27.2394   22.6592 C   0  0  1  0  0  0  0  0  0  0  0  0
  -28.7682  -19.0791   21.1506 C   0  0  2  0  0  0  0  0  0  0  0  0
  -32.4343  -27.0035   16.8604 C   0  0  0  0  0  0  0  0  0  0  0  0
  -24.7465  -20.8384   25.7157 C   0  0  0  0  0  0  0  0  0  0  0  0
  -24.9964  -27.4563   25.8226 C   0  0  0  0  0  0  0  0  0  0  0  0
  -26.0076  -25.2606   26.4741 C   0  0  0  0  0  0  0  0  0  0  0  0
  -23.7266  -25.8692   27.2798 C   0  0  0  0  0  0  0  0  0  0  0  0
  -22.7193  -21.0681   22.5042 C   0  0  0  0  0  0  0  0  0  0  0  0
  -28.3309  -24.1594   16.8512 C   0  0  0  0  0  0  0  0  0  0  0  0
  -28.8660  -23.6652   19.7063 C   0  0  0  0  0  0  0  0  0  0  0  0
  -27.1855  -25.1451   16.6105 C   0  0  0  0  0  0  0  0  0  0  0  0
  -26.5628  -25.6731   17.8977 C   0  0  0  0  0  0  0  0  0  1  0  0
  -24.0601  -25.2556   24.8499 C   0  0  1  0  0  0  0  0  0  0  0  0
  -23.7842  -21.4769   24.7263 C   0  0  2  0  0  0  0  0  0  0  0  0
  -24.6930  -25.9667   26.0792 C   0  0  0  0  0  0  0  0  0  0  0  0
  -27.7774  -16.8226   21.0548 N   0  0  0  0  0  0  0  0  0  0  0  0
  -31.6834  -25.8725   18.8679 N   0  0  0  0  0  0  0  0  0  0  0  0
  -30.8224  -25.0686   19.5477 N   0  0  0  0  0  0  0  0  0  0  0  0
  -28.8716  -17.5866   20.8962 N   0  0  0  0  0  0  0  0  0  0  0  0
  -22.7649  -26.4141   23.0880 N   0  0  0  0  0  0  0  0  0  0  0  0
  -28.3240  -21.2933   20.1388 N   0  0  0  0  0  0  0  0  0  0  0  0
  -31.1640  -17.5035   20.3057 N   0  0  0  0  0  0  0  0  0  0  0  0
  -29.8470  -13.1960   19.9789 N   0  0  0  0  0  0  0  0  0  0  0  0
  -21.0427  -29.5842   22.5580 N   0  0  0  0  0  0  0  0  0  0  0  0
  -23.7372  -23.8505   25.0732 N   0  0  0  0  0  0  0  0  0  0  0  0
  -23.6545  -20.5743   23.5476 N   0  3  0  0  0  0  0  0  0  0  0  0
  -31.6329  -14.6184   19.7640 O   0  0  0  0  0  0  0  0  0  0  0  0
  -23.1665  -28.9332   23.2567 O   0  0  0  0  0  0  0  0  0  0  0  0
  -29.8978  -21.8840   18.5342 O   0  0  0  0  0  0  0  0  0  0  0  0
  -21.8262  -25.9826   25.1782 O   0  0  0  0  0  0  0  0  0  0  0  0
  -25.0452  -23.0123   23.3516 O   0  0  0  0  0  0  0  0  0  0  0  0
  -24.7274  -11.2335   20.9654 O   0  0  0  0  0  0  0  0  0  0  0  0
  -25.4996  -26.5633   17.5606 O   0  0  0  0  0  0  0  0  0  1  0  0
  -19.7320  -11.8393   18.7108 F   0  0  0  0  0  0  0  0  0  0  0  0
  -22.9830  -13.1721   21.8826 F   0  0  0  0  0  0  0  0  0  0  0  0
  1  2  1  0  0  0  0
  1  5  2  0  0  0  0
  2  6  2  0  0  0  0
  3  8  2  0  0  0  0
  3 16  1  0  0  0  0
  4  9  1  0  0  0  0
  4 16  2  0  0  0  0
  5 18  1  0  0  0  0
  6 20  1  0  0  0  0
  7 10  2  0  0  0  0
  7 19  1  0  0  0  0
  8 23  1  0  0  0  0
  9 23  2  0  0  0  0
 10 24  1  0  0  0  0
 11 12  2  0  0  0  0
 11 25  1  0  0  0  0
 12 26  1  0  0  0  0
 13 21  1  0  0  0  0
 13 24  2  0  0  0  0
 14 22  1  0  0  0  0
 14 29  2  0  0  0  0
 15 26  2  0  0  0  0
 15 27  1  0  0  0  0
 16 28  1  0  0  0  0
 17 28  1  0  0  0  0
 17 31  2  0  0  0  0
 17 32  1  0  0  0  0
 18 20  2  0  0  0  0
 18 37  1  0  0  0  0
 19 21  2  0  0  0  0
 19 38  1  0  0  0  0
 20 46  1  0  0  0  0
 21 39  1  0  0  0  0
 22 30  2  0  0  0  0
 22 55  1  0  0  0  0
 23 78  1  0  0  0  0
 24 79  1  0  0  0  0
 25 27  2  0  0  0  0
 25 78  1  0  0  0  0
 26 80  1  0  0  0  0
 27 81  1  0  0  0  0
 28 62  2  0  0  0  0
 29 49  1  0  0  0  0
 29 63  1  0  0  0  0
 30 56  1  0  0  0  0
 30 64  1  0  0  0  0
 31 65  1  0  0  0  0
 31 68  1  0  0  0  0
 32 69  1  0  0  0  0
 32 73  2  0  0  0  0
 33 47  1  0  0  0  0
 33 70  1  0  0  0  0
 33 74  2  0  0  0  0
 34 56  1  0  0  0  0
 34 67  1  0  0  0  0
 34 75  2  0  0  0  0
 35 59  1  0  0  0  0
 35 66  1  0  0  0  0
 35 76  2  0  0  0  0
 36 60  1  0  0  0  0
 36 71  1  0  0  0  0
 36 77  2  0  0  0  0
 37 40  1  0  0  0  0
 38 47  1  0  0  0  0
 39 66  1  0  0  0  0
 40 42  1  0  0  0  0
 41 43  1  0  0  0  0
 41 44  1  0  0  0  0
 42 46  1  0  0  0  0
 43 48  1  0  0  0  0
 44 67  1  0  0  0  0
 45 48  1  0  0  0  0
 45 67  1  0  0  0  0
 46 70  1  0  0  0  0
 47 66  1  0  0  0  0
 48 65  1  0  0  0  0
 50 60  1  0  0  0  0
 51 61  1  0  0  0  0
 52 61  1  0  0  0  0
 53 61  1  0  0  0  0
 54 72  1  0  0  0  0
 55 57  1  0  0  0  0
 57 58  1  0  0  0  0
 58 79  1  0  0  0  0
 59 61  1  0  0  0  0
 59 71  1  0  0  0  0
 60 72  1  0  0  0  0
 62 65  1  0  0  0  0
 63 64  2  0  0  0  0
M  CHG  1  72   1
M  ISO  4  34 100  56 100  58 101  79 101
M  END
> <Batch ID>
0047

> <Smiles>
CNC(C)C(=O)NC(C(=O)N1Cc2cc([101O:1][101CH2:1]CCc3cc(C)nnc3[100CH2:0][100C:0](=O)N3CCCC(n4nc(-c5ccc(Oc6ccc(F)cc6F)cc5)c(C(N)=O)c4N)C3)ccc2CC1C(=O)NC1CCCc2ccccc21)C(C)(C)C

> <Shape>
0.213

> <Color>
0.092

> <Negative vol penalty>
0.000

$$$$

  -OEChem-04052317243D

 83 91  0     1  0  0  0  0  0999 V2000
  -30.2260  -33.2196   16.1785 C   0  0  0  0  0  0  0  0  0  0  0  0
  -30.2937  -31.8782   16.5410 C   0  0  0  0  0  0  0  0  0  0  0  0
  -24.2259   -9.5419   21.6298 C   0  0  0  0  0  0  0  0  0  0  0  0
  -22.2138  -10.7015   20.9636 C   0  0  0  0  0  0  0  0  0  0  0  0
  -29.5444  -34.1261   16.9894 C   0  0  0  0  0  0  0  0  0  0  0  0
  -29.6808  -31.4427   17.7153 C   0  0  0  0  0  0  0  0  0  0  0  0
  -26.9728  -26.0328   18.6672 C   0  0  0  0  0  0  0  0  0  0  0  0
  -23.5265   -8.3352   21.6421 C   0  0  0  0  0  0  0  0  0  0  0  0
  -21.5143   -9.4947   20.9760 C   0  0  0  0  0  0  0  0  0  0  0  0
  -27.4121  -24.8584   19.2766 C   0  0  0  0  0  0  0  0  0  0  0  0
  -21.3806   -6.7215   23.6953 C   0  0  0  0  0  0  0  0  0  0  0  0
  -21.5782   -5.8699   24.7822 C   0  0  0  0  0  0  0  0  0  0  0  0
  -26.3612  -25.5420   21.3376 C   0  0  0  0  0  0  0  0  0  0  0  0
  -22.3823   -4.1498   23.2883 C   0  0  0  0  0  0  0  0  0  0  0  0
  -23.5696  -10.7251   21.2906 C   0  0  0  0  0  0  0  0  0  0  0  0
  -24.9806  -12.5445   20.1923 C   0  0  0  0  0  0  0  0  0  0  0  0
  -28.9146  -33.6998   18.1693 C   0  0  0  0  0  0  0  0  0  0  0  0
  -26.2325  -26.9773   19.3926 C   0  0  0  0  0  0  0  0  0  0  0  0
  -28.9913  -32.3446   18.5435 C   0  0  0  0  0  0  0  0  0  0  0  0
  -25.9116  -26.7264   20.7343 C   0  0  0  0  0  0  0  0  0  0  0  0
  -22.1707   -8.3116   21.3152 C   0  0  0  0  0  0  0  0  0  0  0  0
  -27.1088  -24.6141   20.6128 C   0  0  0  0  0  0  0  0  0  0  0  0
  -21.6838   -6.2873   22.4049 C   0  0  0  0  0  0  0  0  0  0  0  0
  -22.0790   -4.5840   24.5787 C   0  0  0  0  0  0  0  0  0  0  0  0
  -22.1847   -5.0014   22.2014 C   0  0  0  0  0  0  0  0  0  0  0  0
  -24.2915  -11.9720   21.2781 C   0  0  0  0  0  0  0  0  0  0  0  0
  -28.6437  -21.3572   21.2323 C   0  0  0  0  0  0  0  0  0  0  0  0
  -28.0960  -20.0971   21.1811 C   0  0  0  0  0  0  0  0  0  0  0  0
  -25.4913  -13.7184   20.6902 C   0  0  0  0  0  0  0  0  0  0  0  0
  -29.6799  -20.2261   22.7079 C   0  0  0  0  0  0  0  0  0  0  0  0
  -25.1445  -12.0588   18.8533 C   0  0  0  0  0  0  0  0  0  0  0  0
  -26.6756  -30.0114   20.2306 C   0  0  0  0  0  0  0  0  0  0  0  0
  -23.6382  -29.7426   21.3371 C   0  0  0  0  0  0  0  0  0  0  0  0
  -21.1347  -27.7166   22.4661 C   0  0  0  0  0  0  0  0  0  0  0  0
  -24.9125  -18.3997   23.6727 C   0  0  0  0  0  0  0  0  0  0  0  0
  -28.2299  -34.7251   19.0380 C   0  0  0  0  0  0  0  0  0  0  0  0
  -25.7433  -28.2269   18.7132 C   0  0  0  0  0  0  0  0  0  0  0  0
  -25.1023  -27.6991   21.5514 C   0  0  0  0  0  0  0  0  0  0  0  0
  -27.2886  -34.1152   20.0735 C   0  0  0  0  0  0  0  0  0  0  0  0
  -25.7752  -15.4322   25.4408 C   0  0  0  0  0  0  0  0  0  0  0  0
  -27.9631  -32.9468   20.7854 C   0  0  0  0  0  0  0  0  0  0  0  0
  -25.5171  -14.3150   24.4283 C   0  0  0  0  0  0  0  0  0  0  0  0
  -24.7471  -16.5545   25.3172 C   0  0  0  0  0  0  0  0  0  0  0  0
  -24.3473  -16.0010   22.9492 C   0  0  0  0  0  0  0  0  0  0  0  0
  -28.3181  -31.8293   19.7971 C   0  0  1  0  0  0  0  0  0  0  0  0
  -25.4354  -29.3571   19.6906 C   0  0  1  0  0  0  0  0  0  0  0  0
  -25.3918  -14.8727   22.9977 C   0  0  2  0  0  0  0  0  0  0  0  0
  -30.5859  -19.7865   23.7891 C   0  0  0  0  0  0  0  0  0  0  0  0
  -27.4091  -19.5109   18.8409 C   0  0  0  0  0  0  0  0  0  0  0  0
  -18.7804  -27.7899   23.3318 C   0  0  0  0  0  0  0  0  0  0  0  0
  -24.6615  -30.7566   24.0269 C   0  0  0  0  0  0  0  0  0  0  0  0
  -22.5451  -29.9184   25.0693 C   0  0  0  0  0  0  0  0  0  0  0  0
  -22.4542  -31.7013   23.3270 C   0  0  0  0  0  0  0  0  0  0  0  0
  -28.5570  -17.9942   22.4676 C   0  0  0  0  0  0  0  0  0  0  0  0
  -20.1380  -26.0509   20.2320 C   0  0  0  0  0  0  0  0  0  0  0  0
  -28.2922  -22.5613   20.4089 C   0  0  0  0  0  0  0  0  0  1  0  0
  -25.6353  -20.2179   20.4941 C   0  0  0  0  0  0  0  0  0  0  0  0
  -25.0565  -20.1376   21.9069 C   0  0  0  0  0  0  0  0  0  0  0  0
  -27.0278  -19.5224   20.3437 C   0  0  2  0  0  0  0  0  0  0  0  0
  -23.0100  -29.3307   22.6466 C   0  0  1  0  0  0  0  0  0  0  0  0
  -19.6629  -27.6361   22.1029 C   0  0  2  0  0  0  0  0  0  0  0  0
  -23.1846  -30.4091   23.7528 C   0  0  0  0  0  0  0  0  0  0  0  0
  -24.3565  -12.7204   22.3825 N   0  0  0  0  0  0  0  0  0  0  0  0
  -29.6293  -21.4309   22.1845 N   0  0  0  0  0  0  0  0  0  0  0  0
  -28.7702  -19.3837   22.1317 N   0  0  0  0  0  0  0  0  0  0  0  0
  -25.0927  -13.7752   21.9933 N   0  0  0  0  0  0  0  0  0  0  0  0
  -24.6522  -28.9092   20.8440 N   0  0  0  0  0  0  0  0  0  0  0  0
  -24.6784  -17.0401   23.9369 N   0  0  0  0  0  0  0  0  0  0  0  0
  -26.2379  -14.6971   20.1360 N   0  0  0  0  0  0  0  0  0  0  0  0
  -24.5540  -10.8351   18.5096 N   0  0  0  0  0  0  0  0  0  0  0  0
  -27.1398  -31.0599   19.4595 N   0  0  0  0  0  0  0  0  0  0  0  0
  -21.6206  -29.0015   22.3470 N   0  0  0  0  0  0  0  0  0  0  0  0
  -24.8343  -18.7751   22.3372 N   0  0  0  0  0  0  0  0  0  0  0  0
  -19.3575  -26.3237   21.4663 N   0  3  0  0  0  0  0  0  0  0  0  0
  -25.8091  -12.6832   17.9920 O   0  0  0  0  0  0  0  0  0  0  0  0
  -27.1736  -29.5966   21.2706 O   0  0  0  0  0  0  0  0  0  0  0  0
  -23.2389  -30.7621   20.7691 O   0  0  0  0  0  0  0  0  0  0  0  0
  -21.7870  -26.7382   22.8236 O   0  0  0  0  0  0  0  0  0  0  0  0
  -25.1771  -19.2173   24.5607 O   0  0  0  0  0  0  0  0  0  0  0  0
  -21.4879   -7.1342   21.3269 O   0  0  0  0  0  0  0  0  0  0  0  0
  -27.5368  -23.4688   21.2103 O   0  0  0  0  0  0  0  0  0  1  0  0
  -22.2701   -3.7669   25.6227 F   0  0  0  0  0  0  0  0  0  0  0  0
  -22.4789   -4.5791   20.9641 F   0  0  0  0  0  0  0  0  0  0  0  0
  1  2  1  0  0  0  0
  1  5  2  0  0  0  0
  2  6  2  0  0  0  0
  3  8  2  0  0  0  0
  3 15  1  0  0  0  0
  4  9  1  0  0  0  0
  4 15  2  0  0  0  0
  5 17  1  0  0  0  0
  6 19  1  0  0  0  0
  7 10  2  0  0  0  0
  7 18  1  0  0  0  0
  8 21  1  0  0  0  0
  9 21  2  0  0  0  0
 10 22  1  0  0  0  0
 11 12  2  0  0  0  0
 11 23  1  0  0  0  0
 12 24  1  0  0  0  0
 13 20  1  0  0  0  0
 13 22  2  0  0  0  0
 14 24  2  0  0  0  0
 14 25  1  0  0  0  0
 15 26  1  0  0  0  0
 16 26  1  0  0  0  0
 16 29  2  0  0  0  0
 16 31  1  0  0  0  0
 17 19  2  0  0  0  0
 17 36  1  0  0  0  0
 18 20  2  0  0  0  0
 18 37  1  0  0  0  0
 19 45  1  0  0  0  0
 20 38  1  0  0  0  0
 21 80  1  0  0  0  0
 22 81  1  0  0  0  0
 23 25  2  0  0  0  0
 23 80  1  0  0  0  0
 24 82  1  0  0  0  0
 25 83  1  0  0  0  0
 26 63  2  0  0  0  0
 27 28  2  0  0  0  0
 27 56  1  0  0  0  0
 27 64  1  0  0  0  0
 28 59  1  0  0  0  0
 28 65  1  0  0  0  0
 29 66  1  0  0  0  0
 29 69  1  0  0  0  0
 30 48  1  0  0  0  0
 30 64  2  0  0  0  0
 30 65  1  0  0  0  0
 31 70  1  0  0  0  0
 31 75  2  0  0  0  0
 32 46  1  0  0  0  0
 32 71  1  0  0  0  0
 32 76  2  0  0  0  0
 33 60  1  0  0  0  0
 33 67  1  0  0  0  0
 33 77  2  0  0  0  0
 34 61  1  0  0  0  0
 34 72  1  0  0  0  0
 34 78  2  0  0  0  0
 35 68  1  0  0  0  0
 35 73  1  0  0  0  0
 35 79  2  0  0  0  0
 36 39  1  0  0  0  0
 37 46  1  0  0  0  0
 38 67  1  0  0  0  0
 39 41  1  0  0  0  0
 40 42  1  0  0  0  0
 40 43  1  0  0  0  0
 41 45  1  0  0  0  0
 42 47  1  0  0  0  0
 43 68  1  0  0  0  0
 44 47  1  0  0  0  0
 44 68  1  0  0  0  0
 45 71  1  0  0  0  0
 46 67  1  0  0  0  0
 47 66  1  0  0  0  0
 49 59  1  0  0  0  0
 50 61  1  0  0  0  0
 51 62  1  0  0  0  0
 52 62  1  0  0  0  0
 53 62  1  0  0  0  0
 54 65  1  0  0  0  0
 55 74  1  0  0  0  0
 56 81  1  0  0  0  0
 57 58  1  0  0  0  0
 57 59  1  0  0  0  0
 58 73  1  0  0  0  0
 60 62  1  0  0  0  0
 60 72  1  0  0  0  0
 61 74  1  0  0  0  0
 63 66  1  0  0  0  0
M  CHG  1  74   1
M  ISO  4  35 100  56 101  73 100  81 101
M  END
> <Batch ID>
0047

> <Smiles>
CNC(C)C(=O)NC(C(=O)N1Cc2cc([101O:1][101CH2:1]c3nc(C)n(C)c3C(C)CC[100NH:0][100C:0](=O)N3CCCC(n4nc(-c5ccc(Oc6ccc(F)cc6F)cc5)c(C(N)=O)c4N)C3)ccc2CC1C(=O)NC1CCCc2ccccc21)C(C)(C)C

> <Shape>
0.258

> <Color>
0.105

> <Negative vol penalty>
0.000

$$$$

  -OEChem-04052317243D

 83 91  0     1  0  0  0  0  0999 V2000
  -18.0259  -25.5101   19.6718 C   0  0  0  0  0  0  0  0  0  0  0  0
  -18.7062  -24.3669   19.2648 C   0  0  0  0  0  0  0  0  0  0  0  0
  -27.3829  -25.7085   17.4077 C   0  0  0  0  0  0  0  0  0  0  0  0
  -28.5139  -26.3822   19.4335 C   0  0  0  0  0  0  0  0  0  0  0  0
  -18.4292  -26.1876   20.8217 C   0  0  0  0  0  0  0  0  0  0  0  0
  -19.7910  -23.9011   20.0070 C   0  0  0  0  0  0  0  0  0  0  0  0
  -21.4114  -18.0617   20.8908 C   0  0  0  0  0  0  0  0  0  0  0  0
  -26.6484  -26.8941   17.4235 C   0  0  0  0  0  0  0  0  0  0  0  0
  -27.7794  -27.5679   19.4493 C   0  0  0  0  0  0  0  0  0  0  0  0
  -22.3651  -17.2499   20.2782 C   0  0  0  0  0  0  0  0  0  0  0  0
  -24.6675  -28.5592   20.3237 C   0  0  0  0  0  0  0  0  0  0  0  0
  -24.1139  -28.9624   21.5388 C   0  0  0  0  0  0  0  0  0  0  0  0
  -23.9260  -17.7605   22.0452 C   0  0  0  0  0  0  0  0  0  0  0  0
  -25.3889  -31.0121   21.4396 C   0  0  0  0  0  0  0  0  0  0  0  0
  -30.2589  -12.7008   19.1052 C   0  0  0  0  0  0  0  0  0  0  0  0
  -28.2848  -12.1148   19.6438 C   0  0  0  0  0  0  0  0  0  0  0  0
  -28.3157  -25.4525   18.4128 C   0  0  0  0  0  0  0  0  0  0  0  0
  -30.3185  -24.0061   17.7767 C   0  0  0  0  0  0  0  0  0  0  0  0
  -19.5134  -25.7245   21.5836 C   0  0  0  0  0  0  0  0  0  0  0  0
  -21.7121  -18.7388   22.0815 C   0  0  0  0  0  0  0  0  0  0  0  0
  -20.2100  -24.5738   21.1674 C   0  0  0  0  0  0  0  0  0  0  0  0
  -22.9735  -18.5783   22.6722 C   0  0  0  0  0  0  0  0  0  0  0  0
  -26.8466  -27.8238   18.4443 C   0  0  0  0  0  0  0  0  0  0  0  0
  -23.6236  -17.1015   20.8538 C   0  0  0  0  0  0  0  0  0  0  0  0
  -25.5819  -29.3824   19.6666 C   0  0  0  0  0  0  0  0  0  0  0  0
  -24.4746  -30.1888   22.0968 C   0  0  0  0  0  0  0  0  0  0  0  0
  -25.9426  -30.6089   20.2245 C   0  0  0  0  0  0  0  0  0  0  0  0
  -29.0745  -24.2277   18.3973 C   0  0  0  0  0  0  0  0  0  0  0  0
  -29.7695  -13.7263   19.8794 C   0  0  0  0  0  0  0  0  0  0  0  0
  -30.6102  -22.6924   18.0517 C   0  0  0  0  0  0  0  0  0  0  0  0
  -31.1372  -24.9072   17.0195 C   0  0  0  0  0  0  0  0  0  0  0  0
  -21.8708  -21.7934   22.9461 C   0  0  0  0  0  0  0  0  0  0  0  0
  -22.3307  -20.5299   25.8981 C   0  0  0  0  0  0  0  0  0  0  0  0
  -23.3490  -17.8765   27.7873 C   0  0  0  0  0  0  0  0  0  0  0  0
  -30.9621  -18.4754   21.3764 C   0  0  0  0  0  0  0  0  0  0  0  0
  -19.9421  -26.5172   22.7929 C   0  0  0  0  0  0  0  0  0  0  0  0
  -20.6634  -19.5895   22.7439 C   0  0  0  0  0  0  0  0  0  0  0  0
  -23.3393  -19.2674   23.9605 C   0  0  0  0  0  0  0  0  0  0  0  0
  -20.8669  -25.7454   23.7307 C   0  0  0  0  0  0  0  0  0  0  0  0
  -27.7552  -19.0110   19.9977 C   0  0  0  0  0  0  0  0  0  0  0  0
  -21.9665  -25.0450   22.9389 C   0  0  0  0  0  0  0  0  0  0  0  0
  -27.9089  -20.4128   19.4095 C   0  0  0  0  0  0  0  0  0  0  0  0
  -28.4559  -18.8756   21.3508 C   0  0  0  0  0  0  0  0  0  0  0  0
  -30.0337  -20.6817   20.7416 C   0  0  0  0  0  0  0  0  0  0  0  0
  -21.3760  -24.0234   21.9596 C   0  0  1  0  0  0  0  0  0  0  0  0
  -21.2507  -20.6395   23.6820 C   0  0  1  0  0  0  0  0  0  0  0  0
  -29.3897  -20.8269   19.3543 C   0  0  2  0  0  0  0  0  0  0  0  0
  -23.6454  -17.1548   30.1725 C   0  0  0  0  0  0  0  0  0  0  0  0
  -24.8527  -22.2356   26.0983 C   0  0  0  0  0  0  0  0  0  0  0  0
  -25.5866  -20.8014   28.0148 C   0  0  0  0  0  0  0  0  0  0  0  0
  -23.4891  -22.1399   28.1925 C   0  0  0  0  0  0  0  0  0  0  0  0
  -29.9400  -17.2645   23.3498 C   0  0  0  0  0  0  0  0  0  0  0  0
  -21.4208  -15.6530   27.4758 C   0  0  0  0  0  0  0  0  0  0  0  0
  -30.3718  -14.9983   20.3136 C   0  0  0  0  0  0  0  0  0  0  0  0
  -31.1405  -14.9359   21.6573 C   0  0  0  0  0  0  0  0  0  0  0  0
  -26.4399  -14.8240   20.2528 C   0  0  0  0  0  0  0  0  0  0  0  0
  -27.5172  -14.1001   21.0636 C   0  0  0  0  0  0  0  0  0  0  0  0
  -31.7892  -16.2571   22.0646 C   0  0  0  0  0  0  0  0  0  0  0  0
  -25.5041  -15.6683   21.1099 C   0  0  0  0  0  0  0  0  0  1  0  0
  -23.5344  -20.0990   26.7010 C   0  0  1  0  0  0  0  0  0  0  0  0
  -22.7085  -17.1806   28.9748 C   0  0  2  0  0  0  0  0  0  0  0  0
  -24.3598  -21.3074   27.2263 C   0  0  0  0  0  0  0  0  0  0  0  0
  -29.3297  -11.7009   18.9621 N   0  0  0  0  0  0  0  0  0  0  0  0
  -28.6079  -23.1418   19.0195 N   0  0  0  0  0  0  0  0  0  0  0  0
  -28.5038  -13.3368   20.2166 N   0  0  0  0  0  0  0  0  0  0  0  0
  -29.5638  -22.2251   18.7912 N   0  0  0  0  0  0  0  0  0  0  0  0
  -22.2820  -20.0934   24.5666 N   0  0  0  0  0  0  0  0  0  0  0  0
  -29.8520  -19.3255   21.2649 N   0  0  0  0  0  0  0  0  0  0  0  0
  -31.6571  -21.9030   17.7306 N   0  0  0  0  0  0  0  0  0  0  0  0
  -30.6877  -26.2215   16.8324 N   0  0  0  0  0  0  0  0  0  0  0  0
  -20.9885  -22.8176   22.6598 N   0  0  0  0  0  0  0  0  0  0  0  0
  -23.0316  -19.2178   27.7493 N   0  0  0  0  0  0  0  0  0  0  0  0
  -30.8215  -17.3384   22.1862 N   0  0  0  0  0  0  0  0  0  0  0  0
  -22.3559  -15.7759   28.6236 N   0  3  0  0  0  0  0  0  0  0  0  0
  -32.2270  -24.5527   16.5095 O   0  0  0  0  0  0  0  0  0  0  0  0
  -23.0620  -21.7579   22.6605 O   0  0  0  0  0  0  0  0  0  0  0  0
  -21.4621  -21.2221   26.4348 O   0  0  0  0  0  0  0  0  0  0  0  0
  -24.0627  -17.2897   26.9769 O   0  0  0  0  0  0  0  0  0  0  0  0
  -32.0246  -18.7219   20.7912 O   0  0  0  0  0  0  0  0  0  0  0  0
  -26.1301  -28.9810   18.4599 O   0  0  0  0  0  0  0  0  0  0  0  0
  -24.5565  -16.3102   20.2576 O   0  0  0  0  0  0  0  0  0  1  0  0
  -23.9416  -30.5766   23.2629 F   0  0  0  0  0  0  0  0  0  0  0  0
  -26.8197  -31.4045   19.5972 F   0  0  0  0  0  0  0  0  0  0  0  0
  1  2  1  0  0  0  0
  1  5  2  0  0  0  0
  2  6  2  0  0  0  0
  3  8  2  0  0  0  0
  3 17  1  0  0  0  0
  4  9  1  0  0  0  0
  4 17  2  0  0  0  0
  5 19  1  0  0  0  0
  6 21  1  0  0  0  0
  7 10  2  0  0  0  0
  7 20  1  0  0  0  0
  8 23  1  0  0  0  0
  9 23  2  0  0  0  0
 10 24  1  0  0  0  0
 11 12  2  0  0  0  0
 11 25  1  0  0  0  0
 12 26  1  0  0  0  0
 13 22  1  0  0  0  0
 13 24  2  0  0  0  0
 14 26  2  0  0  0  0
 14 27  1  0  0  0  0
 15 29  2  0  0  0  0
 15 63  1  0  0  0  0
 16 63  2  0  0  0  0
 16 65  1  0  0  0  0
 17 28  1  0  0  0  0
 18 28  1  0  0  0  0
 18 30  2  0  0  0  0
 18 31  1  0  0  0  0
 19 21  2  0  0  0  0
 19 36  1  0  0  0  0
 20 22  2  0  0  0  0
 20 37  1  0  0  0  0
 21 45  1  0  0  0  0
 22 38  1  0  0  0  0
 23 80  1  0  0  0  0
 24 81  1  0  0  0  0
 25 27  2  0  0  0  0
 25 80  1  0  0  0  0
 26 82  1  0  0  0  0
 27 83  1  0  0  0  0
 28 64  2  0  0  0  0
 29 54  1  0  0  0  0
 29 65  1  0  0  0  0
 30 66  1  0  0  0  0
 30 69  1  0  0  0  0
 31 70  1  0  0  0  0
 31 75  2  0  0  0  0
 32 46  1  0  0  0  0
 32 71  1  0  0  0  0
 32 76  2  0  0  0  0
 33 60  1  0  0  0  0
 33 67  1  0  0  0  0
 33 77  2  0  0  0  0
 34 61  1  0  0  0  0
 34 72  1  0  0  0  0
 34 78  2  0  0  0  0
 35 68  1  0  0  0  0
 35 73  1  0  0  0  0
 35 79  2  0  0  0  0
 36 39  1  0  0  0  0
 37 46  1  0  0  0  0
 38 67  1  0  0  0  0
 39 41  1  0  0  0  0
 40 42  1  0  0  0  0
 40 43  1  0  0  0  0
 41 45  1  0  0  0  0
 42 47  1  0  0  0  0
 43 68  1  0  0  0  0
 44 47  1  0  0  0  0
 44 68  1  0  0  0  0
 45 71  1  0  0  0  0
 46 67  1  0  0  0  0
 47 66  1  0  0  0  0
 48 61  1  0  0  0  0
 49 62  1  0  0  0  0
 50 62  1  0  0  0  0
 51 62  1  0  0  0  0
 52 73  1  0  0  0  0
 53 74  1  0  0  0  0
 54 55  1  0  0  0  0
 55 58  1  0  0  0  0
 56 57  1  0  0  0  0
 56 59  1  0  0  0  0
 57 65  1  0  0  0  0
 58 73  1  0  0  0  0
 59 81  1  0  0  0  0
 60 62  1  0  0  0  0
 60 72  1  0  0  0  0
 61 74  1  0  0  0  0
 64 66  1  0  0  0  0
M  CHG  1  74   1
M  ISO  4  35 100  59 101  73 100  81 101
M  END
> <Batch ID>
0047

> <Smiles>
CNC(C)C(=O)NC(C(=O)N1Cc2cc([101O:1][101CH2:1]CCn3cncc3CCC[100N:0](C)[100C:0](=O)N3CCCC(n4nc(-c5ccc(Oc6ccc(F)cc6F)cc5)c(C(N)=O)c4N)C3)ccc2CC1C(=O)NC1CCCc2ccccc21)C(C)(C)C

> <Shape>
0.218

> <Color>
0.053

> <Negative vol penalty>
0.000

$$$$

  -OEChem-04052317243D

 87 95  0     1  0  0  0  0  0999 V2000
  -28.8497  -18.2898   19.1951 C   0  0  0  0  0  0  0  0  0  0  0  0
  -28.2843  -18.7260   20.3890 C   0  0  0  0  0  0  0  0  0  0  0  0
  -28.0462  -13.9190   19.2989 C   0  0  0  0  0  0  0  0  0  0  0  0
  -28.3788  -14.5791   21.5990 C   0  0  0  0  0  0  0  0  0  0  0  0
  -29.5177  -19.1938   18.3702 C   0  0  0  0  0  0  0  0  0  0  0  0
  -28.3875  -20.0665   20.7592 C   0  0  0  0  0  0  0  0  0  0  0  0
  -24.0145  -21.9471   22.4869 C   0  0  0  0  0  0  0  0  0  0  0  0
  -29.4246  -13.9573   19.0885 C   0  0  0  0  0  0  0  0  0  0  0  0
  -29.7572  -14.6174   21.3887 C   0  0  0  0  0  0  0  0  0  0  0  0
  -23.6533  -21.6215   23.7935 C   0  0  0  0  0  0  0  0  0  0  0  0
  -32.0066  -16.7190   19.9906 C   0  0  0  0  0  0  0  0  0  0  0  0
  -32.7081  -17.8161   20.4904 C   0  0  0  0  0  0  0  0  0  0  0  0
  -24.4477  -23.7725   24.5426 C   0  0  0  0  0  0  0  0  0  0  0  0
  -34.0408  -16.3392   21.8615 C   0  0  0  0  0  0  0  0  0  0  0  0
  -25.2665  -18.3887   28.1190 C   0  0  0  0  0  0  0  0  0  0  0  0
  -27.5233  -14.2299   20.5541 C   0  0  0  0  0  0  0  0  0  0  0  0
  -25.3346  -13.0891   21.1989 C   0  0  0  0  0  0  0  0  0  0  0  0
  -29.6208  -20.5479   18.7258 C   0  0  0  0  0  0  0  0  0  0  0  0
  -24.6059  -23.1856   22.1995 C   0  0  0  0  0  0  0  0  0  0  0  0
  -29.0587  -20.9892   19.9389 C   0  0  0  0  0  0  0  0  0  0  0  0
  -24.8130  -24.1124   23.2311 C   0  0  0  0  0  0  0  0  0  0  0  0
  -30.2801  -14.3065   20.1334 C   0  0  0  0  0  0  0  0  0  0  0  0
  -23.8725  -22.5331   24.8221 C   0  0  0  0  0  0  0  0  0  0  0  0
  -32.3221  -15.4320   20.4263 C   0  0  0  0  0  0  0  0  0  0  0  0
  -33.7253  -17.6262   21.4258 C   0  0  0  0  0  0  0  0  0  0  0  0
  -33.3392  -15.2421   21.3617 C   0  0  0  0  0  0  0  0  0  0  0  0
  -26.0995  -14.1911   20.7718 C   0  0  0  0  0  0  0  0  0  0  0  0
  -26.0860  -19.0947   27.2180 C   0  0  0  0  0  0  0  0  0  0  0  0
  -24.4638  -19.3517   28.6800 C   0  0  0  0  0  0  0  0  0  0  0  0
  -24.0468  -13.5641   21.2497 C   0  0  0  0  0  0  0  0  0  0  0  0
  -25.7509  -11.7555   21.5210 C   0  0  0  0  0  0  0  0  0  0  0  0
  -27.4070  -24.1135   21.0176 C   0  0  0  0  0  0  0  0  0  0  0  0
  -26.0309  -27.0496   21.1056 C   0  0  0  0  0  0  0  0  0  0  0  0
  -23.6741  -29.1049   22.4723 C   0  0  0  0  0  0  0  0  0  0  0  0
  -20.3720  -17.5251   22.6467 C   0  0  0  0  0  0  0  0  0  0  0  0
  -30.3934  -21.4783   17.8247 C   0  0  0  0  0  0  0  0  0  0  0  0
  -24.9653  -23.5322   20.7806 C   0  0  0  0  0  0  0  0  0  0  0  0
  -25.4262  -25.4635   22.9721 C   0  0  0  0  0  0  0  0  0  0  0  0
  -30.1342  -22.9557   18.1084 C   0  0  0  0  0  0  0  0  0  0  0  0
  -22.0631  -17.8896   19.5348 C   0  0  0  0  0  0  0  0  0  0  0  0
  -30.2024  -23.2313   19.6071 C   0  0  0  0  0  0  0  0  0  0  0  0
  -23.2039  -16.8739   19.6172 C   0  0  0  0  0  0  0  0  0  0  0  0
  -21.7895  -18.5421   20.8881 C   0  0  0  0  0  0  0  0  0  0  0  0
  -22.6916  -16.5809   22.0770 C   0  0  0  0  0  0  0  0  0  0  0  0
  -29.1282  -22.4402   20.3631 C   0  0  1  0  0  0  0  0  0  0  0  0
  -26.0320  -24.6184   20.6827 C   0  0  1  0  0  0  0  0  0  0  0  0
  -22.9673  -15.8556   20.7487 C   0  0  2  0  0  0  0  0  0  0  0  0
  -27.1394  -18.5483   26.3460 C   0  0  0  0  0  0  0  0  0  0  0  0
  -22.8160  -31.4608   22.3687 C   0  0  0  0  0  0  0  0  0  0  0  0
  -28.4535  -27.9995   22.6990 C   0  0  0  0  0  0  0  0  0  0  0  0
  -27.1348  -30.0204   23.3662 C   0  0  0  0  0  0  0  0  0  0  0  0
  -27.6517  -29.6090   20.9608 C   0  0  0  0  0  0  0  0  0  0  0  0
  -20.9829  -28.2106   21.6258 C   0  0  0  0  0  0  0  0  0  0  0  0
  -19.4335  -17.1416   28.8392 C   0  0  0  0  0  0  0  0  0  0  0  0
  -23.3974  -19.2538   29.6933 C   0  0  0  0  0  0  0  0  0  0  0  0
  -21.9766  -19.0124   29.1273 C   0  0  0  0  0  0  0  0  0  0  0  0
  -19.1739  -17.1780   25.7235 C   0  0  0  0  0  0  0  0  0  0  0  0
  -24.2571  -21.8968   28.3762 C   0  0  0  0  0  0  0  0  0  0  0  0
  -19.0643  -16.3884   24.4236 C   0  0  0  0  0  0  0  0  0  0  0  0
  -21.8077  -17.7109   28.3495 C   0  0  0  0  0  0  0  0  0  0  0  0
  -20.3664  -16.7419   26.5651 C   0  0  0  0  0  0  0  0  0  0  0  0
  -24.2951  -22.7988   27.1473 C   0  0  0  0  0  0  0  0  0  1  0  0
  -25.9408  -28.1579   22.1266 C   0  0  1  0  0  0  0  0  0  0  0  0
  -22.6657  -30.0444   21.8359 C   0  0  2  0  0  0  0  0  0  0  0  0
  -27.2854  -28.9206   22.2937 C   0  0  0  0  0  0  0  0  0  0  0  0
  -25.3594  -15.2837   20.5658 N   0  0  0  0  0  0  0  0  0  0  0  0
  -25.8274  -20.4050   27.2039 N   0  0  0  0  0  0  0  0  0  0  0  0
  -24.8364  -20.5301   28.1030 N   0  0  0  0  0  0  0  0  0  0  0  0
  -24.1159  -14.8706   20.8646 N   0  0  0  0  0  0  0  0  0  0  0  0
  -25.7662  -25.7532   21.5693 N   0  0  0  0  0  0  0  0  0  0  0  0
  -21.5721  -17.5222   21.9168 N   0  0  0  0  0  0  0  0  0  0  0  0
  -22.8734  -12.9873   21.5856 N   0  0  0  0  0  0  0  0  0  0  0  0
  -27.1115  -11.4363   21.4151 N   0  0  0  0  0  0  0  0  0  0  0  0
  -27.8355  -23.0738   20.2145 N   0  0  0  0  0  0  0  0  0  0  0  0
  -24.8228  -29.0007   21.7167 N   0  0  0  0  0  0  0  0  0  0  0  0
  -20.2441  -16.5204   23.5980 N   0  0  0  0  0  0  0  0  0  0  0  0
  -21.2773  -29.5814   22.1169 N   0  3  0  0  0  0  0  0  0  0  0  0
  -20.4342  -17.6000   27.8056 N   0  3  1  0  0  0  0  0  0  0  0  0
  -24.9381  -10.8684   21.8760 O   0  0  0  0  0  0  0  0  0  0  0  0
  -28.0333  -24.6299   21.9356 O   0  0  0  0  0  0  0  0  0  0  0  0
  -26.3183  -27.3249   19.9380 O   0  0  0  0  0  0  0  0  0  0  0  0
  -23.4653  -28.5246   23.5354 O   0  0  0  0  0  0  0  0  0  0  0  0
  -19.4783  -18.3579   22.4604 O   0  0  0  0  0  0  0  0  0  0  0  0
  -31.6251  -14.3437   19.9286 O   0  0  0  0  0  0  0  0  0  0  0  0
  -23.5216  -22.2176   26.0985 O   0  0  0  0  0  0  0  0  0  1  0  0
  -34.4000  -18.6797   21.9045 F   0  0  0  0  0  0  0  0  0  0  0  0
  -33.6476  -14.0080   21.7832 F   0  0  0  0  0  0  0  0  0  0  0  0
  1  2  1  0  0  0  0
  1  5  2  0  0  0  0
  2  6  2  0  0  0  0
  3  8  2  0  0  0  0
  3 16  1  0  0  0  0
  4  9  1  0  0  0  0
  4 16  2  0  0  0  0
  5 18  1  0  0  0  0
  6 20  1  0  0  0  0
  7 10  2  0  0  0  0
  7 19  1  0  0  0  0
  8 22  1  0  0  0  0
  9 22  2  0  0  0  0
 10 23  1  0  0  0  0
 11 12  2  0  0  0  0
 11 24  1  0  0  0  0
 12 25  1  0  0  0  0
 13 21  1  0  0  0  0
 13 23  2  0  0  0  0
 14 25  2  0  0  0  0
 14 26  1  0  0  0  0
 15 28  1  0  0  0  0
 15 29  2  0  0  0  0
 16 27  1  0  0  0  0
 17 27  1  0  0  0  0
 17 30  2  0  0  0  0
 17 31  1  0  0  0  0
 18 20  2  0  0  0  0
 18 36  1  0  0  0  0
 19 21  2  0  0  0  0
 19 37  1  0  0  0  0
 20 45  1  0  0  0  0
 21 38  1  0  0  0  0
 22 84  1  0  0  0  0
 23 85  1  0  0  0  0
 24 26  2  0  0  0  0
 24 84  1  0  0  0  0
 25 86  1  0  0  0  0
 26 87  1  0  0  0  0
 27 66  2  0  0  0  0
 28 48  1  0  0  0  0
 28 67  2  0  0  0  0
 29 55  1  0  0  0  0
 29 68  1  0  0  0  0
 30 69  1  0  0  0  0
 30 72  1  0  0  0  0
 31 73  1  0  0  0  0
 31 79  2  0  0  0  0
 32 46  1  0  0  0  0
 32 74  1  0  0  0  0
 32 80  2  0  0  0  0
 33 63  1  0  0  0  0
 33 70  1  0  0  0  0
 33 81  2  0  0  0  0
 34 64  1  0  0  0  0
 34 75  1  0  0  0  0
 34 82  2  0  0  0  0
 35 71  1  0  0  0  0
 35 76  1  0  0  0  0
 35 83  2  0  0  0  0
 36 39  1  0  0  0  0
 37 46  1  0  0  0  0
 38 70  1  0  0  0  0
 39 41  1  0  0  0  0
 40 42  1  0  0  0  0
 40 43  1  0  0  0  0
 41 45  1  0  0  0  0
 42 47  1  0  0  0  0
 43 71  1  0  0  0  0
 44 47  1  0  0  0  0
 44 71  1  0  0  0  0
 45 74  1  0  0  0  0
 46 70  1  0  0  0  0
 47 69  1  0  0  0  0
 49 64  1  0  0  0  0
 50 65  1  0  0  0  0
 51 65  1  0  0  0  0
 52 65  1  0  0  0  0
 53 77  1  0  0  0  0
 54 78  1  0  0  0  0
 55 56  1  0  0  0  0
 56 60  1  0  0  0  0
 57 59  1  0  0  0  0
 57 61  1  0  0  0  0
 58 62  1  0  0  0  0
 58 68  1  0  0  0  0
 59 76  1  0  0  0  0
 60 78  1  0  0  0  0
 61 78  1  0  0  0  0
 62 85  1  0  0  0  0
 63 65  1  0  0  0  0
 63 75  1  0  0  0  0
 64 77  1  0  0  0  0
 66 69  1  0  0  0  0
 67 68  1  0  0  0  0
M  CHG  2  77   1  78   1
M  ISO  4  35 100  62 101  76 100  85 101
M  END
> <Batch ID>
0047

> <Smiles>
CNC(C)C(=O)NC(C(=O)N1Cc2cc([101O:1][101CH2:1]Cn3nc(C)cc3CCCN(C)CCC[100NH:0][100C:0](=O)N3CCCC(n4nc(-c5ccc(Oc6ccc(F)cc6F)cc5)c(C(N)=O)c4N)C3)ccc2CC1C(=O)NC1CCCc2ccccc21)C(C)(C)C

> <Shape>
0.195

> <Color>
0.079

> <Negative vol penalty>
0.000

$$$$

  -OEChem-04052317243D

 81 89  0     1  0  0  0  0  0999 V2000
  -31.0863  -20.9142   27.2119 C   0  0  0  0  0  0  0  0  0  0  0  0
  -31.0105  -21.6352   26.0246 C   0  0  0  0  0  0  0  0  0  0  0  0
  -25.1389  -15.9781   21.5005 C   0  0  0  0  0  0  0  0  0  0  0  0
  -25.1285  -15.4742   19.1377 C   0  0  0  0  0  0  0  0  0  0  0  0
  -29.9697  -20.2217   27.6781 C   0  0  0  0  0  0  0  0  0  0  0  0
  -29.8181  -21.6633   25.3021 C   0  0  0  0  0  0  0  0  0  0  0  0
  -28.6306  -26.3156   23.6926 C   0  0  0  0  0  0  0  0  0  0  0  0
  -23.9804  -15.2195   21.6674 C   0  0  0  0  0  0  0  0  0  0  0  0
  -23.9700  -14.7155   19.3046 C   0  0  0  0  0  0  0  0  0  0  0  0
  -29.3110  -26.7954   22.5743 C   0  0  0  0  0  0  0  0  0  0  0  0
  -23.1529  -11.6324   20.4213 C   0  0  0  0  0  0  0  0  0  0  0  0
  -23.0992  -10.3877   19.7941 C   0  0  0  0  0  0  0  0  0  0  0  0
  -27.4176  -26.2339   21.1890 C   0  0  0  0  0  0  0  0  0  0  0  0
  -21.1606  -11.1024   18.5419 C   0  0  0  0  0  0  0  0  0  0  0  0
  -30.4747  -23.6019   17.4481 C   0  0  0  0  0  0  0  0  0  0  0  0
  -25.7129  -16.1055   20.2356 C   0  0  0  0  0  0  0  0  0  0  0  0
  -28.2405  -16.4403   20.1523 C   0  0  0  0  0  0  0  0  0  0  0  0
  -28.7602  -20.2491   26.9661 C   0  0  0  0  0  0  0  0  0  0  0  0
  -27.3407  -25.7804   23.5656 C   0  0  0  0  0  0  0  0  0  0  0  0
  -28.6846  -20.9693   25.7586 C   0  0  0  0  0  0  0  0  0  0  0  0
  -26.7220  -25.7503   22.3076 C   0  0  0  0  0  0  0  0  0  0  0  0
  -23.3959  -14.5882   20.5695 C   0  0  0  0  0  0  0  0  0  0  0  0
  -28.7057  -26.7520   21.3218 C   0  0  0  0  0  0  0  0  0  0  0  0
  -22.2104  -12.6121   20.1090 C   0  0  0  0  0  0  0  0  0  0  0  0
  -22.1031  -10.1227   18.8543 C   0  0  0  0  0  0  0  0  0  0  0  0
  -21.2143  -12.3471   19.1692 C   0  0  0  0  0  0  0  0  0  0  0  0
  -26.9094  -16.8895   20.0625 C   0  0  0  0  0  0  0  0  0  0  0  0
  -29.3192  -24.3904   17.2911 C   0  0  0  0  0  0  0  0  0  0  0  0
  -31.3828  -24.4392   18.0486 C   0  0  0  0  0  0  0  0  0  0  0  0
  -28.9979  -17.5600   19.9093 C   0  0  0  0  0  0  0  0  0  0  0  0
  -28.7471  -15.1281   20.4303 C   0  0  0  0  0  0  0  0  0  0  0  0
  -26.0298  -22.9349   24.1028 C   0  0  0  0  0  0  0  0  0  0  0  0
  -23.2776  -24.5057   23.4100 C   0  0  0  0  0  0  0  0  0  0  0  0
  -27.7551  -22.5204   16.8884 C   0  0  0  0  0  0  0  0  0  0  0  0
  -21.7539  -27.1307   21.8496 C   0  0  0  0  0  0  0  0  0  0  0  0
  -27.5938  -19.4463   27.4852 C   0  0  0  0  0  0  0  0  0  0  0  0
  -26.6097  -25.2914   24.7858 C   0  0  0  0  0  0  0  0  0  0  0  0
  -25.3308  -25.2043   22.1209 C   0  0  0  0  0  0  0  0  0  0  0  0
  -26.2588  -19.8333   26.8540 C   0  0  0  0  0  0  0  0  0  0  0  0
  -28.9046  -22.3178   20.3329 C   0  0  0  0  0  0  0  0  0  0  0  0
  -26.3980  -19.9487   25.3394 C   0  0  0  0  0  0  0  0  0  0  0  0
  -28.6133  -20.8553   20.6668 C   0  0  0  0  0  0  0  0  0  0  0  0
  -27.8471  -22.9019   19.3999 C   0  0  0  0  0  0  0  0  0  0  0  0
  -27.3668  -20.6589   18.4712 C   0  0  0  0  0  0  0  0  0  0  0  0
  -27.4016  -21.0441   24.9595 C   0  0  1  0  0  0  0  0  0  0  0  0
  -25.5012  -24.2955   24.4592 C   0  0  1  0  0  0  0  0  0  0  0  0
  -28.4271  -20.0233   19.3859 C   0  0  2  0  0  0  0  0  0  0  0  0
  -32.7759  -24.2116   18.4743 C   0  0  0  0  0  0  0  0  0  0  0  0
  -19.4896  -28.1279   21.4299 C   0  0  0  0  0  0  0  0  0  0  0  0
  -28.0066  -24.2508   15.1579 C   0  0  0  0  0  0  0  0  0  0  0  0
  -26.7486  -24.6707   17.2733 C   0  0  0  0  0  0  0  0  0  0  0  0
  -22.7119  -22.3419   21.3345 C   0  0  0  0  0  0  0  0  0  0  0  0
  -20.9952  -23.8582   20.3235 C   0  0  0  0  0  0  0  0  0  0  0  0
  -20.7201  -23.0538   22.6687 C   0  0  0  0  0  0  0  0  0  0  0  0
  -22.4781  -29.6467   23.2295 C   0  0  0  0  0  0  0  0  0  0  0  0
  -31.3045  -26.8897   18.8240 C   0  0  0  0  0  0  0  0  0  0  0  0
  -30.7915  -27.1224   20.2410 C   0  0  0  0  0  0  0  0  0  1  0  0
  -22.4918  -24.7814   22.1508 C   0  0  1  0  0  0  0  0  0  0  0  0
  -20.7127  -28.1237   22.3337 C   0  0  2  0  0  0  0  0  0  0  0  0
  -28.0335  -23.9897   16.6951 C   0  0  0  0  0  0  0  0  0  0  0  0
  -21.7567  -23.5174   21.6223 C   0  0  0  0  0  0  0  0  0  0  0  0
  -26.8227  -18.1931   19.7844 N   0  0  0  0  0  0  0  0  0  0  0  0
  -29.4761  -25.6332   17.7546 N   0  0  0  0  0  0  0  0  0  0  0  0
  -30.7409  -25.6319   18.2089 N   0  0  0  0  0  0  0  0  0  0  0  0
  -28.1090  -18.5725   19.6974 N   0  0  0  0  0  0  0  0  0  0  0  0
  -24.6596  -24.7323   23.3433 N   0  0  0  0  0  0  0  0  0  0  0  0
  -27.6802  -22.0657   18.2052 N   0  0  0  0  0  0  0  0  0  0  0  0
  -30.3309  -17.7675   19.8585 N   0  0  0  0  0  0  0  0  0  0  0  0
  -27.8306  -14.0921   20.6560 N   0  0  0  0  0  0  0  0  0  0  0  0
  -26.7969  -22.3521   25.0934 N   0  0  0  0  0  0  0  0  0  0  0  0
  -21.6090  -25.9016   22.4575 N   0  0  0  0  0  0  0  0  0  0  0  0
  -21.2826  -29.5004   22.3598 N   0  3  0  0  0  0  0  0  0  0  0  0
  -29.9761  -14.8852   20.4934 O   0  0  0  0  0  0  0  0  0  0  0  0
  -25.7604  -22.4491   23.0104 O   0  0  0  0  0  0  0  0  0  0  0  0
  -22.6859  -24.1109   24.4178 O   0  0  0  0  0  0  0  0  0  0  0  0
  -27.6115  -21.7994   15.8975 O   0  0  0  0  0  0  0  0  0  0  0  0
  -22.6078  -27.4156   21.0129 O   0  0  0  0  0  0  0  0  0  0  0  0
  -22.2655  -13.8476   20.7320 O   0  0  0  0  0  0  0  0  0  0  0  0
  -29.3678  -27.2191   20.2285 O   0  0  0  0  0  0  0  0  0  1  0  0
  -22.0525   -8.9280   18.2509 F   0  0  0  0  0  0  0  0  0  0  0  0
  -20.3068  -13.2848   18.8641 F   0  0  0  0  0  0  0  0  0  0  0  0
  1  2  1  0  0  0  0
  1  5  2  0  0  0  0
  2  6  2  0  0  0  0
  3  8  2  0  0  0  0
  3 16  1  0  0  0  0
  4  9  1  0  0  0  0
  4 16  2  0  0  0  0
  5 18  1  0  0  0  0
  6 20  1  0  0  0  0
  7 10  2  0  0  0  0
  7 19  1  0  0  0  0
  8 22  1  0  0  0  0
  9 22  2  0  0  0  0
 10 23  1  0  0  0  0
 11 12  2  0  0  0  0
 11 24  1  0  0  0  0
 12 25  1  0  0  0  0
 13 21  1  0  0  0  0
 13 23  2  0  0  0  0
 14 25  2  0  0  0  0
 14 26  1  0  0  0  0
 15 28  1  0  0  0  0
 15 29  2  0  0  0  0
 16 27  1  0  0  0  0
 17 27  1  0  0  0  0
 17 30  2  0  0  0  0
 17 31  1  0  0  0  0
 18 20  2  0  0  0  0
 18 36  1  0  0  0  0
 19 21  2  0  0  0  0
 19 37  1  0  0  0  0
 20 45  1  0  0  0  0
 21 38  1  0  0  0  0
 22 78  1  0  0  0  0
 23 79  1  0  0  0  0
 24 26  2  0  0  0  0
 24 78  1  0  0  0  0
 25 80  1  0  0  0  0
 26 81  1  0  0  0  0
 27 62  2  0  0  0  0
 28 60  1  0  0  0  0
 28 63  2  0  0  0  0
 29 48  1  0  0  0  0
 29 64  1  0  0  0  0
 30 65  1  0  0  0  0
 30 68  1  0  0  0  0
 31 69  1  0  0  0  0
 31 73  2  0  0  0  0
 32 46  1  0  0  0  0
 32 70  1  0  0  0  0
 32 74  2  0  0  0  0
 33 58  1  0  0  0  0
 33 66  1  0  0  0  0
 33 75  2  0  0  0  0
 34 60  1  0  0  0  0
 34 67  1  0  0  0  0
 34 76  2  0  0  0  0
 35 59  1  0  0  0  0
 35 71  1  0  0  0  0
 35 77  2  0  0  0  0
 36 39  1  0  0  0  0
 37 46  1  0  0  0  0
 38 66  1  0  0  0  0
 39 41  1  0  0  0  0
 40 42  1  0  0  0  0
 40 43  1  0  0  0  0
 41 45  1  0  0  0  0
 42 47  1  0  0  0  0
 43 67  1  0  0  0  0
 44 47  1  0  0  0  0
 44 67  1  0  0  0  0
 45 70  1  0  0  0  0
 46 66  1  0  0  0  0
 47 65  1  0  0  0  0
 49 59  1  0  0  0  0
 50 60  1  0  0  0  0
 51 60  1  0  0  0  0
 52 61  1  0  0  0  0
 53 61  1  0  0  0  0
 54 61  1  0  0  0  0
 55 72  1  0  0  0  0
 56 57  1  0  0  0  0
 56 64  1  0  0  0  0
 57 79  1  0  0  0  0
 58 61  1  0  0  0  0
 58 71  1  0  0  0  0
 59 72  1  0  0  0  0
 62 65  1  0  0  0  0
 63 64  1  0  0  0  0
M  CHG  1  72   1
M  ISO  4  34 100  57 101  60 100  79 101
M  END
> <Batch ID>
0047

> <Smiles>
CNC(C)C(=O)NC(C(=O)N1Cc2cc([101O:1][101CH2:1]Cn3nc([100C:0](C)(C)[100C:0](=O)N4CCCC(n5nc(-c6ccc(Oc7ccc(F)cc7F)cc6)c(C(N)=O)c5N)C4)cc3C)ccc2CC1C(=O)NC1CCCc2ccccc21)C(C)(C)C

> <Shape>
0.188

> <Color>
0.055

> <Negative vol penalty>
0.000

$$$$

  -OEChem-04052317243D

 84 92  0     1  0  0  0  0  0999 V2000
  -28.7921  -30.5998   27.2996 C   0  0  0  0  0  0  0  0  0  0  0  0
  -28.6605  -29.7059   26.2417 C   0  0  0  0  0  0  0  0  0  0  0  0
  -27.0064  -11.0663   20.5482 C   0  0  0  0  0  0  0  0  0  0  0  0
  -26.7163  -11.8339   18.2758 C   0  0  0  0  0  0  0  0  0  0  0  0
  -27.6647  -31.2365   27.8170 C   0  0  0  0  0  0  0  0  0  0  0  0
  -27.4013  -29.4473   25.7014 C   0  0  0  0  0  0  0  0  0  0  0  0
  -27.4232  -29.4455   20.6374 C   0  0  0  0  0  0  0  0  0  0  0  0
  -25.9259  -10.1980   20.3928 C   0  0  0  0  0  0  0  0  0  0  0  0
  -25.6359  -10.9656   18.1204 C   0  0  0  0  0  0  0  0  0  0  0  0
  -27.9210  -28.3080   20.0032 C   0  0  0  0  0  0  0  0  0  0  0  0
  -25.3347   -7.1861   18.9744 C   0  0  0  0  0  0  0  0  0  0  0  0
  -25.4804   -5.8799   19.4415 C   0  0  0  0  0  0  0  0  0  0  0  0
  -25.6659  -27.5392   19.6253 C   0  0  0  0  0  0  0  0  0  0  0  0
  -23.6172   -6.2092   20.9438 C   0  0  0  0  0  0  0  0  0  0  0  0
  -29.5151  -24.5681   17.2794 C   0  0  0  0  0  0  0  0  0  0  0  0
  -27.4016  -11.8843   19.4897 C   0  0  0  0  0  0  0  0  0  0  0  0
  -29.8726  -12.5091   19.3845 C   0  0  0  0  0  0  0  0  0  0  0  0
  -26.3923  -30.9928   27.2764 C   0  0  0  0  0  0  0  0  0  0  0  0
  -26.0409  -29.6333   20.7802 C   0  0  0  0  0  0  0  0  0  0  0  0
  -26.2557  -30.0802   26.2130 C   0  0  0  0  0  0  0  0  0  0  0  0
  -25.1531  -28.6811   20.2594 C   0  0  0  0  0  0  0  0  0  0  0  0
  -25.2406  -10.1476   19.1789 C   0  0  0  0  0  0  0  0  0  0  0  0
  -27.0424  -27.3532   19.4996 C   0  0  0  0  0  0  0  0  0  0  0  0
  -24.3303   -8.0039   19.4921 C   0  0  0  0  0  0  0  0  0  0  0  0
  -24.6216   -5.3914   20.4261 C   0  0  0  0  0  0  0  0  0  0  0  0
  -23.4715   -7.5155   20.4767 C   0  0  0  0  0  0  0  0  0  0  0  0
  -28.5173  -12.7819   19.6498 C   0  0  0  0  0  0  0  0  0  0  0  0
  -29.9062  -24.2445   16.0108 C   0  0  0  0  0  0  0  0  0  0  0  0
  -30.5251  -13.6772   19.6949 C   0  0  0  0  0  0  0  0  0  0  0  0
  -28.1249  -23.0278   16.5080 C   0  0  0  0  0  0  0  0  0  0  0  0
  -30.4869  -11.3074   18.9006 C   0  0  0  0  0  0  0  0  0  0  0  0
  -24.0568  -29.9012   23.2490 C   0  0  0  0  0  0  0  0  0  0  0  0
  -21.8809  -30.5440   20.9307 C   0  0  0  0  0  0  0  0  0  0  0  0
  -20.9516  -30.2297   17.6620 C   0  0  0  0  0  0  0  0  0  0  0  0
  -28.7735  -19.3997   19.8845 C   0  0  0  0  0  0  0  0  0  0  0  0
  -25.1970  -31.6688   27.9001 C   0  0  0  0  0  0  0  0  0  0  0  0
  -25.5194  -30.8787   21.4431 C   0  0  0  0  0  0  0  0  0  0  0  0
  -23.6600  -28.8456   20.3690 C   0  0  0  0  0  0  0  0  0  0  0  0
  -23.9467  -31.6239   27.0255 C   0  0  0  0  0  0  0  0  0  0  0  0
  -30.1959  -17.5070   22.5437 C   0  0  0  0  0  0  0  0  0  0  0  0
  -23.7338  -30.2192   26.4703 C   0  0  0  0  0  0  0  0  0  0  0  0
  -30.0492  -16.0568   22.0796 C   0  0  0  0  0  0  0  0  0  0  0  0
  -29.0008  -18.3584   22.1207 C   0  0  0  0  0  0  0  0  0  0  0  0
  -28.5408  -16.8635   20.2161 C   0  0  0  0  0  0  0  0  0  0  0  0
  -24.9099  -29.7923   25.5838 C   0  0  1  0  0  0  0  0  0  0  0  0
  -24.1037  -30.7173   21.9883 C   0  0  1  0  0  0  0  0  0  0  0  0
  -29.7480  -15.9786   20.5708 C   0  0  2  0  0  0  0  0  0  0  0  0
  -31.0114  -24.7353   15.1837 C   0  0  0  0  0  0  0  0  0  0  0  0
  -19.1034  -30.8276   16.0732 C   0  0  0  0  0  0  0  0  0  0  0  0
  -25.5667  -22.6464   16.5487 C   0  0  0  0  0  0  0  0  0  0  0  0
  -27.0111  -21.3945   14.9706 C   0  0  0  0  0  0  0  0  0  0  0  0
  -20.1467  -28.3329   22.1196 C   0  0  0  0  0  0  0  0  0  0  0  0
  -18.8191  -28.3286   19.9969 C   0  0  0  0  0  0  0  0  0  0  0  0
  -18.8918  -30.3786   21.4164 C   0  0  0  0  0  0  0  0  0  0  0  0
  -22.7712  -31.8334   15.9662 C   0  0  0  0  0  0  0  0  0  0  0  0
  -27.1221  -20.8607   17.4281 C   0  0  0  0  0  0  0  0  0  0  0  0
  -27.6417  -23.8297   18.8594 C   0  0  0  0  0  0  0  0  0  0  0  0
  -28.5340  -20.2926   17.5813 C   0  0  0  0  0  0  0  0  0  0  0  0
  -26.7399  -25.0541   18.9721 C   0  0  0  0  0  0  0  0  0  1  0  0
  -20.9393  -29.7168   20.0892 C   0  0  1  0  0  0  0  0  0  0  0  0
  -20.4435  -31.2475   16.6568 C   0  0  2  0  0  0  0  0  0  0  0  0
  -27.0125  -22.0519   16.3938 C   0  0  0  0  0  0  0  0  0  0  0  0
  -19.7273  -29.1849   20.9050 C   0  0  0  0  0  0  0  0  0  0  0  0
  -28.3191  -14.0256   20.0947 N   0  0  0  0  0  0  0  0  0  0  0  0
  -28.4106  -23.8007   17.5608 N   0  0  0  0  0  0  0  0  0  0  0  0
  -29.5586  -14.5447   20.1114 N   0  0  0  0  0  0  0  0  0  0  0  0
  -29.0285  -23.2891   15.5580 N   0  3  0  0  0  0  0  0  0  0  0  0
  -23.1991  -30.0770   21.0312 N   0  0  0  0  0  0  0  0  0  0  0  0
  -28.7698  -18.2413   20.6789 N   0  0  0  0  0  0  0  0  0  0  0  0
  -31.8256  -14.0366   19.6496 N   0  0  0  0  0  0  0  0  0  0  0  0
  -29.6698  -10.2008   18.6318 N   0  0  0  0  0  0  0  0  0  0  0  0
  -24.8150  -30.4179   24.2822 N   0  0  0  0  0  0  0  0  0  0  0  0
  -20.5727  -30.5494   18.9486 N   0  0  0  0  0  0  0  0  0  0  0  0
  -28.5530  -19.1992   18.5274 N   0  0  0  0  0  0  0  0  0  0  0  0
  -21.4160  -31.4008   15.5381 N   0  3  0  0  0  0  0  0  0  0  0  0
  -31.7257  -11.2122   18.7277 O   0  0  0  0  0  0  0  0  0  0  0  0
  -23.3814  -28.8792   23.2824 O   0  0  0  0  0  0  0  0  0  0  0  0
  -21.4641  -31.5707   21.4727 O   0  0  0  0  0  0  0  0  0  0  0  0
  -21.6148  -29.2471   17.3377 O   0  0  0  0  0  0  0  0  0  0  0  0
  -28.9648  -20.5285   20.3495 O   0  0  0  0  0  0  0  0  0  0  0  0
  -24.1864   -9.3002   19.0268 O   0  0  0  0  0  0  0  0  0  0  0  0
  -27.5257  -26.2418   18.8808 O   0  0  0  0  0  0  0  0  0  1  0  0
  -24.7607   -4.1365   20.8734 F   0  0  0  0  0  0  0  0  0  0  0  0
  -22.5039   -8.2960   20.9770 F   0  0  0  0  0  0  0  0  0  0  0  0
  1  2  1  0  0  0  0
  1  5  2  0  0  0  0
  2  6  2  0  0  0  0
  3  8  2  0  0  0  0
  3 16  1  0  0  0  0
  4  9  1  0  0  0  0
  4 16  2  0  0  0  0
  5 18  1  0  0  0  0
  6 20  1  0  0  0  0
  7 10  2  0  0  0  0
  7 19  1  0  0  0  0
  8 22  1  0  0  0  0
  9 22  2  0  0  0  0
 10 23  1  0  0  0  0
 11 12  2  0  0  0  0
 11 24  1  0  0  0  0
 12 25  1  0  0  0  0
 13 21  1  0  0  0  0
 13 23  2  0  0  0  0
 14 25  2  0  0  0  0
 14 26  1  0  0  0  0
 15 28  2  0  0  0  0
 15 65  1  0  0  0  0
 16 27  1  0  0  0  0
 17 27  1  0  0  0  0
 17 29  2  0  0  0  0
 17 31  1  0  0  0  0
 18 20  2  0  0  0  0
 18 36  1  0  0  0  0
 19 21  2  0  0  0  0
 19 37  1  0  0  0  0
 20 45  1  0  0  0  0
 21 38  1  0  0  0  0
 22 81  1  0  0  0  0
 23 82  1  0  0  0  0
 24 26  2  0  0  0  0
 24 81  1  0  0  0  0
 25 83  1  0  0  0  0
 26 84  1  0  0  0  0
 27 64  2  0  0  0  0
 28 48  1  0  0  0  0
 28 67  1  0  0  0  0
 29 66  1  0  0  0  0
 29 70  1  0  0  0  0
 30 62  1  0  0  0  0
 30 65  1  0  0  0  0
 30 67  2  0  0  0  0
 31 71  1  0  0  0  0
 31 76  2  0  0  0  0
 32 46  1  0  0  0  0
 32 72  1  0  0  0  0
 32 77  2  0  0  0  0
 33 60  1  0  0  0  0
 33 68  1  0  0  0  0
 33 78  2  0  0  0  0
 34 61  1  0  0  0  0
 34 73  1  0  0  0  0
 34 79  2  0  0  0  0
 35 69  1  0  0  0  0
 35 74  1  0  0  0  0
 35 80  2  0  0  0  0
 36 39  1  0  0  0  0
 37 46  1  0  0  0  0
 38 68  1  0  0  0  0
 39 41  1  0  0  0  0
 40 42  1  0  0  0  0
 40 43  1  0  0  0  0
 41 45  1  0  0  0  0
 42 47  1  0  0  0  0
 43 69  1  0  0  0  0
 44 47  1  0  0  0  0
 44 69  1  0  0  0  0
 45 72  1  0  0  0  0
 46 68  1  0  0  0  0
 47 66  1  0  0  0  0
 49 61  1  0  0  0  0
 50 62  1  0  0  0  0
 51 62  1  0  0  0  0
 52 63  1  0  0  0  0
 53 63  1  0  0  0  0
 54 63  1  0  0  0  0
 55 75  1  0  0  0  0
 56 58  1  0  0  0  0
 56 62  1  0  0  0  0
 57 59  1  0  0  0  0
 57 65  1  0  0  0  0
 58 74  1  0  0  0  0
 59 82  1  0  0  0  0
 60 63  1  0  0  0  0
 60 73  1  0  0  0  0
 61 75  1  0  0  0  0
 64 66  1  0  0  0  0
M  CHG  2  67   1  75   1
M  ISO  4  35 100  59 101  74 100  82 101
M  END
> <Batch ID>
0047

> <Smiles>
CNC(C)C(=O)NC(C(=O)N1Cc2cc([101O:1][101CH2:1]Cn3cc(C)nc3C(C)(C)CC[100NH:0][100C:0](=O)N3CCCC(n4nc(-c5ccc(Oc6ccc(F)cc6F)cc5)c(C(N)=O)c4N)C3)ccc2CC1C(=O)NC1CCCc2ccccc21)C(C)(C)C

> <Shape>
0.259

> <Color>
0.086

> <Negative vol penalty>
0.000

$$$$

  -OEChem-04052317243D

 81 89  0     1  0  0  0  0  0999 V2000
  -29.7280  -13.4100   20.9563 C   0  0  0  0  0  0  0  0  0  0  0  0
  -29.7414  -14.6842   20.3981 C   0  0  0  0  0  0  0  0  0  0  0  0
  -22.8896  -28.7425   20.7082 C   0  0  0  0  0  0  0  0  0  0  0  0
  -23.9422  -29.9338   22.5275 C   0  0  0  0  0  0  0  0  0  0  0  0
  -28.5316  -12.6986   21.0381 C   0  0  0  0  0  0  0  0  0  0  0  0
  -28.5586  -15.2474   19.9204 C   0  0  0  0  0  0  0  0  0  0  0  0
  -27.9959  -20.0767   21.3368 C   0  0  0  0  0  0  0  0  0  0  0  0
  -21.6382  -29.1684   21.1533 C   0  0  0  0  0  0  0  0  0  0  0  0
  -22.6908  -30.3598   22.9726 C   0  0  0  0  0  0  0  0  0  0  0  0
  -28.7268  -21.0351   20.6360 C   0  0  0  0  0  0  0  0  0  0  0  0
  -19.4357  -28.3235   23.5739 C   0  0  0  0  0  0  0  0  0  0  0  0
  -18.4111  -27.3785   23.6263 C   0  0  0  0  0  0  0  0  0  0  0  0
  -26.7656  -21.5734   19.3387 C   0  0  0  0  0  0  0  0  0  0  0  0
  -17.1140  -28.6989   22.0735 C   0  0  0  0  0  0  0  0  0  0  0  0
  -31.5394  -26.1257   18.3039 C   0  0  0  0  0  0  0  0  0  0  0  0
  -24.0417  -29.1251   21.3953 C   0  0  0  0  0  0  0  0  0  0  0  0
  -25.7824  -27.3570   20.8026 C   0  0  0  0  0  0  0  0  0  0  0  0
  -27.3319  -13.2573   20.5700 C   0  0  0  0  0  0  0  0  0  0  0  0
  -26.6449  -19.8515   21.0358 C   0  0  0  0  0  0  0  0  0  0  0  0
  -27.3453  -14.5423   19.9948 C   0  0  0  0  0  0  0  0  0  0  0  0
  -26.0191  -20.6134   20.0388 C   0  0  0  0  0  0  0  0  0  0  0  0
  -21.5388  -29.9771   22.2854 C   0  0  0  0  0  0  0  0  0  0  0  0
  -28.1124  -21.7816   19.6348 C   0  0  0  0  0  0  0  0  0  0  0  0
  -19.2994  -29.4563   22.7714 C   0  0  0  0  0  0  0  0  0  0  0  0
  -17.2503  -27.5662   22.8761 C   0  0  0  0  0  0  0  0  0  0  0  0
  -18.1386  -29.6439   22.0212 C   0  0  0  0  0  0  0  0  0  0  0  0
  -25.3346  -28.6849   20.9364 C   0  0  0  0  0  0  0  0  0  0  0  0
  -31.8579  -25.9168   16.9801 C   0  0  0  0  0  0  0  0  0  0  0  0
  -31.1114  -23.7611   17.1408 C   0  0  0  0  0  0  0  0  0  0  0  0
  -30.7937  -23.9699   18.4648 C   0  0  0  0  0  0  0  0  0  0  0  0
  -27.0682  -27.4737   20.3342 C   0  0  0  0  0  0  0  0  0  0  0  0
  -25.0972  -26.1278   21.0771 C   0  0  0  0  0  0  0  0  0  0  0  0
  -24.9673  -17.3703   19.9713 C   0  0  0  0  0  0  0  0  0  0  0  0
  -22.4464  -19.3361   20.5214 C   0  0  0  0  0  0  0  0  0  0  0  0
  -21.2784  -22.5252   20.8564 C   0  0  0  0  0  0  0  0  0  0  0  0
  -30.8061  -29.8006   16.9049 C   0  0  0  0  0  0  0  0  0  0  0  0
  -26.0718  -12.4312   20.6367 C   0  0  0  0  0  0  0  0  0  0  0  0
  -25.8633  -18.8327   21.8191 C   0  0  0  0  0  0  0  0  0  0  0  0
  -24.5658  -20.4243   19.6912 C   0  0  0  0  0  0  0  0  0  0  0  0
  -24.7966  -13.2491   20.4491 C   0  0  0  0  0  0  0  0  0  0  0  0
  -30.0704  -31.5249   19.9319 C   0  0  0  0  0  0  0  0  0  0  0  0
  -24.9395  -14.1958   19.2616 C   0  0  0  0  0  0  0  0  0  0  0  0
  -28.8068  -30.8345   20.4482 C   0  0  0  0  0  0  0  0  0  0  0  0
  -30.0744  -31.6284   18.4083 C   0  0  0  0  0  0  0  0  0  0  0  0
  -28.6023  -29.6611   18.2166 C   0  0  0  0  0  0  0  0  0  0  0  0
  -26.0786  -15.1971   19.4883 C   0  0  1  0  0  0  0  0  0  0  0  0
  -24.6288  -18.3281   21.0784 C   0  0  1  0  0  0  0  0  0  0  0  0
  -28.5786  -29.4833   19.7444 C   0  0  2  0  0  0  0  0  0  0  0  0
  -30.8753  -22.4444   16.4833 C   0  0  0  0  0  0  0  0  0  0  0  0
  -19.1658  -23.8167   21.2649 C   0  0  0  0  0  0  0  0  0  0  0  0
  -21.5807  -18.8265   17.6403 C   0  0  0  0  0  0  0  0  0  0  0  0
  -20.0763  -20.8203   17.8131 C   0  0  0  0  0  0  0  0  0  0  0  0
  -19.7119  -18.8523   19.3021 C   0  0  0  0  0  0  0  0  0  0  0  0
  -22.3437  -23.7028   23.3539 C   0  0  0  0  0  0  0  0  0  0  0  0
  -32.4516  -27.0112   16.1642 C   0  0  0  0  0  0  0  0  0  0  0  0
  -30.1952  -22.8818   19.3069 C   0  0  0  0  0  0  0  0  0  1  0  0
  -31.4102  -27.8830   15.4499 C   0  0  0  0  0  0  0  0  0  0  0  0
  -21.6961  -20.3650   19.7105 C   0  0  1  0  0  0  0  0  0  0  0  0
  -20.3835  -23.1655   21.9022 C   0  0  2  0  0  0  0  0  0  0  0  0
  -20.7941  -19.7185   18.6215 C   0  0  0  0  0  0  0  0  0  0  0  0
  -31.0017  -25.1560   19.0701 N   0  0  0  0  0  0  0  0  0  0  0  0
  -26.2608  -29.5796   20.5818 N   0  0  0  0  0  0  0  0  0  0  0  0
  -31.6495  -24.7307   16.3748 N   0  0  0  0  0  0  0  0  0  0  0  0
  -27.3034  -28.8124   20.2206 N   0  0  0  0  0  0  0  0  0  0  0  0
  -23.8458  -19.4117   20.4810 N   0  0  0  0  0  0  0  0  0  0  0  0
  -29.8547  -30.3129   17.8023 N   0  0  0  0  0  0  0  0  0  0  0  0
  -28.0093  -26.5609   20.0125 N   0  0  0  0  0  0  0  0  0  0  0  0
  -24.3583  -25.5302   20.0468 N   0  0  0  0  0  0  0  0  0  0  0  0
  -25.6560  -16.2477   20.3895 N   0  0  0  0  0  0  0  0  0  0  0  0
  -20.9739  -21.1934   20.6699 N   0  0  0  0  0  0  0  0  0  0  0  0
  -30.5239  -28.5449   16.3812 N   0  0  0  0  0  0  0  0  0  0  0  0
  -21.1334  -24.2090   22.6570 N   0  3  0  0  0  0  0  0  0  0  0  0
  -25.1255  -25.5842   22.2072 O   0  0  0  0  0  0  0  0  0  0  0  0
  -24.6275  -17.6299   18.8229 O   0  0  0  0  0  0  0  0  0  0  0  0
  -21.8140  -18.5008   21.1725 O   0  0  0  0  0  0  0  0  0  0  0  0
  -22.1570  -23.1455   20.2616 O   0  0  0  0  0  0  0  0  0  0  0  0
  -31.8337  -30.4142   16.5976 O   0  0  0  0  0  0  0  0  0  0  0  0
  -20.3179  -30.3932   22.7199 O   0  0  0  0  0  0  0  0  0  0  0  0
  -28.8237  -22.7172   18.9488 O   0  0  0  0  0  0  0  0  0  1  0  0
  -16.2671  -26.6578   22.9253 F   0  0  0  0  0  0  0  0  0  0  0  0
  -18.0024  -30.7296   21.2475 F   0  0  0  0  0  0  0  0  0  0  0  0
  1  2  1  0  0  0  0
  1  5  2  0  0  0  0
  2  6  2  0  0  0  0
  3  8  2  0  0  0  0
  3 16  1  0  0  0  0
  4  9  1  0  0  0  0
  4 16  2  0  0  0  0
  5 18  1  0  0  0  0
  6 20  1  0  0  0  0
  7 10  2  0  0  0  0
  7 19  1  0  0  0  0
  8 22  1  0  0  0  0
  9 22  2  0  0  0  0
 10 23  1  0  0  0  0
 11 12  2  0  0  0  0
 11 24  1  0  0  0  0
 12 25  1  0  0  0  0
 13 21  1  0  0  0  0
 13 23  2  0  0  0  0
 14 25  2  0  0  0  0
 14 26  1  0  0  0  0
 15 28  1  0  0  0  0
 15 61  2  0  0  0  0
 16 27  1  0  0  0  0
 17 27  1  0  0  0  0
 17 31  2  0  0  0  0
 17 32  1  0  0  0  0
 18 20  2  0  0  0  0
 18 37  1  0  0  0  0
 19 21  2  0  0  0  0
 19 38  1  0  0  0  0
 20 46  1  0  0  0  0
 21 39  1  0  0  0  0
 22 78  1  0  0  0  0
 23 79  1  0  0  0  0
 24 26  2  0  0  0  0
 24 78  1  0  0  0  0
 25 80  1  0  0  0  0
 26 81  1  0  0  0  0
 27 62  2  0  0  0  0
 28 55  1  0  0  0  0
 28 63  2  0  0  0  0
 29 30  2  0  0  0  0
 29 49  1  0  0  0  0
 29 63  1  0  0  0  0
 30 56  1  0  0  0  0
 30 61  1  0  0  0  0
 31 64  1  0  0  0  0
 31 67  1  0  0  0  0
 32 68  1  0  0  0  0
 32 73  2  0  0  0  0
 33 47  1  0  0  0  0
 33 69  1  0  0  0  0
 33 74  2  0  0  0  0
 34 58  1  0  0  0  0
 34 65  1  0  0  0  0
 34 75  2  0  0  0  0
 35 59  1  0  0  0  0
 35 70  1  0  0  0  0
 35 76  2  0  0  0  0
 36 66  1  0  0  0  0
 36 71  1  0  0  0  0
 36 77  2  0  0  0  0
 37 40  1  0  0  0  0
 38 47  1  0  0  0  0
 39 65  1  0  0  0  0
 40 42  1  0  0  0  0
 41 43  1  0  0  0  0
 41 44  1  0  0  0  0
 42 46  1  0  0  0  0
 43 48  1  0  0  0  0
 44 66  1  0  0  0  0
 45 48  1  0  0  0  0
 45 66  1  0  0  0  0
 46 69  1  0  0  0  0
 47 65  1  0  0  0  0
 48 64  1  0  0  0  0
 50 59  1  0  0  0  0
 51 60  1  0  0  0  0
 52 60  1  0  0  0  0
 53 60  1  0  0  0  0
 54 72  1  0  0  0  0
 55 57  1  0  0  0  0
 56 79  1  0  0  0  0
 57 71  1  0  0  0  0
 58 60  1  0  0  0  0
 58 70  1  0  0  0  0
 59 72  1  0  0  0  0
 62 64  1  0  0  0  0
M  CHG  1  72   1
M  ISO  4  36 100  56 101  71 100  79 101
M  END
> <Batch ID>
0047

> <Smiles>
CNC(C)C(=O)NC(C(=O)N1Cc2cc([101O:1][101CH2:1]c3ncc(CC[100NH:0][100C:0](=O)N4CCCC(n5nc(-c6ccc(Oc7ccc(F)cc7F)cc6)c(C(N)=O)c5N)C4)nc3C)ccc2CC1C(=O)NC1CCCc2ccccc21)C(C)(C)C

> <Shape>
0.208

> <Color>
0.080

> <Negative vol penalty>
0.000

$$$$

  -OEChem-04052317243D

 81 89  0     1  0  0  0  0  0999 V2000
  -31.2227  -24.6310   18.1290 C   0  0  0  0  0  0  0  0  0  0  0  0
  -29.9664  -24.5642   18.7229 C   0  0  0  0  0  0  0  0  0  0  0  0
  -28.8684  -16.0601   21.8337 C   0  0  0  0  0  0  0  0  0  0  0  0
  -26.6365  -16.5904   21.0758 C   0  0  0  0  0  0  0  0  0  0  0  0
  -32.1774  -25.5217   18.6182 C   0  0  0  0  0  0  0  0  0  0  0  0
  -29.6645  -25.3873   19.8072 C   0  0  0  0  0  0  0  0  0  0  0  0
  -25.0961  -27.5349   19.4031 C   0  0  0  0  0  0  0  0  0  0  0  0
  -28.7619  -14.7928   21.2607 C   0  0  0  0  0  0  0  0  0  0  0  0
  -26.5300  -15.3232   20.5027 C   0  0  0  0  0  0  0  0  0  0  0  0
  -23.9906  -26.7416   19.7067 C   0  0  0  0  0  0  0  0  0  0  0  0
  -25.9118  -12.1646   21.5382 C   0  0  0  0  0  0  0  0  0  0  0  0
  -24.7285  -11.4563   21.7471 C   0  0  0  0  0  0  0  0  0  0  0  0
  -23.8674  -27.7593   21.8903 C   0  0  0  0  0  0  0  0  0  0  0  0
  -24.3477  -11.3894   19.3622 C   0  0  0  0  0  0  0  0  0  0  0  0
  -23.9165  -23.5750   24.3640 C   0  0  0  0  0  0  0  0  0  0  0  0
  -27.8056  -16.9589   21.7413 C   0  0  0  0  0  0  0  0  0  0  0  0
  -28.4005  -19.4395   21.7226 C   0  0  0  0  0  0  0  0  0  0  0  0
  -31.8837  -26.3629   19.7029 C   0  0  0  0  0  0  0  0  0  0  0  0
  -25.6032  -28.4401   20.3465 C   0  0  0  0  0  0  0  0  0  0  0  0
  -30.6166  -26.2891   20.3123 C   0  0  0  0  0  0  0  0  0  0  0  0
  -24.9780  -28.5648   21.5953 C   0  0  0  0  0  0  0  0  0  0  0  0
  -27.5927  -14.4244   20.5951 C   0  0  0  0  0  0  0  0  0  0  0  0
  -23.3778  -26.8516   20.9514 C   0  0  0  0  0  0  0  0  0  0  0  0
  -26.3131  -12.4854   20.2414 C   0  0  0  0  0  0  0  0  0  0  0  0
  -23.9464  -11.0687   20.6591 C   0  0  0  0  0  0  0  0  0  0  0  0
  -25.5310  -12.0977   19.1534 C   0  0  0  0  0  0  0  0  0  0  0  0
  -27.9148  -18.2678   22.3335 C   0  0  0  0  0  0  0  0  0  0  0  0
  -22.7383  -23.3514   25.0188 C   0  0  0  0  0  0  0  0  0  0  0  0
  -28.2977  -20.4025   22.6965 C   0  0  0  0  0  0  0  0  0  0  0  0
  -22.2805  -23.6604   22.8751 C   0  0  0  0  0  0  0  0  0  0  0  0
  -28.8998  -19.6394   20.3936 C   0  0  0  0  0  0  0  0  0  0  0  0
  -28.3701  -28.7717   21.8754 C   0  0  0  0  0  0  0  0  0  0  0  0
  -27.0060  -31.5146   22.9420 C   0  0  0  0  0  0  0  0  0  0  0  0
  -24.1514  -33.2648   23.6015 C   0  0  0  0  0  0  0  0  0  0  0  0
  -24.7921  -20.9679   27.5175 C   0  0  0  0  0  0  0  0  0  0  0  0
  -32.9639  -27.2759   20.2268 C   0  0  0  0  0  0  0  0  0  0  0  0
  -26.7801  -29.3077   19.9938 C   0  0  0  0  0  0  0  0  0  0  0  0
  -25.4711  -29.5359   22.6356 C   0  0  0  0  0  0  0  0  0  0  0  0
  -32.4382  -28.3794   21.1412 C   0  0  0  0  0  0  0  0  0  0  0  0
  -28.3518  -20.9411   27.4502 C   0  0  0  0  0  0  0  0  0  0  0  0
  -31.4630  -27.8056   22.1642 C   0  0  0  0  0  0  0  0  0  0  0  0
  -28.6872  -20.3587   26.0761 C   0  0  0  0  0  0  0  0  0  0  0  0
  -27.1120  -20.2849   28.0540 C   0  0  0  0  0  0  0  0  0  0  0  0
  -26.2537  -19.7199   25.8139 C   0  0  0  0  0  0  0  0  0  0  0  0
  -30.2429  -27.1832   21.4746 C   0  0  1  0  0  0  0  0  0  0  0  0
  -27.5273  -29.8277   21.2181 C   0  0  1  0  0  0  0  0  0  0  0  0
  -27.4639  -20.3892   25.1403 C   0  0  2  0  0  0  0  0  0  0  0  0
  -23.3548  -35.4670   24.5032 C   0  0  0  0  0  0  0  0  0  0  0  0
  -27.6419  -30.5813   25.7765 C   0  0  0  0  0  0  0  0  0  0  0  0
  -26.0241  -32.2918   26.6280 C   0  0  0  0  0  0  0  0  0  0  0  0
  -28.0493  -33.0139   25.3632 C   0  0  0  0  0  0  0  0  0  0  0  0
  -20.3255  -23.2304   24.3265 C   0  0  0  0  0  0  0  0  0  0  0  0
  -22.8138  -33.9560   21.0535 C   0  0  0  0  0  0  0  0  0  0  0  0
  -22.4733  -23.0910   26.4390 C   0  0  0  0  0  0  0  0  0  0  0  0
  -21.5465  -23.8048   21.5641 C   0  0  0  0  0  0  0  0  0  0  0  0
  -22.4928  -21.5981   26.8279 C   0  0  0  0  0  0  0  0  0  0  0  0
  -22.2250  -24.7971   20.6260 C   0  0  0  0  0  0  0  0  0  1  0  0
  -26.1503  -31.8927   24.1268 C   0  0  1  0  0  0  0  0  0  0  0  0
  -23.7378  -34.6842   23.2569 C   0  0  2  0  0  0  0  0  0  0  0  0
  -26.9581  -31.9251   25.4550 C   0  0  0  0  0  0  0  0  0  0  0  0
  -27.5321  -18.4661   23.5977 N   0  0  0  0  0  0  0  0  0  0  0  0
  -21.7428  -23.4105   24.0734 N   0  0  0  0  0  0  0  0  0  0  0  0
  -27.7773  -19.7735   23.7891 N   0  0  0  0  0  0  0  0  0  0  0  0
  -23.6033  -23.7627   23.0393 N   0  3  0  0  0  0  0  0  0  0  0  0
  -26.6287  -30.3577   22.2457 N   0  0  0  0  0  0  0  0  0  0  0  0
  -25.9877  -20.3490   27.1171 N   0  0  0  0  0  0  0  0  0  0  0  0
  -28.6026  -21.7174   22.7163 N   0  0  0  0  0  0  0  0  0  0  0  0
  -28.9362  -18.5429   19.5215 N   0  0  0  0  0  0  0  0  0  0  0  0
  -29.3241  -28.2155   21.0447 N   0  0  0  0  0  0  0  0  0  0  0  0
  -25.5142  -33.1598   23.7832 N   0  0  0  0  0  0  0  0  0  0  0  0
  -23.7790  -20.9911   26.5668 N   0  0  0  0  0  0  0  0  0  0  0  0
  -22.5697  -34.6731   22.3314 N   0  3  0  0  0  0  0  0  0  0  0  0
  -29.3171  -20.7538   19.9965 O   0  0  0  0  0  0  0  0  0  0  0  0
  -28.1708  -28.4839   23.0498 O   0  0  0  0  0  0  0  0  0  0  0  0
  -27.9694  -32.2239   22.6410 O   0  0  0  0  0  0  0  0  0  0  0  0
  -23.3457  -32.3423   23.7031 O   0  0  0  0  0  0  0  0  0  0  0  0
  -24.6406  -21.4679   28.6374 O   0  0  0  0  0  0  0  0  0  0  0  0
  -27.4885  -13.1880   20.0357 O   0  0  0  0  0  0  0  0  0  0  0  0
  -22.2989  -26.0780   21.2505 O   0  0  0  0  0  0  0  0  0  1  0  0
  -22.8109  -10.3871   20.8597 F   0  0  0  0  0  0  0  0  0  0  0  0
  -25.9119  -12.4020   17.9051 F   0  0  0  0  0  0  0  0  0  0  0  0
  1  2  1  0  0  0  0
  1  5  2  0  0  0  0
  2  6  2  0  0  0  0
  3  8  2  0  0  0  0
  3 16  1  0  0  0  0
  4  9  1  0  0  0  0
  4 16  2  0  0  0  0
  5 18  1  0  0  0  0
  6 20  1  0  0  0  0
  7 10  2  0  0  0  0
  7 19  1  0  0  0  0
  8 22  1  0  0  0  0
  9 22  2  0  0  0  0
 10 23  1  0  0  0  0
 11 12  2  0  0  0  0
 11 24  1  0  0  0  0
 12 25  1  0  0  0  0
 13 21  1  0  0  0  0
 13 23  2  0  0  0  0
 14 25  2  0  0  0  0
 14 26  1  0  0  0  0
 15 28  2  0  0  0  0
 15 64  1  0  0  0  0
 16 27  1  0  0  0  0
 17 27  1  0  0  0  0
 17 29  2  0  0  0  0
 17 31  1  0  0  0  0
 18 20  2  0  0  0  0
 18 36  1  0  0  0  0
 19 21  2  0  0  0  0
 19 37  1  0  0  0  0
 20 45  1  0  0  0  0
 21 38  1  0  0  0  0
 22 78  1  0  0  0  0
 23 79  1  0  0  0  0
 24 26  2  0  0  0  0
 24 78  1  0  0  0  0
 25 80  1  0  0  0  0
 26 81  1  0  0  0  0
 27 61  2  0  0  0  0
 28 54  1  0  0  0  0
 28 62  1  0  0  0  0
 29 63  1  0  0  0  0
 29 67  1  0  0  0  0
 30 55  1  0  0  0  0
 30 62  1  0  0  0  0
 30 64  2  0  0  0  0
 31 68  1  0  0  0  0
 31 73  2  0  0  0  0
 32 46  1  0  0  0  0
 32 69  1  0  0  0  0
 32 74  2  0  0  0  0
 33 58  1  0  0  0  0
 33 65  1  0  0  0  0
 33 75  2  0  0  0  0
 34 59  1  0  0  0  0
 34 70  1  0  0  0  0
 34 76  2  0  0  0  0
 35 66  1  0  0  0  0
 35 71  1  0  0  0  0
 35 77  2  0  0  0  0
 36 39  1  0  0  0  0
 37 46  1  0  0  0  0
 38 65  1  0  0  0  0
 39 41  1  0  0  0  0
 40 42  1  0  0  0  0
 40 43  1  0  0  0  0
 41 45  1  0  0  0  0
 42 47  1  0  0  0  0
 43 66  1  0  0  0  0
 44 47  1  0  0  0  0
 44 66  1  0  0  0  0
 45 69  1  0  0  0  0
 46 65  1  0  0  0  0
 47 63  1  0  0  0  0
 48 59  1  0  0  0  0
 49 60  1  0  0  0  0
 50 60  1  0  0  0  0
 51 60  1  0  0  0  0
 52 62  1  0  0  0  0
 53 72  1  0  0  0  0
 54 56  1  0  0  0  0
 55 57  1  0  0  0  0
 56 71  1  0  0  0  0
 57 79  1  0  0  0  0
 58 60  1  0  0  0  0
 58 70  1  0  0  0  0
 59 72  1  0  0  0  0
 61 63  1  0  0  0  0
M  CHG  2  64   1  72   1
M  ISO  4  35 100  57 101  71 100  79 101
M  END
> <Batch ID>
0047

> <Smiles>
CNC(C)C(=O)NC(C(=O)N1Cc2cc([101O:1][101CH2:1]Cc3ncc(CC[100NH:0][100C:0](=O)N4CCCC(n5nc(-c6ccc(Oc7ccc(F)cc7F)cc6)c(C(N)=O)c5N)C4)n3C)ccc2CC1C(=O)NC1CCCc2ccccc21)C(C)(C)C

> <Shape>
0.236

> <Color>
0.065

> <Negative vol penalty>
0.000

$$$$

  -OEChem-04052317243D

 85 93  0     1  0  0  0  0  0999 V2000
  -37.3989  -24.4931   15.8784 C   0  0  0  0  0  0  0  0  0  0  0  0
  -36.3966  -23.5983   16.2392 C   0  0  0  0  0  0  0  0  0  0  0  0
  -23.2787   -9.7802   19.9235 C   0  0  0  0  0  0  0  0  0  0  0  0
  -23.7435   -9.9316   22.2895 C   0  0  0  0  0  0  0  0  0  0  0  0
  -38.6761  -24.0227   15.5762 C   0  0  0  0  0  0  0  0  0  0  0  0
  -36.6707  -22.2323   16.2970 C   0  0  0  0  0  0  0  0  0  0  0  0
  -34.7762  -20.0449   20.4528 C   0  0  0  0  0  0  0  0  0  0  0  0
  -22.5620   -8.6033   20.1396 C   0  0  0  0  0  0  0  0  0  0  0  0
  -23.0267   -8.7546   22.5056 C   0  0  0  0  0  0  0  0  0  0  0  0
  -33.4107  -19.7637   20.4582 C   0  0  0  0  0  0  0  0  0  0  0  0
  -21.0150   -5.9840   23.7281 C   0  0  0  0  0  0  0  0  0  0  0  0
  -20.1204   -5.9557   24.7978 C   0  0  0  0  0  0  0  0  0  0  0  0
  -33.8884  -17.4627   19.9138 C   0  0  0  0  0  0  0  0  0  0  0  0
  -18.8915   -7.7910   23.8187 C   0  0  0  0  0  0  0  0  0  0  0  0
  -29.4464  -19.0742   22.6853 C   0  0  0  0  0  0  0  0  0  0  0  0
  -23.8695  -10.4444   20.9985 C   0  0  0  0  0  0  0  0  0  0  0  0
  -24.1096  -12.9755   20.7903 C   0  0  0  0  0  0  0  0  0  0  0  0
  -38.9685  -22.6511   15.6397 C   0  0  0  0  0  0  0  0  0  0  0  0
  -35.7091  -19.0378   20.1666 C   0  0  0  0  0  0  0  0  0  0  0  0
  -37.9527  -21.7430   15.9941 C   0  0  0  0  0  0  0  0  0  0  0  0
  -35.2653  -17.7331   19.9079 C   0  0  0  0  0  0  0  0  0  0  0  0
  -29.9467  -17.7681   22.5251 C   0  0  0  0  0  0  0  0  0  0  0  0
  -22.4360   -8.0905   21.4306 C   0  0  0  0  0  0  0  0  0  0  0  0
  -32.9664  -18.4732   20.1858 C   0  0  0  0  0  0  0  0  0  0  0  0
  -20.8480   -6.9158   22.7036 C   0  0  0  0  0  0  0  0  0  0  0  0
  -19.0586   -6.8592   24.8432 C   0  0  0  0  0  0  0  0  0  0  0  0
  -19.7862   -7.8193   22.7490 C   0  0  0  0  0  0  0  0  0  0  0  0
  -24.6104  -11.6600   20.7759 C   0  0  0  0  0  0  0  0  0  0  0  0
  -30.4788  -17.4515   23.7511 C   0  0  0  0  0  0  0  0  0  0  0  0
  -25.2038  -13.7624   20.5259 C   0  0  0  0  0  0  0  0  0  0  0  0
  -22.7746  -13.4444   21.0221 C   0  0  0  0  0  0  0  0  0  0  0  0
  -37.8880  -18.5772   17.8985 C   0  0  0  0  0  0  0  0  0  0  0  0
  -38.6754  -16.0113   19.7201 C   0  0  0  0  0  0  0  0  0  0  0  0
  -37.7176  -13.7086   22.0497 C   0  0  0  0  0  0  0  0  0  0  0  0
  -31.0858  -12.9637   21.3107 C   0  0  0  0  0  0  0  0  0  0  0  0
  -40.3514  -22.1854   15.2584 C   0  0  0  0  0  0  0  0  0  0  0  0
  -37.1800  -19.3513   20.1911 C   0  0  0  0  0  0  0  0  0  0  0  0
  -36.2272  -16.6118   19.6147 C   0  0  0  0  0  0  0  0  0  0  0  0
  -40.6590  -20.7591   15.7071 C   0  0  0  0  0  0  0  0  0  0  0  0
  -29.4122  -13.6816   18.2512 C   0  0  0  0  0  0  0  0  0  0  0  0
  -39.4987  -19.8299   15.3650 C   0  0  0  0  0  0  0  0  0  0  0  0
  -27.9466  -13.3636   18.5526 C   0  0  0  0  0  0  0  0  0  0  0  0
  -30.3569  -12.7111   18.9567 C   0  0  0  0  0  0  0  0  0  0  0  0
  -28.6845  -12.2754   20.7137 C   0  0  0  0  0  0  0  0  0  0  0  0
  -38.2177  -20.2563   16.0922 C   0  0  1  0  0  0  0  0  0  0  0  0
  -38.0148  -18.3645   19.3805 C   0  0  1  0  0  0  0  0  0  0  0  0
  -27.6954  -13.2615   20.0691 C   0  0  2  0  0  0  0  0  0  0  0  0
  -38.5673  -11.7137   23.3130 C   0  0  0  0  0  0  0  0  0  0  0  0
  -32.4530  -11.9392   24.0868 C   0  0  0  0  0  0  0  0  0  0  0  0
  -38.3613  -14.2953   17.2168 C   0  0  0  0  0  0  0  0  0  0  0  0
  -38.2774  -12.2768   18.6956 C   0  0  0  0  0  0  0  0  0  0  0  0
  -40.3241  -13.7022   18.6487 C   0  0  0  0  0  0  0  0  0  0  0  0
  -30.6564  -18.7009   25.9243 C   0  0  0  0  0  0  0  0  0  0  0  0
  -37.3362  -15.0528   24.6587 C   0  0  0  0  0  0  0  0  0  0  0  0
  -29.1409  -15.4442   25.4730 C   0  0  0  0  0  0  0  0  0  0  0  0
  -29.9046  -16.9126   21.2823 C   0  0  0  0  0  0  0  0  0  0  0  0
  -31.1526  -16.2313   24.2344 C   0  0  0  0  0  0  0  0  0  0  0  0
  -30.9601  -13.8411   24.9054 C   0  0  0  0  0  0  0  0  0  0  0  0
  -31.2468  -16.8735   20.5596 C   0  0  0  0  0  0  0  0  0  1  0  0
  -38.2362  -14.5683   19.7811 C   0  0  1  0  0  0  0  0  0  0  0  0
  -38.3887  -13.2239   23.3222 C   0  0  2  0  0  0  0  0  0  0  0  0
  -31.6613  -13.1891   23.7143 C   0  0  2  0  0  0  0  0  0  0  0  0
  -38.7813  -13.7320   18.5891 C   0  0  0  0  0  0  0  0  0  0  0  0
  -29.6430  -19.5543   23.9161 N   0  0  0  0  0  0  0  0  0  0  0  0
  -25.9208  -11.6098   20.5222 N   0  0  0  0  0  0  0  0  0  0  0  0
  -30.2726  -18.5444   24.5405 N   0  0  0  0  0  0  0  0  0  0  0  0
  -26.2526  -12.9037   20.3747 N   0  0  0  0  0  0  0  0  0  0  0  0
  -37.6550  -16.9698   19.6441 N   0  0  0  0  0  0  0  0  0  0  0  0
  -30.0671  -12.6622   20.3918 N   0  0  0  0  0  0  0  0  0  0  0  0
  -25.3615  -15.0981   20.4102 N   0  0  0  0  0  0  0  0  0  0  0  0
  -21.7703  -12.5011   21.2789 N   0  0  0  0  0  0  0  0  0  0  0  0
  -38.2603  -19.8396   17.4774 N   0  0  0  0  0  0  0  0  0  0  0  0
  -38.6407  -14.0735   21.0926 N   0  0  0  0  0  0  0  0  0  0  0  0
  -30.7250  -12.8998   22.6511 N   0  0  0  0  0  0  0  0  0  0  0  0
  -37.5710  -13.5932   24.5121 N   0  3  0  0  0  0  0  0  0  0  0  0
  -30.2248  -15.0871   24.4926 N   0  3  1  0  0  0  0  0  0  0  0  0
  -22.4778  -14.6627   20.9858 O   0  0  0  0  0  0  0  0  0  0  0  0
  -37.4837  -17.6632   17.1894 O   0  0  0  0  0  0  0  0  0  0  0  0
  -39.8794  -16.2786   19.7465 O   0  0  0  0  0  0  0  0  0  0  0  0
  -36.4967  -13.7550   21.9167 O   0  0  0  0  0  0  0  0  0  0  0  0
  -32.2304  -13.2726   20.9623 O   0  0  0  0  0  0  0  0  0  0  0  0
  -21.7365   -6.9421   21.6418 O   0  0  0  0  0  0  0  0  0  0  0  0
  -31.6341  -18.1962   20.1898 O   0  0  0  0  0  0  0  0  0  1  0  0
  -18.1987   -6.8309   25.8698 F   0  0  0  0  0  0  0  0  0  0  0  0
  -19.6199   -8.7161   21.7671 F   0  0  0  0  0  0  0  0  0  0  0  0
  1  2  1  0  0  0  0
  1  5  2  0  0  0  0
  2  6  2  0  0  0  0
  3  8  2  0  0  0  0
  3 16  1  0  0  0  0
  4  9  1  0  0  0  0
  4 16  2  0  0  0  0
  5 18  1  0  0  0  0
  6 20  1  0  0  0  0
  7 10  2  0  0  0  0
  7 19  1  0  0  0  0
  8 23  1  0  0  0  0
  9 23  2  0  0  0  0
 10 24  1  0  0  0  0
 11 12  2  0  0  0  0
 11 25  1  0  0  0  0
 12 26  1  0  0  0  0
 13 21  1  0  0  0  0
 13 24  2  0  0  0  0
 14 26  2  0  0  0  0
 14 27  1  0  0  0  0
 15 22  1  0  0  0  0
 15 64  2  0  0  0  0
 16 28  1  0  0  0  0
 17 28  1  0  0  0  0
 17 30  2  0  0  0  0
 17 31  1  0  0  0  0
 18 20  2  0  0  0  0
 18 36  1  0  0  0  0
 19 21  2  0  0  0  0
 19 37  1  0  0  0  0
 20 45  1  0  0  0  0
 21 38  1  0  0  0  0
 22 29  2  0  0  0  0
 22 56  1  0  0  0  0
 23 82  1  0  0  0  0
 24 83  1  0  0  0  0
 25 27  2  0  0  0  0
 25 82  1  0  0  0  0
 26 84  1  0  0  0  0
 27 85  1  0  0  0  0
 28 65  2  0  0  0  0
 29 57  1  0  0  0  0
 29 66  1  0  0  0  0
 30 67  1  0  0  0  0
 30 70  1  0  0  0  0
 31 71  1  0  0  0  0
 31 77  2  0  0  0  0
 32 46  1  0  0  0  0
 32 72  1  0  0  0  0
 32 78  2  0  0  0  0
 33 60  1  0  0  0  0
 33 68  1  0  0  0  0
 33 79  2  0  0  0  0
 34 61  1  0  0  0  0
 34 73  1  0  0  0  0
 34 80  2  0  0  0  0
 35 69  1  0  0  0  0
 35 74  1  0  0  0  0
 35 81  2  0  0  0  0
 36 39  1  0  0  0  0
 37 46  1  0  0  0  0
 38 68  1  0  0  0  0
 39 41  1  0  0  0  0
 40 42  1  0  0  0  0
 40 43  1  0  0  0  0
 41 45  1  0  0  0  0
 42 47  1  0  0  0  0
 43 69  1  0  0  0  0
 44 47  1  0  0  0  0
 44 69  1  0  0  0  0
 45 72  1  0  0  0  0
 46 68  1  0  0  0  0
 47 67  1  0  0  0  0
 48 61  1  0  0  0  0
 49 62  1  0  0  0  0
 50 63  1  0  0  0  0
 51 63  1  0  0  0  0
 52 63  1  0  0  0  0
 53 66  1  0  0  0  0
 54 75  1  0  0  0  0
 55 76  1  0  0  0  0
 56 59  1  0  0  0  0
 57 76  1  0  0  0  0
 58 62  1  0  0  0  0
 58 76  1  0  0  0  0
 59 83  1  0  0  0  0
 60 63  1  0  0  0  0
 60 73  1  0  0  0  0
 61 75  1  0  0  0  0
 62 74  1  0  0  0  0
 64 66  1  0  0  0  0
 65 67  1  0  0  0  0
M  CHG  2  75   1  76   1
M  ISO  4  35 100  59 101  74 100  83 101
M  END
> <Batch ID>
0047

> <Smiles>
CNC(C)C(=O)NC(C(=O)N1Cc2cc([101O:1][101CH2:1]Cc3cnn(C)c3CN(C)CC(C)[100NH:0][100C:0](=O)N3CCCC(n4nc(-c5ccc(Oc6ccc(F)cc6F)cc5)c(C(N)=O)c4N)C3)ccc2CC1C(=O)NC1CCCc2ccccc21)C(C)(C)C

> <Shape>
0.154

> <Color>
0.173

> <Negative vol penalty>
0.000

$$$$

  -OEChem-04052317243D

 85 93  0     1  0  0  0  0  0999 V2000
  -19.0891  -24.8598   33.3286 C   0  0  0  0  0  0  0  0  0  0  0  0
  -20.0266  -24.2285   32.5175 C   0  0  0  0  0  0  0  0  0  0  0  0
  -23.0639   -9.8753   19.9514 C   0  0  0  0  0  0  0  0  0  0  0  0
  -23.8556   -9.8777   22.2340 C   0  0  0  0  0  0  0  0  0  0  0  0
  -18.9828  -24.5077   34.6735 C   0  0  0  0  0  0  0  0  0  0  0  0
  -20.8592  -23.2453   33.0512 C   0  0  0  0  0  0  0  0  0  0  0  0
  -21.2404  -19.1839   30.0504 C   0  0  0  0  0  0  0  0  0  0  0  0
  -22.3254   -8.7203   20.2087 C   0  0  0  0  0  0  0  0  0  0  0  0
  -23.1170   -8.7227   22.4914 C   0  0  0  0  0  0  0  0  0  0  0  0
  -22.0826  -19.2865   28.9441 C   0  0  0  0  0  0  0  0  0  0  0  0
  -19.3988   -7.9154   21.6988 C   0  0  0  0  0  0  0  0  0  0  0  0
  -18.0854   -7.8683   21.2316 C   0  0  0  0  0  0  0  0  0  0  0  0
  -23.8010  -18.0977   30.1496 C   0  0  0  0  0  0  0  0  0  0  0  0
  -26.4887  -19.8030   26.3273 C   0  0  0  0  0  0  0  0  0  0  0  0
  -26.7177  -17.4284   26.0220 C   0  0  0  0  0  0  0  0  0  0  0  0
  -18.6297   -5.9295   19.8968 C   0  0  0  0  0  0  0  0  0  0  0  0
  -23.8291  -10.4539   20.9640 C   0  0  0  0  0  0  0  0  0  0  0  0
  -24.1653  -12.9799   20.8457 C   0  0  0  0  0  0  0  0  0  0  0  0
  -19.8079  -23.5130   35.2216 C   0  0  0  0  0  0  0  0  0  0  0  0
  -21.6768  -18.5460   31.2205 C   0  0  0  0  0  0  0  0  0  0  0  0
  -20.7647  -22.8806   34.4049 C   0  0  0  0  0  0  0  0  0  0  0  0
  -22.9615  -17.9861   31.2685 C   0  0  0  0  0  0  0  0  0  0  0  0
  -26.2490  -18.5056   26.7659 C   0  0  0  0  0  0  0  0  0  0  0  0
  -22.3519   -8.1440   21.4787 C   0  0  0  0  0  0  0  0  0  0  0  0
  -23.3642  -18.7459   28.9946 C   0  0  0  0  0  0  0  0  0  0  0  0
  -20.3278   -6.9696   21.2649 C   0  0  0  0  0  0  0  0  0  0  0  0
  -17.7008   -6.8754   20.3306 C   0  0  0  0  0  0  0  0  0  0  0  0
  -19.9432   -5.9766   20.3639 C   0  0  0  0  0  0  0  0  0  0  0  0
  -24.5927  -11.6467   20.6987 C   0  0  0  0  0  0  0  0  0  0  0  0
  -27.1966  -19.9685   25.1478 C   0  0  0  0  0  0  0  0  0  0  0  0
  -27.4152  -17.7002   24.8560 C   0  0  0  0  0  0  0  0  0  0  0  0
  -25.2512  -13.7320   20.4692 C   0  0  0  0  0  0  0  0  0  0  0  0
  -22.9000  -13.4927   21.2835 C   0  0  0  0  0  0  0  0  0  0  0  0
  -22.1307  -19.4516   34.2333 C   0  0  0  0  0  0  0  0  0  0  0  0
  -30.7577  -14.6926   20.6805 C   0  0  0  0  0  0  0  0  0  0  0  0
  -22.7034  -16.2913   34.6874 C   0  0  0  0  0  0  0  0  0  0  0  0
  -23.6488  -13.2968   33.3508 C   0  0  0  0  0  0  0  0  0  0  0  0
  -19.6885  -23.1997   36.6921 C   0  0  0  0  0  0  0  0  0  0  0  0
  -20.7466  -18.4202   32.3958 C   0  0  0  0  0  0  0  0  0  0  0  0
  -23.4706  -17.2734   32.4937 C   0  0  0  0  0  0  0  0  0  0  0  0
  -20.3521  -21.8840   37.0903 C   0  0  0  0  0  0  0  0  0  0  0  0
  -29.5619  -12.4005   18.1993 C   0  0  0  0  0  0  0  0  0  0  0  0
  -21.7429  -21.7791   36.4727 C   0  0  0  0  0  0  0  0  0  0  0  0
  -28.1383  -12.0863   18.6572 C   0  0  0  0  0  0  0  0  0  0  0  0
  -30.4987  -12.6015   19.3864 C   0  0  0  0  0  0  0  0  0  0  0  0
  -28.6139  -13.3297   20.8142 C   0  0  0  0  0  0  0  0  0  0  0  0
  -21.6688  -21.7919   34.9411 C   0  0  1  0  0  0  0  0  0  0  0  0
  -21.4786  -18.2007   33.7162 C   0  0  1  0  0  0  0  0  0  0  0  0
  -27.6284  -13.1497   19.6460 C   0  0  2  0  0  0  0  0  0  0  0  0
  -27.4740  -21.3467   24.6474 C   0  0  0  0  0  0  0  0  0  0  0  0
  -24.0596  -10.9018   33.9773 C   0  0  0  0  0  0  0  0  0  0  0  0
  -25.3565  -17.0842   35.9691 C   0  0  0  0  0  0  0  0  0  0  0  0
  -26.1142  -14.7129   35.7024 C   0  0  0  0  0  0  0  0  0  0  0  0
  -24.1436  -15.2366   37.1394 C   0  0  0  0  0  0  0  0  0  0  0  0
  -21.5386  -12.3330   31.5131 C   0  0  0  0  0  0  0  0  0  0  0  0
  -31.1609  -19.1083   22.9114 C   0  0  0  0  0  0  0  0  0  0  0  0
  -25.4883  -18.2688   28.0373 C   0  0  0  0  0  0  0  0  0  1  0  0
  -27.9311  -16.5682   24.0319 C   0  0  0  0  0  0  0  0  0  0  0  0
  -30.1413  -15.6833   21.6358 C   0  0  0  0  0  0  0  0  0  0  0  0
  -29.3537  -16.1071   24.4030 C   0  0  0  0  0  0  0  0  0  0  0  0
  -31.1063  -16.8128   21.9478 C   0  0  0  0  0  0  0  0  0  0  0  0
  -30.4291  -17.1856   24.3149 C   0  0  0  0  0  0  0  0  0  0  0  0
  -23.9252  -15.4066   34.6263 C   0  0  1  0  0  0  0  0  0  0  0  0
  -23.0439  -11.9088   33.4606 C   0  0  2  0  0  0  0  0  0  0  0  0
  -24.8763  -15.6251   35.8367 C   0  0  0  0  0  0  0  0  0  0  0  0
  -25.8518  -11.5539   20.2626 N   0  0  0  0  0  0  0  0  0  0  0  0
  -27.6677  -18.9469   24.3981 N   0  0  0  0  0  0  0  0  0  0  0  0
  -26.2249  -12.8384   20.1323 N   0  0  0  0  0  0  0  0  0  0  0  0
  -22.5259  -17.1819   33.6192 N   0  0  0  0  0  0  0  0  0  0  0  0
  -29.9682  -13.6027   20.3134 N   0  0  0  0  0  0  0  0  0  0  0  0
  -25.4585  -15.0640   20.3967 N   0  0  0  0  0  0  0  0  0  0  0  0
  -21.8943  -12.5810   21.6325 N   0  0  0  0  0  0  0  0  0  0  0  0
  -21.2528  -20.4977   34.4444 N   0  0  0  0  0  0  0  0  0  0  0  0
  -23.4331  -14.0397   34.4922 N   0  0  0  0  0  0  0  0  0  0  0  0
  -22.5605  -11.4476   32.1285 N   0  3  0  0  0  0  0  0  0  0  0  0
  -30.4869  -17.7577   22.9496 N   0  3  1  0  0  0  0  0  0  0  0  0
  -22.6627  -14.7227   21.3473 O   0  0  0  0  0  0  0  0  0  0  0  0
  -23.3405  -19.4662   34.4279 O   0  0  0  0  0  0  0  0  0  0  0  0
  -31.9058  -14.8849   20.2715 O   0  0  0  0  0  0  0  0  0  0  0  0
  -21.9312  -16.1906   35.6440 O   0  0  0  0  0  0  0  0  0  0  0  0
  -24.2554  -13.6821   32.3537 O   0  0  0  0  0  0  0  0  0  0  0  0
  -21.6312   -7.0172   21.7302 O   0  0  0  0  0  0  0  0  0  0  0  0
  -24.1885  -18.8451   27.9164 O   0  0  0  0  0  0  0  0  0  1  0  0
  -16.4391   -6.8294   19.8833 F   0  0  0  0  0  0  0  0  0  0  0  0
  -20.8308   -5.0645   19.9444 F   0  0  0  0  0  0  0  0  0  0  0  0
  1  2  1  0  0  0  0
  1  5  2  0  0  0  0
  2  6  2  0  0  0  0
  3  8  2  0  0  0  0
  3 17  1  0  0  0  0
  4  9  1  0  0  0  0
  4 17  2  0  0  0  0
  5 19  1  0  0  0  0
  6 21  1  0  0  0  0
  7 10  2  0  0  0  0
  7 20  1  0  0  0  0
  8 24  1  0  0  0  0
  9 24  2  0  0  0  0
 10 25  1  0  0  0  0
 11 12  2  0  0  0  0
 11 26  1  0  0  0  0
 12 27  1  0  0  0  0
 13 22  1  0  0  0  0
 13 25  2  0  0  0  0
 14 23  1  0  0  0  0
 14 30  2  0  0  0  0
 15 23  2  0  0  0  0
 15 31  1  0  0  0  0
 16 27  2  0  0  0  0
 16 28  1  0  0  0  0
 17 29  1  0  0  0  0
 18 29  1  0  0  0  0
 18 32  2  0  0  0  0
 18 33  1  0  0  0  0
 19 21  2  0  0  0  0
 19 38  1  0  0  0  0
 20 22  2  0  0  0  0
 20 39  1  0  0  0  0
 21 47  1  0  0  0  0
 22 40  1  0  0  0  0
 23 57  1  0  0  0  0
 24 82  1  0  0  0  0
 25 83  1  0  0  0  0
 26 28  2  0  0  0  0
 26 82  1  0  0  0  0
 27 84  1  0  0  0  0
 28 85  1  0  0  0  0
 29 66  2  0  0  0  0
 30 50  1  0  0  0  0
 30 67  1  0  0  0  0
 31 58  1  0  0  0  0
 31 67  2  0  0  0  0
 32 68  1  0  0  0  0
 32 71  1  0  0  0  0
 33 72  1  0  0  0  0
 33 77  2  0  0  0  0
 34 48  1  0  0  0  0
 34 73  1  0  0  0  0
 34 78  2  0  0  0  0
 35 59  1  0  0  0  0
 35 70  1  0  0  0  0
 35 79  2  0  0  0  0
 36 63  1  0  0  0  0
 36 69  1  0  0  0  0
 36 80  2  0  0  0  0
 37 64  1  0  0  0  0
 37 74  1  0  0  0  0
 37 81  2  0  0  0  0
 38 41  1  0  0  0  0
 39 48  1  0  0  0  0
 40 69  1  0  0  0  0
 41 43  1  0  0  0  0
 42 44  1  0  0  0  0
 42 45  1  0  0  0  0
 43 47  1  0  0  0  0
 44 49  1  0  0  0  0
 45 70  1  0  0  0  0
 46 49  1  0  0  0  0
 46 70  1  0  0  0  0
 47 73  1  0  0  0  0
 48 69  1  0  0  0  0
 49 68  1  0  0  0  0
 51 64  1  0  0  0  0
 52 65  1  0  0  0  0
 53 65  1  0  0  0  0
 54 65  1  0  0  0  0
 55 75  1  0  0  0  0
 56 76  1  0  0  0  0
 57 83  1  0  0  0  0
 58 60  1  0  0  0  0
 59 61  1  0  0  0  0
 60 62  1  0  0  0  0
 61 76  1  0  0  0  0
 62 76  1  0  0  0  0
 63 65  1  0  0  0  0
 63 74  1  0  0  0  0
 64 75  1  0  0  0  0
 66 68  1  0  0  0  0
M  CHG  2  75   1  76   1
M  ISO  4  35 100  57 101  59 100  83 101
M  END
> <Batch ID>
0047

> <Smiles>
CNC(C)C(=O)NC(C(=O)N1Cc2cc([101O:1][101CH2:1]c3cc(C)nc(CCCN(C)C[100CH2:0][100C:0](=O)N4CCCC(n5nc(-c6ccc(Oc7ccc(F)cc7F)cc6)c(C(N)=O)c5N)C4)c3)ccc2CC1C(=O)NC1CCCc2ccccc21)C(C)(C)C

> <Shape>
0.145

> <Color>
0.190

> <Negative vol penalty>
0.000

$$$$

  -OEChem-04052317243D

 82 90  0     1  0  0  0  0  0999 V2000
  -27.7428  -24.4792   17.1079 C   0  0  0  0  0  0  0  0  0  0  0  0
  -26.5641  -24.7712   17.7868 C   0  0  0  0  0  0  0  0  0  0  0  0
  -25.5629  -11.7012   20.1569 C   0  0  0  0  0  0  0  0  0  0  0  0
  -24.5841  -12.5696   22.1879 C   0  0  0  0  0  0  0  0  0  0  0  0
  -28.9633  -24.9343   17.6050 C   0  0  0  0  0  0  0  0  0  0  0  0
  -26.6055  -25.5176   18.9639 C   0  0  0  0  0  0  0  0  0  0  0  0
  -23.0374  -29.1081   19.1138 C   0  0  0  0  0  0  0  0  0  0  0  0
  -25.9056  -10.5256   20.8247 C   0  0  0  0  0  0  0  0  0  0  0  0
  -24.9268  -11.3939   22.8557 C   0  0  0  0  0  0  0  0  0  0  0  0
  -21.7398  -28.7037   19.4243 C   0  0  0  0  0  0  0  0  0  0  0  0
  -25.2230   -8.4754   25.0035 C   0  0  0  0  0  0  0  0  0  0  0  0
  -24.2606   -7.8930   25.8281 C   0  0  0  0  0  0  0  0  0  0  0  0
  -22.0590  -29.4457   21.6974 C   0  0  0  0  0  0  0  0  0  0  0  0
  -22.7816   -7.6534   23.9327 C   0  0  0  0  0  0  0  0  0  0  0  0
  -20.4328  -25.2225   19.4491 C   0  0  0  0  0  0  0  0  0  0  0  0
  -24.9022  -12.7233   20.8385 C   0  0  0  0  0  0  0  0  0  0  0  0
  -23.3514  -14.2059   19.4583 C   0  0  0  0  0  0  0  0  0  0  0  0
  -29.0187  -25.6949   18.7836 C   0  0  0  0  0  0  0  0  0  0  0  0
  -23.8607  -29.6753   20.0971 C   0  0  0  0  0  0  0  0  0  0  0  0
  -27.8280  -25.9822   19.4780 C   0  0  0  0  0  0  0  0  0  0  0  0
  -23.3658  -29.8588   21.3962 C   0  0  0  0  0  0  0  0  0  0  0  0
  -25.5876  -10.3719   22.1741 C   0  0  0  0  0  0  0  0  0  0  0  0
  -21.2514  -28.8698   20.7169 C   0  0  0  0  0  0  0  0  0  0  0  0
  -24.9648   -8.6470   23.6435 C   0  0  0  0  0  0  0  0  0  0  0  0
  -23.0399   -7.4820   25.2927 C   0  0  0  0  0  0  0  0  0  0  0  0
  -23.7441   -8.2360   23.1081 C   0  0  0  0  0  0  0  0  0  0  0  0
  -24.5484  -13.9382   20.1493 C   0  0  0  0  0  0  0  0  0  0  0  0
  -20.3031  -26.1385   20.4697 C   0  0  0  0  0  0  0  0  0  0  0  0
  -21.6688  -24.8629   21.7879 C   0  0  0  0  0  0  0  0  0  0  0  0
  -21.7979  -23.9467   20.7674 C   0  0  0  0  0  0  0  0  0  0  0  0
  -23.5064  -15.4864   18.9865 C   0  0  0  0  0  0  0  0  0  0  0  0
  -22.2023  -13.3716   19.2607 C   0  0  0  0  0  0  0  0  0  0  0  0
  -26.6317  -28.8788   21.4354 C   0  0  0  0  0  0  0  0  0  0  0  0
  -26.3332  -31.7791   22.8573 C   0  0  0  0  0  0  0  0  0  0  0  0
  -24.2795  -34.2995   23.8947 C   0  0  0  0  0  0  0  0  0  0  0  0
  -25.0612  -20.7938   19.7345 C   0  0  0  0  0  0  0  0  0  0  0  0
  -30.3660  -26.1247   19.3076 C   0  0  0  0  0  0  0  0  0  0  0  0
  -25.2489  -30.1309   19.7395 C   0  0  0  0  0  0  0  0  0  0  0  0
  -24.2024  -30.4811   22.4830 C   0  0  0  0  0  0  0  0  0  0  0  0
  -30.2868  -27.2280   20.3597 C   0  0  0  0  0  0  0  0  0  0  0  0
  -27.5931  -18.4627   18.8225 C   0  0  0  0  0  0  0  0  0  0  0  0
  -29.2150  -26.9023   21.3951 C   0  0  0  0  0  0  0  0  0  0  0  0
  -26.9301  -17.1007   19.0353 C   0  0  0  0  0  0  0  0  0  0  0  0
  -27.1535  -19.4754   19.8775 C   0  0  0  0  0  0  0  0  0  0  0  0
  -25.0305  -18.2730   20.2252 C   0  0  0  0  0  0  0  0  0  0  0  0
  -27.8294  -26.8102   20.7447 C   0  0  1  0  0  0  0  0  0  0  0  0
  -26.1765  -30.2249   20.9469 C   0  0  1  0  0  0  0  0  0  0  0  0
  -25.3999  -17.2341   19.1525 C   0  0  2  0  0  0  0  0  0  0  0  0
  -22.3558  -24.6704   23.0967 C   0  0  0  0  0  0  0  0  0  0  0  0
  -18.0114  -27.1508   20.7278 C   0  0  0  0  0  0  0  0  0  0  0  0
  -24.3219  -36.5223   25.0587 C   0  0  0  0  0  0  0  0  0  0  0  0
  -26.7219  -30.3673   25.5342 C   0  0  0  0  0  0  0  0  0  0  0  0
  -25.8231  -32.4125   26.6643 C   0  0  0  0  0  0  0  0  0  0  0  0
  -27.9216  -32.5514   25.3228 C   0  0  0  0  0  0  0  0  0  0  0  0
  -23.1605  -35.6881   21.5328 C   0  0  0  0  0  0  0  0  0  0  0  0
  -22.6305  -22.7203   20.9246 C   0  0  0  0  0  0  0  0  0  0  0  0
  -22.8821  -21.9748   19.6081 C   0  0  0  0  0  0  0  0  0  0  0  0
  -19.4525  -27.3747   20.2874 C   0  0  1  0  0  0  0  0  0  1  0  0
  -25.7062  -32.2842   24.1343 C   0  0  1  0  0  0  0  0  0  0  0  0
  -24.3640  -35.8049   23.7184 C   0  0  2  0  0  0  0  0  0  0  0  0
  -26.5279  -31.8903   25.3941 C   0  0  0  0  0  0  0  0  0  0  0  0
  -21.1825  -24.1102   19.5796 N   0  0  0  0  0  0  0  0  0  0  0  0
  -25.4009  -14.9661   20.1213 N   0  0  0  0  0  0  0  0  0  0  0  0
  -20.9188  -25.9751   21.6575 N   0  0  0  0  0  0  0  0  0  0  0  0
  -24.7388  -15.8920   19.4069 N   0  0  0  0  0  0  0  0  0  0  0  0
  -25.5552  -30.9046   22.0855 N   0  0  0  0  0  0  0  0  0  0  0  0
  -25.6920  -19.5552   19.9370 N   0  0  0  0  0  0  0  0  0  0  0  0
  -22.7073  -16.2938   18.2570 N   0  0  0  0  0  0  0  0  0  0  0  0
  -22.2086  -12.0837   19.8135 N   0  0  0  0  0  0  0  0  0  0  0  0
  -27.3038  -28.1334   20.4856 N   0  0  0  0  0  0  0  0  0  0  0  0
  -25.5298  -33.7221   23.9615 N   0  0  0  0  0  0  0  0  0  0  0  0
  -23.6733  -20.7801   19.8013 N   0  0  0  0  0  0  0  0  0  0  0  0
  -23.2274  -36.2938   22.8877 N   0  3  0  0  0  0  0  0  0  0  0  0
  -21.2063  -13.7508   18.5991 O   0  0  0  0  0  0  0  0  0  0  0  0
  -26.3923  -28.5421   22.5891 O   0  0  0  0  0  0  0  0  0  0  0  0
  -27.4686  -32.1525   22.5522 O   0  0  0  0  0  0  0  0  0  0  0  0
  -23.2111  -33.6966   23.9698 O   0  0  0  0  0  0  0  0  0  0  0  0
  -25.6881  -21.8337   19.5054 O   0  0  0  0  0  0  0  0  0  0  0  0
  -25.9216   -9.2247   22.8260 O   0  0  0  0  0  0  0  0  0  0  0  0
  -19.9854  -28.4753   21.0229 O   0  0  0  0  0  0  0  0  0  1  0  0
  -22.1163   -6.9212   26.0844 F   0  0  0  0  0  0  0  0  0  0  0  0
  -23.4907   -8.3971   21.8021 F   0  0  0  0  0  0  0  0  0  0  0  0
  1  2  1  0  0  0  0
  1  5  2  0  0  0  0
  2  6  2  0  0  0  0
  3  8  2  0  0  0  0
  3 16  1  0  0  0  0
  4  9  1  0  0  0  0
  4 16  2  0  0  0  0
  5 18  1  0  0  0  0
  6 20  1  0  0  0  0
  7 10  2  0  0  0  0
  7 19  1  0  0  0  0
  8 22  1  0  0  0  0
  9 22  2  0  0  0  0
 10 23  1  0  0  0  0
 11 12  2  0  0  0  0
 11 24  1  0  0  0  0
 12 25  1  0  0  0  0
 13 21  1  0  0  0  0
 13 23  2  0  0  0  0
 14 25  2  0  0  0  0
 14 26  1  0  0  0  0
 15 28  1  0  0  0  0
 15 62  2  0  0  0  0
 16 27  1  0  0  0  0
 17 27  1  0  0  0  0
 17 31  2  0  0  0  0
 17 32  1  0  0  0  0
 18 20  2  0  0  0  0
 18 37  1  0  0  0  0
 19 21  2  0  0  0  0
 19 38  1  0  0  0  0
 20 46  1  0  0  0  0
 21 39  1  0  0  0  0
 22 79  1  0  0  0  0
 23 80  1  0  0  0  0
 24 26  2  0  0  0  0
 24 79  1  0  0  0  0
 25 81  1  0  0  0  0
 26 82  1  0  0  0  0
 27 63  2  0  0  0  0
 28 58  1  0  0  0  0
 28 64  2  0  0  0  0
 29 30  2  0  0  0  0
 29 49  1  0  0  0  0
 29 64  1  0  0  0  0
 30 56  1  0  0  0  0
 30 62  1  0  0  0  0
 31 65  1  0  0  0  0
 31 68  1  0  0  0  0
 32 69  1  0  0  0  0
 32 74  2  0  0  0  0
 33 47  1  0  0  0  0
 33 70  1  0  0  0  0
 33 75  2  0  0  0  0
 34 59  1  0  0  0  0
 34 66  1  0  0  0  0
 34 76  2  0  0  0  0
 35 60  1  0  0  0  0
 35 71  1  0  0  0  0
 35 77  2  0  0  0  0
 36 67  1  0  0  0  0
 36 72  1  0  0  0  0
 36 78  2  0  0  0  0
 37 40  1  0  0  0  0
 38 47  1  0  0  0  0
 39 66  1  0  0  0  0
 40 42  1  0  0  0  0
 41 43  1  0  0  0  0
 41 44  1  0  0  0  0
 42 46  1  0  0  0  0
 43 48  1  0  0  0  0
 44 67  1  0  0  0  0
 45 48  1  0  0  0  0
 45 67  1  0  0  0  0
 46 70  1  0  0  0  0
 47 66  1  0  0  0  0
 48 65  1  0  0  0  0
 50 58  1  0  0  0  0
 51 60  1  0  0  0  0
 52 61  1  0  0  0  0
 53 61  1  0  0  0  0
 54 61  1  0  0  0  0
 55 73  1  0  0  0  0
 56 57  1  0  0  0  0
 57 72  1  0  0  0  0
 58 80  1  0  0  0  0
 59 61  1  0  0  0  0
 59 71  1  0  0  0  0
 60 73  1  0  0  0  0
 63 65  1  0  0  0  0
M  CHG  1  73   1
M  ISO  4  36 100  58 101  72 100  80 101
M  END
> <Batch ID>
0047

> <Smiles>
CNC(C)C(=O)NC(C(=O)N1Cc2cc([101O:1][101CH:1](C)c3cnc(CC[100NH:0][100C:0](=O)N4CCCC(n5nc(-c6ccc(Oc7ccc(F)cc7F)cc6)c(C(N)=O)c5N)C4)c(C)n3)ccc2CC1C(=O)NC1CCCc2ccccc21)C(C)(C)C

> <Shape>
0.279

> <Color>
0.072

> <Negative vol penalty>
0.000

$$$$

  -OEChem-04052317243D

 88 96  0     1  0  0  0  0  0999 V2000
  -25.2468  -15.5012   23.9280 C   0  0  0  0  0  0  0  0  0  0  0  0
  -26.4354  -14.9209   24.3591 C   0  0  0  0  0  0  0  0  0  0  0  0
  -23.0856   -9.8694   19.9418 C   0  0  0  0  0  0  0  0  0  0  0  0
  -23.7006   -9.9590   22.2765 C   0  0  0  0  0  0  0  0  0  0  0  0
  -25.1720  -16.8816   23.7464 C   0  0  0  0  0  0  0  0  0  0  0  0
  -27.5504  -15.7206   24.6077 C   0  0  0  0  0  0  0  0  0  0  0  0
  -31.8066  -14.8631   28.9267 C   0  0  0  0  0  0  0  0  0  0  0  0
  -22.3276   -8.7242   20.1854 C   0  0  0  0  0  0  0  0  0  0  0  0
  -22.9425   -8.8138   22.5202 C   0  0  0  0  0  0  0  0  0  0  0  0
  -33.0802  -14.2970   28.8893 C   0  0  0  0  0  0  0  0  0  0  0  0
  -21.4608   -5.7079   23.6896 C   0  0  0  0  0  0  0  0  0  0  0  0
  -22.0285   -4.7113   24.4835 C   0  0  0  0  0  0  0  0  0  0  0  0
  -34.0427  -16.4942   28.6339 C   0  0  0  0  0  0  0  0  0  0  0  0
  -23.8356   -4.4770   22.8971 C   0  0  0  0  0  0  0  0  0  0  0  0
  -37.6353  -15.3041   26.5645 C   0  0  0  0  0  0  0  0  0  0  0  0
  -23.7723  -10.4868   20.9873 C   0  0  0  0  0  0  0  0  0  0  0  0
  -24.1210  -13.0069   20.7996 C   0  0  0  0  0  0  0  0  0  0  0  0
  -26.2837  -17.6996   24.0021 C   0  0  0  0  0  0  0  0  0  0  0  0
  -31.6405  -16.2503   28.8069 C   0  0  0  0  0  0  0  0  0  0  0  0
  -27.4908  -17.1131   24.4280 C   0  0  0  0  0  0  0  0  0  0  0  0
  -32.7662  -17.0756   28.6727 C   0  0  0  0  0  0  0  0  0  0  0  0
  -22.2560   -8.1964   21.4746 C   0  0  0  0  0  0  0  0  0  0  0  0
  -34.1983  -15.1123   28.7400 C   0  0  0  0  0  0  0  0  0  0  0  0
  -22.0805   -6.0890   22.4994 C   0  0  0  0  0  0  0  0  0  0  0  0
  -23.2159   -4.0959   24.0873 C   0  0  0  0  0  0  0  0  0  0  0  0
  -23.2679   -5.4736   22.1032 C   0  0  0  0  0  0  0  0  0  0  0  0
  -24.5560  -11.6695   20.7362 C   0  0  0  0  0  0  0  0  0  0  0  0
  -37.0641  -14.0721   26.3330 C   0  0  0  0  0  0  0  0  0  0  0  0
  -37.3771  -15.8388   24.3561 C   0  0  0  0  0  0  0  0  0  0  0  0
  -36.8066  -14.6066   24.1244 C   0  0  0  0  0  0  0  0  0  0  0  0
  -25.2338  -13.7454   20.4790 C   0  0  0  0  0  0  0  0  0  0  0  0
  -22.8269  -13.5344   21.1198 C   0  0  0  0  0  0  0  0  0  0  0  0
  -30.1858  -18.1639   26.7270 C   0  0  0  0  0  0  0  0  0  0  0  0
  -31.0003  -20.4627   28.8657 C   0  0  0  0  0  0  0  0  0  0  0  0
  -33.0694  -21.4751   31.3838 C   0  0  0  0  0  0  0  0  0  0  0  0
  -30.5661  -14.8184   21.0804 C   0  0  0  0  0  0  0  0  0  0  0  0
  -26.1688  -19.1815   23.7460 C   0  0  0  0  0  0  0  0  0  0  0  0
  -30.2619  -16.8478   28.8760 C   0  0  0  0  0  0  0  0  0  0  0  0
  -32.6432  -18.5725   28.5602 C   0  0  0  0  0  0  0  0  0  0  0  0
  -27.2847  -19.9994   24.3912 C   0  0  0  0  0  0  0  0  0  0  0  0
  -29.7120  -12.3143   18.6111 C   0  0  0  0  0  0  0  0  0  0  0  0
  -28.6415  -19.3556   24.1237 C   0  0  0  0  0  0  0  0  0  0  0  0
  -28.2478  -12.0350   18.9551 C   0  0  0  0  0  0  0  0  0  0  0  0
  -30.5397  -12.5539   19.8704 C   0  0  0  0  0  0  0  0  0  0  0  0
  -28.5599  -13.3633   21.0947 C   0  0  0  0  0  0  0  0  0  0  0  0
  -28.7145  -17.9498   24.7319 C   0  0  1  0  0  0  0  0  0  0  0  0
  -30.1749  -18.2263   28.2282 C   0  0  1  0  0  0  0  0  0  0  0  0
  -27.6657  -13.1349   19.8625 C   0  0  2  0  0  0  0  0  0  0  0  0
  -37.5561  -16.8314   23.2585 C   0  0  0  0  0  0  0  0  0  0  0  0
  -33.5128  -23.4189   32.9077 C   0  0  0  0  0  0  0  0  0  0  0  0
  -32.3077  -21.9708   26.5578 C   0  0  0  0  0  0  0  0  0  0  0  0
  -33.5193  -23.3657   28.2474 C   0  0  0  0  0  0  0  0  0  0  0  0
  -31.0269  -23.4103   28.1520 C   0  0  0  0  0  0  0  0  0  0  0  0
  -34.7853  -17.4567   20.8307 C   0  0  0  0  0  0  0  0  0  0  0  0
  -34.0251  -16.1289   18.8621 C   0  0  0  0  0  0  0  0  0  0  0  0
  -32.5415  -19.8502   33.8003 C   0  0  0  0  0  0  0  0  0  0  0  0
  -33.8655  -14.2514   23.0241 C   0  0  0  0  0  0  0  0  0  0  0  0
  -36.8925  -13.0834   27.4606 C   0  0  0  0  0  0  0  0  0  0  0  0
  -36.3418  -14.2087   22.7652 C   0  0  0  0  0  0  0  0  0  0  0  0
  -32.6477  -16.1652   20.9794 C   0  0  0  0  0  0  0  0  0  0  0  0
  -34.9033  -14.9221   20.8619 C   0  0  0  0  0  0  0  0  0  0  0  0
  -35.5533  -13.2422   28.1721 C   0  0  0  0  0  0  0  0  0  1  0  0
  -32.1959  -21.3627   29.0645 C   0  0  1  0  0  0  0  0  0  0  0  0
  -32.7788  -22.0980   32.7373 C   0  0  2  0  0  0  0  0  0  0  0  0
  -32.2650  -22.4990   28.0056 C   0  0  0  0  0  0  0  0  0  0  0  0
  -34.0840  -16.1507   20.4043 C   0  0  0  0  0  0  0  0  0  0  0  0
  -37.8020  -16.2096   25.5802 N   0  0  0  0  0  0  0  0  0  0  0  0
  -25.8445  -11.5617   20.4014 N   0  0  0  0  0  0  0  0  0  0  0  0
  -36.6396  -13.7013   25.1088 N   0  0  0  0  0  0  0  0  0  0  0  0
  -26.2288  -12.8407   20.2515 N   0  0  0  0  0  0  0  0  0  0  0  0
  -31.2735  -19.1085   28.6269 N   0  0  0  0  0  0  0  0  0  0  0  0
  -29.9423  -13.6250   20.6804 N   0  0  0  0  0  0  0  0  0  0  0  0
  -25.4484  -15.0739   20.3722 N   0  0  0  0  0  0  0  0  0  0  0  0
  -21.7958  -12.6355   21.4251 N   0  0  0  0  0  0  0  0  0  0  0  0
  -28.9328  -18.0278   26.1604 N   0  0  0  0  0  0  0  0  0  0  0  0
  -32.1271  -21.8343   30.4434 N   0  0  0  0  0  0  0  0  0  0  0  0
  -31.8773  -14.9860   20.6523 N   0  0  0  0  0  0  0  0  0  0  0  0
  -33.2033  -21.1799   33.8318 N   0  3  0  0  0  0  0  0  0  0  0  0
  -35.0692  -14.8671   22.3587 N   0  3  1  0  0  0  0  0  0  0  0  0
  -22.5875  -14.7658   21.1187 O   0  0  0  0  0  0  0  0  0  0  0  0
  -31.2519  -18.2354   26.1270 O   0  0  0  0  0  0  0  0  0  0  0  0
  -29.8655  -20.9424   28.9273 O   0  0  0  0  0  0  0  0  0  0  0  0
  -34.0377  -20.7462   31.1800 O   0  0  0  0  0  0  0  0  0  0  0  0
  -29.9948  -15.6744   21.7645 O   0  0  0  0  0  0  0  0  0  0  0  0
  -21.5161   -7.0791   21.7128 O   0  0  0  0  0  0  0  0  0  0  0  0
  -35.4424  -14.5623   28.7025 O   0  0  0  0  0  0  0  0  0  1  0  0
  -23.7617   -3.1400   24.8505 F   0  0  0  0  0  0  0  0  0  0  0  0
  -23.8685   -5.8363   20.9615 F   0  0  0  0  0  0  0  0  0  0  0  0
  1  2  1  0  0  0  0
  1  5  2  0  0  0  0
  2  6  2  0  0  0  0
  3  8  2  0  0  0  0
  3 16  1  0  0  0  0
  4  9  1  0  0  0  0
  4 16  2  0  0  0  0
  5 18  1  0  0  0  0
  6 20  1  0  0  0  0
  7 10  2  0  0  0  0
  7 19  1  0  0  0  0
  8 22  1  0  0  0  0
  9 22  2  0  0  0  0
 10 23  1  0  0  0  0
 11 12  2  0  0  0  0
 11 24  1  0  0  0  0
 12 25  1  0  0  0  0
 13 21  1  0  0  0  0
 13 23  2  0  0  0  0
 14 25  2  0  0  0  0
 14 26  1  0  0  0  0
 15 28  1  0  0  0  0
 15 67  2  0  0  0  0
 16 27  1  0  0  0  0
 17 27  1  0  0  0  0
 17 31  2  0  0  0  0
 17 32  1  0  0  0  0
 18 20  2  0  0  0  0
 18 37  1  0  0  0  0
 19 21  2  0  0  0  0
 19 38  1  0  0  0  0
 20 46  1  0  0  0  0
 21 39  1  0  0  0  0
 22 85  1  0  0  0  0
 23 86  1  0  0  0  0
 24 26  2  0  0  0  0
 24 85  1  0  0  0  0
 25 87  1  0  0  0  0
 26 88  1  0  0  0  0
 27 68  2  0  0  0  0
 28 58  1  0  0  0  0
 28 69  2  0  0  0  0
 29 30  2  0  0  0  0
 29 49  1  0  0  0  0
 29 67  1  0  0  0  0
 30 59  1  0  0  0  0
 30 69  1  0  0  0  0
 31 70  1  0  0  0  0
 31 73  1  0  0  0  0
 32 74  1  0  0  0  0
 32 80  2  0  0  0  0
 33 47  1  0  0  0  0
 33 75  1  0  0  0  0
 33 81  2  0  0  0  0
 34 63  1  0  0  0  0
 34 71  1  0  0  0  0
 34 82  2  0  0  0  0
 35 64  1  0  0  0  0
 35 76  1  0  0  0  0
 35 83  2  0  0  0  0
 36 72  1  0  0  0  0
 36 77  1  0  0  0  0
 36 84  2  0  0  0  0
 37 40  1  0  0  0  0
 38 47  1  0  0  0  0
 39 71  1  0  0  0  0
 40 42  1  0  0  0  0
 41 43  1  0  0  0  0
 41 44  1  0  0  0  0
 42 46  1  0  0  0  0
 43 48  1  0  0  0  0
 44 72  1  0  0  0  0
 45 48  1  0  0  0  0
 45 72  1  0  0  0  0
 46 75  1  0  0  0  0
 47 71  1  0  0  0  0
 48 70  1  0  0  0  0
 50 64  1  0  0  0  0
 51 65  1  0  0  0  0
 52 65  1  0  0  0  0
 53 65  1  0  0  0  0
 54 66  1  0  0  0  0
 55 66  1  0  0  0  0
 56 78  1  0  0  0  0
 57 79  1  0  0  0  0
 58 62  1  0  0  0  0
 59 79  1  0  0  0  0
 60 66  1  0  0  0  0
 60 77  1  0  0  0  0
 61 66  1  0  0  0  0
 61 79  1  0  0  0  0
 62 86  1  0  0  0  0
 63 65  1  0  0  0  0
 63 76  1  0  0  0  0
 64 78  1  0  0  0  0
 68 70  1  0  0  0  0
M  CHG  2  78   1  79   1
M  ISO  4  36 100  62 101  77 100  86 101
M  END
> <Batch ID>
0047

> <Smiles>
CNC(C)C(=O)NC(C(=O)N1Cc2cc([101O:1][101CH2:1]Cc3cnc(C)c(CN(C)CC(C)(C)C[100NH:0][100C:0](=O)N4CCCC(n5nc(-c6ccc(Oc7ccc(F)cc7F)cc6)c(C(N)=O)c5N)C4)n3)ccc2CC1C(=O)NC1CCCc2ccccc21)C(C)(C)C

> <Shape>
0.153

> <Color>
0.166

> <Negative vol penalty>
0.000

$$$$

  -OEChem-04052317243D

 80 88  0     1  0  0  0  0  0999 V2000
  -16.7439  -28.5917   22.9082 C   0  0  0  0  0  0  0  0  0  0  0  0
  -17.6302  -27.5221   22.8309 C   0  0  0  0  0  0  0  0  0  0  0  0
  -23.5159   -9.6706   20.3142 C   0  0  0  0  0  0  0  0  0  0  0  0
  -23.9857  -10.1864   22.6272 C   0  0  0  0  0  0  0  0  0  0  0  0
  -17.2318  -29.8940   23.0076 C   0  0  0  0  0  0  0  0  0  0  0  0
  -19.0050  -27.7544   22.8519 C   0  0  0  0  0  0  0  0  0  0  0  0
  -23.3018  -24.1962   25.3783 C   0  0  0  0  0  0  0  0  0  0  0  0
  -22.9164   -8.4727   20.7030 C   0  0  0  0  0  0  0  0  0  0  0  0
  -23.3861   -8.9885   23.0161 C   0  0  0  0  0  0  0  0  0  0  0  0
  -24.1675  -23.2450   24.8401 C   0  0  0  0  0  0  0  0  0  0  0  0
  -20.2529   -7.7997   23.4521 C   0  0  0  0  0  0  0  0  0  0  0  0
  -19.3736   -7.8382   24.5342 C   0  0  0  0  0  0  0  0  0  0  0  0
  -25.8998  -24.9168   24.6876 C   0  0  0  0  0  0  0  0  0  0  0  0
  -20.7766   -6.2764   25.7297 C   0  0  0  0  0  0  0  0  0  0  0  0
  -28.1529  -19.8434   21.4596 C   0  0  0  0  0  0  0  0  0  0  0  0
  -24.0506  -10.5274   21.2763 C   0  0  0  0  0  0  0  0  0  0  0  0
  -24.0470  -13.0176   20.7225 C   0  0  0  0  0  0  0  0  0  0  0  0
  -18.6132  -30.1416   23.0395 C   0  0  0  0  0  0  0  0  0  0  0  0
  -23.7259  -25.5196   25.5653 C   0  0  0  0  0  0  0  0  0  0  0  0
  -19.5118  -29.0613   22.9504 C   0  0  0  0  0  0  0  0  0  0  0  0
  -25.0383  -25.8823   25.2307 C   0  0  0  0  0  0  0  0  0  0  0  0
  -28.8278  -18.9211   22.2331 C   0  0  0  0  0  0  0  0  0  0  0  0
  -22.8515   -8.1316   22.0540 C   0  0  0  0  0  0  0  0  0  0  0  0
  -25.4658  -23.6059   24.4920 C   0  0  0  0  0  0  0  0  0  0  0  0
  -21.3940   -6.9995   23.5087 C   0  0  0  0  0  0  0  0  0  0  0  0
  -19.6355   -7.0766   25.6730 C   0  0  0  0  0  0  0  0  0  0  0  0
  -21.6559   -6.2378   24.6476 C   0  0  0  0  0  0  0  0  0  0  0  0
  -24.6705  -11.7647   20.8751 C   0  0  0  0  0  0  0  0  0  0  0  0
  -28.4413  -18.8546   23.5561 C   0  0  0  0  0  0  0  0  0  0  0  0
  -25.0590  -13.8593   20.3302 C   0  0  0  0  0  0  0  0  0  0  0  0
  -26.8888  -20.4840   23.2369 C   0  0  0  0  0  0  0  0  0  0  0  0
  -22.6756  -13.3876   20.9181 C   0  0  0  0  0  0  0  0  0  0  0  0
  -22.8227  -28.3466   24.4269 C   0  0  0  0  0  0  0  0  0  0  0  0
  -24.9858  -29.4643   26.5704 C   0  0  0  0  0  0  0  0  0  0  0  0
  -27.7786  -28.8782   28.4422 C   0  0  0  0  0  0  0  0  0  0  0  0
  -30.2828  -15.7567   20.8375 C   0  0  0  0  0  0  0  0  0  0  0  0
  -19.0935  -31.5700   23.1002 C   0  0  0  0  0  0  0  0  0  0  0  0
  -22.7883  -26.5273   26.1719 C   0  0  0  0  0  0  0  0  0  0  0  0
  -25.5489  -27.2850   25.4306 C   0  0  0  0  0  0  0  0  0  0  0  0
  -20.5625  -31.7025   23.4936 C   0  0  0  0  0  0  0  0  0  0  0  0
  -29.7864  -12.8524   18.8386 C   0  0  0  0  0  0  0  0  0  0  0  0
  -21.4182  -30.7195   22.7010 C   0  0  0  0  0  0  0  0  0  0  0  0
  -28.3627  -12.4107   19.1824 C   0  0  0  0  0  0  0  0  0  0  0  0
  -30.5122  -13.4165   20.0580 C   0  0  0  0  0  0  0  0  0  0  0  0
  -28.3738  -14.0589   21.1013 C   0  0  0  0  0  0  0  0  0  0  0  0
  -21.0099  -29.2709   22.9951 C   0  0  1  0  0  0  0  0  0  0  0  0
  -23.1641  -27.9683   25.8404 C   0  0  1  0  0  0  0  0  0  0  0  0
  -27.5826  -13.5345   19.8907 C   0  0  2  0  0  0  0  0  0  0  0  0
  -29.1019  -17.8926   24.4877 C   0  0  0  0  0  0  0  0  0  0  0  0
  -29.3310  -29.9948   30.0671 C   0  0  0  0  0  0  0  0  0  0  0  0
  -26.2816  -30.9993   24.2738 C   0  0  0  0  0  0  0  0  0  0  0  0
  -28.3077  -31.3037   25.7126 C   0  0  0  0  0  0  0  0  0  0  0  0
  -26.1207  -32.2728   26.4201 C   0  0  0  0  0  0  0  0  0  0  0  0
  -27.1396  -26.9259   30.5728 C   0  0  0  0  0  0  0  0  0  0  0  0
  -29.8971  -18.0681   21.6548 C   0  0  0  0  0  0  0  0  0  0  0  0
  -25.8048  -21.3567   23.7978 C   0  0  0  0  0  0  0  0  0  1  0  0
  -26.4636  -29.7706   26.5372 C   0  0  1  0  0  0  0  0  0  0  0  0
  -28.0834  -29.1403   29.9060 C   0  0  2  0  0  0  0  0  0  0  0  0
  -26.7835  -31.0605   25.7302 C   0  0  0  0  0  0  0  0  0  0  0  0
  -27.1745  -20.6440   21.9306 N   0  0  0  0  0  0  0  0  0  0  0  0
  -25.9774  -11.8025   20.6018 N   0  0  0  0  0  0  0  0  0  0  0  0
  -27.4721  -19.6240   24.0936 N   0  0  0  0  0  0  0  0  0  0  0  0
  -26.1833  -13.0893   20.2735 N   0  0  0  0  0  0  0  0  0  0  0  0
  -24.5924  -28.2358   26.0210 N   0  0  0  0  0  0  0  0  0  0  0  0
  -29.7203  -14.4789   20.6826 N   0  0  0  0  0  0  0  0  0  0  0  0
  -25.0879  -15.1755   20.0315 N   0  0  0  0  0  0  0  0  0  0  0  0
  -21.7680  -12.3990   21.3221 N   0  0  0  0  0  0  0  0  0  0  0  0
  -21.5432  -28.8447   24.2711 N   0  0  0  0  0  0  0  0  0  0  0  0
  -26.9034  -29.8112   27.9277 N   0  0  0  0  0  0  0  0  0  0  0  0
  -29.4624  -16.7070   21.4330 N   0  0  0  0  0  0  0  0  0  0  0  0
  -28.2977  -27.8548   30.6288 N   0  3  0  0  0  0  0  0  0  0  0  0
  -22.2640  -14.5565   20.7239 O   0  0  0  0  0  0  0  0  0  0  0  0
  -23.6589  -28.1991   23.5433 O   0  0  0  0  0  0  0  0  0  0  0  0
  -24.2099  -30.2816   27.0719 O   0  0  0  0  0  0  0  0  0  0  0  0
  -28.2707  -27.9417   27.8166 O   0  0  0  0  0  0  0  0  0  0  0  0
  -31.4292  -16.0318   20.4673 O   0  0  0  0  0  0  0  0  0  0  0  0
  -22.2664   -6.9629   22.4339 O   0  0  0  0  0  0  0  0  0  0  0  0
  -26.3126  -22.6797   23.9659 O   0  0  0  0  0  0  0  0  0  1  0  0
  -18.7919   -7.1149   26.7127 F   0  0  0  0  0  0  0  0  0  0  0  0
  -22.7511   -5.4681   24.7083 F   0  0  0  0  0  0  0  0  0  0  0  0
  1  2  1  0  0  0  0
  1  5  2  0  0  0  0
  2  6  2  0  0  0  0
  3  8  2  0  0  0  0
  3 16  1  0  0  0  0
  4  9  1  0  0  0  0
  4 16  2  0  0  0  0
  5 18  1  0  0  0  0
  6 20  1  0  0  0  0
  7 10  2  0  0  0  0
  7 19  1  0  0  0  0
  8 23  1  0  0  0  0
  9 23  2  0  0  0  0
 10 24  1  0  0  0  0
 11 12  2  0  0  0  0
 11 25  1  0  0  0  0
 12 26  1  0  0  0  0
 13 21  1  0  0  0  0
 13 24  2  0  0  0  0
 14 26  2  0  0  0  0
 14 27  1  0  0  0  0
 15 22  1  0  0  0  0
 15 60  2  0  0  0  0
 16 28  1  0  0  0  0
 17 28  1  0  0  0  0
 17 30  2  0  0  0  0
 17 32  1  0  0  0  0
 18 20  2  0  0  0  0
 18 37  1  0  0  0  0
 19 21  2  0  0  0  0
 19 38  1  0  0  0  0
 20 46  1  0  0  0  0
 21 39  1  0  0  0  0
 22 29  2  0  0  0  0
 22 55  1  0  0  0  0
 23 77  1  0  0  0  0
 24 78  1  0  0  0  0
 25 27  2  0  0  0  0
 25 77  1  0  0  0  0
 26 79  1  0  0  0  0
 27 80  1  0  0  0  0
 28 61  2  0  0  0  0
 29 49  1  0  0  0  0
 29 62  1  0  0  0  0
 30 63  1  0  0  0  0
 30 66  1  0  0  0  0
 31 56  1  0  0  0  0
 31 60  1  0  0  0  0
 31 62  2  0  0  0  0
 32 67  1  0  0  0  0
 32 72  2  0  0  0  0
 33 47  1  0  0  0  0
 33 68  1  0  0  0  0
 33 73  2  0  0  0  0
 34 57  1  0  0  0  0
 34 64  1  0  0  0  0
 34 74  2  0  0  0  0
 35 58  1  0  0  0  0
 35 69  1  0  0  0  0
 35 75  2  0  0  0  0
 36 65  1  0  0  0  0
 36 70  1  0  0  0  0
 36 76  2  0  0  0  0
 37 40  1  0  0  0  0
 38 47  1  0  0  0  0
 39 64  1  0  0  0  0
 40 42  1  0  0  0  0
 41 43  1  0  0  0  0
 41 44  1  0  0  0  0
 42 46  1  0  0  0  0
 43 48  1  0  0  0  0
 44 65  1  0  0  0  0
 45 48  1  0  0  0  0
 45 65  1  0  0  0  0
 46 68  1  0  0  0  0
 47 64  1  0  0  0  0
 48 63  1  0  0  0  0
 50 58  1  0  0  0  0
 51 59  1  0  0  0  0
 52 59  1  0  0  0  0
 53 59  1  0  0  0  0
 54 71  1  0  0  0  0
 55 70  1  0  0  0  0
 56 78  1  0  0  0  0
 57 59  1  0  0  0  0
 57 69  1  0  0  0  0
 58 71  1  0  0  0  0
 61 63  1  0  0  0  0
M  CHG  1  71   1
M  ISO  4  36 100  56 101  70 100  78 101
M  END
> <Batch ID>
0047

> <Smiles>
CNC(C)C(=O)NC(C(=O)N1Cc2cc([101O:1][101CH2:1]c3ncc(C[100NH:0][100C:0](=O)N4CCCC(n5nc(-c6ccc(Oc7ccc(F)cc7F)cc6)c(C(N)=O)c5N)C4)c(C)n3)ccc2CC1C(=O)NC1CCCc2ccccc21)C(C)(C)C

> <Shape>
0.268

> <Color>
0.185

> <Negative vol penalty>
0.000

$$$$

  -OEChem-04052317243D

 83 91  0     1  0  0  0  0  0999 V2000
  -28.9183  -33.4706   23.8127 C   0  0  0  0  0  0  0  0  0  0  0  0
  -28.7932  -32.1067   23.5689 C   0  0  0  0  0  0  0  0  0  0  0  0
  -25.9800  -13.0130   18.0730 C   0  0  0  0  0  0  0  0  0  0  0  0
  -27.0128  -12.6283   20.2230 C   0  0  0  0  0  0  0  0  0  0  0  0
  -27.7983  -34.2190   24.1725 C   0  0  0  0  0  0  0  0  0  0  0  0
  -27.5480  -31.4901   23.6859 C   0  0  0  0  0  0  0  0  0  0  0  0
  -26.5714  -28.3399   19.8430 C   0  0  0  0  0  0  0  0  0  0  0  0
  -26.8054  -12.0438   17.5031 C   0  0  0  0  0  0  0  0  0  0  0  0
  -27.8383  -11.6591   19.6530 C   0  0  0  0  0  0  0  0  0  0  0  0
  -27.1858  -27.0887   19.8734 C   0  0  0  0  0  0  0  0  0  0  0  0
  -27.5886   -8.4282   18.6940 C   0  0  0  0  0  0  0  0  0  0  0  0
  -27.7469   -7.2266   19.3844 C   0  0  0  0  0  0  0  0  0  0  0  0
  -25.1433  -26.1128   20.7070 C   0  0  0  0  0  0  0  0  0  0  0  0
  -30.1255   -7.6239   19.5308 C   0  0  0  0  0  0  0  0  0  0  0  0
  -29.4276  -21.3174   18.9089 C   0  0  0  0  0  0  0  0  0  0  0  0
  -26.0837  -13.3053   19.4330 C   0  0  0  0  0  0  0  0  0  0  0  0
  -23.9619  -14.1111   20.5975 C   0  0  0  0  0  0  0  0  0  0  0  0
  -26.5370  -33.6131   24.2845 C   0  0  0  0  0  0  0  0  0  0  0  0
  -25.2395  -28.4890   20.2553 C   0  0  0  0  0  0  0  0  0  0  0  0
  -26.4103  -32.2307   24.0488 C   0  0  0  0  0  0  0  0  0  0  0  0
  -24.5135  -27.3664   20.6784 C   0  0  0  0  0  0  0  0  0  0  0  0
  -27.7345  -11.3668   18.2930 C   0  0  0  0  0  0  0  0  0  0  0  0
  -26.4726  -25.9754   20.3082 C   0  0  0  0  0  0  0  0  0  0  0  0
  -28.6988   -9.2277   18.4220 C   0  0  0  0  0  0  0  0  0  0  0  0
  -29.0153   -6.8244   19.8028 C   0  0  0  0  0  0  0  0  0  0  0  0
  -29.9672   -8.8256   18.8404 C   0  0  0  0  0  0  0  0  0  0  0  0
  -25.2317  -14.3068   20.0223 C   0  0  0  0  0  0  0  0  0  0  0  0
  -29.7236  -20.7247   20.1166 C   0  0  0  0  0  0  0  0  0  0  0  0
  -28.8960  -23.2598   19.9923 C   0  0  0  0  0  0  0  0  0  0  0  0
  -29.1913  -22.6670   21.2002 C   0  0  0  0  0  0  0  0  0  0  0  0
  -23.5745  -15.3630   21.0086 C   0  0  0  0  0  0  0  0  0  0  0  0
  -23.2006  -12.9054   20.7470 C   0  0  0  0  0  0  0  0  0  0  0  0
  -23.7740  -30.1099   22.5638 C   0  0  0  0  0  0  0  0  0  0  0  0
  -21.0953  -29.0336   21.0844 C   0  0  0  0  0  0  0  0  0  0  0  0
  -19.6396  -26.6969   19.0676 C   0  0  0  0  0  0  0  0  0  0  0  0
  -26.6889  -20.1370   22.5464 C   0  0  0  0  0  0  0  0  0  0  0  0
  -25.3640  -34.4540   24.7222 C   0  0  0  0  0  0  0  0  0  0  0  0
  -24.5830  -29.8408   20.1912 C   0  0  0  0  0  0  0  0  0  0  0  0
  -23.0749  -27.4697   21.1123 C   0  0  0  0  0  0  0  0  0  0  0  0
  -24.0115  -33.7968   24.4591 C   0  0  0  0  0  0  0  0  0  0  0  0
  -24.1601  -19.9964   19.9613 C   0  0  0  0  0  0  0  0  0  0  0  0
  -24.0270  -32.3418   24.9169 C   0  0  0  0  0  0  0  0  0  0  0  0
  -24.0321  -18.4877   19.7428 C   0  0  0  0  0  0  0  0  0  0  0  0
  -25.6079  -20.3949   20.2318 C   0  0  0  0  0  0  0  0  0  0  0  0
  -26.1156  -18.1673   21.1557 C   0  0  0  0  0  0  0  0  0  0  0  0
  -25.0719  -31.5305   24.1412 C   0  0  1  0  0  0  0  0  0  0  0  0
  -23.3800  -29.9655   21.1210 C   0  0  1  0  0  0  0  0  0  0  0  0
  -24.6720  -17.6977   20.8997 C   0  0  2  0  0  0  0  0  0  0  0  0
  -30.1850  -19.3105   20.1709 C   0  0  0  0  0  0  0  0  0  0  0  0
  -30.3442  -24.2102   22.8069 C   0  0  0  0  0  0  0  0  0  0  0  0
  -17.4272  -26.0599   18.0692 C   0  0  0  0  0  0  0  0  0  0  0  0
  -20.1940  -27.9391   23.7862 C   0  0  0  0  0  0  0  0  0  0  0  0
  -18.5125  -26.5325   22.5771 C   0  0  0  0  0  0  0  0  0  0  0  0
  -18.3832  -29.0200   22.4418 C   0  0  0  0  0  0  0  0  0  0  0  0
  -20.6642  -27.0074   16.3085 C   0  0  0  0  0  0  0  0  0  0  0  0
  -28.4301  -24.6839   19.9129 C   0  0  0  0  0  0  0  0  0  1  0  0
  -28.6984  -22.5180   23.7054 C   0  0  0  0  0  0  0  0  0  0  0  0
  -27.2074  -22.2007   23.8229 C   0  0  0  0  0  0  0  0  0  0  0  0
  -29.0616  -23.4128   22.4842 C   0  0  2  0  0  0  0  0  0  0  0  0
  -20.2258  -27.8057   21.2080 C   0  0  1  0  0  0  0  0  0  0  0  0
  -18.7204  -26.8343   17.8674 C   0  0  2  0  0  0  0  0  0  0  0  0
  -19.3566  -27.8224   22.4970 C   0  0  0  0  0  0  0  0  0  0  0  0
  -29.0085  -22.5956   18.8250 N   0  0  0  0  0  0  0  0  0  0  0  0
  -25.6248  -15.5827   20.0623 N   0  0  0  0  0  0  0  0  0  0  0  0
  -29.6108  -21.3889   21.2839 N   0  0  0  0  0  0  0  0  0  0  0  0
  -24.5959  -16.2000   20.6675 N   0  0  0  0  0  0  0  0  0  0  0  0
  -22.4793  -28.8140   21.0376 N   0  0  0  0  0  0  0  0  0  0  0  0
  -26.1516  -19.6198   21.3559 N   0  0  0  0  0  0  0  0  0  0  0  0
  -22.4631  -15.8186   21.6248 N   0  0  0  0  0  0  0  0  0  0  0  0
  -23.7471  -11.7065   20.2691 N   0  0  0  0  0  0  0  0  0  0  0  0
  -24.5791  -31.2033   22.8204 N   0  0  0  0  0  0  0  0  0  0  0  0
  -19.4578  -27.7231   19.9704 N   0  0  0  0  0  0  0  0  0  0  0  0
  -26.6923  -21.5223   22.6543 N   0  0  0  0  0  0  0  0  0  0  0  0
  -19.3903  -26.3188   16.6401 N   0  3  0  0  0  0  0  0  0  0  0  0
  -22.0621  -12.8941   21.2736 O   0  0  0  0  0  0  0  0  0  0  0  0
  -23.3759  -29.2909   23.3837 O   0  0  0  0  0  0  0  0  0  0  0  0
  -20.5658  -30.1460   21.0243 O   0  0  0  0  0  0  0  0  0  0  0  0
  -20.4365  -25.7697   19.1936 O   0  0  0  0  0  0  0  0  0  0  0  0
  -27.1285  -19.4170   23.4494 O   0  0  0  0  0  0  0  0  0  0  0  0
  -28.5400  -10.4208   17.7372 O   0  0  0  0  0  0  0  0  0  0  0  0
  -27.0701  -24.7532   20.3396 O   0  0  0  0  0  0  0  0  0  1  0  0
  -29.1669   -5.6712   20.4670 F   0  0  0  0  0  0  0  0  0  0  0  0
  -31.0374   -9.5900   18.5831 F   0  0  0  0  0  0  0  0  0  0  0  0
  1  2  1  0  0  0  0
  1  5  2  0  0  0  0
  2  6  2  0  0  0  0
  3  8  2  0  0  0  0
  3 16  1  0  0  0  0
  4  9  1  0  0  0  0
  4 16  2  0  0  0  0
  5 18  1  0  0  0  0
  6 20  1  0  0  0  0
  7 10  2  0  0  0  0
  7 19  1  0  0  0  0
  8 22  1  0  0  0  0
  9 22  2  0  0  0  0
 10 23  1  0  0  0  0
 11 12  2  0  0  0  0
 11 24  1  0  0  0  0
 12 25  1  0  0  0  0
 13 21  1  0  0  0  0
 13 23  2  0  0  0  0
 14 25  2  0  0  0  0
 14 26  1  0  0  0  0
 15 28  1  0  0  0  0
 15 63  2  0  0  0  0
 16 27  1  0  0  0  0
 17 27  1  0  0  0  0
 17 31  2  0  0  0  0
 17 32  1  0  0  0  0
 18 20  2  0  0  0  0
 18 37  1  0  0  0  0
 19 21  2  0  0  0  0
 19 38  1  0  0  0  0
 20 46  1  0  0  0  0
 21 39  1  0  0  0  0
 22 80  1  0  0  0  0
 23 81  1  0  0  0  0
 24 26  2  0  0  0  0
 24 80  1  0  0  0  0
 25 82  1  0  0  0  0
 26 83  1  0  0  0  0
 27 64  2  0  0  0  0
 28 49  1  0  0  0  0
 28 65  2  0  0  0  0
 29 30  2  0  0  0  0
 29 56  1  0  0  0  0
 29 63  1  0  0  0  0
 30 59  1  0  0  0  0
 30 65  1  0  0  0  0
 31 66  1  0  0  0  0
 31 69  1  0  0  0  0
 32 70  1  0  0  0  0
 32 75  2  0  0  0  0
 33 47  1  0  0  0  0
 33 71  1  0  0  0  0
 33 76  2  0  0  0  0
 34 60  1  0  0  0  0
 34 67  1  0  0  0  0
 34 77  2  0  0  0  0
 35 61  1  0  0  0  0
 35 72  1  0  0  0  0
 35 78  2  0  0  0  0
 36 68  1  0  0  0  0
 36 73  1  0  0  0  0
 36 79  2  0  0  0  0
 37 40  1  0  0  0  0
 38 47  1  0  0  0  0
 39 67  1  0  0  0  0
 40 42  1  0  0  0  0
 41 43  1  0  0  0  0
 41 44  1  0  0  0  0
 42 46  1  0  0  0  0
 43 48  1  0  0  0  0
 44 68  1  0  0  0  0
 45 48  1  0  0  0  0
 45 68  1  0  0  0  0
 46 71  1  0  0  0  0
 47 67  1  0  0  0  0
 48 66  1  0  0  0  0
 50 59  1  0  0  0  0
 51 61  1  0  0  0  0
 52 62  1  0  0  0  0
 53 62  1  0  0  0  0
 54 62  1  0  0  0  0
 55 74  1  0  0  0  0
 56 81  1  0  0  0  0
 57 58  1  0  0  0  0
 57 59  1  0  0  0  0
 58 73  1  0  0  0  0
 60 62  1  0  0  0  0
 60 72  1  0  0  0  0
 61 74  1  0  0  0  0
 64 66  1  0  0  0  0
M  CHG  1  74   1
M  ISO  4  36 100  56 101  73 100  81 101
M  END
> <Batch ID>
0047

> <Smiles>
CNC(C)C(=O)NC(C(=O)N1Cc2cc([101O:1][101CH2:1]c3ncc(C)nc3C(C)CC[100NH:0][100C:0](=O)N3CCCC(n4nc(-c5ccc(Oc6ccc(F)cc6F)cc5)c(C(N)=O)c4N)C3)ccc2CC1C(=O)NC1CCCc2ccccc21)C(C)(C)C

> <Shape>
0.256

> <Color>
0.055

> <Negative vol penalty>
0.000

$$$$

  -OEChem-04052317243D

 82 90  0     1  0  0  0  0  0999 V2000
  -27.6442  -35.8407   22.5256 C   0  0  0  0  0  0  0  0  0  0  0  0
  -28.4462  -34.7776   22.1232 C   0  0  0  0  0  0  0  0  0  0  0  0
  -23.7551  -10.0230   22.3080 C   0  0  0  0  0  0  0  0  0  0  0  0
  -24.3275  -11.5453   24.0946 C   0  0  0  0  0  0  0  0  0  0  0  0
  -26.4292  -35.5934   23.1633 C   0  0  0  0  0  0  0  0  0  0  0  0
  -28.0341  -33.4665   22.3592 C   0  0  0  0  0  0  0  0  0  0  0  0
  -28.3993  -26.9020   19.5147 C   0  0  0  0  0  0  0  0  0  0  0  0
  -23.2268   -9.1289   23.2391 C   0  0  0  0  0  0  0  0  0  0  0  0
  -23.7991  -10.6513   25.0257 C   0  0  0  0  0  0  0  0  0  0  0  0
  -28.7545  -25.5981   19.8571 C   0  0  0  0  0  0  0  0  0  0  0  0
  -24.3943   -6.8317   25.4264 C   0  0  0  0  0  0  0  0  0  0  0  0
  -24.7245   -5.4835   25.2890 C   0  0  0  0  0  0  0  0  0  0  0  0
  -26.5993  -25.2902   20.8960 C   0  0  0  0  0  0  0  0  0  0  0  0
  -22.3846   -4.9357   25.0404 C   0  0  0  0  0  0  0  0  0  0  0  0
  -30.0489  -20.1472   22.5948 C   0  0  0  0  0  0  0  0  0  0  0  0
  -24.3056  -11.2312   22.7357 C   0  0  0  0  0  0  0  0  0  0  0  0
  -24.1707  -13.1919   21.1094 C   0  0  0  0  0  0  0  0  0  0  0  0
  -25.9976  -34.2785   23.3986 C   0  0  0  0  0  0  0  0  0  0  0  0
  -27.1434  -27.4144   19.8705 C   0  0  0  0  0  0  0  0  0  0  0  0
  -26.8129  -33.2014   23.0018 C   0  0  0  0  0  0  0  0  0  0  0  0
  -26.2296  -26.6001   20.5547 C   0  0  0  0  0  0  0  0  0  0  0  0
  -29.9960  -19.0966   21.7015 C   0  0  0  0  0  0  0  0  0  0  0  0
  -23.2487   -9.4430   24.5980 C   0  0  0  0  0  0  0  0  0  0  0  0
  -27.8556  -24.7929   20.5504 C   0  0  0  0  0  0  0  0  0  0  0  0
  -23.0592   -7.2320   25.3710 C   0  0  0  0  0  0  0  0  0  0  0  0
  -23.7197   -4.5355   25.0959 C   0  0  0  0  0  0  0  0  0  0  0  0
  -22.0544   -6.2840   25.1780 C   0  0  0  0  0  0  0  0  0  0  0  0
  -24.8520  -12.1550   21.7744 C   0  0  0  0  0  0  0  0  0  0  0  0
  -29.7681  -19.4431   20.3854 C   0  0  0  0  0  0  0  0  0  0  0  0
  -25.1249  -13.7724   20.3101 C   0  0  0  0  0  0  0  0  0  0  0  0
  -29.6764  -21.6483   20.9290 C   0  0  0  0  0  0  0  0  0  0  0  0
  -22.7979  -13.5944   21.2056 C   0  0  0  0  0  0  0  0  0  0  0  0
  -26.1344  -29.8112   21.6982 C   0  0  0  0  0  0  0  0  0  0  0  0
  -23.2312  -28.9743   20.5179 C   0  0  0  0  0  0  0  0  0  0  0  0
  -21.2515  -26.5628   19.1351 C   0  0  0  0  0  0  0  0  0  0  0  0
  -31.0957  -14.0684   20.6467 C   0  0  0  0  0  0  0  0  0  0  0  0
  -24.6987  -34.0615   24.1338 C   0  0  0  0  0  0  0  0  0  0  0  0
  -26.7653  -28.8141   19.4703 C   0  0  0  0  0  0  0  0  0  0  0  0
  -24.8611  -27.0958   20.9422 C   0  0  0  0  0  0  0  0  0  0  0  0
  -24.1596  -32.6386   24.0108 C   0  0  0  0  0  0  0  0  0  0  0  0
  -29.1655  -12.7533   17.9594 C   0  0  0  0  0  0  0  0  0  0  0  0
  -25.2709  -31.6234   24.2580 C   0  0  0  0  0  0  0  0  0  0  0  0
  -27.7797  -12.5443   18.5724 C   0  0  0  0  0  0  0  0  0  0  0  0
  -30.2774  -12.4483   18.9609 C   0  0  0  0  0  0  0  0  0  0  0  0
  -28.7868  -12.9629   20.8548 C   0  0  0  0  0  0  0  0  0  0  0  0
  -26.3888  -31.7649   23.2179 C   0  0  1  0  0  0  0  0  0  0  0  0
  -25.6544  -29.4031   20.3342 C   0  0  1  0  0  0  0  0  0  0  0  0
  -27.6323  -13.3118   19.9000 C   0  0  2  0  0  0  0  0  0  0  0  0
  -29.6911  -18.3894   19.3302 C   0  0  0  0  0  0  0  0  0  0  0  0
  -18.9137  -26.1649   18.3143 C   0  0  0  0  0  0  0  0  0  0  0  0
  -22.2548  -28.7771   23.4020 C   0  0  0  0  0  0  0  0  0  0  0  0
  -20.2748  -27.4901   22.5702 C   0  0  0  0  0  0  0  0  0  0  0  0
  -20.6347  -29.8426   21.8226 C   0  0  0  0  0  0  0  0  0  0  0  0
  -22.1907  -25.9775   16.3903 C   0  0  0  0  0  0  0  0  0  0  0  0
  -30.1756  -17.6934   22.1533 C   0  0  0  0  0  0  0  0  0  0  0  0
  -29.4985  -23.0742   20.4971 C   0  0  0  0  0  0  0  0  0  1  0  0
  -31.5817  -17.1088   21.8971 C   0  0  0  0  0  0  0  0  0  0  0  0
  -31.7692  -15.6819   22.4080 C   0  0  0  0  0  0  0  0  0  0  0  0
  -22.1423  -28.0164   20.9373 C   0  0  1  0  0  0  0  0  0  0  0  0
  -20.3240  -26.5876   17.9336 C   0  0  2  0  0  0  0  0  0  0  0  0
  -21.3531  -28.5226   22.1776 C   0  0  0  0  0  0  0  0  0  0  0  0
  -29.8928  -21.4399   22.2417 N   0  0  0  0  0  0  0  0  0  0  0  0
  -26.1396  -12.0786   21.4276 N   0  0  0  0  0  0  0  0  0  0  0  0
  -29.6029  -20.7135   19.9624 N   0  0  0  0  0  0  0  0  0  0  0  0
  -26.2749  -13.0749   20.5359 N   0  0  0  0  0  0  0  0  0  0  0  0
  -24.5407  -28.4736   20.5339 N   0  0  0  0  0  0  0  0  0  0  0  0
  -30.0797  -13.2090   20.1970 N   0  0  0  0  0  0  0  0  0  0  0  0
  -25.0840  -14.8064   19.4431 N   0  0  0  0  0  0  0  0  0  0  0  0
  -21.9544  -12.8898   22.0753 N   0  0  0  0  0  0  0  0  0  0  0  0
  -25.9924  -31.1597   21.9645 N   0  0  0  0  0  0  0  0  0  0  0  0
  -21.3177  -27.7928   19.7547 N   0  0  0  0  0  0  0  0  0  0  0  0
  -30.8246  -14.7565   21.8231 N   0  0  0  0  0  0  0  0  0  0  0  0
  -20.8221  -25.6638   16.8756 N   0  3  0  0  0  0  0  0  0  0  0  0
  -22.3292  -14.5402   20.5278 O   0  0  0  0  0  0  0  0  0  0  0  0
  -26.5979  -28.9651   22.4539 O   0  0  0  0  0  0  0  0  0  0  0  0
  -22.9302  -30.1223   20.1815 O   0  0  0  0  0  0  0  0  0  0  0  0
  -21.8539  -25.5523   19.4908 O   0  0  0  0  0  0  0  0  0  0  0  0
  -32.1630  -14.2158   20.0417 O   0  0  0  0  0  0  0  0  0  0  0  0
  -22.7330   -8.5709   25.5069 O   0  0  0  0  0  0  0  0  0  0  0  0
  -28.2000  -23.5200   20.8864 O   0  0  0  0  0  0  0  0  0  1  0  0
  -24.0371   -3.2411   24.9624 F   0  0  0  0  0  0  0  0  0  0  0  0
  -20.7701   -6.6626   25.1226 F   0  0  0  0  0  0  0  0  0  0  0  0
  1  2  1  0  0  0  0
  1  5  2  0  0  0  0
  2  6  2  0  0  0  0
  3  8  2  0  0  0  0
  3 16  1  0  0  0  0
  4  9  1  0  0  0  0
  4 16  2  0  0  0  0
  5 18  1  0  0  0  0
  6 20  1  0  0  0  0
  7 10  2  0  0  0  0
  7 19  1  0  0  0  0
  8 23  1  0  0  0  0
  9 23  2  0  0  0  0
 10 24  1  0  0  0  0
 11 12  2  0  0  0  0
 11 25  1  0  0  0  0
 12 26  1  0  0  0  0
 13 21  1  0  0  0  0
 13 24  2  0  0  0  0
 14 26  2  0  0  0  0
 14 27  1  0  0  0  0
 15 22  1  0  0  0  0
 15 62  2  0  0  0  0
 16 28  1  0  0  0  0
 17 28  1  0  0  0  0
 17 30  2  0  0  0  0
 17 32  1  0  0  0  0
 18 20  2  0  0  0  0
 18 37  1  0  0  0  0
 19 21  2  0  0  0  0
 19 38  1  0  0  0  0
 20 46  1  0  0  0  0
 21 39  1  0  0  0  0
 22 29  2  0  0  0  0
 22 55  1  0  0  0  0
 23 79  1  0  0  0  0
 24 80  1  0  0  0  0
 25 27  2  0  0  0  0
 25 79  1  0  0  0  0
 26 81  1  0  0  0  0
 27 82  1  0  0  0  0
 28 63  2  0  0  0  0
 29 49  1  0  0  0  0
 29 64  1  0  0  0  0
 30 65  1  0  0  0  0
 30 68  1  0  0  0  0
 31 56  1  0  0  0  0
 31 62  1  0  0  0  0
 31 64  2  0  0  0  0
 32 69  1  0  0  0  0
 32 74  2  0  0  0  0
 33 47  1  0  0  0  0
 33 70  1  0  0  0  0
 33 75  2  0  0  0  0
 34 59  1  0  0  0  0
 34 66  1  0  0  0  0
 34 76  2  0  0  0  0
 35 60  1  0  0  0  0
 35 71  1  0  0  0  0
 35 77  2  0  0  0  0
 36 67  1  0  0  0  0
 36 72  1  0  0  0  0
 36 78  2  0  0  0  0
 37 40  1  0  0  0  0
 38 47  1  0  0  0  0
 39 66  1  0  0  0  0
 40 42  1  0  0  0  0
 41 43  1  0  0  0  0
 41 44  1  0  0  0  0
 42 46  1  0  0  0  0
 43 48  1  0  0  0  0
 44 67  1  0  0  0  0
 45 48  1  0  0  0  0
 45 67  1  0  0  0  0
 46 70  1  0  0  0  0
 47 66  1  0  0  0  0
 48 65  1  0  0  0  0
 50 60  1  0  0  0  0
 51 61  1  0  0  0  0
 52 61  1  0  0  0  0
 53 61  1  0  0  0  0
 54 73  1  0  0  0  0
 55 57  1  0  0  0  0
 56 80  1  0  0  0  0
 57 58  1  0  0  0  0
 58 72  1  0  0  0  0
 59 61  1  0  0  0  0
 59 71  1  0  0  0  0
 60 73  1  0  0  0  0
 63 65  1  0  0  0  0
M  CHG  1  73   1
M  ISO  4  36 100  56 101  72 100  80 101
M  END
> <Batch ID>
0047

> <Smiles>
CNC(C)C(=O)NC(C(=O)N1Cc2cc([101O:1][101CH2:1]c3ncc(CCC[100NH:0][100C:0](=O)N4CCCC(n5nc(-c6ccc(Oc7ccc(F)cc7F)cc6)c(C(N)=O)c5N)C4)c(C)n3)ccc2CC1C(=O)NC1CCCc2ccccc21)C(C)(C)C

> <Shape>
0.338

> <Color>
0.147

> <Negative vol penalty>
0.000

$$$$

  -OEChem-04052317243D

 81 89  0     1  0  0  0  0  0999 V2000
  -31.6248  -24.7884   16.7118 C   0  0  0  0  0  0  0  0  0  0  0  0
  -30.3516  -24.5454   17.2171 C   0  0  0  0  0  0  0  0  0  0  0  0
  -24.2905  -13.6405   19.0986 C   0  0  0  0  0  0  0  0  0  0  0  0
  -23.0202  -15.0368   20.6064 C   0  0  0  0  0  0  0  0  0  0  0  0
  -32.4842  -25.6595   17.3800 C   0  0  0  0  0  0  0  0  0  0  0  0
  -29.9374  -25.1726   18.3916 C   0  0  0  0  0  0  0  0  0  0  0  0
  -25.2398  -27.0325   18.0483 C   0  0  0  0  0  0  0  0  0  0  0  0
  -23.5321  -12.5349   19.4834 C   0  0  0  0  0  0  0  0  0  0  0  0
  -22.2617  -13.9312   20.9913 C   0  0  0  0  0  0  0  0  0  0  0  0
  -24.1862  -26.1273   18.1687 C   0  0  0  0  0  0  0  0  0  0  0  0
  -23.4092  -10.3837   22.0876 C   0  0  0  0  0  0  0  0  0  0  0  0
  -24.0882   -9.1963   22.3605 C   0  0  0  0  0  0  0  0  0  0  0  0
  -23.8847  -26.7933   20.4676 C   0  0  0  0  0  0  0  0  0  0  0  0
  -22.8487   -8.0850   20.6095 C   0  0  0  0  0  0  0  0  0  0  0  0
  -25.1006  -22.0927   19.9241 C   0  0  0  0  0  0  0  0  0  0  0  0
  -24.0344  -21.3824   21.7173 C   0  0  0  0  0  0  0  0  0  0  0  0
  -24.0346  -14.8914   19.6601 C   0  0  0  0  0  0  0  0  0  0  0  0
  -24.5466  -16.9259   18.2088 C   0  0  0  0  0  0  0  0  0  0  0  0
  -32.0768  -26.3052   18.5580 C   0  0  0  0  0  0  0  0  0  0  0  0
  -25.6315  -27.8184   19.1417 C   0  0  0  0  0  0  0  0  0  0  0  0
  -30.7927  -26.0522   19.0769 C   0  0  0  0  0  0  0  0  0  0  0  0
  -24.9419  -27.7095   20.3577 C   0  0  0  0  0  0  0  0  0  0  0  0
  -22.5177  -12.6803   20.4297 C   0  0  0  0  0  0  0  0  0  0  0  0
  -23.5104  -26.0056   19.3793 C   0  0  0  0  0  0  0  0  0  0  0  0
  -22.4499  -10.4218   21.0756 C   0  0  0  0  0  0  0  0  0  0  0  0
  -23.8080   -8.0469   21.6215 C   0  0  0  0  0  0  0  0  0  0  0  0
  -22.1697   -9.2725   20.3366 C   0  0  0  0  0  0  0  0  0  0  0  0
  -24.8180  -16.0337   19.2634 C   0  0  0  0  0  0  0  0  0  0  0  0
  -25.9768  -21.6702   20.8958 C   0  0  0  0  0  0  0  0  0  0  0  0
  -25.5818  -17.8278   18.2470 C   0  0  0  0  0  0  0  0  0  0  0  0
  -23.4562  -16.9384   17.2780 C   0  0  0  0  0  0  0  0  0  0  0  0
  -28.2915  -28.1080   20.8575 C   0  0  0  0  0  0  0  0  0  0  0  0
  -26.6716  -30.5570   22.2361 C   0  0  0  0  0  0  0  0  0  0  0  0
  -23.6627  -31.9843   22.9821 C   0  0  0  0  0  0  0  0  0  0  0  0
  -28.8327  -20.3409   22.5131 C   0  0  0  0  0  0  0  0  0  0  0  0
  -33.0579  -27.2019   19.2708 C   0  0  0  0  0  0  0  0  0  0  0  0
  -26.7526  -28.8092   18.9877 C   0  0  0  0  0  0  0  0  0  0  0  0
  -25.3102  -28.5448   21.5557 C   0  0  0  0  0  0  0  0  0  0  0  0
  -32.4070  -28.1156   20.3060 C   0  0  0  0  0  0  0  0  0  0  0  0
  -30.1471  -17.8390   20.1226 C   0  0  0  0  0  0  0  0  0  0  0  0
  -31.4333  -27.3276   21.1766 C   0  0  0  0  0  0  0  0  0  0  0  0
  -28.8752  -17.1585   19.6197 C   0  0  0  0  0  0  0  0  0  0  0  0
  -29.9773  -18.3840   21.5375 C   0  0  0  0  0  0  0  0  0  0  0  0
  -27.5397  -18.6151   21.1930 C   0  0  0  0  0  0  0  0  0  0  0  0
  -30.2980  -26.7327   20.3348 C   0  0  1  0  0  0  0  0  0  0  0  0
  -27.4003  -29.1896   20.3156 C   0  0  1  0  0  0  0  0  0  0  0  0
  -27.6623  -18.0958   19.7526 C   0  0  2  0  0  0  0  0  0  0  0  0
  -22.6575  -33.9646   24.1508 C   0  0  0  0  0  0  0  0  0  0  0  0
  -27.2473  -29.2539   24.9343 C   0  0  0  0  0  0  0  0  0  0  0  0
  -25.4646  -30.6995   25.9344 C   0  0  0  0  0  0  0  0  0  0  0  0
  -27.4836  -31.7434   24.9066 C   0  0  0  0  0  0  0  0  0  0  0  0
  -28.0762  -22.6315   23.0236 C   0  0  0  0  0  0  0  0  0  0  0  0
  -22.3938  -32.9566   20.4915 C   0  0  0  0  0  0  0  0  0  0  0  0
  -27.4468  -21.6502   20.8495 C   0  0  0  0  0  0  0  0  0  0  0  0
  -21.6567  -23.1647   20.6143 C   0  0  0  0  0  0  0  0  0  0  0  0
  -22.5408  -22.2136   19.8047 C   0  0  0  0  0  0  0  0  0  0  0  0
  -22.2636  -24.5519   20.7893 C   0  0  0  0  0  0  0  0  0  1  0  0
  -25.7358  -30.6916   23.4130 C   0  0  1  0  0  0  0  0  0  0  0  0
  -23.1566  -33.4071   22.8268 C   0  0  2  0  0  0  0  0  0  0  0  0
  -26.4769  -30.5798   24.7753 C   0  0  0  0  0  0  0  0  0  0  0  0
  -25.3069  -21.2290   22.0094 N   0  0  0  0  0  0  0  0  0  0  0  0
  -25.9380  -16.3408   19.9233 N   0  0  0  0  0  0  0  0  0  0  0  0
  -23.8602  -21.9018   20.4646 N   0  0  0  0  0  0  0  0  0  0  0  0
  -26.3795  -17.4361   19.2817 N   0  0  0  0  0  0  0  0  0  0  0  0
  -26.4173  -29.4947   21.3571 N   0  0  0  0  0  0  0  0  0  0  0  0
  -28.7931  -19.2367   21.6460 N   0  0  0  0  0  0  0  0  0  0  0  0
  -25.8785  -18.9098   17.4962 N   0  0  0  0  0  0  0  0  0  0  0  0
  -22.4793  -15.9385   17.3798 N   0  0  0  0  0  0  0  0  0  0  0  0
  -29.3227  -27.7512   20.0097 N   0  0  0  0  0  0  0  0  0  0  0  0
  -25.0198  -31.9485   23.2237 N   0  0  0  0  0  0  0  0  0  0  0  0
  -28.0591  -21.4577   22.1623 N   0  0  0  0  0  0  0  0  0  0  0  0
  -22.0365  -33.4541   21.8449 N   0  3  0  0  0  0  0  0  0  0  0  0
  -23.3599  -17.8007   16.3721 O   0  0  0  0  0  0  0  0  0  0  0  0
  -28.0615  -27.6334   21.9636 O   0  0  0  0  0  0  0  0  0  0  0  0
  -27.5899  -31.3690   22.0978 O   0  0  0  0  0  0  0  0  0  0  0  0
  -22.9271  -31.0031   22.9013 O   0  0  0  0  0  0  0  0  0  0  0  0
  -29.5278  -20.3329   23.5372 O   0  0  0  0  0  0  0  0  0  0  0  0
  -21.7773  -11.6017   20.8053 O   0  0  0  0  0  0  0  0  0  0  0  0
  -22.4821  -25.1224   19.4997 O   0  0  0  0  0  0  0  0  0  1  0  0
  -24.4612   -6.9071   21.8827 F   0  0  0  0  0  0  0  0  0  0  0  0
  -21.2500   -9.3033   19.3624 F   0  0  0  0  0  0  0  0  0  0  0  0
  1  2  1  0  0  0  0
  1  5  2  0  0  0  0
  2  6  2  0  0  0  0
  3  8  2  0  0  0  0
  3 17  1  0  0  0  0
  4  9  1  0  0  0  0
  4 17  2  0  0  0  0
  5 19  1  0  0  0  0
  6 21  1  0  0  0  0
  7 10  2  0  0  0  0
  7 20  1  0  0  0  0
  8 23  1  0  0  0  0
  9 23  2  0  0  0  0
 10 24  1  0  0  0  0
 11 12  2  0  0  0  0
 11 25  1  0  0  0  0
 12 26  1  0  0  0  0
 13 22  1  0  0  0  0
 13 24  2  0  0  0  0
 14 26  2  0  0  0  0
 14 27  1  0  0  0  0
 15 29  2  0  0  0  0
 15 63  1  0  0  0  0
 16 61  2  0  0  0  0
 16 63  1  0  0  0  0
 17 28  1  0  0  0  0
 18 28  1  0  0  0  0
 18 30  2  0  0  0  0
 18 31  1  0  0  0  0
 19 21  2  0  0  0  0
 19 36  1  0  0  0  0
 20 22  2  0  0  0  0
 20 37  1  0  0  0  0
 21 45  1  0  0  0  0
 22 38  1  0  0  0  0
 23 78  1  0  0  0  0
 24 79  1  0  0  0  0
 25 27  2  0  0  0  0
 25 78  1  0  0  0  0
 26 80  1  0  0  0  0
 27 81  1  0  0  0  0
 28 62  2  0  0  0  0
 29 54  1  0  0  0  0
 29 61  1  0  0  0  0
 30 64  1  0  0  0  0
 30 67  1  0  0  0  0
 31 68  1  0  0  0  0
 31 73  2  0  0  0  0
 32 46  1  0  0  0  0
 32 69  1  0  0  0  0
 32 74  2  0  0  0  0
 33 58  1  0  0  0  0
 33 65  1  0  0  0  0
 33 75  2  0  0  0  0
 34 59  1  0  0  0  0
 34 70  1  0  0  0  0
 34 76  2  0  0  0  0
 35 66  1  0  0  0  0
 35 71  1  0  0  0  0
 35 77  2  0  0  0  0
 36 39  1  0  0  0  0
 37 46  1  0  0  0  0
 38 65  1  0  0  0  0
 39 41  1  0  0  0  0
 40 42  1  0  0  0  0
 40 43  1  0  0  0  0
 41 45  1  0  0  0  0
 42 47  1  0  0  0  0
 43 66  1  0  0  0  0
 44 47  1  0  0  0  0
 44 66  1  0  0  0  0
 45 69  1  0  0  0  0
 46 65  1  0  0  0  0
 47 64  1  0  0  0  0
 48 59  1  0  0  0  0
 49 60  1  0  0  0  0
 50 60  1  0  0  0  0
 51 60  1  0  0  0  0
 52 71  1  0  0  0  0
 53 72  1  0  0  0  0
 54 71  1  0  0  0  0
 55 56  1  0  0  0  0
 55 57  1  0  0  0  0
 56 63  1  0  0  0  0
 57 79  1  0  0  0  0
 58 60  1  0  0  0  0
 58 70  1  0  0  0  0
 59 72  1  0  0  0  0
 62 64  1  0  0  0  0
M  CHG  1  72   1
M  ISO  4  35 100  57 101  71 100  79 101
M  END
> <Batch ID>
0047

> <Smiles>
CNC(C)C(=O)NC(C(=O)N1Cc2cc([101O:1][101CH2:1]CCn3cnc(C[100N:0](C)[100C:0](=O)N4CCCC(n5nc(-c6ccc(Oc7ccc(F)cc7F)cc6)c(C(N)=O)c5N)C4)c3)ccc2CC1C(=O)NC1CCCc2ccccc21)C(C)(C)C

> <Shape>
0.253

> <Color>
0.049

> <Negative vol penalty>
0.000

$$$$

  -OEChem-04052317243D

 82 90  0     1  0  0  0  0  0999 V2000
  -25.4905  -32.9772   28.4470 C   0  0  0  0  0  0  0  0  0  0  0  0
  -26.1602  -32.0362   27.6715 C   0  0  0  0  0  0  0  0  0  0  0  0
  -25.7310  -12.5485   21.7137 C   0  0  0  0  0  0  0  0  0  0  0  0
  -25.5310  -12.5720   19.3062 C   0  0  0  0  0  0  0  0  0  0  0  0
  -24.1186  -33.1646   28.2834 C   0  0  0  0  0  0  0  0  0  0  0  0
  -25.4581  -31.2812   26.7326 C   0  0  0  0  0  0  0  0  0  0  0  0
  -27.5066  -29.3326   21.3000 C   0  0  0  0  0  0  0  0  0  0  0  0
  -25.1479  -11.2819   21.7499 C   0  0  0  0  0  0  0  0  0  0  0  0
  -24.9479  -11.3054   19.3422 C   0  0  0  0  0  0  0  0  0  0  0  0
  -28.0241  -28.1092   20.8766 C   0  0  0  0  0  0  0  0  0  0  0  0
  -26.0978   -8.0855   21.1902 C   0  0  0  0  0  0  0  0  0  0  0  0
  -26.6904   -7.1221   22.0064 C   0  0  0  0  0  0  0  0  0  0  0  0
  -25.8397  -27.4684   20.0785 C   0  0  0  0  0  0  0  0  0  0  0  0
  -24.6367   -6.9240   23.2636 C   0  0  0  0  0  0  0  0  0  0  0  0
  -25.9225  -13.1936   20.4919 C   0  0  0  0  0  0  0  0  0  0  0  0
  -27.8946  -14.8048   20.3429 C   0  0  0  0  0  0  0  0  0  0  0  0
  -23.4011  -32.4183   27.3353 C   0  0  0  0  0  0  0  0  0  0  0  0
  -26.1472  -29.6292   21.1255 C   0  0  0  0  0  0  0  0  0  0  0  0
  -24.0751  -31.4578   26.5571 C   0  0  0  0  0  0  0  0  0  0  0  0
  -25.3080  -28.6973   20.4983 C   0  0  0  0  0  0  0  0  0  0  0  0
  -24.7563  -10.6603   20.5641 C   0  0  0  0  0  0  0  0  0  0  0  0
  -27.1900  -27.1758   20.2683 C   0  0  0  0  0  0  0  0  0  0  0  0
  -24.7747   -8.4682   21.4107 C   0  0  0  0  0  0  0  0  0  0  0  0
  -25.9599   -6.5413   23.0431 C   0  0  0  0  0  0  0  0  0  0  0  0
  -24.0442   -7.8875   22.4473 C   0  0  0  0  0  0  0  0  0  0  0  0
  -26.5243  -14.5022   20.4540 C   0  0  0  0  0  0  0  0  0  0  0  0
  -30.6349  -23.7870   19.8624 C   0  0  0  0  0  0  0  0  0  0  0  0
  -30.0828  -22.0010   18.5453 C   0  0  0  0  0  0  0  0  0  0  0  0
  -28.8952  -22.6140   18.2118 C   0  0  0  0  0  0  0  0  0  0  0  0
  -29.4477  -24.4004   19.5284 C   0  0  0  0  0  0  0  0  0  0  0  0
  -27.9450  -16.1774   20.3513 C   0  0  0  0  0  0  0  0  0  0  0  0
  -29.0213  -13.9240   20.2412 C   0  0  0  0  0  0  0  0  0  0  0  0
  -23.7208  -30.2631   23.0786 C   0  0  0  0  0  0  0  0  0  0  0  0
  -22.1451  -30.8389   20.3023 C   0  0  0  0  0  0  0  0  0  0  0  0
  -21.8982  -30.2887   16.9432 C   0  0  0  0  0  0  0  0  0  0  0  0
  -26.0148  -21.1286   18.6467 C   0  0  0  0  0  0  0  0  0  0  0  0
  -21.9107  -32.6227   27.2275 C   0  0  0  0  0  0  0  0  0  0  0  0
  -25.6102  -30.9641   21.5637 C   0  0  0  0  0  0  0  0  0  0  0  0
  -23.8456  -28.9753   20.2692 C   0  0  0  0  0  0  0  0  0  0  0  0
  -21.3079  -32.0470   25.9486 C   0  0  0  0  0  0  0  0  0  0  0  0
  -24.3701  -19.5965   21.4079 C   0  0  0  0  0  0  0  0  0  0  0  0
  -21.8311  -30.6358   25.7000 C   0  0  0  0  0  0  0  0  0  0  0  0
  -24.8921  -18.1587   21.3927 C   0  0  0  0  0  0  0  0  0  0  0  0
  -24.1843  -20.1445   19.9947 C   0  0  0  0  0  0  0  0  0  0  0  0
  -25.8968  -18.6060   19.1147 C   0  0  0  0  0  0  0  0  0  0  0  0
  -23.3528  -30.6370   25.5108 C   0  0  1  0  0  0  0  0  0  0  0  0
  -24.1030  -30.9535   21.7999 C   0  0  1  0  0  0  0  0  0  0  0  0
  -26.1532  -18.0293   20.5175 C   0  0  2  0  0  0  0  0  0  0  0  0
  -31.6125  -24.4341   20.7827 C   0  0  0  0  0  0  0  0  0  0  0  0
  -31.6309  -20.0377   18.7341 C   0  0  0  0  0  0  0  0  0  0  0  0
  -20.4846  -30.8647   14.9514 C   0  0  0  0  0  0  0  0  0  0  0  0
  -20.0120  -28.8744   21.2511 C   0  0  0  0  0  0  0  0  0  0  0  0
  -19.1641  -28.7662   18.8979 C   0  0  0  0  0  0  0  0  0  0  0  0
  -19.1179  -30.9289   20.1403 C   0  0  0  0  0  0  0  0  0  0  0  0
  -24.1673  -31.5970   15.5655 C   0  0  0  0  0  0  0  0  0  0  0  0
  -30.4458  -20.6617   18.0010 C   0  0  0  0  0  0  0  0  0  0  0  0
  -27.9177  -21.9665   17.2916 C   0  0  0  0  0  0  0  0  0  0  0  0
  -29.0831  -25.7493   20.0752 C   0  0  0  0  0  0  0  0  0  1  0  0
  -21.3318  -30.0052   19.3418 C   0  0  1  0  0  0  0  0  0  0  0  0
  -21.7041  -31.2420   15.7779 C   0  0  2  0  0  0  0  0  0  0  0  0
  -19.9336  -29.6373   19.9137 C   0  0  0  0  0  0  0  0  0  0  0  0
  -25.7593  -15.5947   20.5277 N   0  0  0  0  0  0  0  0  0  0  0  0
  -30.9739  -22.5763   19.3768 N   0  0  0  0  0  0  0  0  0  0  0  0
  -28.5564  -23.8249   18.6971 N   0  0  0  0  0  0  0  0  0  0  0  0
  -26.6521  -16.5971   20.4629 N   0  0  0  0  0  0  0  0  0  0  0  0
  -23.3664  -30.2921   20.7209 N   0  0  0  0  0  0  0  0  0  0  0  0
  -25.4169  -19.9931   19.2177 N   0  0  0  0  0  0  0  0  0  0  0  0
  -28.9686  -17.0541   20.2741 N   0  0  0  0  0  0  0  0  0  0  0  0
  -28.7913  -12.5415   20.2475 N   0  0  0  0  0  0  0  0  0  0  0  0
  -23.6965  -31.0950   24.1816 N   0  0  0  0  0  0  0  0  0  0  0  0
  -21.2875  -30.7521   18.0894 N   0  0  0  0  0  0  0  0  0  0  0  0
  -27.1837  -20.8977   17.9317 N   0  0  0  0  0  0  0  0  0  0  0  0
  -22.8994  -31.2225   14.8881 N   0  3  0  0  0  0  0  0  0  0  0  0
  -30.1986  -14.3501   20.1639 O   0  0  0  0  0  0  0  0  0  0  0  0
  -23.4655  -29.0646   23.0651 O   0  0  0  0  0  0  0  0  0  0  0  0
  -21.7161  -31.9380   20.6620 O   0  0  0  0  0  0  0  0  0  0  0  0
  -22.5254  -29.2362   16.8455 O   0  0  0  0  0  0  0  0  0  0  0  0
  -25.5450  -22.2649   18.7699 O   0  0  0  0  0  0  0  0  0  0  0  0
  -24.1875   -9.4243   20.5990 O   0  0  0  0  0  0  0  0  0  0  0  0
  -27.6923  -25.9806   19.8546 O   0  0  0  0  0  0  0  0  0  1  0  0
  -26.5286   -5.6150   23.8258 F   0  0  0  0  0  0  0  0  0  0  0  0
  -22.7723   -8.2502   22.6633 F   0  0  0  0  0  0  0  0  0  0  0  0
  1  2  1  0  0  0  0
  1  5  2  0  0  0  0
  2  6  2  0  0  0  0
  3  8  2  0  0  0  0
  3 15  1  0  0  0  0
  4  9  1  0  0  0  0
  4 15  2  0  0  0  0
  5 17  1  0  0  0  0
  6 19  1  0  0  0  0
  7 10  2  0  0  0  0
  7 18  1  0  0  0  0
  8 21  1  0  0  0  0
  9 21  2  0  0  0  0
 10 22  1  0  0  0  0
 11 12  2  0  0  0  0
 11 23  1  0  0  0  0
 12 24  1  0  0  0  0
 13 20  1  0  0  0  0
 13 22  2  0  0  0  0
 14 24  2  0  0  0  0
 14 25  1  0  0  0  0
 15 26  1  0  0  0  0
 16 26  1  0  0  0  0
 16 31  2  0  0  0  0
 16 32  1  0  0  0  0
 17 19  2  0  0  0  0
 17 37  1  0  0  0  0
 18 20  2  0  0  0  0
 18 38  1  0  0  0  0
 19 46  1  0  0  0  0
 20 39  1  0  0  0  0
 21 79  1  0  0  0  0
 22 80  1  0  0  0  0
 23 25  2  0  0  0  0
 23 79  1  0  0  0  0
 24 81  1  0  0  0  0
 25 82  1  0  0  0  0
 26 62  2  0  0  0  0
 27 30  1  0  0  0  0
 27 49  1  0  0  0  0
 27 63  2  0  0  0  0
 28 29  2  0  0  0  0
 28 56  1  0  0  0  0
 28 63  1  0  0  0  0
 29 57  1  0  0  0  0
 29 64  1  0  0  0  0
 30 58  1  0  0  0  0
 30 64  2  0  0  0  0
 31 65  1  0  0  0  0
 31 68  1  0  0  0  0
 32 69  1  0  0  0  0
 32 74  2  0  0  0  0
 33 47  1  0  0  0  0
 33 70  1  0  0  0  0
 33 75  2  0  0  0  0
 34 59  1  0  0  0  0
 34 66  1  0  0  0  0
 34 76  2  0  0  0  0
 35 60  1  0  0  0  0
 35 71  1  0  0  0  0
 35 77  2  0  0  0  0
 36 67  1  0  0  0  0
 36 72  1  0  0  0  0
 36 78  2  0  0  0  0
 37 40  1  0  0  0  0
 38 47  1  0  0  0  0
 39 66  1  0  0  0  0
 40 42  1  0  0  0  0
 41 43  1  0  0  0  0
 41 44  1  0  0  0  0
 42 46  1  0  0  0  0
 43 48  1  0  0  0  0
 44 67  1  0  0  0  0
 45 48  1  0  0  0  0
 45 67  1  0  0  0  0
 46 70  1  0  0  0  0
 47 66  1  0  0  0  0
 48 65  1  0  0  0  0
 50 56  1  0  0  0  0
 51 60  1  0  0  0  0
 52 61  1  0  0  0  0
 53 61  1  0  0  0  0
 54 61  1  0  0  0  0
 55 73  1  0  0  0  0
 57 72  1  0  0  0  0
 58 80  1  0  0  0  0
 59 61  1  0  0  0  0
 59 71  1  0  0  0  0
 60 73  1  0  0  0  0
 62 65  1  0  0  0  0
M  CHG  1  73   1
M  ISO  4  36 100  58 101  72 100  80 101
M  END
> <Batch ID>
0047

> <Smiles>
CCc1nc(C)c([101CH2:1][101O:1]c2ccc3c(c2)CN(C(=O)C(NC(=O)C(C)NC)C(C)(C)C)C(C(=O)NC2CCCc4ccccc42)C3)nc1C[100NH:0][100C:0](=O)N1CCCC(n2nc(-c3ccc(Oc4ccc(F)cc4F)cc3)c(C(N)=O)c2N)C1

> <Shape>
0.226

> <Color>
0.087

> <Negative vol penalty>
0.000

$$$$

  -OEChem-04052317243D

 81 89  0     1  0  0  0  0  0999 V2000
  -27.5594  -27.8715   26.2842 C   0  0  0  0  0  0  0  0  0  0  0  0
  -27.8540  -26.5119   26.2683 C   0  0  0  0  0  0  0  0  0  0  0  0
  -23.2886   -9.7988   19.9142 C   0  0  0  0  0  0  0  0  0  0  0  0
  -23.7389   -9.9414   22.2836 C   0  0  0  0  0  0  0  0  0  0  0  0
  -26.2490  -28.3021   26.0813 C   0  0  0  0  0  0  0  0  0  0  0  0
  -26.8379  -25.5821   26.0505 C   0  0  0  0  0  0  0  0  0  0  0  0
  -28.1801  -21.9722   22.7624 C   0  0  0  0  0  0  0  0  0  0  0  0
  -22.5623   -8.6265   20.1228 C   0  0  0  0  0  0  0  0  0  0  0  0
  -23.0125   -8.7690   22.4922 C   0  0  0  0  0  0  0  0  0  0  0  0
  -29.0024  -20.9516   23.2379 C   0  0  0  0  0  0  0  0  0  0  0  0
  -19.7655   -7.8580   22.7096 C   0  0  0  0  0  0  0  0  0  0  0  0
  -18.8629   -7.8372   23.7728 C   0  0  0  0  0  0  0  0  0  0  0  0
  -27.0781  -19.5143   23.4628 C   0  0  0  0  0  0  0  0  0  0  0  0
  -20.0685   -5.9908   24.7601 C   0  0  0  0  0  0  0  0  0  0  0  0
  -30.6964  -15.1623   24.8255 C   0  0  0  0  0  0  0  0  0  0  0  0
  -23.8770  -10.4563   20.9946 C   0  0  0  0  0  0  0  0  0  0  0  0
  -24.1364  -12.9861   20.7940 C   0  0  0  0  0  0  0  0  0  0  0  0
  -25.2180  -27.3775   25.8513 C   0  0  0  0  0  0  0  0  0  0  0  0
  -26.7969  -21.7748   22.6436 C   0  0  0  0  0  0  0  0  0  0  0  0
  -25.5122  -26.0007   25.8457 C   0  0  0  0  0  0  0  0  0  0  0  0
  -26.2408  -20.5332   22.9831 C   0  0  0  0  0  0  0  0  0  0  0  0
  -22.4242   -8.1115   21.4117 C   0  0  0  0  0  0  0  0  0  0  0  0
  -28.4510  -19.7234   23.5909 C   0  0  0  0  0  0  0  0  0  0  0  0
  -20.8195   -6.9452   22.6715 C   0  0  0  0  0  0  0  0  0  0  0  0
  -19.0144   -6.9036   24.7981 C   0  0  0  0  0  0  0  0  0  0  0  0
  -20.9711   -6.0116   23.6968 C   0  0  0  0  0  0  0  0  0  0  0  0
  -24.6280  -11.6671   20.7797 C   0  0  0  0  0  0  0  0  0  0  0  0
  -30.8304  -16.5093   25.0940 C   0  0  0  0  0  0  0  0  0  0  0  0
  -31.7257  -14.5919   24.1050 C   0  0  0  0  0  0  0  0  0  0  0  0
  -25.2379  -13.7658   20.5386 C   0  0  0  0  0  0  0  0  0  0  0  0
  -32.8217  -16.5805   24.0000 C   0  0  0  0  0  0  0  0  0  0  0  0
  -22.8033  -13.4639   21.0181 C   0  0  0  0  0  0  0  0  0  0  0  0
  -24.2211  -23.1066   23.9456 C   0  0  0  0  0  0  0  0  0  0  0  0
  -22.6513  -21.1995   21.8429 C   0  0  0  0  0  0  0  0  0  0  0  0
  -22.6700  -18.3863   19.9109 C   0  0  0  0  0  0  0  0  0  0  0  0
  -31.1087  -12.9237   21.3601 C   0  0  0  0  0  0  0  0  0  0  0  0
  -23.8088  -27.8883   25.6842 C   0  0  0  0  0  0  0  0  0  0  0  0
  -25.9272  -22.8769   22.1038 C   0  0  0  0  0  0  0  0  0  0  0  0
  -24.7645  -20.2638   22.8550 C   0  0  0  0  0  0  0  0  0  0  0  0
  -22.8540  -26.8575   25.0875 C   0  0  0  0  0  0  0  0  0  0  0  0
  -29.4604  -13.6605   18.2914 C   0  0  0  0  0  0  0  0  0  0  0  0
  -23.0221  -25.5095   25.7815 C   0  0  0  0  0  0  0  0  0  0  0  0
  -27.9907  -13.3522   18.5825 C   0  0  0  0  0  0  0  0  0  0  0  0
  -30.3936  -12.6817   19.0008 C   0  0  0  0  0  0  0  0  0  0  0  0
  -28.7066  -12.2537   20.7457 C   0  0  0  0  0  0  0  0  0  0  0  0
  -24.4416  -24.9626   25.5880 C   0  0  1  0  0  0  0  0  0  0  0  0
  -24.4634  -22.7361   22.5097 C   0  0  1  0  0  0  0  0  0  0  0  0
  -27.7288  -13.2484   20.0970 C   0  0  2  0  0  0  0  0  0  0  0  0
  -34.0041  -17.3668   23.5444 C   0  0  0  0  0  0  0  0  0  0  0  0
  -21.2291  -17.0709   18.3327 C   0  0  0  0  0  0  0  0  0  0  0  0
  -21.0461  -20.1275   24.2059 C   0  0  0  0  0  0  0  0  0  0  0  0
  -20.3367  -18.2079   22.7636 C   0  0  0  0  0  0  0  0  0  0  0  0
  -19.7059  -20.5380   22.1347 C   0  0  0  0  0  0  0  0  0  0  0  0
  -24.5866  -18.7388   17.6835 C   0  0  0  0  0  0  0  0  0  0  0  0
  -29.7551  -17.2222   25.8773 C   0  0  0  0  0  0  0  0  0  0  0  0
  -31.6701  -13.1394   23.7679 C   0  0  0  0  0  0  0  0  0  0  0  0
  -28.6704  -17.8032   24.9768 C   0  0  0  0  0  0  0  0  0  1  0  0
  -22.1076  -19.7916   21.8765 C   0  0  1  0  0  0  0  0  0  0  0  0
  -22.2849  -18.1580   18.4604 C   0  0  2  0  0  0  0  0  0  0  0  0
  -20.8267  -19.6716   22.7496 C   0  0  0  0  0  0  0  0  0  0  0  0
  -25.9396  -11.6082   20.5345 N   0  0  0  0  0  0  0  0  0  0  0  0
  -31.8838  -17.2519   24.6950 N   0  0  0  0  0  0  0  0  0  0  0  0
  -32.8074  -15.2738   23.6745 N   0  0  0  0  0  0  0  0  0  0  0  0
  -26.2816  -12.9001   20.3922 N   0  0  0  0  0  0  0  0  0  0  0  0
  -23.9550  -21.3750   22.3283 N   0  0  0  0  0  0  0  0  0  0  0  0
  -30.0940  -12.6315   20.4338 N   0  0  0  0  0  0  0  0  0  0  0  0
  -25.4058  -15.1007   20.4271 N   0  0  0  0  0  0  0  0  0  0  0  0
  -21.7907  -12.5271   21.2662 N   0  0  0  0  0  0  0  0  0  0  0  0
  -24.5901  -24.3999   24.2629 N   0  0  0  0  0  0  0  0  0  0  0  0
  -21.9223  -19.3923   20.4856 N   0  0  0  0  0  0  0  0  0  0  0  0
  -30.7388  -12.8592   22.6979 N   0  0  0  0  0  0  0  0  0  0  0  0
  -23.4779  -17.7501   17.6658 N   0  3  0  0  0  0  0  0  0  0  0  0
  -22.5154  -14.6843   20.9828 O   0  0  0  0  0  0  0  0  0  0  0  0
  -23.7339  -22.2808   24.7087 O   0  0  0  0  0  0  0  0  0  0  0  0
  -21.9480  -22.1089   21.3957 O   0  0  0  0  0  0  0  0  0  0  0  0
  -23.5439  -17.7348   20.4786 O   0  0  0  0  0  0  0  0  0  0  0  0
  -32.2578  -13.2252   21.0199 O   0  0  0  0  0  0  0  0  0  0  0  0
  -21.7152   -6.9677   21.6156 O   0  0  0  0  0  0  0  0  0  0  0  0
  -29.2512  -18.7257   24.0559 O   0  0  0  0  0  0  0  0  0  1  0  0
  -18.1485   -6.8847   25.8199 F   0  0  0  0  0  0  0  0  0  0  0  0
  -21.9824   -5.1330   23.6663 F   0  0  0  0  0  0  0  0  0  0  0  0
  1  2  1  0  0  0  0
  1  5  2  0  0  0  0
  2  6  2  0  0  0  0
  3  8  2  0  0  0  0
  3 16  1  0  0  0  0
  4  9  1  0  0  0  0
  4 16  2  0  0  0  0
  5 18  1  0  0  0  0
  6 20  1  0  0  0  0
  7 10  2  0  0  0  0
  7 19  1  0  0  0  0
  8 22  1  0  0  0  0
  9 22  2  0  0  0  0
 10 23  1  0  0  0  0
 11 12  2  0  0  0  0
 11 24  1  0  0  0  0
 12 25  1  0  0  0  0
 13 21  1  0  0  0  0
 13 23  2  0  0  0  0
 14 25  2  0  0  0  0
 14 26  1  0  0  0  0
 15 28  1  0  0  0  0
 15 29  2  0  0  0  0
 16 27  1  0  0  0  0
 17 27  1  0  0  0  0
 17 30  2  0  0  0  0
 17 32  1  0  0  0  0
 18 20  2  0  0  0  0
 18 37  1  0  0  0  0
 19 21  2  0  0  0  0
 19 38  1  0  0  0  0
 20 46  1  0  0  0  0
 21 39  1  0  0  0  0
 22 78  1  0  0  0  0
 23 79  1  0  0  0  0
 24 26  2  0  0  0  0
 24 78  1  0  0  0  0
 25 80  1  0  0  0  0
 26 81  1  0  0  0  0
 27 61  2  0  0  0  0
 28 55  1  0  0  0  0
 28 62  2  0  0  0  0
 29 56  1  0  0  0  0
 29 63  1  0  0  0  0
 30 64  1  0  0  0  0
 30 67  1  0  0  0  0
 31 49  1  0  0  0  0
 31 62  1  0  0  0  0
 31 63  2  0  0  0  0
 32 68  1  0  0  0  0
 32 73  2  0  0  0  0
 33 47  1  0  0  0  0
 33 69  1  0  0  0  0
 33 74  2  0  0  0  0
 34 58  1  0  0  0  0
 34 65  1  0  0  0  0
 34 75  2  0  0  0  0
 35 59  1  0  0  0  0
 35 70  1  0  0  0  0
 35 76  2  0  0  0  0
 36 66  1  0  0  0  0
 36 71  1  0  0  0  0
 36 77  2  0  0  0  0
 37 40  1  0  0  0  0
 38 47  1  0  0  0  0
 39 65  1  0  0  0  0
 40 42  1  0  0  0  0
 41 43  1  0  0  0  0
 41 44  1  0  0  0  0
 42 46  1  0  0  0  0
 43 48  1  0  0  0  0
 44 66  1  0  0  0  0
 45 48  1  0  0  0  0
 45 66  1  0  0  0  0
 46 69  1  0  0  0  0
 47 65  1  0  0  0  0
 48 64  1  0  0  0  0
 50 59  1  0  0  0  0
 51 60  1  0  0  0  0
 52 60  1  0  0  0  0
 53 60  1  0  0  0  0
 54 72  1  0  0  0  0
 55 57  1  0  0  0  0
 56 71  1  0  0  0  0
 57 79  1  0  0  0  0
 58 60  1  0  0  0  0
 58 70  1  0  0  0  0
 59 72  1  0  0  0  0
 61 64  1  0  0  0  0
M  CHG  1  72   1
M  ISO  4  36 100  57 101  71 100  79 101
M  END
> <Batch ID>
0047

> <Smiles>
CNC(C)C(=O)NC(C(=O)N1Cc2cc([101O:1][101CH2:1]Cc3cc(C[100NH:0][100C:0](=O)N4CCCC(n5nc(-c6ccc(Oc7ccc(F)cc7F)cc6)c(C(N)=O)c5N)C4)nc(C)n3)ccc2CC1C(=O)NC1CCCc2ccccc21)C(C)(C)C

> <Shape>
0.144

> <Color>
0.174

> <Negative vol penalty>
0.000

$$$$

  -OEChem-04052317243D

 89 97  0     1  0  0  0  0  0999 V2000
  -24.5281  -23.7080   27.7660 C   0  0  0  0  0  0  0  0  0  0  0  0
  -25.1706  -23.5560   26.5415 C   0  0  0  0  0  0  0  0  0  0  0  0
  -23.2640   -9.6806   20.0312 C   0  0  0  0  0  0  0  0  0  0  0  0
  -23.7701   -9.9518   22.3780 C   0  0  0  0  0  0  0  0  0  0  0  0
  -25.2472  -24.1376   28.8806 C   0  0  0  0  0  0  0  0  0  0  0  0
  -26.5324  -23.8345   26.4305 C   0  0  0  0  0  0  0  0  0  0  0  0
  -29.0316  -20.2963   23.8076 C   0  0  0  0  0  0  0  0  0  0  0  0
  -22.5779   -8.5000   20.3156 C   0  0  0  0  0  0  0  0  0  0  0  0
  -23.0839   -8.7711   22.6624 C   0  0  0  0  0  0  0  0  0  0  0  0
  -28.9180  -20.3345   22.4185 C   0  0  0  0  0  0  0  0  0  0  0  0
  -20.3853   -5.6044   20.4680 C   0  0  0  0  0  0  0  0  0  0  0  0
  -19.1461   -5.4113   19.8574 C   0  0  0  0  0  0  0  0  0  0  0  0
  -31.0644  -21.4267   22.2791 C   0  0  0  0  0  0  0  0  0  0  0  0
  -32.0539  -17.1383   18.1721 C   0  0  0  0  0  0  0  0  0  0  0  0
  -18.3108   -7.4143   20.9191 C   0  0  0  0  0  0  0  0  0  0  0  0
  -31.9674  -16.8588   20.8850 C   0  0  0  0  0  0  0  0  0  0  0  0
  -23.8601  -10.4065   21.0624 C   0  0  0  0  0  0  0  0  0  0  0  0
  -24.0399  -12.9298   20.7330 C   0  0  0  0  0  0  0  0  0  0  0  0
  -26.6206  -24.4122   28.7855 C   0  0  0  0  0  0  0  0  0  0  0  0
  -30.1594  -20.8338   24.4445 C   0  0  0  0  0  0  0  0  0  0  0  0
  -27.2702  -24.2695   27.5446 C   0  0  0  0  0  0  0  0  0  0  0  0
  -31.1910  -21.3918   23.6761 C   0  0  0  0  0  0  0  0  0  0  0  0
  -32.9279  -16.2542   18.7949 C   0  0  0  0  0  0  0  0  0  0  0  0
  -32.8902  -16.1060   20.1769 C   0  0  0  0  0  0  0  0  0  0  0  0
  -22.4878   -8.0452   21.6311 C   0  0  0  0  0  0  0  0  0  0  0  0
  -29.9331  -20.9024   21.6542 C   0  0  0  0  0  0  0  0  0  0  0  0
  -20.5872   -6.7025   21.3042 C   0  0  0  0  0  0  0  0  0  0  0  0
  -18.1089   -6.3162   20.0829 C   0  0  0  0  0  0  0  0  0  0  0  0
  -19.5500   -7.6074   21.5297 C   0  0  0  0  0  0  0  0  0  0  0  0
  -24.5695  -11.6259   20.7693 C   0  0  0  0  0  0  0  0  0  0  0  0
  -31.1684  -17.8447   18.9699 C   0  0  0  0  0  0  0  0  0  0  0  0
  -25.1111  -13.7267   20.4108 C   0  0  0  0  0  0  0  0  0  0  0  0
  -22.6994  -13.3803   20.9696 C   0  0  0  0  0  0  0  0  0  0  0  0
  -35.7183  -17.0730   17.1382 C   0  0  0  0  0  0  0  0  0  0  0  0
  -35.2749  -16.0869   17.9437 C   0  0  0  0  0  0  0  0  0  0  0  0
  -30.6524  -23.1846   26.5264 C   0  0  0  0  0  0  0  0  0  0  0  0
  -33.6914  -22.0506   26.4944 C   0  0  0  0  0  0  0  0  0  0  0  0
  -36.1239  -20.3289   24.8314 C   0  0  0  0  0  0  0  0  0  0  0  0
  -30.8314  -13.2496   21.2220 C   0  0  0  0  0  0  0  0  0  0  0  0
  -27.3457  -24.9194   30.0069 C   0  0  0  0  0  0  0  0  0  0  0  0
  -30.2790  -20.7607   25.9421 C   0  0  0  0  0  0  0  0  0  0  0  0
  -32.4316  -21.9641   24.3102 C   0  0  0  0  0  0  0  0  0  0  0  0
  -28.8655  -24.8338   29.8922 C   0  0  0  0  0  0  0  0  0  0  0  0
  -29.2773  -13.6523   18.0765 C   0  0  0  0  0  0  0  0  0  0  0  0
  -29.3300  -25.3692   28.5415 C   0  0  0  0  0  0  0  0  0  0  0  0
  -27.8290  -13.2939   18.4064 C   0  0  0  0  0  0  0  0  0  0  0  0
  -30.2731  -12.7429   18.7986 C   0  0  0  0  0  0  0  0  0  0  0  0
  -28.6233  -12.3212   20.5938 C   0  0  0  0  0  0  0  0  0  0  0  0
  -28.7515  -24.5379   27.3901 C   0  0  1  0  0  0  0  0  0  0  0  0
  -31.2365  -21.8002   26.5165 C   0  0  1  0  0  0  0  0  0  0  0  0
  -27.6040  -13.2584   19.9280 C   0  0  2  0  0  0  0  0  0  0  0  0
  -37.1282  -17.5926   17.2496 C   0  0  0  0  0  0  0  0  0  0  0  0
  -34.9068  -17.7457   16.0657 C   0  0  0  0  0  0  0  0  0  0  0  0
  -38.5159  -19.5999   25.0424 C   0  0  0  0  0  0  0  0  0  0  0  0
  -34.6104  -24.8880   25.8509 C   0  0  0  0  0  0  0  0  0  0  0  0
  -36.8178  -23.9389   25.1475 C   0  0  0  0  0  0  0  0  0  0  0  0
  -36.0436  -23.6770   27.5043 C   0  0  0  0  0  0  0  0  0  0  0  0
  -32.8956  -12.2978   20.1094 C   0  0  0  0  0  0  0  0  0  0  0  0
  -35.3844  -17.4663   24.7002 C   0  0  0  0  0  0  0  0  0  0  0  0
  -33.8943  -15.4776   17.9634 C   0  0  0  0  0  0  0  0  0  0  0  0
  -33.8036  -15.1740   20.8947 C   0  0  0  0  0  0  0  0  0  0  0  0
  -30.2061  -18.8127   18.3290 C   0  0  0  0  0  0  0  0  0  0  0  0
  -30.7558  -20.2352   18.2030 C   0  0  0  0  0  0  0  0  0  0  0  0
  -33.0723  -14.1314   21.7503 C   0  0  0  0  0  0  0  0  0  0  0  0
  -31.0374  -20.8950   19.5479 C   0  0  0  0  0  0  0  0  0  1  0  0
  -34.9289  -22.3318   25.6768 C   0  0  1  0  0  0  0  0  0  0  0  0
  -37.0619  -19.2233   25.2810 C   0  0  2  0  0  0  0  0  0  0  0  0
  -35.5760  -23.7000   26.0328 C   0  0  0  0  0  0  0  0  0  0  0  0
  -31.1024  -17.7275   20.3151 N   0  0  0  0  0  0  0  0  0  0  0  0
  -25.8756  -11.5921   20.4920 N   0  0  0  0  0  0  0  0  0  0  0  0
  -26.1757  -12.8845   20.2784 N   0  0  0  0  0  0  0  0  0  0  0  0
  -32.4989  -21.8748   25.7782 N   0  0  0  0  0  0  0  0  0  0  0  0
  -29.9934  -12.7005   20.2404 N   0  0  0  0  0  0  0  0  0  0  0  0
  -25.2369  -15.0586   20.2305 N   0  0  0  0  0  0  0  0  0  0  0  0
  -21.7215  -12.4288   21.2897 N   0  0  0  0  0  0  0  0  0  0  0  0
  -29.4795  -23.2951   27.2485 N   0  0  0  0  0  0  0  0  0  0  0  0
  -35.8120  -21.1860   25.8656 N   0  0  0  0  0  0  0  0  0  0  0  0
  -32.2076  -13.2752   20.9506 N   0  0  0  0  0  0  0  0  0  0  0  0
  -36.7741  -17.9650   24.5362 N   0  3  0  0  0  0  0  0  0  0  0  0
  -22.3750  -14.5890   20.8831 O   0  0  0  0  0  0  0  0  0  0  0  0
  -31.2244  -24.0860   25.9248 O   0  0  0  0  0  0  0  0  0  0  0  0
  -33.7808  -21.9820   27.7228 O   0  0  0  0  0  0  0  0  0  0  0  0
  -35.7123  -20.4250   23.6774 O   0  0  0  0  0  0  0  0  0  0  0  0
  -30.3769  -13.6864   22.2873 O   0  0  0  0  0  0  0  0  0  0  0  0
  -21.8182   -6.8932   21.9090 O   0  0  0  0  0  0  0  0  0  0  0  0
  -29.8245  -20.9415   20.2983 O   0  0  0  0  0  0  0  0  0  1  0  0
  -16.9195   -6.1315   19.4953 F   0  0  0  0  0  0  0  0  0  0  0  0
  -19.7384   -8.6649   22.3310 F   0  0  0  0  0  0  0  0  0  0  0  0
  -36.1447  -15.5884   18.8589 F   0  0  0  0  0  0  0  0  0  0  0  0
  1  2  1  0  0  0  0
  1  5  2  0  0  0  0
  2  6  2  0  0  0  0
  3  8  2  0  0  0  0
  3 17  1  0  0  0  0
  4  9  1  0  0  0  0
  4 17  2  0  0  0  0
  5 19  1  0  0  0  0
  6 21  1  0  0  0  0
  7 10  2  0  0  0  0
  7 20  1  0  0  0  0
  8 25  1  0  0  0  0
  9 25  2  0  0  0  0
 10 26  1  0  0  0  0
 11 12  2  0  0  0  0
 11 27  1  0  0  0  0
 12 28  1  0  0  0  0
 13 22  1  0  0  0  0
 13 26  2  0  0  0  0
 14 23  2  0  0  0  0
 14 31  1  0  0  0  0
 15 28  2  0  0  0  0
 15 29  1  0  0  0  0
 16 24  2  0  0  0  0
 16 69  1  0  0  0  0
 17 30  1  0  0  0  0
 18 30  1  0  0  0  0
 18 32  2  0  0  0  0
 18 33  1  0  0  0  0
 19 21  2  0  0  0  0
 19 40  1  0  0  0  0
 20 22  2  0  0  0  0
 20 41  1  0  0  0  0
 21 49  1  0  0  0  0
 22 42  1  0  0  0  0
 23 24  1  0  0  0  0
 23 60  1  0  0  0  0
 24 61  1  0  0  0  0
 25 85  1  0  0  0  0
 26 86  1  0  0  0  0
 27 29  2  0  0  0  0
 27 85  1  0  0  0  0
 28 87  1  0  0  0  0
 29 88  1  0  0  0  0
 30 70  2  0  0  0  0
 31 62  1  0  0  0  0
 31 69  2  0  0  0  0
 32 71  1  0  0  0  0
 32 74  1  0  0  0  0
 33 75  1  0  0  0  0
 33 80  2  0  0  0  0
 34 35  2  0  0  0  0
 34 52  1  0  0  0  0
 34 53  1  0  0  0  0
 35 60  1  0  0  0  0
 35 89  1  0  0  0  0
 36 50  1  0  0  0  0
 36 76  1  0  0  0  0
 36 81  2  0  0  0  0
 37 66  1  0  0  0  0
 37 72  1  0  0  0  0
 37 82  2  0  0  0  0
 38 67  1  0  0  0  0
 38 77  1  0  0  0  0
 38 83  2  0  0  0  0
 39 73  1  0  0  0  0
 39 78  1  0  0  0  0
 39 84  2  0  0  0  0
 40 43  1  0  0  0  0
 41 50  1  0  0  0  0
 42 72  1  0  0  0  0
 43 45  1  0  0  0  0
 44 46  1  0  0  0  0
 44 47  1  0  0  0  0
 45 49  1  0  0  0  0
 46 51  1  0  0  0  0
 47 73  1  0  0  0  0
 48 51  1  0  0  0  0
 48 73  1  0  0  0  0
 49 76  1  0  0  0  0
 50 72  1  0  0  0  0
 51 71  1  0  0  0  0
 54 67  1  0  0  0  0
 55 68  1  0  0  0  0
 56 68  1  0  0  0  0
 57 68  1  0  0  0  0
 58 78  1  0  0  0  0
 59 79  1  0  0  0  0
 61 64  1  0  0  0  0
 62 63  1  0  0  0  0
 63 65  1  0  0  0  0
 64 78  1  0  0  0  0
 65 86  1  0  0  0  0
 66 68  1  0  0  0  0
 66 77  1  0  0  0  0
 67 79  1  0  0  0  0
 70 71  1  0  0  0  0
M  CHG  1  79   1
M  ISO  4  39 100  65 101  78 100  86 101
M  END
> <Batch ID>
0047

> <Smiles>
CNC(C)C(=O)NC(C(=O)N1Cc2cc([101O:1][101CH2:1]CCc3cc(CC(F)=C(C)C)c(CC[100N:0](C)[100C:0](=O)N4CCCC(n5nc(-c6ccc(Oc7ccc(F)cc7F)cc6)c(C(N)=O)c5N)C4)cn3)ccc2CC1C(=O)NC1CCCc2ccccc21)C(C)(C)C

> <Shape>
0.150

> <Color>
0.193

> <Negative vol penalty>
0.000

$$$$

  -OEChem-04052317243D

 85 93  0     1  0  0  0  0  0999 V2000
  -30.0558  -26.1264   13.5136 C   0  0  0  0  0  0  0  0  0  0  0  0
  -29.9564  -25.1403   14.4898 C   0  0  0  0  0  0  0  0  0  0  0  0
  -24.6041  -14.1464   20.9132 C   0  0  0  0  0  0  0  0  0  0  0  0
  -26.8148  -13.6025   20.1045 C   0  0  0  0  0  0  0  0  0  0  0  0
  -29.9868  -27.4716   13.8736 C   0  0  0  0  0  0  0  0  0  0  0  0
  -29.7889  -25.4988   15.8269 C   0  0  0  0  0  0  0  0  0  0  0  0
  -26.6430  -23.2516   21.8576 C   0  0  0  0  0  0  0  0  0  0  0  0
  -24.1612  -12.8718   20.5598 C   0  0  0  0  0  0  0  0  0  0  0  0
  -26.3719  -12.3279   19.7510 C   0  0  0  0  0  0  0  0  0  0  0  0
  -26.9400  -22.9903   23.1945 C   0  0  0  0  0  0  0  0  0  0  0  0
  -22.5393   -9.6383   20.2013 C   0  0  0  0  0  0  0  0  0  0  0  0
  -21.7504   -8.9476   21.1211 C   0  0  0  0  0  0  0  0  0  0  0  0
  -26.7547  -25.3439   23.6896 C   0  0  0  0  0  0  0  0  0  0  0  0
  -23.5461   -9.0452   22.7345 C   0  0  0  0  0  0  0  0  0  0  0  0
  -30.4750  -24.4641   23.3853 C   0  0  0  0  0  0  0  0  0  0  0  0
  -25.9309  -14.5118   20.6855 C   0  0  0  0  0  0  0  0  0  0  0  0
  -26.9382  -16.2263   22.2835 C   0  0  0  0  0  0  0  0  0  0  0  0
  -29.8086  -27.8467   15.2146 C   0  0  0  0  0  0  0  0  0  0  0  0
  -26.4100  -24.5646   21.4238 C   0  0  0  0  0  0  0  0  0  0  0  0
  -29.7187  -26.8503   16.2054 C   0  0  0  0  0  0  0  0  0  0  0  0
  -26.4525  -25.6190   22.3472 C   0  0  0  0  0  0  0  0  0  0  0  0
  -30.8763  -23.6502   24.4250 C   0  0  0  0  0  0  0  0  0  0  0  0
  -25.0451  -11.9626   19.9787 C   0  0  0  0  0  0  0  0  0  0  0  0
  -26.9987  -24.0368   24.1102 C   0  0  0  0  0  0  0  0  0  0  0  0
  -23.8317  -10.0324   20.5480 C   0  0  0  0  0  0  0  0  0  0  0  0
  -22.2538   -8.6511   22.3878 C   0  0  0  0  0  0  0  0  0  0  0  0
  -24.3350   -9.7359   21.8146 C   0  0  0  0  0  0  0  0  0  0  0  0
  -26.3889  -15.8284   21.0499 C   0  0  0  0  0  0  0  0  0  0  0  0
  -31.3893  -22.4227   24.0585 C   0  0  0  0  0  0  0  0  0  0  0  0
  -27.2095  -17.5631   22.1234 C   0  0  0  0  0  0  0  0  0  0  0  0
  -31.0805  -22.8946   21.8565 C   0  0  0  0  0  0  0  0  0  0  0  0
  -27.1817  -15.4562   23.4681 C   0  0  0  0  0  0  0  0  0  0  0  0
  -27.8173  -26.5272   19.3571 C   0  0  0  0  0  0  0  0  0  0  0  0
  -25.2807  -28.4318   20.0355 C   0  0  0  0  0  0  0  0  0  0  0  0
  -22.8093  -29.2947   22.2252 C   0  0  0  0  0  0  0  0  0  0  0  0
  -29.2225  -21.7912   19.0874 C   0  0  0  0  0  0  0  0  0  0  0  0
  -29.7872  -29.3143   15.5612 C   0  0  0  0  0  0  0  0  0  0  0  0
  -26.0646  -24.8268   19.9836 C   0  0  0  0  0  0  0  0  0  0  0  0
  -26.1902  -27.0441   21.9362 C   0  0  0  0  0  0  0  0  0  0  0  0
  -29.2329  -29.6033   16.9538 C   0  0  0  0  0  0  0  0  0  0  0  0
  -25.8679  -20.7786   18.4563 C   0  0  0  0  0  0  0  0  0  0  0  0
  -29.8516  -28.6602   17.9809 C   0  0  0  0  0  0  0  0  0  0  0  0
  -25.7519  -19.4311   19.1710 C   0  0  0  0  0  0  0  0  0  0  0  0
  -27.2493  -20.9706   17.8345 C   0  0  0  0  0  0  0  0  0  0  0  0
  -28.2625  -19.4416   19.4805 C   0  0  0  0  0  0  0  0  0  0  0  0
  -29.5116  -27.1990   17.6633 C   0  0  1  0  0  0  0  0  0  0  0  0
  -26.3513  -26.2617   19.5520 C   0  0  1  0  0  0  0  0  0  0  0  0
  -26.9052  -19.2260   20.1716 C   0  0  2  0  0  0  0  0  0  0  0  0
  -31.8580  -21.4561   25.0965 C   0  0  0  0  0  0  0  0  0  0  0  0
  -20.9151  -30.9142   22.5193 C   0  0  0  0  0  0  0  0  0  0  0  0
  -27.9311  -23.4000   28.2429 C   0  0  0  0  0  0  0  0  0  0  0  0
  -27.2769  -30.6429   20.6960 C   0  0  0  0  0  0  0  0  0  0  0  0
  -25.4298  -31.8666   21.8617 C   0  0  0  0  0  0  0  0  0  0  0  0
  -25.2662  -31.4008   19.4165 C   0  0  0  0  0  0  0  0  0  0  0  0
  -31.4618  -25.2624   26.2189 C   0  0  0  0  0  0  0  0  0  0  0  0
  -20.8127  -27.1142   22.3598 C   0  0  0  0  0  0  0  0  0  0  0  0
  -31.1945  -22.4752   20.4300 C   0  0  0  0  0  0  0  0  0  0  0  0
  -29.9520  -23.3307   26.7062 C   0  0  0  0  0  0  0  0  0  0  0  0
  -27.9643  -24.8113   26.1409 C   0  0  0  0  0  0  0  0  0  1  0  0
  -24.9905  -29.5007   21.0613 C   0  0  1  0  0  0  0  0  0  0  0  0
  -21.3241  -29.5358   22.0238 C   0  0  2  0  0  0  0  0  0  0  0  0
  -28.8059  -24.1880   27.2614 C   0  0  1  0  0  0  0  0  0  0  0  0
  -25.7478  -30.8262   20.7666 C   0  0  0  0  0  0  0  0  0  0  0  0
  -30.5632  -24.1168   22.0845 N   0  0  0  0  0  0  0  0  0  0  0  0
  -26.3146  -16.8315   20.1711 N   0  0  0  0  0  0  0  0  0  0  0  0
  -31.5062  -22.0107   22.7791 N   0  0  0  0  0  0  0  0  0  0  0  0
  -26.8209  -17.8728   20.8533 N   0  0  0  0  0  0  0  0  0  0  0  0
  -25.8628  -27.2501   20.5156 N   0  0  0  0  0  0  0  0  0  0  0  0
  -28.2981  -20.7638   18.8361 N   0  0  0  0  0  0  0  0  0  0  0  0
  -27.7400  -18.4923   22.9467 N   0  0  0  0  0  0  0  0  0  0  0  0
  -26.8440  -14.0959   23.4619 N   0  0  0  0  0  0  0  0  0  0  0  0
  -28.1559  -26.8959   18.0691 N   0  0  0  0  0  0  0  0  0  0  0  0
  -23.5389  -29.6392   21.1070 N   0  0  0  0  0  0  0  0  0  0  0  0
  -30.1796  -21.5154   20.0563 N   0  0  0  0  0  0  0  0  0  0  0  0
  -30.7623  -24.0614   25.7602 N   0  0  3  0  0  0  0  0  0  0  0  0
  -20.5287  -28.5154   22.7634 N   0  3  0  0  0  0  0  0  0  0  0  0
  -27.6687  -15.9631   24.5071 O   0  0  0  0  0  0  0  0  0  0  0  0
  -28.5843  -26.4079   20.3054 O   0  0  0  0  0  0  0  0  0  0  0  0
  -24.9947  -28.6350   18.8529 O   0  0  0  0  0  0  0  0  0  0  0  0
  -23.2760  -28.8490   23.2712 O   0  0  0  0  0  0  0  0  0  0  0  0
  -29.1935  -22.8759   18.4963 O   0  0  0  0  0  0  0  0  0  0  0  0
  -24.6134  -10.7187   19.6339 O   0  0  0  0  0  0  0  0  0  0  0  0
  -27.2890  -23.7845   25.4155 O   0  0  0  0  0  0  0  0  0  1  0  0
  -21.4955   -7.9892   23.2716 F   0  0  0  0  0  0  0  0  0  0  0  0
  -25.5754  -10.1130   22.1538 F   0  0  0  0  0  0  0  0  0  0  0  0
  1  2  1  0  0  0  0
  1  5  2  0  0  0  0
  2  6  2  0  0  0  0
  3  8  2  0  0  0  0
  3 16  1  0  0  0  0
  4  9  1  0  0  0  0
  4 16  2  0  0  0  0
  5 18  1  0  0  0  0
  6 20  1  0  0  0  0
  7 10  2  0  0  0  0
  7 19  1  0  0  0  0
  8 23  1  0  0  0  0
  9 23  2  0  0  0  0
 10 24  1  0  0  0  0
 11 12  2  0  0  0  0
 11 25  1  0  0  0  0
 12 26  1  0  0  0  0
 13 21  1  0  0  0  0
 13 24  2  0  0  0  0
 14 26  2  0  0  0  0
 14 27  1  0  0  0  0
 15 22  1  0  0  0  0
 15 64  2  0  0  0  0
 16 28  1  0  0  0  0
 17 28  1  0  0  0  0
 17 30  2  0  0  0  0
 17 32  1  0  0  0  0
 18 20  2  0  0  0  0
 18 37  1  0  0  0  0
 19 21  2  0  0  0  0
 19 38  1  0  0  0  0
 20 46  1  0  0  0  0
 21 39  1  0  0  0  0
 22 29  2  0  0  0  0
 22 75  1  0  0  0  0
 23 82  1  0  0  0  0
 24 83  1  0  0  0  0
 25 27  2  0  0  0  0
 25 82  1  0  0  0  0
 26 84  1  0  0  0  0
 27 85  1  0  0  0  0
 28 65  2  0  0  0  0
 29 49  1  0  0  0  0
 29 66  1  0  0  0  0
 30 67  1  0  0  0  0
 30 70  1  0  0  0  0
 31 57  1  0  0  0  0
 31 64  1  0  0  0  0
 31 66  2  0  0  0  0
 32 71  1  0  0  0  0
 32 77  2  0  0  0  0
 33 47  1  0  0  0  0
 33 72  1  0  0  0  0
 33 78  2  0  0  0  0
 34 60  1  0  0  0  0
 34 68  1  0  0  0  0
 34 79  2  0  0  0  0
 35 61  1  0  0  0  0
 35 73  1  0  0  0  0
 35 80  2  0  0  0  0
 36 69  1  0  0  0  0
 36 74  1  0  0  0  0
 36 81  2  0  0  0  0
 37 40  1  0  0  0  0
 38 47  1  0  0  0  0
 39 68  1  0  0  0  0
 40 42  1  0  0  0  0
 41 43  1  0  0  0  0
 41 44  1  0  0  0  0
 42 46  1  0  0  0  0
 43 48  1  0  0  0  0
 44 69  1  0  0  0  0
 45 48  1  0  0  0  0
 45 69  1  0  0  0  0
 46 72  1  0  0  0  0
 47 68  1  0  0  0  0
 48 67  1  0  0  0  0
 50 61  1  0  0  0  0
 51 62  1  0  0  0  0
 52 63  1  0  0  0  0
 53 63  1  0  0  0  0
 54 63  1  0  0  0  0
 55 75  1  0  0  0  0
 56 76  1  0  0  0  0
 57 74  1  0  0  0  0
 58 62  1  0  0  0  0
 58 75  1  0  0  0  0
 59 62  1  0  0  0  0
 59 83  1  0  0  0  0
 60 63  1  0  0  0  0
 60 73  1  0  0  0  0
 61 76  1  0  0  0  0
 65 67  1  0  0  0  0
M  CHG  1  76   1
M  ISO  4  36 100  59 101  74 100  83 101
M  END
> <Batch ID>
0047

> <Smiles>
CNC(C)C(=O)NC(C(=O)N1Cc2cc([101O:1][101CH2:1]C(C)CN(C)c3cnc(C[100NH:0][100C:0](=O)N4CCCC(n5nc(-c6ccc(Oc7ccc(F)cc7F)cc6)c(C(N)=O)c5N)C4)nc3C)ccc2CC1C(=O)NC1CCCc2ccccc21)C(C)(C)C

> <Shape>
0.213

> <Color>
0.083

> <Negative vol penalty>
0.000

$$$$

  -OEChem-04052317243D

 87 95  0     1  0  0  0  0  0999 V2000
  -16.6850  -29.9447   23.8155 C   0  0  0  0  0  0  0  0  0  0  0  0
  -17.8105  -30.5702   24.3424 C   0  0  0  0  0  0  0  0  0  0  0  0
  -25.4465  -21.3273   19.3635 C   0  0  0  0  0  0  0  0  0  0  0  0
  -27.0776  -20.2869   20.8107 C   0  0  0  0  0  0  0  0  0  0  0  0
  -16.8251  -28.7816   23.0595 C   0  0  0  0  0  0  0  0  0  0  0  0
  -19.0766  -30.0322   24.1145 C   0  0  0  0  0  0  0  0  0  0  0  0
  -25.8963  -32.0118   23.1714 C   0  0  0  0  0  0  0  0  0  0  0  0
  -24.9861  -20.0685   18.9774 C   0  0  0  0  0  0  0  0  0  0  0  0
  -26.6172  -19.0281   20.4246 C   0  0  0  0  0  0  0  0  0  0  0  0
  -27.1725  -31.7492   23.6675 C   0  0  0  0  0  0  0  0  0  0  0  0
  -24.0156  -16.9979   21.1531 C   0  0  0  0  0  0  0  0  0  0  0  0
  -23.8147  -16.0479   22.1544 C   0  0  0  0  0  0  0  0  0  0  0  0
  -27.2999  -29.7799   22.2801 C   0  0  0  0  0  0  0  0  0  0  0  0
  -25.4295  -14.5937   21.0985 C   0  0  0  0  0  0  0  0  0  0  0  0
  -31.6793  -27.8423   24.0855 C   0  0  0  0  0  0  0  0  0  0  0  0
  -26.4923  -21.4365   20.2802 C   0  0  0  0  0  0  0  0  0  0  0  0
  -26.5094  -23.5162   21.7574 C   0  0  0  0  0  0  0  0  0  0  0  0
  -18.0944  -28.2345   22.8141 C   0  0  0  0  0  0  0  0  0  0  0  0
  -25.3069  -31.1530   22.2325 C   0  0  0  0  0  0  0  0  0  0  0  0
  -19.2336  -28.8600   23.3556 C   0  0  0  0  0  0  0  0  0  0  0  0
  -26.0172  -30.0353   21.7717 C   0  0  0  0  0  0  0  0  0  0  0  0
  -25.5714  -18.9189   19.5079 C   0  0  0  0  0  0  0  0  0  0  0  0
  -27.8734  -30.6315   23.2240 C   0  0  0  0  0  0  0  0  0  0  0  0
  -24.9234  -16.7459   20.1245 C   0  0  0  0  0  0  0  0  0  0  0  0
  -24.5217  -14.8457   22.1271 C   0  0  0  0  0  0  0  0  0  0  0  0
  -25.6303  -15.5437   20.0972 C   0  0  0  0  0  0  0  0  0  0  0  0
  -26.9687  -22.7365   20.6790 C   0  0  0  0  0  0  0  0  0  0  0  0
  -31.1168  -29.0825   23.8782 C   0  0  0  0  0  0  0  0  0  0  0  0
  -32.9311  -30.0695   24.8600 C   0  0  0  0  0  0  0  0  0  0  0  0
  -33.4932  -28.8292   25.0680 C   0  0  0  0  0  0  0  0  0  0  0  0
  -27.2778  -24.6536   21.7106 C   0  0  0  0  0  0  0  0  0  0  0  0
  -25.4803  -23.2371   22.7159 C   0  0  0  0  0  0  0  0  0  0  0  0
  -22.7084  -29.3230   22.1873 C   0  0  0  0  0  0  0  0  0  0  0  0
  -23.5518  -28.8762   19.0871 C   0  0  0  0  0  0  0  0  0  0  0  0
  -26.0143  -28.8860   16.7243 C   0  0  0  0  0  0  0  0  0  0  0  0
  -32.7198  -25.8096   19.4969 C   0  0  0  0  0  0  0  0  0  0  0  0
  -18.1919  -26.9493   22.0308 C   0  0  0  0  0  0  0  0  0  0  0  0
  -23.9403  -31.4650   21.6872 C   0  0  0  0  0  0  0  0  0  0  0  0
  -25.4372  -29.0933   20.7496 C   0  0  0  0  0  0  0  0  0  0  0  0
  -19.5996  -26.6521   21.5209 C   0  0  0  0  0  0  0  0  0  0  0  0
  -29.6697  -27.4326   18.6369 C   0  0  0  0  0  0  0  0  0  0  0  0
  -20.6251  -26.8641   22.6301 C   0  0  0  0  0  0  0  0  0  0  0  0
  -28.5901  -26.4834   19.1600 C   0  0  0  0  0  0  0  0  0  0  0  0
  -30.8734  -26.6702   18.0874 C   0  0  0  0  0  0  0  0  0  0  0  0
  -30.3844  -24.7417   19.5419 C   0  0  0  0  0  0  0  0  0  0  0  0
  -20.6260  -28.3208   23.1094 C   0  0  1  0  0  0  0  0  0  0  0  0
  -23.2303  -30.2405   21.1180 C   0  0  1  0  0  0  0  0  0  0  0  0
  -29.1744  -25.4650   20.1574 C   0  0  2  0  0  0  0  0  0  0  0  0
  -33.6233  -31.3181   25.2886 C   0  0  0  0  0  0  0  0  0  0  0  0
  -26.4063  -28.4415   14.2858 C   0  0  0  0  0  0  0  0  0  0  0  0
  -23.4313  -25.8738   19.6175 C   0  0  0  0  0  0  0  0  0  0  0  0
  -24.7214  -25.5188   17.5014 C   0  0  0  0  0  0  0  0  0  0  0  0
  -22.4676  -26.5849   17.4220 C   0  0  0  0  0  0  0  0  0  0  0  0
  -26.8982  -31.6687   16.2402 C   0  0  0  0  0  0  0  0  0  0  0  0
  -37.3128  -26.2742   24.8225 C   0  0  0  0  0  0  0  0  0  0  0  0
  -34.8196  -28.6782   25.7312 C   0  0  0  0  0  0  0  0  0  0  0  0
  -29.7799  -29.2099   23.2090 C   0  0  0  0  0  0  0  0  0  1  0  0
  -36.0275  -28.9392   24.8098 C   0  0  0  0  0  0  0  0  0  0  0  0
  -34.6202  -25.7164   22.2176 C   0  0  0  0  0  0  0  0  0  0  0  0
  -34.4625  -24.8442   20.9768 C   0  0  0  0  0  0  0  0  0  0  0  0
  -36.1008  -28.0529   23.5702 C   0  0  0  0  0  0  0  0  0  0  0  0
  -36.0445  -25.6997   22.7577 C   0  0  0  0  0  0  0  0  0  0  0  0
  -24.4245  -27.8907   18.3480 C   0  0  1  0  0  0  0  0  0  0  0  0
  -26.0736  -29.4922   15.3338 C   0  0  2  0  0  0  0  0  0  0  0  0
  -23.7716  -26.4835   18.2429 C   0  0  0  0  0  0  0  0  0  0  0  0
  -32.8776  -27.6934   24.6842 N   0  0  0  0  0  0  0  0  0  0  0  0
  -27.9525  -23.3287   19.9967 N   0  0  0  0  0  0  0  0  0  0  0  0
  -31.7327  -30.2184   24.2617 N   0  0  0  0  0  0  0  0  0  0  0  0
  -28.1177  -24.4926   20.6480 N   0  0  0  0  0  0  0  0  0  0  0  0
  -24.0953  -29.4376   20.2513 N   0  0  0  0  0  0  0  0  0  0  0  0
  -31.3805  -25.7224   19.0826 N   0  0  0  0  0  0  0  0  0  0  0  0
  -27.3102  -25.7659   22.4749 N   0  0  0  0  0  0  0  0  0  0  0  0
  -24.7894  -22.0215   22.6196 N   0  0  0  0  0  0  0  0  0  0  0  0
  -21.3361  -29.1616   22.1697 N   0  0  0  0  0  0  0  0  0  0  0  0
  -24.7328  -28.5040   17.0606 N   0  0  0  0  0  0  0  0  0  0  0  0
  -33.1173  -24.8775   20.4476 N   0  0  0  0  0  0  0  0  0  0  0  0
  -27.1136  -30.5581   15.2773 N   0  3  0  0  0  0  0  0  0  0  0  0
  -36.1299  -26.6214   23.9507 N   0  3  1  0  0  0  0  0  0  0  0  0
  -25.1711  -24.0489   23.6208 O   0  0  0  0  0  0  0  0  0  0  0  0
  -23.4928  -28.7990   22.9695 O   0  0  0  0  0  0  0  0  0  0  0  0
  -22.4321  -29.1435   18.6439 O   0  0  0  0  0  0  0  0  0  0  0  0
  -27.0062  -28.7603   17.4390 O   0  0  0  0  0  0  0  0  0  0  0  0
  -33.5018  -26.6590   19.0565 O   0  0  0  0  0  0  0  0  0  0  0  0
  -25.1223  -17.6904   19.1316 O   0  0  0  0  0  0  0  0  0  0  0  0
  -29.1189  -30.3724   23.7070 O   0  0  0  0  0  0  0  0  0  1  0  0
  -24.3298  -13.9341   23.0896 F   0  0  0  0  0  0  0  0  0  0  0  0
  -26.5046  -15.2964   19.1122 F   0  0  0  0  0  0  0  0  0  0  0  0
  1  2  1  0  0  0  0
  1  5  2  0  0  0  0
  2  6  2  0  0  0  0
  3  8  2  0  0  0  0
  3 16  1  0  0  0  0
  4  9  1  0  0  0  0
  4 16  2  0  0  0  0
  5 18  1  0  0  0  0
  6 20  1  0  0  0  0
  7 10  2  0  0  0  0
  7 19  1  0  0  0  0
  8 22  1  0  0  0  0
  9 22  2  0  0  0  0
 10 23  1  0  0  0  0
 11 12  2  0  0  0  0
 11 24  1  0  0  0  0
 12 25  1  0  0  0  0
 13 21  1  0  0  0  0
 13 23  2  0  0  0  0
 14 25  2  0  0  0  0
 14 26  1  0  0  0  0
 15 28  1  0  0  0  0
 15 66  2  0  0  0  0
 16 27  1  0  0  0  0
 17 27  1  0  0  0  0
 17 31  2  0  0  0  0
 17 32  1  0  0  0  0
 18 20  2  0  0  0  0
 18 37  1  0  0  0  0
 19 21  2  0  0  0  0
 19 38  1  0  0  0  0
 20 46  1  0  0  0  0
 21 39  1  0  0  0  0
 22 84  1  0  0  0  0
 23 85  1  0  0  0  0
 24 26  2  0  0  0  0
 24 84  1  0  0  0  0
 25 86  1  0  0  0  0
 26 87  1  0  0  0  0
 27 67  2  0  0  0  0
 28 57  1  0  0  0  0
 28 68  2  0  0  0  0
 29 30  2  0  0  0  0
 29 49  1  0  0  0  0
 29 68  1  0  0  0  0
 30 56  1  0  0  0  0
 30 66  1  0  0  0  0
 31 69  1  0  0  0  0
 31 72  1  0  0  0  0
 32 73  1  0  0  0  0
 32 79  2  0  0  0  0
 33 47  1  0  0  0  0
 33 74  1  0  0  0  0
 33 80  2  0  0  0  0
 34 63  1  0  0  0  0
 34 70  1  0  0  0  0
 34 81  2  0  0  0  0
 35 64  1  0  0  0  0
 35 75  1  0  0  0  0
 35 82  2  0  0  0  0
 36 71  1  0  0  0  0
 36 76  1  0  0  0  0
 36 83  2  0  0  0  0
 37 40  1  0  0  0  0
 38 47  1  0  0  0  0
 39 70  1  0  0  0  0
 40 42  1  0  0  0  0
 41 43  1  0  0  0  0
 41 44  1  0  0  0  0
 42 46  1  0  0  0  0
 43 48  1  0  0  0  0
 44 71  1  0  0  0  0
 45 48  1  0  0  0  0
 45 71  1  0  0  0  0
 46 74  1  0  0  0  0
 47 70  1  0  0  0  0
 48 69  1  0  0  0  0
 50 64  1  0  0  0  0
 51 65  1  0  0  0  0
 52 65  1  0  0  0  0
 53 65  1  0  0  0  0
 54 77  1  0  0  0  0
 55 78  1  0  0  0  0
 56 58  1  0  0  0  0
 57 85  1  0  0  0  0
 58 61  1  0  0  0  0
 59 60  1  0  0  0  0
 59 62  1  0  0  0  0
 60 76  1  0  0  0  0
 61 78  1  0  0  0  0
 62 78  1  0  0  0  0
 63 65  1  0  0  0  0
 63 75  1  0  0  0  0
 64 77  1  0  0  0  0
 67 69  1  0  0  0  0
M  CHG  2  77   1  78   1
M  ISO  4  36 100  57 101  76 100  85 101
M  END
> <Batch ID>
0047

> <Smiles>
CNC(C)C(=O)NC(C(=O)N1Cc2cc([101O:1][101CH2:1]c3cnc(CCCN(C)CCC[100NH:0][100C:0](=O)N4CCCC(n5nc(-c6ccc(Oc7ccc(F)cc7F)cc6)c(C(N)=O)c5N)C4)c(C)n3)ccc2CC1C(=O)NC1CCCc2ccccc21)C(C)(C)C

> <Shape>
0.210

> <Color>
0.090

> <Negative vol penalty>
0.000

$$$$

  -OEChem-04052317243D

 84 92  0     1  0  0  0  0  0999 V2000
  -30.9040  -23.3502   22.8876 C   0  0  0  0  0  0  0  0  0  0  0  0
  -29.5458  -23.3073   22.5895 C   0  0  0  0  0  0  0  0  0  0  0  0
  -28.4480  -28.2826   21.0027 C   0  0  0  0  0  0  0  0  0  0  0  0
  -27.1584  -27.0604   19.3655 C   0  0  0  0  0  0  0  0  0  0  0  0
  -31.7688  -22.4089   22.3309 C   0  0  0  0  0  0  0  0  0  0  0  0
  -29.0518  -22.3236   21.7336 C   0  0  0  0  0  0  0  0  0  0  0  0
  -24.7951  -20.1984   23.4683 C   0  0  0  0  0  0  0  0  0  0  0  0
  -29.5511  -27.4703   20.7401 C   0  0  0  0  0  0  0  0  0  0  0  0
  -28.2615  -26.2482   19.1029 C   0  0  0  0  0  0  0  0  0  0  0  0
  -23.6128  -20.9199   23.3098 C   0  0  0  0  0  0  0  0  0  0  0  0
  -30.8470  -24.0844   17.7423 C   0  0  0  0  0  0  0  0  0  0  0  0
  -31.1552  -23.8193   16.4080 C   0  0  0  0  0  0  0  0  0  0  0  0
  -23.0592  -19.5780   21.3831 C   0  0  0  0  0  0  0  0  0  0  0  0
  -18.8629  -22.2091   22.7382 C   0  0  0  0  0  0  0  0  0  0  0  0
  -31.4487  -26.1835   16.0061 C   0  0  0  0  0  0  0  0  0  0  0  0
  -27.2516  -28.0776   20.3154 C   0  0  0  0  0  0  0  0  0  0  0  0
  -25.7746  -30.1251   19.9491 C   0  0  0  0  0  0  0  0  0  0  0  0
  -31.2836  -21.4072   21.4754 C   0  0  0  0  0  0  0  0  0  0  0  0
  -25.1242  -19.1666   22.5775 C   0  0  0  0  0  0  0  0  0  0  0  0
  -29.9111  -21.3688   21.1639 C   0  0  0  0  0  0  0  0  0  0  0  0
  -24.2451  -18.8432   21.5341 C   0  0  0  0  0  0  0  0  0  0  0  0
  -17.6545  -22.8259   22.4339 C   0  0  0  0  0  0  0  0  0  0  0  0
  -17.6297  -24.1830   22.1320 C   0  0  0  0  0  0  0  0  0  0  0  0
  -29.4579  -26.4531   19.7902 C   0  0  0  0  0  0  0  0  0  0  0  0
  -22.7460  -20.6117   22.2654 C   0  0  0  0  0  0  0  0  0  0  0  0
  -30.8396  -25.3990   18.2085 C   0  0  0  0  0  0  0  0  0  0  0  0
  -31.4561  -24.8688   15.5399 C   0  0  0  0  0  0  0  0  0  0  0  0
  -31.1405  -26.4486   17.3404 C   0  0  0  0  0  0  0  0  0  0  0  0
  -26.1115  -28.9160   20.5866 C   0  0  0  0  0  0  0  0  0  0  0  0
  -20.0092  -22.9873   22.7271 C   0  0  0  0  0  0  0  0  0  0  0  0
  -18.8312  -24.8729   22.1483 C   0  0  0  0  0  0  0  0  0  0  0  0
  -24.6134  -30.5254   20.5637 C   0  0  0  0  0  0  0  0  0  0  0  0
  -26.4509  -30.8239   18.8955 C   0  0  0  0  0  0  0  0  0  0  0  0
  -27.4974  -18.6442   20.5284 C   0  0  0  0  0  0  0  0  0  0  0  0
  -26.0655  -15.7510   20.2099 C   0  0  0  0  0  0  0  0  0  0  0  0
  -23.2237  -13.8800   20.4751 C   0  0  0  0  0  0  0  0  0  0  0  0
  -20.2957  -27.5507   23.4550 C   0  0  0  0  0  0  0  0  0  0  0  0
  -32.2641  -20.4403   20.8602 C   0  0  0  0  0  0  0  0  0  0  0  0
  -26.3905  -18.3801   22.7780 C   0  0  0  0  0  0  0  0  0  0  0  0
  -24.5424  -17.7313   20.5626 C   0  0  0  0  0  0  0  0  0  0  0  0
  -31.6032  -19.2023   20.2594 C   0  0  0  0  0  0  0  0  0  0  0  0
  -22.2832  -30.2150   24.7308 C   0  0  0  0  0  0  0  0  0  0  0  0
  -30.3994  -19.5987   19.4106 C   0  0  0  0  0  0  0  0  0  0  0  0
  -23.4594  -30.2933   23.7559 C   0  0  0  0  0  0  0  0  0  0  0  0
  -21.8362  -28.7731   24.9613 C   0  0  0  0  0  0  0  0  0  0  0  0
  -22.7073  -28.0938   22.7582 C   0  0  0  0  0  0  0  0  0  0  0  0
  -29.3333  -20.3019   20.2594 C   0  0  1  0  0  0  0  0  0  0  0  0
  -26.8728  -17.6895   21.5061 C   0  0  1  0  0  0  0  0  0  0  0  0
  -23.1575  -29.5322   22.4509 C   0  0  2  0  0  0  0  0  0  0  0  0
  -16.4025  -22.0126   22.4408 C   0  0  0  0  0  0  0  0  0  0  0  0
  -22.3549  -11.5545   20.1083 C   0  0  0  0  0  0  0  0  0  0  0  0
  -26.0131  -16.2481   17.1999 C   0  0  0  0  0  0  0  0  0  0  0  0
  -24.3317  -14.4043   16.9950 C   0  0  0  0  0  0  0  0  0  0  0  0
  -26.6189  -13.9136   17.8613 C   0  0  0  0  0  0  0  0  0  0  0  0
  -22.5176  -13.5683   23.3323 C   0  0  0  0  0  0  0  0  0  0  0  0
  -18.8683  -26.3322   21.8310 C   0  0  0  0  0  0  0  0  0  0  0  0
  -21.3313  -22.3553   23.0493 C   0  0  0  0  0  0  0  0  0  1  0  0
  -24.9883  -15.1838   19.3172 C   0  0  1  0  0  0  0  0  0  0  0  0
  -22.9656  -12.5244   21.1078 C   0  0  2  0  0  0  0  0  0  0  0  0
  -16.3485  -24.8709   21.7993 C   0  0  0  0  0  0  0  0  0  0  0  0
  -25.4830  -14.9597   17.8603 C   0  0  0  0  0  0  0  0  0  0  0  0
  -25.2353  -28.5708   21.5337 N   0  0  0  0  0  0  0  0  0  0  0  0
  -20.0245  -24.3081   22.4390 N   0  0  0  0  0  0  0  0  0  0  0  0
  -24.3363  -29.5691   21.4959 N   0  0  0  0  0  0  0  0  0  0  0  0
  -25.7960  -16.9955   20.7967 N   0  0  0  0  0  0  0  0  0  0  0  0
  -21.5644  -28.1081   23.6846 N   0  0  0  0  0  0  0  0  0  0  0  0
  -23.8126  -31.5985   20.3924 N   0  0  0  0  0  0  0  0  0  0  0  0
  -27.6312  -30.2727   18.3783 N   0  0  0  0  0  0  0  0  0  0  0  0
  -28.5833  -19.3347   21.0318 N   0  0  0  0  0  0  0  0  0  0  0  0
  -24.5059  -13.9753   19.9769 N   0  0  0  0  0  0  0  0  0  0  0  0
  -20.1200  -26.9448   22.2169 N   0  0  0  0  0  0  0  0  0  0  0  0
  -22.0319  -12.6605   22.2613 N   0  3  0  0  0  0  0  0  0  0  0  0
  -26.0300  -31.9133   18.4378 O   0  0  0  0  0  0  0  0  0  0  0  0
  -27.0297  -18.7458   19.4002 O   0  0  0  0  0  0  0  0  0  0  0  0
  -27.1047  -15.1101   20.3858 O   0  0  0  0  0  0  0  0  0  0  0  0
  -22.3718  -14.7644   20.4244 O   0  0  0  0  0  0  0  0  0  0  0  0
  -19.3852  -27.5946   24.2893 O   0  0  0  0  0  0  0  0  0  0  0  0
  -30.5342  -25.6605   19.5336 O   0  0  0  0  0  0  0  0  0  0  0  0
  -21.5916  -21.3149   22.1080 O   0  0  0  0  0  0  0  0  0  1  0  0
  -31.7535  -24.6140   14.2590 F   0  0  0  0  0  0  0  0  0  0  0  0
  -31.1362  -27.7135   17.7828 F   0  0  0  0  0  0  0  0  0  0  0  0
  -15.2609  -24.0451   21.8268 F   0  0  0  0  0  0  0  0  0  0  0  0
  -16.0407  -25.8939   22.6502 F   0  0  0  0  0  0  0  0  0  0  0  0
  -16.3579  -25.4227   20.5511 F   0  0  0  0  0  0  0  0  0  0  0  0
  1  2  1  0  0  0  0
  1  5  2  0  0  0  0
  2  6  2  0  0  0  0
  3  8  2  0  0  0  0
  3 16  1  0  0  0  0
  4  9  1  0  0  0  0
  4 16  2  0  0  0  0
  5 18  1  0  0  0  0
  6 20  1  0  0  0  0
  7 10  2  0  0  0  0
  7 19  1  0  0  0  0
  8 24  1  0  0  0  0
  9 24  2  0  0  0  0
 10 25  1  0  0  0  0
 11 12  2  0  0  0  0
 11 26  1  0  0  0  0
 12 27  1  0  0  0  0
 13 21  1  0  0  0  0
 13 25  2  0  0  0  0
 14 22  2  0  0  0  0
 14 30  1  0  0  0  0
 15 27  2  0  0  0  0
 15 28  1  0  0  0  0
 16 29  1  0  0  0  0
 17 29  1  0  0  0  0
 17 32  2  0  0  0  0
 17 33  1  0  0  0  0
 18 20  2  0  0  0  0
 18 38  1  0  0  0  0
 19 21  2  0  0  0  0
 19 39  1  0  0  0  0
 20 47  1  0  0  0  0
 21 40  1  0  0  0  0
 22 23  1  0  0  0  0
 22 50  1  0  0  0  0
 23 31  2  0  0  0  0
 23 60  1  0  0  0  0
 24 78  1  0  0  0  0
 25 79  1  0  0  0  0
 26 28  2  0  0  0  0
 26 78  1  0  0  0  0
 27 80  1  0  0  0  0
 28 81  1  0  0  0  0
 29 62  2  0  0  0  0
 30 57  1  0  0  0  0
 30 63  2  0  0  0  0
 31 56  1  0  0  0  0
 31 63  1  0  0  0  0
 32 64  1  0  0  0  0
 32 67  1  0  0  0  0
 33 68  1  0  0  0  0
 33 73  2  0  0  0  0
 34 48  1  0  0  0  0
 34 69  1  0  0  0  0
 34 74  2  0  0  0  0
 35 58  1  0  0  0  0
 35 65  1  0  0  0  0
 35 75  2  0  0  0  0
 36 59  1  0  0  0  0
 36 70  1  0  0  0  0
 36 76  2  0  0  0  0
 37 66  1  0  0  0  0
 37 71  1  0  0  0  0
 37 77  2  0  0  0  0
 38 41  1  0  0  0  0
 39 48  1  0  0  0  0
 40 65  1  0  0  0  0
 41 43  1  0  0  0  0
 42 44  1  0  0  0  0
 42 45  1  0  0  0  0
 43 47  1  0  0  0  0
 44 49  1  0  0  0  0
 45 66  1  0  0  0  0
 46 49  1  0  0  0  0
 46 66  1  0  0  0  0
 47 69  1  0  0  0  0
 48 65  1  0  0  0  0
 49 64  1  0  0  0  0
 51 59  1  0  0  0  0
 52 61  1  0  0  0  0
 53 61  1  0  0  0  0
 54 61  1  0  0  0  0
 55 72  1  0  0  0  0
 56 71  1  0  0  0  0
 57 79  1  0  0  0  0
 58 61  1  0  0  0  0
 58 70  1  0  0  0  0
 59 72  1  0  0  0  0
 60 82  1  0  0  0  0
 60 83  1  0  0  0  0
 60 84  1  0  0  0  0
 62 64  1  0  0  0  0
M  CHG  1  72   1
M  ISO  4  37 100  57 101  71 100  79 101
M  END
> <Batch ID>
0047

> <Smiles>
CNC(C)C(=O)NC(C(=O)N1Cc2cc([101O:1][101CH2:1]c3cc(C)c(C(F)(F)F)c(C[100NH:0][100C:0](=O)N4CCCC(n5nc(-c6ccc(Oc7ccc(F)cc7F)cc6)c(C(N)=O)c5N)C4)n3)ccc2CC1C(=O)NC1CCCc2ccccc21)C(C)(C)C

> <Shape>
0.217

> <Color>
0.066

> <Negative vol penalty>
0.000

$$$$

  -OEChem-04052317243D

 87 95  0     1  0  0  0  0  0999 V2000
  -22.2101  -31.9266   20.1689 C   0  0  0  0  0  0  0  0  0  0  0  0
  -22.7334  -30.6379   20.1991 C   0  0  0  0  0  0  0  0  0  0  0  0
  -23.0569   -9.8923   19.9479 C   0  0  0  0  0  0  0  0  0  0  0  0
  -23.8280   -9.8880   22.2375 C   0  0  0  0  0  0  0  0  0  0  0  0
  -21.2283  -32.3007   21.0855 C   0  0  0  0  0  0  0  0  0  0  0  0
  -22.2760  -29.7229   21.1468 C   0  0  0  0  0  0  0  0  0  0  0  0
  -21.3735  -25.1539   19.1582 C   0  0  0  0  0  0  0  0  0  0  0  0
  -22.3064   -8.7436   20.1985 C   0  0  0  0  0  0  0  0  0  0  0  0
  -23.0775   -8.7393   22.4881 C   0  0  0  0  0  0  0  0  0  0  0  0
  -22.4764  -24.3372   18.9126 C   0  0  0  0  0  0  0  0  0  0  0  0
  -22.8574   -5.4206   20.4778 C   0  0  0  0  0  0  0  0  0  0  0  0
  -22.9126   -4.3930   19.5362 C   0  0  0  0  0  0  0  0  0  0  0  0
  -22.0288  -23.1295   20.9523 C   0  0  0  0  0  0  0  0  0  0  0  0
  -20.5276   -4.5761   19.1967 C   0  0  0  0  0  0  0  0  0  0  0  0
  -26.6805  -20.8053   20.5922 C   0  0  0  0  0  0  0  0  0  0  0  0
  -23.8178  -10.4645   20.9674 C   0  0  0  0  0  0  0  0  0  0  0  0
  -24.1763  -12.9876   20.8523 C   0  0  0  0  0  0  0  0  0  0  0  0
  -20.7518  -31.3869   22.0386 C   0  0  0  0  0  0  0  0  0  0  0  0
  -20.5950  -24.9712   20.3102 C   0  0  0  0  0  0  0  0  0  0  0  0
  -21.2879  -30.0856   22.0778 C   0  0  0  0  0  0  0  0  0  0  0  0
  -20.9150  -23.9436   21.2089 C   0  0  0  0  0  0  0  0  0  0  0  0
  -22.3166   -8.1671   21.4686 C   0  0  0  0  0  0  0  0  0  0  0  0
  -22.8059  -23.3267   19.8112 C   0  0  0  0  0  0  0  0  0  0  0  0
  -21.6372   -6.0258   20.7790 C   0  0  0  0  0  0  0  0  0  0  0  0
  -21.7477   -3.9708   18.8956 C   0  0  0  0  0  0  0  0  0  0  0  0
  -20.4724   -5.6036   20.1384 C   0  0  0  0  0  0  0  0  0  0  0  0
  -24.5937  -11.6508   20.7090 C   0  0  0  0  0  0  0  0  0  0  0  0
  -27.3802  -19.8803   19.7943 C   0  0  0  0  0  0  0  0  0  0  0  0
  -25.3930  -20.7652   20.1154 C   0  0  0  0  0  0  0  0  0  0  0  0
  -25.2718  -13.7305   20.4856 C   0  0  0  0  0  0  0  0  0  0  0  0
  -22.9115  -13.5109   21.2788 C   0  0  0  0  0  0  0  0  0  0  0  0
  -19.8879  -26.7534   22.8454 C   0  0  0  0  0  0  0  0  0  0  0  0
  -17.9024  -24.2842   23.5406 C   0  0  0  0  0  0  0  0  0  0  0  0
  -17.1538  -20.9754   23.1688 C   0  0  0  0  0  0  0  0  0  0  0  0
  -30.7632  -14.7115   20.6497 C   0  0  0  0  0  0  0  0  0  0  0  0
  -19.7235  -31.8517   23.0393 C   0  0  0  0  0  0  0  0  0  0  0  0
  -19.3927  -25.8434   20.5470 C   0  0  0  0  0  0  0  0  0  0  0  0
  -20.0994  -23.6931   22.4501 C   0  0  0  0  0  0  0  0  0  0  0  0
  -19.0245  -30.7083   23.7702 C   0  0  0  0  0  0  0  0  0  0  0  0
  -29.5976  -12.3412   18.2623 C   0  0  0  0  0  0  0  0  0  0  0  0
  -20.0438  -29.6816   24.2538 C   0  0  0  0  0  0  0  0  0  0  0  0
  -28.1604  -12.0562   18.7015 C   0  0  0  0  0  0  0  0  0  0  0  0
  -30.5221  -12.5526   19.4592 C   0  0  0  0  0  0  0  0  0  0  0  0
  -28.6323  -13.2929   20.8571 C   0  0  0  0  0  0  0  0  0  0  0  0
  -20.7997  -29.0571   23.0747 C   0  0  1  0  0  0  0  0  0  0  0  0
  -18.9743  -25.8989   22.0131 C   0  0  1  0  0  0  0  0  0  0  0  0
  -27.6512  -13.1282   19.6838 C   0  0  2  0  0  0  0  0  0  0  0  0
  -19.8540  -18.2206   17.6256 C   0  0  0  0  0  0  0  0  0  0  0  0
  -15.4909  -19.2390   23.8881 C   0  0  0  0  0  0  0  0  0  0  0  0
  -22.0932  -16.2313   18.1621 C   0  0  0  0  0  0  0  0  0  0  0  0
  -19.2302  -24.1529   26.2846 C   0  0  0  0  0  0  0  0  0  0  0  0
  -18.2347  -21.8747   26.5801 C   0  0  0  0  0  0  0  0  0  0  0  0
  -16.7468  -23.8588   26.3122 C   0  0  0  0  0  0  0  0  0  0  0  0
  -16.3009  -20.4700   20.3803 C   0  0  0  0  0  0  0  0  0  0  0  0
  -28.8073  -19.5258   19.8736 C   0  0  0  0  0  0  0  0  0  0  0  0
  -24.1623  -21.5130   20.5367 C   0  0  0  0  0  0  0  0  0  1  0  0
  -21.1407  -18.5809   18.3566 C   0  0  0  0  0  0  0  0  0  0  0  0
  -29.0807  -18.3460   20.8313 C   0  0  0  0  0  0  0  0  0  0  0  0
  -30.5722  -18.0147   20.9369 C   0  0  0  0  0  0  0  0  0  0  0  0
  -23.6328  -18.1302   18.7078 C   0  0  0  0  0  0  0  0  0  0  0  0
  -24.2768  -19.4576   18.2828 C   0  0  0  0  0  0  0  0  0  0  0  0
  -30.8499  -16.8583   21.8919 C   0  0  0  0  0  0  0  0  0  0  0  0
  -18.0311  -22.9939   24.3136 C   0  0  1  0  0  0  0  0  0  0  0  0
  -15.8538  -20.2687   22.8294 C   0  0  2  0  0  0  0  0  0  0  0  0
  -22.3537  -17.7265   17.9376 C   0  0  1  0  0  0  0  0  0  0  0  0
  -18.0774  -23.2258   25.8503 C   0  0  0  0  0  0  0  0  0  0  0  0
  -25.8558  -11.5474   20.2842 N   0  0  0  0  0  0  0  0  0  0  0  0
  -26.6017  -19.2951   18.8802 N   0  0  0  0  0  0  0  0  0  0  0  0
  -25.3995  -19.8538   19.1008 N   0  0  0  0  0  0  0  0  0  0  0  0
  -26.2409  -12.8287   20.1574 N   0  0  0  0  0  0  0  0  0  0  0  0
  -18.9371  -24.5765   22.6407 N   0  0  0  0  0  0  0  0  0  0  0  0
  -29.9830  -13.5825   20.3506 N   0  0  0  0  0  0  0  0  0  0  0  0
  -25.4909  -15.0607   20.4151 N   0  0  0  0  0  0  0  0  0  0  0  0
  -21.8950  -12.6078   21.6187 N   0  0  0  0  0  0  0  0  0  0  0  0
  -19.9780  -28.0640   22.4167 N   0  0  0  0  0  0  0  0  0  0  0  0
  -16.9330  -22.1415   23.8707 N   0  0  0  0  0  0  0  0  0  0  0  0
  -30.1746  -15.6422   21.4971 N   0  0  0  0  0  0  0  0  0  0  0  0
  -15.9701  -19.5724   21.5169 N   0  3  0  0  0  0  0  0  0  0  0  0
  -22.6839  -14.7430   21.3406 O   0  0  0  0  0  0  0  0  0  0  0  0
  -20.4669  -26.2606   23.8064 O   0  0  0  0  0  0  0  0  0  0  0  0
  -16.9165  -25.0028   23.7231 O   0  0  0  0  0  0  0  0  0  0  0  0
  -18.2551  -20.5350   22.8469 O   0  0  0  0  0  0  0  0  0  0  0  0
  -31.8981  -14.8805   20.1910 O   0  0  0  0  0  0  0  0  0  0  0  0
  -21.5842   -7.0464   21.7135 O   0  0  0  0  0  0  0  0  0  0  0  0
  -23.8824  -22.5286   19.5742 O   0  0  0  0  0  0  0  0  0  1  0  0
  -21.8011   -2.9851   17.9902 F   0  0  0  0  0  0  0  0  0  0  0  0
  -19.2975   -6.1820   20.4226 F   0  0  0  0  0  0  0  0  0  0  0  0
  1  2  1  0  0  0  0
  1  5  2  0  0  0  0
  2  6  2  0  0  0  0
  3  8  2  0  0  0  0
  3 16  1  0  0  0  0
  4  9  1  0  0  0  0
  4 16  2  0  0  0  0
  5 18  1  0  0  0  0
  6 20  1  0  0  0  0
  7 10  2  0  0  0  0
  7 19  1  0  0  0  0
  8 22  1  0  0  0  0
  9 22  2  0  0  0  0
 10 23  1  0  0  0  0
 11 12  2  0  0  0  0
 11 24  1  0  0  0  0
 12 25  1  0  0  0  0
 13 21  1  0  0  0  0
 13 23  2  0  0  0  0
 14 25  2  0  0  0  0
 14 26  1  0  0  0  0
 15 28  1  0  0  0  0
 15 29  2  0  0  0  0
 16 27  1  0  0  0  0
 17 27  1  0  0  0  0
 17 30  2  0  0  0  0
 17 31  1  0  0  0  0
 18 20  2  0  0  0  0
 18 36  1  0  0  0  0
 19 21  2  0  0  0  0
 19 37  1  0  0  0  0
 20 45  1  0  0  0  0
 21 38  1  0  0  0  0
 22 84  1  0  0  0  0
 23 85  1  0  0  0  0
 24 26  2  0  0  0  0
 24 84  1  0  0  0  0
 25 86  1  0  0  0  0
 26 87  1  0  0  0  0
 27 67  2  0  0  0  0
 28 55  1  0  0  0  0
 28 68  2  0  0  0  0
 29 56  1  0  0  0  0
 29 69  1  0  0  0  0
 30 70  1  0  0  0  0
 30 73  1  0  0  0  0
 31 74  1  0  0  0  0
 31 79  2  0  0  0  0
 32 46  1  0  0  0  0
 32 75  1  0  0  0  0
 32 80  2  0  0  0  0
 33 63  1  0  0  0  0
 33 71  1  0  0  0  0
 33 81  2  0  0  0  0
 34 64  1  0  0  0  0
 34 76  1  0  0  0  0
 34 82  2  0  0  0  0
 35 72  1  0  0  0  0
 35 77  1  0  0  0  0
 35 83  2  0  0  0  0
 36 39  1  0  0  0  0
 37 46  1  0  0  0  0
 38 71  1  0  0  0  0
 39 41  1  0  0  0  0
 40 42  1  0  0  0  0
 40 43  1  0  0  0  0
 41 45  1  0  0  0  0
 42 47  1  0  0  0  0
 43 72  1  0  0  0  0
 44 47  1  0  0  0  0
 44 72  1  0  0  0  0
 45 75  1  0  0  0  0
 46 71  1  0  0  0  0
 47 70  1  0  0  0  0
 48 57  1  0  0  0  0
 49 64  1  0  0  0  0
 50 65  1  0  0  0  0
 51 66  1  0  0  0  0
 52 66  1  0  0  0  0
 53 66  1  0  0  0  0
 54 78  1  0  0  0  0
 55 58  1  0  0  0  0
 56 85  1  0  0  0  0
 57 65  1  0  0  0  0
 58 59  1  0  0  0  0
 59 62  1  0  0  0  0
 60 61  1  0  0  0  0
 60 65  1  0  0  0  0
 61 69  1  0  0  0  0
 62 77  1  0  0  0  0
 63 66  1  0  0  0  0
 63 76  1  0  0  0  0
 64 78  1  0  0  0  0
 67 70  1  0  0  0  0
 68 69  1  0  0  0  0
M  CHG  1  78   1
M  ISO  4  35 100  56 101  77 100  85 101
M  END
> <Batch ID>
0047

> <Smiles>
CCC(C)CCn1nc(CCCC[100NH:0][100C:0](=O)N2CCCC(n3nc(-c4ccc(Oc5ccc(F)cc5F)cc4)c(C(N)=O)c3N)C2)cc1[101CH2:1][101O:1]c1ccc2c(c1)CN(C(=O)C(NC(=O)C(C)NC)C(C)(C)C)C(C(=O)NC1CCCc3ccccc31)C2

> <Shape>
0.252

> <Color>
0.188

> <Negative vol penalty>
0.000

$$$$

  -OEChem-04052317243D

 85 93  0     1  0  0  0  0  0999 V2000
  -22.7549  -21.5869   10.5583 C   0  0  0  0  0  0  0  0  0  0  0  0
  -23.0150  -21.2941   11.8933 C   0  0  0  0  0  0  0  0  0  0  0  0
  -23.0712   -9.8747   19.9374 C   0  0  0  0  0  0  0  0  0  0  0  0
  -23.8413   -9.8681   22.2274 C   0  0  0  0  0  0  0  0  0  0  0  0
  -23.3578  -22.6912    9.9577 C   0  0  0  0  0  0  0  0  0  0  0  0
  -23.8792  -22.1051   12.6281 C   0  0  0  0  0  0  0  0  0  0  0  0
  -23.4510  -23.5028   18.5753 C   0  0  0  0  0  0  0  0  0  0  0  0
  -22.3281   -8.7204   20.1839 C   0  0  0  0  0  0  0  0  0  0  0  0
  -23.0981   -8.7137   22.4740 C   0  0  0  0  0  0  0  0  0  0  0  0
  -24.0804  -22.9874   19.7076 C   0  0  0  0  0  0  0  0  0  0  0  0
  -21.1181   -5.9695   23.8034 C   0  0  0  0  0  0  0  0  0  0  0  0
  -20.3670   -5.9194   24.9777 C   0  0  0  0  0  0  0  0  0  0  0  0
  -25.7164  -24.7566   19.5961 C   0  0  0  0  0  0  0  0  0  0  0  0
  -19.1199   -7.8613   24.2629 C   0  0  0  0  0  0  0  0  0  0  0  0
  -23.8279  -10.4485   20.9591 C   0  0  0  0  0  0  0  0  0  0  0  0
  -24.1701  -12.9742   20.8523 C   0  0  0  0  0  0  0  0  0  0  0  0
  -24.2223  -23.5217   10.6882 C   0  0  0  0  0  0  0  0  0  0  0  0
  -23.9569  -24.6445   17.9374 C   0  0  0  0  0  0  0  0  0  0  0  0
  -24.4953  -23.2209   12.0363 C   0  0  0  0  0  0  0  0  0  0  0  0
  -25.0902  -25.2859   18.4574 C   0  0  0  0  0  0  0  0  0  0  0  0
  -22.3415   -8.1399   21.4522 C   0  0  0  0  0  0  0  0  0  0  0  0
  -25.2149  -23.6127   20.2165 C   0  0  0  0  0  0  0  0  0  0  0  0
  -20.8702   -6.9656   22.8589 C   0  0  0  0  0  0  0  0  0  0  0  0
  -19.3679   -6.8652   25.2074 C   0  0  0  0  0  0  0  0  0  0  0  0
  -19.8711   -7.9115   23.0887 C   0  0  0  0  0  0  0  0  0  0  0  0
  -24.5963  -11.6406   20.7049 C   0  0  0  0  0  0  0  0  0  0  0  0
  -28.7258  -19.5221   19.9297 C   0  0  0  0  0  0  0  0  0  0  0  0
  -28.4226  -20.8214   20.2244 C   0  0  0  0  0  0  0  0  0  0  0  0
  -25.2609  -13.7254   20.4886 C   0  0  0  0  0  0  0  0  0  0  0  0
  -28.4049  -20.5983   18.0221 C   0  0  0  0  0  0  0  0  0  0  0  0
  -22.9017  -13.4880   21.2799 C   0  0  0  0  0  0  0  0  0  0  0  0
  -25.1252  -25.2674   15.0476 C   0  0  0  0  0  0  0  0  0  0  0  0
  -25.1266  -28.3239   16.1340 C   0  0  0  0  0  0  0  0  0  0  0  0
  -25.1929  -30.4501   18.8027 C   0  0  0  0  0  0  0  0  0  0  0  0
  -30.7458  -14.7415   20.6585 C   0  0  0  0  0  0  0  0  0  0  0  0
  -24.8874  -24.6769    9.9828 C   0  0  0  0  0  0  0  0  0  0  0  0
  -23.2509  -25.2035   16.7326 C   0  0  0  0  0  0  0  0  0  0  0  0
  -25.6612  -26.5261   17.8215 C   0  0  0  0  0  0  0  0  0  0  0  0
  -25.4979  -25.7021   10.9349 C   0  0  0  0  0  0  0  0  0  0  0  0
  -29.5968  -12.3713   18.2629 C   0  0  0  0  0  0  0  0  0  0  0  0
  -26.3026  -25.0040   12.0266 C   0  0  0  0  0  0  0  0  0  0  0  0
  -28.1612  -12.0756   18.7005 C   0  0  0  0  0  0  0  0  0  0  0  0
  -30.5193  -12.5848   19.4610 C   0  0  0  0  0  0  0  0  0  0  0  0
  -28.6240  -13.3085   20.8603 C   0  0  0  0  0  0  0  0  0  0  0  0
  -25.4076  -24.0910   12.8734 C   0  0  1  0  0  0  0  0  0  0  0  0
  -24.1525  -26.0730   15.8617 C   0  0  1  0  0  0  0  0  0  0  0  0
  -27.6446  -13.1411   19.6860 C   0  0  2  0  0  0  0  0  0  0  0  0
  -27.2418  -22.0041   16.3022 C   0  0  0  0  0  0  0  0  0  0  0  0
  -25.2232  -32.8933   19.3745 C   0  0  0  0  0  0  0  0  0  0  0  0
  -28.0731  -28.4673   15.3546 C   0  0  0  0  0  0  0  0  0  0  0  0
  -28.2789  -30.5143   16.7813 C   0  0  0  0  0  0  0  0  0  0  0  0
  -26.7492  -30.5182   14.8109 C   0  0  0  0  0  0  0  0  0  0  0  0
  -28.9735  -18.2019   17.8056 C   0  0  0  0  0  0  0  0  0  0  0  0
  -22.6332  -30.2558   20.2755 C   0  0  0  0  0  0  0  0  0  0  0  0
  -29.0277  -18.3867   20.8113 C   0  0  0  0  0  0  0  0  0  0  0  0
  -28.2914  -21.5443   21.5412 C   0  0  0  0  0  0  0  0  0  0  0  0
  -28.2814  -20.9169   16.5779 C   0  0  0  0  0  0  0  0  0  0  0  0
  -30.5336  -18.0446   20.9556 C   0  0  0  0  0  0  0  0  0  0  0  0
  -26.9875  -21.2417   22.2827 C   0  0  0  0  0  0  0  0  0  0  0  0
  -30.8180  -16.8848   21.9076 C   0  0  0  0  0  0  0  0  0  0  0  0
  -25.7444  -21.7025   21.5306 C   0  0  0  0  0  0  0  0  0  1  0  0
  -26.1143  -29.1963   16.8704 C   0  0  1  0  0  0  0  0  0  0  0  0
  -24.3528  -31.6683   19.1411 C   0  0  2  0  0  0  0  0  0  0  0  0
  -27.2945  -29.6495   15.9654 C   0  0  0  0  0  0  0  0  0  0  0  0
  -25.8592  -11.5468   20.2805 N   0  0  0  0  0  0  0  0  0  0  0  0
  -28.7073  -19.4124   18.5602 N   0  0  0  0  0  0  0  0  0  0  0  0
  -26.2360  -12.8310   20.1579 N   0  0  0  0  0  0  0  0  0  0  0  0
  -28.2293  -21.4642   19.0255 N   0  3  0  0  0  0  0  0  0  0  0  0
  -24.9390  -27.0305   16.6419 N   0  0  0  0  0  0  0  0  0  0  0  0
  -29.9731  -13.6084   20.3554 N   0  0  0  0  0  0  0  0  0  0  0  0
  -25.4715  -15.0572   20.4224 N   0  0  0  0  0  0  0  0  0  0  0  0
  -21.8910  -12.5772   21.6163 N   0  0  0  0  0  0  0  0  0  0  0  0
  -24.6369  -24.8725   13.8167 N   0  0  0  0  0  0  0  0  0  0  0  0
  -25.3424  -30.2951   17.4407 N   0  0  0  0  0  0  0  0  0  0  0  0
  -30.1508  -15.6656   21.5086 N   0  0  0  0  0  0  0  0  0  0  0  0
  -23.5519  -31.4192   20.3730 N   0  3  0  0  0  0  0  0  0  0  0  0
  -22.6662  -14.7184   21.3454 O   0  0  0  0  0  0  0  0  0  0  0  0
  -26.2368  -25.0235   15.5019 O   0  0  0  0  0  0  0  0  0  0  0  0
  -24.5376  -28.7758   15.1489 O   0  0  0  0  0  0  0  0  0  0  0  0
  -25.6720  -29.7120   19.6608 O   0  0  0  0  0  0  0  0  0  0  0  0
  -31.8798  -14.9192   20.2009 O   0  0  0  0  0  0  0  0  0  0  0  0
  -21.6162   -7.0136   21.6932 O   0  0  0  0  0  0  0  0  0  0  0  0
  -25.8315  -23.1113   21.3212 O   0  0  0  0  0  0  0  0  0  1  0  0
  -18.6457   -6.8160   26.3344 F   0  0  0  0  0  0  0  0  0  0  0  0
  -19.6275   -8.8701   22.1844 F   0  0  0  0  0  0  0  0  0  0  0  0
  1  2  1  0  0  0  0
  1  5  2  0  0  0  0
  2  6  2  0  0  0  0
  3  8  2  0  0  0  0
  3 15  1  0  0  0  0
  4  9  1  0  0  0  0
  4 15  2  0  0  0  0
  5 17  1  0  0  0  0
  6 19  1  0  0  0  0
  7 10  2  0  0  0  0
  7 18  1  0  0  0  0
  8 21  1  0  0  0  0
  9 21  2  0  0  0  0
 10 22  1  0  0  0  0
 11 12  2  0  0  0  0
 11 23  1  0  0  0  0
 12 24  1  0  0  0  0
 13 20  1  0  0  0  0
 13 22  2  0  0  0  0
 14 24  2  0  0  0  0
 14 25  1  0  0  0  0
 15 26  1  0  0  0  0
 16 26  1  0  0  0  0
 16 29  2  0  0  0  0
 16 31  1  0  0  0  0
 17 19  2  0  0  0  0
 17 36  1  0  0  0  0
 18 20  2  0  0  0  0
 18 37  1  0  0  0  0
 19 45  1  0  0  0  0
 20 38  1  0  0  0  0
 21 82  1  0  0  0  0
 22 83  1  0  0  0  0
 23 25  2  0  0  0  0
 23 82  1  0  0  0  0
 24 84  1  0  0  0  0
 25 85  1  0  0  0  0
 26 65  2  0  0  0  0
 27 28  2  0  0  0  0
 27 55  1  0  0  0  0
 27 66  1  0  0  0  0
 28 56  1  0  0  0  0
 28 68  1  0  0  0  0
 29 67  1  0  0  0  0
 29 71  1  0  0  0  0
 30 57  1  0  0  0  0
 30 66  1  0  0  0  0
 30 68  2  0  0  0  0
 31 72  1  0  0  0  0
 31 77  2  0  0  0  0
 32 46  1  0  0  0  0
 32 73  1  0  0  0  0
 32 78  2  0  0  0  0
 33 62  1  0  0  0  0
 33 69  1  0  0  0  0
 33 79  2  0  0  0  0
 34 63  1  0  0  0  0
 34 74  1  0  0  0  0
 34 80  2  0  0  0  0
 35 70  1  0  0  0  0
 35 75  1  0  0  0  0
 35 81  2  0  0  0  0
 36 39  1  0  0  0  0
 37 46  1  0  0  0  0
 38 69  1  0  0  0  0
 39 41  1  0  0  0  0
 40 42  1  0  0  0  0
 40 43  1  0  0  0  0
 41 45  1  0  0  0  0
 42 47  1  0  0  0  0
 43 70  1  0  0  0  0
 44 47  1  0  0  0  0
 44 70  1  0  0  0  0
 45 73  1  0  0  0  0
 46 69  1  0  0  0  0
 47 67  1  0  0  0  0
 48 57  1  0  0  0  0
 49 63  1  0  0  0  0
 50 64  1  0  0  0  0
 51 64  1  0  0  0  0
 52 64  1  0  0  0  0
 53 66  1  0  0  0  0
 54 76  1  0  0  0  0
 55 58  1  0  0  0  0
 56 59  1  0  0  0  0
 58 60  1  0  0  0  0
 59 61  1  0  0  0  0
 60 75  1  0  0  0  0
 61 83  1  0  0  0  0
 62 64  1  0  0  0  0
 62 74  1  0  0  0  0
 63 76  1  0  0  0  0
 65 67  1  0  0  0  0
M  CHG  2  68   1  76   1
M  ISO  4  35 100  61 101  75 100  83 101
M  END
> <Batch ID>
0047

> <Smiles>
CCc1nc(CC[101CH2:1][101O:1]c2ccc3c(c2)CN(C(=O)C(NC(=O)C(C)NC)C(C)(C)C)C(C(=O)NC2CCCc4ccccc42)C3)c(CCC[100NH:0][100C:0](=O)N2CCCC(n3nc(-c4ccc(Oc5ccc(F)cc5F)cc4)c(C(N)=O)c3N)C2)n1C

> <Shape>
0.233

> <Color>
0.187

> <Negative vol penalty>
0.000

$$$$

  -OEChem-04052317243D

 84 92  0     1  0  0  0  0  0999 V2000
  -18.9091  -16.0860   22.7994 C   0  0  0  0  0  0  0  0  0  0  0  0
  -19.4676  -14.9332   23.3399 C   0  0  0  0  0  0  0  0  0  0  0  0
  -23.1908   -9.8183   19.9316 C   0  0  0  0  0  0  0  0  0  0  0  0
  -23.5665   -9.9989   22.3113 C   0  0  0  0  0  0  0  0  0  0  0  0
  -19.2987  -17.3351   23.2778 C   0  0  0  0  0  0  0  0  0  0  0  0
  -20.4070  -15.0288   24.3672 C   0  0  0  0  0  0  0  0  0  0  0  0
  -23.6657  -10.7097   27.1696 C   0  0  0  0  0  0  0  0  0  0  0  0
  -22.4244   -8.6716   20.1395 C   0  0  0  0  0  0  0  0  0  0  0  0
  -22.8001   -8.8522   22.5193 C   0  0  0  0  0  0  0  0  0  0  0  0
  -24.9120  -10.1025   27.0221 C   0  0  0  0  0  0  0  0  0  0  0  0
  -23.2019   -5.5055   22.2559 C   0  0  0  0  0  0  0  0  0  0  0  0
  -23.6995   -4.5443   23.1357 C   0  0  0  0  0  0  0  0  0  0  0  0
  -25.8340  -11.6099   28.6643 C   0  0  0  0  0  0  0  0  0  0  0  0
  -30.8849  -10.6908   26.3247 C   0  0  0  0  0  0  0  0  0  0  0  0
  -29.5338   -8.7632   25.8316 C   0  0  0  0  0  0  0  0  0  0  0  0
  -21.7414   -4.8041   24.5269 C   0  0  0  0  0  0  0  0  0  0  0  0
  -23.7619  -10.4820   21.0175 C   0  0  0  0  0  0  0  0  0  0  0  0
  -24.1005  -12.9987   20.7739 C   0  0  0  0  0  0  0  0  0  0  0  0
  -20.2526  -17.4456   24.3029 C   0  0  0  0  0  0  0  0  0  0  0  0
  -23.4964  -11.7804   28.0591 C   0  0  0  0  0  0  0  0  0  0  0  0
  -20.7955  -16.2797   24.8801 C   0  0  0  0  0  0  0  0  0  0  0  0
  -24.5839  -12.2272   28.8232 C   0  0  0  0  0  0  0  0  0  0  0  0
  -29.9988   -9.7045   26.7432 C   0  0  0  0  0  0  0  0  0  0  0  0
  -22.2291   -8.1885   21.4334 C   0  0  0  0  0  0  0  0  0  0  0  0
  -25.9971  -10.5545   27.7673 C   0  0  0  0  0  0  0  0  0  0  0  0
  -21.9741   -6.1161   22.5116 C   0  0  0  0  0  0  0  0  0  0  0  0
  -22.9693   -4.1936   24.2712 C   0  0  0  0  0  0  0  0  0  0  0  0
  -21.2439   -5.7654   23.6471 C   0  0  0  0  0  0  0  0  0  0  0  0
  -24.5541  -11.6663   20.8032 C   0  0  0  0  0  0  0  0  0  0  0  0
  -31.2724  -10.6924   24.9944 C   0  0  0  0  0  0  0  0  0  0  0  0
  -29.9816   -8.8513   24.5233 C   0  0  0  0  0  0  0  0  0  0  0  0
  -25.2318  -13.7415   20.5398 C   0  0  0  0  0  0  0  0  0  0  0  0
  -22.7750  -13.5184   20.9433 C   0  0  0  0  0  0  0  0  0  0  0  0
  -22.6543  -14.8311   27.7627 C   0  0  0  0  0  0  0  0  0  0  0  0
  -22.7283  -14.7620   31.0050 C   0  0  0  0  0  0  0  0  0  0  0  0
  -23.9320  -13.3018   33.8450 C   0  0  0  0  0  0  0  0  0  0  0  0
  -31.0457  -12.7524   21.5752 C   0  0  0  0  0  0  0  0  0  0  0  0
  -20.6321  -18.8224   24.7883 C   0  0  0  0  0  0  0  0  0  0  0  0
  -22.1393  -12.4071   28.2263 C   0  0  0  0  0  0  0  0  0  0  0  0
  -24.4499  -13.3600   29.8067 C   0  0  0  0  0  0  0  0  0  0  0  0
  -21.9474  -18.8390   25.5603 C   0  0  0  0  0  0  0  0  0  0  0  0
  -29.5215  -13.4694   18.4384 C   0  0  0  0  0  0  0  0  0  0  0  0
  -21.9411  -17.7487   26.6214 C   0  0  0  0  0  0  0  0  0  0  0  0
  -28.0346  -13.2088   18.6861 C   0  0  0  0  0  0  0  0  0  0  0  0
  -30.4021  -12.4801   19.1986 C   0  0  0  0  0  0  0  0  0  0  0  0
  -28.6468  -12.1372   20.8942 C   0  0  0  0  0  0  0  0  0  0  0  0
  -21.8416  -16.3602   25.9771 C   0  0  1  0  0  0  0  0  0  0  0  0
  -22.2009  -13.8260   28.7834 C   0  0  1  0  0  0  0  0  0  0  0  0
  -27.7200  -13.1448   20.1929 C   0  0  2  0  0  0  0  0  0  0  0  0
  -30.6472   -7.0090   22.9369 C   0  0  0  0  0  0  0  0  0  0  0  0
  -28.7068   -8.5169   22.3745 C   0  0  0  0  0  0  0  0  0  0  0  0
  -23.8439  -13.4892   36.3459 C   0  0  0  0  0  0  0  0  0  0  0  0
  -24.6054  -17.1647   30.8886 C   0  0  0  0  0  0  0  0  0  0  0  0
  -25.2205  -16.7115   33.2728 C   0  0  0  0  0  0  0  0  0  0  0  0
  -22.8660  -17.2856   32.6815 C   0  0  0  0  0  0  0  0  0  0  0  0
  -22.7716  -10.5935   34.1230 C   0  0  0  0  0  0  0  0  0  0  0  0
  -29.5443   -9.6551   28.1817 C   0  0  0  0  0  0  0  0  0  0  0  0
  -32.2235  -11.7352   24.5100 C   0  0  0  0  0  0  0  0  0  0  0  0
  -31.5332  -13.0037   23.9956 C   0  0  0  0  0  0  0  0  0  0  0  0
  -28.2828  -10.4778   28.4198 C   0  0  0  0  0  0  0  0  0  1  0  0
  -29.5015   -7.8586   23.5178 C   0  0  0  0  0  0  0  0  0  0  0  0
  -23.7824  -15.0138   32.0559 C   0  0  1  0  0  0  0  0  0  0  0  0
  -23.2363  -12.8393   35.1125 C   0  0  2  0  0  0  0  0  0  0  0  0
  -24.1219  -16.5238   32.2048 C   0  0  0  0  0  0  0  0  0  0  0  0
  -25.8709  -11.5654   20.6035 N   0  0  0  0  0  0  0  0  0  0  0  0
  -30.8420   -9.7949   24.0796 N   0  0  0  0  0  0  0  0  0  0  0  0
  -26.2544  -12.8438   20.4463 N   0  0  0  0  0  0  0  0  0  0  0  0
  -23.1042  -13.9444   29.9298 N   0  0  0  0  0  0  0  0  0  0  0  0
  -30.0541  -12.4691   20.6215 N   0  0  0  0  0  0  0  0  0  0  0  0
  -25.4417  -15.0684   20.4067 N   0  0  0  0  0  0  0  0  0  0  0  0
  -21.7282  -12.6160   21.1763 N   0  0  0  0  0  0  0  0  0  0  0  0
  -21.6282  -15.3735   27.0128 N   0  0  0  0  0  0  0  0  0  0  0  0
  -23.2961  -14.3871   33.2802 N   0  0  0  0  0  0  0  0  0  0  0  0
  -30.6300  -12.7270   22.9009 N   0  0  0  0  0  0  0  0  0  0  0  0
  -23.3506  -11.3603   35.2560 N   0  3  0  0  0  0  0  0  0  0  0  0
  -22.5237  -14.7454   20.8733 O   0  0  0  0  0  0  0  0  0  0  0  0
  -23.8466  -15.0962   27.6639 O   0  0  0  0  0  0  0  0  0  0  0  0
  -21.6103  -15.2662   31.1369 O   0  0  0  0  0  0  0  0  0  0  0  0
  -24.9410  -12.7572   33.4023 O   0  0  0  0  0  0  0  0  0  0  0  0
  -32.2135  -13.0141   21.2678 O   0  0  0  0  0  0  0  0  0  0  0  0
  -21.4811   -7.0697   21.6368 O   0  0  0  0  0  0  0  0  0  0  0  0
  -27.2149   -9.9641   27.6248 O   0  0  0  0  0  0  0  0  0  1  0  0
  -23.4465   -3.2694   25.1151 F   0  0  0  0  0  0  0  0  0  0  0  0
  -20.0632   -6.3477   23.8975 F   0  0  0  0  0  0  0  0  0  0  0  0
  1  2  1  0  0  0  0
  1  5  2  0  0  0  0
  2  6  2  0  0  0  0
  3  8  2  0  0  0  0
  3 17  1  0  0  0  0
  4  9  1  0  0  0  0
  4 17  2  0  0  0  0
  5 19  1  0  0  0  0
  6 21  1  0  0  0  0
  7 10  2  0  0  0  0
  7 20  1  0  0  0  0
  8 24  1  0  0  0  0
  9 24  2  0  0  0  0
 10 25  1  0  0  0  0
 11 12  2  0  0  0  0
 11 26  1  0  0  0  0
 12 27  1  0  0  0  0
 13 22  1  0  0  0  0
 13 25  2  0  0  0  0
 14 23  1  0  0  0  0
 14 30  2  0  0  0  0
 15 23  2  0  0  0  0
 15 31  1  0  0  0  0
 16 27  2  0  0  0  0
 16 28  1  0  0  0  0
 17 29  1  0  0  0  0
 18 29  1  0  0  0  0
 18 32  2  0  0  0  0
 18 33  1  0  0  0  0
 19 21  2  0  0  0  0
 19 38  1  0  0  0  0
 20 22  2  0  0  0  0
 20 39  1  0  0  0  0
 21 47  1  0  0  0  0
 22 40  1  0  0  0  0
 23 57  1  0  0  0  0
 24 81  1  0  0  0  0
 25 82  1  0  0  0  0
 26 28  2  0  0  0  0
 26 81  1  0  0  0  0
 27 83  1  0  0  0  0
 28 84  1  0  0  0  0
 29 65  2  0  0  0  0
 30 58  1  0  0  0  0
 30 66  1  0  0  0  0
 31 61  1  0  0  0  0
 31 66  2  0  0  0  0
 32 67  1  0  0  0  0
 32 70  1  0  0  0  0
 33 71  1  0  0  0  0
 33 76  2  0  0  0  0
 34 48  1  0  0  0  0
 34 72  1  0  0  0  0
 34 77  2  0  0  0  0
 35 62  1  0  0  0  0
 35 68  1  0  0  0  0
 35 78  2  0  0  0  0
 36 63  1  0  0  0  0
 36 73  1  0  0  0  0
 36 79  2  0  0  0  0
 37 69  1  0  0  0  0
 37 74  1  0  0  0  0
 37 80  2  0  0  0  0
 38 41  1  0  0  0  0
 39 48  1  0  0  0  0
 40 68  1  0  0  0  0
 41 43  1  0  0  0  0
 42 44  1  0  0  0  0
 42 45  1  0  0  0  0
 43 47  1  0  0  0  0
 44 49  1  0  0  0  0
 45 69  1  0  0  0  0
 46 49  1  0  0  0  0
 46 69  1  0  0  0  0
 47 72  1  0  0  0  0
 48 68  1  0  0  0  0
 49 67  1  0  0  0  0
 50 61  1  0  0  0  0
 51 61  1  0  0  0  0
 52 63  1  0  0  0  0
 53 64  1  0  0  0  0
 54 64  1  0  0  0  0
 55 64  1  0  0  0  0
 56 75  1  0  0  0  0
 57 60  1  0  0  0  0
 58 59  1  0  0  0  0
 59 74  1  0  0  0  0
 60 82  1  0  0  0  0
 62 64  1  0  0  0  0
 62 73  1  0  0  0  0
 63 75  1  0  0  0  0
 65 67  1  0  0  0  0
M  CHG  1  75   1
M  ISO  4  37 100  60 101  74 100  82 101
M  END
> <Batch ID>
0047

> <Smiles>
CNC(C)C(=O)NC(C(=O)N1Cc2cc([101O:1][101CH2:1]Cc3cc(CC[100NH:0][100C:0](=O)N4CCCC(n5nc(-c6ccc(Oc7ccc(F)cc7F)cc6)c(C(N)=O)c5N)C4)nc(C(C)C)c3)ccc2CC1C(=O)NC1CCCc2ccccc21)C(C)(C)C

> <Shape>
0.140

> <Color>
0.182

> <Negative vol penalty>
0.000

$$$$

  -OEChem-04052317243D

 88 96  0     1  0  0  0  0  0999 V2000
  -19.7188  -26.2123   25.2922 C   0  0  0  0  0  0  0  0  0  0  0  0
  -20.7026  -25.9490   24.3445 C   0  0  0  0  0  0  0  0  0  0  0  0
  -26.5334  -12.7418   21.3146 C   0  0  0  0  0  0  0  0  0  0  0  0
  -25.1733  -14.2885   20.0517 C   0  0  0  0  0  0  0  0  0  0  0  0
  -18.9056  -27.3368   25.1572 C   0  0  0  0  0  0  0  0  0  0  0  0
  -20.8732  -26.8096   23.2607 C   0  0  0  0  0  0  0  0  0  0  0  0
  -25.7440  -27.8718   22.3712 C   0  0  0  0  0  0  0  0  0  0  0  0
  -25.7749  -11.6773   20.8279 C   0  0  0  0  0  0  0  0  0  0  0  0
  -24.4147  -13.2239   19.5649 C   0  0  0  0  0  0  0  0  0  0  0  0
  -26.4968  -26.9020   21.7104 C   0  0  0  0  0  0  0  0  0  0  0  0
  -23.9692   -8.5841   20.1993 C   0  0  0  0  0  0  0  0  0  0  0  0
  -23.5648   -7.6054   21.1072 C   0  0  0  0  0  0  0  0  0  0  0  0
  -26.2372  -28.1177   19.6431 C   0  0  0  0  0  0  0  0  0  0  0  0
  -26.7379  -21.9842   22.3614 C   0  0  0  0  0  0  0  0  0  0  0  0
  -22.3691   -9.2773   22.3769 C   0  0  0  0  0  0  0  0  0  0  0  0
  -25.2903  -22.9189   20.2456 C   0  0  0  0  0  0  0  0  0  0  0  0
  -26.2326  -14.0475   20.9266 C   0  0  0  0  0  0  0  0  0  0  0  0
  -28.1760  -15.6984   20.8538 C   0  0  0  0  0  0  0  0  0  0  0  0
  -19.0727  -28.2168   24.0763 C   0  0  0  0  0  0  0  0  0  0  0  0
  -25.2221  -28.9680   21.6695 C   0  0  0  0  0  0  0  0  0  0  0  0
  -20.0606  -27.9461   23.1104 C   0  0  0  0  0  0  0  0  0  0  0  0
  -25.4803  -29.1014   20.2977 C   0  0  0  0  0  0  0  0  0  0  0  0
  -27.2177  -21.7955   21.0701 C   0  0  0  0  0  0  0  0  0  0  0  0
  -24.7156  -11.9183   19.9530 C   0  0  0  0  0  0  0  0  0  0  0  0
  -26.7411  -27.0234   20.3456 C   0  0  0  0  0  0  0  0  0  0  0  0
  -23.5736   -9.9094   20.3803 C   0  0  0  0  0  0  0  0  0  0  0  0
  -22.7647   -7.9520   22.1959 C   0  0  0  0  0  0  0  0  0  0  0  0
  -22.7736  -10.2560   21.4690 C   0  0  0  0  0  0  0  0  0  0  0  0
  -26.4861  -22.2687   19.9865 C   0  0  0  0  0  0  0  0  0  0  0  0
  -27.0154  -15.1476   21.4295 C   0  0  0  0  0  0  0  0  0  0  0  0
  -25.5309  -22.6473   22.5142 C   0  0  0  0  0  0  0  0  0  0  0  0
  -28.5349  -16.7125   21.7077 C   0  0  0  0  0  0  0  0  0  0  0  0
  -28.8678  -15.3265   19.6542 C   0  0  0  0  0  0  0  0  0  0  0  0
  -22.2981  -30.0578   21.0641 C   0  0  0  0  0  0  0  0  0  0  0  0
  -23.9179  -32.5522   19.7693 C   0  0  0  0  0  0  0  0  0  0  0  0
  -26.8014  -33.7183   18.3648 C   0  0  0  0  0  0  0  0  0  0  0  0
  -25.4423  -20.0565   25.5941 C   0  0  0  0  0  0  0  0  0  0  0  0
  -18.1384  -29.3937   23.9473 C   0  0  0  0  0  0  0  0  0  0  0  0
  -24.4346  -30.0194   22.4021 C   0  0  0  0  0  0  0  0  0  0  0  0
  -24.9596  -30.2698   19.5027 C   0  0  0  0  0  0  0  0  0  0  0  0
  -18.6316  -30.4588   22.9713 C   0  0  0  0  0  0  0  0  0  0  0  0
  -28.2656  -18.0074   26.3057 C   0  0  0  0  0  0  0  0  0  0  0  0
  -19.1124  -29.8136   21.6754 C   0  0  0  0  0  0  0  0  0  0  0  0
  -28.3701  -17.0918   25.0847 C   0  0  0  0  0  0  0  0  0  0  0  0
  -26.8115  -18.2959   26.6720 C   0  0  0  0  0  0  0  0  0  0  0  0
  -26.0920  -17.9073   24.3471 C   0  0  0  0  0  0  0  0  0  0  0  0
  -20.2927  -28.8694   21.9340 C   0  0  1  0  0  0  0  0  0  0  0  0
  -23.5185  -30.8258   21.4867 C   0  0  1  0  0  0  0  0  0  0  0  0
  -27.5398  -17.6330   23.9053 C   0  0  2  0  0  0  0  0  0  0  0  0
  -27.8116  -35.7899   17.3721 C   0  0  0  0  0  0  0  0  0  0  0  0
  -30.2832  -26.1262   18.8619 C   0  0  0  0  0  0  0  0  0  0  0  0
  -22.3046  -32.1130   17.2170 C   0  0  0  0  0  0  0  0  0  0  0  0
  -23.9750  -33.5267   16.0008 C   0  0  0  0  0  0  0  0  0  0  0  0
  -22.6220  -34.5113   17.8508 C   0  0  0  0  0  0  0  0  0  0  0  0
  -28.9283  -33.8065   20.4209 C   0  0  0  0  0  0  0  0  0  0  0  0
  -30.5802  -21.0476   19.4847 C   0  0  0  0  0  0  0  0  0  0  0  0
  -28.5221  -21.0774   20.8862 C   0  0  0  0  0  0  0  0  0  0  0  0
  -24.9859  -22.8687   23.8858 C   0  0  0  0  0  0  0  0  0  0  0  0
  -30.6979  -24.1144   20.2997 C   0  0  0  0  0  0  0  0  0  0  0  0
  -24.0786  -21.7343   24.3756 C   0  0  0  0  0  0  0  0  0  0  0  0
  -30.1939  -22.9115   21.0906 C   0  0  0  0  0  0  0  0  0  0  0  0
  -28.4760  -25.4005   20.4568 C   0  0  0  0  0  0  0  0  0  1  0  0
  -24.4687  -32.8747   18.4012 C   0  0  1  0  0  0  0  0  0  0  0  0
  -27.6211  -34.9668   18.6366 C   0  0  2  0  0  0  0  0  0  0  0  0
  -29.6197  -24.9268   19.5505 C   0  0  1  0  0  0  0  0  0  0  0  0
  -23.3509  -33.2333   17.3818 C   0  0  0  0  0  0  0  0  0  0  0  0
  -24.7921  -23.1211   21.4860 N   0  0  0  0  0  0  0  0  0  0  0  0
  -26.6606  -15.7610   22.5618 N   0  0  0  0  0  0  0  0  0  0  0  0
  -27.6039  -16.7076   22.7044 N   0  0  0  0  0  0  0  0  0  0  0  0
  -24.1896  -31.2683   20.2628 N   0  0  0  0  0  0  0  0  0  0  0  0
  -26.0798  -18.8077   25.5107 N   0  0  0  0  0  0  0  0  0  0  0  0
  -29.5528  -17.5991   21.6957 N   0  0  0  0  0  0  0  0  0  0  0  0
  -28.3636  -14.2619   18.8949 N   0  0  0  0  0  0  0  0  0  0  0  0
  -21.5137  -29.6247   22.1160 N   0  0  0  0  0  0  0  0  0  0  0  0
  -25.4587  -33.9282   18.5977 N   0  0  0  0  0  0  0  0  0  0  0  0
  -24.7767  -20.4700   24.4466 N   0  0  0  0  0  0  0  0  0  0  0  0
  -28.9652  -34.5991   19.1650 N   0  3  0  0  0  0  0  0  0  0  0  0
  -29.5666  -21.9169   20.1900 N   0  3  1  0  0  0  0  0  0  0  0  0
  -29.9117  -15.9101   19.2759 O   0  0  0  0  0  0  0  0  0  0  0  0
  -22.0833  -29.8732   19.8718 O   0  0  0  0  0  0  0  0  0  0  0  0
  -23.2766  -33.4104   20.3807 O   0  0  0  0  0  0  0  0  0  0  0  0
  -27.3017  -32.6635   17.9805 O   0  0  0  0  0  0  0  0  0  0  0  0
  -25.4690  -20.7540   26.6138 O   0  0  0  0  0  0  0  0  0  0  0  0
  -23.9753  -10.8798   19.4776 O   0  0  0  0  0  0  0  0  0  0  0  0
  -27.4750  -26.0779   19.6981 O   0  0  0  0  0  0  0  0  0  1  0  0
  -22.3751   -7.0118   23.0668 F   0  0  0  0  0  0  0  0  0  0  0  0
  -22.3894  -11.5274   21.6474 F   0  0  0  0  0  0  0  0  0  0  0  0
  -27.0168  -22.0692   18.3630 Cl  0  0  0  0  0  0  0  0  0  0  0  0
  1  2  1  0  0  0  0
  1  5  2  0  0  0  0
  2  6  2  0  0  0  0
  3  8  2  0  0  0  0
  3 17  1  0  0  0  0
  4  9  1  0  0  0  0
  4 17  2  0  0  0  0
  5 19  1  0  0  0  0
  6 21  1  0  0  0  0
  7 10  2  0  0  0  0
  7 20  1  0  0  0  0
  8 24  1  0  0  0  0
  9 24  2  0  0  0  0
 10 25  1  0  0  0  0
 11 12  2  0  0  0  0
 11 26  1  0  0  0  0
 12 27  1  0  0  0  0
 13 22  1  0  0  0  0
 13 25  2  0  0  0  0
 14 23  1  0  0  0  0
 14 31  2  0  0  0  0
 15 27  2  0  0  0  0
 15 28  1  0  0  0  0
 16 29  1  0  0  0  0
 16 67  2  0  0  0  0
 17 30  1  0  0  0  0
 18 30  1  0  0  0  0
 18 32  2  0  0  0  0
 18 33  1  0  0  0  0
 19 21  2  0  0  0  0
 19 38  1  0  0  0  0
 20 22  2  0  0  0  0
 20 39  1  0  0  0  0
 21 47  1  0  0  0  0
 22 40  1  0  0  0  0
 23 29  2  0  0  0  0
 23 57  1  0  0  0  0
 24 84  1  0  0  0  0
 25 85  1  0  0  0  0
 26 28  2  0  0  0  0
 26 84  1  0  0  0  0
 27 86  1  0  0  0  0
 28 87  1  0  0  0  0
 29 88  1  0  0  0  0
 30 68  2  0  0  0  0
 31 58  1  0  0  0  0
 31 67  1  0  0  0  0
 32 69  1  0  0  0  0
 32 72  1  0  0  0  0
 33 73  1  0  0  0  0
 33 79  2  0  0  0  0
 34 48  1  0  0  0  0
 34 74  1  0  0  0  0
 34 80  2  0  0  0  0
 35 63  1  0  0  0  0
 35 70  1  0  0  0  0
 35 81  2  0  0  0  0
 36 64  1  0  0  0  0
 36 75  1  0  0  0  0
 36 82  2  0  0  0  0
 37 71  1  0  0  0  0
 37 76  1  0  0  0  0
 37 83  2  0  0  0  0
 38 41  1  0  0  0  0
 39 48  1  0  0  0  0
 40 70  1  0  0  0  0
 41 43  1  0  0  0  0
 42 44  1  0  0  0  0
 42 45  1  0  0  0  0
 43 47  1  0  0  0  0
 44 49  1  0  0  0  0
 45 71  1  0  0  0  0
 46 49  1  0  0  0  0
 46 71  1  0  0  0  0
 47 74  1  0  0  0  0
 48 70  1  0  0  0  0
 49 69  1  0  0  0  0
 50 64  1  0  0  0  0
 51 65  1  0  0  0  0
 52 66  1  0  0  0  0
 53 66  1  0  0  0  0
 54 66  1  0  0  0  0
 55 77  1  0  0  0  0
 56 78  1  0  0  0  0
 57 78  1  0  0  0  0
 58 60  1  0  0  0  0
 59 61  1  0  0  0  0
 59 65  1  0  0  0  0
 60 76  1  0  0  0  0
 61 78  1  0  0  0  0
 62 65  1  0  0  0  0
 62 85  1  0  0  0  0
 63 66  1  0  0  0  0
 63 75  1  0  0  0  0
 64 77  1  0  0  0  0
 68 69  1  0  0  0  0
M  CHG  2  77   1  78   1
M  ISO  4  37 100  62 101  76 100  85 101
M  END
> <Batch ID>
0047

> <Smiles>
CNC(C)C(=O)NC(C(=O)N1Cc2cc([101O:1][101CH2:1]C(C)CCN(C)Cc3cc(CC[100NH:0][100C:0](=O)N4CCCC(n5nc(-c6ccc(Oc7ccc(F)cc7F)cc6)c(C(N)=O)c5N)C4)ncc3Cl)ccc2CC1C(=O)NC1CCCc2ccccc21)C(C)(C)C

> <Shape>
0.231

> <Color>
0.085

> <Negative vol penalty>
0.000

$$$$

  -OEChem-04052317243D

 84 92  0     1  0  0  0  0  0999 V2000
  -32.3873  -13.7175   21.1216 C   0  0  0  0  0  0  0  0  0  0  0  0
  -31.6562  -14.8566   21.4432 C   0  0  0  0  0  0  0  0  0  0  0  0
  -29.4564  -26.1149   21.5406 C   0  0  0  0  0  0  0  0  0  0  0  0
  -27.6312  -24.6025   22.0080 C   0  0  0  0  0  0  0  0  0  0  0  0
  -31.7899  -12.6898   20.3930 C   0  0  0  0  0  0  0  0  0  0  0  0
  -30.3275  -14.9691   21.0354 C   0  0  0  0  0  0  0  0  0  0  0  0
  -25.7618  -17.6934   24.0749 C   0  0  0  0  0  0  0  0  0  0  0  0
  -30.3053  -25.3324   22.3233 C   0  0  0  0  0  0  0  0  0  0  0  0
  -28.4801  -23.8199   22.7906 C   0  0  0  0  0  0  0  0  0  0  0  0
  -25.1823  -18.9564   23.9624 C   0  0  0  0  0  0  0  0  0  0  0  0
  -30.2547  -21.2263   24.6188 C   0  0  0  0  0  0  0  0  0  0  0  0
  -30.2015  -19.8427   24.4502 C   0  0  0  0  0  0  0  0  0  0  0  0
  -23.4526  -18.0311   22.5584 C   0  0  0  0  0  0  0  0  0  0  0  0
  -30.8230  -20.1014   22.1299 C   0  0  0  0  0  0  0  0  0  0  0  0
  -28.1194  -25.7500   21.3830 C   0  0  0  0  0  0  0  0  0  0  0  0
  -26.9964  -26.4278   19.1950 C   0  0  0  0  0  0  0  0  0  0  0  0
  -30.4503  -12.7856   19.9844 C   0  0  0  0  0  0  0  0  0  0  0  0
  -25.1962  -16.5899   23.4201 C   0  0  0  0  0  0  0  0  0  0  0  0
  -29.7120  -13.9423   20.2995 C   0  0  0  0  0  0  0  0  0  0  0  0
  -24.0253  -16.7546   22.6664 C   0  0  0  0  0  0  0  0  0  0  0  0
  -29.8172  -24.1849   22.9483 C   0  0  0  0  0  0  0  0  0  0  0  0
  -24.0292  -19.1260   23.2017 C   0  0  0  0  0  0  0  0  0  0  0  0
  -30.5921  -22.0475   23.5428 C   0  0  0  0  0  0  0  0  0  0  0  0
  -30.4856  -19.2803   23.2058 C   0  0  0  0  0  0  0  0  0  0  0  0
  -30.8762  -21.4851   22.2984 C   0  0  0  0  0  0  0  0  0  0  0  0
  -27.2419  -26.5583   20.5750 C   0  0  0  0  0  0  0  0  0  0  0  0
  -19.4452  -25.5191   21.7893 C   0  0  0  0  0  0  0  0  0  0  0  0
  -19.9192  -26.7442   21.3690 C   0  0  0  0  0  0  0  0  0  0  0  0
  -26.0960  -27.4252   18.9106 C   0  0  0  0  0  0  0  0  0  0  0  0
  -21.2166  -24.8296   20.6953 C   0  0  0  0  0  0  0  0  0  0  0  0
  -27.5342  -25.4889   18.2543 C   0  0  0  0  0  0  0  0  0  0  0  0
  -26.1760  -14.5756   21.1648 C   0  0  0  0  0  0  0  0  0  0  0  0
  -23.3769  -13.0785   21.8331 C   0  0  0  0  0  0  0  0  0  0  0  0
  -20.2006  -13.2889   23.0631 C   0  0  0  0  0  0  0  0  0  0  0  0
  -22.0709  -30.3551   22.2371 C   0  0  0  0  0  0  0  0  0  0  0  0
  -29.8619  -11.6696   19.1580 C   0  0  0  0  0  0  0  0  0  0  0  0
  -25.8183  -15.2290   23.5733 C   0  0  0  0  0  0  0  0  0  0  0  0
  -23.3675  -15.5983   21.9603 C   0  0  0  0  0  0  0  0  0  0  0  0
  -28.3374  -11.7033   19.0863 C   0  0  0  0  0  0  0  0  0  0  0  0
  -24.7458  -31.7780   20.3670 C   0  0  0  0  0  0  0  0  0  0  0  0
  -27.8481  -13.1166   18.7863 C   0  0  0  0  0  0  0  0  0  0  0  0
  -25.6667  -30.5898   20.0838 C   0  0  0  0  0  0  0  0  0  0  0  0
  -24.1070  -31.6796   21.7506 C   0  0  0  0  0  0  0  0  0  0  0  0
  -24.3217  -29.2245   21.7347 C   0  0  0  0  0  0  0  0  0  0  0  0
  -28.2609  -14.0906   19.8964 C   0  0  1  0  0  0  0  0  0  0  0  0
  -25.4484  -14.2723   22.4440 C   0  0  1  0  0  0  0  0  0  0  0  0
  -24.9457  -29.2506   20.3289 C   0  0  2  0  0  0  0  0  0  0  0  0
  -18.2327  -25.2883   22.6010 C   0  0  0  0  0  0  0  0  0  0  0  0
  -18.1399  -11.9081   23.4433 C   0  0  0  0  0  0  0  0  0  0  0  0
  -22.7307  -13.2274   18.8548 C   0  0  0  0  0  0  0  0  0  0  0  0
  -20.3430  -12.7286   19.4190 C   0  0  0  0  0  0  0  0  0  0  0  0
  -22.1221  -11.0617   19.9473 C   0  0  0  0  0  0  0  0  0  0  0  0
  -23.2927  -24.5383   19.3668 C   0  0  0  0  0  0  0  0  0  0  0  0
  -20.3083  -13.7234   25.9886 C   0  0  0  0  0  0  0  0  0  0  0  0
  -19.3821  -28.1007   21.5959 C   0  0  0  0  0  0  0  0  0  0  0  0
  -22.8314  -22.1401   21.6114 C   0  0  0  0  0  0  0  0  0  0  0  0
  -20.1175  -28.8933   22.6917 C   0  0  0  0  0  0  0  0  0  0  0  0
  -22.1224  -22.5485   20.3258 C   0  0  0  0  0  0  0  0  0  0  0  0
  -22.7590  -20.6417   21.8806 C   0  0  0  0  0  0  0  0  0  1  0  0
  -21.9612  -13.1795   21.3188 C   0  0  1  0  0  0  0  0  0  0  0  0
  -19.4409  -12.4156   24.0454 C   0  0  2  0  0  0  0  0  0  0  0  0
  -21.8025  -12.5717   19.8966 C   0  0  0  0  0  0  0  0  0  0  0  0
  -26.5531  -27.5598   21.1288 N   0  0  0  0  0  0  0  0  0  0  0  0
  -20.1876  -24.4201   21.4036 N   0  0  0  0  0  0  0  0  0  0  0  0
  -25.8661  -28.0677   20.0914 N   0  0  0  0  0  0  0  0  0  0  0  0
  -24.0171  -14.2887   22.1353 N   0  0  0  0  0  0  0  0  0  0  0  0
  -23.4385  -30.3869   21.9182 N   0  0  0  0  0  0  0  0  0  0  0  0
  -25.4865  -27.8066   17.7680 N   0  0  0  0  0  0  0  0  0  0  0  0
  -28.4473  -24.5304   18.7147 N   0  0  0  0  0  0  0  0  0  0  0  0
  -27.3973  -13.9398   21.0479 N   0  0  0  0  0  0  0  0  0  0  0  0
  -21.1138  -12.5594   22.3316 N   0  0  0  0  0  0  0  0  0  0  0  0
  -21.5140  -29.0892   22.3719 N   0  0  0  0  0  0  0  0  0  0  0  0
  -22.1833  -23.9783   20.1410 N   0  0  3  0  0  0  0  0  0  0  0  0
  -19.1186  -13.1849   25.2805 N   0  3  0  0  0  0  0  0  0  0  0  0
  -27.2270  -25.5099   17.0383 O   0  0  0  0  0  0  0  0  0  0  0  0
  -25.6663  -15.3293   20.3439 O   0  0  0  0  0  0  0  0  0  0  0  0
  -23.8932  -11.9664   21.9685 O   0  0  0  0  0  0  0  0  0  0  0  0
  -20.0010  -14.4966   22.9529 O   0  0  0  0  0  0  0  0  0  0  0  0
  -21.3950  -31.3789   22.3851 O   0  0  0  0  0  0  0  0  0  0  0  0
  -30.6453  -23.4209   23.7120 O   0  0  0  0  0  0  0  0  0  0  0  0
  -23.4619  -20.3579   23.0896 O   0  0  0  0  0  0  0  0  0  1  0  0
  -30.4359  -17.9515   23.0445 F   0  0  0  0  0  0  0  0  0  0  0  0
  -31.2020  -22.2688   21.2614 F   0  0  0  0  0  0  0  0  0  0  0  0
  -21.3532  -26.5232   20.4546 S   0  0  0  0  0  0  0  0  0  0  0  0
  1  2  1  0  0  0  0
  1  5  2  0  0  0  0
  2  6  2  0  0  0  0
  3  8  2  0  0  0  0
  3 15  1  0  0  0  0
  4  9  1  0  0  0  0
  4 15  2  0  0  0  0
  5 17  1  0  0  0  0
  6 19  1  0  0  0  0
  7 10  2  0  0  0  0
  7 18  1  0  0  0  0
  8 21  1  0  0  0  0
  9 21  2  0  0  0  0
 10 22  1  0  0  0  0
 11 12  2  0  0  0  0
 11 23  1  0  0  0  0
 12 24  1  0  0  0  0
 13 20  1  0  0  0  0
 13 22  2  0  0  0  0
 14 24  2  0  0  0  0
 14 25  1  0  0  0  0
 15 26  1  0  0  0  0
 16 26  1  0  0  0  0
 16 29  2  0  0  0  0
 16 31  1  0  0  0  0
 17 19  2  0  0  0  0
 17 36  1  0  0  0  0
 18 20  2  0  0  0  0
 18 37  1  0  0  0  0
 19 45  1  0  0  0  0
 20 38  1  0  0  0  0
 21 80  1  0  0  0  0
 22 81  1  0  0  0  0
 23 25  2  0  0  0  0
 23 80  1  0  0  0  0
 24 82  1  0  0  0  0
 25 83  1  0  0  0  0
 26 63  2  0  0  0  0
 27 28  2  0  0  0  0
 27 48  1  0  0  0  0
 27 64  1  0  0  0  0
 28 55  1  0  0  0  0
 28 84  1  0  0  0  0
 29 65  1  0  0  0  0
 29 68  1  0  0  0  0
 30 64  2  0  0  0  0
 30 73  1  0  0  0  0
 30 84  1  0  0  0  0
 31 69  1  0  0  0  0
 31 75  2  0  0  0  0
 32 46  1  0  0  0  0
 32 70  1  0  0  0  0
 32 76  2  0  0  0  0
 33 60  1  0  0  0  0
 33 66  1  0  0  0  0
 33 77  2  0  0  0  0
 34 61  1  0  0  0  0
 34 71  1  0  0  0  0
 34 78  2  0  0  0  0
 35 67  1  0  0  0  0
 35 72  1  0  0  0  0
 35 79  2  0  0  0  0
 36 39  1  0  0  0  0
 37 46  1  0  0  0  0
 38 66  1  0  0  0  0
 39 41  1  0  0  0  0
 40 42  1  0  0  0  0
 40 43  1  0  0  0  0
 41 45  1  0  0  0  0
 42 47  1  0  0  0  0
 43 67  1  0  0  0  0
 44 47  1  0  0  0  0
 44 67  1  0  0  0  0
 45 70  1  0  0  0  0
 46 66  1  0  0  0  0
 47 65  1  0  0  0  0
 49 61  1  0  0  0  0
 50 62  1  0  0  0  0
 51 62  1  0  0  0  0
 52 62  1  0  0  0  0
 53 73  1  0  0  0  0
 54 74  1  0  0  0  0
 55 57  1  0  0  0  0
 56 58  1  0  0  0  0
 56 59  1  0  0  0  0
 57 72  1  0  0  0  0
 58 73  1  0  0  0  0
 59 81  1  0  0  0  0
 60 62  1  0  0  0  0
 60 71  1  0  0  0  0
 61 74  1  0  0  0  0
 63 65  1  0  0  0  0
M  CHG  1  74   1
M  ISO  4  35 100  59 101  72 100  81 101
M  END
> <Batch ID>
0047

> <Smiles>
CNC(C)C(=O)NC(C(=O)N1Cc2cc([101O:1][101CH2:1]CCN(C)c3nc(C)c(CC[100NH:0][100C:0](=O)N4CCCC(n5nc(-c6ccc(Oc7ccc(F)cc7F)cc6)c(C(N)=O)c5N)C4)s3)ccc2CC1C(=O)NC1CCCc2ccccc21)C(C)(C)C

> <Shape>
0.219

> <Color>
0.084

> <Negative vol penalty>
0.000

$$$$

  -OEChem-04052317243D

 85 93  0     1  0  0  0  0  0999 V2000
  -18.3733  -27.3399   23.2287 C   0  0  0  0  0  0  0  0  0  0  0  0
  -18.8092  -26.3555   22.3476 C   0  0  0  0  0  0  0  0  0  0  0  0
  -24.1013  -12.7755   22.0626 C   0  0  0  0  0  0  0  0  0  0  0  0
  -24.4772  -13.9576   19.9894 C   0  0  0  0  0  0  0  0  0  0  0  0
  -19.0717  -28.5424   23.3297 C   0  0  0  0  0  0  0  0  0  0  0  0
  -19.9433  -26.5734   21.5661 C   0  0  0  0  0  0  0  0  0  0  0  0
  -23.0496  -22.5746   21.4924 C   0  0  0  0  0  0  0  0  0  0  0  0
  -25.1784  -11.9359   21.7792 C   0  0  0  0  0  0  0  0  0  0  0  0
  -25.5544  -13.1180   19.7060 C   0  0  0  0  0  0  0  0  0  0  0  0
  -22.6950  -21.5081   20.6675 C   0  0  0  0  0  0  0  0  0  0  0  0
  -28.6278  -11.5159   18.6080 C   0  0  0  0  0  0  0  0  0  0  0  0
  -29.8024  -12.1029   18.1375 C   0  0  0  0  0  0  0  0  0  0  0  0
  -24.2567  -22.2853   19.0013 C   0  0  0  0  0  0  0  0  0  0  0  0
  -29.9656  -13.4031   20.1673 C   0  0  0  0  0  0  0  0  0  0  0  0
  -22.2564  -17.0660   18.2808 C   0  0  0  0  0  0  0  0  0  0  0  0
  -23.7506  -13.7863   21.1677 C   0  0  0  0  0  0  0  0  0  0  0  0
  -22.6718  -15.8736   22.1611 C   0  0  0  0  0  0  0  0  0  0  0  0
  -20.2205  -28.7713   22.5561 C   0  0  0  0  0  0  0  0  0  0  0  0
  -24.0041  -23.5123   21.0727 C   0  0  0  0  0  0  0  0  0  0  0  0
  -20.6570  -27.7806   21.6559 C   0  0  0  0  0  0  0  0  0  0  0  0
  -24.6235  -23.3615   19.8238 C   0  0  0  0  0  0  0  0  0  0  0  0
  -21.7469  -18.3346   18.0927 C   0  0  0  0  0  0  0  0  0  0  0  0
  -25.9050  -12.1071   20.6010 C   0  0  0  0  0  0  0  0  0  0  0  0
  -23.2965  -21.3649   19.4206 C   0  0  0  0  0  0  0  0  0  0  0  0
  -28.1221  -11.8725   19.8582 C   0  0  0  0  0  0  0  0  0  0  0  0
  -30.4713  -13.0465   18.9172 C   0  0  0  0  0  0  0  0  0  0  0  0
  -28.7910  -12.8160   20.6378 C   0  0  0  0  0  0  0  0  0  0  0  0
  -22.6376  -14.6536   21.4596 C   0  0  0  0  0  0  0  0  0  0  0  0
  -21.0360  -18.5255   16.9254 C   0  0  0  0  0  0  0  0  0  0  0  0
  -21.3670  -16.3024   22.1680 C   0  0  0  0  0  0  0  0  0  0  0  0
  -21.3786  -16.3659   16.3043 C   0  0  0  0  0  0  0  0  0  0  0  0
  -23.7836  -16.5582   22.7536 C   0  0  0  0  0  0  0  0  0  0  0  0
  -23.9777  -26.6397   20.5051 C   0  0  0  0  0  0  0  0  0  0  0  0
  -16.6969  -16.2701   18.7131 C   0  0  0  0  0  0  0  0  0  0  0  0
  -27.1683  -26.2016   20.1171 C   0  0  0  0  0  0  0  0  0  0  0  0
  -29.7321  -24.0723   19.3826 C   0  0  0  0  0  0  0  0  0  0  0  0
  -20.9152  -30.1056   22.6653 C   0  0  0  0  0  0  0  0  0  0  0  0
  -24.3951  -24.6421   21.9854 C   0  0  0  0  0  0  0  0  0  0  0  0
  -25.6688  -24.3294   19.3350 C   0  0  0  0  0  0  0  0  0  0  0  0
  -22.3231  -30.1094   22.0754 C   0  0  0  0  0  0  0  0  0  0  0  0
  -16.9735  -14.1329   21.5760 C   0  0  0  0  0  0  0  0  0  0  0  0
  -22.3299  -29.4373   20.7060 C   0  0  0  0  0  0  0  0  0  0  0  0
  -18.4695  -14.1418   21.8874 C   0  0  0  0  0  0  0  0  0  0  0  0
  -16.7153  -14.2058   20.0743 C   0  0  0  0  0  0  0  0  0  0  0  0
  -18.8615  -15.3823   19.7119 C   0  0  0  0  0  0  0  0  0  0  0  0
  -21.8971  -27.9699   20.8094 C   0  0  1  0  0  0  0  0  0  0  0  0
  -25.0042  -25.8271   21.2423 C   0  0  1  0  0  0  0  0  0  0  0  0
  -19.1659  -15.3409   21.2199 C   0  0  2  0  0  0  0  0  0  0  0  0
  -21.1733  -15.2723   15.3113 C   0  0  0  0  0  0  0  0  0  0  0  0
  -32.2256  -24.0128   19.1062 C   0  0  0  0  0  0  0  0  0  0  0  0
  -26.8965  -27.5548   17.3959 C   0  0  0  0  0  0  0  0  0  0  0  0
  -29.1426  -26.6300   16.7895 C   0  0  0  0  0  0  0  0  0  0  0  0
  -28.9254  -28.2242   18.6958 C   0  0  0  0  0  0  0  0  0  0  0  0
  -30.0458  -22.1187   21.5835 C   0  0  0  0  0  0  0  0  0  0  0  0
  -16.5357  -20.6300   16.3462 C   0  0  0  0  0  0  0  0  0  0  0  0
  -21.9667  -19.4183   19.1069 C   0  0  0  0  0  0  0  0  0  1  0  0
  -20.4379  -19.8580   16.6155 C   0  0  0  0  0  0  0  0  0  0  0  0
  -17.4823  -17.4180   18.1305 C   0  0  0  0  0  0  0  0  0  0  0  0
  -19.4716  -19.8578   15.4159 C   0  0  0  0  0  0  0  0  0  0  0  0
  -16.5834  -18.3430   17.3301 C   0  0  0  0  0  0  0  0  0  0  0  0
  -18.2350  -18.9793   15.5784 C   0  0  0  0  0  0  0  0  0  0  0  0
  -28.0668  -25.8602   18.9530 C   0  0  1  0  0  0  0  0  0  0  0  0
  -31.0634  -23.8242   20.0687 C   0  0  2  0  0  0  0  0  0  0  0  0
  -28.2367  -27.0500   17.9667 C   0  0  0  0  0  0  0  0  0  0  0  0
  -22.0906  -16.0541   17.4039 N   0  0  0  0  0  0  0  0  0  0  0  0
  -21.4085  -14.3283   21.0506 N   0  0  0  0  0  0  0  0  0  0  0  0
  -20.8318  -17.5598   16.0056 N   0  0  0  0  0  0  0  0  0  0  0  0
  -20.6581  -15.3501   21.4966 N   0  0  0  0  0  0  0  0  0  0  0  0
  -26.0125  -25.4211   20.2611 N   0  0  0  0  0  0  0  0  0  0  0  0
  -17.4119  -15.3449   19.4739 N   0  0  0  0  0  0  0  0  0  0  0  0
  -20.7682  -17.3973   22.6829 N   0  0  0  0  0  0  0  0  0  0  0  0
  -25.0555  -15.9778   22.6542 N   0  0  0  0  0  0  0  0  0  0  0  0
  -22.9832  -27.1569   21.3132 N   0  0  0  0  0  0  0  0  0  0  0  0
  -29.3173  -25.3790   19.5300 N   0  0  0  0  0  0  0  0  0  0  0  0
  -31.1184  -22.4350   20.6055 N   0  3  0  0  0  0  0  0  0  0  0  0
  -17.4035  -19.4494   16.7108 N   0  3  1  0  0  0  0  0  0  0  0  0
  -23.6505  -17.6439   23.3675 O   0  0  0  0  0  0  0  0  0  0  0  0
  -24.0811  -26.7879   19.2930 O   0  0  0  0  0  0  0  0  0  0  0  0
  -15.4837  -16.2011   18.4997 O   0  0  0  0  0  0  0  0  0  0  0  0
  -27.4841  -27.1222   20.8750 O   0  0  0  0  0  0  0  0  0  0  0  0
  -29.1231  -23.1957   18.7734 O   0  0  0  0  0  0  0  0  0  0  0  0
  -26.9563  -11.2881   20.3242 O   0  0  0  0  0  0  0  0  0  0  0  0
  -22.9517  -20.3251   18.6132 O   0  0  0  0  0  0  0  0  0  1  0  0
  -31.6000  -13.6091   18.4659 F   0  0  0  0  0  0  0  0  0  0  0  0
  -28.3107  -13.1617   21.8401 F   0  0  0  0  0  0  0  0  0  0  0  0
  1  2  1  0  0  0  0
  1  5  2  0  0  0  0
  2  6  2  0  0  0  0
  3  8  2  0  0  0  0
  3 16  1  0  0  0  0
  4  9  1  0  0  0  0
  4 16  2  0  0  0  0
  5 18  1  0  0  0  0
  6 20  1  0  0  0  0
  7 10  2  0  0  0  0
  7 19  1  0  0  0  0
  8 23  1  0  0  0  0
  9 23  2  0  0  0  0
 10 24  1  0  0  0  0
 11 12  2  0  0  0  0
 11 25  1  0  0  0  0
 12 26  1  0  0  0  0
 13 21  1  0  0  0  0
 13 24  2  0  0  0  0
 14 26  2  0  0  0  0
 14 27  1  0  0  0  0
 15 22  1  0  0  0  0
 15 65  2  0  0  0  0
 16 28  1  0  0  0  0
 17 28  1  0  0  0  0
 17 30  2  0  0  0  0
 17 32  1  0  0  0  0
 18 20  2  0  0  0  0
 18 37  1  0  0  0  0
 19 21  2  0  0  0  0
 19 38  1  0  0  0  0
 20 46  1  0  0  0  0
 21 39  1  0  0  0  0
 22 29  2  0  0  0  0
 22 56  1  0  0  0  0
 23 82  1  0  0  0  0
 24 83  1  0  0  0  0
 25 27  2  0  0  0  0
 25 82  1  0  0  0  0
 26 84  1  0  0  0  0
 27 85  1  0  0  0  0
 28 66  2  0  0  0  0
 29 57  1  0  0  0  0
 29 67  1  0  0  0  0
 30 68  1  0  0  0  0
 30 71  1  0  0  0  0
 31 49  1  0  0  0  0
 31 65  1  0  0  0  0
 31 67  2  0  0  0  0
 32 72  1  0  0  0  0
 32 77  2  0  0  0  0
 33 47  1  0  0  0  0
 33 73  1  0  0  0  0
 33 78  2  0  0  0  0
 34 58  1  0  0  0  0
 34 70  1  0  0  0  0
 34 79  2  0  0  0  0
 35 62  1  0  0  0  0
 35 69  1  0  0  0  0
 35 80  2  0  0  0  0
 36 63  1  0  0  0  0
 36 74  1  0  0  0  0
 36 81  2  0  0  0  0
 37 40  1  0  0  0  0
 38 47  1  0  0  0  0
 39 69  1  0  0  0  0
 40 42  1  0  0  0  0
 41 43  1  0  0  0  0
 41 44  1  0  0  0  0
 42 46  1  0  0  0  0
 43 48  1  0  0  0  0
 44 70  1  0  0  0  0
 45 48  1  0  0  0  0
 45 70  1  0  0  0  0
 46 73  1  0  0  0  0
 47 69  1  0  0  0  0
 48 68  1  0  0  0  0
 50 63  1  0  0  0  0
 51 64  1  0  0  0  0
 52 64  1  0  0  0  0
 53 64  1  0  0  0  0
 54 75  1  0  0  0  0
 55 76  1  0  0  0  0
 56 83  1  0  0  0  0
 57 59  1  0  0  0  0
 58 60  1  0  0  0  0
 59 61  1  0  0  0  0
 60 76  1  0  0  0  0
 61 76  1  0  0  0  0
 62 64  1  0  0  0  0
 62 74  1  0  0  0  0
 63 75  1  0  0  0  0
 66 68  1  0  0  0  0
M  CHG  2  75   1  76   1
M  ISO  4  34 100  56 101  58 100  83 101
M  END
> <Batch ID>
0047

> <Smiles>
CNC(C)C(=O)NC(C(=O)N1Cc2cc([101O:1][101CH2:1]c3cnc(C)nc3CCCN(C)C[100CH2:0][100C:0](=O)N3CCCC(n4nc(-c5ccc(Oc6ccc(F)cc6F)cc5)c(C(N)=O)c4N)C3)ccc2CC1C(=O)NC1CCCc2ccccc21)C(C)(C)C

> <Shape>
0.187

> <Color>
0.080

> <Negative vol penalty>
0.000

$$$$

  -OEChem-04052317243D

 81 88  0     1  0  0  0  0  0999 V2000
  -17.9946  -24.4935   20.7991 C   0  0  0  0  0  0  0  0  0  0  0  0
  -19.1869  -24.0230   21.3376 C   0  0  0  0  0  0  0  0  0  0  0  0
  -26.6312  -14.9140   21.4292 C   0  0  0  0  0  0  0  0  0  0  0  0
  -26.6118  -14.7978   19.0160 C   0  0  0  0  0  0  0  0  0  0  0  0
  -18.0101  -25.5726   19.9179 C   0  0  0  0  0  0  0  0  0  0  0  0
  -20.3937  -24.6389   21.0044 C   0  0  0  0  0  0  0  0  0  0  0  0
  -27.5255  -24.2101   21.6071 C   0  0  0  0  0  0  0  0  0  0  0  0
  -26.4234  -13.5364   21.4972 C   0  0  0  0  0  0  0  0  0  0  0  0
  -26.4040  -13.4202   19.0840 C   0  0  0  0  0  0  0  0  0  0  0  0
  -28.7233  -24.1261   20.8986 C   0  0  0  0  0  0  0  0  0  0  0  0
  -25.5387  -10.1031   22.3055 C   0  0  0  0  0  0  0  0  0  0  0  0
  -24.5867   -9.6332   23.2102 C   0  0  0  0  0  0  0  0  0  0  0  0
  -28.6037  -26.4891   20.4281 C   0  0  0  0  0  0  0  0  0  0  0  0
  -22.8798  -10.9172   22.0811 C   0  0  0  0  0  0  0  0  0  0  0  0
  -26.7254  -15.5447   20.1886 C   0  0  0  0  0  0  0  0  0  0  0  0
  -28.1754  -17.6405   20.0751 C   0  0  0  0  0  0  0  0  0  0  0  0
  -19.2195  -26.1935   19.5646 C   0  0  0  0  0  0  0  0  0  0  0  0
  -26.8511  -25.4342   21.7225 C   0  0  0  0  0  0  0  0  0  0  0  0
  -20.4277  -25.7445   20.1355 C   0  0  0  0  0  0  0  0  0  0  0  0
  -27.3988  -26.5864   21.1408 C   0  0  0  0  0  0  0  0  0  0  0  0
  -26.3098  -12.7895   20.3247 C   0  0  0  0  0  0  0  0  0  0  0  0
  -29.2611  -25.2651   20.3065 C   0  0  0  0  0  0  0  0  0  0  0  0
  -25.1612  -10.9802   21.2886 C   0  0  0  0  0  0  0  0  0  0  0  0
  -23.2573  -10.0402   23.0981 C   0  0  0  0  0  0  0  0  0  0  0  0
  -23.8318  -11.3872   21.1764 C   0  0  0  0  0  0  0  0  0  0  0  0
  -26.9394  -16.9679   20.1176 C   0  0  0  0  0  0  0  0  0  0  0  0
  -27.8402  -18.9710   20.0129 C   0  0  0  0  0  0  0  0  0  0  0  0
  -29.5073  -17.1101   20.0904 C   0  0  0  0  0  0  0  0  0  0  0  0
  -24.0049  -26.5211   20.8160 C   0  0  0  0  0  0  0  0  0  0  0  0
  -24.9010  -29.1411   22.5057 C   0  0  0  0  0  0  0  0  0  0  0  0
  -27.4341  -31.0362   23.7858 C   0  0  0  0  0  0  0  0  0  0  0  0
  -24.7380  -23.1160   17.9295 C   0  0  0  0  0  0  0  0  0  0  0  0
  -19.1776  -27.3627   18.6125 C   0  0  0  0  0  0  0  0  0  0  0  0
  -25.5738  -25.5133   22.5128 C   0  0  0  0  0  0  0  0  0  0  0  0
  -26.7243  -27.9285   21.2526 C   0  0  0  0  0  0  0  0  0  0  0  0
  -20.5322  -27.6617   17.9784 C   0  0  0  0  0  0  0  0  0  0  0  0
  -23.3856  -21.2778   20.6623 C   0  0  0  0  0  0  0  0  0  0  0  0
  -21.6058  -27.7308   19.0541 C   0  0  0  0  0  0  0  0  0  0  0  0
  -24.2874  -20.0458   20.7564 C   0  0  0  0  0  0  0  0  0  0  0  0
  -23.1597  -21.7025   19.2129 C   0  0  0  0  0  0  0  0  0  0  0  0
  -25.2937  -20.6800   18.5240 C   0  0  0  0  0  0  0  0  0  0  0  0
  -21.7556  -26.3792   19.7637 C   0  0  1  0  0  0  0  0  0  0  0  0
  -24.7078  -26.7097   22.1305 C   0  0  1  0  0  0  0  0  0  0  0  0
  -25.5960  -20.2473   19.9688 C   0  0  2  0  0  0  0  0  0  0  0  0
  -27.8565  -33.1400   25.0870 C   0  0  0  0  0  0  0  0  0  0  0  0
  -24.2946  -30.7991   20.0171 C   0  0  0  0  0  0  0  0  0  0  0  0
  -25.6037  -32.6757   21.0335 C   0  0  0  0  0  0  0  0  0  0  0  0
  -23.5475  -31.8340   22.1677 C   0  0  0  0  0  0  0  0  0  0  0  0
  -31.3355  -26.2786   16.1419 C   0  0  0  0  0  0  0  0  0  0  0  0
  -33.0151  -25.7235   17.9064 C   0  0  0  0  0  0  0  0  0  0  0  0
  -28.7579  -29.5525   25.9779 C   0  0  0  0  0  0  0  0  0  0  0  0
  -30.2933  -22.3297   15.7396 C   0  0  0  0  0  0  0  0  0  0  0  0
  -27.8132  -24.2544   16.0354 C   0  0  0  0  0  0  0  0  0  0  0  0
  -26.4268  -24.4095   16.6511 C   0  0  0  0  0  0  0  0  0  0  0  0
  -28.8653  -23.8761   17.0701 C   0  0  0  0  0  0  0  0  0  0  0  0
  -31.3451  -23.9955   17.2630 C   0  0  0  0  0  0  0  0  0  0  0  0
  -30.6081  -26.1015   18.5340 C   0  0  0  0  0  0  0  0  0  1  0  0
  -25.6414  -30.4174   22.1865 C   0  0  1  0  0  0  0  0  0  0  0  0
  -27.6459  -31.6359   25.1642 C   0  0  2  0  0  0  0  0  0  0  0  0
  -24.7838  -31.4060   21.3473 C   0  0  0  0  0  0  0  0  0  0  0  0
  -31.5521  -25.5144   17.4612 C   0  0  0  0  0  0  0  0  0  0  0  0
  -25.8969  -17.8022   20.0853 N   0  0  0  0  0  0  0  0  0  0  0  0
  -26.4770  -19.0128   20.0220 N   0  0  0  0  0  0  0  0  0  0  0  0
  -25.4745  -27.9533   22.0302 N   0  0  0  0  0  0  0  0  0  0  0  0
  -24.4398  -21.8782   18.5226 N   0  0  0  0  0  0  0  0  0  0  0  0
  -28.5815  -20.0976   19.9520 N   0  0  0  0  0  0  0  0  0  0  0  0
  -29.6721  -15.7198   20.1568 N   0  0  0  0  0  0  0  0  0  0  0  0
  -22.6263  -26.5403   20.9073 N   0  0  0  0  0  0  0  0  0  0  0  0
  -26.0957  -30.9561   23.4639 N   0  0  0  0  0  0  0  0  0  0  0  0
  -25.9746  -23.1997   17.3012 N   0  0  0  0  0  0  0  0  0  0  0  0
  -28.8398  -31.0270   25.8160 N   0  3  0  0  0  0  0  0  0  0  0  0
  -30.1939  -23.6938   16.3776 N   0  3  1  0  0  0  0  0  0  0  0  0
  -30.5214  -17.8479   20.0631 O   0  0  0  0  0  0  0  0  0  0  0  0
  -24.6646  -26.3708   19.7942 O   0  0  0  0  0  0  0  0  0  0  0  0
  -23.8561  -29.1954   23.1592 O   0  0  0  0  0  0  0  0  0  0  0  0
  -28.3631  -30.6784   23.0651 O   0  0  0  0  0  0  0  0  0  0  0  0
  -23.9622  -24.0773   17.9623 O   0  0  0  0  0  0  0  0  0  0  0  0
  -26.1073  -11.4452   20.3907 O   0  0  0  0  0  0  0  0  0  0  0  0
  -30.4297  -25.1858   19.6137 O   0  0  0  0  0  0  0  0  0  1  0  0
  -22.3430   -9.5877   23.9660 F   0  0  0  0  0  0  0  0  0  0  0  0
  -23.4629  -12.2286   20.2008 F   0  0  0  0  0  0  0  0  0  0  0  0
  1  2  1  0  0  0  0
  1  5  2  0  0  0  0
  2  6  2  0  0  0  0
  3  8  2  0  0  0  0
  3 15  1  0  0  0  0
  4  9  1  0  0  0  0
  4 15  2  0  0  0  0
  5 17  1  0  0  0  0
  6 19  1  0  0  0  0
  7 10  2  0  0  0  0
  7 18  1  0  0  0  0
  8 21  1  0  0  0  0
  9 21  2  0  0  0  0
 10 22  1  0  0  0  0
 11 12  2  0  0  0  0
 11 23  1  0  0  0  0
 12 24  1  0  0  0  0
 13 20  1  0  0  0  0
 13 22  2  0  0  0  0
 14 24  2  0  0  0  0
 14 25  1  0  0  0  0
 15 26  1  0  0  0  0
 16 26  1  0  0  0  0
 16 27  2  0  0  0  0
 16 28  1  0  0  0  0
 17 19  2  0  0  0  0
 17 33  1  0  0  0  0
 18 20  2  0  0  0  0
 18 34  1  0  0  0  0
 19 42  1  0  0  0  0
 20 35  1  0  0  0  0
 21 78  1  0  0  0  0
 22 79  1  0  0  0  0
 23 25  2  0  0  0  0
 23 78  1  0  0  0  0
 24 80  1  0  0  0  0
 25 81  1  0  0  0  0
 26 62  2  0  0  0  0
 27 63  1  0  0  0  0
 27 66  1  0  0  0  0
 28 67  1  0  0  0  0
 28 73  2  0  0  0  0
 29 43  1  0  0  0  0
 29 68  1  0  0  0  0
 29 74  2  0  0  0  0
 30 58  1  0  0  0  0
 30 64  1  0  0  0  0
 30 75  2  0  0  0  0
 31 59  1  0  0  0  0
 31 69  1  0  0  0  0
 31 76  2  0  0  0  0
 32 65  1  0  0  0  0
 32 70  1  0  0  0  0
 32 77  2  0  0  0  0
 33 36  1  0  0  0  0
 34 43  1  0  0  0  0
 35 64  1  0  0  0  0
 36 38  1  0  0  0  0
 37 39  1  0  0  0  0
 37 40  1  0  0  0  0
 38 42  1  0  0  0  0
 39 44  1  0  0  0  0
 40 65  1  0  0  0  0
 41 44  1  0  0  0  0
 41 65  1  0  0  0  0
 42 68  1  0  0  0  0
 43 64  1  0  0  0  0
 44 63  1  0  0  0  0
 45 59  1  0  0  0  0
 46 60  1  0  0  0  0
 47 60  1  0  0  0  0
 48 60  1  0  0  0  0
 49 61  1  0  0  0  0
 50 61  1  0  0  0  0
 51 71  1  0  0  0  0
 52 72  1  0  0  0  0
 53 54  1  0  0  0  0
 53 55  1  0  0  0  0
 54 70  1  0  0  0  0
 55 72  1  0  0  0  0
 56 61  1  0  0  0  0
 56 72  1  0  0  0  0
 57 61  1  0  0  0  0
 57 79  1  0  0  0  0
 58 60  1  0  0  0  0
 58 69  1  0  0  0  0
 59 71  1  0  0  0  0
 62 63  1  0  0  0  0
M  CHG  2  71   1  72   1
M  ISO  4  32 100  57 101  70 100  79 101
M  END
> <Batch ID>
0047

> <Smiles>
CNC(C)C(=O)NC(C(=O)N1Cc2cc([101O:1][101CH2:1]C(C)(C)CN(C)CCC[100NH:0][100C:0](=O)N3CCCC(n4nc(-c5ccc(Oc6ccc(F)cc6F)cc5)c(C(N)=O)c4N)C3)ccc2CC1C(=O)NC1CCCc2ccccc21)C(C)(C)C

> <Shape>
0.221

> <Color>
0.075

> <Negative vol penalty>
0.000

$$$$

  -OEChem-04052317243D

 83 91  0     1  0  0  0  0  0999 V2000
  -29.5371  -10.6702   16.8149 C   0  0  0  0  0  0  0  0  0  0  0  0
  -28.3173  -11.2748   16.5286 C   0  0  0  0  0  0  0  0  0  0  0  0
  -26.0706  -29.6795   23.4430 C   0  0  0  0  0  0  0  0  0  0  0  0
  -25.7995  -27.9588   25.1171 C   0  0  0  0  0  0  0  0  0  0  0  0
  -30.1801  -10.9379   18.0227 C   0  0  0  0  0  0  0  0  0  0  0  0
  -27.7391  -12.1465   17.4506 C   0  0  0  0  0  0  0  0  0  0  0  0
  -23.6859  -18.0442   17.7759 C   0  0  0  0  0  0  0  0  0  0  0  0
  -27.0346  -30.3004   24.2372 C   0  0  0  0  0  0  0  0  0  0  0  0
  -26.7636  -28.5797   25.9113 C   0  0  0  0  0  0  0  0  0  0  0  0
  -22.5229  -18.5198   18.3800 C   0  0  0  0  0  0  0  0  0  0  0  0
  -29.3084  -32.5354   25.9860 C   0  0  0  0  0  0  0  0  0  0  0  0
  -29.2331  -33.9201   26.1365 C   0  0  0  0  0  0  0  0  0  0  0  0
  -23.7628  -18.9687   20.3999 C   0  0  0  0  0  0  0  0  0  0  0  0
  -17.7267  -21.1006   23.0174 C   0  0  0  0  0  0  0  0  0  0  0  0
  -19.6694  -21.5476   21.6719 C   0  0  0  0  0  0  0  0  0  0  0  0
  -27.0320  -33.6950   27.1069 C   0  0  0  0  0  0  0  0  0  0  0  0
  -25.4530  -28.5087   23.8829 C   0  0  0  0  0  0  0  0  0  0  0  0
  -24.6698  -26.8796   22.0829 C   0  0  0  0  0  0  0  0  0  0  0  0
  -29.6141  -11.8208   18.9559 C   0  0  0  0  0  0  0  0  0  0  0  0
  -24.8959  -18.0170   18.4841 C   0  0  0  0  0  0  0  0  0  0  0  0
  -28.3744  -12.4252   18.6727 C   0  0  0  0  0  0  0  0  0  0  0  0
  -24.9403  -18.4947   19.8017 C   0  0  0  0  0  0  0  0  0  0  0  0
  -18.4156  -21.9278   22.1374 C   0  0  0  0  0  0  0  0  0  0  0  0
  -27.3811  -29.7505   25.4713 C   0  0  0  0  0  0  0  0  0  0  0  0
  -22.5606  -18.9795   19.6931 C   0  0  0  0  0  0  0  0  0  0  0  0
  -28.2454  -31.7305   26.3958 C   0  0  0  0  0  0  0  0  0  0  0  0
  -28.0950  -34.4999   26.6969 C   0  0  0  0  0  0  0  0  0  0  0  0
  -27.1073  -32.3103   26.9563 C   0  0  0  0  0  0  0  0  0  0  0  0
  -24.4567  -27.8672   23.0632 C   0  0  0  0  0  0  0  0  0  0  0  0
  -18.3304  -19.9132   23.3986 C   0  0  0  0  0  0  0  0  0  0  0  0
  -20.1863  -20.3402   22.1135 C   0  0  0  0  0  0  0  0  0  0  0  0
  -23.4156  -26.6026   21.5963 C   0  0  0  0  0  0  0  0  0  0  0  0
  -25.8921  -26.2673   21.6509 C   0  0  0  0  0  0  0  0  0  0  0  0
  -26.9009  -15.7319   19.4125 C   0  0  0  0  0  0  0  0  0  0  0  0
  -28.7165  -18.2487   20.3568 C   0  0  0  0  0  0  0  0  0  0  0  0
  -28.8587  -21.5224   21.3107 C   0  0  0  0  0  0  0  0  0  0  0  0
  -17.9911  -25.5829   22.4212 C   0  0  0  0  0  0  0  0  0  0  0  0
  -30.3233  -12.0425   20.2683 C   0  0  0  0  0  0  0  0  0  0  0  0
  -26.1472  -17.5258   17.8094 C   0  0  0  0  0  0  0  0  0  0  0  0
  -26.2183  -18.5057   20.5986 C   0  0  0  0  0  0  0  0  0  0  0  0
  -29.8259  -13.2683   21.0301 C   0  0  0  0  0  0  0  0  0  0  0  0
  -19.0118  -28.9915   22.2940 C   0  0  0  0  0  0  0  0  0  0  0  0
  -28.3010  -13.2984   21.0555 C   0  0  0  0  0  0  0  0  0  0  0  0
  -20.5357  -28.9215   22.4082 C   0  0  0  0  0  0  0  0  0  0  0  0
  -18.3321  -27.9256   23.1506 C   0  0  0  0  0  0  0  0  0  0  0  0
  -20.3221  -26.4772   23.0236 C   0  0  0  0  0  0  0  0  0  0  0  0
  -27.7274  -13.3958   19.6368 C   0  0  1  0  0  0  0  0  0  0  0  0
  -27.2163  -17.0652   18.7954 C   0  0  1  0  0  0  0  0  0  0  0  0
  -21.0536  -27.4968   22.1339 C   0  0  2  0  0  0  0  0  0  0  0  0
  -16.0382  -17.0327   24.5620 C   0  0  0  0  0  0  0  0  0  0  0  0
  -17.6067  -23.2879   20.1734 C   0  0  0  0  0  0  0  0  0  0  0  0
  -30.4780  -23.2881   22.0571 C   0  0  0  0  0  0  0  0  0  0  0  0
  -28.8498  -16.9561   23.1175 C   0  0  0  0  0  0  0  0  0  0  0  0
  -29.6295  -19.1526   24.0316 C   0  0  0  0  0  0  0  0  0  0  0  0
  -31.0025  -17.9545   22.3281 C   0  0  0  0  0  0  0  0  0  0  0  0
  -28.2249  -23.2483   18.9915 C   0  0  0  0  0  0  0  0  0  0  0  0
  -17.6197  -18.9998   24.3406 C   0  0  0  0  0  0  0  0  0  0  0  0
  -21.5376  -19.8993   21.6331 C   0  0  0  0  0  0  0  0  0  1  0  0
  -16.7349  -17.9842   23.6023 C   0  0  0  0  0  0  0  0  0  0  0  0
  -17.8117  -23.2170   21.6937 C   0  0  2  0  0  0  0  0  0  0  0  0
  -28.8416  -19.0614   21.6229 C   0  0  1  0  0  0  0  0  0  0  0  0
  -29.7612  -22.6613   20.8714 C   0  0  2  0  0  0  0  0  0  0  0  0
  -29.5562  -18.2793   22.7609 C   0  0  0  0  0  0  0  0  0  0  0  0
  -23.1685  -28.1956   23.1929 N   0  0  0  0  0  0  0  0  0  0  0  0
  -19.5468  -19.5102   22.9678 N   0  0  0  0  0  0  0  0  0  0  0  0
  -22.5609  -27.4100   22.2876 N   0  0  0  0  0  0  0  0  0  0  0  0
  -27.4138  -18.0095   19.8970 N   0  0  0  0  0  0  0  0  0  0  0  0
  -18.8672  -26.5976   22.8405 N   0  0  0  0  0  0  0  0  0  0  0  0
  -22.9715  -25.7497   20.6488 N   0  0  0  0  0  0  0  0  0  0  0  0
  -27.0908  -26.6685   22.2562 N   0  0  0  0  0  0  0  0  0  0  0  0
  -27.8351  -14.7508   19.1400 N   0  0  0  0  0  0  0  0  0  0  0  0
  -29.5037  -20.3054   21.2457 N   0  0  0  0  0  0  0  0  0  0  0  0
  -18.5811  -24.3564   22.1415 N   0  0  0  0  0  0  0  0  0  0  0  0
  -28.9643  -23.7205   20.1904 N   0  3  0  0  0  0  0  0  0  0  0  0
  -25.9223  -25.4021   20.7430 O   0  0  0  0  0  0  0  0  0  0  0  0
  -25.8860  -15.6033   20.0871 O   0  0  0  0  0  0  0  0  0  0  0  0
  -29.7373  -17.8473   19.7926 O   0  0  0  0  0  0  0  0  0  0  0  0
  -27.6988  -21.6955   21.6784 O   0  0  0  0  0  0  0  0  0  0  0  0
  -16.7740  -25.7586   22.2996 O   0  0  0  0  0  0  0  0  0  0  0  0
  -28.3219  -30.3559   26.2465 O   0  0  0  0  0  0  0  0  0  0  0  0
  -21.4267  -19.4436   20.2853 O   0  0  0  0  0  0  0  0  0  1  0  0
  -28.0235  -35.8295   26.8428 F   0  0  0  0  0  0  0  0  0  0  0  0
  -26.0834  -31.5421   27.3531 F   0  0  0  0  0  0  0  0  0  0  0  0
  1  2  1  0  0  0  0
  1  5  2  0  0  0  0
  2  6  2  0  0  0  0
  3  8  2  0  0  0  0
  3 17  1  0  0  0  0
  4  9  1  0  0  0  0
  4 17  2  0  0  0  0
  5 19  1  0  0  0  0
  6 21  1  0  0  0  0
  7 10  2  0  0  0  0
  7 20  1  0  0  0  0
  8 24  1  0  0  0  0
  9 24  2  0  0  0  0
 10 25  1  0  0  0  0
 11 12  2  0  0  0  0
 11 26  1  0  0  0  0
 12 27  1  0  0  0  0
 13 22  1  0  0  0  0
 13 25  2  0  0  0  0
 14 23  2  0  0  0  0
 14 30  1  0  0  0  0
 15 23  1  0  0  0  0
 15 31  2  0  0  0  0
 16 27  2  0  0  0  0
 16 28  1  0  0  0  0
 17 29  1  0  0  0  0
 18 29  1  0  0  0  0
 18 32  2  0  0  0  0
 18 33  1  0  0  0  0
 19 21  2  0  0  0  0
 19 38  1  0  0  0  0
 20 22  2  0  0  0  0
 20 39  1  0  0  0  0
 21 47  1  0  0  0  0
 22 40  1  0  0  0  0
 23 60  1  0  0  0  0
 24 80  1  0  0  0  0
 25 81  1  0  0  0  0
 26 28  2  0  0  0  0
 26 80  1  0  0  0  0
 27 82  1  0  0  0  0
 28 83  1  0  0  0  0
 29 64  2  0  0  0  0
 30 57  1  0  0  0  0
 30 65  2  0  0  0  0
 31 58  1  0  0  0  0
 31 65  1  0  0  0  0
 32 66  1  0  0  0  0
 32 69  1  0  0  0  0
 33 70  1  0  0  0  0
 33 75  2  0  0  0  0
 34 48  1  0  0  0  0
 34 71  1  0  0  0  0
 34 76  2  0  0  0  0
 35 61  1  0  0  0  0
 35 67  1  0  0  0  0
 35 77  2  0  0  0  0
 36 62  1  0  0  0  0
 36 72  1  0  0  0  0
 36 78  2  0  0  0  0
 37 68  1  0  0  0  0
 37 73  1  0  0  0  0
 37 79  2  0  0  0  0
 38 41  1  0  0  0  0
 39 48  1  0  0  0  0
 40 67  1  0  0  0  0
 41 43  1  0  0  0  0
 42 44  1  0  0  0  0
 42 45  1  0  0  0  0
 43 47  1  0  0  0  0
 44 49  1  0  0  0  0
 45 68  1  0  0  0  0
 46 49  1  0  0  0  0
 46 68  1  0  0  0  0
 47 71  1  0  0  0  0
 48 67  1  0  0  0  0
 49 66  1  0  0  0  0
 50 59  1  0  0  0  0
 51 60  1  0  0  0  0
 52 62  1  0  0  0  0
 53 63  1  0  0  0  0
 54 63  1  0  0  0  0
 55 63  1  0  0  0  0
 56 74  1  0  0  0  0
 57 59  1  0  0  0  0
 58 81  1  0  0  0  0
 60 73  1  0  0  0  0
 61 63  1  0  0  0  0
 61 72  1  0  0  0  0
 62 74  1  0  0  0  0
 64 66  1  0  0  0  0
M  CHG  1  74   1
M  ISO  4  37 100  58 101  73 100  81 101
M  END
> <Batch ID>
0047

> <Smiles>
CCCc1cc(C(C)[100NH:0][100C:0](=O)N2CCCC(n3nc(-c4ccc(Oc5ccc(F)cc5F)cc4)c(C(N)=O)c3N)C2)cc([101CH2:1][101O:1]c2ccc3c(c2)CN(C(=O)C(NC(=O)C(C)NC)C(C)(C)C)C(C(=O)NC2CCCc4ccccc42)C3)n1

> <Shape>
0.218

> <Color>
0.070

> <Negative vol penalty>
0.000

$$$$

  -OEChem-04052317243D

 83 91  0     1  0  0  0  0  0999 V2000
  -25.1513  -11.3608   20.4683 C   0  0  0  0  0  0  0  0  0  0  0  0
  -24.0709  -12.2237   20.3148 C   0  0  0  0  0  0  0  0  0  0  0  0
  -31.0807  -25.1784   19.1791 C   0  0  0  0  0  0  0  0  0  0  0  0
  -31.5362  -26.9701   20.7346 C   0  0  0  0  0  0  0  0  0  0  0  0
  -26.3846  -11.8577   20.8877 C   0  0  0  0  0  0  0  0  0  0  0  0
  -24.2229  -13.5839   20.5817 C   0  0  0  0  0  0  0  0  0  0  0  0
  -21.8583  -19.9940   18.4287 C   0  0  0  0  0  0  0  0  0  0  0  0
  -32.3741  -25.2921   18.6694 C   0  0  0  0  0  0  0  0  0  0  0  0
  -32.8296  -27.0837   20.2249 C   0  0  0  0  0  0  0  0  0  0  0  0
  -21.3009  -21.1643   18.9418 C   0  0  0  0  0  0  0  0  0  0  0  0
  -35.4936  -24.3343   19.5551 C   0  0  0  0  0  0  0  0  0  0  0  0
  -36.2133  -23.1580   19.3452 C   0  0  0  0  0  0  0  0  0  0  0  0
  -23.4991  -21.9225   19.5841 C   0  0  0  0  0  0  0  0  0  0  0  0
  -36.3956  -23.6891   16.9953 C   0  0  0  0  0  0  0  0  0  0  0  0
  -20.1667  -27.3050   23.2593 C   0  0  0  0  0  0  0  0  0  0  0  0
  -30.6617  -26.0175   20.2116 C   0  0  0  0  0  0  0  0  0  0  0  0
  -28.8997  -25.0848   21.8032 C   0  0  0  0  0  0  0  0  0  0  0  0
  -26.5545  -13.2261   21.1505 C   0  0  0  0  0  0  0  0  0  0  0  0
  -23.2414  -19.7738   18.4993 C   0  0  0  0  0  0  0  0  0  0  0  0
  -25.4594  -14.0993   21.0062 C   0  0  0  0  0  0  0  0  0  0  0  0
  -24.0718  -20.7496   19.0689 C   0  0  0  0  0  0  0  0  0  0  0  0
  -33.2486  -26.2447   19.1924 C   0  0  0  0  0  0  0  0  0  0  0  0
  -22.1209  -22.1275   19.5222 C   0  0  0  0  0  0  0  0  0  0  0  0
  -35.2248  -25.1879   18.4852 C   0  0  0  0  0  0  0  0  0  0  0  0
  -36.6643  -22.8355   18.0653 C   0  0  0  0  0  0  0  0  0  0  0  0
  -35.6759  -24.8654   17.2053 C   0  0  0  0  0  0  0  0  0  0  0  0
  -29.3256  -25.9010   20.7381 C   0  0  0  0  0  0  0  0  0  0  0  0
  -20.1074  -28.5476   22.6942 C   0  0  0  0  0  0  0  0  0  0  0  0
  -27.5535  -25.3350   21.9104 C   0  0  0  0  0  0  0  0  0  0  0  0
  -18.1983  -27.5113   22.2677 C   0  0  0  0  0  0  0  0  0  0  0  0
  -29.6536  -24.1813   22.6223 C   0  0  0  0  0  0  0  0  0  0  0  0
  -25.0991  -17.6047   19.8950 C   0  0  0  0  0  0  0  0  0  0  0  0
  -27.4493  -19.1419   18.2714 C   0  0  0  0  0  0  0  0  0  0  0  0
  -28.5307  -22.0024   16.7566 C   0  0  0  0  0  0  0  0  0  0  0  0
  -23.3745  -28.8603   22.1463 C   0  0  0  0  0  0  0  0  0  0  0  0
  -27.8941  -13.7092   21.6471 C   0  0  0  0  0  0  0  0  0  0  0  0
  -23.8301  -18.5181   17.9172 C   0  0  0  0  0  0  0  0  0  0  0  0
  -25.5650  -20.5705   19.1510 C   0  0  0  0  0  0  0  0  0  0  0  0
  -28.0708  -15.2222   21.5485 C   0  0  0  0  0  0  0  0  0  0  0  0
  -24.4119  -27.8362   18.8338 C   0  0  0  0  0  0  0  0  0  0  0  0
  -26.8361  -15.9399   22.0843 C   0  0  0  0  0  0  0  0  0  0  0  0
  -25.7570  -27.1699   19.1287 C   0  0  0  0  0  0  0  0  0  0  0  0
  -24.1940  -29.0583   19.7211 C   0  0  0  0  0  0  0  0  0  0  0  0
  -25.6437  -28.1198   21.4792 C   0  0  0  0  0  0  0  0  0  0  0  0
  -25.5914  -15.5850   21.2621 C   0  0  1  0  0  0  0  0  0  0  0  0
  -25.1937  -18.1689   18.5056 C   0  0  1  0  0  0  0  0  0  0  0  0
  -25.9136  -26.8643   20.6302 C   0  0  2  0  0  0  0  0  0  0  0  0
  -16.8309  -27.2361   21.7604 C   0  0  0  0  0  0  0  0  0  0  0  0
  -30.5100  -22.9667   15.5525 C   0  0  0  0  0  0  0  0  0  0  0  0
  -18.2962  -22.8640   22.8623 C   0  0  0  0  0  0  0  0  0  0  0  0
  -28.9169  -19.4426   20.9296 C   0  0  0  0  0  0  0  0  0  0  0  0
  -30.3567  -21.1879   19.8576 C   0  0  0  0  0  0  0  0  0  0  0  0
  -30.3810  -18.8489   18.9909 C   0  0  0  0  0  0  0  0  0  0  0  0
  -26.9543  -22.4650   14.2949 C   0  0  0  0  0  0  0  0  0  0  0  0
  -21.0781  -29.6447   22.6642 C   0  0  0  0  0  0  0  0  0  0  0  0
  -20.0961  -24.2028   21.6632 C   0  0  0  0  0  0  0  0  0  0  0  0
  -18.5958  -25.2898   23.4139 C   0  0  0  0  0  0  0  0  0  0  0  0
  -20.2490  -23.1895   20.5341 C   0  0  0  0  0  0  0  0  0  1  0  0
  -28.3621  -20.3088   18.5615 C   0  0  1  0  0  0  0  0  0  0  0  0
  -29.1804  -22.2433   15.4059 C   0  0  2  0  0  0  0  0  0  0  0  0
  -18.6879  -24.2315   22.2907 C   0  0  2  0  0  0  0  0  0  0  0  0
  -29.4758  -19.9498   19.5853 C   0  0  0  0  0  0  0  0  0  0  0  0
  -28.3305  -26.6160   20.2066 N   0  0  0  0  0  0  0  0  0  0  0  0
  -18.9721  -26.6860   22.9803 N   0  0  0  0  0  0  0  0  0  0  0  0
  -27.2659  -26.2499   20.9407 N   0  0  0  0  0  0  0  0  0  0  0  0
  -18.8788  -28.6479   22.0872 N   0  3  0  0  0  0  0  0  0  0  0  0
  -26.0922  -19.3231   18.5736 N   0  0  0  0  0  0  0  0  0  0  0  0
  -24.3386  -28.6956   21.1380 N   0  0  0  0  0  0  0  0  0  0  0  0
  -26.5994  -24.8594   22.7387 N   0  0  0  0  0  0  0  0  0  0  0  0
  -31.0267  -24.0443   22.3769 N   0  0  0  0  0  0  0  0  0  0  0  0
  -25.5849  -16.3166   20.0134 N   0  0  0  0  0  0  0  0  0  0  0  0
  -28.8627  -20.7664   17.2698 N   0  0  0  0  0  0  0  0  0  0  0  0
  -22.1683  -29.4189   21.7415 N   0  0  0  0  0  0  0  0  0  0  0  0
  -28.2892  -23.0684   14.5422 N   0  3  0  0  0  0  0  0  0  0  0  0
  -29.1222  -23.5030   23.5339 O   0  0  0  0  0  0  0  0  0  0  0  0
  -24.6221  -18.2881   20.7934 O   0  0  0  0  0  0  0  0  0  0  0  0
  -27.9219  -18.1102   17.7877 O   0  0  0  0  0  0  0  0  0  0  0  0
  -27.8046  -22.8296   17.3035 O   0  0  0  0  0  0  0  0  0  0  0  0
  -23.5720  -28.5289   23.3203 O   0  0  0  0  0  0  0  0  0  0  0  0
  -34.5109  -26.3557   18.6955 O   0  0  0  0  0  0  0  0  0  0  0  0
  -21.5794  -23.2705   20.0244 O   0  0  0  0  0  0  0  0  0  1  0  0
  -37.3567  -21.7067   17.8640 F   0  0  0  0  0  0  0  0  0  0  0  0
  -35.4218  -25.6821   16.1737 F   0  0  0  0  0  0  0  0  0  0  0  0
  1  2  1  0  0  0  0
  1  5  2  0  0  0  0
  2  6  2  0  0  0  0
  3  8  2  0  0  0  0
  3 16  1  0  0  0  0
  4  9  1  0  0  0  0
  4 16  2  0  0  0  0
  5 18  1  0  0  0  0
  6 20  1  0  0  0  0
  7 10  2  0  0  0  0
  7 19  1  0  0  0  0
  8 22  1  0  0  0  0
  9 22  2  0  0  0  0
 10 23  1  0  0  0  0
 11 12  2  0  0  0  0
 11 24  1  0  0  0  0
 12 25  1  0  0  0  0
 13 21  1  0  0  0  0
 13 23  2  0  0  0  0
 14 25  2  0  0  0  0
 14 26  1  0  0  0  0
 15 28  2  0  0  0  0
 15 64  1  0  0  0  0
 16 27  1  0  0  0  0
 17 27  1  0  0  0  0
 17 29  2  0  0  0  0
 17 31  1  0  0  0  0
 18 20  2  0  0  0  0
 18 36  1  0  0  0  0
 19 21  2  0  0  0  0
 19 37  1  0  0  0  0
 20 45  1  0  0  0  0
 21 38  1  0  0  0  0
 22 80  1  0  0  0  0
 23 81  1  0  0  0  0
 24 26  2  0  0  0  0
 24 80  1  0  0  0  0
 25 82  1  0  0  0  0
 26 83  1  0  0  0  0
 27 63  2  0  0  0  0
 28 55  1  0  0  0  0
 28 66  1  0  0  0  0
 29 65  1  0  0  0  0
 29 69  1  0  0  0  0
 30 48  1  0  0  0  0
 30 64  1  0  0  0  0
 30 66  2  0  0  0  0
 31 70  1  0  0  0  0
 31 75  2  0  0  0  0
 32 46  1  0  0  0  0
 32 71  1  0  0  0  0
 32 76  2  0  0  0  0
 33 59  1  0  0  0  0
 33 67  1  0  0  0  0
 33 77  2  0  0  0  0
 34 60  1  0  0  0  0
 34 72  1  0  0  0  0
 34 78  2  0  0  0  0
 35 68  1  0  0  0  0
 35 73  1  0  0  0  0
 35 79  2  0  0  0  0
 36 39  1  0  0  0  0
 37 46  1  0  0  0  0
 38 67  1  0  0  0  0
 39 41  1  0  0  0  0
 40 42  1  0  0  0  0
 40 43  1  0  0  0  0
 41 45  1  0  0  0  0
 42 47  1  0  0  0  0
 43 68  1  0  0  0  0
 44 47  1  0  0  0  0
 44 68  1  0  0  0  0
 45 71  1  0  0  0  0
 46 67  1  0  0  0  0
 47 65  1  0  0  0  0
 49 60  1  0  0  0  0
 50 61  1  0  0  0  0
 51 62  1  0  0  0  0
 52 62  1  0  0  0  0
 53 62  1  0  0  0  0
 54 74  1  0  0  0  0
 55 73  1  0  0  0  0
 56 58  1  0  0  0  0
 56 61  1  0  0  0  0
 57 61  1  0  0  0  0
 57 64  1  0  0  0  0
 58 81  1  0  0  0  0
 59 62  1  0  0  0  0
 59 72  1  0  0  0  0
 60 74  1  0  0  0  0
 63 65  1  0  0  0  0
M  CHG  2  66   1  74   1
M  ISO  4  35 100  58 101  73 100  81 101
M  END
> <Batch ID>
0047

> <Smiles>
CNC(C)C(=O)NC(C(=O)N1Cc2cc([101O:1][101CH2:1]CC(C)Cn3cc(C[100NH:0][100C:0](=O)N4CCCC(n5nc(-c6ccc(Oc7ccc(F)cc7F)cc6)c(C(N)=O)c5N)C4)nc3C)ccc2CC1C(=O)NC1CCCc2ccccc21)C(C)(C)C

> <Shape>
0.195

> <Color>
0.091

> <Negative vol penalty>
0.000

$$$$

  -OEChem-04052317243D

 83 91  0     1  0  0  0  0  0999 V2000
  -19.8026  -27.2938   22.5314 C   0  0  0  0  0  0  0  0  0  0  0  0
  -20.8146  -26.4308   22.9397 C   0  0  0  0  0  0  0  0  0  0  0  0
  -29.4192  -26.3410   18.7592 C   0  0  0  0  0  0  0  0  0  0  0  0
  -28.3862  -25.5513   20.7955 C   0  0  0  0  0  0  0  0  0  0  0  0
  -18.8092  -26.8406   21.6644 C   0  0  0  0  0  0  0  0  0  0  0  0
  -20.8330  -25.1138   22.4819 C   0  0  0  0  0  0  0  0  0  0  0  0
  -25.3951  -19.8782   20.7230 C   0  0  0  0  0  0  0  0  0  0  0  0
  -28.8051  -27.5818   18.9289 C   0  0  0  0  0  0  0  0  0  0  0  0
  -27.7720  -26.7921   20.9652 C   0  0  0  0  0  0  0  0  0  0  0  0
  -25.6542  -18.5369   21.0012 C   0  0  0  0  0  0  0  0  0  0  0  0
  -25.0966  -28.4392   19.7161 C   0  0  0  0  0  0  0  0  0  0  0  0
  -23.7479  -28.4516   20.0715 C   0  0  0  0  0  0  0  0  0  0  0  0
  -23.9307  -17.8871   19.4435 C   0  0  0  0  0  0  0  0  0  0  0  0
  -24.2930  -29.6466   22.0992 C   0  0  0  0  0  0  0  0  0  0  0  0
  -29.2097  -25.3257   19.6925 C   0  0  0  0  0  0  0  0  0  0  0  0
  -31.1035  -23.6448   20.0024 C   0  0  0  0  0  0  0  0  0  0  0  0
  -18.8210  -25.5201   21.1882 C   0  0  0  0  0  0  0  0  0  0  0  0
  -24.3927  -20.2350   19.8096 C   0  0  0  0  0  0  0  0  0  0  0  0
  -19.8381  -24.6421   21.6088 C   0  0  0  0  0  0  0  0  0  0  0  0
  -23.6625  -19.2336   19.1535 C   0  0  0  0  0  0  0  0  0  0  0  0
  -27.9815  -27.8074   20.0318 C   0  0  0  0  0  0  0  0  0  0  0  0
  -24.9200  -17.5412   20.3636 C   0  0  0  0  0  0  0  0  0  0  0  0
  -26.0436  -29.0305   20.5524 C   0  0  0  0  0  0  0  0  0  0  0  0
  -23.3461  -29.0553   21.2630 C   0  0  0  0  0  0  0  0  0  0  0  0
  -25.6418  -29.6342   21.7439 C   0  0  0  0  0  0  0  0  0  0  0  0
  -29.8434  -24.0435   19.5175 C   0  0  0  0  0  0  0  0  0  0  0  0
  -25.4871  -11.4464   21.2082 C   0  0  0  0  0  0  0  0  0  0  0  0
  -24.3130  -12.0268   21.6349 C   0  0  0  0  0  0  0  0  0  0  0  0
  -25.9585  -13.3103   19.9699 C   0  0  0  0  0  0  0  0  0  0  0  0
  -24.7840  -13.8905   20.3960 C   0  0  0  0  0  0  0  0  0  0  0  0
  -31.2427  -22.3482   19.5711 C   0  0  0  0  0  0  0  0  0  0  0  0
  -32.0623  -24.3806   20.7737 C   0  0  0  0  0  0  0  0  0  0  0  0
  -21.6774  -21.8780   19.9873 C   0  0  0  0  0  0  0  0  0  0  0  0
  -21.6722  -21.4662   16.7697 C   0  0  0  0  0  0  0  0  0  0  0  0
  -22.7170  -19.6433   14.0805 C   0  0  0  0  0  0  0  0  0  0  0  0
  -29.2194  -17.3035   18.9354 C   0  0  0  0  0  0  0  0  0  0  0  0
  -17.6993  -25.0624   20.2898 C   0  0  0  0  0  0  0  0  0  0  0  0
  -24.1436  -21.6858   19.5005 C   0  0  0  0  0  0  0  0  0  0  0  0
  -22.5895  -19.5635   18.1494 C   0  0  0  0  0  0  0  0  0  0  0  0
  -18.0011  -23.7592   19.5544 C   0  0  0  0  0  0  0  0  0  0  0  0
  -28.4977  -19.6572   16.2826 C   0  0  0  0  0  0  0  0  0  0  0  0
  -18.5816  -22.7262   20.5151 C   0  0  0  0  0  0  0  0  0  0  0  0
  -28.8918  -20.9827   16.9366 C   0  0  0  0  0  0  0  0  0  0  0  0
  -27.8442  -18.7163   17.2905 C   0  0  0  0  0  0  0  0  0  0  0  0
  -29.0623  -19.7670   19.1575 C   0  0  0  0  0  0  0  0  0  0  0  0
  -19.9063  -23.2135   21.1144 C   0  0  1  0  0  0  0  0  0  0  0  0
  -22.7499  -21.9459   18.9372 C   0  0  1  0  0  0  0  0  0  0  0  0
  -29.7489  -20.7535   18.1955 C   0  0  2  0  0  0  0  0  0  0  0  0
  -25.8882  -10.0827   21.6564 C   0  0  0  0  0  0  0  0  0  0  0  0
  -23.3890  -11.3180   22.5652 C   0  0  0  0  0  0  0  0  0  0  0  0
  -23.0521  -19.0328   11.6696 C   0  0  0  0  0  0  0  0  0  0  0  0
  -18.8616  -20.3115   17.0477 C   0  0  0  0  0  0  0  0  0  0  0  0
  -19.0979  -19.3646   14.7422 C   0  0  0  0  0  0  0  0  0  0  0  0
  -19.1749  -21.8338   15.0884 C   0  0  0  0  0  0  0  0  0  0  0  0
  -25.2142  -21.2222   13.9074 C   0  0  0  0  0  0  0  0  0  0  0  0
  -26.8833  -14.0195   19.0406 C   0  0  0  0  0  0  0  0  0  0  0  0
  -24.3804  -15.2632   19.9443 C   0  0  0  0  0  0  0  0  0  1  0  0
  -28.3265  -14.1652   19.5632 C   0  0  0  0  0  0  0  0  0  0  0  0
  -29.2822  -14.8476   18.5868 C   0  0  0  0  0  0  0  0  0  0  0  0
  -21.1342  -20.4169   15.8271 C   0  0  1  0  0  0  0  0  0  0  0  0
  -23.3261  -20.0625   12.7547 C   0  0  2  0  0  0  0  0  0  0  0  0
  -19.5860  -20.4752   15.6967 C   0  0  0  0  0  0  0  0  0  0  0  0
  -29.2263  -23.0785   18.8307 N   0  0  0  0  0  0  0  0  0  0  0  0
  -26.3310  -12.0777   20.3681 N   0  0  0  0  0  0  0  0  0  0  0  0
  -23.9404  -13.2593   21.2364 N   0  0  0  0  0  0  0  0  0  0  0  0
  -30.1022  -22.0605   18.8808 N   0  0  0  0  0  0  0  0  0  0  0  0
  -22.3789  -20.9966   17.8859 N   0  0  0  0  0  0  0  0  0  0  0  0
  -28.7191  -18.5255   18.4559 N   0  0  0  0  0  0  0  0  0  0  0  0
  -32.2283  -21.4376   19.7188 N   0  0  0  0  0  0  0  0  0  0  0  0
  -31.7598  -25.7015   21.1316 N   0  0  0  0  0  0  0  0  0  0  0  0
  -20.9810  -23.0593   20.1575 N   0  0  0  0  0  0  0  0  0  0  0  0
  -21.8472  -20.5962   14.5669 N   0  0  0  0  0  0  0  0  0  0  0  0
  -28.8418  -16.1748   18.2184 N   0  0  0  0  0  0  0  0  0  0  0  0
  -24.8017  -20.2216   12.8898 N   0  3  0  0  0  0  0  0  0  0  0  0
  -33.1620  -23.8870   21.1208 O   0  0  0  0  0  0  0  0  0  0  0  0
  -21.4942  -20.8308   20.5969 O   0  0  0  0  0  0  0  0  0  0  0  0
  -21.4788  -22.6588   16.5210 O   0  0  0  0  0  0  0  0  0  0  0  0
  -22.9832  -18.5755   14.6278 O   0  0  0  0  0  0  0  0  0  0  0  0
  -29.9532  -17.2246   19.9265 O   0  0  0  0  0  0  0  0  0  0  0  0
  -27.3822  -29.0181   20.1978 O   0  0  0  0  0  0  0  0  0  0  0  0
  -25.1705  -16.2311   20.6338 O   0  0  0  0  0  0  0  0  0  1  0  0
  -22.0506  -29.0684   21.6034 F   0  0  0  0  0  0  0  0  0  0  0  0
  -26.5469  -30.2049   22.5508 F   0  0  0  0  0  0  0  0  0  0  0  0
  1  2  1  0  0  0  0
  1  5  2  0  0  0  0
  2  6  2  0  0  0  0
  3  8  2  0  0  0  0
  3 15  1  0  0  0  0
  4  9  1  0  0  0  0
  4 15  2  0  0  0  0
  5 17  1  0  0  0  0
  6 19  1  0  0  0  0
  7 10  2  0  0  0  0
  7 18  1  0  0  0  0
  8 21  1  0  0  0  0
  9 21  2  0  0  0  0
 10 22  1  0  0  0  0
 11 12  2  0  0  0  0
 11 23  1  0  0  0  0
 12 24  1  0  0  0  0
 13 20  1  0  0  0  0
 13 22  2  0  0  0  0
 14 24  2  0  0  0  0
 14 25  1  0  0  0  0
 15 26  1  0  0  0  0
 16 26  1  0  0  0  0
 16 31  2  0  0  0  0
 16 32  1  0  0  0  0
 17 19  2  0  0  0  0
 17 37  1  0  0  0  0
 18 20  2  0  0  0  0
 18 38  1  0  0  0  0
 19 46  1  0  0  0  0
 20 39  1  0  0  0  0
 21 80  1  0  0  0  0
 22 81  1  0  0  0  0
 23 25  2  0  0  0  0
 23 80  1  0  0  0  0
 24 82  1  0  0  0  0
 25 83  1  0  0  0  0
 26 63  2  0  0  0  0
 27 28  1  0  0  0  0
 27 49  1  0  0  0  0
 27 64  2  0  0  0  0
 28 50  1  0  0  0  0
 28 65  2  0  0  0  0
 29 30  2  0  0  0  0
 29 56  1  0  0  0  0
 29 64  1  0  0  0  0
 30 57  1  0  0  0  0
 30 65  1  0  0  0  0
 31 66  1  0  0  0  0
 31 69  1  0  0  0  0
 32 70  1  0  0  0  0
 32 75  2  0  0  0  0
 33 47  1  0  0  0  0
 33 71  1  0  0  0  0
 33 76  2  0  0  0  0
 34 60  1  0  0  0  0
 34 67  1  0  0  0  0
 34 77  2  0  0  0  0
 35 61  1  0  0  0  0
 35 72  1  0  0  0  0
 35 78  2  0  0  0  0
 36 68  1  0  0  0  0
 36 73  1  0  0  0  0
 36 79  2  0  0  0  0
 37 40  1  0  0  0  0
 38 47  1  0  0  0  0
 39 67  1  0  0  0  0
 40 42  1  0  0  0  0
 41 43  1  0  0  0  0
 41 44  1  0  0  0  0
 42 46  1  0  0  0  0
 43 48  1  0  0  0  0
 44 68  1  0  0  0  0
 45 48  1  0  0  0  0
 45 68  1  0  0  0  0
 46 71  1  0  0  0  0
 47 67  1  0  0  0  0
 48 66  1  0  0  0  0
 51 61  1  0  0  0  0
 52 62  1  0  0  0  0
 53 62  1  0  0  0  0
 54 62  1  0  0  0  0
 55 74  1  0  0  0  0
 56 58  1  0  0  0  0
 57 81  1  0  0  0  0
 58 59  1  0  0  0  0
 59 73  1  0  0  0  0
 60 62  1  0  0  0  0
 60 72  1  0  0  0  0
 61 74  1  0  0  0  0
 63 66  1  0  0  0  0
M  CHG  1  74   1
M  ISO  4  36 100  57 101  73 100  81 101
M  END
> <Batch ID>
0047

> <Smiles>
CNC(C)C(=O)NC(C(=O)N1Cc2cc([101O:1][101CH2:1]c3nc(C)c(C)nc3CCC[100NH:0][100C:0](=O)N3CCCC(n4nc(-c5ccc(Oc6ccc(F)cc6F)cc5)c(C(N)=O)c4N)C3)ccc2CC1C(=O)NC1CCCc2ccccc21)C(C)(C)C

> <Shape>
0.210

> <Color>
0.077

> <Negative vol penalty>
0.000

$$$$

  -OEChem-04052317243D

 81 89  0     1  0  0  0  0  0999 V2000
  -26.3378  -37.3237   17.5436 C   0  0  0  0  0  0  0  0  0  0  0  0
  -26.7235  -36.0037   17.3332 C   0  0  0  0  0  0  0  0  0  0  0  0
  -25.9860  -13.8974   21.7394 C   0  0  0  0  0  0  0  0  0  0  0  0
  -25.6212  -15.4796   19.9503 C   0  0  0  0  0  0  0  0  0  0  0  0
  -26.1579  -37.7976   18.8424 C   0  0  0  0  0  0  0  0  0  0  0  0
  -26.9306  -35.1571   18.4217 C   0  0  0  0  0  0  0  0  0  0  0  0
  -25.7593  -29.1519   18.6900 C   0  0  0  0  0  0  0  0  0  0  0  0
  -24.6532  -13.4949   21.6552 C   0  0  0  0  0  0  0  0  0  0  0  0
  -24.2884  -15.0770   19.8660 C   0  0  0  0  0  0  0  0  0  0  0  0
  -26.5736  -28.0299   18.5425 C   0  0  0  0  0  0  0  0  0  0  0  0
  -22.7732  -11.5033   19.6722 C   0  0  0  0  0  0  0  0  0  0  0  0
  -22.5070  -10.1342   19.6931 C   0  0  0  0  0  0  0  0  0  0  0  0
  -26.8233  -27.9035   20.9385 C   0  0  0  0  0  0  0  0  0  0  0  0
  -21.1727  -10.4241   21.6863 C   0  0  0  0  0  0  0  0  0  0  0  0
  -26.0605  -22.9852   19.8476 C   0  0  0  0  0  0  0  0  0  0  0  0
  -26.4700  -14.8899   20.8870 C   0  0  0  0  0  0  0  0  0  0  0  0
  -28.9434  -14.7686   20.2743 C   0  0  0  0  0  0  0  0  0  0  0  0
  -26.3535  -36.9537   19.9471 C   0  0  0  0  0  0  0  0  0  0  0  0
  -25.4792  -29.6655   19.9645 C   0  0  0  0  0  0  0  0  0  0  0  0
  -26.7545  -35.6205   19.7366 C   0  0  0  0  0  0  0  0  0  0  0  0
  -26.0031  -29.0306   21.0997 C   0  0  0  0  0  0  0  0  0  0  0  0
  -23.8044  -14.0846   20.7185 C   0  0  0  0  0  0  0  0  0  0  0  0
  -27.1081  -27.4072   19.6667 C   0  0  0  0  0  0  0  0  0  0  0  0
  -22.2392  -12.3328   20.6584 C   0  0  0  0  0  0  0  0  0  0  0  0
  -21.7067   -9.5946   20.7001 C   0  0  0  0  0  0  0  0  0  0  0  0
  -21.4390  -11.7932   21.6654 C   0  0  0  0  0  0  0  0  0  0  0  0
  -27.8466  -15.3065   20.9739 C   0  0  0  0  0  0  0  0  0  0  0  0
  -27.8013  -23.3002   21.1618 C   0  0  0  0  0  0  0  0  0  0  0  0
  -26.7526  -22.7302   21.8443 C   0  0  0  0  0  0  0  0  0  0  0  0
  -30.0199  -15.5050   20.7049 C   0  0  0  0  0  0  0  0  0  0  0  0
  -28.9854  -13.6990   19.3205 C   0  0  0  0  0  0  0  0  0  0  0  0
  -26.0370  -32.4231   21.4438 C   0  0  0  0  0  0  0  0  0  0  0  0
  -24.2085  -31.0965   23.7717 C   0  0  0  0  0  0  0  0  0  0  0  0
  -22.9917  -28.2665   25.2404 C   0  0  0  0  0  0  0  0  0  0  0  0
  -30.5407  -21.0201   22.9773 C   0  0  0  0  0  0  0  0  0  0  0  0
  -26.1929  -37.5242   21.3339 C   0  0  0  0  0  0  0  0  0  0  0  0
  -24.5773  -30.8606   20.1082 C   0  0  0  0  0  0  0  0  0  0  0  0
  -25.7162  -29.5306   22.4912 C   0  0  0  0  0  0  0  0  0  0  0  0
  -26.0688  -36.4589   22.4202 C   0  0  0  0  0  0  0  0  0  0  0  0
  -31.5954  -17.9736   24.4884 C   0  0  0  0  0  0  0  0  0  0  0  0
  -27.1330  -35.3818   22.2357 C   0  0  0  0  0  0  0  0  0  0  0  0
  -30.8532  -16.8961   23.6959 C   0  0  0  0  0  0  0  0  0  0  0  0
  -30.7419  -19.2262   24.6739 C   0  0  0  0  0  0  0  0  0  0  0  0
  -29.4556  -18.7176   22.6342 C   0  0  0  0  0  0  0  0  0  0  0  0
  -26.9647  -34.6646   20.8908 C   0  0  1  0  0  0  0  0  0  0  0  0
  -24.7769  -31.6049   21.4248 C   0  0  1  0  0  0  0  0  0  0  0  0
  -30.2965  -17.4563   22.3732 C   0  0  2  0  0  0  0  0  0  0  0  0
  -21.5529  -27.4996   27.1480 C   0  0  0  0  0  0  0  0  0  0  0  0
  -26.4804  -31.6890   25.7203 C   0  0  0  0  0  0  0  0  0  0  0  0
  -25.4209  -30.0931   27.3323 C   0  0  0  0  0  0  0  0  0  0  0  0
  -24.1909  -32.1425   26.6185 C   0  0  0  0  0  0  0  0  0  0  0  0
  -21.0609  -26.9655   23.4132 C   0  0  0  0  0  0  0  0  0  0  0  0
  -29.1554  -23.7011   21.5855 C   0  0  0  0  0  0  0  0  0  0  0  0
  -28.0969  -24.0453   18.7160 C   0  0  0  0  0  0  0  0  0  0  0  0
  -30.2628  -22.7098   21.1810 C   0  0  0  0  0  0  0  0  0  0  0  0
  -27.6564  -25.4705   18.4001 C   0  0  0  0  0  0  0  0  0  1  0  0
  -24.4776  -30.2362   24.9827 C   0  0  1  0  0  0  0  0  0  0  0  0
  -21.5896  -27.8808   25.6763 C   0  0  2  0  0  0  0  0  0  0  0  0
  -25.1496  -31.0317   26.1373 C   0  0  0  0  0  0  0  0  0  0  0  0
  -25.6721  -22.5364   21.0205 N   0  0  0  0  0  0  0  0  0  0  0  0
  -28.1944  -16.3073   21.7873 N   0  0  0  0  0  0  0  0  0  0  0  0
  -27.3432  -23.4572   19.8840 N   0  0  0  0  0  0  0  0  0  0  0  0
  -29.5219  -16.4040   21.6016 N   0  0  0  0  0  0  0  0  0  0  0  0
  -24.8340  -30.7059   22.5793 N   0  0  0  0  0  0  0  0  0  0  0  0
  -30.2465  -19.7075   23.3820 N   0  0  0  0  0  0  0  0  0  0  0  0
  -31.3344  -15.4647   20.4003 N   0  0  0  0  0  0  0  0  0  0  0  0
  -27.7877  -13.0497   18.9915 N   0  0  0  0  0  0  0  0  0  0  0  0
  -25.8809  -33.7081   20.9602 N   0  0  0  0  0  0  0  0  0  0  0  0
  -23.2022  -29.6254   25.3412 N   0  0  0  0  0  0  0  0  0  0  0  0
  -30.0385  -21.3939   21.7368 N   0  0  0  0  0  0  0  0  0  0  0  0
  -21.0995  -26.7216   24.8782 N   0  3  0  0  0  0  0  0  0  0  0  0
  -30.0559  -13.3191   18.7883 O   0  0  0  0  0  0  0  0  0  0  0  0
  -27.0739  -31.9258   21.8674 O   0  0  0  0  0  0  0  0  0  0  0  0
  -23.4647  -32.0749   23.8782 O   0  0  0  0  0  0  0  0  0  0  0  0
  -23.8187  -27.4440   24.8531 O   0  0  0  0  0  0  0  0  0  0  0  0
  -31.2065  -21.7991   23.6678 O   0  0  0  0  0  0  0  0  0  0  0  0
  -22.5038  -13.6919   20.6358 O   0  0  0  0  0  0  0  0  0  0  0  0
  -27.9037  -26.3123   19.5255 O   0  0  0  0  0  0  0  0  0  1  0  0
  -21.4499   -8.2802   20.7192 F   0  0  0  0  0  0  0  0  0  0  0  0
  -20.9222  -12.5852   22.6149 F   0  0  0  0  0  0  0  0  0  0  0  0
  -26.7266  -22.2948   23.4911 Cl  0  0  0  0  0  0  0  0  0  0  0  0
  1  2  1  0  0  0  0
  1  5  2  0  0  0  0
  2  6  2  0  0  0  0
  3  8  2  0  0  0  0
  3 16  1  0  0  0  0
  4  9  1  0  0  0  0
  4 16  2  0  0  0  0
  5 18  1  0  0  0  0
  6 20  1  0  0  0  0
  7 10  2  0  0  0  0
  7 19  1  0  0  0  0
  8 22  1  0  0  0  0
  9 22  2  0  0  0  0
 10 23  1  0  0  0  0
 11 12  2  0  0  0  0
 11 24  1  0  0  0  0
 12 25  1  0  0  0  0
 13 21  1  0  0  0  0
 13 23  2  0  0  0  0
 14 25  2  0  0  0  0
 14 26  1  0  0  0  0
 15 60  2  0  0  0  0
 15 62  1  0  0  0  0
 16 27  1  0  0  0  0
 17 27  1  0  0  0  0
 17 30  2  0  0  0  0
 17 31  1  0  0  0  0
 18 20  2  0  0  0  0
 18 36  1  0  0  0  0
 19 21  2  0  0  0  0
 19 37  1  0  0  0  0
 20 45  1  0  0  0  0
 21 38  1  0  0  0  0
 22 77  1  0  0  0  0
 23 78  1  0  0  0  0
 24 26  2  0  0  0  0
 24 77  1  0  0  0  0
 25 79  1  0  0  0  0
 26 80  1  0  0  0  0
 27 61  2  0  0  0  0
 28 29  2  0  0  0  0
 28 53  1  0  0  0  0
 28 62  1  0  0  0  0
 29 60  1  0  0  0  0
 29 81  1  0  0  0  0
 30 63  1  0  0  0  0
 30 66  1  0  0  0  0
 31 67  1  0  0  0  0
 31 72  2  0  0  0  0
 32 46  1  0  0  0  0
 32 68  1  0  0  0  0
 32 73  2  0  0  0  0
 33 57  1  0  0  0  0
 33 64  1  0  0  0  0
 33 74  2  0  0  0  0
 34 58  1  0  0  0  0
 34 69  1  0  0  0  0
 34 75  2  0  0  0  0
 35 65  1  0  0  0  0
 35 70  1  0  0  0  0
 35 76  2  0  0  0  0
 36 39  1  0  0  0  0
 37 46  1  0  0  0  0
 38 64  1  0  0  0  0
 39 41  1  0  0  0  0
 40 42  1  0  0  0  0
 40 43  1  0  0  0  0
 41 45  1  0  0  0  0
 42 47  1  0  0  0  0
 43 65  1  0  0  0  0
 44 47  1  0  0  0  0
 44 65  1  0  0  0  0
 45 68  1  0  0  0  0
 46 64  1  0  0  0  0
 47 63  1  0  0  0  0
 48 58  1  0  0  0  0
 49 59  1  0  0  0  0
 50 59  1  0  0  0  0
 51 59  1  0  0  0  0
 52 71  1  0  0  0  0
 53 55  1  0  0  0  0
 54 56  1  0  0  0  0
 54 62  1  0  0  0  0
 55 70  1  0  0  0  0
 56 78  1  0  0  0  0
 57 59  1  0  0  0  0
 57 69  1  0  0  0  0
 58 71  1  0  0  0  0
 61 63  1  0  0  0  0
M  CHG  1  71   1
M  ISO  4  35 100  56 101  70 100  78 101
M  END
> <Batch ID>
0047

> <Smiles>
CNC(C)C(=O)NC(C(=O)N1Cc2cc([101O:1][101CH2:1]Cn3cnc(Cl)c3CC[100NH:0][100C:0](=O)N3CCCC(n4nc(-c5ccc(Oc6ccc(F)cc6F)cc5)c(C(N)=O)c4N)C3)ccc2CC1C(=O)NC1CCCc2ccccc21)C(C)(C)C

> <Shape>
0.251

> <Color>
0.076

> <Negative vol penalty>
0.000

$$$$

  -OEChem-04052317243D

 81 89  0     1  0  0  0  0  0999 V2000
  -26.1113  -35.6405   21.6665 C   0  0  0  0  0  0  0  0  0  0  0  0
  -26.6405  -34.3584   21.7741 C   0  0  0  0  0  0  0  0  0  0  0  0
  -27.1982  -12.6511   21.4069 C   0  0  0  0  0  0  0  0  0  0  0  0
  -26.7720  -13.6537   19.2505 C   0  0  0  0  0  0  0  0  0  0  0  0
  -24.7833  -35.8772   22.0191 C   0  0  0  0  0  0  0  0  0  0  0  0
  -25.8422  -33.3123   22.2355 C   0  0  0  0  0  0  0  0  0  0  0  0
  -26.3477  -29.1104   19.4546 C   0  0  0  0  0  0  0  0  0  0  0  0
  -26.4511  -11.5335   21.0349 C   0  0  0  0  0  0  0  0  0  0  0  0
  -26.0249  -12.5361   18.8785 C   0  0  0  0  0  0  0  0  0  0  0  0
  -27.4831  -28.3324   19.6771 C   0  0  0  0  0  0  0  0  0  0  0  0
  -24.3552   -8.5724   20.7840 C   0  0  0  0  0  0  0  0  0  0  0  0
  -23.4411   -8.0649   21.7073 C   0  0  0  0  0  0  0  0  0  0  0  0
  -26.1786  -26.8293   21.0403 C   0  0  0  0  0  0  0  0  0  0  0  0
  -22.2718  -10.1791   21.7117 C   0  0  0  0  0  0  0  0  0  0  0  0
  -27.3586  -13.7113   20.5147 C   0  0  0  0  0  0  0  0  0  0  0  0
  -29.5117  -15.0643   20.7172 C   0  0  0  0  0  0  0  0  0  0  0  0
  -23.9656  -34.8316   22.4758 C   0  0  0  0  0  0  0  0  0  0  0  0
  -25.1196  -28.7591   20.0332 C   0  0  0  0  0  0  0  0  0  0  0  0
  -24.5023  -33.5355   22.5958 C   0  0  0  0  0  0  0  0  0  0  0  0
  -25.0286  -27.6031   20.8215 C   0  0  0  0  0  0  0  0  0  0  0  0
  -25.8645  -11.4760   19.7707 C   0  0  0  0  0  0  0  0  0  0  0  0
  -27.3993  -27.1933   20.4723 C   0  0  0  0  0  0  0  0  0  0  0  0
  -24.2277   -9.8833   20.3246 C   0  0  0  0  0  0  0  0  0  0  0  0
  -22.3994   -8.8682   22.1711 C   0  0  0  0  0  0  0  0  0  0  0  0
  -23.1860  -10.6866   20.7884 C   0  0  0  0  0  0  0  0  0  0  0  0
  -28.1298  -14.8663   20.8985 C   0  0  0  0  0  0  0  0  0  0  0  0
  -28.1495  -22.1374   19.7122 C   0  0  0  0  0  0  0  0  0  0  0  0
  -28.9030  -23.0203   20.4442 C   0  0  0  0  0  0  0  0  0  0  0  0
  -29.7527  -16.3084   21.2471 C   0  0  0  0  0  0  0  0  0  0  0  0
  -30.4901  -14.2010   20.1230 C   0  0  0  0  0  0  0  0  0  0  0  0
  -23.1401  -30.1361   22.1043 C   0  0  0  0  0  0  0  0  0  0  0  0
  -21.2449  -27.6053   21.3797 C   0  0  0  0  0  0  0  0  0  0  0  0
  -21.0052  -24.3989   20.2357 C   0  0  0  0  0  0  0  0  0  0  0  0
  -25.7959  -20.9019   22.1310 C   0  0  0  0  0  0  0  0  0  0  0  0
  -22.5497  -35.1453   22.8900 C   0  0  0  0  0  0  0  0  0  0  0  0
  -23.8983  -29.5940   19.7618 C   0  0  0  0  0  0  0  0  0  0  0  0
  -23.7293  -27.1713   21.4490 C   0  0  0  0  0  0  0  0  0  0  0  0
  -21.6633  -33.9087   23.0145 C   0  0  0  0  0  0  0  0  0  0  0  0
  -28.1377  -19.3621   24.5489 C   0  0  0  0  0  0  0  0  0  0  0  0
  -22.3834  -32.8118   23.7924 C   0  0  0  0  0  0  0  0  0  0  0  0
  -28.4567  -18.0190   23.8945 C   0  0  0  0  0  0  0  0  0  0  0  0
  -26.7528  -19.8688   24.1579 C   0  0  0  0  0  0  0  0  0  0  0  0
  -26.8529  -18.6071   22.0337 C   0  0  0  0  0  0  0  0  0  0  0  0
  -23.6609  -32.3699   23.0686 C   0  0  1  0  0  0  0  0  0  0  0  0
  -22.8128  -29.4269   20.8207 C   0  0  1  0  0  0  0  0  0  0  0  0
  -28.2600  -18.0909   22.3702 C   0  0  2  0  0  0  0  0  0  0  0  0
  -29.2117  -23.1153   21.8798 C   0  0  0  0  0  0  0  0  0  0  0  0
  -19.3278  -22.5859   19.7920 C   0  0  0  0  0  0  0  0  0  0  0  0
  -21.0641  -27.0433   24.3732 C   0  0  0  0  0  0  0  0  0  0  0  0
  -20.2119  -24.7548   23.8214 C   0  0  0  0  0  0  0  0  0  0  0  0
  -18.9126  -26.7683   23.1284 C   0  0  0  0  0  0  0  0  0  0  0  0
  -25.3638  -22.3748   20.2013 C   0  0  0  0  0  0  0  0  0  0  0  0
  -21.6645  -24.3347   17.3512 C   0  0  0  0  0  0  0  0  0  0  0  0
  -27.3883  -20.9655   20.1656 C   0  0  0  0  0  0  0  0  0  0  0  0
  -30.2626  -25.0920   19.7170 C   0  0  0  0  0  0  0  0  0  0  0  0
  -29.4909  -26.4059   19.6591 C   0  0  0  0  0  0  0  0  0  1  0  0
  -21.0674  -26.2105   21.9294 C   0  0  1  0  0  0  0  0  0  0  0  0
  -20.0905  -23.7631   19.2044 C   0  0  2  0  0  0  0  0  0  0  0  0
  -20.3390  -26.2031   23.3030 C   0  0  0  0  0  0  0  0  0  0  0  0
  -27.5346  -15.9015   21.4969 N   0  0  0  0  0  0  0  0  0  0  0  0
  -28.1804  -22.4916   18.3919 N   0  0  0  0  0  0  0  0  0  0  0  0
  -28.9377  -23.5773   18.2782 N   0  0  0  0  0  0  0  0  0  0  0  0
  -29.3701  -23.8925   19.5098 N   0  0  0  0  0  0  0  0  0  0  0  0
  -28.5475  -16.7620   21.6963 N   0  0  0  0  0  0  0  0  0  0  0  0
  -22.5646  -28.0241   21.1592 N   0  0  0  0  0  0  0  0  0  0  0  0
  -26.5776  -19.8861   22.7053 N   0  0  0  0  0  0  0  0  0  0  0  0
  -30.8758  -17.0475   21.3680 N   0  0  0  0  0  0  0  0  0  0  0  0
  -30.0720  -12.9580   19.6285 N   0  0  0  0  0  0  0  0  0  0  0  0
  -23.3378  -31.4962   21.9610 N   0  0  0  0  0  0  0  0  0  0  0  0
  -20.3889  -25.4451   20.8892 N   0  0  0  0  0  0  0  0  0  0  0  0
  -26.1375  -21.3164   20.8348 N   0  0  0  0  0  0  0  0  0  0  0  0
  -20.8825  -23.2759   18.0398 N   0  3  0  0  0  0  0  0  0  0  0  0
  -31.7021  -14.5154   20.0479 O   0  0  0  0  0  0  0  0  0  0  0  0
  -23.2069  -29.4969   23.1477 O   0  0  0  0  0  0  0  0  0  0  0  0
  -20.2489  -28.2950   21.1475 O   0  0  0  0  0  0  0  0  0  0  0  0
  -22.1505  -24.0044   20.4435 O   0  0  0  0  0  0  0  0  0  0  0  0
  -24.8526  -21.4160   22.7457 O   0  0  0  0  0  0  0  0  0  0  0  0
  -25.1356  -10.3854   19.4074 O   0  0  0  0  0  0  0  0  0  0  0  0
  -28.5061  -26.4325   20.6916 O   0  0  0  0  0  0  0  0  0  1  0  0
  -21.5208   -8.3802   23.0565 F   0  0  0  0  0  0  0  0  0  0  0  0
  -23.0576  -11.9464   20.3498 F   0  0  0  0  0  0  0  0  0  0  0  0
  1  2  1  0  0  0  0
  1  5  2  0  0  0  0
  2  6  2  0  0  0  0
  3  8  2  0  0  0  0
  3 15  1  0  0  0  0
  4  9  1  0  0  0  0
  4 15  2  0  0  0  0
  5 17  1  0  0  0  0
  6 19  1  0  0  0  0
  7 10  2  0  0  0  0
  7 18  1  0  0  0  0
  8 21  1  0  0  0  0
  9 21  2  0  0  0  0
 10 22  1  0  0  0  0
 11 12  2  0  0  0  0
 11 23  1  0  0  0  0
 12 24  1  0  0  0  0
 13 20  1  0  0  0  0
 13 22  2  0  0  0  0
 14 24  2  0  0  0  0
 14 25  1  0  0  0  0
 15 26  1  0  0  0  0
 16 26  1  0  0  0  0
 16 29  2  0  0  0  0
 16 30  1  0  0  0  0
 17 19  2  0  0  0  0
 17 35  1  0  0  0  0
 18 20  2  0  0  0  0
 18 36  1  0  0  0  0
 19 44  1  0  0  0  0
 20 37  1  0  0  0  0
 21 78  1  0  0  0  0
 22 79  1  0  0  0  0
 23 25  2  0  0  0  0
 23 78  1  0  0  0  0
 24 80  1  0  0  0  0
 25 81  1  0  0  0  0
 26 60  2  0  0  0  0
 27 28  2  0  0  0  0
 27 54  1  0  0  0  0
 27 61  1  0  0  0  0
 28 47  1  0  0  0  0
 28 63  1  0  0  0  0
 29 64  1  0  0  0  0
 29 67  1  0  0  0  0
 30 68  1  0  0  0  0
 30 73  2  0  0  0  0
 31 45  1  0  0  0  0
 31 69  1  0  0  0  0
 31 74  2  0  0  0  0
 32 57  1  0  0  0  0
 32 65  1  0  0  0  0
 32 75  2  0  0  0  0
 33 58  1  0  0  0  0
 33 70  1  0  0  0  0
 33 76  2  0  0  0  0
 34 66  1  0  0  0  0
 34 71  1  0  0  0  0
 34 77  2  0  0  0  0
 35 38  1  0  0  0  0
 36 45  1  0  0  0  0
 37 65  1  0  0  0  0
 38 40  1  0  0  0  0
 39 41  1  0  0  0  0
 39 42  1  0  0  0  0
 40 44  1  0  0  0  0
 41 46  1  0  0  0  0
 42 66  1  0  0  0  0
 43 46  1  0  0  0  0
 43 66  1  0  0  0  0
 44 69  1  0  0  0  0
 45 65  1  0  0  0  0
 46 64  1  0  0  0  0
 48 58  1  0  0  0  0
 49 59  1  0  0  0  0
 50 59  1  0  0  0  0
 51 59  1  0  0  0  0
 52 71  1  0  0  0  0
 53 72  1  0  0  0  0
 54 71  1  0  0  0  0
 55 56  1  0  0  0  0
 55 63  1  0  0  0  0
 56 79  1  0  0  0  0
 57 59  1  0  0  0  0
 57 70  1  0  0  0  0
 58 72  1  0  0  0  0
 60 64  1  0  0  0  0
 61 62  2  0  0  0  0
 62 63  1  0  0  0  0
M  CHG  1  72   1
M  ISO  4  34 100  56 101  71 100  79 101
M  END
> <Batch ID>
0047

> <Smiles>
CNC(C)C(=O)NC(C(=O)N1Cc2cc([101O:1][101CH2:1]Cn3nnc(C[100N:0](C)[100C:0](=O)N4CCCC(n5nc(-c6ccc(Oc7ccc(F)cc7F)cc6)c(C(N)=O)c5N)C4)c3C)ccc2CC1C(=O)NC1CCCc2ccccc21)C(C)(C)C

> <Shape>
0.281

> <Color>
0.100

> <Negative vol penalty>
0.000

$$$$

  -OEChem-04052317243D

 85 93  0     1  0  0  0  0  0999 V2000
  -17.7504  -25.8072   22.9415 C   0  0  0  0  0  0  0  0  0  0  0  0
  -19.0198  -25.4550   22.4945 C   0  0  0  0  0  0  0  0  0  0  0  0
  -26.0356  -15.4062   19.7872 C   0  0  0  0  0  0  0  0  0  0  0  0
  -26.1021  -16.3194   17.5514 C   0  0  0  0  0  0  0  0  0  0  0  0
  -17.3394  -27.1386   22.8914 C   0  0  0  0  0  0  0  0  0  0  0  0
  -19.8788  -26.4339   21.9961 C   0  0  0  0  0  0  0  0  0  0  0  0
  -25.9738  -26.6190   22.5638 C   0  0  0  0  0  0  0  0  0  0  0  0
  -25.6507  -14.1691   19.2705 C   0  0  0  0  0  0  0  0  0  0  0  0
  -25.7172  -15.0822   17.0347 C   0  0  0  0  0  0  0  0  0  0  0  0
  -27.0076  -26.2524   21.7032 C   0  0  0  0  0  0  0  0  0  0  0  0
  -22.8225  -12.7242   18.1137 C   0  0  0  0  0  0  0  0  0  0  0  0
  -21.7798  -12.0523   18.7516 C   0  0  0  0  0  0  0  0  0  0  0  0
  -27.1896  -28.5393   20.9574 C   0  0  0  0  0  0  0  0  0  0  0  0
  -23.2557  -10.1946   19.2074 C   0  0  0  0  0  0  0  0  0  0  0  0
  -31.0104  -27.9812   16.3530 C   0  0  0  0  0  0  0  0  0  0  0  0
  -26.2612  -16.4814   18.9277 C   0  0  0  0  0  0  0  0  0  0  0  0
  -27.9707  -18.2163   19.6862 C   0  0  0  0  0  0  0  0  0  0  0  0
  -18.1973  -28.1357   22.4012 C   0  0  0  0  0  0  0  0  0  0  0  0
  -25.5321  -27.9488   22.6198 C   0  0  0  0  0  0  0  0  0  0  0  0
  -19.4785  -27.7797   21.9382 C   0  0  0  0  0  0  0  0  0  0  0  0
  -26.1518  -28.9207   21.8214 C   0  0  0  0  0  0  0  0  0  0  0  0
  -30.4154  -26.8832   17.0028 C   0  0  0  0  0  0  0  0  0  0  0  0
  -25.4916  -14.0070   17.8943 C   0  0  0  0  0  0  0  0  0  0  0  0
  -27.6137  -27.2120   20.8977 C   0  0  0  0  0  0  0  0  0  0  0  0
  -24.0819  -12.1313   18.0226 C   0  0  0  0  0  0  0  0  0  0  0  0
  -21.9964  -10.7875   19.2984 C   0  0  0  0  0  0  0  0  0  0  0  0
  -24.2984  -10.8665   18.5694 C   0  0  0  0  0  0  0  0  0  0  0  0
  -26.6583  -17.7597   19.4609 C   0  0  0  0  0  0  0  0  0  0  0  0
  -29.3322  -26.5667   16.2199 C   0  0  0  0  0  0  0  0  0  0  0  0
  -27.8113  -19.4812   20.1971 C   0  0  0  0  0  0  0  0  0  0  0  0
  -29.2221  -17.5561   19.4542 C   0  0  0  0  0  0  0  0  0  0  0  0
  -22.7849  -29.4273   22.0110 C   0  0  0  0  0  0  0  0  0  0  0  0
  -24.3567  -32.0031   23.2016 C   0  0  0  0  0  0  0  0  0  0  0  0
  -27.3373  -33.5370   23.8419 C   0  0  0  0  0  0  0  0  0  0  0  0
  -23.4409  -23.5470   19.7285 C   0  0  0  0  0  0  0  0  0  0  0  0
  -17.6914  -29.5544   22.3227 C   0  0  0  0  0  0  0  0  0  0  0  0
  -24.4338  -28.3330   23.5730 C   0  0  0  0  0  0  0  0  0  0  0  0
  -25.7282  -30.3656   21.8589 C   0  0  0  0  0  0  0  0  0  0  0  0
  -18.7994  -30.5864   22.1288 C   0  0  0  0  0  0  0  0  0  0  0  0
  -24.7409  -22.1374   22.7285 C   0  0  0  0  0  0  0  0  0  0  0  0
  -19.7634  -30.1356   21.0359 C   0  0  0  0  0  0  0  0  0  0  0  0
  -25.4981  -20.8968   22.2516 C   0  0  0  0  0  0  0  0  0  0  0  0
  -23.4734  -22.3742   21.9103 C   0  0  0  0  0  0  0  0  0  0  0  0
  -24.4375  -21.1927   19.9742 C   0  0  0  0  0  0  0  0  0  0  0  0
  -20.4480  -28.8165   21.4138 C   0  0  1  0  0  0  0  0  0  0  0  0
  -23.7183  -29.6196   23.1727 C   0  0  1  0  0  0  0  0  0  0  0  0
  -25.7524  -20.9445   20.7329 C   0  0  2  0  0  0  0  0  0  0  0  0
  -28.3011  -35.6524   24.7870 C   0  0  0  0  0  0  0  0  0  0  0  0
  -23.6159  -33.4830   20.6381 C   0  0  0  0  0  0  0  0  0  0  0  0
  -25.3586  -35.1897   21.2025 C   0  0  0  0  0  0  0  0  0  0  0  0
  -23.4129  -34.8458   22.7252 C   0  0  0  0  0  0  0  0  0  0  0  0
  -28.4018  -27.5368   14.0965 C   0  0  0  0  0  0  0  0  0  0  0  0
  -28.7545  -32.0703   25.9865 C   0  0  0  0  0  0  0  0  0  0  0  0
  -30.8700  -26.2100   18.2731 C   0  0  0  0  0  0  0  0  0  0  0  0
  -28.3057  -25.5161   16.3567 C   0  0  0  0  0  0  0  0  0  0  0  0
  -30.9329  -27.1492   19.4795 C   0  0  0  0  0  0  0  0  0  0  0  0
  -24.6383  -25.6031   17.4131 C   0  0  0  0  0  0  0  0  0  0  0  0
  -23.4940  -24.5975   17.4807 C   0  0  0  0  0  0  0  0  0  0  0  0
  -25.9294  -24.9751   16.9039 C   0  0  0  0  0  0  0  0  0  0  0  0
  -29.6095  -27.8471   19.7711 C   0  0  0  0  0  0  0  0  0  1  0  0
  -25.2275  -33.0886   22.6164 C   0  0  1  0  0  0  0  0  0  0  0  0
  -27.8692  -34.2253   25.0860 C   0  0  2  0  0  0  0  0  0  0  0  0
  -24.4106  -34.1243   21.7932 C   0  0  0  0  0  0  0  0  0  0  0  0
  -30.3593  -28.3381   15.2428 N   0  0  0  0  0  0  0  0  0  0  0  0
  -25.7332  -18.6612   19.8010 N   0  0  0  0  0  0  0  0  0  0  0  0
  -29.3440  -27.4594   15.1888 N   0  0  0  0  0  0  0  0  0  0  0  0
  -26.4654  -19.6968   20.2453 N   0  0  0  0  0  0  0  0  0  0  0  0
  -24.6459  -30.6905   22.8025 N   0  0  0  0  0  0  0  0  0  0  0  0
  -23.7838  -22.4103   20.4791 N   0  0  0  0  0  0  0  0  0  0  0  0
  -28.6924  -20.4188   20.6055 N   0  0  0  0  0  0  0  0  0  0  0  0
  -29.2049  -16.2586   18.9245 N   0  0  0  0  0  0  0  0  0  0  0  0
  -21.5052  -29.0527   22.3736 N   0  0  0  0  0  0  0  0  0  0  0  0
  -25.9686  -33.6640   23.7335 N   0  0  0  0  0  0  0  0  0  0  0  0
  -23.7763  -23.5017   18.3809 N   0  0  0  0  0  0  0  0  0  0  0  0
  -29.0424  -33.4828   25.6273 N   0  3  0  0  0  0  0  0  0  0  0  0
  -26.9771  -26.0221   16.8208 N   0  3  0  0  0  0  0  0  0  0  0  0
  -30.3225  -18.0943   19.7244 O   0  0  0  0  0  0  0  0  0  0  0  0
  -23.1950  -29.6072   20.8703 O   0  0  0  0  0  0  0  0  0  0  0  0
  -23.4578  -32.3079   23.9894 O   0  0  0  0  0  0  0  0  0  0  0  0
  -28.0639  -32.9488   23.0439 O   0  0  0  0  0  0  0  0  0  0  0  0
  -22.8823  -24.5317   20.2239 O   0  0  0  0  0  0  0  0  0  0  0  0
  -25.1163  -12.7999   17.3897 O   0  0  0  0  0  0  0  0  0  0  0  0
  -28.6225  -26.8568   20.0563 O   0  0  0  0  0  0  0  0  0  1  0  0
  -20.9954  -10.1431   19.9123 F   0  0  0  0  0  0  0  0  0  0  0  0
  -25.5064  -10.2923   18.4861 F   0  0  0  0  0  0  0  0  0  0  0  0
  1  2  1  0  0  0  0
  1  5  2  0  0  0  0
  2  6  2  0  0  0  0
  3  8  2  0  0  0  0
  3 16  1  0  0  0  0
  4  9  1  0  0  0  0
  4 16  2  0  0  0  0
  5 18  1  0  0  0  0
  6 20  1  0  0  0  0
  7 10  2  0  0  0  0
  7 19  1  0  0  0  0
  8 23  1  0  0  0  0
  9 23  2  0  0  0  0
 10 24  1  0  0  0  0
 11 12  2  0  0  0  0
 11 25  1  0  0  0  0
 12 26  1  0  0  0  0
 13 21  1  0  0  0  0
 13 24  2  0  0  0  0
 14 26  2  0  0  0  0
 14 27  1  0  0  0  0
 15 22  1  0  0  0  0
 15 64  2  0  0  0  0
 16 28  1  0  0  0  0
 17 28  1  0  0  0  0
 17 30  2  0  0  0  0
 17 31  1  0  0  0  0
 18 20  2  0  0  0  0
 18 36  1  0  0  0  0
 19 21  2  0  0  0  0
 19 37  1  0  0  0  0
 20 45  1  0  0  0  0
 21 38  1  0  0  0  0
 22 29  2  0  0  0  0
 22 54  1  0  0  0  0
 23 82  1  0  0  0  0
 24 83  1  0  0  0  0
 25 27  2  0  0  0  0
 25 82  1  0  0  0  0
 26 84  1  0  0  0  0
 27 85  1  0  0  0  0
 28 65  2  0  0  0  0
 29 55  1  0  0  0  0
 29 66  1  0  0  0  0
 30 67  1  0  0  0  0
 30 70  1  0  0  0  0
 31 71  1  0  0  0  0
 31 77  2  0  0  0  0
 32 46  1  0  0  0  0
 32 72  1  0  0  0  0
 32 78  2  0  0  0  0
 33 61  1  0  0  0  0
 33 68  1  0  0  0  0
 33 79  2  0  0  0  0
 34 62  1  0  0  0  0
 34 73  1  0  0  0  0
 34 80  2  0  0  0  0
 35 69  1  0  0  0  0
 35 74  1  0  0  0  0
 35 81  2  0  0  0  0
 36 39  1  0  0  0  0
 37 46  1  0  0  0  0
 38 68  1  0  0  0  0
 39 41  1  0  0  0  0
 40 42  1  0  0  0  0
 40 43  1  0  0  0  0
 41 45  1  0  0  0  0
 42 47  1  0  0  0  0
 43 69  1  0  0  0  0
 44 47  1  0  0  0  0
 44 69  1  0  0  0  0
 45 72  1  0  0  0  0
 46 68  1  0  0  0  0
 47 67  1  0  0  0  0
 48 62  1  0  0  0  0
 49 63  1  0  0  0  0
 50 63  1  0  0  0  0
 51 63  1  0  0  0  0
 52 66  1  0  0  0  0
 53 75  1  0  0  0  0
 54 56  1  0  0  0  0
 55 76  1  0  0  0  0
 56 60  1  0  0  0  0
 57 58  1  0  0  0  0
 57 59  1  0  0  0  0
 58 74  1  0  0  0  0
 59 76  1  0  0  0  0
 60 83  1  0  0  0  0
 61 63  1  0  0  0  0
 61 73  1  0  0  0  0
 62 75  1  0  0  0  0
 64 66  1  0  0  0  0
 65 67  1  0  0  0  0
M  CHG  2  75   1  76   1
M  ISO  4  35 100  60 101  74 100  83 101
M  END
> <Batch ID>
0047

> <Smiles>
CNC(C)C(=O)NC(C(=O)N1Cc2cc([101O:1][101CH2:1]CCc3cnn(C)c3CNCCC[100NH:0][100C:0](=O)N3CCCC(n4nc(-c5ccc(Oc6ccc(F)cc6F)cc5)c(C(N)=O)c4N)C3)ccc2CC1C(=O)NC1CCCc2ccccc21)C(C)(C)C

> <Shape>
0.221

> <Color>
0.097

> <Negative vol penalty>
0.000

$$$$

  -OEChem-04052317243D

 84 92  0     1  0  0  0  0  0999 V2000
  -17.2748  -30.0392   23.6336 C   0  0  0  0  0  0  0  0  0  0  0  0
  -18.2035  -29.8973   24.6584 C   0  0  0  0  0  0  0  0  0  0  0  0
  -23.9210  -13.9457   21.8144 C   0  0  0  0  0  0  0  0  0  0  0  0
  -26.2036  -13.9689   21.0228 C   0  0  0  0  0  0  0  0  0  0  0  0
  -17.3434  -29.2097   22.5162 C   0  0  0  0  0  0  0  0  0  0  0  0
  -19.2082  -28.9340   24.5609 C   0  0  0  0  0  0  0  0  0  0  0  0
  -25.5519  -24.6735   26.7581 C   0  0  0  0  0  0  0  0  0  0  0  0
  -23.6993  -12.7451   21.1399 C   0  0  0  0  0  0  0  0  0  0  0  0
  -25.9819  -12.7682   20.3484 C   0  0  0  0  0  0  0  0  0  0  0  0
  -26.2319  -23.4818   26.5104 C   0  0  0  0  0  0  0  0  0  0  0  0
  -22.6368   -9.4887   19.9225 C   0  0  0  0  0  0  0  0  0  0  0  0
  -21.9578   -8.4782   20.6033 C   0  0  0  0  0  0  0  0  0  0  0  0
  -26.3978  -24.0687   24.1765 C   0  0  0  0  0  0  0  0  0  0  0  0
  -23.6873   -8.4523   22.2901 C   0  0  0  0  0  0  0  0  0  0  0  0
  -31.8290  -23.1635   24.3598 C   0  0  0  0  0  0  0  0  0  0  0  0
  -25.1732  -14.5577   21.7558 C   0  0  0  0  0  0  0  0  0  0  0  0
  -25.8596  -15.9594   23.7736 C   0  0  0  0  0  0  0  0  0  0  0  0
  -18.3422  -28.2276   22.4115 C   0  0  0  0  0  0  0  0  0  0  0  0
  -25.2797  -25.5681   25.7132 C   0  0  0  0  0  0  0  0  0  0  0  0
  -19.3086  -28.1032   23.4303 C   0  0  0  0  0  0  0  0  0  0  0  0
  -25.7164  -25.2722   24.4140 C   0  0  0  0  0  0  0  0  0  0  0  0
  -24.7297  -12.1563   20.4069 C   0  0  0  0  0  0  0  0  0  0  0  0
  -26.6524  -23.1779   25.2189 C   0  0  0  0  0  0  0  0  0  0  0  0
  -23.8412   -9.9809   20.4255 C   0  0  0  0  0  0  0  0  0  0  0  0
  -22.4829   -7.9601   21.7870 C   0  0  0  0  0  0  0  0  0  0  0  0
  -24.3664   -9.4627   21.6092 C   0  0  0  0  0  0  0  0  0  0  0  0
  -25.4026  -15.7982   22.4519 C   0  0  0  0  0  0  0  0  0  0  0  0
  -32.5746  -22.2121   22.6079 C   0  0  0  0  0  0  0  0  0  0  0  0
  -31.2050  -22.1683   22.4953 C   0  0  0  0  0  0  0  0  0  0  0  0
  -25.9099  -17.3198   23.9560 C   0  0  0  0  0  0  0  0  0  0  0  0
  -26.2076  -14.9681   24.7493 C   0  0  0  0  0  0  0  0  0  0  0  0
  -22.6350  -26.7327   24.3890 C   0  0  0  0  0  0  0  0  0  0  0  0
  -24.7378  -28.5656   22.7334 C   0  0  0  0  0  0  0  0  0  0  0  0
  -27.9283  -28.1025   21.1135 C   0  0  0  0  0  0  0  0  0  0  0  0
  -26.5092  -21.9215   20.1723 C   0  0  0  0  0  0  0  0  0  0  0  0
  -18.3746  -27.3621   21.1766 C   0  0  0  0  0  0  0  0  0  0  0  0
  -24.5686  -26.8618   26.0016 C   0  0  0  0  0  0  0  0  0  0  0  0
  -25.4669  -26.2086   23.2610 C   0  0  0  0  0  0  0  0  0  0  0  0
  -19.1924  -26.0885   21.3647 C   0  0  0  0  0  0  0  0  0  0  0  0
  -23.8484  -21.3751   22.4741 C   0  0  0  0  0  0  0  0  0  0  0  0
  -20.5494  -26.4258   21.9642 C   0  0  0  0  0  0  0  0  0  0  0  0
  -23.9862  -19.8984   22.8487 C   0  0  0  0  0  0  0  0  0  0  0  0
  -24.1966  -21.6203   21.0076 C   0  0  0  0  0  0  0  0  0  0  0  0
  -25.6540  -19.6333   20.9653 C   0  0  0  0  0  0  0  0  0  0  0  0
  -20.3917  -27.0420   23.3601 C   0  0  1  0  0  0  0  0  0  0  0  0
  -23.8932  -27.4596   24.7713 C   0  0  1  0  0  0  0  0  0  0  0  0
  -25.3673  -19.3451   22.4489 C   0  0  2  0  0  0  0  0  0  0  0  0
  -33.5871  -21.6972   21.6725 C   0  0  0  0  0  0  0  0  0  0  0  0
  -29.7787  -29.7351   20.6574 C   0  0  0  0  0  0  0  0  0  0  0  0
  -23.3803  -28.9029   20.0217 C   0  0  0  0  0  0  0  0  0  0  0  0
  -25.6524  -29.0496   18.9805 C   0  0  0  0  0  0  0  0  0  0  0  0
  -24.9340  -30.7596   20.6486 C   0  0  0  0  0  0  0  0  0  0  0  0
  -29.1159  -22.4541   26.5063 C   0  0  0  0  0  0  0  0  0  0  0  0
  -29.2485  -20.6258   24.7975 C   0  0  0  0  0  0  0  0  0  0  0  0
  -29.9213  -26.4081   22.4977 C   0  0  0  0  0  0  0  0  0  0  0  0
  -30.3214  -21.6192   21.4513 C   0  0  0  0  0  0  0  0  0  0  0  0
  -29.7340  -22.6658   20.4723 C   0  0  0  0  0  0  0  0  0  0  0  0
  -29.2963  -23.0068   24.0080 C   0  0  0  0  0  0  0  0  0  0  0  0
  -28.8551  -22.0677   19.3759 C   0  0  0  0  0  0  0  0  0  0  0  0
  -25.4886  -28.4205   21.4317 C   0  0  1  0  0  0  0  0  0  0  0  0
  -29.2702  -28.6378   21.5795 C   0  0  2  0  0  0  0  0  0  0  0  0
  -24.8565  -29.2605   20.2862 C   0  0  0  0  0  0  0  0  0  0  0  0
  -28.7385  -22.0445   25.0802 C   0  0  0  0  0  0  0  0  0  1  0  0
  -32.9566  -22.8327   23.7709 N   0  0  0  0  0  0  0  0  0  0  0  0
  -25.1784  -16.9631   21.8381 N   0  0  0  0  0  0  0  0  0  0  0  0
  -30.7412  -22.7811   23.6251 N   0  0  0  0  0  0  0  0  0  0  0  0
  -25.4958  -17.8693   22.7784 N   0  0  0  0  0  0  0  0  0  0  0  0
  -24.7622  -27.4579   23.5927 N   0  0  0  0  0  0  0  0  0  0  0  0
  -25.5188  -21.0730   20.6940 N   0  0  0  0  0  0  0  0  0  0  0  0
  -26.2674  -18.0877   25.0072 N   0  0  0  0  0  0  0  0  0  0  0  0
  -26.0982  -13.6161   24.3965 N   0  0  0  0  0  0  0  0  0  0  0  0
  -21.6755  -27.5376   23.8051 N   0  0  0  0  0  0  0  0  0  0  0  0
  -26.8782  -28.7566   21.7224 N   0  0  0  0  0  0  0  0  0  0  0  0
  -27.7356  -21.3239   19.9089 N   0  0  0  0  0  0  0  0  0  0  0  0
  -30.2818  -27.5439   21.6106 N   0  3  0  0  0  0  0  0  0  0  0  0
  -26.5881  -15.2721   25.9053 O   0  0  0  0  0  0  0  0  0  0  0  0
  -22.5423  -25.5302   24.6062 O   0  0  0  0  0  0  0  0  0  0  0  0
  -24.1573  -29.6252   22.9818 O   0  0  0  0  0  0  0  0  0  0  0  0
  -27.8222  -27.1973   20.2890 O   0  0  0  0  0  0  0  0  0  0  0  0
  -26.3165  -23.1239   19.9621 O   0  0  0  0  0  0  0  0  0  0  0  0
  -24.5138  -10.9846   19.7489 O   0  0  0  0  0  0  0  0  0  0  0  0
  -27.3158  -22.0152   24.9743 O   0  0  0  0  0  0  0  0  0  1  0  0
  -21.8299   -6.9908   22.4415 F   0  0  0  0  0  0  0  0  0  0  0  0
  -25.5224   -9.9324   22.0980 F   0  0  0  0  0  0  0  0  0  0  0  0
  1  2  1  0  0  0  0
  1  5  2  0  0  0  0
  2  6  2  0  0  0  0
  3  8  2  0  0  0  0
  3 16  1  0  0  0  0
  4  9  1  0  0  0  0
  4 16  2  0  0  0  0
  5 18  1  0  0  0  0
  6 20  1  0  0  0  0
  7 10  2  0  0  0  0
  7 19  1  0  0  0  0
  8 22  1  0  0  0  0
  9 22  2  0  0  0  0
 10 23  1  0  0  0  0
 11 12  2  0  0  0  0
 11 24  1  0  0  0  0
 12 25  1  0  0  0  0
 13 21  1  0  0  0  0
 13 23  2  0  0  0  0
 14 25  2  0  0  0  0
 14 26  1  0  0  0  0
 15 64  2  0  0  0  0
 15 66  1  0  0  0  0
 16 27  1  0  0  0  0
 17 27  1  0  0  0  0
 17 30  2  0  0  0  0
 17 31  1  0  0  0  0
 18 20  2  0  0  0  0
 18 36  1  0  0  0  0
 19 21  2  0  0  0  0
 19 37  1  0  0  0  0
 20 45  1  0  0  0  0
 21 38  1  0  0  0  0
 22 81  1  0  0  0  0
 23 82  1  0  0  0  0
 24 26  2  0  0  0  0
 24 81  1  0  0  0  0
 25 83  1  0  0  0  0
 26 84  1  0  0  0  0
 27 65  2  0  0  0  0
 28 29  2  0  0  0  0
 28 48  1  0  0  0  0
 28 64  1  0  0  0  0
 29 56  1  0  0  0  0
 29 66  1  0  0  0  0
 30 67  1  0  0  0  0
 30 70  1  0  0  0  0
 31 71  1  0  0  0  0
 31 76  2  0  0  0  0
 32 46  1  0  0  0  0
 32 72  1  0  0  0  0
 32 77  2  0  0  0  0
 33 60  1  0  0  0  0
 33 68  1  0  0  0  0
 33 78  2  0  0  0  0
 34 61  1  0  0  0  0
 34 73  1  0  0  0  0
 34 79  2  0  0  0  0
 35 69  1  0  0  0  0
 35 74  1  0  0  0  0
 35 80  2  0  0  0  0
 36 39  1  0  0  0  0
 37 46  1  0  0  0  0
 38 68  1  0  0  0  0
 39 41  1  0  0  0  0
 40 42  1  0  0  0  0
 40 43  1  0  0  0  0
 41 45  1  0  0  0  0
 42 47  1  0  0  0  0
 43 69  1  0  0  0  0
 44 47  1  0  0  0  0
 44 69  1  0  0  0  0
 45 72  1  0  0  0  0
 46 68  1  0  0  0  0
 47 67  1  0  0  0  0
 49 61  1  0  0  0  0
 50 62  1  0  0  0  0
 51 62  1  0  0  0  0
 52 62  1  0  0  0  0
 53 63  1  0  0  0  0
 54 63  1  0  0  0  0
 55 75  1  0  0  0  0
 56 57  1  0  0  0  0
 57 59  1  0  0  0  0
 58 63  1  0  0  0  0
 58 66  1  0  0  0  0
 59 74  1  0  0  0  0
 60 62  1  0  0  0  0
 60 73  1  0  0  0  0
 61 75  1  0  0  0  0
 63 82  1  0  0  0  0
 65 67  1  0  0  0  0
M  CHG  1  75   1
M  ISO  4  35 100  63 101  74 100  82 101
M  END
> <Batch ID>
0047

> <Smiles>
CNC(C)C(=O)NC(C(=O)N1Cc2cc([101O:1][101C:1](C)(C)Cn3cnc(C)c3CCC[100NH:0][100C:0](=O)N3CCCC(n4nc(-c5ccc(Oc6ccc(F)cc6F)cc5)c(C(N)=O)c4N)C3)ccc2CC1C(=O)NC1CCCc2ccccc21)C(C)(C)C

> <Shape>
0.211

> <Color>
0.071

> <Negative vol penalty>
0.000

$$$$

  -OEChem-04052317243D

 81 89  0     1  0  0  0  0  0999 V2000
  -29.7280  -13.4100   20.9563 C   0  0  0  0  0  0  0  0  0  0  0  0
  -29.7414  -14.6842   20.3981 C   0  0  0  0  0  0  0  0  0  0  0  0
  -22.8896  -28.7425   20.7082 C   0  0  0  0  0  0  0  0  0  0  0  0
  -23.9422  -29.9338   22.5275 C   0  0  0  0  0  0  0  0  0  0  0  0
  -28.5316  -12.6986   21.0381 C   0  0  0  0  0  0  0  0  0  0  0  0
  -28.5586  -15.2474   19.9204 C   0  0  0  0  0  0  0  0  0  0  0  0
  -27.9959  -20.0767   21.3368 C   0  0  0  0  0  0  0  0  0  0  0  0
  -21.6382  -29.1684   21.1533 C   0  0  0  0  0  0  0  0  0  0  0  0
  -22.6908  -30.3598   22.9726 C   0  0  0  0  0  0  0  0  0  0  0  0
  -28.7268  -21.0351   20.6360 C   0  0  0  0  0  0  0  0  0  0  0  0
  -19.4357  -28.3235   23.5739 C   0  0  0  0  0  0  0  0  0  0  0  0
  -18.4111  -27.3785   23.6263 C   0  0  0  0  0  0  0  0  0  0  0  0
  -26.7656  -21.5734   19.3387 C   0  0  0  0  0  0  0  0  0  0  0  0
  -17.1140  -28.6989   22.0735 C   0  0  0  0  0  0  0  0  0  0  0  0
  -31.5394  -26.1257   18.3039 C   0  0  0  0  0  0  0  0  0  0  0  0
  -24.0417  -29.1251   21.3953 C   0  0  0  0  0  0  0  0  0  0  0  0
  -25.7824  -27.3570   20.8026 C   0  0  0  0  0  0  0  0  0  0  0  0
  -27.3319  -13.2573   20.5700 C   0  0  0  0  0  0  0  0  0  0  0  0
  -26.6449  -19.8515   21.0358 C   0  0  0  0  0  0  0  0  0  0  0  0
  -27.3453  -14.5423   19.9948 C   0  0  0  0  0  0  0  0  0  0  0  0
  -26.0191  -20.6134   20.0388 C   0  0  0  0  0  0  0  0  0  0  0  0
  -21.5388  -29.9771   22.2854 C   0  0  0  0  0  0  0  0  0  0  0  0
  -28.1124  -21.7816   19.6348 C   0  0  0  0  0  0  0  0  0  0  0  0
  -19.2994  -29.4563   22.7714 C   0  0  0  0  0  0  0  0  0  0  0  0
  -17.2503  -27.5662   22.8761 C   0  0  0  0  0  0  0  0  0  0  0  0
  -18.1386  -29.6439   22.0212 C   0  0  0  0  0  0  0  0  0  0  0  0
  -25.3346  -28.6849   20.9364 C   0  0  0  0  0  0  0  0  0  0  0  0
  -31.8579  -25.9168   16.9801 C   0  0  0  0  0  0  0  0  0  0  0  0
  -31.1114  -23.7611   17.1408 C   0  0  0  0  0  0  0  0  0  0  0  0
  -30.7937  -23.9699   18.4648 C   0  0  0  0  0  0  0  0  0  0  0  0
  -27.0682  -27.4737   20.3342 C   0  0  0  0  0  0  0  0  0  0  0  0
  -25.0972  -26.1278   21.0771 C   0  0  0  0  0  0  0  0  0  0  0  0
  -24.9673  -17.3703   19.9713 C   0  0  0  0  0  0  0  0  0  0  0  0
  -22.4464  -19.3361   20.5214 C   0  0  0  0  0  0  0  0  0  0  0  0
  -21.2784  -22.5252   20.8564 C   0  0  0  0  0  0  0  0  0  0  0  0
  -30.8061  -29.8006   16.9049 C   0  0  0  0  0  0  0  0  0  0  0  0
  -26.0718  -12.4312   20.6367 C   0  0  0  0  0  0  0  0  0  0  0  0
  -25.8633  -18.8327   21.8191 C   0  0  0  0  0  0  0  0  0  0  0  0
  -24.5658  -20.4243   19.6912 C   0  0  0  0  0  0  0  0  0  0  0  0
  -24.7966  -13.2491   20.4491 C   0  0  0  0  0  0  0  0  0  0  0  0
  -30.0704  -31.5249   19.9319 C   0  0  0  0  0  0  0  0  0  0  0  0
  -24.9395  -14.1958   19.2616 C   0  0  0  0  0  0  0  0  0  0  0  0
  -28.8068  -30.8345   20.4482 C   0  0  0  0  0  0  0  0  0  0  0  0
  -30.0744  -31.6284   18.4083 C   0  0  0  0  0  0  0  0  0  0  0  0
  -28.6023  -29.6611   18.2166 C   0  0  0  0  0  0  0  0  0  0  0  0
  -26.0786  -15.1971   19.4883 C   0  0  1  0  0  0  0  0  0  0  0  0
  -24.6288  -18.3281   21.0784 C   0  0  1  0  0  0  0  0  0  0  0  0
  -28.5786  -29.4833   19.7444 C   0  0  2  0  0  0  0  0  0  0  0  0
  -30.8753  -22.4444   16.4833 C   0  0  0  0  0  0  0  0  0  0  0  0
  -19.1658  -23.8167   21.2649 C   0  0  0  0  0  0  0  0  0  0  0  0
  -21.5807  -18.8265   17.6403 C   0  0  0  0  0  0  0  0  0  0  0  0
  -20.0763  -20.8203   17.8131 C   0  0  0  0  0  0  0  0  0  0  0  0
  -19.7119  -18.8523   19.3021 C   0  0  0  0  0  0  0  0  0  0  0  0
  -22.3437  -23.7028   23.3539 C   0  0  0  0  0  0  0  0  0  0  0  0
  -32.4516  -27.0112   16.1642 C   0  0  0  0  0  0  0  0  0  0  0  0
  -30.1952  -22.8818   19.3069 C   0  0  0  0  0  0  0  0  0  1  0  0
  -31.4102  -27.8830   15.4499 C   0  0  0  0  0  0  0  0  0  0  0  0
  -21.6961  -20.3650   19.7105 C   0  0  1  0  0  0  0  0  0  0  0  0
  -20.3835  -23.1655   21.9022 C   0  0  2  0  0  0  0  0  0  0  0  0
  -20.7941  -19.7185   18.6215 C   0  0  0  0  0  0  0  0  0  0  0  0
  -31.0017  -25.1560   19.0701 N   0  0  0  0  0  0  0  0  0  0  0  0
  -26.2608  -29.5796   20.5818 N   0  0  0  0  0  0  0  0  0  0  0  0
  -31.6495  -24.7307   16.3748 N   0  0  0  0  0  0  0  0  0  0  0  0
  -27.3034  -28.8124   20.2206 N   0  0  0  0  0  0  0  0  0  0  0  0
  -23.8458  -19.4117   20.4810 N   0  0  0  0  0  0  0  0  0  0  0  0
  -29.8547  -30.3129   17.8023 N   0  0  0  0  0  0  0  0  0  0  0  0
  -28.0093  -26.5609   20.0125 N   0  0  0  0  0  0  0  0  0  0  0  0
  -24.3583  -25.5302   20.0468 N   0  0  0  0  0  0  0  0  0  0  0  0
  -25.6560  -16.2477   20.3895 N   0  0  0  0  0  0  0  0  0  0  0  0
  -20.9739  -21.1934   20.6699 N   0  0  0  0  0  0  0  0  0  0  0  0
  -30.5239  -28.5449   16.3812 N   0  0  0  0  0  0  0  0  0  0  0  0
  -21.1334  -24.2090   22.6570 N   0  3  0  0  0  0  0  0  0  0  0  0
  -25.1255  -25.5842   22.2072 O   0  0  0  0  0  0  0  0  0  0  0  0
  -24.6275  -17.6299   18.8229 O   0  0  0  0  0  0  0  0  0  0  0  0
  -21.8140  -18.5008   21.1725 O   0  0  0  0  0  0  0  0  0  0  0  0
  -22.1570  -23.1455   20.2616 O   0  0  0  0  0  0  0  0  0  0  0  0
  -31.8337  -30.4142   16.5976 O   0  0  0  0  0  0  0  0  0  0  0  0
  -20.3179  -30.3932   22.7199 O   0  0  0  0  0  0  0  0  0  0  0  0
  -28.8237  -22.7172   18.9488 O   0  0  0  0  0  0  0  0  0  1  0  0
  -16.2671  -26.6578   22.9253 F   0  0  0  0  0  0  0  0  0  0  0  0
  -18.0024  -30.7296   21.2475 F   0  0  0  0  0  0  0  0  0  0  0  0
  1  2  1  0  0  0  0
  1  5  2  0  0  0  0
  2  6  2  0  0  0  0
  3  8  2  0  0  0  0
  3 16  1  0  0  0  0
  4  9  1  0  0  0  0
  4 16  2  0  0  0  0
  5 18  1  0  0  0  0
  6 20  1  0  0  0  0
  7 10  2  0  0  0  0
  7 19  1  0  0  0  0
  8 22  1  0  0  0  0
  9 22  2  0  0  0  0
 10 23  1  0  0  0  0
 11 12  2  0  0  0  0
 11 24  1  0  0  0  0
 12 25  1  0  0  0  0
 13 21  1  0  0  0  0
 13 23  2  0  0  0  0
 14 25  2  0  0  0  0
 14 26  1  0  0  0  0
 15 28  1  0  0  0  0
 15 61  2  0  0  0  0
 16 27  1  0  0  0  0
 17 27  1  0  0  0  0
 17 31  2  0  0  0  0
 17 32  1  0  0  0  0
 18 20  2  0  0  0  0
 18 37  1  0  0  0  0
 19 21  2  0  0  0  0
 19 38  1  0  0  0  0
 20 46  1  0  0  0  0
 21 39  1  0  0  0  0
 22 78  1  0  0  0  0
 23 79  1  0  0  0  0
 24 26  2  0  0  0  0
 24 78  1  0  0  0  0
 25 80  1  0  0  0  0
 26 81  1  0  0  0  0
 27 62  2  0  0  0  0
 28 55  1  0  0  0  0
 28 63  2  0  0  0  0
 29 30  2  0  0  0  0
 29 49  1  0  0  0  0
 29 63  1  0  0  0  0
 30 56  1  0  0  0  0
 30 61  1  0  0  0  0
 31 64  1  0  0  0  0
 31 67  1  0  0  0  0
 32 68  1  0  0  0  0
 32 73  2  0  0  0  0
 33 47  1  0  0  0  0
 33 69  1  0  0  0  0
 33 74  2  0  0  0  0
 34 58  1  0  0  0  0
 34 65  1  0  0  0  0
 34 75  2  0  0  0  0
 35 59  1  0  0  0  0
 35 70  1  0  0  0  0
 35 76  2  0  0  0  0
 36 66  1  0  0  0  0
 36 71  1  0  0  0  0
 36 77  2  0  0  0  0
 37 40  1  0  0  0  0
 38 47  1  0  0  0  0
 39 65  1  0  0  0  0
 40 42  1  0  0  0  0
 41 43  1  0  0  0  0
 41 44  1  0  0  0  0
 42 46  1  0  0  0  0
 43 48  1  0  0  0  0
 44 66  1  0  0  0  0
 45 48  1  0  0  0  0
 45 66  1  0  0  0  0
 46 69  1  0  0  0  0
 47 65  1  0  0  0  0
 48 64  1  0  0  0  0
 50 59  1  0  0  0  0
 51 60  1  0  0  0  0
 52 60  1  0  0  0  0
 53 60  1  0  0  0  0
 54 72  1  0  0  0  0
 55 57  1  0  0  0  0
 56 79  1  0  0  0  0
 57 71  1  0  0  0  0
 58 60  1  0  0  0  0
 58 70  1  0  0  0  0
 59 72  1  0  0  0  0
 62 64  1  0  0  0  0
M  CHG  1  72   1
M  ISO  4  36 100  56 101  71 100  79 101
M  END
> <Batch ID>
0047

> <Smiles>
CNC(C)C(=O)NC(C(=O)N1Cc2cc([101O:1][101CH2:1]c3ncc(CC[100NH:0][100C:0](=O)N4CCCC(n5nc(-c6ccc(Oc7ccc(F)cc7F)cc6)c(C(N)=O)c5N)C4)nc3C)ccc2CC1C(=O)NC1CCCc2ccccc21)C(C)(C)C

> <Shape>
0.208

> <Color>
0.080

> <Negative vol penalty>
0.000

$$$$

  -OEChem-04052317243D

 82 90  0     1  0  0  0  0  0999 V2000
  -38.7776  -26.0326   16.6978 C   0  0  0  0  0  0  0  0  0  0  0  0
  -37.9556  -25.2613   17.5132 C   0  0  0  0  0  0  0  0  0  0  0  0
  -23.0536   -9.8647   19.9681 C   0  0  0  0  0  0  0  0  0  0  0  0
  -23.8610   -9.8849   22.2451 C   0  0  0  0  0  0  0  0  0  0  0  0
  -38.5198  -27.3934   16.5377 C   0  0  0  0  0  0  0  0  0  0  0  0
  -36.8759  -25.8507   18.1699 C   0  0  0  0  0  0  0  0  0  0  0  0
  -32.6559  -23.0693   17.8529 C   0  0  0  0  0  0  0  0  0  0  0  0
  -22.3204   -8.7094   20.2384 C   0  0  0  0  0  0  0  0  0  0  0  0
  -23.1277   -8.7296   22.5154 C   0  0  0  0  0  0  0  0  0  0  0  0
  -32.5568  -21.9642   18.6971 C   0  0  0  0  0  0  0  0  0  0  0  0
  -19.9164   -7.9201   23.1883 C   0  0  0  0  0  0  0  0  0  0  0  0
  -19.1842   -7.8819   24.3749 C   0  0  0  0  0  0  0  0  0  0  0  0
  -31.1609  -23.2406   20.1943 C   0  0  0  0  0  0  0  0  0  0  0  0
  -20.4494   -5.9531   25.0935 C   0  0  0  0  0  0  0  0  0  0  0  0
  -32.7961  -18.7653   22.5345 C   0  0  0  0  0  0  0  0  0  0  0  0
  -23.8240  -10.4525   20.9715 C   0  0  0  0  0  0  0  0  0  0  0  0
  -24.1519  -12.9786   20.8337 C   0  0  0  0  0  0  0  0  0  0  0  0
  -37.4306  -27.9978   17.1851 C   0  0  0  0  0  0  0  0  0  0  0  0
  -32.0161  -24.2738   18.1791 C   0  0  0  0  0  0  0  0  0  0  0  0
  -36.6040  -27.2212   18.0194 C   0  0  0  0  0  0  0  0  0  0  0  0
  -31.2514  -24.3588   19.3513 C   0  0  0  0  0  0  0  0  0  0  0  0
  -22.3573   -8.1418   21.5120 C   0  0  0  0  0  0  0  0  0  0  0  0
  -31.8116  -22.0506   19.8694 C   0  0  0  0  0  0  0  0  0  0  0  0
  -20.9151   -6.9748   22.9543 C   0  0  0  0  0  0  0  0  0  0  0  0
  -19.4506   -6.8984   25.3275 C   0  0  0  0  0  0  0  0  0  0  0  0
  -21.1816   -5.9913   23.9069 C   0  0  0  0  0  0  0  0  0  0  0  0
  -24.5822  -11.6456   20.6928 C   0  0  0  0  0  0  0  0  0  0  0  0
  -32.5046  -17.7393   23.4101 C   0  0  0  0  0  0  0  0  0  0  0  0
  -32.1485  -18.7132   21.3170 C   0  0  0  0  0  0  0  0  0  0  0  0
  -25.2328  -13.7313   20.4446 C   0  0  0  0  0  0  0  0  0  0  0  0
  -31.0807  -16.7962   21.9101 C   0  0  0  0  0  0  0  0  0  0  0  0
  -22.8881  -13.4906   21.2768 C   0  0  0  0  0  0  0  0  0  0  0  0
  -32.9899  -27.2377   18.7879 C   0  0  0  0  0  0  0  0  0  0  0  0
  -30.7378  -14.7095   20.6113 C   0  0  0  0  0  0  0  0  0  0  0  0
  -29.8066  -27.8603   18.8217 C   0  0  0  0  0  0  0  0  0  0  0  0
  -26.6296  -26.6881   19.2453 C   0  0  0  0  0  0  0  0  0  0  0  0
  -37.2198  -29.4819   17.0191 C   0  0  0  0  0  0  0  0  0  0  0  0
  -32.1108  -25.4486   17.2445 C   0  0  0  0  0  0  0  0  0  0  0  0
  -30.5286  -25.6227   19.7368 C   0  0  0  0  0  0  0  0  0  0  0  0
  -35.8340  -29.9526   17.4528 C   0  0  0  0  0  0  0  0  0  0  0  0
  -29.5318  -12.3971   18.1540 C   0  0  0  0  0  0  0  0  0  0  0  0
  -35.4641  -29.3496   18.8043 C   0  0  0  0  0  0  0  0  0  0  0  0
  -28.1123  -12.0819   18.6239 C   0  0  0  0  0  0  0  0  0  0  0  0
  -30.4761  -12.6090   19.3332 C   0  0  0  0  0  0  0  0  0  0  0  0
  -28.5990  -13.3413   20.7691 C   0  0  0  0  0  0  0  0  0  0  0  0
  -35.4085  -27.8190   18.7288 C   0  0  1  0  0  0  0  0  0  0  0  0
  -31.8411  -26.7830   17.9329 C   0  0  1  0  0  0  0  0  0  0  0  0
  -27.6060  -13.1504   19.6090 C   0  0  2  0  0  0  0  0  0  0  0  0
  -24.2360  -27.4417   19.2489 C   0  0  0  0  0  0  0  0  0  0  0  0
  -30.9772  -17.8613   26.0671 C   0  0  0  0  0  0  0  0  0  0  0  0
  -33.1493  -18.4175   27.1790 C   0  0  0  0  0  0  0  0  0  0  0  0
  -30.2081  -29.1144   21.5741 C   0  0  0  0  0  0  0  0  0  0  0  0
  -27.7324  -28.9769   21.9210 C   0  0  0  0  0  0  0  0  0  0  0  0
  -28.6552  -30.3727   20.0709 C   0  0  0  0  0  0  0  0  0  0  0  0
  -25.9392  -24.8910   16.9975 C   0  0  0  0  0  0  0  0  0  0  0  0
  -33.1562  -17.7106   24.7520 C   0  0  0  0  0  0  0  0  0  0  0  0
  -32.4002  -19.7869   20.2995 C   0  0  0  0  0  0  0  0  0  1  0  0
  -30.1251  -15.7049   21.5641 C   0  0  0  0  0  0  0  0  0  0  0  0
  -28.7269  -27.8529   19.8768 C   0  0  1  0  0  0  0  0  0  0  0  0
  -25.3709  -26.8670   18.4157 C   0  0  2  0  0  0  0  0  0  0  0  0
  -32.3727  -18.4555   25.8604 C   0  0  0  0  0  0  0  0  0  0  0  0
  -28.8457  -29.0559   20.8547 C   0  0  0  0  0  0  0  0  0  0  0  0
  -25.8385  -11.5536   20.2487 N   0  0  0  0  0  0  0  0  0  0  0  0
  -31.6487  -16.7349   23.1296 N   0  0  0  0  0  0  0  0  0  0  0  0
  -31.2814  -17.7395   20.9702 N   0  0  0  0  0  0  0  0  0  0  0  0
  -26.2069  -12.8383   20.1071 N   0  0  0  0  0  0  0  0  0  0  0  0
  -30.6569  -26.7458   18.7935 N   0  0  0  0  0  0  0  0  0  0  0  0
  -29.9490  -13.6149   20.2571 N   0  0  0  0  0  0  0  0  0  0  0  0
  -25.4357  -15.0634   20.3616 N   0  0  0  0  0  0  0  0  0  0  0  0
  -21.8875  -12.5784   21.6389 N   0  0  0  0  0  0  0  0  0  0  0  0
  -34.1785  -27.3884   18.0994 N   0  0  0  0  0  0  0  0  0  0  0  0
  -27.4573  -27.7877   19.1612 N   0  0  0  0  0  0  0  0  0  0  0  0
  -24.9281  -25.5580   17.8576 N   0  3  0  0  0  0  0  0  0  0  0  0
  -22.6475  -14.7204   21.3339 O   0  0  0  0  0  0  0  0  0  0  0  0
  -32.8109  -27.4385   19.9835 O   0  0  0  0  0  0  0  0  0  0  0  0
  -31.8824  -14.9025   20.1931 O   0  0  0  0  0  0  0  0  0  0  0  0
  -29.8879  -28.8162   18.0463 O   0  0  0  0  0  0  0  0  0  0  0  0
  -26.8542  -25.6759   19.9052 O   0  0  0  0  0  0  0  0  0  0  0  0
  -21.6417   -7.0146   21.7761 O   0  0  0  0  0  0  0  0  0  0  0  0
  -31.7138  -20.9736   20.6955 O   0  0  0  0  0  0  0  0  0  1  0  0
  -18.7484   -6.8628   26.4676 F   0  0  0  0  0  0  0  0  0  0  0  0
  -22.1406   -5.0813   23.6882 F   0  0  0  0  0  0  0  0  0  0  0  0
  1  2  1  0  0  0  0
  1  5  2  0  0  0  0
  2  6  2  0  0  0  0
  3  8  2  0  0  0  0
  3 16  1  0  0  0  0
  4  9  1  0  0  0  0
  4 16  2  0  0  0  0
  5 18  1  0  0  0  0
  6 20  1  0  0  0  0
  7 10  2  0  0  0  0
  7 19  1  0  0  0  0
  8 22  1  0  0  0  0
  9 22  2  0  0  0  0
 10 23  1  0  0  0  0
 11 12  2  0  0  0  0
 11 24  1  0  0  0  0
 12 25  1  0  0  0  0
 13 21  1  0  0  0  0
 13 23  2  0  0  0  0
 14 25  2  0  0  0  0
 14 26  1  0  0  0  0
 15 28  2  0  0  0  0
 15 29  1  0  0  0  0
 16 27  1  0  0  0  0
 17 27  1  0  0  0  0
 17 30  2  0  0  0  0
 17 32  1  0  0  0  0
 18 20  2  0  0  0  0
 18 37  1  0  0  0  0
 19 21  2  0  0  0  0
 19 38  1  0  0  0  0
 20 46  1  0  0  0  0
 21 39  1  0  0  0  0
 22 79  1  0  0  0  0
 23 80  1  0  0  0  0
 24 26  2  0  0  0  0
 24 79  1  0  0  0  0
 25 81  1  0  0  0  0
 26 82  1  0  0  0  0
 27 63  2  0  0  0  0
 28 56  1  0  0  0  0
 28 64  1  0  0  0  0
 29 57  1  0  0  0  0
 29 65  2  0  0  0  0
 30 66  1  0  0  0  0
 30 69  1  0  0  0  0
 31 58  1  0  0  0  0
 31 64  2  0  0  0  0
 31 65  1  0  0  0  0
 32 70  1  0  0  0  0
 32 74  2  0  0  0  0
 33 47  1  0  0  0  0
 33 71  1  0  0  0  0
 33 75  2  0  0  0  0
 34 58  1  0  0  0  0
 34 68  1  0  0  0  0
 34 76  2  0  0  0  0
 35 59  1  0  0  0  0
 35 67  1  0  0  0  0
 35 77  2  0  0  0  0
 36 60  1  0  0  0  0
 36 72  1  0  0  0  0
 36 78  2  0  0  0  0
 37 40  1  0  0  0  0
 38 47  1  0  0  0  0
 39 67  1  0  0  0  0
 40 42  1  0  0  0  0
 41 43  1  0  0  0  0
 41 44  1  0  0  0  0
 42 46  1  0  0  0  0
 43 48  1  0  0  0  0
 44 68  1  0  0  0  0
 45 48  1  0  0  0  0
 45 68  1  0  0  0  0
 46 71  1  0  0  0  0
 47 67  1  0  0  0  0
 48 66  1  0  0  0  0
 49 60  1  0  0  0  0
 50 61  1  0  0  0  0
 51 61  1  0  0  0  0
 52 62  1  0  0  0  0
 53 62  1  0  0  0  0
 54 62  1  0  0  0  0
 55 73  1  0  0  0  0
 56 61  1  0  0  0  0
 57 80  1  0  0  0  0
 59 62  1  0  0  0  0
 59 72  1  0  0  0  0
 60 73  1  0  0  0  0
 63 66  1  0  0  0  0
M  CHG  1  73   1
M  ISO  4  34 100  57 101  58 100  80 101
M  END
> <Batch ID>
0047

> <Smiles>
CNC(C)C(=O)NC(C(=O)N1Cc2cc([101O:1][101CH2:1]c3cc(CC(C)C)nc([100CH2:0][100C:0](=O)N4CCCC(n5nc(-c6ccc(Oc7ccc(F)cc7F)cc6)c(C(N)=O)c5N)C4)n3)ccc2CC1C(=O)NC1CCCc2ccccc21)C(C)(C)C

> <Shape>
0.254

> <Color>
0.195

> <Negative vol penalty>
0.000

$$$$

  -OEChem-04052317243D

 79 87  0     1  0  0  0  0  0999 V2000
  -26.1133  -10.9023   21.0836 C   0  0  0  0  0  0  0  0  0  0  0  0
  -26.8710  -11.8046   20.3438 C   0  0  0  0  0  0  0  0  0  0  0  0
  -23.6770  -28.2702   20.3876 C   0  0  0  0  0  0  0  0  0  0  0  0
  -24.2637  -30.2524   21.6381 C   0  0  0  0  0  0  0  0  0  0  0  0
  -24.7867  -11.1980   21.3942 C   0  0  0  0  0  0  0  0  0  0  0  0
  -26.3021  -13.0026   19.9133 C   0  0  0  0  0  0  0  0  0  0  0  0
  -29.1043  -18.4202   19.3627 C   0  0  0  0  0  0  0  0  0  0  0  0
  -22.3316  -28.4756   20.6932 C   0  0  0  0  0  0  0  0  0  0  0  0
  -22.9183  -30.4579   21.9437 C   0  0  0  0  0  0  0  0  0  0  0  0
  -29.6518  -19.0860   18.2669 C   0  0  0  0  0  0  0  0  0  0  0  0
  -20.2701  -27.9707   23.3237 C   0  0  0  0  0  0  0  0  0  0  0  0
  -19.5242  -26.8668   23.7369 C   0  0  0  0  0  0  0  0  0  0  0  0
  -27.5993  -20.3255   18.0021 C   0  0  0  0  0  0  0  0  0  0  0  0
  -18.0335  -27.1715   21.8602 C   0  0  0  0  0  0  0  0  0  0  0  0
  -24.6430  -29.1586   20.8601 C   0  0  0  0  0  0  0  0  0  0  0  0
  -26.7373  -29.4412   19.4312 C   0  0  0  0  0  0  0  0  0  0  0  0
  -24.2041  -12.4046   20.9754 C   0  0  0  0  0  0  0  0  0  0  0  0
  -27.7941  -18.6947   19.7804 C   0  0  0  0  0  0  0  0  0  0  0  0
  -24.9660  -13.3141   20.2174 C   0  0  0  0  0  0  0  0  0  0  0  0
  -27.0384  -19.6637   19.1050 C   0  0  0  0  0  0  0  0  0  0  0  0
  -21.9522  -29.5694   21.4712 C   0  0  0  0  0  0  0  0  0  0  0  0
  -28.8983  -20.0367   17.5846 C   0  0  0  0  0  0  0  0  0  0  0  0
  -19.8976  -28.6751   22.1788 C   0  0  0  0  0  0  0  0  0  0  0  0
  -18.4060  -26.4672   23.0052 C   0  0  0  0  0  0  0  0  0  0  0  0
  -18.7793  -28.2754   21.4470 C   0  0  0  0  0  0  0  0  0  0  0  0
  -26.0330  -28.9466   20.5453 C   0  0  0  0  0  0  0  0  0  0  0  0
  -31.1005  -24.9665   17.9897 C   0  0  0  0  0  0  0  0  0  0  0  0
  -31.1919  -23.6140   17.7360 C   0  0  0  0  0  0  0  0  0  0  0  0
  -28.0146  -28.9626   19.5923 C   0  0  0  0  0  0  0  0  0  0  0  0
  -30.9201  -24.2323   20.0481 C   0  0  0  0  0  0  0  0  0  0  0  0
  -26.2780  -30.2602   18.3476 C   0  0  0  0  0  0  0  0  0  0  0  0
  -30.7669  -24.2526   21.5086 C   0  0  0  0  0  0  0  0  0  0  0  0
  -25.1151  -17.0009   20.0210 C   0  0  0  0  0  0  0  0  0  0  0  0
  -23.9914  -19.7050   21.4164 C   0  0  0  0  0  0  0  0  0  0  0  0
  -24.2432  -23.0866   21.8010 C   0  0  0  0  0  0  0  0  0  0  0  0
  -22.7522  -12.6590   21.2949 C   0  0  0  0  0  0  0  0  0  0  0  0
  -27.2275  -17.9871   20.9807 C   0  0  0  0  0  0  0  0  0  0  0  0
  -25.6342  -20.0095   19.5260 C   0  0  0  0  0  0  0  0  0  0  0  0
  -22.3369  -14.1177   21.1213 C   0  0  0  0  0  0  0  0  0  0  0  0
  -30.6589  -27.2706   23.4116 C   0  0  0  0  0  0  0  0  0  0  0  0
  -22.8594  -14.6676   19.7979 C   0  0  0  0  0  0  0  0  0  0  0  0
  -29.5102  -28.0541   22.7738 C   0  0  0  0  0  0  0  0  0  0  0  0
  -30.3802  -25.7697   23.4213 C   0  0  0  0  0  0  0  0  0  0  0  0
  -28.8957  -25.9827   21.4577 C   0  0  0  0  0  0  0  0  0  0  0  0
  -24.3919  -14.6352   19.7535 C   0  0  1  0  0  0  0  0  0  0  0  0
  -25.7021  -17.9754   21.0025 C   0  0  1  0  0  0  0  0  0  0  0  0
  -29.1592  -27.4956   21.3820 C   0  0  1  0  0  0  0  0  0  0  0  0
  -31.1552  -26.0452   16.9822 C   0  0  0  0  0  0  0  0  0  0  0  0
  -23.7588  -25.3669   22.7300 C   0  0  0  0  0  0  0  0  0  0  0  0
  -21.6949  -19.6373   19.4085 C   0  0  0  0  0  0  0  0  0  0  0  0
  -21.2107  -22.0245   19.9873 C   0  0  0  0  0  0  0  0  0  0  0  0
  -21.0264  -20.2566   21.7375 C   0  0  0  0  0  0  0  0  0  0  0  0
  -26.2252  -22.7501   23.9730 C   0  0  0  0  0  0  0  0  0  0  0  0
  -31.3646  -22.8798   16.4304 C   0  0  0  0  0  0  0  0  0  0  0  0
  -30.0862  -22.8033   15.5929 C   0  0  0  0  0  0  0  0  0  0  0  0
  -28.9691  -22.0152   16.2669 C   0  0  0  0  0  0  0  0  0  1  0  0
  -23.3140  -20.9606   20.9229 C   0  0  1  0  0  0  0  0  0  0  0  0
  -24.2495  -23.9616   23.0415 C   0  0  2  0  0  0  0  0  0  0  0  0
  -21.8372  -20.7121   20.5047 C   0  0  0  0  0  0  0  0  0  0  0  0
  -26.7993  -28.2101   21.3542 N   0  0  0  0  0  0  0  0  0  0  0  0
  -30.9449  -25.3230   19.3149 N   0  0  0  0  0  0  0  0  0  0  0  0
  -27.9982  -28.2383   20.7479 N   0  0  0  0  0  0  0  0  0  0  0  0
  -30.0379  -25.2983   22.0799 N   0  0  0  0  0  0  0  0  0  0  0  0
  -25.1224  -19.2860   20.7016 N   0  0  0  0  0  0  0  0  0  0  0  0
  -29.1388  -29.0947   18.8567 N   0  0  0  0  0  0  0  0  0  0  0  0
  -24.9357  -30.6632   18.3371 N   0  0  0  0  0  0  0  0  0  0  0  0
  -24.9431  -15.7268   20.5276 N   0  0  0  0  0  0  0  0  0  0  0  0
  -23.4768  -21.9542   21.9787 N   0  0  0  0  0  0  0  0  0  0  0  0
  -25.6277  -24.0582   23.6002 N   0  3  0  0  0  0  0  0  0  0  0  0
  -27.0315  -30.6101   17.4078 O   0  0  0  0  0  0  0  0  0  0  0  0
  -31.3120  -23.3382   22.1249 O   0  0  0  0  0  0  0  0  0  0  0  0
  -24.8374  -17.3774   18.8884 O   0  0  0  0  0  0  0  0  0  0  0  0
  -23.5380  -19.1215   22.4042 O   0  0  0  0  0  0  0  0  0  0  0  0
  -24.8538  -23.3803   20.7756 O   0  0  0  0  0  0  0  0  0  0  0  0
  -20.6395  -29.7703   21.7694 O   0  0  0  0  0  0  0  0  0  0  0  0
  -29.4300  -20.6875   16.5143 O   0  0  0  0  0  0  0  0  0  1  0  0
  -17.6908  -25.4061   23.4013 F   0  0  0  0  0  0  0  0  0  0  0  0
  -18.4173  -28.9474   20.3456 F   0  0  0  0  0  0  0  0  0  0  0  0
  -31.0798  -22.7435   19.2096 S   0  0  0  0  0  0  0  0  0  0  0  0
  1  2  1  0  0  0  0
  1  5  2  0  0  0  0
  2  6  2  0  0  0  0
  3  8  2  0  0  0  0
  3 15  1  0  0  0  0
  4  9  1  0  0  0  0
  4 15  2  0  0  0  0
  5 17  1  0  0  0  0
  6 19  1  0  0  0  0
  7 10  2  0  0  0  0
  7 18  1  0  0  0  0
  8 21  1  0  0  0  0
  9 21  2  0  0  0  0
 10 22  1  0  0  0  0
 11 12  2  0  0  0  0
 11 23  1  0  0  0  0
 12 24  1  0  0  0  0
 13 20  1  0  0  0  0
 13 22  2  0  0  0  0
 14 24  2  0  0  0  0
 14 25  1  0  0  0  0
 15 26  1  0  0  0  0
 16 26  1  0  0  0  0
 16 29  2  0  0  0  0
 16 31  1  0  0  0  0
 17 19  2  0  0  0  0
 17 36  1  0  0  0  0
 18 20  2  0  0  0  0
 18 37  1  0  0  0  0
 19 45  1  0  0  0  0
 20 38  1  0  0  0  0
 21 75  1  0  0  0  0
 22 76  1  0  0  0  0
 23 25  2  0  0  0  0
 23 75  1  0  0  0  0
 24 77  1  0  0  0  0
 25 78  1  0  0  0  0
 26 60  2  0  0  0  0
 27 28  2  0  0  0  0
 27 48  1  0  0  0  0
 27 61  1  0  0  0  0
 28 54  1  0  0  0  0
 28 79  1  0  0  0  0
 29 62  1  0  0  0  0
 29 65  1  0  0  0  0
 30 32  1  0  0  0  0
 30 61  2  0  0  0  0
 30 79  1  0  0  0  0
 31 66  1  0  0  0  0
 31 70  2  0  0  0  0
 32 63  1  0  0  0  0
 32 71  2  0  0  0  0
 33 46  1  0  0  0  0
 33 67  1  0  0  0  0
 33 72  2  0  0  0  0
 34 57  1  0  0  0  0
 34 64  1  0  0  0  0
 34 73  2  0  0  0  0
 35 58  1  0  0  0  0
 35 68  1  0  0  0  0
 35 74  2  0  0  0  0
 36 39  1  0  0  0  0
 37 46  1  0  0  0  0
 38 64  1  0  0  0  0
 39 41  1  0  0  0  0
 40 42  1  0  0  0  0
 40 43  1  0  0  0  0
 41 45  1  0  0  0  0
 42 47  1  0  0  0  0
 43 63  1  0  0  0  0
 44 47  1  0  0  0  0
 44 63  1  0  0  0  0
 45 67  1  0  0  0  0
 46 64  1  0  0  0  0
 47 62  1  0  0  0  0
 49 58  1  0  0  0  0
 50 59  1  0  0  0  0
 51 59  1  0  0  0  0
 52 59  1  0  0  0  0
 53 69  1  0  0  0  0
 54 55  1  0  0  0  0
 55 56  1  0  0  0  0
 56 76  1  0  0  0  0
 57 59  1  0  0  0  0
 57 68  1  0  0  0  0
 58 69  1  0  0  0  0
 60 62  1  0  0  0  0
M  CHG  1  69   1
M  ISO  4  30 100  32 100  56 101  76 101
M  END
> <Batch ID>
0047

> <Smiles>
CNC(C)C(=O)NC(C(=O)N1Cc2cc([101O:1][101CH2:1]CCc3s[100c:0]([100C:0](=O)N4CCCC(n5nc(-c6ccc(Oc7ccc(F)cc7F)cc6)c(C(N)=O)c5N)C4)nc3C)ccc2CC1C(=O)NC1CCCc2ccccc21)C(C)(C)C

> <Shape>
0.222

> <Color>
0.070

> <Negative vol penalty>
0.000

$$$$

  -OEChem-04052317243D

 81 89  0     1  0  0  0  0  0999 V2000
  -21.3217  -12.4110   20.8330 C   0  0  0  0  0  0  0  0  0  0  0  0
  -21.5272  -13.5266   21.6383 C   0  0  0  0  0  0  0  0  0  0  0  0
  -25.3552  -26.9953   18.9143 C   0  0  0  0  0  0  0  0  0  0  0  0
  -25.6960  -26.1897   21.1664 C   0  0  0  0  0  0  0  0  0  0  0  0
  -22.4042  -11.7989   20.2025 C   0  0  0  0  0  0  0  0  0  0  0  0
  -22.8155  -14.0303   21.8144 C   0  0  0  0  0  0  0  0  0  0  0  0
  -22.9986  -19.0762   21.4275 C   0  0  0  0  0  0  0  0  0  0  0  0
  -26.6857  -27.4108   18.8616 C   0  0  0  0  0  0  0  0  0  0  0  0
  -27.0265  -26.6052   21.1137 C   0  0  0  0  0  0  0  0  0  0  0  0
  -22.5670  -19.8153   22.5281 C   0  0  0  0  0  0  0  0  0  0  0  0
  -28.7456  -29.5014   21.4098 C   0  0  0  0  0  0  0  0  0  0  0  0
  -29.2550  -30.1860   22.5132 C   0  0  0  0  0  0  0  0  0  0  0  0
  -24.8610  -20.1528   23.1934 C   0  0  0  0  0  0  0  0  0  0  0  0
  -30.9254  -28.4657   22.8093 C   0  0  0  0  0  0  0  0  0  0  0  0
  -24.8604  -26.3848   20.0667 C   0  0  0  0  0  0  0  0  0  0  0  0
  -22.8528  -25.0206   19.2817 C   0  0  0  0  0  0  0  0  0  0  0  0
  -23.7052  -12.3011   20.3632 C   0  0  0  0  0  0  0  0  0  0  0  0
  -24.3665  -18.8603   21.2072 C   0  0  0  0  0  0  0  0  0  0  0  0
  -23.9166  -13.4235   21.1865 C   0  0  0  0  0  0  0  0  0  0  0  0
  -25.3075  -19.4128   22.0878 C   0  0  0  0  0  0  0  0  0  0  0  0
  -27.5214  -27.2158   19.9612 C   0  0  0  0  0  0  0  0  0  0  0  0
  -23.4981  -20.3513   23.4128 C   0  0  0  0  0  0  0  0  0  0  0  0
  -29.3261  -28.2989   21.0062 C   0  0  0  0  0  0  0  0  0  0  0  0
  -30.3449  -29.6682   23.2130 C   0  0  0  0  0  0  0  0  0  0  0  0
  -30.4160  -27.7811   21.7059 C   0  0  0  0  0  0  0  0  0  0  0  0
  -23.4859  -25.9558   20.1220 C   0  0  0  0  0  0  0  0  0  0  0  0
  -21.5600  -24.9650   19.7422 C   0  0  0  0  0  0  0  0  0  0  0  0
  -23.4306  -22.3261   26.4857 C   0  0  0  0  0  0  0  0  0  0  0  0
  -22.7169  -22.7444   28.4021 C   0  0  0  0  0  0  0  0  0  0  0  0
  -23.3857  -24.2691   18.1830 C   0  0  0  0  0  0  0  0  0  0  0  0
  -26.2386  -16.2953   21.0670 C   0  0  0  0  0  0  0  0  0  0  0  0
  -28.4826  -18.4627   20.1788 C   0  0  0  0  0  0  0  0  0  0  0  0
  -29.5539  -21.7028   20.2111 C   0  0  0  0  0  0  0  0  0  0  0  0
  -19.0741  -26.1271   25.0640 C   0  0  0  0  0  0  0  0  0  0  0  0
  -24.8498  -11.5773   19.6995 C   0  0  0  0  0  0  0  0  0  0  0  0
  -24.8169  -18.0834   20.0006 C   0  0  0  0  0  0  0  0  0  0  0  0
  -26.7883  -19.2271   21.8848 C   0  0  0  0  0  0  0  0  0  0  0  0
  -26.1353  -12.3983   19.6371 C   0  0  0  0  0  0  0  0  0  0  0  0
  -18.2513  -27.6297   21.9428 C   0  0  0  0  0  0  0  0  0  0  0  0
  -26.4196  -13.0483   20.9875 C   0  0  0  0  0  0  0  0  0  0  0  0
  -19.4425  -27.2868   21.0464 C   0  0  0  0  0  0  0  0  0  0  0  0
  -18.6872  -27.9028   23.3806 C   0  0  0  0  0  0  0  0  0  0  0  0
  -20.6879  -26.4915   23.0995 C   0  0  0  0  0  0  0  0  0  0  0  0
  -25.2960  -14.0143   21.3822 C   0  0  1  0  0  0  0  0  0  0  0  0
  -26.2141  -17.4917   20.1582 C   0  0  1  0  0  0  0  0  0  0  0  0
  -20.2919  -26.1532   21.6520 C   0  0  2  0  0  0  0  0  0  0  0  0
  -22.3388  -22.7355   29.8267 C   0  0  0  0  0  0  0  0  0  0  0  0
  -31.4427  -23.1609   19.4342 C   0  0  0  0  0  0  0  0  0  0  0  0
  -30.2436  -17.3707   22.4185 C   0  0  0  0  0  0  0  0  0  0  0  0
  -31.6554  -19.4285   22.2172 C   0  0  0  0  0  0  0  0  0  0  0  0
  -31.4536  -17.8628   20.2858 C   0  0  0  0  0  0  0  0  0  0  0  0
  -27.7492  -23.3494   18.5404 C   0  0  0  0  0  0  0  0  0  0  0  0
  -24.0879  -21.5925   25.3538 C   0  0  0  0  0  0  0  0  0  1  0  0
  -20.2245  -24.8799   27.9215 C   0  0  0  0  0  0  0  0  0  0  0  0
  -21.7523  -25.0119   27.8625 C   0  0  0  0  0  0  0  0  0  0  0  0
  -19.5888  -24.2981   26.6606 C   0  0  0  0  0  0  0  0  0  0  0  0
  -29.4859  -19.3230   20.9085 C   0  0  1  0  0  0  0  0  0  0  0  0
  -30.0662  -22.6054   19.1033 C   0  0  2  0  0  0  0  0  0  0  0  0
  -30.6817  -18.4983   21.4627 C   0  0  0  0  0  0  0  0  0  0  0  0
  -22.6631  -26.4584   21.0464 N   0  0  0  0  0  0  0  0  0  0  0  0
  -23.3527  -21.8027   27.7445 N   0  0  0  0  0  0  0  0  0  0  0  0
  -22.8830  -23.5324   26.3231 N   0  0  0  0  0  0  0  0  0  0  0  0
  -21.4997  -25.8367   20.7895 N   0  0  0  0  0  0  0  0  0  0  0  0
  -22.4339  -23.7771   27.5635 N   0  0  0  0  0  0  0  0  0  0  0  0
  -27.1786  -18.4545   20.6939 N   0  0  0  0  0  0  0  0  0  0  0  0
  -19.4875  -26.7894   23.8963 N   0  0  0  0  0  0  0  0  0  0  0  0
  -20.4804  -24.2561   19.3495 N   0  0  0  0  0  0  0  0  0  0  0  0
  -23.9481  -23.0121   18.4436 N   0  0  0  0  0  0  0  0  0  0  0  0
  -25.4215  -15.2596   20.6556 N   0  0  0  0  0  0  0  0  0  0  0  0
  -29.8689  -20.3806   19.9794 N   0  0  0  0  0  0  0  0  0  0  0  0
  -19.8860  -25.0792   25.4806 N   0  0  0  0  0  0  0  0  0  0  0  0
  -29.1350  -23.7502   18.8955 N   0  3  0  0  0  0  0  0  0  0  0  0
  -23.3785  -24.7067   17.0074 O   0  0  0  0  0  0  0  0  0  0  0  0
  -26.9474  -16.3102   22.0665 O   0  0  0  0  0  0  0  0  0  0  0  0
  -28.8410  -17.8273   19.1841 O   0  0  0  0  0  0  0  0  0  0  0  0
  -28.9391  -22.1286   21.1865 O   0  0  0  0  0  0  0  0  0  0  0  0
  -18.0540  -26.4426   25.6860 O   0  0  0  0  0  0  0  0  0  0  0  0
  -28.8197  -27.6209   19.9100 O   0  0  0  0  0  0  0  0  0  0  0  0
  -23.0796  -21.0725   24.4882 O   0  0  0  0  0  0  0  0  0  1  0  0
  -30.8349  -30.3264   24.2716 F   0  0  0  0  0  0  0  0  0  0  0  0
  -30.9786  -26.6270   21.3222 F   0  0  0  0  0  0  0  0  0  0  0  0
  1  2  1  0  0  0  0
  1  5  2  0  0  0  0
  2  6  2  0  0  0  0
  3  8  2  0  0  0  0
  3 15  1  0  0  0  0
  4  9  1  0  0  0  0
  4 15  2  0  0  0  0
  5 17  1  0  0  0  0
  6 19  1  0  0  0  0
  7 10  2  0  0  0  0
  7 18  1  0  0  0  0
  8 21  1  0  0  0  0
  9 21  2  0  0  0  0
 10 22  1  0  0  0  0
 11 12  2  0  0  0  0
 11 23  1  0  0  0  0
 12 24  1  0  0  0  0
 13 20  1  0  0  0  0
 13 22  2  0  0  0  0
 14 24  2  0  0  0  0
 14 25  1  0  0  0  0
 15 26  1  0  0  0  0
 16 26  1  0  0  0  0
 16 27  2  0  0  0  0
 16 30  1  0  0  0  0
 17 19  2  0  0  0  0
 17 35  1  0  0  0  0
 18 20  2  0  0  0  0
 18 36  1  0  0  0  0
 19 44  1  0  0  0  0
 20 37  1  0  0  0  0
 21 78  1  0  0  0  0
 22 79  1  0  0  0  0
 23 25  2  0  0  0  0
 23 78  1  0  0  0  0
 24 80  1  0  0  0  0
 25 81  1  0  0  0  0
 26 60  2  0  0  0  0
 27 63  1  0  0  0  0
 27 67  1  0  0  0  0
 28 53  1  0  0  0  0
 28 61  1  0  0  0  0
 28 62  2  0  0  0  0
 29 47  1  0  0  0  0
 29 61  2  0  0  0  0
 29 64  1  0  0  0  0
 30 68  1  0  0  0  0
 30 73  2  0  0  0  0
 31 45  1  0  0  0  0
 31 69  1  0  0  0  0
 31 74  2  0  0  0  0
 32 57  1  0  0  0  0
 32 65  1  0  0  0  0
 32 75  2  0  0  0  0
 33 58  1  0  0  0  0
 33 70  1  0  0  0  0
 33 76  2  0  0  0  0
 34 66  1  0  0  0  0
 34 71  1  0  0  0  0
 34 77  2  0  0  0  0
 35 38  1  0  0  0  0
 36 45  1  0  0  0  0
 37 65  1  0  0  0  0
 38 40  1  0  0  0  0
 39 41  1  0  0  0  0
 39 42  1  0  0  0  0
 40 44  1  0  0  0  0
 41 46  1  0  0  0  0
 42 66  1  0  0  0  0
 43 46  1  0  0  0  0
 43 66  1  0  0  0  0
 44 69  1  0  0  0  0
 45 65  1  0  0  0  0
 46 63  1  0  0  0  0
 48 58  1  0  0  0  0
 49 59  1  0  0  0  0
 50 59  1  0  0  0  0
 51 59  1  0  0  0  0
 52 72  1  0  0  0  0
 53 79  1  0  0  0  0
 54 55  1  0  0  0  0
 54 56  1  0  0  0  0
 55 64  1  0  0  0  0
 56 71  1  0  0  0  0
 57 59  1  0  0  0  0
 57 70  1  0  0  0  0
 58 72  1  0  0  0  0
 60 63  1  0  0  0  0
 62 64  1  0  0  0  0
M  CHG  1  72   1
M  ISO  4  34 100  53 101  71 100  79 101
M  END
> <Batch ID>
0047

> <Smiles>
CNC(C)C(=O)NC(C(=O)N1Cc2cc([101O:1][101CH2:1]c3nc(C)n(CCC[100NH:0][100C:0](=O)N4CCCC(n5nc(-c6ccc(Oc7ccc(F)cc7F)cc6)c(C(N)=O)c5N)C4)n3)ccc2CC1C(=O)NC1CCCc2ccccc21)C(C)(C)C

> <Shape>
0.202

> <Color>
0.059

> <Negative vol penalty>
0.000

$$$$

  -OEChem-04052317243D

 82 90  0     1  0  0  0  0  0999 V2000
  -34.6721  -27.4381   31.2518 C   0  0  0  0  0  0  0  0  0  0  0  0
  -33.7324  -26.4125   31.2267 C   0  0  0  0  0  0  0  0  0  0  0  0
  -23.2041   -9.8445   19.9660 C   0  0  0  0  0  0  0  0  0  0  0  0
  -23.9099   -9.9434   22.2745 C   0  0  0  0  0  0  0  0  0  0  0  0
  -34.7094  -28.3734   30.2185 C   0  0  0  0  0  0  0  0  0  0  0  0
  -32.8287  -26.3223   30.1686 C   0  0  0  0  0  0  0  0  0  0  0  0
  -30.5905  -21.2008   27.6653 C   0  0  0  0  0  0  0  0  0  0  0  0
  -22.5132   -8.6615   20.2278 C   0  0  0  0  0  0  0  0  0  0  0  0
  -23.2189   -8.7603   22.5364 C   0  0  0  0  0  0  0  0  0  0  0  0
  -29.3890  -20.5167   27.8445 C   0  0  0  0  0  0  0  0  0  0  0  0
  -19.5759   -7.7513   21.6337 C   0  0  0  0  0  0  0  0  0  0  0  0
  -18.2844   -7.6279   21.1214 C   0  0  0  0  0  0  0  0  0  0  0  0
  -28.4676  -21.6431   25.9207 C   0  0  0  0  0  0  0  0  0  0  0  0
  -18.9706   -5.6852   19.8596 C   0  0  0  0  0  0  0  0  0  0  0  0
  -27.6428  -15.9577   23.3215 C   0  0  0  0  0  0  0  0  0  0  0  0
  -29.4531  -16.9064   24.4525 C   0  0  0  0  0  0  0  0  0  0  0  0
  -23.9026  -10.4855   20.9893 C   0  0  0  0  0  0  0  0  0  0  0  0
  -24.1206  -13.0212   20.8150 C   0  0  0  0  0  0  0  0  0  0  0  0
  -33.8119  -28.2889   29.1424 C   0  0  0  0  0  0  0  0  0  0  0  0
  -30.7362  -22.1209   26.6172 C   0  0  0  0  0  0  0  0  0  0  0  0
  -32.8531  -27.2581   29.1206 C   0  0  0  0  0  0  0  0  0  0  0  0
  -29.6728  -22.3357   25.7288 C   0  0  0  0  0  0  0  0  0  0  0  0
  -28.9921  -16.2467   23.3315 C   0  0  0  0  0  0  0  0  0  0  0  0
  -22.5206   -8.1194   21.5130 C   0  0  0  0  0  0  0  0  0  0  0  0
  -28.3264  -20.7399   26.9739 C   0  0  0  0  0  0  0  0  0  0  0  0
  -20.5648   -6.8417   21.2589 C   0  0  0  0  0  0  0  0  0  0  0  0
  -17.9817   -6.5948   20.2344 C   0  0  0  0  0  0  0  0  0  0  0  0
  -20.2621   -5.8086   20.3718 C   0  0  0  0  0  0  0  0  0  0  0  0
  -24.6170  -11.7073   20.7193 C   0  0  0  0  0  0  0  0  0  0  0  0
  -25.1820  -13.8161   20.4573 C   0  0  0  0  0  0  0  0  0  0  0  0
  -27.3694  -16.9237   25.3609 C   0  0  0  0  0  0  0  0  0  0  0  0
  -22.8167  -13.4819   21.1934 C   0  0  0  0  0  0  0  0  0  0  0  0
  -31.3107  -25.2419   26.4357 C   0  0  0  0  0  0  0  0  0  0  0  0
  -30.9631  -13.9635   21.0093 C   0  0  0  0  0  0  0  0  0  0  0  0
  -31.4695  -24.6322   23.2537 C   0  0  0  0  0  0  0  0  0  0  0  0
  -30.5873  -22.6210   20.6415 C   0  0  0  0  0  0  0  0  0  0  0  0
  -33.8596  -29.3507   28.0723 C   0  0  0  0  0  0  0  0  0  0  0  0
  -32.0476  -22.8310   26.4214 C   0  0  0  0  0  0  0  0  0  0  0  0
  -29.7850  -23.2981   24.5756 C   0  0  0  0  0  0  0  0  0  0  0  0
  -33.1115  -28.9658   26.7985 C   0  0  0  0  0  0  0  0  0  0  0  0
  -29.3573  -13.1337   17.9153 C   0  0  0  0  0  0  0  0  0  0  0  0
  -31.7408  -28.3889   27.1382 C   0  0  0  0  0  0  0  0  0  0  0  0
  -27.9316  -12.7780   18.3349 C   0  0  0  0  0  0  0  0  0  0  0  0
  -30.3735  -12.7001   18.9671 C   0  0  0  0  0  0  0  0  0  0  0  0
  -28.6742  -12.8826   20.7562 C   0  0  0  0  0  0  0  0  0  0  0  0
  -31.8721  -27.1123   27.9775 C   0  0  1  0  0  0  0  0  0  0  0  0
  -31.9127  -24.1271   25.6281 C   0  0  1  0  0  0  0  0  0  0  0  0
  -27.6134  -13.3309   19.7355 C   0  0  2  0  0  0  0  0  0  0  0  0
  -31.7444  -14.5043   23.2791 C   0  0  0  0  0  0  0  0  0  0  0  0
  -30.8352  -22.4002   18.1541 C   0  0  0  0  0  0  0  0  0  0  0  0
  -29.4042  -26.8424   22.8541 C   0  0  0  0  0  0  0  0  0  0  0  0
  -28.9954  -25.9483   20.5515 C   0  0  0  0  0  0  0  0  0  0  0  0
  -31.2497  -26.8217   21.1665 C   0  0  0  0  0  0  0  0  0  0  0  0
  -31.9757  -20.0195   20.8941 C   0  0  0  0  0  0  0  0  0  0  0  0
  -29.8875  -15.8747   22.2094 C   0  0  0  0  0  0  0  0  0  0  0  0
  -26.4583  -17.3072   26.4995 C   0  0  0  0  0  0  0  0  0  0  0  0
  -25.5813  -18.5256   26.2030 C   0  0  0  0  0  0  0  0  0  0  0  0
  -26.3802  -19.8041   25.9776 C   0  0  0  0  0  0  0  0  0  1  0  0
  -30.5284  -14.4762   22.3592 C   0  0  1  0  0  0  0  0  0  0  0  0
  -30.4750  -24.6113   22.1182 C   0  0  1  0  0  0  0  0  0  0  0  0
  -31.4046  -22.0201   19.5121 C   0  0  2  0  0  0  0  0  0  0  0  0
  -30.0280  -26.0392   21.6954 C   0  0  0  0  0  0  0  0  0  0  0  0
  -26.7991  -16.2828   24.3229 N   0  0  0  0  0  0  0  0  0  0  0  0
  -28.6667  -17.2617   25.4896 N   0  0  0  0  0  0  0  0  0  0  0  0
  -25.8943  -11.6656   20.3311 N   0  0  0  0  0  0  0  0  0  0  0  0
  -26.2095  -12.9632   20.1796 N   0  0  0  0  0  0  0  0  0  0  0  0
  -31.0853  -23.9728   24.4298 N   0  0  0  0  0  0  0  0  0  0  0  0
  -30.0237  -13.2270   20.2875 N   0  0  0  0  0  0  0  0  0  0  0  0
  -25.3274  -15.1544   20.3563 N   0  0  0  0  0  0  0  0  0  0  0  0
  -21.8439  -12.5309   21.5307 N   0  0  0  0  0  0  0  0  0  0  0  0
  -32.2355  -25.9907   27.1382 N   0  0  0  0  0  0  0  0  0  0  0  0
  -31.0940  -23.8374   21.0475 N   0  0  0  0  0  0  0  0  0  0  0  0
  -31.4183  -20.5336   19.6166 N   0  3  0  0  0  0  0  0  0  0  0  0
  -22.5181  -14.7000   21.2155 O   0  0  0  0  0  0  0  0  0  0  0  0
  -30.0971  -25.4112   26.4213 O   0  0  0  0  0  0  0  0  0  0  0  0
  -32.1029  -14.2138   20.6088 O   0  0  0  0  0  0  0  0  0  0  0  0
  -32.5505  -25.2063   23.1002 O   0  0  0  0  0  0  0  0  0  0  0  0
  -29.5963  -22.0683   21.1137 O   0  0  0  0  0  0  0  0  0  0  0  0
  -21.8463   -6.9651   21.7689 O   0  0  0  0  0  0  0  0  0  0  0  0
  -27.1523  -20.0739   27.1470 O   0  0  0  0  0  0  0  0  0  1  0  0
  -16.7411   -6.4755   19.7437 F   0  0  0  0  0  0  0  0  0  0  0  0
  -21.2076   -4.9310   20.0090 F   0  0  0  0  0  0  0  0  0  0  0  0
  1  2  1  0  0  0  0
  1  5  2  0  0  0  0
  2  6  2  0  0  0  0
  3  8  2  0  0  0  0
  3 17  1  0  0  0  0
  4  9  1  0  0  0  0
  4 17  2  0  0  0  0
  5 19  1  0  0  0  0
  6 21  1  0  0  0  0
  7 10  2  0  0  0  0
  7 20  1  0  0  0  0
  8 24  1  0  0  0  0
  9 24  2  0  0  0  0
 10 25  1  0  0  0  0
 11 12  2  0  0  0  0
 11 26  1  0  0  0  0
 12 27  1  0  0  0  0
 13 22  1  0  0  0  0
 13 25  2  0  0  0  0
 14 27  2  0  0  0  0
 14 28  1  0  0  0  0
 15 23  1  0  0  0  0
 15 63  2  0  0  0  0
 16 23  2  0  0  0  0
 16 64  1  0  0  0  0
 17 29  1  0  0  0  0
 18 29  1  0  0  0  0
 18 30  2  0  0  0  0
 18 32  1  0  0  0  0
 19 21  2  0  0  0  0
 19 37  1  0  0  0  0
 20 22  2  0  0  0  0
 20 38  1  0  0  0  0
 21 46  1  0  0  0  0
 22 39  1  0  0  0  0
 23 55  1  0  0  0  0
 24 79  1  0  0  0  0
 25 80  1  0  0  0  0
 26 28  2  0  0  0  0
 26 79  1  0  0  0  0
 27 81  1  0  0  0  0
 28 82  1  0  0  0  0
 29 65  2  0  0  0  0
 30 66  1  0  0  0  0
 30 69  1  0  0  0  0
 31 56  1  0  0  0  0
 31 63  1  0  0  0  0
 31 64  2  0  0  0  0
 32 70  1  0  0  0  0
 32 74  2  0  0  0  0
 33 47  1  0  0  0  0
 33 71  1  0  0  0  0
 33 75  2  0  0  0  0
 34 59  1  0  0  0  0
 34 68  1  0  0  0  0
 34 76  2  0  0  0  0
 35 60  1  0  0  0  0
 35 67  1  0  0  0  0
 35 77  2  0  0  0  0
 36 61  1  0  0  0  0
 36 72  1  0  0  0  0
 36 78  2  0  0  0  0
 37 40  1  0  0  0  0
 38 47  1  0  0  0  0
 39 67  1  0  0  0  0
 40 42  1  0  0  0  0
 41 43  1  0  0  0  0
 41 44  1  0  0  0  0
 42 46  1  0  0  0  0
 43 48  1  0  0  0  0
 44 68  1  0  0  0  0
 45 48  1  0  0  0  0
 45 68  1  0  0  0  0
 46 71  1  0  0  0  0
 47 67  1  0  0  0  0
 48 66  1  0  0  0  0
 49 59  1  0  0  0  0
 50 61  1  0  0  0  0
 51 62  1  0  0  0  0
 52 62  1  0  0  0  0
 53 62  1  0  0  0  0
 54 73  1  0  0  0  0
 55 59  1  0  0  0  0
 56 57  1  0  0  0  0
 57 58  1  0  0  0  0
 58 80  1  0  0  0  0
 60 62  1  0  0  0  0
 60 72  1  0  0  0  0
 61 73  1  0  0  0  0
 65 66  1  0  0  0  0
M  CHG  1  73   1
M  ISO  4  34 100  58 101  59 100  80 101
M  END
> <Batch ID>
0047

> <Smiles>
CNC(C)C(=O)NC(C(=O)N1Cc2cc([101O:1][101CH2:1]CCc3ncc(C[100CH:0](C)[100C:0](=O)N4CCCC(n5nc(-c6ccc(Oc7ccc(F)cc7F)cc6)c(C(N)=O)c5N)C4)cn3)ccc2CC1C(=O)NC1CCCc2ccccc21)C(C)(C)C

> <Shape>
0.174

> <Color>
0.181

> <Negative vol penalty>
0.000

$$$$

  -OEChem-04052317243D

 84 92  0     1  0  0  0  0  0999 V2000
  -16.3496  -26.5694   26.1924 C   0  0  0  0  0  0  0  0  0  0  0  0
  -17.3273  -25.6770   25.7643 C   0  0  0  0  0  0  0  0  0  0  0  0
  -23.1323   -9.9801   21.6186 C   0  0  0  0  0  0  0  0  0  0  0  0
  -23.7779  -11.0786   23.6713 C   0  0  0  0  0  0  0  0  0  0  0  0
  -16.2880  -27.8498   25.6442 C   0  0  0  0  0  0  0  0  0  0  0  0
  -18.2433  -26.0642   24.7869 C   0  0  0  0  0  0  0  0  0  0  0  0
  -24.1184  -24.3849   24.3755 C   0  0  0  0  0  0  0  0  0  0  0  0
  -22.3986   -9.0456   22.3493 C   0  0  0  0  0  0  0  0  0  0  0  0
  -23.0443  -10.1441   24.4021 C   0  0  0  0  0  0  0  0  0  0  0  0
  -24.7645  -23.4111   23.6152 C   0  0  0  0  0  0  0  0  0  0  0  0
  -19.3978   -8.8964   23.9004 C   0  0  0  0  0  0  0  0  0  0  0  0
  -18.1175   -8.5792   23.4468 C   0  0  0  0  0  0  0  0  0  0  0  0
  -25.3136  -25.0771   21.9592 C   0  0  0  0  0  0  0  0  0  0  0  0
  -18.7779   -6.2685   23.1989 C   0  0  0  0  0  0  0  0  0  0  0  0
  -23.8220  -10.9966   22.2795 C   0  0  0  0  0  0  0  0  0  0  0  0
  -24.1221  -13.1901   21.0123 C   0  0  0  0  0  0  0  0  0  0  0  0
  -17.2098  -28.2562   24.6665 C   0  0  0  0  0  0  0  0  0  0  0  0
  -24.0554  -25.7121   23.9273 C   0  0  0  0  0  0  0  0  0  0  0  0
  -18.1931  -27.3509   24.2241 C   0  0  0  0  0  0  0  0  0  0  0  0
  -24.6682  -26.0663   22.7168 C   0  0  0  0  0  0  0  0  0  0  0  0
  -22.3546   -9.1276   23.7411 C   0  0  0  0  0  0  0  0  0  0  0  0
  -25.3598  -23.7566   22.4054 C   0  0  0  0  0  0  0  0  0  0  0  0
  -20.3682   -7.8997   24.0032 C   0  0  0  0  0  0  0  0  0  0  0  0
  -17.8075   -7.2653   23.0960 C   0  0  0  0  0  0  0  0  0  0  0  0
  -20.0582   -6.5857   23.6525 C   0  0  0  0  0  0  0  0  0  0  0  0
  -24.5805  -11.9619   21.5252 C   0  0  0  0  0  0  0  0  0  0  0  0
  -28.2039  -20.4051   19.4691 C   0  0  0  0  0  0  0  0  0  0  0  0
  -28.1265  -19.0323   19.5523 C   0  0  0  0  0  0  0  0  0  0  0  0
  -26.6876  -19.2206   21.3198 C   0  0  0  0  0  0  0  0  0  0  0  0
  -26.7657  -20.5934   21.2370 C   0  0  0  0  0  0  0  0  0  0  0  0
  -25.2167  -13.7285   20.3809 C   0  0  0  0  0  0  0  0  0  0  0  0
  -22.8232  -13.7908   21.0989 C   0  0  0  0  0  0  0  0  0  0  0  0
  -21.7075  -27.7046   23.1391 C   0  0  0  0  0  0  0  0  0  0  0  0
  -24.1307  -29.8483   22.9055 C   0  0  0  0  0  0  0  0  0  0  0  0
  -27.4612  -30.4149   22.4223 C   0  0  0  0  0  0  0  0  0  0  0  0
  -30.6645  -14.9340   20.2662 C   0  0  0  0  0  0  0  0  0  0  0  0
  -17.0741  -29.6344   24.0692 C   0  0  0  0  0  0  0  0  0  0  0  0
  -23.3777  -26.7560   24.7720 C   0  0  0  0  0  0  0  0  0  0  0  0
  -24.6463  -27.4812   22.2011 C   0  0  0  0  0  0  0  0  0  0  0  0
  -18.3152  -30.0932   23.3080 C   0  0  0  0  0  0  0  0  0  0  0  0
  -29.6906  -11.6725   19.2220 C   0  0  0  0  0  0  0  0  0  0  0  0
  -18.8145  -28.9866   22.3845 C   0  0  0  0  0  0  0  0  0  0  0  0
  -28.2393  -11.5563   19.6912 C   0  0  0  0  0  0  0  0  0  0  0  0
  -30.5432  -12.4604   20.2141 C   0  0  0  0  0  0  0  0  0  0  0  0
  -28.5621  -13.6750   21.0350 C   0  0  0  0  0  0  0  0  0  0  0  0
  -19.2200  -27.7422   23.1837 C   0  0  1  0  0  0  0  0  0  0  0  0
  -22.9295  -27.9743   23.9707 C   0  0  1  0  0  0  0  0  0  0  0  0
  -27.6506  -12.9365   20.0399 C   0  0  2  0  0  0  0  0  0  0  0  0
  -29.0479  -21.0754   18.4397 C   0  0  0  0  0  0  0  0  0  0  0  0
  -24.5367  -18.0134   21.7700 C   0  0  0  0  0  0  0  0  0  0  0  0
  -29.1381  -32.2735   22.2464 C   0  0  0  0  0  0  0  0  0  0  0  0
  -23.1416  -30.4706   20.0869 C   0  0  0  0  0  0  0  0  0  0  0  0
  -25.3420  -31.5758   19.6339 C   0  0  0  0  0  0  0  0  0  0  0  0
  -23.8407  -32.4725   21.4129 C   0  0  0  0  0  0  0  0  0  0  0  0
  -28.9744  -29.4276   24.7663 C   0  0  0  0  0  0  0  0  0  0  0  0
  -25.8433  -18.5507   22.3493 C   0  0  0  0  0  0  0  0  0  0  0  0
  -28.8837  -18.1532   18.6167 C   0  0  0  0  0  0  0  0  0  0  0  0
  -26.0045  -21.4786   22.1796 C   0  0  0  0  0  0  0  0  0  1  0  0
  -30.3749  -17.9797   18.9686 C   0  0  0  0  0  0  0  0  0  0  0  0
  -30.6292  -17.4136   20.3640 C   0  0  0  0  0  0  0  0  0  0  0  0
  -25.0618  -30.2935   21.8038 C   0  0  1  0  0  0  0  0  0  0  0  0
  -28.4552  -31.2812   23.1746 C   0  0  2  0  0  0  0  0  0  0  0  0
  -24.3454  -31.1760   20.7429 C   0  0  0  0  0  0  0  0  0  0  0  0
  -25.8660  -11.7331   21.2438 N   0  0  0  0  0  0  0  0  0  0  0  0
  -27.5249  -21.2104   20.3100 N   0  0  0  0  0  0  0  0  0  0  0  0
  -27.3669  -18.4154   20.4792 N   0  0  0  0  0  0  0  0  0  0  0  0
  -26.2247  -12.8249   20.5472 N   0  0  0  0  0  0  0  0  0  0  0  0
  -23.9661  -28.4645   23.0600 N   0  0  0  0  0  0  0  0  0  0  0  0
  -29.9305  -13.7597   20.5011 N   0  0  0  0  0  0  0  0  0  0  0  0
  -25.4056  -14.8818   19.7052 N   0  0  0  0  0  0  0  0  0  0  0  0
  -21.8130  -13.1022   21.7843 N   0  0  0  0  0  0  0  0  0  0  0  0
  -20.5156  -27.9366   23.7987 N   0  0  0  0  0  0  0  0  0  0  0  0
  -26.1893  -30.9458   22.4608 N   0  0  0  0  0  0  0  0  0  0  0  0
  -30.0074  -16.1228   20.5589 N   0  0  0  0  0  0  0  0  0  0  0  0
  -29.5036  -30.4339   23.8101 N   0  3  0  0  0  0  0  0  0  0  0  0
  -22.5614  -14.8976   20.5698 O   0  0  0  0  0  0  0  0  0  0  0  0
  -21.8364  -27.3162   21.9840 O   0  0  0  0  0  0  0  0  0  0  0  0
  -23.5756  -30.6970   23.6079 O   0  0  0  0  0  0  0  0  0  0  0  0
  -27.7818  -29.3734   21.8538 O   0  0  0  0  0  0  0  0  0  0  0  0
  -31.8180  -14.9240   19.8230 O   0  0  0  0  0  0  0  0  0  0  0  0
  -21.6386   -8.2160   24.4545 O   0  0  0  0  0  0  0  0  0  0  0  0
  -25.9906  -22.8079   21.6611 O   0  0  0  0  0  0  0  0  0  1  0  0
  -16.5776   -6.9605   22.6619 F   0  0  0  0  0  0  0  0  0  0  0  0
  -20.9859   -5.6236   23.7503 F   0  0  0  0  0  0  0  0  0  0  0  0
  1  2  1  0  0  0  0
  1  5  2  0  0  0  0
  2  6  2  0  0  0  0
  3  8  2  0  0  0  0
  3 15  1  0  0  0  0
  4  9  1  0  0  0  0
  4 15  2  0  0  0  0
  5 17  1  0  0  0  0
  6 19  1  0  0  0  0
  7 10  2  0  0  0  0
  7 18  1  0  0  0  0
  8 21  1  0  0  0  0
  9 21  2  0  0  0  0
 10 22  1  0  0  0  0
 11 12  2  0  0  0  0
 11 23  1  0  0  0  0
 12 24  1  0  0  0  0
 13 20  1  0  0  0  0
 13 22  2  0  0  0  0
 14 24  2  0  0  0  0
 14 25  1  0  0  0  0
 15 26  1  0  0  0  0
 16 26  1  0  0  0  0
 16 31  2  0  0  0  0
 16 32  1  0  0  0  0
 17 19  2  0  0  0  0
 17 37  1  0  0  0  0
 18 20  2  0  0  0  0
 18 38  1  0  0  0  0
 19 46  1  0  0  0  0
 20 39  1  0  0  0  0
 21 81  1  0  0  0  0
 22 82  1  0  0  0  0
 23 25  2  0  0  0  0
 23 81  1  0  0  0  0
 24 83  1  0  0  0  0
 25 84  1  0  0  0  0
 26 64  2  0  0  0  0
 27 28  1  0  0  0  0
 27 49  1  0  0  0  0
 27 65  2  0  0  0  0
 28 57  1  0  0  0  0
 28 66  2  0  0  0  0
 29 30  2  0  0  0  0
 29 56  1  0  0  0  0
 29 66  1  0  0  0  0
 30 58  1  0  0  0  0
 30 65  1  0  0  0  0
 31 67  1  0  0  0  0
 31 70  1  0  0  0  0
 32 71  1  0  0  0  0
 32 76  2  0  0  0  0
 33 47  1  0  0  0  0
 33 72  1  0  0  0  0
 33 77  2  0  0  0  0
 34 61  1  0  0  0  0
 34 68  1  0  0  0  0
 34 78  2  0  0  0  0
 35 62  1  0  0  0  0
 35 73  1  0  0  0  0
 35 79  2  0  0  0  0
 36 69  1  0  0  0  0
 36 74  1  0  0  0  0
 36 80  2  0  0  0  0
 37 40  1  0  0  0  0
 38 47  1  0  0  0  0
 39 68  1  0  0  0  0
 40 42  1  0  0  0  0
 41 43  1  0  0  0  0
 41 44  1  0  0  0  0
 42 46  1  0  0  0  0
 43 48  1  0  0  0  0
 44 69  1  0  0  0  0
 45 48  1  0  0  0  0
 45 69  1  0  0  0  0
 46 72  1  0  0  0  0
 47 68  1  0  0  0  0
 48 67  1  0  0  0  0
 50 56  1  0  0  0  0
 51 62  1  0  0  0  0
 52 63  1  0  0  0  0
 53 63  1  0  0  0  0
 54 63  1  0  0  0  0
 55 75  1  0  0  0  0
 57 59  1  0  0  0  0
 58 82  1  0  0  0  0
 59 60  1  0  0  0  0
 60 74  1  0  0  0  0
 61 63  1  0  0  0  0
 61 73  1  0  0  0  0
 62 75  1  0  0  0  0
 64 67  1  0  0  0  0
M  CHG  1  75   1
M  ISO  4  36 100  58 101  74 100  82 101
M  END
> <Batch ID>
0047

> <Smiles>
CCc1nc(CCC[100NH:0][100C:0](=O)N2CCCC(n3nc(-c4ccc(Oc5ccc(F)cc5F)cc4)c(C(N)=O)c3N)C2)c(C)nc1[101CH2:1][101O:1]c1ccc2c(c1)CN(C(=O)C(NC(=O)C(C)NC)C(C)(C)C)C(C(=O)NC1CCCc3ccccc31)C2

> <Shape>
0.273

> <Color>
0.134

> <Negative vol penalty>
0.000

$$$$

  -OEChem-04052317243D

 82 90  0     1  0  0  0  0  0999 V2000
  -36.4820  -23.7900   22.6048 C   0  0  0  0  0  0  0  0  0  0  0  0
  -35.3902  -23.0845   22.1091 C   0  0  0  0  0  0  0  0  0  0  0  0
  -23.0790   -9.8608   19.9490 C   0  0  0  0  0  0  0  0  0  0  0  0
  -23.8394   -9.8796   22.2421 C   0  0  0  0  0  0  0  0  0  0  0  0
  -36.3138  -25.0910   23.0770 C   0  0  0  0  0  0  0  0  0  0  0  0
  -34.1292  -23.6793   22.0863 C   0  0  0  0  0  0  0  0  0  0  0  0
  -31.7024  -22.9211   17.7067 C   0  0  0  0  0  0  0  0  0  0  0  0
  -22.3374   -8.7074   20.2044 C   0  0  0  0  0  0  0  0  0  0  0  0
  -23.0978   -8.7262   22.4976 C   0  0  0  0  0  0  0  0  0  0  0  0
  -31.1096  -21.6739   17.5149 C   0  0  0  0  0  0  0  0  0  0  0  0
  -21.1184   -5.9914   23.8471 C   0  0  0  0  0  0  0  0  0  0  0  0
  -20.3625   -5.9517   25.0187 C   0  0  0  0  0  0  0  0  0  0  0  0
  -28.9673  -22.6067   18.1145 C   0  0  0  0  0  0  0  0  0  0  0  0
  -19.1141   -7.8832   24.2787 C   0  0  0  0  0  0  0  0  0  0  0  0
  -26.4787  -19.0461   20.6546 C   0  0  0  0  0  0  0  0  0  0  0  0
  -23.8301  -10.4469   20.9679 C   0  0  0  0  0  0  0  0  0  0  0  0
  -24.1670  -12.9721   20.8363 C   0  0  0  0  0  0  0  0  0  0  0  0
  -35.0519  -25.7055   23.0511 C   0  0  0  0  0  0  0  0  0  0  0  0
  -30.9327  -24.0198   18.1151 C   0  0  0  0  0  0  0  0  0  0  0  0
  -33.9437  -24.9893   22.5598 C   0  0  0  0  0  0  0  0  0  0  0  0
  -29.5523  -23.8674   18.3083 C   0  0  0  0  0  0  0  0  0  0  0  0
  -22.3467   -8.1401   21.4787 C   0  0  0  0  0  0  0  0  0  0  0  0
  -29.7423  -21.5159   17.7216 C   0  0  0  0  0  0  0  0  0  0  0  0
  -20.8722   -6.9771   22.8913 C   0  0  0  0  0  0  0  0  0  0  0  0
  -19.3603   -6.8976   25.2345 C   0  0  0  0  0  0  0  0  0  0  0  0
  -19.8700   -7.9230   23.1071 C   0  0  0  0  0  0  0  0  0  0  0  0
  -24.5968  -11.6380   20.7045 C   0  0  0  0  0  0  0  0  0  0  0  0
  -27.1438  -19.0621   21.8608 C   0  0  0  0  0  0  0  0  0  0  0  0
  -28.4015  -18.3932   19.6029 C   0  0  0  0  0  0  0  0  0  0  0  0
  -29.0669  -18.4100   20.8089 C   0  0  0  0  0  0  0  0  0  0  0  0
  -25.2577  -13.7220   20.4693 C   0  0  0  0  0  0  0  0  0  0  0  0
  -22.8957  -13.4874   21.2532 C   0  0  0  0  0  0  0  0  0  0  0  0
  -30.9180  -25.9273   20.6577 C   0  0  0  0  0  0  0  0  0  0  0  0
  -28.6718  -27.5328   18.9550 C   0  0  0  0  0  0  0  0  0  0  0  0
  -26.2899  -27.4629   16.5119 C   0  0  0  0  0  0  0  0  0  0  0  0
  -30.7395  -14.7524   20.6516 C   0  0  0  0  0  0  0  0  0  0  0  0
  -34.9102  -27.0967   23.6162 C   0  0  0  0  0  0  0  0  0  0  0  0
  -31.5826  -25.3647   18.2918 C   0  0  0  0  0  0  0  0  0  0  0  0
  -28.6781  -25.0201   18.7274 C   0  0  0  0  0  0  0  0  0  0  0  0
  -33.6119  -27.7895   23.2106 C   0  0  0  0  0  0  0  0  0  0  0  0
  -29.6059  -12.3549   18.2760 C   0  0  0  0  0  0  0  0  0  0  0  0
  -32.4256  -26.8474   23.3895 C   0  0  0  0  0  0  0  0  0  0  0  0
  -28.1691  -12.0604   18.7106 C   0  0  0  0  0  0  0  0  0  0  0  0
  -30.5229  -12.5829   19.4757 C   0  0  0  0  0  0  0  0  0  0  0  0
  -28.6201  -13.3166   20.8594 C   0  0  0  0  0  0  0  0  0  0  0  0
  -32.5647  -25.6092   22.4957 C   0  0  1  0  0  0  0  0  0  0  0  0
  -30.7918  -26.2950   19.2064 C   0  0  1  0  0  0  0  0  0  0  0  0
  -27.6460  -13.1348   19.6828 C   0  0  2  0  0  0  0  0  0  0  0  0
  -26.4297  -19.4362   23.1122 C   0  0  0  0  0  0  0  0  0  0  0  0
  -24.5940  -28.9194   15.3719 C   0  0  0  0  0  0  0  0  0  0  0  0
  -26.8453  -27.3067   21.3887 C   0  0  0  0  0  0  0  0  0  0  0  0
  -24.9151  -27.8986   19.9080 C   0  0  0  0  0  0  0  0  0  0  0  0
  -26.7777  -29.5252   20.2361 C   0  0  0  0  0  0  0  0  0  0  0  0
  -27.5959  -27.1213   13.8781 C   0  0  0  0  0  0  0  0  0  0  0  0
  -29.1043  -18.0165   18.3213 C   0  0  0  0  0  0  0  0  0  0  0  0
  -30.5119  -18.0569   20.9041 C   0  0  0  0  0  0  0  0  0  0  0  0
  -30.8016  -16.9086   21.8787 C   0  0  0  0  0  0  0  0  0  0  0  0
  -29.9698  -19.1493   17.7802 C   0  0  0  0  0  0  0  0  0  1  0  0
  -27.1689  -27.4595   18.8317 C   0  0  1  0  0  0  0  0  0  0  0  0
  -26.0197  -28.3913   15.3416 C   0  0  2  0  0  0  0  0  0  0  0  0
  -26.4433  -28.0251   20.0851 C   0  0  0  0  0  0  0  0  0  0  0  0
  -27.0955  -18.7112   19.5040 N   0  0  0  0  0  0  0  0  0  0  0  0
  -25.8617  -11.5427   20.2864 N   0  0  0  0  0  0  0  0  0  0  0  0
  -28.4499  -18.7444   21.9595 N   0  0  0  0  0  0  0  0  0  0  0  0
  -26.2362  -12.8264   20.1521 N   0  0  0  0  0  0  0  0  0  0  0  0
  -29.3614  -26.3136   18.8934 N   0  0  0  0  0  0  0  0  0  0  0  0
  -29.9706  -13.6144   20.3571 N   0  0  0  0  0  0  0  0  0  0  0  0
  -25.4655  -15.0535   20.3902 N   0  0  0  0  0  0  0  0  0  0  0  0
  -21.8856  -12.5778   21.5949 N   0  0  0  0  0  0  0  0  0  0  0  0
  -32.2172  -25.9314   21.1282 N   0  0  0  0  0  0  0  0  0  0  0  0
  -26.8279  -28.1389   17.5865 N   0  0  0  0  0  0  0  0  0  0  0  0
  -30.1388  -15.6838   21.4896 N   0  0  0  0  0  0  0  0  0  0  0  0
  -26.2277  -27.6734   14.0522 N   0  3  0  0  0  0  0  0  0  0  0  0
  -22.6571  -14.7178   21.3050 O   0  0  0  0  0  0  0  0  0  0  0  0
  -29.9110  -25.6611   21.3034 O   0  0  0  0  0  0  0  0  0  0  0  0
  -29.2143  -28.6319   19.0933 O   0  0  0  0  0  0  0  0  0  0  0  0
  -26.0444  -26.2591   16.4776 O   0  0  0  0  0  0  0  0  0  0  0  0
  -31.8750  -14.9279   20.1969 O   0  0  0  0  0  0  0  0  0  0  0  0
  -21.6230   -7.0147   21.7283 O   0  0  0  0  0  0  0  0  0  0  0  0
  -29.1613  -20.2994   17.5357 O   0  0  0  0  0  0  0  0  0  1  0  0
  -18.6335   -6.8584   26.3589 F   0  0  0  0  0  0  0  0  0  0  0  0
  -19.6281   -8.8716   22.1919 F   0  0  0  0  0  0  0  0  0  0  0  0
  1  2  1  0  0  0  0
  1  5  2  0  0  0  0
  2  6  2  0  0  0  0
  3  8  2  0  0  0  0
  3 16  1  0  0  0  0
  4  9  1  0  0  0  0
  4 16  2  0  0  0  0
  5 18  1  0  0  0  0
  6 20  1  0  0  0  0
  7 10  2  0  0  0  0
  7 19  1  0  0  0  0
  8 22  1  0  0  0  0
  9 22  2  0  0  0  0
 10 23  1  0  0  0  0
 11 12  2  0  0  0  0
 11 24  1  0  0  0  0
 12 25  1  0  0  0  0
 13 21  1  0  0  0  0
 13 23  2  0  0  0  0
 14 25  2  0  0  0  0
 14 26  1  0  0  0  0
 15 28  1  0  0  0  0
 15 62  2  0  0  0  0
 16 27  1  0  0  0  0
 17 27  1  0  0  0  0
 17 31  2  0  0  0  0
 17 32  1  0  0  0  0
 18 20  2  0  0  0  0
 18 37  1  0  0  0  0
 19 21  2  0  0  0  0
 19 38  1  0  0  0  0
 20 46  1  0  0  0  0
 21 39  1  0  0  0  0
 22 79  1  0  0  0  0
 23 80  1  0  0  0  0
 24 26  2  0  0  0  0
 24 79  1  0  0  0  0
 25 81  1  0  0  0  0
 26 82  1  0  0  0  0
 27 63  2  0  0  0  0
 28 49  1  0  0  0  0
 28 64  2  0  0  0  0
 29 30  2  0  0  0  0
 29 55  1  0  0  0  0
 29 62  1  0  0  0  0
 30 56  1  0  0  0  0
 30 64  1  0  0  0  0
 31 65  1  0  0  0  0
 31 68  1  0  0  0  0
 32 69  1  0  0  0  0
 32 74  2  0  0  0  0
 33 47  1  0  0  0  0
 33 70  1  0  0  0  0
 33 75  2  0  0  0  0
 34 59  1  0  0  0  0
 34 66  1  0  0  0  0
 34 76  2  0  0  0  0
 35 60  1  0  0  0  0
 35 71  1  0  0  0  0
 35 77  2  0  0  0  0
 36 67  1  0  0  0  0
 36 72  1  0  0  0  0
 36 78  2  0  0  0  0
 37 40  1  0  0  0  0
 38 47  1  0  0  0  0
 39 66  1  0  0  0  0
 40 42  1  0  0  0  0
 41 43  1  0  0  0  0
 41 44  1  0  0  0  0
 42 46  1  0  0  0  0
 43 48  1  0  0  0  0
 44 67  1  0  0  0  0
 45 48  1  0  0  0  0
 45 67  1  0  0  0  0
 46 70  1  0  0  0  0
 47 66  1  0  0  0  0
 48 65  1  0  0  0  0
 50 60  1  0  0  0  0
 51 61  1  0  0  0  0
 52 61  1  0  0  0  0
 53 61  1  0  0  0  0
 54 73  1  0  0  0  0
 55 58  1  0  0  0  0
 56 57  1  0  0  0  0
 57 72  1  0  0  0  0
 58 80  1  0  0  0  0
 59 61  1  0  0  0  0
 59 71  1  0  0  0  0
 60 73  1  0  0  0  0
 63 65  1  0  0  0  0
M  CHG  1  73   1
M  ISO  4  36 100  58 101  72 100  80 101
M  END
> <Batch ID>
0047

> <Smiles>
CNC(C)C(=O)NC(C(=O)N1Cc2cc([101O:1][101CH2:1]Cc3ncc(C)nc3CC[100NH:0][100C:0](=O)N3CCCC(n4nc(-c5ccc(Oc6ccc(F)cc6F)cc5)c(C(N)=O)c4N)C3)ccc2CC1C(=O)NC1CCCc2ccccc21)C(C)(C)C

> <Shape>
0.295

> <Color>
0.192

> <Negative vol penalty>
0.000

$$$$

  -OEChem-04052317243D

 81 89  0     1  0  0  0  0  0999 V2000
  -18.6203  -23.1576   17.6772 C   0  0  0  0  0  0  0  0  0  0  0  0
  -19.4336  -22.0485   17.4680 C   0  0  0  0  0  0  0  0  0  0  0  0
  -27.6909  -23.4722   20.6134 C   0  0  0  0  0  0  0  0  0  0  0  0
  -29.0269  -23.5214   18.6010 C   0  0  0  0  0  0  0  0  0  0  0  0
  -18.7265  -23.8851   18.8618 C   0  0  0  0  0  0  0  0  0  0  0  0
  -20.3546  -21.6669   18.4431 C   0  0  0  0  0  0  0  0  0  0  0  0
  -22.0576  -15.9588   19.8655 C   0  0  0  0  0  0  0  0  0  0  0  0
  -27.7263  -24.8654   20.6710 C   0  0  0  0  0  0  0  0  0  0  0  0
  -29.0623  -24.9146   18.6585 C   0  0  0  0  0  0  0  0  0  0  0  0
  -23.1642  -15.1923   19.5028 C   0  0  0  0  0  0  0  0  0  0  0  0
  -26.1700  -27.4611   19.1632 C   0  0  0  0  0  0  0  0  0  0  0  0
  -24.9758  -28.1293   19.4333 C   0  0  0  0  0  0  0  0  0  0  0  0
  -24.2733  -15.8378   21.5454 C   0  0  0  0  0  0  0  0  0  0  0  0
  -25.9642  -29.0945   21.4154 C   0  0  0  0  0  0  0  0  0  0  0  0
  -28.9150  -11.7157   20.5248 C   0  0  0  0  0  0  0  0  0  0  0  0
  -28.3413  -22.8002   19.5785 C   0  0  0  0  0  0  0  0  0  0  0  0
  -27.3498  -20.5607   18.8645 C   0  0  0  0  0  0  0  0  0  0  0  0
  -19.6424  -23.5065   19.8560 C   0  0  0  0  0  0  0  0  0  0  0  0
  -22.0549  -16.6806   21.0678 C   0  0  0  0  0  0  0  0  0  0  0  0
  -20.4741  -22.3908   19.6416 C   0  0  0  0  0  0  0  0  0  0  0  0
  -23.1644  -16.6108   21.9223 C   0  0  0  0  0  0  0  0  0  0  0  0
  -28.4120  -25.5866   19.6935 C   0  0  0  0  0  0  0  0  0  0  0  0
  -24.2734  -15.1340   20.3414 C   0  0  0  0  0  0  0  0  0  0  0  0
  -27.2613  -27.6096   20.0192 C   0  0  0  0  0  0  0  0  0  0  0  0
  -28.1177  -13.8507   19.1050 C   0  0  0  0  0  0  0  0  0  0  0  0
  -24.8729  -28.9460   20.5594 C   0  0  0  0  0  0  0  0  0  0  0  0
  -27.1584  -28.4263   21.1452 C   0  0  0  0  0  0  0  0  0  0  0  0
  -28.3055  -21.3610   19.5188 C   0  0  0  0  0  0  0  0  0  0  0  0
  -29.1189  -13.0085   18.6663 C   0  0  0  0  0  0  0  0  0  0  0  0
  -27.5528  -13.5240   20.3209 C   0  0  0  0  0  0  0  0  0  0  0  0
  -27.7594  -19.2718   19.1040 C   0  0  0  0  0  0  0  0  0  0  0  0
  -26.1952  -20.9479   18.1079 C   0  0  0  0  0  0  0  0  0  0  0  0
  -21.8562  -19.7587   21.8358 C   0  0  0  0  0  0  0  0  0  0  0  0
  -21.7305  -18.5948   24.8610 C   0  0  0  0  0  0  0  0  0  0  0  0
  -22.4555  -16.0530   27.0198 C   0  0  0  0  0  0  0  0  0  0  0  0
  -31.7872  -15.4198   19.3952 C   0  0  0  0  0  0  0  0  0  0  0  0
  -19.7542  -24.3519   21.1000 C   0  0  0  0  0  0  0  0  0  0  0  0
  -20.8427  -17.4815   21.4572 C   0  0  0  0  0  0  0  0  0  0  0  0
  -23.2033  -17.3508   23.2335 C   0  0  0  0  0  0  0  0  0  0  0  0
  -20.4931  -23.6598   22.2424 C   0  0  0  0  0  0  0  0  0  0  0  0
  -31.2743  -17.4673   22.2625 C   0  0  0  0  0  0  0  0  0  0  0  0
  -21.7750  -23.0090   21.7323 C   0  0  0  0  0  0  0  0  0  0  0  0
  -30.3830  -18.5994   21.7488 C   0  0  0  0  0  0  0  0  0  0  0  0
  -32.2907  -17.0279   21.2110 C   0  0  0  0  0  0  0  0  0  0  0  0
  -30.8210  -17.7995   19.3894 C   0  0  0  0  0  0  0  0  0  0  0  0
  -21.4678  -21.9308   20.6861 C   0  0  1  0  0  0  0  0  0  0  0  0
  -21.1542  -18.5868   22.4616 C   0  0  1  0  0  0  0  0  0  0  0  0
  -29.7428  -18.2387   20.3948 C   0  0  2  0  0  0  0  0  0  0  0  0
  -22.2645  -15.4067   29.4370 C   0  0  0  0  0  0  0  0  0  0  0  0
  -24.0525  -20.4545   25.5392 C   0  0  0  0  0  0  0  0  0  0  0  0
  -24.4283  -19.1128   27.6193 C   0  0  0  0  0  0  0  0  0  0  0  0
  -22.2731  -20.3254   27.2918 C   0  0  0  0  0  0  0  0  0  0  0  0
  -20.7645  -13.7100   26.3797 C   0  0  0  0  0  0  0  0  0  0  0  0
  -29.8016  -13.2669   17.3637 C   0  0  0  0  0  0  0  0  0  0  0  0
  -26.4571  -14.3724   20.8961 C   0  0  0  0  0  0  0  0  0  1  0  0
  -31.1802  -13.9197   17.5136 C   0  0  0  0  0  0  0  0  0  0  0  0
  -22.7522  -18.2567   25.9197 C   0  0  1  0  0  0  0  0  0  0  0  0
  -21.6107  -15.3475   28.0653 C   0  0  2  0  0  0  0  0  0  0  0  0
  -23.3769  -19.5248   26.5670 C   0  0  0  0  0  0  0  0  0  0  0  0
  -29.5442  -11.9280   19.3532 N   0  0  0  0  0  0  0  0  0  0  0  0
  -27.9284  -12.4596   21.0602 N   0  0  0  0  0  0  0  0  0  0  0  0
  -29.2509  -20.6407   20.1283 N   0  0  0  0  0  0  0  0  0  0  0  0
  -28.8913  -19.3743   19.8581 N   0  0  0  0  0  0  0  0  0  0  0  0
  -21.9964  -18.1252   23.5669 N   0  0  0  0  0  0  0  0  0  0  0  0
  -31.6189  -16.6986   19.9515 N   0  0  0  0  0  0  0  0  0  0  0  0
  -27.2582  -18.0720   18.7411 N   0  0  0  0  0  0  0  0  0  0  0  0
  -25.9207  -22.3143   17.9599 N   0  0  0  0  0  0  0  0  0  0  0  0
  -21.0031  -20.7205   21.3291 N   0  0  0  0  0  0  0  0  0  0  0  0
  -22.0819  -17.3713   26.8658 N   0  0  0  0  0  0  0  0  0  0  0  0
  -31.1107  -15.1884   18.2038 N   0  0  0  0  0  0  0  0  0  0  0  0
  -21.4195  -13.9162   27.6970 N   0  3  0  0  0  0  0  0  0  0  0  0
  -25.4203  -20.1067   17.5926 O   0  0  0  0  0  0  0  0  0  0  0  0
  -23.0811  -19.7888   21.8155 O   0  0  0  0  0  0  0  0  0  0  0  0
  -20.7298  -19.2454   25.1723 O   0  0  0  0  0  0  0  0  0  0  0  0
  -23.3592  -15.4918   26.4041 O   0  0  0  0  0  0  0  0  0  0  0  0
  -32.4841  -14.5472   19.9240 O   0  0  0  0  0  0  0  0  0  0  0  0
  -27.7171  -14.9276   18.3899 O   0  0  0  0  0  0  0  0  0  0  0  0
  -28.4465  -26.9461   19.7492 O   0  0  0  0  0  0  0  0  0  0  0  0
  -25.3551  -14.3870   19.9895 O   0  0  0  0  0  0  0  0  0  1  0  0
  -23.7265  -29.5888   20.8178 F   0  0  0  0  0  0  0  0  0  0  0  0
  -28.2038  -28.5737   21.9706 F   0  0  0  0  0  0  0  0  0  0  0  0
  1  2  1  0  0  0  0
  1  5  2  0  0  0  0
  2  6  2  0  0  0  0
  3  8  2  0  0  0  0
  3 16  1  0  0  0  0
  4  9  1  0  0  0  0
  4 16  2  0  0  0  0
  5 18  1  0  0  0  0
  6 20  1  0  0  0  0
  7 10  2  0  0  0  0
  7 19  1  0  0  0  0
  8 22  1  0  0  0  0
  9 22  2  0  0  0  0
 10 23  1  0  0  0  0
 11 12  2  0  0  0  0
 11 24  1  0  0  0  0
 12 26  1  0  0  0  0
 13 21  1  0  0  0  0
 13 23  2  0  0  0  0
 14 26  2  0  0  0  0
 14 27  1  0  0  0  0
 15 60  1  0  0  0  0
 15 61  2  0  0  0  0
 16 28  1  0  0  0  0
 17 28  1  0  0  0  0
 17 31  2  0  0  0  0
 17 32  1  0  0  0  0
 18 20  2  0  0  0  0
 18 37  1  0  0  0  0
 19 21  2  0  0  0  0
 19 38  1  0  0  0  0
 20 46  1  0  0  0  0
 21 39  1  0  0  0  0
 22 78  1  0  0  0  0
 23 79  1  0  0  0  0
 24 27  2  0  0  0  0
 24 78  1  0  0  0  0
 25 29  1  0  0  0  0
 25 30  2  0  0  0  0
 25 77  1  0  0  0  0
 26 80  1  0  0  0  0
 27 81  1  0  0  0  0
 28 62  2  0  0  0  0
 29 54  1  0  0  0  0
 29 60  2  0  0  0  0
 30 55  1  0  0  0  0
 30 61  1  0  0  0  0
 31 63  1  0  0  0  0
 31 66  1  0  0  0  0
 32 67  1  0  0  0  0
 32 72  2  0  0  0  0
 33 47  1  0  0  0  0
 33 68  1  0  0  0  0
 33 73  2  0  0  0  0
 34 57  1  0  0  0  0
 34 64  1  0  0  0  0
 34 74  2  0  0  0  0
 35 58  1  0  0  0  0
 35 69  1  0  0  0  0
 35 75  2  0  0  0  0
 36 65  1  0  0  0  0
 36 70  1  0  0  0  0
 36 76  2  0  0  0  0
 37 40  1  0  0  0  0
 38 47  1  0  0  0  0
 39 64  1  0  0  0  0
 40 42  1  0  0  0  0
 41 43  1  0  0  0  0
 41 44  1  0  0  0  0
 42 46  1  0  0  0  0
 43 48  1  0  0  0  0
 44 65  1  0  0  0  0
 45 48  1  0  0  0  0
 45 65  1  0  0  0  0
 46 68  1  0  0  0  0
 47 64  1  0  0  0  0
 48 63  1  0  0  0  0
 49 58  1  0  0  0  0
 50 59  1  0  0  0  0
 51 59  1  0  0  0  0
 52 59  1  0  0  0  0
 53 71  1  0  0  0  0
 54 56  1  0  0  0  0
 55 79  1  0  0  0  0
 56 70  1  0  0  0  0
 57 59  1  0  0  0  0
 57 69  1  0  0  0  0
 58 71  1  0  0  0  0
 62 63  1  0  0  0  0
M  CHG  1  71   1
M  ISO  4  36 100  55 101  70 100  79 101
M  END
> <Batch ID>
0047

> <Smiles>
CNC(C)C(=O)NC(C(=O)N1Cc2cc([101O:1][101CH2:1]c3ncnc(CC[100NH:0][100C:0](=O)N4CCCC(n5nc(-c6ccc(Oc7ccc(F)cc7F)cc6)c(C(N)=O)c5N)C4)c3O)ccc2CC1C(=O)NC1CCCc2ccccc21)C(C)(C)C

> <Shape>
0.191

> <Color>
0.085

> <Negative vol penalty>
0.000

$$$$

  -OEChem-04052317243D

 87 95  0     1  0  0  0  0  0999 V2000
  -18.0190  -28.9143   22.3641 C   0  0  0  0  0  0  0  0  0  0  0  0
  -18.5594  -27.7221   21.8929 C   0  0  0  0  0  0  0  0  0  0  0  0
  -22.5490  -10.3210   20.3484 C   0  0  0  0  0  0  0  0  0  0  0  0
  -24.3987   -9.3383   21.5525 C   0  0  0  0  0  0  0  0  0  0  0  0
  -18.8377  -30.0299   22.5352 C   0  0  0  0  0  0  0  0  0  0  0  0
  -19.9186  -27.6451   21.5913 C   0  0  0  0  0  0  0  0  0  0  0  0
  -23.5832  -22.7935   22.3250 C   0  0  0  0  0  0  0  0  0  0  0  0
  -21.8057   -9.1563   20.5395 C   0  0  0  0  0  0  0  0  0  0  0  0
  -23.6554   -8.1736   21.7438 C   0  0  0  0  0  0  0  0  0  0  0  0
  -24.0360  -21.8174   21.4384 C   0  0  0  0  0  0  0  0  0  0  0  0
  -21.1798   -7.1070   23.7819 C   0  0  0  0  0  0  0  0  0  0  0  0
  -21.1886   -6.5360   25.0545 C   0  0  0  0  0  0  0  0  0  0  0  0
  -26.0683  -23.0732   21.1033 C   0  0  0  0  0  0  0  0  0  0  0  0
  -22.1231   -4.5057   24.1370 C   0  0  0  0  0  0  0  0  0  0  0  0
  -23.8455  -10.4120   20.8548 C   0  0  0  0  0  0  0  0  0  0  0  0
  -24.2878  -12.9131   21.0925 C   0  0  0  0  0  0  0  0  0  0  0  0
  -20.2095  -29.9637   22.2447 C   0  0  0  0  0  0  0  0  0  0  0  0
  -24.3662  -23.9241   22.5995 C   0  0  0  0  0  0  0  0  0  0  0  0
  -20.7562  -28.7612   21.7574 C   0  0  0  0  0  0  0  0  0  0  0  0
  -25.6243  -24.0609   21.9957 C   0  0  0  0  0  0  0  0  0  0  0  0
  -22.3589   -8.0826   21.2372 C   0  0  0  0  0  0  0  0  0  0  0  0
  -25.2774  -21.9586   20.8252 C   0  0  0  0  0  0  0  0  0  0  0  0
  -21.6425   -6.3774   22.6868 C   0  0  0  0  0  0  0  0  0  0  0  0
  -21.6603   -5.2354   25.2320 C   0  0  0  0  0  0  0  0  0  0  0  0
  -22.1142   -5.0767   22.8644 C   0  0  0  0  0  0  0  0  0  0  0  0
  -24.6140  -11.6147   20.6572 C   0  0  0  0  0  0  0  0  0  0  0  0
  -25.3316  -13.6932   20.6584 C   0  0  0  0  0  0  0  0  0  0  0  0
  -23.1436  -13.3730   21.8240 C   0  0  0  0  0  0  0  0  0  0  0  0
  -27.4562  -19.3867   19.4935 C   0  0  0  0  0  0  0  0  0  0  0  0
  -24.0051  -27.0556   22.1911 C   0  0  0  0  0  0  0  0  0  0  0  0
  -26.7919  -27.1985   23.8450 C   0  0  0  0  0  0  0  0  0  0  0  0
  -30.9828  -12.3167   19.4563 C   0  0  0  0  0  0  0  0  0  0  0  0
  -29.6712  -25.6414   24.8103 C   0  0  0  0  0  0  0  0  0  0  0  0
  -21.0454  -31.2094   22.4006 C   0  0  0  0  0  0  0  0  0  0  0  0
  -23.8751  -24.9548   23.5787 C   0  0  0  0  0  0  0  0  0  0  0  0
  -26.5120  -25.2458   22.2722 C   0  0  0  0  0  0  0  0  0  0  0  0
  -22.5474  -30.9373   22.4139 C   0  0  0  0  0  0  0  0  0  0  0  0
  -28.6361  -13.9642   17.2188 C   0  0  0  0  0  0  0  0  0  0  0  0
  -22.9279  -29.9875   21.2825 C   0  0  0  0  0  0  0  0  0  0  0  0
  -29.1580  -18.5782   17.9188 C   0  0  0  0  0  0  0  0  0  0  0  0
  -29.2471  -17.9528   20.3683 C   0  0  0  0  0  0  0  0  0  0  0  0
  -27.2993  -13.6362   17.8825 C   0  0  0  0  0  0  0  0  0  0  0  0
  -30.5808  -18.0527   17.7308 C   0  0  0  0  0  0  0  0  0  0  0  0
  -30.6704  -17.4275   20.1847 C   0  0  0  0  0  0  0  0  0  0  0  0
  -29.6308  -12.8152   17.3621 C   0  0  0  0  0  0  0  0  0  0  0  0
  -28.5221  -12.0589   19.4414 C   0  0  0  0  0  0  0  0  0  0  0  0
  -22.2307  -28.6312   21.4428 C   0  0  1  0  0  0  0  0  0  0  0  0
  -28.9273  -19.0453   19.3527 C   0  0  0  0  0  0  0  0  0  0  0  0
  -24.5317  -26.3188   23.3900 C   0  0  1  0  0  0  0  0  0  0  0  0
  -27.5008  -13.2047   19.3457 C   0  0  2  0  0  0  0  0  0  0  0  0
  -30.8987  -16.9592   18.7487 C   0  0  0  0  0  0  0  0  0  0  0  0
  -31.7715  -26.0252   26.1289 C   0  0  0  0  0  0  0  0  0  0  0  0
  -32.7990  -14.2818   16.7529 C   0  0  0  0  0  0  0  0  0  0  0  0
  -33.4352  -12.4846   19.6208 C   0  0  0  0  0  0  0  0  0  0  0  0
  -32.3146  -11.6002   17.5642 C   0  0  0  0  0  0  0  0  0  0  0  0
  -27.9174  -28.8771   21.5591 C   0  0  0  0  0  0  0  0  0  0  0  0
  -30.2130  -28.4255   22.4504 C   0  0  0  0  0  0  0  0  0  0  0  0
  -28.5571  -29.6648   23.8449 C   0  0  0  0  0  0  0  0  0  0  0  0
  -29.0203  -23.4604   26.7019 C   0  0  0  0  0  0  0  0  0  0  0  0
  -33.2689  -17.5620   19.1980 C   0  0  0  0  0  0  0  0  0  0  0  0
  -27.1330  -20.8163   19.8722 C   0  0  0  0  0  0  0  0  0  1  0  0
  -32.5857  -15.1689   19.1138 C   0  0  0  0  0  0  0  0  0  0  0  0
  -28.2558  -27.1817   23.4767 C   0  0  1  0  0  0  0  0  0  0  0  0
  -30.3405  -25.5120   26.1667 C   0  0  2  0  0  0  0  0  0  0  0  0
  -32.0939  -14.1062   18.1088 C   0  0  2  0  0  0  0  0  0  0  0  0
  -32.2320  -12.6540   18.6819 C   0  0  0  0  0  0  0  0  0  0  0  0
  -28.7185  -28.5158   22.8259 C   0  0  0  0  0  0  0  0  0  0  0  0
  -25.7742  -11.5685   19.9970 N   0  0  0  0  0  0  0  0  0  0  0  0
  -26.1861  -12.8476   20.0142 N   0  0  0  0  0  0  0  0  0  0  0  0
  -25.9847  -26.2297   23.2322 N   0  0  0  0  0  0  0  0  0  0  0  0
  -29.7738  -12.4156   18.7672 N   0  0  0  0  0  0  0  0  0  0  0  0
  -25.5927  -15.0131   20.7686 N   0  0  0  0  0  0  0  0  0  0  0  0
  -23.2050  -13.3814   23.2242 N   0  0  0  0  0  0  0  0  0  0  0  0
  -22.8961  -27.8372   22.4533 N   0  0  0  0  0  0  0  0  0  0  0  0
  -28.9789  -26.8281   24.6935 N   0  0  0  0  0  0  0  0  0  0  0  0
  -30.3637  -24.0860   26.5989 N   0  3  0  0  0  0  0  0  0  0  0  0
  -32.3223  -16.5579   18.5944 N   0  3  1  0  0  0  0  0  0  0  0  0
  -22.0919  -13.7493   21.2533 O   0  0  0  0  0  0  0  0  0  0  0  0
  -26.5832  -18.5402   19.3081 O   0  0  0  0  0  0  0  0  0  0  0  0
  -24.5644  -26.9258   21.1085 O   0  0  0  0  0  0  0  0  0  0  0  0
  -26.3811  -28.0358   24.6524 O   0  0  0  0  0  0  0  0  0  0  0  0
  -31.0804  -11.9785   20.6387 O   0  0  0  0  0  0  0  0  0  0  0  0
  -29.7573  -24.7779   23.9399 O   0  0  0  0  0  0  0  0  0  0  0  0
  -21.6339   -6.9460   21.4242 O   0  0  0  0  0  0  0  0  0  0  0  0
  -25.7215  -21.0077   19.9589 O   0  0  0  0  0  0  0  0  0  1  0  0
  -21.6701   -4.6877   26.4544 F   0  0  0  0  0  0  0  0  0  0  0  0
  -22.5612   -4.3713   21.8163 F   0  0  0  0  0  0  0  0  0  0  0  0
  1  2  1  0  0  0  0
  1  5  2  0  0  0  0
  2  6  2  0  0  0  0
  3  8  2  0  0  0  0
  3 15  1  0  0  0  0
  4  9  1  0  0  0  0
  4 15  2  0  0  0  0
  5 17  1  0  0  0  0
  6 19  1  0  0  0  0
  7 10  2  0  0  0  0
  7 18  1  0  0  0  0
  8 21  1  0  0  0  0
  9 21  2  0  0  0  0
 10 22  1  0  0  0  0
 11 12  2  0  0  0  0
 11 23  1  0  0  0  0
 12 24  1  0  0  0  0
 13 20  1  0  0  0  0
 13 22  2  0  0  0  0
 14 24  2  0  0  0  0
 14 25  1  0  0  0  0
 15 26  1  0  0  0  0
 16 26  1  0  0  0  0
 16 27  2  0  0  0  0
 16 28  1  0  0  0  0
 17 19  2  0  0  0  0
 17 34  1  0  0  0  0
 18 20  2  0  0  0  0
 18 35  1  0  0  0  0
 19 47  1  0  0  0  0
 20 36  1  0  0  0  0
 21 84  1  0  0  0  0
 22 85  1  0  0  0  0
 23 25  2  0  0  0  0
 23 84  1  0  0  0  0
 24 86  1  0  0  0  0
 25 87  1  0  0  0  0
 26 68  2  0  0  0  0
 27 69  1  0  0  0  0
 27 72  1  0  0  0  0
 28 73  1  0  0  0  0
 28 78  2  0  0  0  0
 29 48  1  0  0  0  0
 29 61  1  0  0  0  0
 29 79  2  0  0  0  0
 30 49  1  0  0  0  0
 30 74  1  0  0  0  0
 30 80  2  0  0  0  0
 31 63  1  0  0  0  0
 31 70  1  0  0  0  0
 31 81  2  0  0  0  0
 32 66  1  0  0  0  0
 32 71  1  0  0  0  0
 32 82  2  0  0  0  0
 33 64  1  0  0  0  0
 33 75  1  0  0  0  0
 33 83  2  0  0  0  0
 34 37  1  0  0  0  0
 35 49  1  0  0  0  0
 36 70  1  0  0  0  0
 37 39  1  0  0  0  0
 38 42  1  0  0  0  0
 38 45  1  0  0  0  0
 39 47  1  0  0  0  0
 40 43  1  0  0  0  0
 40 48  1  0  0  0  0
 41 44  1  0  0  0  0
 41 48  1  0  0  0  0
 42 50  1  0  0  0  0
 43 51  1  0  0  0  0
 44 51  1  0  0  0  0
 45 71  1  0  0  0  0
 46 50  1  0  0  0  0
 46 71  1  0  0  0  0
 47 74  1  0  0  0  0
 49 70  1  0  0  0  0
 50 69  1  0  0  0  0
 51 77  1  0  0  0  0
 52 64  1  0  0  0  0
 53 65  1  0  0  0  0
 54 66  1  0  0  0  0
 55 66  1  0  0  0  0
 56 67  1  0  0  0  0
 57 67  1  0  0  0  0
 58 67  1  0  0  0  0
 59 76  1  0  0  0  0
 60 77  1  0  0  0  0
 61 85  1  0  0  0  0
 62 65  1  0  0  0  0
 62 77  1  0  0  0  0
 63 67  1  0  0  0  0
 63 75  1  0  0  0  0
 64 76  1  0  0  0  0
 65 66  1  0  0  0  0
 68 69  1  0  0  0  0
M  CHG  2  76   1  77   1
M  ISO  4  32 100  61 101  66 100  85 101
M  END
> <Batch ID>
0047

> <Smiles>
CNC(C)C(=O)NC(C(=O)N1Cc2cc([101O:1][101CH2:1]C(=O)C3CCC(N(C)CC(C)[100C:0](C)(C)[100C:0](=O)N4CCCC(n5nc(-c6ccc(Oc7ccc(F)cc7F)cc6)c(C(N)=O)c5N)C4)CC3)ccc2CC1C(=O)NC1CCCc2ccccc21)C(C)(C)C

> <Shape>
0.279

> <Color>
0.128

> <Negative vol penalty>
0.000

$$$$

  -OEChem-04052317243D

 82 90  0     1  0  0  0  0  0999 V2000
  -28.7273  -11.1418   18.8338 C   0  0  0  0  0  0  0  0  0  0  0  0
  -27.8856  -12.1896   19.1932 C   0  0  0  0  0  0  0  0  0  0  0  0
  -25.7868  -29.5815   21.8532 C   0  0  0  0  0  0  0  0  0  0  0  0
  -23.4476  -29.2020   21.3827 C   0  0  0  0  0  0  0  0  0  0  0  0
  -30.1093  -11.2907   18.9427 C   0  0  0  0  0  0  0  0  0  0  0  0
  -28.4253  -13.3865   19.6627 C   0  0  0  0  0  0  0  0  0  0  0  0
  -26.2363  -17.4524   17.5840 C   0  0  0  0  0  0  0  0  0  0  0  0
  -25.4548  -30.7232   22.5826 C   0  0  0  0  0  0  0  0  0  0  0  0
  -23.1157  -30.3437   22.1121 C   0  0  0  0  0  0  0  0  0  0  0  0
  -24.9892  -17.8282   18.0812 C   0  0  0  0  0  0  0  0  0  0  0  0
  -24.2551  -31.4525   25.6585 C   0  0  0  0  0  0  0  0  0  0  0  0
  -24.8773  -31.6365   26.8932 C   0  0  0  0  0  0  0  0  0  0  0  0
  -26.0436  -19.5378   19.4171 C   0  0  0  0  0  0  0  0  0  0  0  0
  -25.8175  -33.7194   26.1090 C   0  0  0  0  0  0  0  0  0  0  0  0
  -21.1040  -19.7506   17.5317 C   0  0  0  0  0  0  0  0  0  0  0  0
  -24.7831  -28.8209   21.2532 C   0  0  0  0  0  0  0  0  0  0  0  0
  -25.2410  -26.3257   20.9852 C   0  0  0  0  0  0  0  0  0  0  0  0
  -30.6667  -12.4935   19.4047 C   0  0  0  0  0  0  0  0  0  0  0  0
  -27.3995  -18.1104   18.0086 C   0  0  0  0  0  0  0  0  0  0  0  0
  -29.8160  -13.5511   19.7792 C   0  0  0  0  0  0  0  0  0  0  0  0
  -27.3040  -19.1701   18.9219 C   0  0  0  0  0  0  0  0  0  0  0  0
  -24.1193  -31.1042   22.7121 C   0  0  0  0  0  0  0  0  0  0  0  0
  -24.8929  -18.8691   19.0001 C   0  0  0  0  0  0  0  0  0  0  0  0
  -24.4141  -32.4018   24.6490 C   0  0  0  0  0  0  0  0  0  0  0  0
  -25.6585  -32.7700   27.1185 C   0  0  0  0  0  0  0  0  0  0  0  0
  -25.1952  -33.5353   24.8742 C   0  0  0  0  0  0  0  0  0  0  0  0
  -25.1254  -27.6418   20.4991 C   0  0  0  0  0  0  0  0  0  0  0  0
  -21.6816  -20.8794   18.1432 C   0  0  0  0  0  0  0  0  0  0  0  0
  -20.9436  -20.1164   16.2176 C   0  0  0  0  0  0  0  0  0  0  0  0
  -25.5826  -25.5812   19.8827 C   0  0  0  0  0  0  0  0  0  0  0  0
  -25.0559  -25.8212   22.3144 C   0  0  0  0  0  0  0  0  0  0  0  0
  -30.0394  -17.2320   19.5459 C   0  0  0  0  0  0  0  0  0  0  0  0
  -30.9672  -20.2693   18.8856 C   0  0  0  0  0  0  0  0  0  0  0  0
  -30.0678  -23.4805   18.1604 C   0  0  0  0  0  0  0  0  0  0  0  0
  -24.9098  -24.2623   14.5019 C   0  0  0  0  0  0  0  0  0  0  0  0
  -32.1647  -12.5908   19.5500 C   0  0  0  0  0  0  0  0  0  0  0  0
  -28.7345  -17.7107   17.4426 C   0  0  0  0  0  0  0  0  0  0  0  0
  -28.5205  -19.9220   19.3943 C   0  0  0  0  0  0  0  0  0  0  0  0
  -32.6702  -14.0232   19.7019 C   0  0  0  0  0  0  0  0  0  0  0  0
  -27.0271  -27.0240   15.2546 C   0  0  0  0  0  0  0  0  0  0  0  0
  -31.8268  -14.7816   20.7219 C   0  0  0  0  0  0  0  0  0  0  0  0
  -26.7260  -27.3260   16.7237 C   0  0  0  0  0  0  0  0  0  0  0  0
  -25.7742  -26.5838   14.5007 C   0  0  0  0  0  0  0  0  0  0  0  0
  -24.7454  -25.7588   16.5827 C   0  0  0  0  0  0  0  0  0  0  0  0
  -30.3645  -14.8736   20.2694 C   0  0  1  0  0  0  0  0  0  0  0  0
  -29.9057  -18.1108   18.3346 C   0  0  1  0  0  0  0  0  0  0  0  0
  -25.9891  -26.1529   17.3977 C   0  0  2  0  0  0  0  0  0  0  0  0
  -20.3927  -19.3773   15.0669 C   0  0  0  0  0  0  0  0  0  0  0  0
  -30.3528  -25.8916   17.5258 C   0  0  0  0  0  0  0  0  0  0  0  0
  -31.5371  -20.6096   21.8638 C   0  0  0  0  0  0  0  0  0  0  0  0
  -31.5851  -23.0863   21.5005 C   0  0  0  0  0  0  0  0  0  0  0  0
  -33.2495  -21.6263   20.3511 C   0  0  0  0  0  0  0  0  0  0  0  0
  -29.9449  -22.8547   15.2704 C   0  0  0  0  0  0  0  0  0  0  0  0
  -22.0742  -21.0409   19.5917 C   0  0  0  0  0  0  0  0  0  0  0  0
  -22.6352  -21.8913   14.0033 C   0  0  0  0  0  0  0  0  0  0  0  0
  -21.4642  -22.2168   14.9403 C   0  0  0  0  0  0  0  0  0  0  0  0
  -24.0115  -21.9544   14.6622 C   0  0  0  0  0  0  0  0  0  0  0  0
  -23.5120  -20.6065   19.8546 C   0  0  0  0  0  0  0  0  0  1  0  0
  -30.8405  -21.6016   19.5841 C   0  0  1  0  0  0  0  0  0  0  0  0
  -30.5545  -24.4469   17.0958 C   0  0  2  0  0  0  0  0  0  0  0  0
  -31.7801  -21.7157   20.8176 C   0  0  0  0  0  0  0  0  0  0  0  0
  -25.3737  -27.7316   19.1898 N   0  0  0  0  0  0  0  0  0  0  0  0
  -21.8751  -21.8868   17.2878 N   0  0  0  0  0  0  0  0  0  0  0  0
  -21.4167  -21.3923   16.1254 N   0  0  0  0  0  0  0  0  0  0  0  0
  -25.6487  -26.4624   18.8438 N   0  0  0  0  0  0  0  0  0  0  0  0
  -29.8038  -19.4897   18.8166 N   0  0  0  0  0  0  0  0  0  0  0  0
  -25.1236  -25.4675   15.1910 N   0  0  0  0  0  0  0  0  0  0  0  0
  -25.8301  -24.2654   19.7102 N   0  0  0  0  0  0  0  0  0  0  0  0
  -24.7063  -26.7230   23.3287 N   0  0  0  0  0  0  0  0  0  0  0  0
  -30.2131  -15.8927   19.2531 N   0  0  0  0  0  0  0  0  0  0  0  0
  -31.0667  -22.6202   18.5645 N   0  0  0  0  0  0  0  0  0  0  0  0
  -24.2930  -23.2534   15.2315 N   0  0  0  0  0  0  0  0  0  0  0  0
  -29.8147  -24.2285   15.8207 N   0  3  0  0  0  0  0  0  0  0  0  0
  -25.2124  -24.6092   22.5976 O   0  0  0  0  0  0  0  0  0  0  0  0
  -29.9900  -17.7321   20.6636 O   0  0  0  0  0  0  0  0  0  0  0  0
  -32.0563  -19.9358   18.4122 O   0  0  0  0  0  0  0  0  0  0  0  0
  -28.9175  -23.4905   18.5933 O   0  0  0  0  0  0  0  0  0  0  0  0
  -25.2487  -24.0958   13.3252 O   0  0  0  0  0  0  0  0  0  0  0  0
  -23.7950  -32.2181   23.4239 O   0  0  0  0  0  0  0  0  0  0  0  0
  -23.6769  -19.2374   19.4874 O   0  0  0  0  0  0  0  0  0  1  0  0
  -26.2547  -32.9473   28.3048 F   0  0  0  0  0  0  0  0  0  0  0  0
  -25.3507  -34.4514   23.9086 F   0  0  0  0  0  0  0  0  0  0  0  0
  1  2  1  0  0  0  0
  1  5  2  0  0  0  0
  2  6  2  0  0  0  0
  3  8  2  0  0  0  0
  3 16  1  0  0  0  0
  4  9  1  0  0  0  0
  4 16  2  0  0  0  0
  5 18  1  0  0  0  0
  6 20  1  0  0  0  0
  7 10  2  0  0  0  0
  7 19  1  0  0  0  0
  8 22  1  0  0  0  0
  9 22  2  0  0  0  0
 10 23  1  0  0  0  0
 11 12  2  0  0  0  0
 11 24  1  0  0  0  0
 12 25  1  0  0  0  0
 13 21  1  0  0  0  0
 13 23  2  0  0  0  0
 14 25  2  0  0  0  0
 14 26  1  0  0  0  0
 15 28  1  0  0  0  0
 15 29  2  0  0  0  0
 16 27  1  0  0  0  0
 17 27  1  0  0  0  0
 17 30  2  0  0  0  0
 17 31  1  0  0  0  0
 18 20  2  0  0  0  0
 18 36  1  0  0  0  0
 19 21  2  0  0  0  0
 19 37  1  0  0  0  0
 20 45  1  0  0  0  0
 21 38  1  0  0  0  0
 22 79  1  0  0  0  0
 23 80  1  0  0  0  0
 24 26  2  0  0  0  0
 24 79  1  0  0  0  0
 25 81  1  0  0  0  0
 26 82  1  0  0  0  0
 27 62  2  0  0  0  0
 28 54  1  0  0  0  0
 28 63  2  0  0  0  0
 29 48  1  0  0  0  0
 29 64  1  0  0  0  0
 30 65  1  0  0  0  0
 30 68  1  0  0  0  0
 31 69  1  0  0  0  0
 31 74  2  0  0  0  0
 32 46  1  0  0  0  0
 32 70  1  0  0  0  0
 32 75  2  0  0  0  0
 33 59  1  0  0  0  0
 33 66  1  0  0  0  0
 33 76  2  0  0  0  0
 34 60  1  0  0  0  0
 34 71  1  0  0  0  0
 34 77  2  0  0  0  0
 35 67  1  0  0  0  0
 35 72  1  0  0  0  0
 35 78  2  0  0  0  0
 36 39  1  0  0  0  0
 37 46  1  0  0  0  0
 38 66  1  0  0  0  0
 39 41  1  0  0  0  0
 40 42  1  0  0  0  0
 40 43  1  0  0  0  0
 41 45  1  0  0  0  0
 42 47  1  0  0  0  0
 43 67  1  0  0  0  0
 44 47  1  0  0  0  0
 44 67  1  0  0  0  0
 45 70  1  0  0  0  0
 46 66  1  0  0  0  0
 47 65  1  0  0  0  0
 49 60  1  0  0  0  0
 50 61  1  0  0  0  0
 51 61  1  0  0  0  0
 52 61  1  0  0  0  0
 53 73  1  0  0  0  0
 54 58  1  0  0  0  0
 55 56  1  0  0  0  0
 55 57  1  0  0  0  0
 56 64  1  0  0  0  0
 57 72  1  0  0  0  0
 58 80  1  0  0  0  0
 59 61  1  0  0  0  0
 59 71  1  0  0  0  0
 60 73  1  0  0  0  0
 62 65  1  0  0  0  0
 63 64  1  0  0  0  0
M  CHG  1  73   1
M  ISO  4  35 100  58 101  72 100  80 101
M  END
> <Batch ID>
0047

> <Smiles>
CNC(C)C(=O)NC(C(=O)N1Cc2cc([101O:1][101CH2:1]Cc3cc(C)n(CCC[100NH:0][100C:0](=O)N4CCCC(n5nc(-c6ccc(Oc7ccc(F)cc7F)cc6)c(C(N)=O)c5N)C4)n3)ccc2CC1C(=O)NC1CCCc2ccccc21)C(C)(C)C

> <Shape>
0.210

> <Color>
0.062

> <Negative vol penalty>
0.000

$$$$

  -OEChem-04052317243D

 80 88  0     1  0  0  0  0  0999 V2000
  -29.4608  -13.5120   21.3774 C   0  0  0  0  0  0  0  0  0  0  0  0
  -29.5324  -14.7694   20.7863 C   0  0  0  0  0  0  0  0  0  0  0  0
  -23.3292  -28.8111   22.1655 C   0  0  0  0  0  0  0  0  0  0  0  0
  -23.1468  -29.9196   20.0265 C   0  0  0  0  0  0  0  0  0  0  0  0
  -28.2542  -12.8134   21.3832 C   0  0  0  0  0  0  0  0  0  0  0  0
  -28.3975  -15.3285   20.1998 C   0  0  0  0  0  0  0  0  0  0  0  0
  -27.7754  -20.2014   21.4298 C   0  0  0  0  0  0  0  0  0  0  0  0
  -31.8630  -24.6904   16.6566 C   0  0  0  0  0  0  0  0  0  0  0  0
  -22.0433  -29.2383   22.4965 C   0  0  0  0  0  0  0  0  0  0  0  0
  -21.8608  -30.3467   20.3575 C   0  0  0  0  0  0  0  0  0  0  0  0
  -28.5701  -21.1328   20.7630 C   0  0  0  0  0  0  0  0  0  0  0  0
  -18.8610  -28.3365   21.7945 C   0  0  0  0  0  0  0  0  0  0  0  0
  -17.9968  -27.4053   22.3704 C   0  0  0  0  0  0  0  0  0  0  0  0
  -31.2398  -23.6876   17.3911 C   0  0  0  0  0  0  0  0  0  0  0  0
  -26.7244  -21.6498   19.2982 C   0  0  0  0  0  0  0  0  0  0  0  0
  -17.8037  -28.7991   24.3343 C   0  0  0  0  0  0  0  0  0  0  0  0
  -31.6173  -26.1404   18.5257 C   0  0  0  0  0  0  0  0  0  0  0  0
  -23.8810  -29.1518   20.9305 C   0  0  0  0  0  0  0  0  0  0  0  0
  -25.6670  -27.3833   20.4944 C   0  0  0  0  0  0  0  0  0  0  0  0
  -27.1017  -13.3684   20.8050 C   0  0  0  0  0  0  0  0  0  0  0  0
  -26.4504  -19.9789   21.0282 C   0  0  0  0  0  0  0  0  0  0  0  0
  -27.1747  -14.6361   20.1968 C   0  0  0  0  0  0  0  0  0  0  0  0
  -25.9142  -20.7168   19.9632 C   0  0  0  0  0  0  0  0  0  0  0  0
  -32.0591  -25.9430   17.2274 C   0  0  0  0  0  0  0  0  0  0  0  0
  -21.3091  -30.0060   21.5926 C   0  0  0  0  0  0  0  0  0  0  0  0
  -28.0455  -21.8551   19.6952 C   0  0  0  0  0  0  0  0  0  0  0  0
  -19.1967  -29.4989   22.4886 C   0  0  0  0  0  0  0  0  0  0  0  0
  -17.4681  -27.6366   23.6403 C   0  0  0  0  0  0  0  0  0  0  0  0
  -18.6680  -29.7303   23.7585 C   0  0  0  0  0  0  0  0  0  0  0  0
  -25.2095  -28.7114   20.5882 C   0  0  0  0  0  0  0  0  0  0  0  0
  -30.8349  -23.9860   18.6822 C   0  0  0  0  0  0  0  0  0  0  0  0
  -26.9894  -27.4999   20.1421 C   0  0  0  0  0  0  0  0  0  0  0  0
  -24.9598  -26.1543   20.7067 C   0  0  0  0  0  0  0  0  0  0  0  0
  -24.8366  -17.4821   19.9033 C   0  0  0  0  0  0  0  0  0  0  0  0
  -22.3010  -19.4842   20.1943 C   0  0  0  0  0  0  0  0  0  0  0  0
  -21.1442  -22.6914   20.3447 C   0  0  0  0  0  0  0  0  0  0  0  0
  -31.0178  -29.8263   17.0591 C   0  0  0  0  0  0  0  0  0  0  0  0
  -25.8315  -12.5552   20.7941 C   0  0  0  0  0  0  0  0  0  0  0  0
  -25.5980  -18.9898   21.7749 C   0  0  0  0  0  0  0  0  0  0  0  0
  -24.4914  -20.5299   19.5059 C   0  0  0  0  0  0  0  0  0  0  0  0
  -24.5842  -13.3781   20.4820 C   0  0  0  0  0  0  0  0  0  0  0  0
  -30.0165  -31.5502   20.0090 C   0  0  0  0  0  0  0  0  0  0  0  0
  -24.8314  -14.2887   19.2835 C   0  0  0  0  0  0  0  0  0  0  0  0
  -28.7118  -30.8601   20.4109 C   0  0  0  0  0  0  0  0  0  0  0  0
  -30.1559  -31.6540   18.4918 C   0  0  0  0  0  0  0  0  0  0  0  0
  -28.7062  -29.6872   18.1697 C   0  0  0  0  0  0  0  0  0  0  0  0
  -25.9594  -15.2866   19.5722 C   0  0  1  0  0  0  0  0  0  0  0  0
  -24.4211  -18.4744   20.9524 C   0  0  1  0  0  0  0  0  0  0  0  0
  -28.5467  -29.5091   19.6893 C   0  0  2  0  0  0  0  0  0  0  0  0
  -19.0198  -24.0118   20.5462 C   0  0  0  0  0  0  0  0  0  0  0  0
  -21.6623  -18.8986   17.2687 C   0  0  0  0  0  0  0  0  0  0  0  0
  -20.1704  -20.9091   17.2643 C   0  0  0  0  0  0  0  0  0  0  0  0
  -19.6674  -18.9882   18.7743 C   0  0  0  0  0  0  0  0  0  0  0  0
  -22.0196  -23.9318   22.8852 C   0  0  0  0  0  0  0  0  0  0  0  0
  -32.7220  -27.0364   16.4676 C   0  0  0  0  0  0  0  0  0  0  0  0
  -30.1595  -22.9277   19.5040 C   0  0  0  0  0  0  0  0  0  1  0  0
  -31.7483  -27.9087   15.6631 C   0  0  0  0  0  0  0  0  0  0  0  0
  -21.6288  -20.4954   19.2973 C   0  0  1  0  0  0  0  0  0  0  0  0
  -20.1757  -23.3692   21.2970 C   0  0  2  0  0  0  0  0  0  0  0  0
  -20.8097  -19.8252   18.1583 C   0  0  0  0  0  0  0  0  0  0  0  0
  -31.0080  -25.1908   19.2704 N   0  0  0  0  0  0  0  0  0  0  0  0
  -26.1638  -29.6058   20.3175 N   0  0  0  0  0  0  0  0  0  0  0  0
  -27.2342  -28.8384   20.0502 N   0  0  0  0  0  0  0  0  0  0  0  0
  -23.6999  -19.5468   20.2639 N   0  0  0  0  0  0  0  0  0  0  0  0
  -29.9906  -30.3387   17.8685 N   0  0  0  0  0  0  0  0  0  0  0  0
  -27.9552  -26.5868   19.9052 N   0  0  0  0  0  0  0  0  0  0  0  0
  -24.3153  -25.5571   19.6148 N   0  0  0  0  0  0  0  0  0  0  0  0
  -25.4777  -16.3663   20.4068 N   0  0  0  0  0  0  0  0  0  0  0  0
  -20.8413  -21.3573   20.1721 N   0  0  0  0  0  0  0  0  0  0  0  0
  -30.7830  -28.5707   16.5121 N   0  0  0  0  0  0  0  0  0  0  0  0
  -20.8742  -24.4278   22.0796 N   0  3  0  0  0  0  0  0  0  0  0  0
  -24.8874  -25.6106   21.8348 O   0  0  0  0  0  0  0  0  0  0  0  0
  -24.5922  -17.7111   18.7245 O   0  0  0  0  0  0  0  0  0  0  0  0
  -21.6098  -18.6734   20.8160 O   0  0  0  0  0  0  0  0  0  0  0  0
  -22.0741  -23.2867   19.8048 O   0  0  0  0  0  0  0  0  0  0  0  0
  -32.0688  -30.4397   16.8445 O   0  0  0  0  0  0  0  0  0  0  0  0
  -20.0542  -30.4228   21.9152 O   0  0  0  0  0  0  0  0  0  0  0  0
  -28.8192  -22.7645   19.0421 O   0  0  0  0  0  0  0  0  0  1  0  0
  -16.6370  -26.7431   24.1925 F   0  0  0  0  0  0  0  0  0  0  0  0
  -18.9859  -30.8458   24.4296 F   0  0  0  0  0  0  0  0  0  0  0  0
  1  2  1  0  0  0  0
  1  5  2  0  0  0  0
  2  6  2  0  0  0  0
  3  9  2  0  0  0  0
  3 18  1  0  0  0  0
  4 10  1  0  0  0  0
  4 18  2  0  0  0  0
  5 20  1  0  0  0  0
  6 22  1  0  0  0  0
  7 11  2  0  0  0  0
  7 21  1  0  0  0  0
  8 14  2  0  0  0  0
  8 24  1  0  0  0  0
  9 25  1  0  0  0  0
 10 25  2  0  0  0  0
 11 26  1  0  0  0  0
 12 13  2  0  0  0  0
 12 27  1  0  0  0  0
 13 28  1  0  0  0  0
 14 31  1  0  0  0  0
 15 23  1  0  0  0  0
 15 26  2  0  0  0  0
 16 28  2  0  0  0  0
 16 29  1  0  0  0  0
 17 24  2  0  0  0  0
 17 61  1  0  0  0  0
 18 30  1  0  0  0  0
 19 30  1  0  0  0  0
 19 32  2  0  0  0  0
 19 33  1  0  0  0  0
 20 22  2  0  0  0  0
 20 38  1  0  0  0  0
 21 23  2  0  0  0  0
 21 39  1  0  0  0  0
 22 47  1  0  0  0  0
 23 40  1  0  0  0  0
 24 55  1  0  0  0  0
 25 77  1  0  0  0  0
 26 78  1  0  0  0  0
 27 29  2  0  0  0  0
 27 77  1  0  0  0  0
 28 79  1  0  0  0  0
 29 80  1  0  0  0  0
 30 62  2  0  0  0  0
 31 56  1  0  0  0  0
 31 61  2  0  0  0  0
 32 63  1  0  0  0  0
 32 66  1  0  0  0  0
 33 67  1  0  0  0  0
 33 72  2  0  0  0  0
 34 48  1  0  0  0  0
 34 68  1  0  0  0  0
 34 73  2  0  0  0  0
 35 58  1  0  0  0  0
 35 64  1  0  0  0  0
 35 74  2  0  0  0  0
 36 59  1  0  0  0  0
 36 69  1  0  0  0  0
 36 75  2  0  0  0  0
 37 65  1  0  0  0  0
 37 70  1  0  0  0  0
 37 76  2  0  0  0  0
 38 41  1  0  0  0  0
 39 48  1  0  0  0  0
 40 64  1  0  0  0  0
 41 43  1  0  0  0  0
 42 44  1  0  0  0  0
 42 45  1  0  0  0  0
 43 47  1  0  0  0  0
 44 49  1  0  0  0  0
 45 65  1  0  0  0  0
 46 49  1  0  0  0  0
 46 65  1  0  0  0  0
 47 68  1  0  0  0  0
 48 64  1  0  0  0  0
 49 63  1  0  0  0  0
 50 59  1  0  0  0  0
 51 60  1  0  0  0  0
 52 60  1  0  0  0  0
 53 60  1  0  0  0  0
 54 71  1  0  0  0  0
 55 57  1  0  0  0  0
 56 78  1  0  0  0  0
 57 70  1  0  0  0  0
 58 60  1  0  0  0  0
 58 69  1  0  0  0  0
 59 71  1  0  0  0  0
 62 63  1  0  0  0  0
M  CHG  1  71   1
M  ISO  4  37 100  56 101  70 100  78 101
M  END
> <Batch ID>
0047

> <Smiles>
CNC(C)C(=O)NC(C(=O)N1Cc2cc([101O:1][101CH2:1]c3ccc(CC[100NH:0][100C:0](=O)N4CCCC(n5nc(-c6ccc(Oc7ccc(F)cc7F)cc6)c(C(N)=O)c5N)C4)cn3)ccc2CC1C(=O)NC1CCCc2ccccc21)C(C)(C)C

> <Shape>
0.212

> <Color>
0.085

> <Negative vol penalty>
0.000

$$$$

  -OEChem-04052317243D

 85 93  0     1  0  0  0  0  0999 V2000
  -32.5331  -24.8168   16.9806 C   0  0  0  0  0  0  0  0  0  0  0  0
  -31.5644  -24.5373   17.9393 C   0  0  0  0  0  0  0  0  0  0  0  0
  -24.3971   -9.4899   21.1701 C   0  0  0  0  0  0  0  0  0  0  0  0
  -25.0306  -10.4517   23.2940 C   0  0  0  0  0  0  0  0  0  0  0  0
  -32.9984  -26.1214   16.8212 C   0  0  0  0  0  0  0  0  0  0  0  0
  -31.0613  -25.5622   18.7398 C   0  0  0  0  0  0  0  0  0  0  0  0
  -26.0195  -25.3859   19.1804 C   0  0  0  0  0  0  0  0  0  0  0  0
  -24.2444   -8.2446   21.7796 C   0  0  0  0  0  0  0  0  0  0  0  0
  -24.8778   -9.2063   23.9035 C   0  0  0  0  0  0  0  0  0  0  0  0
  -25.4900  -24.4459   20.0635 C   0  0  0  0  0  0  0  0  0  0  0  0
  -23.3384   -4.8893   22.8455 C   0  0  0  0  0  0  0  0  0  0  0  0
  -22.2020   -4.1461   22.5264 C   0  0  0  0  0  0  0  0  0  0  0  0
  -25.2045  -26.1740   21.7223 C   0  0  0  0  0  0  0  0  0  0  0  0
  -20.8017   -5.9260   23.3678 C   0  0  0  0  0  0  0  0  0  0  0  0
  -23.5350  -19.2727   22.8152 C   0  0  0  0  0  0  0  0  0  0  0  0
  -22.8555  -19.2095   20.7198 C   0  0  0  0  0  0  0  0  0  0  0  0
  -24.7902  -10.5935   21.9273 C   0  0  0  0  0  0  0  0  0  0  0  0
  -23.9663  -12.8759   21.1405 C   0  0  0  0  0  0  0  0  0  0  0  0
  -32.4937  -27.1645   17.6136 C   0  0  0  0  0  0  0  0  0  0  0  0
  -26.1558  -26.7272   19.5662 C   0  0  0  0  0  0  0  0  0  0  0  0
  -31.5212  -26.8817   18.5918 C   0  0  0  0  0  0  0  0  0  0  0  0
  -25.7336  -27.1295   20.8413 C   0  0  0  0  0  0  0  0  0  0  0  0
  -24.4848   -8.1028   23.1462 C   0  0  0  0  0  0  0  0  0  0  0  0
  -25.0851  -24.8393   21.3357 C   0  0  0  0  0  0  0  0  0  0  0  0
  -23.2065   -6.1508   23.4258 C   0  0  0  0  0  0  0  0  0  0  0  0
  -20.9337   -4.6644   22.7875 C   0  0  0  0  0  0  0  0  0  0  0  0
  -21.9381   -6.6692   23.6869 C   0  0  0  0  0  0  0  0  0  0  0  0
  -24.9486  -11.8800   21.2982 C   0  0  0  0  0  0  0  0  0  0  0  0
  -24.0543  -18.1868   22.1507 C   0  0  0  0  0  0  0  0  0  0  0  0
  -24.6132  -13.8959   20.4866 C   0  0  0  0  0  0  0  0  0  0  0  0
  -22.5918  -12.8788   21.5486 C   0  0  0  0  0  0  0  0  0  0  0  0
  -28.6055  -28.7213   19.9212 C   0  0  0  0  0  0  0  0  0  0  0  0
  -26.2557  -30.8969   20.4384 C   0  0  0  0  0  0  0  0  0  0  0  0
  -23.0386  -31.5145   21.3952 C   0  0  0  0  0  0  0  0  0  0  0  0
  -29.2927  -17.1188   20.3068 C   0  0  0  0  0  0  0  0  0  0  0  0
  -33.0617  -28.5504   17.4370 C   0  0  0  0  0  0  0  0  0  0  0  0
  -26.7040  -27.7340   18.5924 C   0  0  0  0  0  0  0  0  0  0  0  0
  -25.8399  -28.5612   21.2968 C   0  0  0  0  0  0  0  0  0  0  0  0
  -32.2056  -29.6447   18.0696 C   0  0  0  0  0  0  0  0  0  0  0  0
  -29.1354  -14.0482   18.2457 C   0  0  0  0  0  0  0  0  0  0  0  0
  -31.7857  -29.2452   19.4806 C   0  0  0  0  0  0  0  0  0  0  0  0
  -27.9947  -13.2680   18.8969 C   0  0  0  0  0  0  0  0  0  0  0  0
  -29.8418  -14.9598   19.2445 C   0  0  0  0  0  0  0  0  0  0  0  0
  -27.7875  -15.1104   20.6125 C   0  0  0  0  0  0  0  0  0  0  0  0
  -30.9330  -27.9708   19.4624 C   0  0  1  0  0  0  0  0  0  0  0  0
  -27.2738  -28.9747   19.2731 C   0  0  1  0  0  0  0  0  0  0  0  0
  -27.0251  -14.2170   19.6225 C   0  0  2  0  0  0  0  0  0  0  0  0
  -28.7873  -21.7099   20.6414 C   0  0  0  0  0  0  0  0  0  0  0  0
  -21.4166  -33.3954   21.7538 C   0  0  0  0  0  0  0  0  0  0  0  0
  -27.6603  -31.6065   23.0526 C   0  0  0  0  0  0  0  0  0  0  0  0
  -25.5586  -32.7495   23.7905 C   0  0  0  0  0  0  0  0  0  0  0  0
  -26.7800  -33.5682   21.7754 C   0  0  0  0  0  0  0  0  0  0  0  0
  -21.1853  -30.4621   19.3417 C   0  0  0  0  0  0  0  0  0  0  0  0
  -24.9532  -17.1455   22.6713 C   0  0  0  0  0  0  0  0  0  0  0  0
  -28.3861  -20.2907   20.2639 C   0  0  0  0  0  0  0  0  0  0  0  0
  -26.4664  -17.4466   22.5215 C   0  0  0  0  0  0  0  0  0  0  0  0
  -22.8032  -22.3541   22.6200 C   0  0  0  0  0  0  0  0  0  0  0  0
  -21.9702  -21.1779   22.1060 C   0  0  0  0  0  0  0  0  0  0  0  0
  -28.7156  -19.2761   21.3523 C   0  0  0  0  0  0  0  0  0  0  0  0
  -26.9294  -17.5974   21.0740 C   0  0  0  0  0  0  0  0  0  0  0  0
  -23.8671  -22.8182   21.6321 C   0  0  0  0  0  0  0  0  0  1  0  0
  -25.5030  -31.3897   21.6507 C   0  0  1  0  0  0  0  0  0  0  0  0
  -21.9472  -32.3644   20.7698 C   0  0  2  0  0  0  0  0  0  0  0  0
  -26.3751  -32.3011   22.5597 C   0  0  0  0  0  0  0  0  0  0  0  0
  -23.6278  -18.1533   20.8466 N   0  0  0  0  0  0  0  0  0  0  0  0
  -26.1298  -12.2351   20.7857 N   0  0  0  0  0  0  0  0  0  0  0  0
  -22.7696  -19.9185   21.8856 N   0  0  0  0  0  0  0  0  0  0  0  0
  -25.8938  -13.4656   20.2994 N   0  0  0  0  0  0  0  0  0  0  0  0
  -26.3883  -29.5070   20.3108 N   0  0  0  0  0  0  0  0  0  0  0  0
  -28.8923  -15.8205   19.9508 N   0  0  0  0  0  0  0  0  0  0  0  0
  -24.2059  -15.1099   20.0591 N   0  0  0  0  0  0  0  0  0  0  0  0
  -22.0886  -11.7498   22.2091 N   0  0  0  0  0  0  0  0  0  0  0  0
  -29.5796  -28.2741   19.0490 N   0  0  0  0  0  0  0  0  0  0  0  0
  -24.2930  -32.0305   21.1472 N   0  0  0  0  0  0  0  0  0  0  0  0
  -28.3514  -17.9184   20.9727 N   0  0  0  0  0  0  0  0  0  0  0  0
  -20.8109  -31.5065   20.3296 N   0  3  0  0  0  0  0  0  0  0  0  0
  -21.8281  -13.8471   21.3193 O   0  0  0  0  0  0  0  0  0  0  0  0
  -28.7397  -28.9184   21.1232 O   0  0  0  0  0  0  0  0  0  0  0  0
  -26.7032  -31.7148   19.6307 O   0  0  0  0  0  0  0  0  0  0  0  0
  -22.8018  -30.4968   22.0423 O   0  0  0  0  0  0  0  0  0  0  0  0
  -30.4235  -17.5427   20.0358 O   0  0  0  0  0  0  0  0  0  0  0  0
  -24.3356   -6.8878   23.7413 O   0  0  0  0  0  0  0  0  0  0  0  0
  -24.5685  -23.9237   22.1998 O   0  0  0  0  0  0  0  0  0  1  0  0
  -19.8424   -3.9513   22.4796 F   0  0  0  0  0  0  0  0  0  0  0  0
  -21.8050   -7.8811   24.2432 F   0  0  0  0  0  0  0  0  0  0  0  0
  1  2  1  0  0  0  0
  1  5  2  0  0  0  0
  2  6  2  0  0  0  0
  3  8  2  0  0  0  0
  3 17  1  0  0  0  0
  4  9  1  0  0  0  0
  4 17  2  0  0  0  0
  5 19  1  0  0  0  0
  6 21  1  0  0  0  0
  7 10  2  0  0  0  0
  7 20  1  0  0  0  0
  8 23  1  0  0  0  0
  9 23  2  0  0  0  0
 10 24  1  0  0  0  0
 11 12  2  0  0  0  0
 11 25  1  0  0  0  0
 12 26  1  0  0  0  0
 13 22  1  0  0  0  0
 13 24  2  0  0  0  0
 14 26  2  0  0  0  0
 14 27  1  0  0  0  0
 15 29  2  0  0  0  0
 15 67  1  0  0  0  0
 16 65  2  0  0  0  0
 16 67  1  0  0  0  0
 17 28  1  0  0  0  0
 18 28  1  0  0  0  0
 18 30  2  0  0  0  0
 18 31  1  0  0  0  0
 19 21  2  0  0  0  0
 19 36  1  0  0  0  0
 20 22  2  0  0  0  0
 20 37  1  0  0  0  0
 21 45  1  0  0  0  0
 22 38  1  0  0  0  0
 23 82  1  0  0  0  0
 24 83  1  0  0  0  0
 25 27  2  0  0  0  0
 25 82  1  0  0  0  0
 26 84  1  0  0  0  0
 27 85  1  0  0  0  0
 28 66  2  0  0  0  0
 29 54  1  0  0  0  0
 29 65  1  0  0  0  0
 30 68  1  0  0  0  0
 30 71  1  0  0  0  0
 31 72  1  0  0  0  0
 31 77  2  0  0  0  0
 32 46  1  0  0  0  0
 32 73  1  0  0  0  0
 32 78  2  0  0  0  0
 33 62  1  0  0  0  0
 33 69  1  0  0  0  0
 33 79  2  0  0  0  0
 34 63  1  0  0  0  0
 34 74  1  0  0  0  0
 34 80  2  0  0  0  0
 35 70  1  0  0  0  0
 35 75  1  0  0  0  0
 35 81  2  0  0  0  0
 36 39  1  0  0  0  0
 37 46  1  0  0  0  0
 38 69  1  0  0  0  0
 39 41  1  0  0  0  0
 40 42  1  0  0  0  0
 40 43  1  0  0  0  0
 41 45  1  0  0  0  0
 42 47  1  0  0  0  0
 43 70  1  0  0  0  0
 44 47  1  0  0  0  0
 44 70  1  0  0  0  0
 45 73  1  0  0  0  0
 46 69  1  0  0  0  0
 47 68  1  0  0  0  0
 48 55  1  0  0  0  0
 49 63  1  0  0  0  0
 50 64  1  0  0  0  0
 51 64  1  0  0  0  0
 52 64  1  0  0  0  0
 53 76  1  0  0  0  0
 54 56  1  0  0  0  0
 55 59  1  0  0  0  0
 56 60  1  0  0  0  0
 57 58  1  0  0  0  0
 57 61  1  0  0  0  0
 58 67  1  0  0  0  0
 59 75  1  0  0  0  0
 60 75  1  0  0  0  0
 61 83  1  0  0  0  0
 62 64  1  0  0  0  0
 62 74  1  0  0  0  0
 63 76  1  0  0  0  0
 66 68  1  0  0  0  0
M  CHG  1  76   1
M  ISO  4  35 100  61 101  75 100  83 101
M  END
> <Batch ID>
0047

> <Smiles>
CCC[100N:0](CCCc1cn(CC[101CH2:1][101O:1]c2ccc3c(c2)CN(C(=O)C(NC(=O)C(C)NC)C(C)(C)C)C(C(=O)NC2CCCc4ccccc42)C3)cn1)[100C:0](=O)N1CCCC(n2nc(-c3ccc(Oc4ccc(F)cc4F)cc3)c(C(N)=O)c2N)C1

> <Shape>
0.271

> <Color>
0.101

> <Negative vol penalty>
0.000

$$$$

  -OEChem-04052317243D

 81 89  0     1  0  0  0  0  0999 V2000
  -18.2267  -33.0782   21.3791 C   0  0  0  0  0  0  0  0  0  0  0  0
  -19.5302  -32.9564   20.9083 C   0  0  0  0  0  0  0  0  0  0  0  0
  -28.0307  -14.0160   21.9000 C   0  0  0  0  0  0  0  0  0  0  0  0
  -27.5920  -14.5855   19.5934 C   0  0  0  0  0  0  0  0  0  0  0  0
  -17.8253  -32.3659   22.5084 C   0  0  0  0  0  0  0  0  0  0  0  0
  -20.4333  -32.1231   21.5674 C   0  0  0  0  0  0  0  0  0  0  0  0
  -24.8945  -28.7862   19.0239 C   0  0  0  0  0  0  0  0  0  0  0  0
  -27.1163  -12.9662   21.8147 C   0  0  0  0  0  0  0  0  0  0  0  0
  -26.6776  -13.5357   19.5081 C   0  0  0  0  0  0  0  0  0  0  0  0
  -26.2636  -29.0058   18.8788 C   0  0  0  0  0  0  0  0  0  0  0  0
  -24.6300  -10.3589   22.3091 C   0  0  0  0  0  0  0  0  0  0  0  0
  -23.7234  -10.1999   23.3571 C   0  0  0  0  0  0  0  0  0  0  0  0
  -26.6765  -27.7078   20.8698 C   0  0  0  0  0  0  0  0  0  0  0  0
  -22.8512  -12.4137   22.9386 C   0  0  0  0  0  0  0  0  0  0  0  0
  -31.0666  -26.3146   19.7236 C   0  0  0  0  0  0  0  0  0  0  0  0
  -28.2686  -14.8257   20.7893 C   0  0  0  0  0  0  0  0  0  0  0  0
  -30.5924  -15.8612   20.6021 C   0  0  0  0  0  0  0  0  0  0  0  0
  -18.7212  -31.5159   23.1759 C   0  0  0  0  0  0  0  0  0  0  0  0
  -24.4044  -28.0337   20.1009 C   0  0  0  0  0  0  0  0  0  0  0  0
  -20.0438  -31.3998   22.7075 C   0  0  0  0  0  0  0  0  0  0  0  0
  -25.3009  -27.4780   21.0248 C   0  0  0  0  0  0  0  0  0  0  0  0
  -26.4397  -12.7260   20.6188 C   0  0  0  0  0  0  0  0  0  0  0  0
  -27.1547  -28.4689   19.8035 C   0  0  0  0  0  0  0  0  0  0  0  0
  -24.6473  -11.5455   21.5759 C   0  0  0  0  0  0  0  0  0  0  0  0
  -22.8340  -11.2272   23.6718 C   0  0  0  0  0  0  0  0  0  0  0  0
  -23.7579  -12.5728   21.8906 C   0  0  0  0  0  0  0  0  0  0  0  0
  -29.2127  -15.9107   20.8769 C   0  0  0  0  0  0  0  0  0  0  0  0
  -31.0347  -17.1409   20.8330 C   0  0  0  0  0  0  0  0  0  0  0  0
  -30.6132  -24.7356   18.4358 C   0  0  0  0  0  0  0  0  0  0  0  0
  -31.4020  -14.7572   20.1760 C   0  0  0  0  0  0  0  0  0  0  0  0
  -22.4825  -28.6276   22.5620 C   0  0  0  0  0  0  0  0  0  0  0  0
  -22.7966  -25.4401   23.0751 C   0  0  0  0  0  0  0  0  0  0  0  0
  -24.6423  -22.6031   22.6372 C   0  0  0  0  0  0  0  0  0  0  0  0
  -28.3169  -22.4751   20.7289 C   0  0  0  0  0  0  0  0  0  0  0  0
  -18.2548  -30.8027   24.4203 C   0  0  0  0  0  0  0  0  0  0  0  0
  -22.9267  -27.7836   20.2283 C   0  0  0  0  0  0  0  0  0  0  0  0
  -24.8273  -26.6457   22.1873 C   0  0  0  0  0  0  0  0  0  0  0  0
  -19.1659  -29.6523   24.8407 C   0  0  0  0  0  0  0  0  0  0  0  0
  -30.0695  -21.0184   23.4644 C   0  0  0  0  0  0  0  0  0  0  0  0
  -20.6276  -30.0870   24.8007 C   0  0  0  0  0  0  0  0  0  0  0  0
  -30.1732  -19.5397   23.0867 C   0  0  0  0  0  0  0  0  0  0  0  0
  -28.7411  -21.6236   23.0162 C   0  0  0  0  0  0  0  0  0  0  0  0
  -28.5314  -19.9611   21.2090 C   0  0  0  0  0  0  0  0  0  0  0  0
  -21.0456  -30.4867   23.3805 C   0  0  1  0  0  0  0  0  0  0  0  0
  -22.5004  -27.4332   21.6506 C   0  0  1  0  0  0  0  0  0  0  0  0
  -29.8771  -19.3210   21.5908 C   0  0  2  0  0  0  0  0  0  0  0  0
  -24.6615  -20.1585   23.2034 C   0  0  0  0  0  0  0  0  0  0  0  0
  -23.6472  -26.1099   25.9278 C   0  0  0  0  0  0  0  0  0  0  0  0
  -24.5461  -23.7822   26.1321 C   0  0  0  0  0  0  0  0  0  0  0  0
  -22.1110  -24.1462   25.7311 C   0  0  0  0  0  0  0  0  0  0  0  0
  -24.5798  -21.8229   19.7831 C   0  0  0  0  0  0  0  0  0  0  0  0
  -30.4116  -23.4302   17.8132 C   0  0  0  0  0  0  0  0  0  0  0  0
  -28.9736  -23.1523   17.2918 C   0  0  0  0  0  0  0  0  0  0  0  0
  -30.4479  -28.4099   18.2753 C   0  0  0  0  0  0  0  0  0  0  0  0
  -27.9059  -23.1746   18.3835 C   0  0  0  0  0  0  0  0  0  0  0  0
  -28.9884  -28.8472   18.3371 C   0  0  0  0  0  0  0  0  0  1  0  0
  -23.7532  -24.5722   23.8565 C   0  0  1  0  0  0  0  0  0  0  0  0
  -24.2529  -21.2083   22.1819 C   0  0  2  0  0  0  0  0  0  0  0  0
  -23.5235  -24.6699   25.3912 C   0  0  0  0  0  0  0  0  0  0  0  0
  -31.0758  -24.9513   19.6453 N   0  0  0  0  0  0  0  0  0  0  0  0
  -28.8052  -17.1256   21.2538 N   0  0  0  0  0  0  0  0  0  0  0  0
  -30.3439  -25.9233   17.8302 N   0  0  0  0  0  0  0  0  0  0  0  0
  -30.6274  -26.9559   18.6386 N   0  0  0  0  0  0  0  0  0  0  0  0
  -29.9357  -17.8513   21.2175 N   0  0  0  0  0  0  0  0  0  0  0  0
  -23.3727  -26.4348   22.2723 N   0  0  0  0  0  0  0  0  0  0  0  0
  -28.5215  -21.3828   21.5880 N   0  0  0  0  0  0  0  0  0  0  0  0
  -32.2524  -17.7164   20.7428 N   0  0  0  0  0  0  0  0  0  0  0  0
  -30.7874  -13.5120   19.9863 N   0  0  0  0  0  0  0  0  0  0  0  0
  -21.2805  -29.3093   22.5725 N   0  0  0  0  0  0  0  0  0  0  0  0
  -23.6154  -23.2240   23.3164 N   0  0  0  0  0  0  0  0  0  0  0  0
  -28.1229  -22.1591   19.3898 N   0  0  0  0  0  0  0  0  0  0  0  0
  -24.9121  -20.8839   20.8852 N   0  3  0  0  0  0  0  0  0  0  0  0
  -32.6369  -14.8677   19.9855 O   0  0  0  0  0  0  0  0  0  0  0  0
  -23.4844  -28.9090   23.2090 O   0  0  0  0  0  0  0  0  0  0  0  0
  -21.5832  -25.2381   23.1679 O   0  0  0  0  0  0  0  0  0  0  0  0
  -25.7483  -23.0916   22.4161 O   0  0  0  0  0  0  0  0  0  0  0  0
  -28.3132  -23.6456   21.1251 O   0  0  0  0  0  0  0  0  0  0  0  0
  -25.5475  -11.7016   20.5352 O   0  0  0  0  0  0  0  0  0  0  0  0
  -28.4915  -28.6822   19.6646 O   0  0  0  0  0  0  0  0  0  1  0  0
  -21.9624  -11.0737   24.6773 F   0  0  0  0  0  0  0  0  0  0  0  0
  -23.7690  -13.7145   21.1890 F   0  0  0  0  0  0  0  0  0  0  0  0
  1  2  1  0  0  0  0
  1  5  2  0  0  0  0
  2  6  2  0  0  0  0
  3  8  2  0  0  0  0
  3 16  1  0  0  0  0
  4  9  1  0  0  0  0
  4 16  2  0  0  0  0
  5 18  1  0  0  0  0
  6 20  1  0  0  0  0
  7 10  2  0  0  0  0
  7 19  1  0  0  0  0
  8 22  1  0  0  0  0
  9 22  2  0  0  0  0
 10 23  1  0  0  0  0
 11 12  2  0  0  0  0
 11 24  1  0  0  0  0
 12 25  1  0  0  0  0
 13 21  1  0  0  0  0
 13 23  2  0  0  0  0
 14 25  2  0  0  0  0
 14 26  1  0  0  0  0
 15 60  2  0  0  0  0
 15 63  1  0  0  0  0
 16 27  1  0  0  0  0
 17 27  1  0  0  0  0
 17 28  2  0  0  0  0
 17 30  1  0  0  0  0
 18 20  2  0  0  0  0
 18 35  1  0  0  0  0
 19 21  2  0  0  0  0
 19 36  1  0  0  0  0
 20 44  1  0  0  0  0
 21 37  1  0  0  0  0
 22 78  1  0  0  0  0
 23 79  1  0  0  0  0
 24 26  2  0  0  0  0
 24 78  1  0  0  0  0
 25 80  1  0  0  0  0
 26 81  1  0  0  0  0
 27 61  2  0  0  0  0
 28 64  1  0  0  0  0
 28 67  1  0  0  0  0
 29 52  1  0  0  0  0
 29 60  1  0  0  0  0
 29 62  2  0  0  0  0
 30 68  1  0  0  0  0
 30 73  2  0  0  0  0
 31 45  1  0  0  0  0
 31 69  1  0  0  0  0
 31 74  2  0  0  0  0
 32 57  1  0  0  0  0
 32 65  1  0  0  0  0
 32 75  2  0  0  0  0
 33 58  1  0  0  0  0
 33 70  1  0  0  0  0
 33 76  2  0  0  0  0
 34 66  1  0  0  0  0
 34 71  1  0  0  0  0
 34 77  2  0  0  0  0
 35 38  1  0  0  0  0
 36 45  1  0  0  0  0
 37 65  1  0  0  0  0
 38 40  1  0  0  0  0
 39 41  1  0  0  0  0
 39 42  1  0  0  0  0
 40 44  1  0  0  0  0
 41 46  1  0  0  0  0
 42 66  1  0  0  0  0
 43 46  1  0  0  0  0
 43 66  1  0  0  0  0
 44 69  1  0  0  0  0
 45 65  1  0  0  0  0
 46 64  1  0  0  0  0
 47 58  1  0  0  0  0
 48 59  1  0  0  0  0
 49 59  1  0  0  0  0
 50 59  1  0  0  0  0
 51 72  1  0  0  0  0
 52 53  1  0  0  0  0
 53 55  1  0  0  0  0
 54 56  1  0  0  0  0
 54 63  1  0  0  0  0
 55 71  1  0  0  0  0
 56 79  1  0  0  0  0
 57 59  1  0  0  0  0
 57 70  1  0  0  0  0
 58 72  1  0  0  0  0
 61 64  1  0  0  0  0
 62 63  1  0  0  0  0
M  CHG  1  72   1
M  ISO  4  34 100  56 101  71 100  79 101
M  END
> <Batch ID>
0047

> <Smiles>
CNC(C)C(=O)NC(C(=O)N1Cc2cc([101O:1][101CH2:1]Cn3cnc(CCC[100NH:0][100C:0](=O)N4CCCC(n5nc(-c6ccc(Oc7ccc(F)cc7F)cc6)c(C(N)=O)c5N)C4)n3)ccc2CC1C(=O)NC1CCCc2ccccc21)C(C)(C)C

> <Shape>
0.244

> <Color>
0.099

> <Negative vol penalty>
0.000

$$$$

  -OEChem-04052317243D

 80 88  0     1  0  0  0  0  0999 V2000
  -17.2024  -27.4669   25.4954 C   0  0  0  0  0  0  0  0  0  0  0  0
  -17.7727  -26.1981   25.4746 C   0  0  0  0  0  0  0  0  0  0  0  0
  -24.4103  -12.5286   24.3108 C   0  0  0  0  0  0  0  0  0  0  0  0
  -24.0966  -14.8041   23.5621 C   0  0  0  0  0  0  0  0  0  0  0  0
  -17.5070  -28.3834   24.4898 C   0  0  0  0  0  0  0  0  0  0  0  0
  -18.6471  -25.8447   24.4475 C   0  0  0  0  0  0  0  0  0  0  0  0
  -24.4523  -21.8411   23.1878 C   0  0  0  0  0  0  0  0  0  0  0  0
  -23.9680  -12.8866   25.5842 C   0  0  0  0  0  0  0  0  0  0  0  0
  -23.6542  -15.1621   24.8355 C   0  0  0  0  0  0  0  0  0  0  0  0
  -24.9112  -20.8531   22.3177 C   0  0  0  0  0  0  0  0  0  0  0  0
  -20.8165  -14.8951   26.6513 C   0  0  0  0  0  0  0  0  0  0  0  0
  -19.6765  -15.6938   26.7389 C   0  0  0  0  0  0  0  0  0  0  0  0
  -25.4258  -22.5452   20.6772 C   0  0  0  0  0  0  0  0  0  0  0  0
  -20.9568  -17.3963   27.8788 C   0  0  0  0  0  0  0  0  0  0  0  0
  -27.6043  -17.3549   19.5983 C   0  0  0  0  0  0  0  0  0  0  0  0
  -24.4747  -13.4874   23.2997 C   0  0  0  0  0  0  0  0  0  0  0  0
  -24.1480  -12.6569   20.9098 C   0  0  0  0  0  0  0  0  0  0  0  0
  -18.3931  -28.0443   23.4551 C   0  0  0  0  0  0  0  0  0  0  0  0
  -24.4666  -23.1898   22.8043 C   0  0  0  0  0  0  0  0  0  0  0  0
  -18.9628  -26.7571   23.4264 C   0  0  0  0  0  0  0  0  0  0  0  0
  -24.9689  -23.5486   21.5453 C   0  0  0  0  0  0  0  0  0  0  0  0
  -23.5899  -14.2033   25.8466 C   0  0  0  0  0  0  0  0  0  0  0  0
  -25.3953  -21.2048   21.0611 C   0  0  0  0  0  0  0  0  0  0  0  0
  -22.0268  -15.3468   27.1776 C   0  0  0  0  0  0  0  0  0  0  0  0
  -19.7466  -16.9445   27.3526 C   0  0  0  0  0  0  0  0  0  0  0  0
  -22.0969  -16.5975   27.7913 C   0  0  0  0  0  0  0  0  0  0  0  0
  -24.9321  -13.1183   21.9841 C   0  0  0  0  0  0  0  0  0  0  0  0
  -26.3486  -17.9913   19.6078 C   0  0  0  0  0  0  0  0  0  0  0  0
  -27.6242  -16.6523   18.4182 C   0  0  0  0  0  0  0  0  0  0  0  0
  -25.0475  -12.4474   19.8933 C   0  0  0  0  0  0  0  0  0  0  0  0
  -22.7329  -12.4375   20.8373 C   0  0  0  0  0  0  0  0  0  0  0  0
  -22.2467  -25.4249   22.3802 C   0  0  0  0  0  0  0  0  0  0  0  0
  -24.8223  -27.3491   21.9490 C   0  0  0  0  0  0  0  0  0  0  0  0
  -28.1151  -27.6352   21.0991 C   0  0  0  0  0  0  0  0  0  0  0  0
  -30.6134  -14.9037   19.1680 C   0  0  0  0  0  0  0  0  0  0  0  0
  -18.6551  -29.0523   22.3643 C   0  0  0  0  0  0  0  0  0  0  0  0
  -23.9930  -24.2461   23.7647 C   0  0  0  0  0  0  0  0  0  0  0  0
  -25.0245  -24.9843   21.0934 C   0  0  0  0  0  0  0  0  0  0  0  0
  -19.8824  -28.7274   21.5167 C   0  0  0  0  0  0  0  0  0  0  0  0
  -29.6269  -11.3366   19.0993 C   0  0  0  0  0  0  0  0  0  0  0  0
  -19.8769  -27.2569   21.1112 C   0  0  0  0  0  0  0  0  0  0  0  0
  -28.2734  -11.3517   19.8077 C   0  0  0  0  0  0  0  0  0  0  0  0
  -30.5291  -12.4710   19.5759 C   0  0  0  0  0  0  0  0  0  0  0  0
  -28.5557  -13.8347   20.1759 C   0  0  0  0  0  0  0  0  0  0  0  0
  -19.9351  -26.3448   22.3425 C   0  0  1  0  0  0  0  0  0  0  0  0
  -23.5756  -25.5397   23.0719 C   0  0  1  0  0  0  0  0  0  0  0  0
  -27.6053  -12.7323   19.6850 C   0  0  2  0  0  0  0  0  0  0  0  0
  -29.9318  -29.3407   20.8017 C   0  0  0  0  0  0  0  0  0  0  0  0
  -23.5833  -28.2026   19.2945 C   0  0  0  0  0  0  0  0  0  0  0  0
  -25.8137  -29.1254   18.6299 C   0  0  0  0  0  0  0  0  0  0  0  0
  -24.6178  -30.0620   20.6085 C   0  0  0  0  0  0  0  0  0  0  0  0
  -25.9693  -16.3862   16.5461 C   0  0  0  0  0  0  0  0  0  0  0  0
  -30.7104  -17.1248   18.1018 C   0  0  0  0  0  0  0  0  0  0  0  0
  -29.7833  -26.3957   23.2061 C   0  0  0  0  0  0  0  0  0  0  0  0
  -25.7883  -18.8923   20.6688 C   0  0  0  0  0  0  0  0  0  1  0  0
  -28.6580  -15.7845   17.8251 C   0  0  0  0  0  0  0  0  0  0  0  0
  -25.6604  -27.7640   20.7639 C   0  0  1  0  0  0  0  0  0  0  0  0
  -29.2668  -28.3680   21.7632 C   0  0  2  0  0  0  0  0  0  0  0  0
  -24.9161  -28.7612   19.8317 C   0  0  0  0  0  0  0  0  0  0  0  0
  -26.2299  -13.1973   21.6786 N   0  0  0  0  0  0  0  0  0  0  0  0
  -25.6235  -17.7174   18.5201 N   0  0  0  0  0  0  0  0  0  0  0  0
  -26.4260  -16.9012   17.8160 N   0  0  0  0  0  0  0  0  0  0  0  0
  -26.2683  -12.7826   20.4008 N   0  0  0  0  0  0  0  0  0  0  0  0
  -24.5441  -25.9799   22.0658 N   0  0  0  0  0  0  0  0  0  0  0  0
  -29.8542  -13.7664   19.4891 N   0  0  0  0  0  0  0  0  0  0  0  0
  -24.9055  -12.0109   18.6238 N   0  0  0  0  0  0  0  0  0  0  0  0
  -21.9565  -12.7034   21.9734 N   0  0  0  0  0  0  0  0  0  0  0  0
  -21.2831  -26.2880   22.8661 N   0  0  0  0  0  0  0  0  0  0  0  0
  -26.9127  -28.2767   21.3091 N   0  0  0  0  0  0  0  0  0  0  0  0
  -29.9624  -15.9304   18.4675 N   0  0  0  0  0  0  0  0  0  0  0  0
  -30.2945  -27.3976   22.2356 N   0  3  0  0  0  0  0  0  0  0  0  0
  -22.1759  -12.0024   19.8010 O   0  0  0  0  0  0  0  0  0  0  0  0
  -22.1063  -24.6145   21.4718 O   0  0  0  0  0  0  0  0  0  0  0  0
  -24.4349  -28.2074   22.7458 O   0  0  0  0  0  0  0  0  0  0  0  0
  -28.2674  -26.5996   20.4551 O   0  0  0  0  0  0  0  0  0  0  0  0
  -31.8077  -14.9919   19.4807 O   0  0  0  0  0  0  0  0  0  0  0  0
  -23.1580  -14.5529   27.0891 O   0  0  0  0  0  0  0  0  0  0  0  0
  -25.8432  -20.2423   20.2097 O   0  0  0  0  0  0  0  0  0  1  0  0
  -18.6520  -17.7121   27.4353 F   0  0  0  0  0  0  0  0  0  0  0  0
  -23.2571  -17.0374   28.2976 F   0  0  0  0  0  0  0  0  0  0  0  0
  1  2  1  0  0  0  0
  1  5  2  0  0  0  0
  2  6  2  0  0  0  0
  3  8  2  0  0  0  0
  3 16  1  0  0  0  0
  4  9  1  0  0  0  0
  4 16  2  0  0  0  0
  5 18  1  0  0  0  0
  6 20  1  0  0  0  0
  7 10  2  0  0  0  0
  7 19  1  0  0  0  0
  8 22  1  0  0  0  0
  9 22  2  0  0  0  0
 10 23  1  0  0  0  0
 11 12  2  0  0  0  0
 11 24  1  0  0  0  0
 12 25  1  0  0  0  0
 13 21  1  0  0  0  0
 13 23  2  0  0  0  0
 14 25  2  0  0  0  0
 14 26  1  0  0  0  0
 15 28  1  0  0  0  0
 15 29  2  0  0  0  0
 16 27  1  0  0  0  0
 17 27  1  0  0  0  0
 17 30  2  0  0  0  0
 17 31  1  0  0  0  0
 18 20  2  0  0  0  0
 18 36  1  0  0  0  0
 19 21  2  0  0  0  0
 19 37  1  0  0  0  0
 20 45  1  0  0  0  0
 21 38  1  0  0  0  0
 22 77  1  0  0  0  0
 23 78  1  0  0  0  0
 24 26  2  0  0  0  0
 24 77  1  0  0  0  0
 25 79  1  0  0  0  0
 26 80  1  0  0  0  0
 27 60  2  0  0  0  0
 28 55  1  0  0  0  0
 28 61  2  0  0  0  0
 29 56  1  0  0  0  0
 29 62  1  0  0  0  0
 30 63  1  0  0  0  0
 30 66  1  0  0  0  0
 31 67  1  0  0  0  0
 31 72  2  0  0  0  0
 32 46  1  0  0  0  0
 32 68  1  0  0  0  0
 32 73  2  0  0  0  0
 33 57  1  0  0  0  0
 33 64  1  0  0  0  0
 33 74  2  0  0  0  0
 34 58  1  0  0  0  0
 34 69  1  0  0  0  0
 34 75  2  0  0  0  0
 35 65  1  0  0  0  0
 35 70  1  0  0  0  0
 35 76  2  0  0  0  0
 36 39  1  0  0  0  0
 37 46  1  0  0  0  0
 38 64  1  0  0  0  0
 39 41  1  0  0  0  0
 40 42  1  0  0  0  0
 40 43  1  0  0  0  0
 41 45  1  0  0  0  0
 42 47  1  0  0  0  0
 43 65  1  0  0  0  0
 44 47  1  0  0  0  0
 44 65  1  0  0  0  0
 45 68  1  0  0  0  0
 46 64  1  0  0  0  0
 47 63  1  0  0  0  0
 48 58  1  0  0  0  0
 49 59  1  0  0  0  0
 50 59  1  0  0  0  0
 51 59  1  0  0  0  0
 52 62  1  0  0  0  0
 53 70  1  0  0  0  0
 54 71  1  0  0  0  0
 55 78  1  0  0  0  0
 56 70  1  0  0  0  0
 57 59  1  0  0  0  0
 57 69  1  0  0  0  0
 58 71  1  0  0  0  0
 60 63  1  0  0  0  0
 61 62  1  0  0  0  0
M  CHG  1  71   1
M  ISO  4  35 100  55 101  70 100  78 101
M  END
> <Batch ID>
0047

> <Smiles>
CNC(C)C(=O)NC(C(=O)N1Cc2cc([101O:1][101CH2:1]c3cc(C[100N:0](C)[100C:0](=O)N4CCCC(n5nc(-c6ccc(Oc7ccc(F)cc7F)cc6)c(C(N)=O)c5N)C4)n(C)n3)ccc2CC1C(=O)NC1CCCc2ccccc21)C(C)(C)C

> <Shape>
0.177

> <Color>
0.112

> <Negative vol penalty>
0.000

$$$$

  -OEChem-04052317243D

 86 94  0     1  0  0  0  0  0999 V2000
  -19.8975  -27.5195   30.1523 C   0  0  0  0  0  0  0  0  0  0  0  0
  -20.7159  -26.4294   29.8744 C   0  0  0  0  0  0  0  0  0  0  0  0
  -22.9951   -9.8969   19.9909 C   0  0  0  0  0  0  0  0  0  0  0  0
  -23.7231   -9.9548   22.2938 C   0  0  0  0  0  0  0  0  0  0  0  0
  -19.7650  -28.5463   29.2184 C   0  0  0  0  0  0  0  0  0  0  0  0
  -21.4016  -26.3650   28.6619 C   0  0  0  0  0  0  0  0  0  0  0  0
  -26.9581  -23.9774   27.6972 C   0  0  0  0  0  0  0  0  0  0  0  0
  -22.2281   -8.7639   20.2618 C   0  0  0  0  0  0  0  0  0  0  0  0
  -22.9560   -8.8217   22.5648 C   0  0  0  0  0  0  0  0  0  0  0  0
  -27.3754  -22.7400   27.2089 C   0  0  0  0  0  0  0  0  0  0  0  0
  -23.1973   -5.4811   22.1034 C   0  0  0  0  0  0  0  0  0  0  0  0
  -23.7850   -4.4659   22.8580 C   0  0  0  0  0  0  0  0  0  0  0  0
  -27.6018  -23.6930   25.0044 C   0  0  0  0  0  0  0  0  0  0  0  0
  -22.0633   -4.7155   24.5345 C   0  0  0  0  0  0  0  0  0  0  0  0
  -29.8953  -18.4642   25.6222 C   0  0  0  0  0  0  0  0  0  0  0  0
  -23.7427  -10.4924   21.0069 C   0  0  0  0  0  0  0  0  0  0  0  0
  -24.1297  -13.0071   20.8223 C   0  0  0  0  0  0  0  0  0  0  0  0
  -20.4570  -28.4991   27.9979 C   0  0  0  0  0  0  0  0  0  0  0  0
  -26.8488  -25.0811   26.8391 C   0  0  0  0  0  0  0  0  0  0  0  0
  -21.2772  -27.3914   27.7102 C   0  0  0  0  0  0  0  0  0  0  0  0
  -27.1853  -24.9439   25.4848 C   0  0  0  0  0  0  0  0  0  0  0  0
  -22.2085   -8.2263   21.5487 C   0  0  0  0  0  0  0  0  0  0  0  0
  -27.6946  -22.5969   25.8617 C   0  0  0  0  0  0  0  0  0  0  0  0
  -22.0427   -6.1136   22.5643 C   0  0  0  0  0  0  0  0  0  0  0  0
  -23.2180   -4.0831   24.0736 C   0  0  0  0  0  0  0  0  0  0  0  0
  -21.4757   -5.7308   23.7798 C   0  0  0  0  0  0  0  0  0  0  0  0
  -24.5357  -11.6625   20.7275 C   0  0  0  0  0  0  0  0  0  0  0  0
  -29.7424  -17.3633   24.7581 C   0  0  0  0  0  0  0  0  0  0  0  0
  -28.6705  -19.0856   25.6065 C   0  0  0  0  0  0  0  0  0  0  0  0
  -25.2395  -13.7277   20.4542 C   0  0  0  0  0  0  0  0  0  0  0  0
  -22.8626  -13.5557   21.2086 C   0  0  0  0  0  0  0  0  0  0  0  0
  -24.4658  -26.9601   25.8937 C   0  0  0  0  0  0  0  0  0  0  0  0
  -26.8576  -28.6127   24.4547 C   0  0  0  0  0  0  0  0  0  0  0  0
  -30.0121  -28.6001   23.1526 C   0  0  0  0  0  0  0  0  0  0  0  0
  -30.7369  -14.6590   20.6931 C   0  0  0  0  0  0  0  0  0  0  0  0
  -20.2452  -29.6098   26.9999 C   0  0  0  0  0  0  0  0  0  0  0  0
  -26.4228  -26.4156   27.3868 C   0  0  0  0  0  0  0  0  0  0  0  0
  -27.1043  -26.1028   24.5262 C   0  0  0  0  0  0  0  0  0  0  0  0
  -21.2991  -29.6461   25.8962 C   0  0  0  0  0  0  0  0  0  0  0  0
  -29.5916  -12.2286   18.3568 C   0  0  0  0  0  0  0  0  0  0  0  0
  -21.5312  -28.2473   25.3336 C   0  0  0  0  0  0  0  0  0  0  0  0
  -28.1434  -11.9713   18.7770 C   0  0  0  0  0  0  0  0  0  0  0  0
  -30.4956  -12.4672   19.5642 C   0  0  0  0  0  0  0  0  0  0  0  0
  -28.5877  -13.2685   20.9027 C   0  0  0  0  0  0  0  0  0  0  0  0
  -22.0567  -27.2973   26.4165 C   0  0  1  0  0  0  0  0  0  0  0  0
  -25.8542  -27.3456   26.3194 C   0  0  1  0  0  0  0  0  0  0  0  0
  -27.6271  -13.0777   19.7165 C   0  0  2  0  0  0  0  0  0  0  0  0
  -31.6791  -30.0907   22.0138 C   0  0  0  0  0  0  0  0  0  0  0  0
  -25.6009  -17.4944   24.9953 C   0  0  0  0  0  0  0  0  0  0  0  0
  -25.2817  -28.3827   21.8521 C   0  0  0  0  0  0  0  0  0  0  0  0
  -27.3650  -29.0153   20.6161 C   0  0  0  0  0  0  0  0  0  0  0  0
  -26.3432  -30.6145   22.2351 C   0  0  0  0  0  0  0  0  0  0  0  0
  -27.0789  -20.1098   22.3776 C   0  0  0  0  0  0  0  0  0  0  0  0
  -24.7642  -19.2049   22.6407 C   0  0  0  0  0  0  0  0  0  0  0  0
  -26.6342  -17.6806   22.0398 C   0  0  0  0  0  0  0  0  0  0  0  0
  -31.9759  -28.2715   25.3423 C   0  0  0  0  0  0  0  0  0  0  0  0
  -30.7539  -16.3532   24.4042 C   0  0  0  0  0  0  0  0  0  0  0  0
  -28.1790  -20.3132   26.3155 C   0  0  0  0  0  0  0  0  0  1  0  0
  -31.6195  -16.6963   23.1658 C   0  0  0  0  0  0  0  0  0  0  0  0
  -30.8226  -16.8417   21.8711 C   0  0  0  0  0  0  0  0  0  0  0  0
  -27.5321  -28.5599   23.1052 C   0  0  1  0  0  0  0  0  0  0  0  0
  -31.1848  -29.5449   23.3444 C   0  0  2  0  0  0  0  0  0  0  0  0
  -26.5089  -18.5983   24.4214 C   0  0  2  0  0  0  0  0  0  0  0  0
  -26.6303  -29.1206   21.9695 C   0  0  0  0  0  0  0  0  0  0  0  0
  -26.2600  -18.9125   22.8961 C   0  0  0  0  0  0  0  0  0  0  0  0
  -25.8044  -11.5338   20.3302 N   0  0  0  0  0  0  0  0  0  0  0  0
  -28.5171  -17.2869   24.2320 N   0  0  0  0  0  0  0  0  0  0  0  0
  -27.8888  -18.3477   24.7670 N   0  0  0  0  0  0  0  0  0  0  0  0
  -26.2051  -12.8068   20.1720 N   0  0  0  0  0  0  0  0  0  0  0  0
  -26.6765  -27.3857   25.1084 N   0  0  0  0  0  0  0  0  0  0  0  0
  -29.9506  -13.5291   20.4135 N   0  0  0  0  0  0  0  0  0  0  0  0
  -25.4739  -15.0529   20.3476 N   0  0  0  0  0  0  0  0  0  0  0  0
  -21.8306  -12.6734   21.5562 N   0  0  0  0  0  0  0  0  0  0  0  0
  -23.4646  -27.5322   26.6552 N   0  0  0  0  0  0  0  0  0  0  0  0
  -28.8045  -29.2573   23.2572 N   0  0  0  0  0  0  0  0  0  0  0  0
  -30.1422  -15.6208   21.5006 N   0  0  0  0  0  0  0  0  0  0  0  0
  -32.3149  -28.8389   24.0118 N   0  3  0  0  0  0  0  0  0  0  0  0
  -22.6468  -14.7912   21.2286 O   0  0  0  0  0  0  0  0  0  0  0  0
  -24.3140  -26.2011   24.9436 O   0  0  0  0  0  0  0  0  0  0  0  0
  -26.5108  -29.7033   24.9151 O   0  0  0  0  0  0  0  0  0  0  0  0
  -30.1534  -27.4000   22.9284 O   0  0  0  0  0  0  0  0  0  0  0  0
  -31.8819  -14.8026   20.2512 O   0  0  0  0  0  0  0  0  0  0  0  0
  -21.4599   -7.1208   21.8135 O   0  0  0  0  0  0  0  0  0  0  0  0
  -28.1016  -21.3901   25.3824 O   0  0  0  0  0  0  0  0  0  1  0  0
  -23.7816   -3.1071   24.7975 F   0  0  0  0  0  0  0  0  0  0  0  0
  -20.3658   -6.3339   24.2273 F   0  0  0  0  0  0  0  0  0  0  0  0
  1  2  1  0  0  0  0
  1  5  2  0  0  0  0
  2  6  2  0  0  0  0
  3  8  2  0  0  0  0
  3 16  1  0  0  0  0
  4  9  1  0  0  0  0
  4 16  2  0  0  0  0
  5 18  1  0  0  0  0
  6 20  1  0  0  0  0
  7 10  2  0  0  0  0
  7 19  1  0  0  0  0
  8 22  1  0  0  0  0
  9 22  2  0  0  0  0
 10 23  1  0  0  0  0
 11 12  2  0  0  0  0
 11 24  1  0  0  0  0
 12 25  1  0  0  0  0
 13 21  1  0  0  0  0
 13 23  2  0  0  0  0
 14 25  2  0  0  0  0
 14 26  1  0  0  0  0
 15 28  1  0  0  0  0
 15 29  2  0  0  0  0
 16 27  1  0  0  0  0
 17 27  1  0  0  0  0
 17 30  2  0  0  0  0
 17 31  1  0  0  0  0
 18 20  2  0  0  0  0
 18 36  1  0  0  0  0
 19 21  2  0  0  0  0
 19 37  1  0  0  0  0
 20 45  1  0  0  0  0
 21 38  1  0  0  0  0
 22 83  1  0  0  0  0
 23 84  1  0  0  0  0
 24 26  2  0  0  0  0
 24 83  1  0  0  0  0
 25 85  1  0  0  0  0
 26 86  1  0  0  0  0
 27 66  2  0  0  0  0
 28 57  1  0  0  0  0
 28 67  2  0  0  0  0
 29 58  1  0  0  0  0
 29 68  1  0  0  0  0
 30 69  1  0  0  0  0
 30 72  1  0  0  0  0
 31 73  1  0  0  0  0
 31 78  2  0  0  0  0
 32 46  1  0  0  0  0
 32 74  1  0  0  0  0
 32 79  2  0  0  0  0
 33 61  1  0  0  0  0
 33 70  1  0  0  0  0
 33 80  2  0  0  0  0
 34 62  1  0  0  0  0
 34 75  1  0  0  0  0
 34 81  2  0  0  0  0
 35 71  1  0  0  0  0
 35 76  1  0  0  0  0
 35 82  2  0  0  0  0
 36 39  1  0  0  0  0
 37 46  1  0  0  0  0
 38 70  1  0  0  0  0
 39 41  1  0  0  0  0
 40 42  1  0  0  0  0
 40 43  1  0  0  0  0
 41 45  1  0  0  0  0
 42 47  1  0  0  0  0
 43 71  1  0  0  0  0
 44 47  1  0  0  0  0
 44 71  1  0  0  0  0
 45 74  1  0  0  0  0
 46 70  1  0  0  0  0
 47 69  1  0  0  0  0
 48 62  1  0  0  0  0
 49 63  1  0  0  0  0
 50 64  1  0  0  0  0
 51 64  1  0  0  0  0
 52 64  1  0  0  0  0
 53 65  1  0  0  0  0
 54 65  1  0  0  0  0
 55 65  1  0  0  0  0
 56 77  1  0  0  0  0
 57 59  1  0  0  0  0
 58 84  1  0  0  0  0
 59 60  1  0  0  0  0
 60 76  1  0  0  0  0
 61 64  1  0  0  0  0
 61 75  1  0  0  0  0
 62 77  1  0  0  0  0
 63 65  1  0  0  0  0
 63 68  1  0  0  0  0
 66 69  1  0  0  0  0
 67 68  1  0  0  0  0
M  CHG  1  77   1
M  ISO  4  35 100  58 101  76 100  84 101
M  END
> <Batch ID>
0047

> <Smiles>
CNC(C)C(=O)NC(C(=O)N1Cc2cc([101O:1][101CH2:1]c3cc(CCC[100NH:0][100C:0](=O)N4CCCC(n5nc(-c6ccc(Oc7ccc(F)cc7F)cc6)c(C(N)=O)c5N)C4)nn3C(C)C(C)(C)C)ccc2CC1C(=O)NC1CCCc2ccccc21)C(C)(C)C

> <Shape>
0.207

> <Color>
0.197

> <Negative vol penalty>
0.000

$$$$

  -OEChem-04052317243D

 83 91  0     1  0  0  0  0  0999 V2000
  -28.9319  -37.7507   24.4856 C   0  0  0  0  0  0  0  0  0  0  0  0
  -29.3592  -36.5128   24.0162 C   0  0  0  0  0  0  0  0  0  0  0  0
  -24.7115   -8.4452   21.3560 C   0  0  0  0  0  0  0  0  0  0  0  0
  -23.1885  -10.3159   21.4898 C   0  0  0  0  0  0  0  0  0  0  0  0
  -27.7440  -37.8484   25.2091 C   0  0  0  0  0  0  0  0  0  0  0  0
  -28.5995  -35.3716   24.2708 C   0  0  0  0  0  0  0  0  0  0  0  0
  -27.8859  -30.5274   20.5925 C   0  0  0  0  0  0  0  0  0  0  0  0
  -23.9847   -7.7827   22.3451 C   0  0  0  0  0  0  0  0  0  0  0  0
  -22.4616   -9.6534   22.4790 C   0  0  0  0  0  0  0  0  0  0  0  0
  -28.4968  -29.2745   20.5623 C   0  0  0  0  0  0  0  0  0  0  0  0
  -21.1141   -6.0089   22.5606 C   0  0  0  0  0  0  0  0  0  0  0  0
  -20.8225   -4.6602   22.3571 C   0  0  0  0  0  0  0  0  0  0  0  0
  -26.6602  -28.3552   21.8277 C   0  0  0  0  0  0  0  0  0  0  0  0
  -31.1584  -23.6050   21.6984 C   0  0  0  0  0  0  0  0  0  0  0  0
  -22.0269   -4.0955   24.3740 C   0  0  0  0  0  0  0  0  0  0  0  0
  -30.5039  -23.4547   19.4168 C   0  0  0  0  0  0  0  0  0  0  0  0
  -24.3134   -9.7118   20.9283 C   0  0  0  0  0  0  0  0  0  0  0  0
  -24.8617  -10.3319   18.5153 C   0  0  0  0  0  0  0  0  0  0  0  0
  -26.9644  -36.7092   25.4645 C   0  0  0  0  0  0  0  0  0  0  0  0
  -26.6608  -30.7062   21.2510 C   0  0  0  0  0  0  0  0  0  0  0  0
  -27.4008  -35.4539   24.9996 C   0  0  0  0  0  0  0  0  0  0  0  0
  -26.0346  -29.6108   21.8626 C   0  0  0  0  0  0  0  0  0  0  0  0
  -31.0456  -22.8472   20.5381 C   0  0  0  0  0  0  0  0  0  0  0  0
  -30.7321  -24.9285   21.7019 C   0  0  0  0  0  0  0  0  0  0  0  0
  -22.8598   -8.3868   22.9066 C   0  0  0  0  0  0  0  0  0  0  0  0
  -27.8854  -28.1888   21.1824 C   0  0  0  0  0  0  0  0  0  0  0  0
  -21.8622   -6.4010   23.6707 C   0  0  0  0  0  0  0  0  0  0  0  0
  -21.2789   -3.7035   23.2638 C   0  0  0  0  0  0  0  0  0  0  0  0
  -22.3185   -5.4443   24.5774 C   0  0  0  0  0  0  0  0  0  0  0  0
  -25.0641  -10.3969   19.9069 C   0  0  0  0  0  0  0  0  0  0  0  0
  -30.2047  -25.4429   20.5285 C   0  0  0  0  0  0  0  0  0  0  0  0
  -25.8263  -11.1560   17.9892 C   0  0  0  0  0  0  0  0  0  0  0  0
  -23.8886   -9.5928   17.7653 C   0  0  0  0  0  0  0  0  0  0  0  0
  -25.6750  -32.4473   23.7210 C   0  0  0  0  0  0  0  0  0  0  0  0
  -28.6841  -15.8009   20.3414 C   0  0  0  0  0  0  0  0  0  0  0  0
  -22.7598  -31.3214   22.8514 C   0  0  0  0  0  0  0  0  0  0  0  0
  -20.9404  -28.9017   21.2762 C   0  0  0  0  0  0  0  0  0  0  0  0
  -25.7119  -36.8573   26.2916 C   0  0  0  0  0  0  0  0  0  0  0  0
  -26.0018  -32.0583   21.2516 C   0  0  0  0  0  0  0  0  0  0  0  0
  -24.7093  -29.7457   22.5654 C   0  0  0  0  0  0  0  0  0  0  0  0
  -24.7739  -35.6567   26.1967 C   0  0  0  0  0  0  0  0  0  0  0  0
  -30.2078  -12.8441   18.8707 C   0  0  0  0  0  0  0  0  0  0  0  0
  -25.5546  -34.3556   26.3527 C   0  0  0  0  0  0  0  0  0  0  0  0
  -29.0357  -11.8636   18.8721 C   0  0  0  0  0  0  0  0  0  0  0  0
  -30.1764  -13.7580   20.0929 C   0  0  0  0  0  0  0  0  0  0  0  0
  -27.7181  -13.5248   20.2567 C   0  0  0  0  0  0  0  0  0  0  0  0
  -26.5915  -34.1969   25.2342 C   0  0  1  0  0  0  0  0  0  0  0  0
  -25.0051  -32.2367   22.3927 C   0  0  1  0  0  0  0  0  0  0  0  0
  -27.6961  -12.6050   19.0244 C   0  0  2  0  0  0  0  0  0  0  0  0
  -30.8485  -25.7455   22.9422 C   0  0  0  0  0  0  0  0  0  0  0  0
  -18.5760  -28.2342   20.7645 C   0  0  0  0  0  0  0  0  0  0  0  0
  -22.4099  -30.3649   25.7276 C   0  0  0  0  0  0  0  0  0  0  0  0
  -20.5262  -28.9146   24.9425 C   0  0  0  0  0  0  0  0  0  0  0  0
  -20.3679  -31.3937   24.7147 C   0  0  0  0  0  0  0  0  0  0  0  0
  -21.4014  -29.0715   18.3577 C   0  0  0  0  0  0  0  0  0  0  0  0
  -31.4931  -21.4293   20.5012 C   0  0  0  0  0  0  0  0  0  0  0  0
  -29.7293  -26.8650   20.4731 C   0  0  0  0  0  0  0  0  0  1  0  0
  -29.9249  -16.6579   20.3413 C   0  0  0  0  0  0  0  0  0  0  0  0
  -29.5689  -18.1342   20.4823 C   0  0  0  0  0  0  0  0  0  0  0  0
  -30.7991  -19.0311   20.4251 C   0  0  0  0  0  0  0  0  0  0  0  0
  -21.9341  -30.1076   23.2031 C   0  0  1  0  0  0  0  0  0  0  0  0
  -19.8026  -28.9883   20.2750 C   0  0  2  0  0  0  0  0  0  0  0  0
  -21.3354  -30.1927   24.6355 C   0  0  0  0  0  0  0  0  0  0  0  0
  -30.0790  -24.7376   19.3820 N   0  0  0  0  0  0  0  0  0  0  0  0
  -26.0778  -11.1988   20.2436 N   0  0  0  0  0  0  0  0  0  0  0  0
  -26.5211  -11.6452   19.0560 N   0  0  0  0  0  0  0  0  0  0  0  0
  -24.1079  -31.0894   22.5440 N   0  0  0  0  0  0  0  0  0  0  0  0
  -28.8745  -14.4244   20.2180 N   0  0  0  0  0  0  0  0  0  0  0  0
  -26.1396  -11.5026   16.7226 N   0  0  0  0  0  0  0  0  0  0  0  0
  -22.9716   -8.7954   18.4636 N   0  0  0  0  0  0  0  0  0  0  0  0
  -25.9514  -33.7703   24.0083 N   0  0  0  0  0  0  0  0  0  0  0  0
  -20.9377  -29.9715   22.1461 N   0  0  0  0  0  0  0  0  0  0  0  0
  -20.2190  -28.4093   18.9664 N   0  3  0  0  0  0  0  0  0  0  0  0
  -30.3694  -20.4500   20.5189 N   0  3  0  0  0  0  0  0  0  0  0  0
  -23.8443   -9.6253   16.5121 O   0  0  0  0  0  0  0  0  0  0  0  0
  -25.9216  -31.4810   24.4332 O   0  0  0  0  0  0  0  0  0  0  0  0
  -27.5797  -16.3408   20.4454 O   0  0  0  0  0  0  0  0  0  0  0  0
  -22.2265  -32.4337   22.8426 O   0  0  0  0  0  0  0  0  0  0  0  0
  -21.7483  -27.9756   21.2880 O   0  0  0  0  0  0  0  0  0  0  0  0
  -22.1502   -7.7405   23.8717 O   0  0  0  0  0  0  0  0  0  0  0  0
  -28.4798  -26.9650   21.1550 O   0  0  0  0  0  0  0  0  0  1  0  0
  -20.9974   -2.4085   23.0691 F   0  0  0  0  0  0  0  0  0  0  0  0
  -23.0366   -5.8151   25.6464 F   0  0  0  0  0  0  0  0  0  0  0  0
  1  2  1  0  0  0  0
  1  5  2  0  0  0  0
  2  6  2  0  0  0  0
  3  8  2  0  0  0  0
  3 17  1  0  0  0  0
  4  9  1  0  0  0  0
  4 17  2  0  0  0  0
  5 19  1  0  0  0  0
  6 21  1  0  0  0  0
  7 10  2  0  0  0  0
  7 20  1  0  0  0  0
  8 25  1  0  0  0  0
  9 25  2  0  0  0  0
 10 26  1  0  0  0  0
 11 12  2  0  0  0  0
 11 27  1  0  0  0  0
 12 28  1  0  0  0  0
 13 22  1  0  0  0  0
 13 26  2  0  0  0  0
 14 23  2  0  0  0  0
 14 24  1  0  0  0  0
 15 28  2  0  0  0  0
 15 29  1  0  0  0  0
 16 23  1  0  0  0  0
 16 64  2  0  0  0  0
 17 30  1  0  0  0  0
 18 30  1  0  0  0  0
 18 32  2  0  0  0  0
 18 33  1  0  0  0  0
 19 21  2  0  0  0  0
 19 38  1  0  0  0  0
 20 22  2  0  0  0  0
 20 39  1  0  0  0  0
 21 47  1  0  0  0  0
 22 40  1  0  0  0  0
 23 56  1  0  0  0  0
 24 31  2  0  0  0  0
 24 50  1  0  0  0  0
 25 80  1  0  0  0  0
 26 81  1  0  0  0  0
 27 29  2  0  0  0  0
 27 80  1  0  0  0  0
 28 82  1  0  0  0  0
 29 83  1  0  0  0  0
 30 65  2  0  0  0  0
 31 57  1  0  0  0  0
 31 64  1  0  0  0  0
 32 66  1  0  0  0  0
 32 69  1  0  0  0  0
 33 70  1  0  0  0  0
 33 75  2  0  0  0  0
 34 48  1  0  0  0  0
 34 71  1  0  0  0  0
 34 76  2  0  0  0  0
 35 58  1  0  0  0  0
 35 68  1  0  0  0  0
 35 77  2  0  0  0  0
 36 61  1  0  0  0  0
 36 67  1  0  0  0  0
 36 78  2  0  0  0  0
 37 62  1  0  0  0  0
 37 72  1  0  0  0  0
 37 79  2  0  0  0  0
 38 41  1  0  0  0  0
 39 48  1  0  0  0  0
 40 67  1  0  0  0  0
 41 43  1  0  0  0  0
 42 44  1  0  0  0  0
 42 45  1  0  0  0  0
 43 47  1  0  0  0  0
 44 49  1  0  0  0  0
 45 68  1  0  0  0  0
 46 49  1  0  0  0  0
 46 68  1  0  0  0  0
 47 71  1  0  0  0  0
 48 67  1  0  0  0  0
 49 66  1  0  0  0  0
 51 62  1  0  0  0  0
 52 63  1  0  0  0  0
 53 63  1  0  0  0  0
 54 63  1  0  0  0  0
 55 73  1  0  0  0  0
 56 74  1  0  0  0  0
 57 81  1  0  0  0  0
 58 59  1  0  0  0  0
 59 60  1  0  0  0  0
 60 74  1  0  0  0  0
 61 63  1  0  0  0  0
 61 72  1  0  0  0  0
 62 73  1  0  0  0  0
 65 66  1  0  0  0  0
M  CHG  2  73   1  74   1
M  ISO  4  35 100  57 101  58 100  81 101
M  END
> <Batch ID>
0047

> <Smiles>
CNC(C)C(=O)NC(C(=O)N1Cc2cc([101O:1][101CH2:1]c3ncc(CNCC[100CH2:0][100C:0](=O)N4CCCC(n5nc(-c6ccc(Oc7ccc(F)cc7F)cc6)c(C(N)=O)c5N)C4)cc3C)ccc2CC1C(=O)NC1CCCc2ccccc21)C(C)(C)C

> <Shape>
0.320

> <Color>
0.103

> <Negative vol penalty>
0.000

$$$$

  -OEChem-04052317243D

 86 94  0     1  0  0  0  0  0999 V2000
  -27.4933  -33.5556   19.9503 C   0  0  0  0  0  0  0  0  0  0  0  0
  -27.6576  -32.1844   19.7826 C   0  0  0  0  0  0  0  0  0  0  0  0
  -23.0031   -9.8906   19.9819 C   0  0  0  0  0  0  0  0  0  0  0  0
  -23.7318   -9.9439   22.2848 C   0  0  0  0  0  0  0  0  0  0  0  0
  -28.6081  -34.3731   20.1316 C   0  0  0  0  0  0  0  0  0  0  0  0
  -28.9370  -31.6299   19.7952 C   0  0  0  0  0  0  0  0  0  0  0  0
  -30.5511  -26.1450   21.9897 C   0  0  0  0  0  0  0  0  0  0  0  0
  -22.2396   -8.7545   20.2498 C   0  0  0  0  0  0  0  0  0  0  0  0
  -22.9682   -8.8078   22.5527 C   0  0  0  0  0  0  0  0  0  0  0  0
  -30.7731  -24.9155   21.3710 C   0  0  0  0  0  0  0  0  0  0  0  0
  -23.2192   -5.4693   22.0815 C   0  0  0  0  0  0  0  0  0  0  0  0
  -23.8102   -4.4536   22.8330 C   0  0  0  0  0  0  0  0  0  0  0  0
  -33.1387  -25.3828   21.3046 C   0  0  0  0  0  0  0  0  0  0  0  0
  -22.0884   -4.6932   24.5108 C   0  0  0  0  0  0  0  0  0  0  0  0
  -23.7493  -10.4853   20.9994 C   0  0  0  0  0  0  0  0  0  0  0  0
  -24.1287  -13.0017   20.8220 C   0  0  0  0  0  0  0  0  0  0  0  0
  -29.9012  -33.8272   20.1560 C   0  0  0  0  0  0  0  0  0  0  0  0
  -31.6218  -27.0088   22.2611 C   0  0  0  0  0  0  0  0  0  0  0  0
  -30.0703  -32.4411   19.9757 C   0  0  0  0  0  0  0  0  0  0  0  0
  -32.9280  -26.6216   21.9291 C   0  0  0  0  0  0  0  0  0  0  0  0
  -22.2221   -8.2131   21.5352 C   0  0  0  0  0  0  0  0  0  0  0  0
  -32.0667  -24.5355   21.0257 C   0  0  0  0  0  0  0  0  0  0  0  0
  -22.0629   -6.0970   22.5446 C   0  0  0  0  0  0  0  0  0  0  0  0
  -23.2448   -4.0656   24.0476 C   0  0  0  0  0  0  0  0  0  0  0  0
  -21.4974   -5.7089   23.7593 C   0  0  0  0  0  0  0  0  0  0  0  0
  -24.5387  -11.6586   20.7232 C   0  0  0  0  0  0  0  0  0  0  0  0
  -33.4459  -19.0731   21.6717 C   0  0  0  0  0  0  0  0  0  0  0  0
  -32.2427  -19.6154   21.2859 C   0  0  0  0  0  0  0  0  0  0  0  0
  -25.2363  -13.7266   20.4557 C   0  0  0  0  0  0  0  0  0  0  0  0
  -33.8952  -20.3362   20.0184 C   0  0  0  0  0  0  0  0  0  0  0  0
  -22.8601  -13.5454   21.2103 C   0  0  0  0  0  0  0  0  0  0  0  0
  -32.4263  -29.9425   21.3392 C   0  0  0  0  0  0  0  0  0  0  0  0
  -34.7995  -29.5553   23.5164 C   0  0  0  0  0  0  0  0  0  0  0  0
  -36.7816  -27.4189   25.2924 C   0  0  0  0  0  0  0  0  0  0  0  0
  -30.7309  -14.6736   20.6954 C   0  0  0  0  0  0  0  0  0  0  0  0
  -31.0790  -34.7569   20.3077 C   0  0  0  0  0  0  0  0  0  0  0  0
  -31.3687  -28.3201   22.9532 C   0  0  0  0  0  0  0  0  0  0  0  0
  -34.1141  -27.5039   22.2173 C   0  0  0  0  0  0  0  0  0  0  0  0
  -32.3746  -34.0424   20.6831 C   0  0  0  0  0  0  0  0  0  0  0  0
  -29.5920  -12.2467   18.3524 C   0  0  0  0  0  0  0  0  0  0  0  0
  -32.5767  -32.8090   19.8086 C   0  0  0  0  0  0  0  0  0  0  0  0
  -28.1448  -11.9838   18.7723 C   0  0  0  0  0  0  0  0  0  0  0  0
  -30.4958  -12.4844   19.5602 C   0  0  0  0  0  0  0  0  0  0  0  0
  -28.5860  -13.2761   20.9017 C   0  0  0  0  0  0  0  0  0  0  0  0
  -31.4402  -31.7990   20.0080 C   0  0  1  0  0  0  0  0  0  0  0  0
  -32.4747  -29.3439   22.7165 C   0  0  1  0  0  0  0  0  0  0  0  0
  -27.6255  -13.0859   19.7152 C   0  0  2  0  0  0  0  0  0  0  0  0
  -34.5752  -21.0817   18.9392 C   0  0  0  0  0  0  0  0  0  0  0  0
  -33.7148  -18.7971   24.1492 C   0  0  0  0  0  0  0  0  0  0  0  0
  -38.6538  -27.3982   26.9633 C   0  0  0  0  0  0  0  0  0  0  0  0
  -36.7738  -30.2919   21.3098 C   0  0  0  0  0  0  0  0  0  0  0  0
  -38.6064  -29.3469   22.7299 C   0  0  0  0  0  0  0  0  0  0  0  0
  -37.2815  -31.2981   23.5423 C   0  0  0  0  0  0  0  0  0  0  0  0
  -28.6802  -18.1505   22.0640 C   0  0  0  0  0  0  0  0  0  0  0  0
  -29.8889  -18.1056   19.8890 C   0  0  0  0  0  0  0  0  0  0  0  0
  -35.1355  -25.9875   27.2926 C   0  0  0  0  0  0  0  0  0  0  0  0
  -33.7144  -18.1291   22.7681 C   0  0  0  0  0  0  0  0  0  0  0  0
  -30.8751  -19.4466   21.8092 C   0  0  0  0  0  0  0  0  0  0  0  0
  -31.5704  -21.2538   19.4296 C   0  0  0  0  0  0  0  0  0  0  0  0
  -30.8106  -16.8531   21.8797 C   0  0  0  0  0  0  0  0  0  0  0  0
  -31.1450  -22.5169   20.1702 C   0  0  0  0  0  0  0  0  0  1  0  0
  -36.2069  -29.0105   23.4783 C   0  0  1  0  0  0  0  0  0  0  0  0
  -37.1462  -27.3725   26.7653 C   0  0  2  0  0  0  0  0  0  0  0  0
  -37.1948  -29.9708   22.7578 C   0  0  0  0  0  0  0  0  0  0  0  0
  -30.0829  -18.1399   21.4225 C   0  0  0  0  0  0  0  0  0  0  0  0
  -25.8077  -11.5348   20.3251 N   0  0  0  0  0  0  0  0  0  0  0  0
  -34.4706  -19.5260   20.8789 N   0  0  0  0  0  0  0  0  0  0  0  0
  -32.5466  -20.4226   20.2261 N   0  0  0  0  0  0  0  0  0  0  0  0
  -26.2046  -12.8094   20.1704 N   0  0  0  0  0  0  0  0  0  0  0  0
  -33.8144  -28.7789   22.8897 N   0  0  0  0  0  0  0  0  0  0  0  0
  -29.9480  -13.5422   20.4128 N   0  0  0  0  0  0  0  0  0  0  0  0
  -25.4666  -15.0528   20.3528 N   0  0  0  0  0  0  0  0  0  0  0  0
  -21.8309  -12.6590   21.5557 N   0  0  0  0  0  0  0  0  0  0  0  0
  -31.6268  -31.0653   21.2415 N   0  0  0  0  0  0  0  0  0  0  0  0
  -36.5660  -28.7104   24.8601 N   0  0  0  0  0  0  0  0  0  0  0  0
  -30.1337  -15.6313   21.5058 N   0  0  0  0  0  0  0  0  0  0  0  0
  -36.6108  -26.1312   27.3926 N   0  3  0  0  0  0  0  0  0  0  0  0
  -22.6407  -14.7802   21.2340 O   0  0  0  0  0  0  0  0  0  0  0  0
  -33.0681  -29.4250   20.4326 O   0  0  0  0  0  0  0  0  0  0  0  0
  -34.5810  -30.6265   24.0876 O   0  0  0  0  0  0  0  0  0  0  0  0
  -36.7001  -26.4107   24.5943 O   0  0  0  0  0  0  0  0  0  0  0  0
  -31.8753  -14.8219   20.2535 O   0  0  0  0  0  0  0  0  0  0  0  0
  -21.4769   -7.1046   21.7970 O   0  0  0  0  0  0  0  0  0  0  0  0
  -32.2861  -23.3362   20.4211 O   0  0  0  0  0  0  0  0  0  1  0  0
  -23.8116   -3.0892   24.7684 F   0  0  0  0  0  0  0  0  0  0  0  0
  -20.3859   -6.3074   24.2088 F   0  0  0  0  0  0  0  0  0  0  0  0
  1  2  1  0  0  0  0
  1  5  2  0  0  0  0
  2  6  2  0  0  0  0
  3  8  2  0  0  0  0
  3 15  1  0  0  0  0
  4  9  1  0  0  0  0
  4 15  2  0  0  0  0
  5 17  1  0  0  0  0
  6 19  1  0  0  0  0
  7 10  2  0  0  0  0
  7 18  1  0  0  0  0
  8 21  1  0  0  0  0
  9 21  2  0  0  0  0
 10 22  1  0  0  0  0
 11 12  2  0  0  0  0
 11 23  1  0  0  0  0
 12 24  1  0  0  0  0
 13 20  1  0  0  0  0
 13 22  2  0  0  0  0
 14 24  2  0  0  0  0
 14 25  1  0  0  0  0
 15 26  1  0  0  0  0
 16 26  1  0  0  0  0
 16 29  2  0  0  0  0
 16 31  1  0  0  0  0
 17 19  2  0  0  0  0
 17 36  1  0  0  0  0
 18 20  2  0  0  0  0
 18 37  1  0  0  0  0
 19 45  1  0  0  0  0
 20 38  1  0  0  0  0
 21 83  1  0  0  0  0
 22 84  1  0  0  0  0
 23 25  2  0  0  0  0
 23 83  1  0  0  0  0
 24 85  1  0  0  0  0
 25 86  1  0  0  0  0
 26 66  2  0  0  0  0
 27 28  2  0  0  0  0
 27 57  1  0  0  0  0
 27 67  1  0  0  0  0
 28 58  1  0  0  0  0
 28 68  1  0  0  0  0
 29 69  1  0  0  0  0
 29 72  1  0  0  0  0
 30 48  1  0  0  0  0
 30 67  2  0  0  0  0
 30 68  1  0  0  0  0
 31 73  1  0  0  0  0
 31 78  2  0  0  0  0
 32 46  1  0  0  0  0
 32 74  1  0  0  0  0
 32 79  2  0  0  0  0
 33 62  1  0  0  0  0
 33 70  1  0  0  0  0
 33 80  2  0  0  0  0
 34 63  1  0  0  0  0
 34 75  1  0  0  0  0
 34 81  2  0  0  0  0
 35 71  1  0  0  0  0
 35 76  1  0  0  0  0
 35 82  2  0  0  0  0
 36 39  1  0  0  0  0
 37 46  1  0  0  0  0
 38 70  1  0  0  0  0
 39 41  1  0  0  0  0
 40 42  1  0  0  0  0
 40 43  1  0  0  0  0
 41 45  1  0  0  0  0
 42 47  1  0  0  0  0
 43 71  1  0  0  0  0
 44 47  1  0  0  0  0
 44 71  1  0  0  0  0
 45 74  1  0  0  0  0
 46 70  1  0  0  0  0
 47 69  1  0  0  0  0
 49 57  1  0  0  0  0
 50 63  1  0  0  0  0
 51 64  1  0  0  0  0
 52 64  1  0  0  0  0
 53 64  1  0  0  0  0
 54 65  1  0  0  0  0
 55 65  1  0  0  0  0
 56 77  1  0  0  0  0
 58 65  1  0  0  0  0
 59 61  1  0  0  0  0
 59 68  1  0  0  0  0
 60 65  1  0  0  0  0
 60 76  1  0  0  0  0
 61 84  1  0  0  0  0
 62 64  1  0  0  0  0
 62 75  1  0  0  0  0
 63 77  1  0  0  0  0
 66 69  1  0  0  0  0
M  CHG  1  77   1
M  ISO  4  35 100  61 101  76 100  84 101
M  END
> <Batch ID>
0047

> <Smiles>
CCc1nc(C)n(C[101CH2:1][101O:1]c2ccc3c(c2)CN(C(=O)C(NC(=O)C(C)NC)C(C)(C)C)C(C(=O)NC2CCCc4ccccc42)C3)c1CC(C)(C)C[100NH:0][100C:0](=O)N1CCCC(n2nc(-c3ccc(Oc4ccc(F)cc4F)cc3)c(C(N)=O)c2N)C1

> <Shape>
0.197

> <Color>
0.189

> <Negative vol penalty>
0.000

$$$$

  -OEChem-04052317243D

 86 94  0     1  0  0  0  0  0999 V2000
  -25.2195  -28.6840   20.3678 C   0  0  0  0  0  0  0  0  0  0  0  0
  -25.3254  -27.3265   20.6534 C   0  0  0  0  0  0  0  0  0  0  0  0
  -23.4526   -9.8667   19.9047 C   0  0  0  0  0  0  0  0  0  0  0  0
  -24.1058   -9.9692   22.2284 C   0  0  0  0  0  0  0  0  0  0  0  0
  -26.2478  -29.3341   19.6867 C   0  0  0  0  0  0  0  0  0  0  0  0
  -26.4592  -26.6182   20.2570 C   0  0  0  0  0  0  0  0  0  0  0  0
  -28.2227  -23.5772   23.9022 C   0  0  0  0  0  0  0  0  0  0  0  0
  -22.8820   -8.6124   20.1203 C   0  0  0  0  0  0  0  0  0  0  0  0
  -23.5351   -8.7148   22.4441 C   0  0  0  0  0  0  0  0  0  0  0  0
  -27.5508  -22.3729   24.1072 C   0  0  0  0  0  0  0  0  0  0  0  0
  -23.9373   -5.4162   20.4289 C   0  0  0  0  0  0  0  0  0  0  0  0
  -24.1985   -4.4165   19.4920 C   0  0  0  0  0  0  0  0  0  0  0  0
  -29.2451  -21.2183   22.8361 C   0  0  0  0  0  0  0  0  0  0  0  0
  -21.8332   -4.2229   19.0390 C   0  0  0  0  0  0  0  0  0  0  0  0
  -29.7032  -17.3884   26.6583 C   0  0  0  0  0  0  0  0  0  0  0  0
  -24.0645  -10.5452   20.9587 C   0  0  0  0  0  0  0  0  0  0  0  0
  -24.0249  -13.0939   20.8584 C   0  0  0  0  0  0  0  0  0  0  0  0
  -27.3991  -28.6355   19.2903 C   0  0  0  0  0  0  0  0  0  0  0  0
  -29.4071  -23.6128   23.1522 C   0  0  0  0  0  0  0  0  0  0  0  0
  -27.5032  -27.2593   19.5688 C   0  0  0  0  0  0  0  0  0  0  0  0
  -29.9314  -22.4239   22.6252 C   0  0  0  0  0  0  0  0  0  0  0  0
  -29.7909  -16.6820   25.4437 C   0  0  0  0  0  0  0  0  0  0  0  0
  -22.9232   -8.0364   21.3901 C   0  0  0  0  0  0  0  0  0  0  0  0
  -28.0604  -21.1936   23.5717 C   0  0  0  0  0  0  0  0  0  0  0  0
  -22.6240   -5.8193   20.6710 C   0  0  0  0  0  0  0  0  0  0  0  0
  -23.1465   -3.8198   18.7970 C   0  0  0  0  0  0  0  0  0  0  0  0
  -21.5720   -5.2226   19.9760 C   0  0  0  0  0  0  0  0  0  0  0  0
  -24.6546  -11.8407   20.7364 C   0  0  0  0  0  0  0  0  0  0  0  0
  -28.6180  -16.9737   24.7914 C   0  0  0  0  0  0  0  0  0  0  0  0
  -25.0053  -14.0029   20.5436 C   0  0  0  0  0  0  0  0  0  0  0  0
  -22.6746  -13.4082   21.2236 C   0  0  0  0  0  0  0  0  0  0  0  0
  -30.3093  -25.0227   20.4500 C   0  0  0  0  0  0  0  0  0  0  0  0
  -31.0011  -13.6844   20.7901 C   0  0  0  0  0  0  0  0  0  0  0  0
  -33.2149  -23.8236   21.2513 C   0  0  0  0  0  0  0  0  0  0  0  0
  -35.0100  -21.4794   22.9627 C   0  0  0  0  0  0  0  0  0  0  0  0
  -28.4634  -29.3707   18.5148 C   0  0  0  0  0  0  0  0  0  0  0  0
  -30.1341  -24.9158   22.9627 C   0  0  0  0  0  0  0  0  0  0  0  0
  -31.2102  -22.4052   21.8297 C   0  0  0  0  0  0  0  0  0  0  0  0
  -29.7975  -28.6308   18.4597 C   0  0  0  0  0  0  0  0  0  0  0  0
  -28.9814  -14.4825   17.9399 C   0  0  0  0  0  0  0  0  0  0  0  0
  -29.5793  -27.1620   18.1107 C   0  0  0  0  0  0  0  0  0  0  0  0
  -27.5917  -13.9836   18.3337 C   0  0  0  0  0  0  0  0  0  0  0  0
  -30.0775  -13.5806   18.4987 C   0  0  0  0  0  0  0  0  0  0  0  0
  -28.6207  -12.8889   20.3751 C   0  0  0  0  0  0  0  0  0  0  0  0
  -28.7284  -26.4620   19.1772 C   0  0  1  0  0  0  0  0  0  0  0  0
  -31.0576  -24.9137   21.7484 C   0  0  1  0  0  0  0  0  0  0  0  0
  -27.4853  -13.7890   19.8566 C   0  0  2  0  0  0  0  0  0  0  0  0
  -28.1018  -16.5448   23.4776 C   0  0  0  0  0  0  0  0  0  0  0  0
  -34.0021  -13.6005   27.6450 C   0  0  0  0  0  0  0  0  0  0  0  0
  -37.3660  -20.7304   23.3938 C   0  0  0  0  0  0  0  0  0  0  0  0
  -33.3148  -22.5507   18.4801 C   0  0  0  0  0  0  0  0  0  0  0  0
  -35.1699  -21.0819   19.2980 C   0  0  0  0  0  0  0  0  0  0  0  0
  -35.4729  -23.5573   19.2440 C   0  0  0  0  0  0  0  0  0  0  0  0
  -34.7613  -21.9823   25.8686 C   0  0  0  0  0  0  0  0  0  0  0  0
  -30.8951  -15.8245   24.9818 C   0  0  0  0  0  0  0  0  0  0  0  0
  -30.7703  -13.4805   22.2663 C   0  0  0  0  0  0  0  0  0  0  0  0
  -32.7755  -13.3628   26.7791 C   0  0  0  0  0  0  0  0  0  0  0  0
  -26.5685  -18.4149   25.3708 C   0  0  0  0  0  0  0  0  0  0  0  0
  -30.6195  -14.3146   25.0682 C   0  0  0  0  0  0  0  0  0  0  0  0
  -32.0148  -13.8232   23.0651 C   0  0  0  0  0  0  0  0  0  0  0  0
  -33.0340  -13.7670   25.3364 C   0  0  0  0  0  0  0  0  0  0  0  0
  -26.6573  -19.8854   24.9772 C   0  0  0  0  0  0  0  0  0  1  0  0
  -33.9498  -22.5326   20.9825 C   0  0  1  0  0  0  0  0  0  0  0  0
  -36.2172  -21.6032   23.8747 C   0  0  2  0  0  0  0  0  0  0  0  0
  -34.4517  -22.4310   19.5145 C   0  0  0  0  0  0  0  0  0  0  0  0
  -28.5645  -18.0772   26.7731 N   0  0  0  0  0  0  0  0  0  0  0  0
  -25.9358  -11.9407   20.3724 N   0  0  0  0  0  0  0  0  0  0  0  0
  -27.9261  -17.8050   25.6223 N   0  0  0  0  0  0  0  0  0  0  0  0
  -26.1191  -13.2675   20.2628 N   0  0  0  0  0  0  0  0  0  0  0  0
  -31.8810  -23.7056   21.6666 N   0  0  0  0  0  0  0  0  0  0  0  0
  -29.9283  -13.4026   19.9441 N   0  0  0  0  0  0  0  0  0  0  0  0
  -25.0147  -15.3514   20.4822 N   0  0  0  0  0  0  0  0  0  0  0  0
  -21.7987  -12.3538   21.5156 N   0  0  0  0  0  0  0  0  0  0  0  0
  -29.5295  -26.1584   20.3437 N   0  0  0  0  0  0  0  0  0  0  0  0
  -35.0084  -22.4496   21.9830 N   0  0  0  0  0  0  0  0  0  0  0  0
  -35.8626  -21.1908   25.2622 N   0  3  0  0  0  0  0  0  0  0  0  0
  -31.7756  -13.5555   24.5309 N   0  3  1  0  0  0  0  0  0  0  0  0
  -22.2526  -14.5885   21.2732 O   0  0  0  0  0  0  0  0  0  0  0  0
  -30.4317  -24.1423   19.6064 O   0  0  0  0  0  0  0  0  0  0  0  0
  -32.1018  -14.0850   20.4025 O   0  0  0  0  0  0  0  0  0  0  0  0
  -33.8049  -24.8970   21.1052 O   0  0  0  0  0  0  0  0  0  0  0  0
  -34.1559  -20.6067   23.1029 O   0  0  0  0  0  0  0  0  0  0  0  0
  -22.3663   -6.8125   21.6009 O   0  0  0  0  0  0  0  0  0  0  0  0
  -27.4062  -20.0169   23.7697 O   0  0  0  0  0  0  0  0  0  1  0  0
  -23.3976   -2.8609   17.8962 F   0  0  0  0  0  0  0  0  0  0  0  0
  -20.3084   -5.6065   20.2034 F   0  0  0  0  0  0  0  0  0  0  0  0
  1  2  1  0  0  0  0
  1  5  2  0  0  0  0
  2  6  2  0  0  0  0
  3  8  2  0  0  0  0
  3 16  1  0  0  0  0
  4  9  1  0  0  0  0
  4 16  2  0  0  0  0
  5 18  1  0  0  0  0
  6 20  1  0  0  0  0
  7 10  2  0  0  0  0
  7 19  1  0  0  0  0
  8 23  1  0  0  0  0
  9 23  2  0  0  0  0
 10 24  1  0  0  0  0
 11 12  2  0  0  0  0
 11 25  1  0  0  0  0
 12 26  1  0  0  0  0
 13 21  1  0  0  0  0
 13 24  2  0  0  0  0
 14 26  2  0  0  0  0
 14 27  1  0  0  0  0
 15 22  1  0  0  0  0
 15 66  2  0  0  0  0
 16 28  1  0  0  0  0
 17 28  1  0  0  0  0
 17 30  2  0  0  0  0
 17 31  1  0  0  0  0
 18 20  2  0  0  0  0
 18 36  1  0  0  0  0
 19 21  2  0  0  0  0
 19 37  1  0  0  0  0
 20 45  1  0  0  0  0
 21 38  1  0  0  0  0
 22 29  2  0  0  0  0
 22 55  1  0  0  0  0
 23 83  1  0  0  0  0
 24 84  1  0  0  0  0
 25 27  2  0  0  0  0
 25 83  1  0  0  0  0
 26 85  1  0  0  0  0
 27 86  1  0  0  0  0
 28 67  2  0  0  0  0
 29 48  1  0  0  0  0
 29 68  1  0  0  0  0
 30 69  1  0  0  0  0
 30 72  1  0  0  0  0
 31 73  1  0  0  0  0
 31 78  2  0  0  0  0
 32 46  1  0  0  0  0
 32 74  1  0  0  0  0
 32 79  2  0  0  0  0
 33 56  1  0  0  0  0
 33 71  1  0  0  0  0
 33 80  2  0  0  0  0
 34 63  1  0  0  0  0
 34 70  1  0  0  0  0
 34 81  2  0  0  0  0
 35 64  1  0  0  0  0
 35 75  1  0  0  0  0
 35 82  2  0  0  0  0
 36 39  1  0  0  0  0
 37 46  1  0  0  0  0
 38 70  1  0  0  0  0
 39 41  1  0  0  0  0
 40 42  1  0  0  0  0
 40 43  1  0  0  0  0
 41 45  1  0  0  0  0
 42 47  1  0  0  0  0
 43 71  1  0  0  0  0
 44 47  1  0  0  0  0
 44 71  1  0  0  0  0
 45 74  1  0  0  0  0
 46 70  1  0  0  0  0
 47 69  1  0  0  0  0
 49 57  1  0  0  0  0
 50 64  1  0  0  0  0
 51 65  1  0  0  0  0
 52 65  1  0  0  0  0
 53 65  1  0  0  0  0
 54 76  1  0  0  0  0
 55 59  1  0  0  0  0
 56 60  1  0  0  0  0
 57 61  1  0  0  0  0
 58 62  1  0  0  0  0
 58 68  1  0  0  0  0
 59 77  1  0  0  0  0
 60 77  1  0  0  0  0
 61 77  1  0  0  0  0
 62 84  1  0  0  0  0
 63 65  1  0  0  0  0
 63 75  1  0  0  0  0
 64 76  1  0  0  0  0
 66 68  1  0  0  0  0
 67 69  1  0  0  0  0
M  CHG  2  76   1  77   1
M  ISO  4  33 100  56 100  62 101  84 101
M  END
> <Batch ID>
0047

> <Smiles>
CCCN(CCc1cnn(C[101CH2:1][101O:1]c2ccc3c(c2)CN(C(=O)C(NC(=O)C(C)NC)C(C)(C)C)C(C(=O)NC2CCCc4ccccc42)C3)c1C)C[100CH2:0][100C:0](=O)N1CCCC(n2nc(-c3ccc(Oc4ccc(F)cc4F)cc3)c(C(N)=O)c2N)C1

> <Shape>
0.179

> <Color>
0.168

> <Negative vol penalty>
0.000

$$$$

  -OEChem-04052317243D

 82 90  0     1  0  0  0  0  0999 V2000
  -17.8863  -27.9991   23.1213 C   0  0  0  0  0  0  0  0  0  0  0  0
  -18.7864  -26.9390   23.1611 C   0  0  0  0  0  0  0  0  0  0  0  0
  -23.0816   -9.8432   19.9237 C   0  0  0  0  0  0  0  0  0  0  0  0
  -23.9160   -9.7840   22.1902 C   0  0  0  0  0  0  0  0  0  0  0  0
  -18.2518  -29.2000   22.5146 C   0  0  0  0  0  0  0  0  0  0  0  0
  -20.0522  -27.0790   22.5933 C   0  0  0  0  0  0  0  0  0  0  0  0
  -25.2801  -24.5947   24.5943 C   0  0  0  0  0  0  0  0  0  0  0  0
  -30.0105  -18.5960   23.2859 C   0  0  0  0  0  0  0  0  0  0  0  0
  -22.3579   -8.6744   20.1595 C   0  0  0  0  0  0  0  0  0  0  0  0
  -23.1922   -8.6152   22.4261 C   0  0  0  0  0  0  0  0  0  0  0  0
  -25.9879  -23.4584   24.2051 C   0  0  0  0  0  0  0  0  0  0  0  0
  -19.9936   -7.7626   23.1063 C   0  0  0  0  0  0  0  0  0  0  0  0
  -19.2758   -7.6762   24.2991 C   0  0  0  0  0  0  0  0  0  0  0  0
  -29.1959  -19.6005   23.7966 C   0  0  0  0  0  0  0  0  0  0  0  0
  -27.3890  -24.8223   22.7924 C   0  0  0  0  0  0  0  0  0  0  0  0
  -20.5599   -5.7297   24.9309 C   0  0  0  0  0  0  0  0  0  0  0  0
  -23.8607  -10.3980   20.9390 C   0  0  0  0  0  0  0  0  0  0  0  0
  -24.1732  -12.9293   20.8910 C   0  0  0  0  0  0  0  0  0  0  0  0
  -19.5262  -29.3580   21.9476 C   0  0  0  0  0  0  0  0  0  0  0  0
  -25.6150  -25.8540   24.0763 C   0  0  0  0  0  0  0  0  0  0  0  0
  -20.4347  -28.2827   21.9772 C   0  0  0  0  0  0  0  0  0  0  0  0
  -26.6855  -25.9735   23.1786 C   0  0  0  0  0  0  0  0  0  0  0  0
  -29.8291  -18.1590   21.9784 C   0  0  0  0  0  0  0  0  0  0  0  0
  -22.4131   -8.0604   21.4108 C   0  0  0  0  0  0  0  0  0  0  0  0
  -27.0406  -23.5716   23.3018 C   0  0  0  0  0  0  0  0  0  0  0  0
  -20.9945   -6.8324   22.8257 C   0  0  0  0  0  0  0  0  0  0  0  0
  -19.5589   -6.6598   25.2115 C   0  0  0  0  0  0  0  0  0  0  0  0
  -21.2777   -5.8160   23.7380 C   0  0  0  0  0  0  0  0  0  0  0  0
  -24.6091  -11.6050   20.6958 C   0  0  0  0  0  0  0  0  0  0  0  0
  -28.2222  -20.1310   22.9658 C   0  0  0  0  0  0  0  0  0  0  0  0
  -28.8269  -18.7539   21.2291 C   0  0  0  0  0  0  0  0  0  0  0  0
  -25.2454  -13.7022   20.5174 C   0  0  0  0  0  0  0  0  0  0  0  0
  -22.9121  -13.4172   21.3676 C   0  0  0  0  0  0  0  0  0  0  0  0
  -24.1051  -28.0305   22.3193 C   0  0  0  0  0  0  0  0  0  0  0  0
  -30.7466  -14.7058   20.6556 C   0  0  0  0  0  0  0  0  0  0  0  0
  -26.7664  -29.7880   22.9119 C   0  0  0  0  0  0  0  0  0  0  0  0
  -30.0809  -29.8429   23.7232 C   0  0  0  0  0  0  0  0  0  0  0  0
  -19.8591  -30.6590   21.2610 C   0  0  0  0  0  0  0  0  0  0  0  0
  -24.8588  -27.0738   24.5267 C   0  0  0  0  0  0  0  0  0  0  0  0
  -27.0979  -27.3053   22.6089 C   0  0  0  0  0  0  0  0  0  0  0  0
  -21.3530  -30.8523   21.0136 C   0  0  0  0  0  0  0  0  0  0  0  0
  -29.5239  -12.4787   18.1287 C   0  0  0  0  0  0  0  0  0  0  0  0
  -21.9651  -29.5849   20.4255 C   0  0  0  0  0  0  0  0  0  0  0  0
  -28.1118  -12.1380   18.6032 C   0  0  0  0  0  0  0  0  0  0  0  0
  -30.4811  -12.6524   19.3038 C   0  0  0  0  0  0  0  0  0  0  0  0
  -28.6173  -13.3202   20.7877 C   0  0  0  0  0  0  0  0  0  0  0  0
  -21.8258  -28.4043   21.3941 C   0  0  1  0  0  0  0  0  0  0  0  0
  -24.9554  -28.2344   23.5412 C   0  0  1  0  0  0  0  0  0  0  0  0
  -27.6115  -13.1664   19.6331 C   0  0  2  0  0  0  0  0  0  0  0  0
  -27.1200  -18.4396   19.4197 C   0  0  0  0  0  0  0  0  0  0  0  0
  -30.4463  -15.1534   23.0565 C   0  0  0  0  0  0  0  0  0  0  0  0
  -31.9914  -31.4264   24.0971 C   0  0  0  0  0  0  0  0  0  0  0  0
  -27.0210  -30.1888   19.8979 C   0  0  0  0  0  0  0  0  0  0  0  0
  -29.3846  -30.9277   20.2660 C   0  0  0  0  0  0  0  0  0  0  0  0
  -27.5038  -32.2261   21.2656 C   0  0  0  0  0  0  0  0  0  0  0  0
  -30.4195  -28.9556   26.5262 C   0  0  0  0  0  0  0  0  0  0  0  0
  -30.6978  -17.0824   21.4262 C   0  0  0  0  0  0  0  0  0  0  0  0
  -28.5885  -18.3270   19.8178 C   0  0  0  0  0  0  0  0  0  0  0  0
  -27.3265  -21.2177   23.4837 C   0  0  0  0  0  0  0  0  0  1  0  0
  -30.1399  -15.6616   21.6517 C   0  0  1  0  0  0  0  0  0  0  0  0
  -28.1022  -29.9678   22.2320 C   0  0  1  0  0  0  0  0  0  0  0  0
  -30.8540  -30.6542   24.7472 C   0  0  2  0  0  0  0  0  0  0  0  0
  -27.9941  -30.8021   20.9244 C   0  0  0  0  0  0  0  0  0  0  0  0
  -25.8604  -11.5368   20.2339 N   0  0  0  0  0  0  0  0  0  0  0  0
  -28.0160  -19.7322   21.6907 N   0  0  0  0  0  0  0  0  0  0  0  0
  -26.2201  -12.8280   20.1356 N   0  0  0  0  0  0  0  0  0  0  0  0
  -26.3238  -28.4677   23.0751 N   0  0  0  0  0  0  0  0  0  0  0  0
  -29.9596  -13.6203   20.2704 N   0  0  0  0  0  0  0  0  0  0  0  0
  -25.4400  -15.0376   20.4814 N   0  0  0  0  0  0  0  0  0  0  0  0
  -21.9208  -12.4864   21.7074 N   0  0  0  0  0  0  0  0  0  0  0  0
  -22.8113  -28.4977   22.4499 N   0  0  0  0  0  0  0  0  0  0  0  0
  -28.9963  -30.5392   23.2332 N   0  0  0  0  0  0  0  0  0  0  0  0
  -31.4296  -29.7586   25.7900 N   0  3  0  0  0  0  0  0  0  0  0  0
  -22.6655  -14.6426   21.4729 O   0  0  0  0  0  0  0  0  0  0  0  0
  -24.5877  -27.4908   21.3306 O   0  0  0  0  0  0  0  0  0  0  0  0
  -31.8851  -14.9207   20.2314 O   0  0  0  0  0  0  0  0  0  0  0  0
  -26.1421  -30.7821   23.2909 O   0  0  0  0  0  0  0  0  0  0  0  0
  -30.4087  -28.7067   23.3884 O   0  0  0  0  0  0  0  0  0  0  0  0
  -21.7068   -6.9200   21.6414 O   0  0  0  0  0  0  0  0  0  0  0  0
  -27.7327  -22.4640   22.9197 O   0  0  0  0  0  0  0  0  0  1  0  0
  -18.8706   -6.5779   26.3576 F   0  0  0  0  0  0  0  0  0  0  0  0
  -22.2389   -4.9203   23.4746 F   0  0  0  0  0  0  0  0  0  0  0  0
  1  2  1  0  0  0  0
  1  5  2  0  0  0  0
  2  6  2  0  0  0  0
  3  9  2  0  0  0  0
  3 17  1  0  0  0  0
  4 10  1  0  0  0  0
  4 17  2  0  0  0  0
  5 19  1  0  0  0  0
  6 21  1  0  0  0  0
  7 11  2  0  0  0  0
  7 20  1  0  0  0  0
  8 14  2  0  0  0  0
  8 23  1  0  0  0  0
  9 24  1  0  0  0  0
 10 24  2  0  0  0  0
 11 25  1  0  0  0  0
 12 13  2  0  0  0  0
 12 26  1  0  0  0  0
 13 27  1  0  0  0  0
 14 30  1  0  0  0  0
 15 22  1  0  0  0  0
 15 25  2  0  0  0  0
 16 27  2  0  0  0  0
 16 28  1  0  0  0  0
 17 29  1  0  0  0  0
 18 29  1  0  0  0  0
 18 32  2  0  0  0  0
 18 33  1  0  0  0  0
 19 21  2  0  0  0  0
 19 38  1  0  0  0  0
 20 22  2  0  0  0  0
 20 39  1  0  0  0  0
 21 47  1  0  0  0  0
 22 40  1  0  0  0  0
 23 31  2  0  0  0  0
 23 57  1  0  0  0  0
 24 79  1  0  0  0  0
 25 80  1  0  0  0  0
 26 28  2  0  0  0  0
 26 79  1  0  0  0  0
 27 81  1  0  0  0  0
 28 82  1  0  0  0  0
 29 64  2  0  0  0  0
 30 59  1  0  0  0  0
 30 65  2  0  0  0  0
 31 58  1  0  0  0  0
 31 65  1  0  0  0  0
 32 66  1  0  0  0  0
 32 69  1  0  0  0  0
 33 70  1  0  0  0  0
 33 74  2  0  0  0  0
 34 48  1  0  0  0  0
 34 71  1  0  0  0  0
 34 75  2  0  0  0  0
 35 60  1  0  0  0  0
 35 68  1  0  0  0  0
 35 76  2  0  0  0  0
 36 61  1  0  0  0  0
 36 67  1  0  0  0  0
 36 77  2  0  0  0  0
 37 62  1  0  0  0  0
 37 72  1  0  0  0  0
 37 78  2  0  0  0  0
 38 41  1  0  0  0  0
 39 48  1  0  0  0  0
 40 67  1  0  0  0  0
 41 43  1  0  0  0  0
 42 44  1  0  0  0  0
 42 45  1  0  0  0  0
 43 47  1  0  0  0  0
 44 49  1  0  0  0  0
 45 68  1  0  0  0  0
 46 49  1  0  0  0  0
 46 68  1  0  0  0  0
 47 71  1  0  0  0  0
 48 67  1  0  0  0  0
 49 66  1  0  0  0  0
 50 58  1  0  0  0  0
 51 60  1  0  0  0  0
 52 62  1  0  0  0  0
 53 63  1  0  0  0  0
 54 63  1  0  0  0  0
 55 63  1  0  0  0  0
 56 73  1  0  0  0  0
 57 60  1  0  0  0  0
 59 80  1  0  0  0  0
 61 63  1  0  0  0  0
 61 72  1  0  0  0  0
 62 73  1  0  0  0  0
 64 66  1  0  0  0  0
M  CHG  1  73   1
M  ISO  4  35 100  59 101  60 100  80 101
M  END
> <Batch ID>
0047

> <Smiles>
CCc1nc([101CH2:1][101O:1]c2ccc3c(c2)CN(C(=O)C(NC(=O)C(C)NC)C(C)(C)C)C(C(=O)NC2CCCc4ccccc42)C3)ccc1C[100CH:0](C)[100C:0](=O)N1CCCC(n2nc(-c3ccc(Oc4ccc(F)cc4F)cc3)c(C(N)=O)c2N)C1

> <Shape>
0.297

> <Color>
0.210

> <Negative vol penalty>
0.000

$$$$

  -OEChem-04052317243D

 79 87  0     1  0  0  0  0  0999 V2000
  -26.7712  -28.2795   10.2391 C   0  0  0  0  0  0  0  0  0  0  0  0
  -27.0237  -27.1566   11.0206 C   0  0  0  0  0  0  0  0  0  0  0  0
  -23.0962   -9.8187   19.9696 C   0  0  0  0  0  0  0  0  0  0  0  0
  -23.8432   -9.8935   22.2660 C   0  0  0  0  0  0  0  0  0  0  0  0
  -27.2457  -29.5276   10.6403 C   0  0  0  0  0  0  0  0  0  0  0  0
  -27.7520  -27.2809   12.2032 C   0  0  0  0  0  0  0  0  0  0  0  0
  -26.9557  -24.0908   17.3699 C   0  0  0  0  0  0  0  0  0  0  0  0
  -22.3734   -8.6574   20.2426 C   0  0  0  0  0  0  0  0  0  0  0  0
  -23.1203   -8.7323   22.5390 C   0  0  0  0  0  0  0  0  0  0  0  0
  -27.6093  -22.9767   17.8946 C   0  0  0  0  0  0  0  0  0  0  0  0
  -19.9049   -7.8861   23.1436 C   0  0  0  0  0  0  0  0  0  0  0  0
  -19.1424   -7.8586   24.3113 C   0  0  0  0  0  0  0  0  0  0  0  0
  -29.0064  -24.4286   19.2210 C   0  0  0  0  0  0  0  0  0  0  0  0
  -20.4169   -5.9632   25.0988 C   0  0  0  0  0  0  0  0  0  0  0  0
  -29.3136  -18.8617   20.5986 C   0  0  0  0  0  0  0  0  0  0  0  0
  -23.8312  -10.4367   20.9814 C   0  0  0  0  0  0  0  0  0  0  0  0
  -24.1249  -12.9646   20.8044 C   0  0  0  0  0  0  0  0  0  0  0  0
  -27.9719  -29.6689   11.8334 C   0  0  0  0  0  0  0  0  0  0  0  0
  -27.3304  -25.3848   17.7593 C   0  0  0  0  0  0  0  0  0  0  0  0
  -28.2379  -28.5319   12.6200 C   0  0  0  0  0  0  0  0  0  0  0  0
  -28.3542  -25.5574   18.7018 C   0  0  0  0  0  0  0  0  0  0  0  0
  -22.3854   -8.1142   21.5273 C   0  0  0  0  0  0  0  0  0  0  0  0
  -28.6368  -23.1456   18.8181 C   0  0  0  0  0  0  0  0  0  0  0  0
  -20.9233   -6.9521   22.9535 C   0  0  0  0  0  0  0  0  0  0  0  0
  -19.3984   -6.8972   25.2889 C   0  0  0  0  0  0  0  0  0  0  0  0
  -21.1793   -5.9907   23.9311 C   0  0  0  0  0  0  0  0  0  0  0  0
  -24.5786  -11.6360   20.6999 C   0  0  0  0  0  0  0  0  0  0  0  0
  -30.4805  -18.1050   20.8169 C   0  0  0  0  0  0  0  0  0  0  0  0
  -29.6454  -19.7171   19.5765 C   0  0  0  0  0  0  0  0  0  0  0  0
  -25.2044  -13.7265   20.4293 C   0  0  0  0  0  0  0  0  0  0  0  0
  -22.8424  -13.4652   21.2047 C   0  0  0  0  0  0  0  0  0  0  0  0
  -28.5011  -27.9290   16.2560 C   0  0  0  0  0  0  0  0  0  0  0  0
  -28.0734  -29.3462   19.1423 C   0  0  0  0  0  0  0  0  0  0  0  0
  -27.7790  -29.0001   22.5247 C   0  0  0  0  0  0  0  0  0  0  0  0
  -30.6663  -14.8559   20.6216 C   0  0  0  0  0  0  0  0  0  0  0  0
  -28.5050  -31.0308   12.2018 C   0  0  0  0  0  0  0  0  0  0  0  0
  -26.5975  -26.5752   17.2042 C   0  0  0  0  0  0  0  0  0  0  0  0
  -28.7807  -26.9246   19.1679 C   0  0  0  0  0  0  0  0  0  0  0  0
  -28.9471  -31.1381   13.6589 C   0  0  0  0  0  0  0  0  0  0  0  0
  -29.5881  -12.3952   18.2852 C   0  0  0  0  0  0  0  0  0  0  0  0
  -29.7995  -29.9345   14.0482 C   0  0  0  0  0  0  0  0  0  0  0  0
  -28.1542  -12.0837   18.7176 C   0  0  0  0  0  0  0  0  0  0  0  0
  -30.4942  -12.6615   19.4853 C   0  0  0  0  0  0  0  0  0  0  0  0
  -28.5711  -13.3874   20.8449 C   0  0  0  0  0  0  0  0  0  0  0  0
  -29.0029  -28.6303   13.9220 C   0  0  1  0  0  0  0  0  0  0  0  0
  -27.4070  -27.8658   17.2839 C   0  0  1  0  0  0  0  0  0  0  0  0
  -27.6070  -13.1667   19.6667 C   0  0  2  0  0  0  0  0  0  0  0  0
  -27.4756  -30.3423   24.6232 C   0  0  0  0  0  0  0  0  0  0  0  0
  -31.0004  -30.1988   19.0174 C   0  0  0  0  0  0  0  0  0  0  0  0
  -30.8945  -30.6739   21.4733 C   0  0  0  0  0  0  0  0  0  0  0  0
  -29.4414  -31.9464   19.8948 C   0  0  0  0  0  0  0  0  0  0  0  0
  -31.7425  -20.0657   18.2367 C   0  0  0  0  0  0  0  0  0  0  0  0
  -25.2196  -27.6538   23.1539 C   0  0  0  0  0  0  0  0  0  0  0  0
  -30.6839  -17.0354   21.8085 C   0  0  0  0  0  0  0  0  0  0  0  0
  -28.8445  -20.7773   18.8794 C   0  0  0  0  0  0  0  0  0  1  0  0
  -28.9161  -29.5219   20.3825 C   0  0  1  0  0  0  0  0  0  0  0  0
  -26.7783  -29.5723   23.5125 C   0  0  2  0  0  0  0  0  0  0  0  0
  -30.0566  -30.5594   20.1819 C   0  0  0  0  0  0  0  0  0  0  0  0
  -25.8473  -11.5551   20.2903 N   0  0  0  0  0  0  0  0  0  0  0  0
  -31.4788  -18.4492   19.9991 N   0  0  0  0  0  0  0  0  0  0  0  0
  -30.9402  -19.4316   19.2569 N   0  0  0  0  0  0  0  0  0  0  0  0
  -26.2001  -12.8425   20.1341 N   0  0  0  0  0  0  0  0  0  0  0  0
  -28.0379  -28.0574   18.5914 N   0  0  0  0  0  0  0  0  0  0  0  0
  -29.9190  -13.6994   20.3443 N   0  0  0  0  0  0  0  0  0  0  0  0
  -25.3895  -15.0598   20.3264 N   0  0  0  0  0  0  0  0  0  0  0  0
  -21.8464  -12.5446   21.5579 N   0  0  0  0  0  0  0  0  0  0  0  0
  -28.1079  -28.4738   15.0485 N   0  0  0  0  0  0  0  0  0  0  0  0
  -27.9911  -29.8518   21.4613 N   0  0  0  0  0  0  0  0  0  0  0  0
  -30.0448  -15.7922   21.4388 N   0  0  0  0  0  0  0  0  0  0  0  0
  -25.9770  -28.4782   24.1304 N   0  3  0  0  0  0  0  0  0  0  0  0
  -22.5822  -14.6920   21.2322 O   0  0  0  0  0  0  0  0  0  0  0  0
  -29.6197  -27.5156   16.5380 O   0  0  0  0  0  0  0  0  0  0  0  0
  -27.4632  -30.3152   18.6836 O   0  0  0  0  0  0  0  0  0  0  0  0
  -28.3213  -27.9085   22.6827 O   0  0  0  0  0  0  0  0  0  0  0  0
  -31.8012  -15.0429   20.1698 O   0  0  0  0  0  0  0  0  0  0  0  0
  -21.6800   -6.9812   21.7940 O   0  0  0  0  0  0  0  0  0  0  0  0
  -29.2769  -22.0599   19.3313 O   0  0  0  0  0  0  0  0  0  1  0  0
  -18.6672   -6.8719   26.4109 F   0  0  0  0  0  0  0  0  0  0  0  0
  -22.1572   -5.0915   23.7547 F   0  0  0  0  0  0  0  0  0  0  0  0
  1  2  1  0  0  0  0
  1  5  2  0  0  0  0
  2  6  2  0  0  0  0
  3  8  2  0  0  0  0
  3 16  1  0  0  0  0
  4  9  1  0  0  0  0
  4 16  2  0  0  0  0
  5 18  1  0  0  0  0
  6 20  1  0  0  0  0
  7 10  2  0  0  0  0
  7 19  1  0  0  0  0
  8 22  1  0  0  0  0
  9 22  2  0  0  0  0
 10 23  1  0  0  0  0
 11 12  2  0  0  0  0
 11 24  1  0  0  0  0
 12 25  1  0  0  0  0
 13 21  1  0  0  0  0
 13 23  2  0  0  0  0
 14 25  2  0  0  0  0
 14 26  1  0  0  0  0
 15 28  1  0  0  0  0
 15 29  2  0  0  0  0
 16 27  1  0  0  0  0
 17 27  1  0  0  0  0
 17 30  2  0  0  0  0
 17 31  1  0  0  0  0
 18 20  2  0  0  0  0
 18 36  1  0  0  0  0
 19 21  2  0  0  0  0
 19 37  1  0  0  0  0
 20 45  1  0  0  0  0
 21 38  1  0  0  0  0
 22 76  1  0  0  0  0
 23 77  1  0  0  0  0
 24 26  2  0  0  0  0
 24 76  1  0  0  0  0
 25 78  1  0  0  0  0
 26 79  1  0  0  0  0
 27 59  2  0  0  0  0
 28 54  1  0  0  0  0
 28 60  2  0  0  0  0
 29 55  1  0  0  0  0
 29 61  1  0  0  0  0
 30 62  1  0  0  0  0
 30 65  1  0  0  0  0
 31 66  1  0  0  0  0
 31 71  2  0  0  0  0
 32 46  1  0  0  0  0
 32 67  1  0  0  0  0
 32 72  2  0  0  0  0
 33 56  1  0  0  0  0
 33 63  1  0  0  0  0
 33 73  2  0  0  0  0
 34 57  1  0  0  0  0
 34 68  1  0  0  0  0
 34 74  2  0  0  0  0
 35 64  1  0  0  0  0
 35 69  1  0  0  0  0
 35 75  2  0  0  0  0
 36 39  1  0  0  0  0
 37 46  1  0  0  0  0
 38 63  1  0  0  0  0
 39 41  1  0  0  0  0
 40 42  1  0  0  0  0
 40 43  1  0  0  0  0
 41 45  1  0  0  0  0
 42 47  1  0  0  0  0
 43 64  1  0  0  0  0
 44 47  1  0  0  0  0
 44 64  1  0  0  0  0
 45 67  1  0  0  0  0
 46 63  1  0  0  0  0
 47 62  1  0  0  0  0
 48 57  1  0  0  0  0
 49 58  1  0  0  0  0
 50 58  1  0  0  0  0
 51 58  1  0  0  0  0
 52 61  1  0  0  0  0
 53 70  1  0  0  0  0
 54 69  1  0  0  0  0
 55 77  1  0  0  0  0
 56 58  1  0  0  0  0
 56 68  1  0  0  0  0
 57 70  1  0  0  0  0
 59 62  1  0  0  0  0
 60 61  1  0  0  0  0
M  CHG  1  70   1
M  ISO  4  35 100  55 101  69 100  77 101
M  END
> <Batch ID>
0047

> <Smiles>
CNC(C)C(=O)NC(C(=O)N1Cc2cc([101O:1][101CH2:1]c3cc(C[100NH:0][100C:0](=O)N4CCCC(n5nc(-c6ccc(Oc7ccc(F)cc7F)cc6)c(C(N)=O)c5N)C4)nn3C)ccc2CC1C(=O)NC1CCCc2ccccc21)C(C)(C)C

> <Shape>
0.256

> <Color>
0.207

> <Negative vol penalty>
0.000

$$$$

  -OEChem-04052317243D

 82 90  0     1  0  0  0  0  0999 V2000
  -19.3520  -33.9335   22.7759 C   0  0  0  0  0  0  0  0  0  0  0  0
  -20.6847  -33.6944   22.4561 C   0  0  0  0  0  0  0  0  0  0  0  0
  -27.5433  -17.4808   19.7308 C   0  0  0  0  0  0  0  0  0  0  0  0
  -28.9001  -17.5332   21.7291 C   0  0  0  0  0  0  0  0  0  0  0  0
  -18.5958  -32.9394   23.3954 C   0  0  0  0  0  0  0  0  0  0  0  0
  -21.2622  -32.4613   22.7566 C   0  0  0  0  0  0  0  0  0  0  0  0
  -25.5144  -29.4953   19.4964 C   0  0  0  0  0  0  0  0  0  0  0  0
  -27.3497  -16.1096   19.8982 C   0  0  0  0  0  0  0  0  0  0  0  0
  -28.7065  -16.1620   21.8965 C   0  0  0  0  0  0  0  0  0  0  0  0
  -26.8990  -29.3990   19.6280 C   0  0  0  0  0  0  0  0  0  0  0  0
  -25.4268  -14.0791   21.7988 C   0  0  0  0  0  0  0  0  0  0  0  0
  -24.1337  -13.5823   21.6358 C   0  0  0  0  0  0  0  0  0  0  0  0
  -26.6344  -27.3244   20.8301 C   0  0  0  0  0  0  0  0  0  0  0  0
  -24.9048  -12.1646   19.8379 C   0  0  0  0  0  0  0  0  0  0  0  0
  -32.1018  -29.0533   20.0717 C   0  0  0  0  0  0  0  0  0  0  0  0
  -28.3185  -18.1926   20.6463 C   0  0  0  0  0  0  0  0  0  0  0  0
  -27.7224  -20.6494   20.9876 C   0  0  0  0  0  0  0  0  0  0  0  0
  -19.1617  -31.6901   23.6949 C   0  0  0  0  0  0  0  0  0  0  0  0
  -24.6775  -28.5108   20.0412 C   0  0  0  0  0  0  0  0  0  0  0  0
  -20.5133  -31.4500   23.3819 C   0  0  0  0  0  0  0  0  0  0  0  0
  -25.2397  -27.4092   20.7019 C   0  0  0  0  0  0  0  0  0  0  0  0
  -27.9313  -15.4502   20.9810 C   0  0  0  0  0  0  0  0  0  0  0  0
  -27.4591  -28.3150   20.2974 C   0  0  0  0  0  0  0  0  0  0  0  0
  -26.4590  -13.6187   20.9812 C   0  0  0  0  0  0  0  0  0  0  0  0
  -23.8727  -12.6251   20.6554 C   0  0  0  0  0  0  0  0  0  0  0  0
  -26.1980  -12.6614   20.0008 C   0  0  0  0  0  0  0  0  0  0  0  0
  -28.5193  -19.6089   20.4736 C   0  0  0  0  0  0  0  0  0  0  0  0
  -32.9800  -29.5618   20.9865 C   0  0  0  0  0  0  0  0  0  0  0  0
  -28.3309  -21.7985   20.5453 C   0  0  0  0  0  0  0  0  0  0  0  0
  -32.3246  -27.5719   21.7014 C   0  0  0  0  0  0  0  0  0  0  0  0
  -26.5381  -20.5830   21.7930 C   0  0  0  0  0  0  0  0  0  0  0  0
  -22.4004  -28.4784   22.2587 C   0  0  0  0  0  0  0  0  0  0  0  0
  -22.0315  -25.4083   21.2786 C   0  0  0  0  0  0  0  0  0  0  0  0
  -23.4017  -22.6546   19.7998 C   0  0  0  0  0  0  0  0  0  0  0  0
  -33.6061  -23.9557   19.5288 C   0  0  0  0  0  0  0  0  0  0  0  0
  -18.3180  -30.6631   24.4078 C   0  0  0  0  0  0  0  0  0  0  0  0
  -23.1871  -28.6156   19.8674 C   0  0  0  0  0  0  0  0  0  0  0  0
  -24.3859  -26.3151   21.2870 C   0  0  0  0  0  0  0  0  0  0  0  0
  -18.8996  -29.2528   24.3532 C   0  0  0  0  0  0  0  0  0  0  0  0
  -31.4704  -22.8920   16.8860 C   0  0  0  0  0  0  0  0  0  0  0  0
  -20.3879  -29.2758   24.6869 C   0  0  0  0  0  0  0  0  0  0  0  0
  -30.4176  -22.0336   17.5895 C   0  0  0  0  0  0  0  0  0  0  0  0
  -32.8505  -22.7226   17.5176 C   0  0  0  0  0  0  0  0  0  0  0  0
  -31.8446  -22.0926   19.6774 C   0  0  0  0  0  0  0  0  0  0  0  0
  -21.1685  -30.1165   23.6694 C   0  0  1  0  0  0  0  0  0  0  0  0
  -22.4067  -27.8191   20.9086 C   0  0  1  0  0  0  0  0  0  0  0  0
  -30.4255  -22.2721   19.1115 C   0  0  2  0  0  0  0  0  0  0  0  0
  -33.7153  -30.8287   21.0223 C   0  0  0  0  0  0  0  0  0  0  0  0
  -22.8682  -20.2836   19.1745 C   0  0  0  0  0  0  0  0  0  0  0  0
  -22.3446  -24.5710   24.1959 C   0  0  0  0  0  0  0  0  0  0  0  0
  -22.7551  -22.2305   23.4075 C   0  0  0  0  0  0  0  0  0  0  0  0
  -20.5682  -23.3363   22.9411 C   0  0  0  0  0  0  0  0  0  0  0  0
  -23.8262  -23.1960   16.9213 C   0  0  0  0  0  0  0  0  0  0  0  0
  -32.1845  -26.3555   22.5403 C   0  0  0  0  0  0  0  0  0  0  0  0
  -33.5129  -25.6350   22.8591 C   0  0  0  0  0  0  0  0  0  0  0  0
  -30.7441  -26.8955   19.8440 C   0  0  0  0  0  0  0  0  0  0  0  0
  -34.2506  -25.1094   21.6295 C   0  0  0  0  0  0  0  0  0  0  0  0
  -29.3647  -26.9056   20.4937 C   0  0  0  0  0  0  0  0  0  1  0  0
  -22.6277  -24.0799   21.6771 C   0  0  1  0  0  0  0  0  0  0  0  0
  -22.8824  -21.7322   18.7117 C   0  0  2  0  0  0  0  0  0  0  0  0
  -22.0902  -23.5759   23.0462 C   0  0  0  0  0  0  0  0  0  0  0  0
  -29.5550  -20.0574   19.7592 N   0  0  0  0  0  0  0  0  0  0  0  0
  -31.7127  -27.8212   20.5391 N   0  0  0  0  0  0  0  0  0  0  0  0
  -29.4130  -21.3923   19.8212 N   0  0  0  0  0  0  0  0  0  0  0  0
  -33.0989  -28.6245   21.9841 N   0  3  0  0  0  0  0  0  0  0  0  0
  -22.9338  -26.4659   21.0967 N   0  0  0  0  0  0  0  0  0  0  0  0
  -32.7892  -22.9640   18.9611 N   0  0  0  0  0  0  0  0  0  0  0  0
  -28.0406  -23.1067   20.7090 N   0  0  0  0  0  0  0  0  0  0  0  0
  -26.0480  -19.3217   22.1579 N   0  0  0  0  0  0  0  0  0  0  0  0
  -21.3636  -29.3731   22.4431 N   0  0  0  0  0  0  0  0  0  0  0  0
  -22.3767  -23.1697   20.5649 N   0  0  0  0  0  0  0  0  0  0  0  0
  -33.4814  -24.1242   20.9024 N   0  0  0  0  0  0  0  0  0  0  0  0
  -23.7407  -21.8292   17.4973 N   0  3  0  0  0  0  0  0  0  0  0  0
  -25.9230  -21.6115   22.1639 O   0  0  0  0  0  0  0  0  0  0  0  0
  -23.2709  -28.1953   23.0735 O   0  0  0  0  0  0  0  0  0  0  0  0
  -20.8109  -25.5023   21.1271 O   0  0  0  0  0  0  0  0  0  0  0  0
  -24.5973  -22.8914   19.9578 O   0  0  0  0  0  0  0  0  0  0  0  0
  -34.3848  -24.6439   18.8601 O   0  0  0  0  0  0  0  0  0  0  0  0
  -27.7424  -14.1123   21.1448 O   0  0  0  0  0  0  0  0  0  0  0  0
  -28.8103  -28.2189   20.4278 O   0  0  0  0  0  0  0  0  0  1  0  0
  -22.6311  -12.1469   20.5001 F   0  0  0  0  0  0  0  0  0  0  0  0
  -27.1858  -12.2144   19.2132 F   0  0  0  0  0  0  0  0  0  0  0  0
  1  2  1  0  0  0  0
  1  5  2  0  0  0  0
  2  6  2  0  0  0  0
  3  8  2  0  0  0  0
  3 16  1  0  0  0  0
  4  9  1  0  0  0  0
  4 16  2  0  0  0  0
  5 18  1  0  0  0  0
  6 20  1  0  0  0  0
  7 10  2  0  0  0  0
  7 19  1  0  0  0  0
  8 22  1  0  0  0  0
  9 22  2  0  0  0  0
 10 23  1  0  0  0  0
 11 12  2  0  0  0  0
 11 24  1  0  0  0  0
 12 25  1  0  0  0  0
 13 21  1  0  0  0  0
 13 23  2  0  0  0  0
 14 25  2  0  0  0  0
 14 26  1  0  0  0  0
 15 28  2  0  0  0  0
 15 63  1  0  0  0  0
 16 27  1  0  0  0  0
 17 27  1  0  0  0  0
 17 29  2  0  0  0  0
 17 31  1  0  0  0  0
 18 20  2  0  0  0  0
 18 36  1  0  0  0  0
 19 21  2  0  0  0  0
 19 37  1  0  0  0  0
 20 45  1  0  0  0  0
 21 38  1  0  0  0  0
 22 79  1  0  0  0  0
 23 80  1  0  0  0  0
 24 26  2  0  0  0  0
 24 79  1  0  0  0  0
 25 81  1  0  0  0  0
 26 82  1  0  0  0  0
 27 62  2  0  0  0  0
 28 48  1  0  0  0  0
 28 65  1  0  0  0  0
 29 64  1  0  0  0  0
 29 68  1  0  0  0  0
 30 54  1  0  0  0  0
 30 63  1  0  0  0  0
 30 65  2  0  0  0  0
 31 69  1  0  0  0  0
 31 74  2  0  0  0  0
 32 46  1  0  0  0  0
 32 70  1  0  0  0  0
 32 75  2  0  0  0  0
 33 59  1  0  0  0  0
 33 66  1  0  0  0  0
 33 76  2  0  0  0  0
 34 60  1  0  0  0  0
 34 71  1  0  0  0  0
 34 77  2  0  0  0  0
 35 67  1  0  0  0  0
 35 72  1  0  0  0  0
 35 78  2  0  0  0  0
 36 39  1  0  0  0  0
 37 46  1  0  0  0  0
 38 66  1  0  0  0  0
 39 41  1  0  0  0  0
 40 42  1  0  0  0  0
 40 43  1  0  0  0  0
 41 45  1  0  0  0  0
 42 47  1  0  0  0  0
 43 67  1  0  0  0  0
 44 47  1  0  0  0  0
 44 67  1  0  0  0  0
 45 70  1  0  0  0  0
 46 66  1  0  0  0  0
 47 64  1  0  0  0  0
 49 60  1  0  0  0  0
 50 61  1  0  0  0  0
 51 61  1  0  0  0  0
 52 61  1  0  0  0  0
 53 73  1  0  0  0  0
 54 55  1  0  0  0  0
 55 57  1  0  0  0  0
 56 58  1  0  0  0  0
 56 63  1  0  0  0  0
 57 72  1  0  0  0  0
 58 80  1  0  0  0  0
 59 61  1  0  0  0  0
 59 71  1  0  0  0  0
 60 73  1  0  0  0  0
 62 64  1  0  0  0  0
M  CHG  2  65   1  73   1
M  ISO  4  35 100  58 101  72 100  80 101
M  END
> <Batch ID>
0047

> <Smiles>
CNC(C)C(=O)NC(C(=O)N1Cc2cc([101O:1][101CH2:1]Cn3cc(C)nc3CCC[100NH:0][100C:0](=O)N3CCCC(n4nc(-c5ccc(Oc6ccc(F)cc6F)cc5)c(C(N)=O)c4N)C3)ccc2CC1C(=O)NC1CCCc2ccccc21)C(C)(C)C

> <Shape>
0.208

> <Color>
0.083

> <Negative vol penalty>
0.000

$$$$

  -OEChem-04052317243D

 86 94  0     1  0  0  0  0  0999 V2000
  -19.1618  -24.4621   21.9415 C   0  0  0  0  0  0  0  0  0  0  0  0
  -20.3851  -24.7699   21.3547 C   0  0  0  0  0  0  0  0  0  0  0  0
  -24.4223  -12.6670   21.6075 C   0  0  0  0  0  0  0  0  0  0  0  0
  -26.6919  -12.5389   20.7891 C   0  0  0  0  0  0  0  0  0  0  0  0
  -18.3325  -25.4851   22.3993 C   0  0  0  0  0  0  0  0  0  0  0  0
  -20.7793  -26.1010   21.2244 C   0  0  0  0  0  0  0  0  0  0  0  0
  -25.6102  -26.8357   22.5537 C   0  0  0  0  0  0  0  0  0  0  0  0
  -24.0031  -11.8262   20.5766 C   0  0  0  0  0  0  0  0  0  0  0  0
  -26.2726  -11.6980   19.7582 C   0  0  0  0  0  0  0  0  0  0  0  0
  -26.5879  -26.4635   21.6321 C   0  0  0  0  0  0  0  0  0  0  0  0
  -22.3954   -9.4234   18.3727 C   0  0  0  0  0  0  0  0  0  0  0  0
  -21.5231   -8.3845   18.6974 C   0  0  0  0  0  0  0  0  0  0  0  0
  -26.8119  -28.7661   20.9489 C   0  0  0  0  0  0  0  0  0  0  0  0
  -23.1697   -7.4759   20.2142 C   0  0  0  0  0  0  0  0  0  0  0  0
  -31.9393  -20.4516   19.8496 C   0  0  0  0  0  0  0  0  0  0  0  0
  -25.7667  -13.0234   21.7138 C   0  0  0  0  0  0  0  0  0  0  0  0
  -26.6413  -13.5121   24.0598 C   0  0  0  0  0  0  0  0  0  0  0  0
  -18.7211  -26.8291   22.2833 C   0  0  0  0  0  0  0  0  0  0  0  0
  -25.2176  -28.1766   22.6724 C   0  0  0  0  0  0  0  0  0  0  0  0
  -19.9538  -27.1431   21.6798 C   0  0  0  0  0  0  0  0  0  0  0  0
  -25.8309  -29.1531   21.8746 C   0  0  0  0  0  0  0  0  0  0  0  0
  -24.9282  -11.3417   19.6519 C   0  0  0  0  0  0  0  0  0  0  0  0
  -27.1868  -27.4283   20.8275 C   0  0  0  0  0  0  0  0  0  0  0  0
  -23.6549   -9.4885   18.9687 C   0  0  0  0  0  0  0  0  0  0  0  0
  -21.9102   -7.4108   19.6181 C   0  0  0  0  0  0  0  0  0  0  0  0
  -24.0420   -8.5148   19.8895 C   0  0  0  0  0  0  0  0  0  0  0  0
  -26.2003  -13.8924   22.7781 C   0  0  0  0  0  0  0  0  0  0  0  0
  -31.1059  -20.8123   20.9177 C   0  0  0  0  0  0  0  0  0  0  0  0
  -26.9355  -14.6978   24.6876 C   0  0  0  0  0  0  0  0  0  0  0  0
  -26.7732  -12.2040   24.6318 C   0  0  0  0  0  0  0  0  0  0  0  0
  -22.4966  -29.7634   22.2462 C   0  0  0  0  0  0  0  0  0  0  0  0
  -24.2117  -32.2464   23.4361 C   0  0  0  0  0  0  0  0  0  0  0  0
  -27.2707  -33.6601   23.9750 C   0  0  0  0  0  0  0  0  0  0  0  0
  -28.5100  -20.0574   22.8243 C   0  0  0  0  0  0  0  0  0  0  0  0
  -17.7700  -27.9026   22.7499 C   0  0  0  0  0  0  0  0  0  0  0  0
  -24.1807  -28.5656   23.6902 C   0  0  0  0  0  0  0  0  0  0  0  0
  -25.4595  -30.6091   21.9775 C   0  0  0  0  0  0  0  0  0  0  0  0
  -18.4281  -29.2701   22.9138 C   0  0  0  0  0  0  0  0  0  0  0  0
  -25.7211  -19.3162   24.7475 C   0  0  0  0  0  0  0  0  0  0  0  0
  -19.2941  -29.5946   21.7007 C   0  0  0  0  0  0  0  0  0  0  0  0
  -25.5576  -17.8051   24.5906 C   0  0  0  0  0  0  0  0  0  0  0  0
  -26.1102  -19.9620   23.4230 C   0  0  0  0  0  0  0  0  0  0  0  0
  -27.2107  -17.8827   22.6573 C   0  0  0  0  0  0  0  0  0  0  0  0
  -20.4275  -28.5738   21.5430 C   0  0  1  0  0  0  0  0  0  0  0  0
  -23.4912  -29.8872   23.3656 C   0  0  1  0  0  0  0  0  0  0  0  0
  -26.8175  -17.1758   23.9706 C   0  0  2  0  0  0  0  0  0  0  0  0
  -29.6395  -15.6476   21.5475 C   0  0  0  0  0  0  0  0  0  0  0  0
  -28.3512  -35.7111   24.9358 C   0  0  0  0  0  0  0  0  0  0  0  0
  -27.2073  -24.1598   16.6656 C   0  0  0  0  0  0  0  0  0  0  0  0
  -23.3988  -33.8320   20.9593 C   0  0  0  0  0  0  0  0  0  0  0  0
  -25.2243  -35.4616   21.4889 C   0  0  0  0  0  0  0  0  0  0  0  0
  -23.3441  -35.1324   23.0948 C   0  0  0  0  0  0  0  0  0  0  0  0
  -28.7390  -32.0791   26.0006 C   0  0  0  0  0  0  0  0  0  0  0  0
  -30.8940  -20.1286   22.2004 C   0  0  0  0  0  0  0  0  0  0  0  0
  -29.6843  -16.9370   22.3556 C   0  0  0  0  0  0  0  0  0  0  0  0
  -29.1028  -23.2274   18.0271 C   0  0  0  0  0  0  0  0  0  0  0  0
  -28.6551  -25.7788   17.9723 C   0  0  0  0  0  0  0  0  0  0  0  0
  -30.4937  -23.4261   18.6379 C   0  0  0  0  0  0  0  0  0  0  0  0
  -29.5572  -18.1821   21.4859 C   0  0  0  0  0  0  0  0  0  0  0  0
  -28.0461  -25.7572   19.3698 C   0  0  0  0  0  0  0  0  0  1  0  0
  -25.0898  -33.3211   22.8422 C   0  0  1  0  0  0  0  0  0  0  0  0
  -27.8855  -34.2900   25.2118 C   0  0  2  0  0  0  0  0  0  0  0  0
  -28.6114  -24.4400   17.2120 C   0  0  2  0  0  0  0  0  0  0  0  0
  -24.2701  -34.4092   22.0928 C   0  0  0  0  0  0  0  0  0  0  0  0
  -31.8335  -21.3521   18.8683 N   0  0  0  0  0  0  0  0  0  0  0  0
  -26.2116  -15.2162   22.6007 N   0  0  0  0  0  0  0  0  0  0  0  0
  -30.4626  -21.9465   20.6272 N   0  0  0  0  0  0  0  0  0  0  0  0
  -26.6631  -15.6781   23.7793 N   0  0  0  0  0  0  0  0  0  0  0  0
  -30.9433  -22.2050   19.4005 N   0  0  0  0  0  0  0  0  0  0  0  0
  -24.4359  -30.9386   22.9831 N   0  0  0  0  0  0  0  0  0  0  0  0
  -27.3073  -19.3364   22.8603 N   0  0  0  0  0  0  0  0  0  0  0  0
  -27.3979  -14.9871   25.9225 N   0  0  0  0  0  0  0  0  0  0  0  0
  -26.4274  -11.0944   23.8485 N   0  0  0  0  0  0  0  0  0  0  0  0
  -21.4897  -28.8482   22.4869 N   0  0  0  0  0  0  0  0  0  0  0  0
  -25.9035  -33.8354   23.9385 N   0  0  0  0  0  0  0  0  0  0  0  0
  -29.6263  -19.4156   22.2670 N   0  0  0  0  0  0  0  0  0  0  0  0
  -29.0575  -33.4922   25.6712 N   0  3  0  0  0  0  0  0  0  0  0  0
  -27.1700  -12.0253   25.8082 O   0  0  0  0  0  0  0  0  0  0  0  0
  -22.6318  -30.4487   21.2393 O   0  0  0  0  0  0  0  0  0  0  0  0
  -23.3630  -32.5548   24.2765 O   0  0  0  0  0  0  0  0  0  0  0  0
  -27.9371  -33.0747   23.1243 O   0  0  0  0  0  0  0  0  0  0  0  0
  -28.5822  -21.2142   23.2589 O   0  0  0  0  0  0  0  0  0  0  0  0
  -24.5195  -10.5209   18.6460 O   0  0  0  0  0  0  0  0  0  0  0  0
  -28.1409  -27.0676   19.9266 O   0  0  0  0  0  0  0  0  0  1  0  0
  -21.0718   -6.4141   19.9309 F   0  0  0  0  0  0  0  0  0  0  0  0
  -25.2502   -8.5727   20.4662 F   0  0  0  0  0  0  0  0  0  0  0  0
  1  2  1  0  0  0  0
  1  5  2  0  0  0  0
  2  6  2  0  0  0  0
  3  8  2  0  0  0  0
  3 16  1  0  0  0  0
  4  9  1  0  0  0  0
  4 16  2  0  0  0  0
  5 18  1  0  0  0  0
  6 20  1  0  0  0  0
  7 10  2  0  0  0  0
  7 19  1  0  0  0  0
  8 22  1  0  0  0  0
  9 22  2  0  0  0  0
 10 23  1  0  0  0  0
 11 12  2  0  0  0  0
 11 24  1  0  0  0  0
 12 25  1  0  0  0  0
 13 21  1  0  0  0  0
 13 23  2  0  0  0  0
 14 25  2  0  0  0  0
 14 26  1  0  0  0  0
 15 28  1  0  0  0  0
 15 65  2  0  0  0  0
 16 27  1  0  0  0  0
 17 27  1  0  0  0  0
 17 29  2  0  0  0  0
 17 30  1  0  0  0  0
 18 20  2  0  0  0  0
 18 35  1  0  0  0  0
 19 21  2  0  0  0  0
 19 36  1  0  0  0  0
 20 44  1  0  0  0  0
 21 37  1  0  0  0  0
 22 83  1  0  0  0  0
 23 84  1  0  0  0  0
 24 26  2  0  0  0  0
 24 83  1  0  0  0  0
 25 85  1  0  0  0  0
 26 86  1  0  0  0  0
 27 66  2  0  0  0  0
 28 54  1  0  0  0  0
 28 67  2  0  0  0  0
 29 68  1  0  0  0  0
 29 72  1  0  0  0  0
 30 73  1  0  0  0  0
 30 78  2  0  0  0  0
 31 45  1  0  0  0  0
 31 74  1  0  0  0  0
 31 79  2  0  0  0  0
 32 61  1  0  0  0  0
 32 70  1  0  0  0  0
 32 80  2  0  0  0  0
 33 62  1  0  0  0  0
 33 75  1  0  0  0  0
 33 81  2  0  0  0  0
 34 71  1  0  0  0  0
 34 76  1  0  0  0  0
 34 82  2  0  0  0  0
 35 38  1  0  0  0  0
 36 45  1  0  0  0  0
 37 70  1  0  0  0  0
 38 40  1  0  0  0  0
 39 41  1  0  0  0  0
 39 42  1  0  0  0  0
 40 44  1  0  0  0  0
 41 46  1  0  0  0  0
 42 71  1  0  0  0  0
 43 46  1  0  0  0  0
 43 71  1  0  0  0  0
 44 74  1  0  0  0  0
 45 70  1  0  0  0  0
 46 68  1  0  0  0  0
 47 55  1  0  0  0  0
 48 62  1  0  0  0  0
 49 63  1  0  0  0  0
 50 64  1  0  0  0  0
 51 64  1  0  0  0  0
 52 64  1  0  0  0  0
 53 77  1  0  0  0  0
 54 76  1  0  0  0  0
 55 59  1  0  0  0  0
 56 58  1  0  0  0  0
 56 63  1  0  0  0  0
 57 60  1  0  0  0  0
 57 63  1  0  0  0  0
 58 69  1  0  0  0  0
 59 76  1  0  0  0  0
 60 84  1  0  0  0  0
 61 64  1  0  0  0  0
 61 75  1  0  0  0  0
 62 77  1  0  0  0  0
 65 69  1  0  0  0  0
 66 68  1  0  0  0  0
 67 69  1  0  0  0  0
M  CHG  1  77   1
M  ISO  4  34 100  60 101  76 100  84 101
M  END
> <Batch ID>
0047

> <Smiles>
CCC[100N:0](Cc1cnn(CCC(C)C[101CH2:1][101O:1]c2ccc3c(c2)CN(C(=O)C(NC(=O)C(C)NC)C(C)(C)C)C(C(=O)NC2CCCc4ccccc42)C3)n1)[100C:0](=O)N1CCCC(n2nc(-c3ccc(Oc4ccc(F)cc4F)cc3)c(C(N)=O)c2N)C1

> <Shape>
0.244

> <Color>
0.087

> <Negative vol penalty>
0.000

$$$$

  -OEChem-04052317243D

 82 90  0     1  0  0  0  0  0999 V2000
  -16.7757  -29.5255   24.7821 C   0  0  0  0  0  0  0  0  0  0  0  0
  -17.5160  -28.3685   25.0024 C   0  0  0  0  0  0  0  0  0  0  0  0
  -22.9857  -10.1811   21.5530 C   0  0  0  0  0  0  0  0  0  0  0  0
  -23.6509  -11.3147   23.5802 C   0  0  0  0  0  0  0  0  0  0  0  0
  -16.9873  -30.2779   23.6274 C   0  0  0  0  0  0  0  0  0  0  0  0
  -18.4677  -27.9624   24.0675 C   0  0  0  0  0  0  0  0  0  0  0  0
  -24.8120  -24.6646   23.6308 C   0  0  0  0  0  0  0  0  0  0  0  0
  -22.1718   -9.3274   22.2975 C   0  0  0  0  0  0  0  0  0  0  0  0
  -22.8369  -10.4610   24.3247 C   0  0  0  0  0  0  0  0  0  0  0  0
  -25.4342  -23.6105   22.9634 C   0  0  0  0  0  0  0  0  0  0  0  0
  -22.5539   -6.5860   24.2374 C   0  0  0  0  0  0  0  0  0  0  0  0
  -22.6038   -5.2236   23.9425 C   0  0  0  0  0  0  0  0  0  0  0  0
  -25.7698  -25.0320   21.0436 C   0  0  0  0  0  0  0  0  0  0  0  0
  -20.2479   -5.2529   23.4081 C   0  0  0  0  0  0  0  0  0  0  0  0
  -28.6425  -20.1377   19.0010 C   0  0  0  0  0  0  0  0  0  0  0  0
  -23.7253  -11.1748   22.1944 C   0  0  0  0  0  0  0  0  0  0  0  0
  -24.2060  -13.2914   20.8540 C   0  0  0  0  0  0  0  0  0  0  0  0
  -17.9488  -29.8861   22.6826 C   0  0  0  0  0  0  0  0  0  0  0  0
  -24.6539  -25.9092   23.0045 C   0  0  0  0  0  0  0  0  0  0  0  0
  -18.6914  -28.7095   22.8985 C   0  0  0  0  0  0  0  0  0  0  0  0
  -25.1474  -26.1010   21.7061 C   0  0  0  0  0  0  0  0  0  0  0  0
  -22.0974   -9.4673   23.6833 C   0  0  0  0  0  0  0  0  0  0  0  0
  -25.9107  -23.7932   21.6686 C   0  0  0  0  0  0  0  0  0  0  0  0
  -21.3509   -7.2818   24.1177 C   0  0  0  0  0  0  0  0  0  0  0  0
  -21.4509   -4.5570   23.5278 C   0  0  0  0  0  0  0  0  0  0  0  0
  -20.1979   -6.6153   23.7030 C   0  0  0  0  0  0  0  0  0  0  0  0
  -24.5667  -12.0566   21.4259 C   0  0  0  0  0  0  0  0  0  0  0  0
  -28.6324  -18.7902   19.2865 C   0  0  0  0  0  0  0  0  0  0  0  0
  -27.3399  -19.1906   21.1302 C   0  0  0  0  0  0  0  0  0  0  0  0
  -27.3507  -20.5382   20.8450 C   0  0  0  0  0  0  0  0  0  0  0  0
  -25.3505  -13.7300   20.2341 C   0  0  0  0  0  0  0  0  0  0  0  0
  -22.9489  -13.9803   20.8807 C   0  0  0  0  0  0  0  0  0  0  0  0
  -22.1636  -27.6908   22.1511 C   0  0  0  0  0  0  0  0  0  0  0  0
  -24.4630  -29.8514   21.3980 C   0  0  0  0  0  0  0  0  0  0  0  0
  -27.7136  -30.4441   20.5440 C   0  0  0  0  0  0  0  0  0  0  0  0
  -30.8686  -14.5643   20.2291 C   0  0  0  0  0  0  0  0  0  0  0  0
  -18.1088  -30.7059   21.4269 C   0  0  0  0  0  0  0  0  0  0  0  0
  -24.0043  -27.0441   23.7479 C   0  0  0  0  0  0  0  0  0  0  0  0
  -25.0207  -27.4237   20.9970 C   0  0  0  0  0  0  0  0  0  0  0  0
  -19.3992  -30.4105   20.6668 C   0  0  0  0  0  0  0  0  0  0  0  0
  -29.7035  -11.3360   19.2820 C   0  0  0  0  0  0  0  0  0  0  0  0
  -19.6116  -28.9052   20.5404 C   0  0  0  0  0  0  0  0  0  0  0  0
  -28.2360  -11.3355   19.7137 C   0  0  0  0  0  0  0  0  0  0  0  0
  -30.5814  -12.1041   20.2675 C   0  0  0  0  0  0  0  0  0  0  0  0
  -28.6665  -13.4797   20.9848 C   0  0  0  0  0  0  0  0  0  0  0  0
  -19.7502  -28.2499   21.9198 C   0  0  1  0  0  0  0  0  0  0  0  0
  -23.4379  -28.1174   22.8234 C   0  0  1  0  0  0  0  0  0  0  0  0
  -27.7332  -12.7647   19.9929 C   0  0  2  0  0  0  0  0  0  0  0  0
  -26.6148  -18.6531   22.3164 C   0  0  0  0  0  0  0  0  0  0  0  0
  -29.2871  -32.3081   19.9551 C   0  0  0  0  0  0  0  0  0  0  0  0
  -23.2157  -30.0230   18.6187 C   0  0  0  0  0  0  0  0  0  0  0  0
  -25.3201  -31.1176   17.8180 C   0  0  0  0  0  0  0  0  0  0  0  0
  -23.9351  -32.2182   19.5766 C   0  0  0  0  0  0  0  0  0  0  0  0
  -29.4590  -29.8585   22.8612 C   0  0  0  0  0  0  0  0  0  0  0  0
  -29.3522  -17.8268   18.4092 C   0  0  0  0  0  0  0  0  0  0  0  0
  -26.6331  -21.5279   21.7150 C   0  0  0  0  0  0  0  0  0  1  0  0
  -30.8195  -17.5686   18.8093 C   0  0  0  0  0  0  0  0  0  0  0  0
  -30.9987  -17.0427   20.2319 C   0  0  0  0  0  0  0  0  0  0  0  0
  -25.2785  -30.1590   20.1654 C   0  0  1  0  0  0  0  0  0  0  0  0
  -28.7282  -31.4417   21.0730 C   0  0  2  0  0  0  0  0  0  0  0  0
  -24.4381  -30.8538   19.0570 C   0  0  0  0  0  0  0  0  0  0  0  0
  -28.0019  -21.0360   19.7751 N   0  0  0  0  0  0  0  0  0  0  0  0
  -25.8406  -11.7317   21.1902 N   0  0  0  0  0  0  0  0  0  0  0  0
  -27.9808  -18.2924   20.3562 N   0  0  0  0  0  0  0  0  0  0  0  0
  -26.2904  -12.7687   20.4632 N   0  0  0  0  0  0  0  0  0  0  0  0
  -24.3724  -28.5008   21.7632 N   0  0  0  0  0  0  0  0  0  0  0  0
  -30.0509  -13.4518   20.4874 N   0  0  0  0  0  0  0  0  0  0  0  0
  -25.6345  -14.8404   19.5208 N   0  0  0  0  0  0  0  0  0  0  0  0
  -21.8770  -13.3883   21.5626 N   0  0  0  0  0  0  0  0  0  0  0  0
  -21.0731  -28.4817   22.4589 N   0  0  0  0  0  0  0  0  0  0  0  0
  -26.4273  -30.9352   20.6192 N   0  0  0  0  0  0  0  0  0  0  0  0
  -30.2861  -15.8049   20.4577 N   0  0  0  0  0  0  0  0  0  0  0  0
  -29.8620  -30.7298   21.7275 N   0  3  0  0  0  0  0  0  0  0  0  0
  -22.7765  -15.0801   20.3027 O   0  0  0  0  0  0  0  0  0  0  0  0
  -22.1697  -26.7172   21.4070 O   0  0  0  0  0  0  0  0  0  0  0  0
  -23.9321  -30.7761   22.0181 O   0  0  0  0  0  0  0  0  0  0  0  0
  -28.0307  -29.3411   20.1044 O   0  0  0  0  0  0  0  0  0  0  0  0
  -32.0298  -14.4598   19.8197 O   0  0  0  0  0  0  0  0  0  0  0  0
  -21.3031   -8.6346   24.4101 O   0  0  0  0  0  0  0  0  0  0  0  0
  -26.5178  -22.7658   21.0146 O   0  0  0  0  0  0  0  0  0  1  0  0
  -21.4993   -3.2490   23.2432 F   0  0  0  0  0  0  0  0  0  0  0  0
  -19.0396   -7.2787   23.5850 F   0  0  0  0  0  0  0  0  0  0  0  0
  1  2  1  0  0  0  0
  1  5  2  0  0  0  0
  2  6  2  0  0  0  0
  3  8  2  0  0  0  0
  3 16  1  0  0  0  0
  4  9  1  0  0  0  0
  4 16  2  0  0  0  0
  5 18  1  0  0  0  0
  6 20  1  0  0  0  0
  7 10  2  0  0  0  0
  7 19  1  0  0  0  0
  8 22  1  0  0  0  0
  9 22  2  0  0  0  0
 10 23  1  0  0  0  0
 11 12  2  0  0  0  0
 11 24  1  0  0  0  0
 12 25  1  0  0  0  0
 13 21  1  0  0  0  0
 13 23  2  0  0  0  0
 14 25  2  0  0  0  0
 14 26  1  0  0  0  0
 15 28  1  0  0  0  0
 15 62  2  0  0  0  0
 16 27  1  0  0  0  0
 17 27  1  0  0  0  0
 17 31  2  0  0  0  0
 17 32  1  0  0  0  0
 18 20  2  0  0  0  0
 18 37  1  0  0  0  0
 19 21  2  0  0  0  0
 19 38  1  0  0  0  0
 20 46  1  0  0  0  0
 21 39  1  0  0  0  0
 22 79  1  0  0  0  0
 23 80  1  0  0  0  0
 24 26  2  0  0  0  0
 24 79  1  0  0  0  0
 25 81  1  0  0  0  0
 26 82  1  0  0  0  0
 27 63  2  0  0  0  0
 28 55  1  0  0  0  0
 28 64  2  0  0  0  0
 29 30  2  0  0  0  0
 29 49  1  0  0  0  0
 29 64  1  0  0  0  0
 30 56  1  0  0  0  0
 30 62  1  0  0  0  0
 31 65  1  0  0  0  0
 31 68  1  0  0  0  0
 32 69  1  0  0  0  0
 32 74  2  0  0  0  0
 33 47  1  0  0  0  0
 33 70  1  0  0  0  0
 33 75  2  0  0  0  0
 34 59  1  0  0  0  0
 34 66  1  0  0  0  0
 34 76  2  0  0  0  0
 35 60  1  0  0  0  0
 35 71  1  0  0  0  0
 35 77  2  0  0  0  0
 36 67  1  0  0  0  0
 36 72  1  0  0  0  0
 36 78  2  0  0  0  0
 37 40  1  0  0  0  0
 38 47  1  0  0  0  0
 39 66  1  0  0  0  0
 40 42  1  0  0  0  0
 41 43  1  0  0  0  0
 41 44  1  0  0  0  0
 42 46  1  0  0  0  0
 43 48  1  0  0  0  0
 44 67  1  0  0  0  0
 45 48  1  0  0  0  0
 45 67  1  0  0  0  0
 46 70  1  0  0  0  0
 47 66  1  0  0  0  0
 48 65  1  0  0  0  0
 50 60  1  0  0  0  0
 51 61  1  0  0  0  0
 52 61  1  0  0  0  0
 53 61  1  0  0  0  0
 54 73  1  0  0  0  0
 55 57  1  0  0  0  0
 56 80  1  0  0  0  0
 57 58  1  0  0  0  0
 58 72  1  0  0  0  0
 59 61  1  0  0  0  0
 59 71  1  0  0  0  0
 60 73  1  0  0  0  0
 63 65  1  0  0  0  0
M  CHG  1  73   1
M  ISO  4  36 100  56 101  72 100  80 101
M  END
> <Batch ID>
0047

> <Smiles>
CNC(C)C(=O)NC(C(=O)N1Cc2cc([101O:1][101CH2:1]c3ncc(CCC[100NH:0][100C:0](=O)N4CCCC(n5nc(-c6ccc(Oc7ccc(F)cc7F)cc6)c(C(N)=O)c5N)C4)nc3C)ccc2CC1C(=O)NC1CCCc2ccccc21)C(C)(C)C

> <Shape>
0.289

> <Color>
0.143

> <Negative vol penalty>
0.000

$$$$

  -OEChem-04052317243D

 82 90  0     1  0  0  0  0  0999 V2000
  -23.2460  -24.0187   21.1691 C   0  0  0  0  0  0  0  0  0  0  0  0
  -24.3979  -23.2399   21.2138 C   0  0  0  0  0  0  0  0  0  0  0  0
  -26.6551  -28.7052   21.6771 C   0  0  0  0  0  0  0  0  0  0  0  0
  -26.0212  -26.5690   22.6110 C   0  0  0  0  0  0  0  0  0  0  0  0
  -22.0384  -23.5027   21.6374 C   0  0  0  0  0  0  0  0  0  0  0  0
  -24.3431  -21.9449   21.7279 C   0  0  0  0  0  0  0  0  0  0  0  0
  -26.8476  -18.6077   18.8582 C   0  0  0  0  0  0  0  0  0  0  0  0
  -25.4073  -29.2256   22.0205 C   0  0  0  0  0  0  0  0  0  0  0  0
  -24.7734  -27.0895   22.9545 C   0  0  0  0  0  0  0  0  0  0  0  0
  -28.2369  -18.5863   18.9720 C   0  0  0  0  0  0  0  0  0  0  0  0
  -21.2904  -27.7515   23.7544 C   0  0  0  0  0  0  0  0  0  0  0  0
  -20.1654  -26.9749   23.4772 C   0  0  0  0  0  0  0  0  0  0  0  0
  -28.0825  -16.6645   20.4219 C   0  0  0  0  0  0  0  0  0  0  0  0
  -20.7238  -27.0049   21.1267 C   0  0  0  0  0  0  0  0  0  0  0  0
  -33.7250  -19.9646   23.1610 C   0  0  0  0  0  0  0  0  0  0  0  0
  -26.9620  -27.3769   21.9723 C   0  0  0  0  0  0  0  0  0  0  0  0
  -29.4173  -26.8365   22.4050 C   0  0  0  0  0  0  0  0  0  0  0  0
  -21.9668  -22.1973   22.1486 C   0  0  0  0  0  0  0  0  0  0  0  0
  -26.0633  -17.6627   19.5352 C   0  0  0  0  0  0  0  0  0  0  0  0
  -23.1337  -21.4114   22.2048 C   0  0  0  0  0  0  0  0  0  0  0  0
  -26.6835  -16.6745   20.3129 C   0  0  0  0  0  0  0  0  0  0  0  0
  -33.2167  -20.0142   21.8790 C   0  0  0  0  0  0  0  0  0  0  0  0
  -24.4665  -28.4178   22.6592 C   0  0  0  0  0  0  0  0  0  0  0  0
  -28.8545  -17.6164   19.7562 C   0  0  0  0  0  0  0  0  0  0  0  0
  -22.1321  -28.1549   22.7177 C   0  0  0  0  0  0  0  0  0  0  0  0
  -19.8821  -26.6015   22.1634 C   0  0  0  0  0  0  0  0  0  0  0  0
  -21.8488  -27.7816   21.4040 C   0  0  0  0  0  0  0  0  0  0  0  0
  -28.2505  -26.8386   21.6173 C   0  0  0  0  0  0  0  0  0  0  0  0
  -33.9609  -20.7371   20.9693 C   0  0  0  0  0  0  0  0  0  0  0  0
  -30.3588  -26.2140   21.6224 C   0  0  0  0  0  0  0  0  0  0  0  0
  -35.5048  -21.2440   22.5588 C   0  0  0  0  0  0  0  0  0  0  0  0
  -29.6309  -27.3512   23.7261 C   0  0  0  0  0  0  0  0  0  0  0  0
  -23.8240  -17.8056   21.7866 C   0  0  0  0  0  0  0  0  0  0  0  0
  -23.5759  -14.6261   21.1935 C   0  0  0  0  0  0  0  0  0  0  0  0
  -25.0435  -11.7725   20.0317 C   0  0  0  0  0  0  0  0  0  0  0  0
  -31.8648  -22.0996   18.1657 C   0  0  0  0  0  0  0  0  0  0  0  0
  -20.6486  -21.6998   22.6869 C   0  0  0  0  0  0  0  0  0  0  0  0
  -24.5673  -17.6830   19.3807 C   0  0  0  0  0  0  0  0  0  0  0  0
  -25.8879  -15.6251   21.0438 C   0  0  0  0  0  0  0  0  0  0  0  0
  -20.5983  -20.1852   22.8704 C   0  0  0  0  0  0  0  0  0  0  0  0
  -30.2459  -24.9280   16.7316 C   0  0  0  0  0  0  0  0  0  0  0  0
  -21.8606  -19.6898   23.5690 C   0  0  0  0  0  0  0  0  0  0  0  0
  -29.6738  -25.6731   17.9389 C   0  0  0  0  0  0  0  0  0  0  0  0
  -30.1760  -23.4139   16.9178 C   0  0  0  0  0  0  0  0  0  0  0  0
  -30.2172  -23.6591   19.3698 C   0  0  0  0  0  0  0  0  0  0  0  0
  -23.1094  -19.9932   22.7324 C   0  0  1  0  0  0  0  0  0  0  0  0
  -23.8387  -16.9874   20.5265 C   0  0  1  0  0  0  0  0  0  0  0  0
  -30.3171  -25.1896   19.2526 C   0  0  2  0  0  0  0  0  0  0  0  0
  -36.7760  -21.9264   22.9360 C   0  0  0  0  0  0  0  0  0  0  0  0
  -24.6056   -9.3227   19.7094 C   0  0  0  0  0  0  0  0  0  0  0  0
  -23.9700  -14.1648   24.1838 C   0  0  0  0  0  0  0  0  0  0  0  0
  -24.4713  -11.7648   23.6767 C   0  0  0  0  0  0  0  0  0  0  0  0
  -22.2310  -12.7129   23.1246 C   0  0  0  0  0  0  0  0  0  0  0  0
  -25.3998  -11.9760   17.1007 C   0  0  0  0  0  0  0  0  0  0  0  0
  -31.9291  -19.3152   21.5222 C   0  0  0  0  0  0  0  0  0  0  0  0
  -33.5081  -20.8596   19.5517 C   0  0  0  0  0  0  0  0  0  0  0  0
  -32.0734  -17.7997   21.3672 C   0  0  0  0  0  0  0  0  0  0  0  0
  -30.7517  -17.0925   21.0911 C   0  0  0  0  0  0  0  0  0  1  0  0
  -24.2361  -13.3824   21.7378 C   0  0  1  0  0  0  0  0  0  0  0  0
  -24.5489  -10.7033   19.0742 C   0  0  2  0  0  0  0  0  0  0  0  0
  -23.7423  -13.0270   23.1686 C   0  0  0  0  0  0  0  0  0  0  0  0
  -34.8706  -20.5700   23.5371 N   0  0  0  0  0  0  0  0  0  0  0  0
  -28.4319  -26.2632   20.4257 N   0  0  0  0  0  0  0  0  0  0  0  0
  -35.1138  -21.3672   21.2760 N   0  0  0  0  0  0  0  0  0  0  0  0
  -29.7236  -25.8939   20.4587 N   0  0  0  0  0  0  0  0  0  0  0  0
  -24.4278  -15.6906   20.8663 N   0  0  0  0  0  0  0  0  0  0  0  0
  -30.8047  -23.0210   18.1813 N   0  0  0  0  0  0  0  0  0  0  0  0
  -31.6598  -25.9149   21.8230 N   0  0  0  0  0  0  0  0  0  0  0  0
  -28.5559  -27.9603   24.3877 N   0  0  0  0  0  0  0  0  0  0  0  0
  -23.2317  -19.0460   21.6451 N   0  0  0  0  0  0  0  0  0  0  0  0
  -24.0086  -12.3337   20.7495 N   0  0  0  0  0  0  0  0  0  0  0  0
  -32.4081  -21.7866   19.4057 N   0  0  0  0  0  0  0  0  0  0  0  0
  -25.3834  -10.6874   17.8396 N   0  3  0  0  0  0  0  0  0  0  0  0
  -30.7464  -27.2879   24.2963 O   0  0  0  0  0  0  0  0  0  0  0  0
  -24.3124  -17.3451   22.8118 O   0  0  0  0  0  0  0  0  0  0  0  0
  -22.3502  -14.6497   21.0569 O   0  0  0  0  0  0  0  0  0  0  0  0
  -26.2298  -12.0768   20.1352 O   0  0  0  0  0  0  0  0  0  0  0  0
  -32.2988  -21.5975   17.1233 O   0  0  0  0  0  0  0  0  0  0  0  0
  -23.2490  -28.9253   22.9947 O   0  0  0  0  0  0  0  0  0  0  0  0
  -30.2104  -17.5936   19.8696 O   0  0  0  0  0  0  0  0  0  1  0  0
  -18.8026  -25.8544   21.8975 F   0  0  0  0  0  0  0  0  0  0  0  0
  -22.6543  -28.1652   20.4041 F   0  0  0  0  0  0  0  0  0  0  0  0
  1  2  1  0  0  0  0
  1  5  2  0  0  0  0
  2  6  2  0  0  0  0
  3  8  2  0  0  0  0
  3 16  1  0  0  0  0
  4  9  1  0  0  0  0
  4 16  2  0  0  0  0
  5 18  1  0  0  0  0
  6 20  1  0  0  0  0
  7 10  2  0  0  0  0
  7 19  1  0  0  0  0
  8 23  1  0  0  0  0
  9 23  2  0  0  0  0
 10 24  1  0  0  0  0
 11 12  2  0  0  0  0
 11 25  1  0  0  0  0
 12 26  1  0  0  0  0
 13 21  1  0  0  0  0
 13 24  2  0  0  0  0
 14 26  2  0  0  0  0
 14 27  1  0  0  0  0
 15 22  1  0  0  0  0
 15 62  2  0  0  0  0
 16 28  1  0  0  0  0
 17 28  1  0  0  0  0
 17 30  2  0  0  0  0
 17 32  1  0  0  0  0
 18 20  2  0  0  0  0
 18 37  1  0  0  0  0
 19 21  2  0  0  0  0
 19 38  1  0  0  0  0
 20 46  1  0  0  0  0
 21 39  1  0  0  0  0
 22 29  2  0  0  0  0
 22 55  1  0  0  0  0
 23 79  1  0  0  0  0
 24 80  1  0  0  0  0
 25 27  2  0  0  0  0
 25 79  1  0  0  0  0
 26 81  1  0  0  0  0
 27 82  1  0  0  0  0
 28 63  2  0  0  0  0
 29 56  1  0  0  0  0
 29 64  1  0  0  0  0
 30 65  1  0  0  0  0
 30 68  1  0  0  0  0
 31 49  1  0  0  0  0
 31 62  1  0  0  0  0
 31 64  2  0  0  0  0
 32 69  1  0  0  0  0
 32 74  2  0  0  0  0
 33 47  1  0  0  0  0
 33 70  1  0  0  0  0
 33 75  2  0  0  0  0
 34 59  1  0  0  0  0
 34 66  1  0  0  0  0
 34 76  2  0  0  0  0
 35 60  1  0  0  0  0
 35 71  1  0  0  0  0
 35 77  2  0  0  0  0
 36 67  1  0  0  0  0
 36 72  1  0  0  0  0
 36 78  2  0  0  0  0
 37 40  1  0  0  0  0
 38 47  1  0  0  0  0
 39 66  1  0  0  0  0
 40 42  1  0  0  0  0
 41 43  1  0  0  0  0
 41 44  1  0  0  0  0
 42 46  1  0  0  0  0
 43 48  1  0  0  0  0
 44 67  1  0  0  0  0
 45 48  1  0  0  0  0
 45 67  1  0  0  0  0
 46 70  1  0  0  0  0
 47 66  1  0  0  0  0
 48 65  1  0  0  0  0
 50 60  1  0  0  0  0
 51 61  1  0  0  0  0
 52 61  1  0  0  0  0
 53 61  1  0  0  0  0
 54 73  1  0  0  0  0
 55 57  1  0  0  0  0
 56 72  1  0  0  0  0
 57 58  1  0  0  0  0
 58 80  1  0  0  0  0
 59 61  1  0  0  0  0
 59 71  1  0  0  0  0
 60 73  1  0  0  0  0
 63 65  1  0  0  0  0
M  CHG  1  73   1
M  ISO  4  36 100  58 101  72 100  80 101
M  END
> <Batch ID>
0047

> <Smiles>
CNC(C)C(=O)NC(C(=O)N1Cc2cc([101O:1][101CH2:1]CCc3cnc(C)nc3C[100NH:0][100C:0](=O)N3CCCC(n4nc(-c5ccc(Oc6ccc(F)cc6F)cc5)c(C(N)=O)c4N)C3)ccc2CC1C(=O)NC1CCCc2ccccc21)C(C)(C)C

> <Shape>
0.186

> <Color>
0.078

> <Negative vol penalty>
0.000

$$$$

  -OEChem-04052317243D

 94102  0     1  0  0  0  0  0999 V2000
  -25.0238  -32.2161   29.8285 C   0  0  0  0  0  0  0  0  0  0  0  0
  -24.9038  -30.8316   29.8938 C   0  0  0  0  0  0  0  0  0  0  0  0
  -23.2668  -12.1662   23.3362 C   0  0  0  0  0  0  0  0  0  0  0  0
  -24.3093  -10.1124   22.6065 C   0  0  0  0  0  0  0  0  0  0  0  0
  -24.9303  -32.8655   28.5983 C   0  0  0  0  0  0  0  0  0  0  0  0
  -24.6891  -30.0958   28.7289 C   0  0  0  0  0  0  0  0  0  0  0  0
  -26.2025  -23.7463   25.7777 C   0  0  0  0  0  0  0  0  0  0  0  0
  -22.6622  -11.4842   24.3920 C   0  0  0  0  0  0  0  0  0  0  0  0
  -23.7047   -9.4304   23.6624 C   0  0  0  0  0  0  0  0  0  0  0  0
  -25.5702  -22.6647   25.1660 C   0  0  0  0  0  0  0  0  0  0  0  0
  -20.6584   -8.1537   24.3843 C   0  0  0  0  0  0  0  0  0  0  0  0
  -20.0619   -6.9243   24.1047 C   0  0  0  0  0  0  0  0  0  0  0  0
  -25.5048  -23.8865   23.0870 C   0  0  0  0  0  0  0  0  0  0  0  0
  -29.6420  -18.2314   20.0124 C   0  0  0  0  0  0  0  0  0  0  0  0
  -21.5497   -5.8456   25.6731 C   0  0  0  0  0  0  0  0  0  0  0  0
  -24.0904  -11.4803   22.4434 C   0  0  0  0  0  0  0  0  0  0  0  0
  -24.0723  -12.8860   20.3147 C   0  0  0  0  0  0  0  0  0  0  0  0
  -24.7240  -32.1364   27.4166 C   0  0  0  0  0  0  0  0  0  0  0  0
  -26.4814  -24.9122   25.0502 C   0  0  0  0  0  0  0  0  0  0  0  0
  -24.5914  -30.7362   27.4819 C   0  0  0  0  0  0  0  0  0  0  0  0
  -26.1430  -24.9805   23.6911 C   0  0  0  0  0  0  0  0  0  0  0  0
  -28.8742  -19.3369   19.6634 C   0  0  0  0  0  0  0  0  0  0  0  0
  -30.1133  -18.1023   21.3142 C   0  0  0  0  0  0  0  0  0  0  0  0
  -22.8811  -10.1163   24.5551 C   0  0  0  0  0  0  0  0  0  0  0  0
  -25.2186  -22.7358   23.8213 C   0  0  0  0  0  0  0  0  0  0  0  0
  -21.7007   -8.2291   25.3083 C   0  0  0  0  0  0  0  0  0  0  0  0
  -20.5075   -5.7702   24.7491 C   0  0  0  0  0  0  0  0  0  0  0  0
  -22.1463   -7.0750   25.9527 C   0  0  0  0  0  0  0  0  0  0  0  0
  -24.7148  -12.1842   21.3522 C   0  0  0  0  0  0  0  0  0  0  0  0
  -28.6079  -20.2776   20.6452 C   0  0  0  0  0  0  0  0  0  0  0  0
  -29.7916  -19.0984   22.2220 C   0  0  0  0  0  0  0  0  0  0  0  0
  -25.0985  -13.3700   19.5407 C   0  0  0  0  0  0  0  0  0  0  0  0
  -22.6730  -13.0828   20.0723 C   0  0  0  0  0  0  0  0  0  0  0  0
  -25.5899  -27.9559   25.2625 C   0  0  0  0  0  0  0  0  0  0  0  0
  -26.6823  -15.2976   22.9203 C   0  0  0  0  0  0  0  0  0  0  0  0
  -27.7587  -28.3517   22.8831 C   0  0  0  0  0  0  0  0  0  0  0  0
  -29.5081  -26.9712   20.2983 C   0  0  0  0  0  0  0  0  0  0  0  0
  -30.7353  -14.7301   20.5672 C   0  0  0  0  0  0  0  0  0  0  0  0
  -24.5825  -32.8868   26.1160 C   0  0  0  0  0  0  0  0  0  0  0  0
  -27.1881  -26.0599   25.7178 C   0  0  0  0  0  0  0  0  0  0  0  0
  -26.4387  -26.2017   22.8607 C   0  0  0  0  0  0  0  0  0  0  0  0
  -24.7283  -32.0000   24.8821 C   0  0  0  0  0  0  0  0  0  0  0  0
  -29.5961  -12.4184   18.2468 C   0  0  0  0  0  0  0  0  0  0  0  0
  -23.9018  -30.7275   25.0385 C   0  0  0  0  0  0  0  0  0  0  0  0
  -28.1523  -12.1530   18.6707 C   0  0  0  0  0  0  0  0  0  0  0  0
  -30.5092  -12.5268   19.4622 C   0  0  0  0  0  0  0  0  0  0  0  0
  -28.6423  -13.3264   20.8752 C   0  0  0  0  0  0  0  0  0  0  0  0
  -24.3828  -29.9010   26.2373 C   0  0  1  0  0  0  0  0  0  0  0  0
  -26.9606  -27.3934   25.0124 C   0  0  1  0  0  0  0  0  0  0  0  0
  -27.6719  -13.2086   19.6820 C   0  0  2  0  0  0  0  0  0  0  0  0
  -28.3663  -19.4810   18.2705 C   0  0  0  0  0  0  0  0  0  0  0  0
  -27.7894  -21.4862   20.3282 C   0  0  0  0  0  0  0  0  0  0  0  0
  -30.0636  -21.0210   28.2944 C   0  0  0  0  0  0  0  0  0  0  0  0
  -31.1872  -26.8236   18.4393 C   0  0  0  0  0  0  0  0  0  0  0  0
  -25.5567  -29.7193   21.2734 C   0  0  0  0  0  0  0  0  0  0  0  0
  -26.9634  -29.4176   19.2244 C   0  0  0  0  0  0  0  0  0  0  0  0
  -27.7991  -30.8150   21.1143 C   0  0  0  0  0  0  0  0  0  0  0  0
  -31.6450  -26.0829   22.1431 C   0  0  0  0  0  0  0  0  0  0  0  0
  -30.9431  -16.9111   21.6975 C   0  0  0  0  0  0  0  0  0  0  0  0
  -30.2698  -19.0109   23.6344 C   0  0  0  0  0  0  0  0  0  0  0  0
  -25.2638  -15.4896   22.4027 C   0  0  0  0  0  0  0  0  0  0  0  0
  -27.7911  -15.6210   21.9277 C   0  0  0  0  0  0  0  0  0  0  0  0
  -29.4931  -21.0358   26.8852 C   0  0  0  0  0  0  0  0  0  0  0  0
  -29.6109  -20.0315   24.5703 C   0  0  0  0  0  0  0  0  0  0  0  0
  -24.9592  -16.9169   21.9500 C   0  0  0  0  0  0  0  0  0  0  0  0
  -30.1628  -19.9850   25.9987 C   0  0  0  0  0  0  0  0  0  0  0  0
  -25.1192  -17.9358   23.0833 C   0  0  0  0  0  0  0  0  0  0  0  0
  -24.7840  -19.3521   22.6053 C   0  0  0  0  0  0  0  0  0  0  0  0
  -29.1892  -15.3575   22.4700 C   0  0  0  0  0  0  0  0  0  0  0  0
  -24.9037  -20.3806   23.7233 C   0  0  0  0  0  0  0  0  0  1  0  0
  -27.7122  -28.3017   21.3750 C   0  0  1  0  0  0  0  0  0  0  0  0
  -30.9797  -27.0334   19.9312 C   0  0  2  0  0  0  0  0  0  0  0  0
  -27.0004  -29.5410   20.7626 C   0  0  0  0  0  0  0  0  0  0  0  0
  -26.0462  -12.2169   21.2495 N   0  0  0  0  0  0  0  0  0  0  0  0
  -29.0483  -20.1865   21.9200 N   0  0  0  0  0  0  0  0  0  0  0  0
  -26.2485  -12.9450   20.1382 N   0  0  0  0  0  0  0  0  0  0  0  0
  -27.1253  -27.3001   23.5604 N   0  0  0  0  0  0  0  0  0  0  0  0
  -30.0202  -13.5344   20.4037 N   0  0  0  0  0  0  0  0  0  0  0  0
  -25.1203  -14.1134   18.4141 N   0  0  0  0  0  0  0  0  0  0  0  0
  -21.9938  -12.1466   19.2807 N   0  0  0  0  0  0  0  0  0  0  0  0
  -25.5925  -29.1809   25.9018 N   0  0  0  0  0  0  0  0  0  0  0  0
  -29.0901  -28.1235   20.9298 N   0  0  0  0  0  0  0  0  0  0  0  0
  -30.2291  -15.6596   21.4882 N   0  0  0  0  0  0  0  0  0  0  0  0
  -31.7413  -25.9827   20.6640 N   0  3  0  0  0  0  0  0  0  0  0  0
  -22.0471  -14.0688   20.5301 O   0  0  0  0  0  0  0  0  0  0  0  0
  -24.6030  -27.3258   24.9009 O   0  0  0  0  0  0  0  0  0  0  0  0
  -26.9160  -14.8680   24.0488 O   0  0  0  0  0  0  0  0  0  0  0  0
  -28.3418  -29.2855   23.4395 O   0  0  0  0  0  0  0  0  0  0  0  0
  -28.7992  -25.9993   20.0465 O   0  0  0  0  0  0  0  0  0  0  0  0
  -31.7737  -14.9529   19.9314 O   0  0  0  0  0  0  0  0  0  0  0  0
  -22.2914   -9.4505   25.5855 O   0  0  0  0  0  0  0  0  0  0  0  0
  -24.6007  -21.6818   23.2219 O   0  0  0  0  0  0  0  0  0  1  0  0
  -19.9335   -4.5899   24.4816 F   0  0  0  0  0  0  0  0  0  0  0  0
  -23.1464   -7.1414   26.8422 F   0  0  0  0  0  0  0  0  0  0  0  0
  1  2  1  0  0  0  0
  1  5  2  0  0  0  0
  2  6  2  0  0  0  0
  3  8  2  0  0  0  0
  3 16  1  0  0  0  0
  4  9  1  0  0  0  0
  4 16  2  0  0  0  0
  5 18  1  0  0  0  0
  6 20  1  0  0  0  0
  7 10  2  0  0  0  0
  7 19  1  0  0  0  0
  8 24  1  0  0  0  0
  9 24  2  0  0  0  0
 10 25  1  0  0  0  0
 11 12  2  0  0  0  0
 11 26  1  0  0  0  0
 12 27  1  0  0  0  0
 13 21  1  0  0  0  0
 13 25  2  0  0  0  0
 14 22  2  0  0  0  0
 14 23  1  0  0  0  0
 15 27  2  0  0  0  0
 15 28  1  0  0  0  0
 16 29  1  0  0  0  0
 17 29  1  0  0  0  0
 17 32  2  0  0  0  0
 17 33  1  0  0  0  0
 18 20  2  0  0  0  0
 18 39  1  0  0  0  0
 19 21  2  0  0  0  0
 19 40  1  0  0  0  0
 20 48  1  0  0  0  0
 21 41  1  0  0  0  0
 22 30  1  0  0  0  0
 22 51  1  0  0  0  0
 23 31  2  0  0  0  0
 23 59  1  0  0  0  0
 24 91  1  0  0  0  0
 25 92  1  0  0  0  0
 26 28  2  0  0  0  0
 26 91  1  0  0  0  0
 27 93  1  0  0  0  0
 28 94  1  0  0  0  0
 29 74  2  0  0  0  0
 30 52  1  0  0  0  0
 30 75  2  0  0  0  0
 31 60  1  0  0  0  0
 31 75  1  0  0  0  0
 32 76  1  0  0  0  0
 32 79  1  0  0  0  0
 33 80  1  0  0  0  0
 33 85  2  0  0  0  0
 34 49  1  0  0  0  0
 34 81  1  0  0  0  0
 34 86  2  0  0  0  0
 35 61  1  0  0  0  0
 35 62  1  0  0  0  0
 35 87  2  0  0  0  0
 36 71  1  0  0  0  0
 36 77  1  0  0  0  0
 36 88  2  0  0  0  0
 37 72  1  0  0  0  0
 37 82  1  0  0  0  0
 37 89  2  0  0  0  0
 38 78  1  0  0  0  0
 38 83  1  0  0  0  0
 38 90  2  0  0  0  0
 39 42  1  0  0  0  0
 40 49  1  0  0  0  0
 41 77  1  0  0  0  0
 42 44  1  0  0  0  0
 43 45  1  0  0  0  0
 43 46  1  0  0  0  0
 44 48  1  0  0  0  0
 45 50  1  0  0  0  0
 46 78  1  0  0  0  0
 47 50  1  0  0  0  0
 47 78  1  0  0  0  0
 48 81  1  0  0  0  0
 49 77  1  0  0  0  0
 50 76  1  0  0  0  0
 53 63  1  0  0  0  0
 54 72  1  0  0  0  0
 55 73  1  0  0  0  0
 56 73  1  0  0  0  0
 57 73  1  0  0  0  0
 58 84  1  0  0  0  0
 59 83  1  0  0  0  0
 60 64  1  0  0  0  0
 61 65  1  0  0  0  0
 62 69  1  0  0  0  0
 63 66  1  0  0  0  0
 64 66  1  0  0  0  0
 65 67  1  0  0  0  0
 67 68  1  0  0  0  0
 68 70  1  0  0  0  0
 69 83  1  0  0  0  0
 70 92  1  0  0  0  0
 71 73  1  0  0  0  0
 71 82  1  0  0  0  0
 72 84  1  0  0  0  0
 74 76  1  0  0  0  0
M  CHG  1  84   1
M  ISO  4  38 100  70 101  83 100  92 101
M  END
> <Batch ID>
0047

> <Smiles>
CCCCCc1nc(C)c(C)cc1C[100N:0](CCC(=O)CCCC[101CH2:1][101O:1]c1ccc2c(c1)CN(C(=O)C(NC(=O)C(C)NC)C(C)(C)C)C(C(=O)NC1CCCc3ccccc31)C2)[100C:0](=O)N1CCCC(n2nc(-c3ccc(Oc4ccc(F)cc4F)cc3)c(C(N)=O)c2N)C1

> <Shape>
0.255

> <Color>
0.085

> <Negative vol penalty>
0.000

$$$$

  -OEChem-04052317243D

 80 88  0     1  0  0  0  0  0999 V2000
  -29.5642  -33.0321   20.9696 C   0  0  0  0  0  0  0  0  0  0  0  0
  -30.3121  -31.8960   21.2617 C   0  0  0  0  0  0  0  0  0  0  0  0
  -23.4943   -9.6594   20.7187 C   0  0  0  0  0  0  0  0  0  0  0  0
  -24.1215  -10.2975   22.9629 C   0  0  0  0  0  0  0  0  0  0  0  0
  -28.2486  -32.9042   20.5260 C   0  0  0  0  0  0  0  0  0  0  0  0
  -29.7444  -30.6313   21.1113 C   0  0  0  0  0  0  0  0  0  0  0  0
  -31.4764  -23.9088   19.3435 C   0  0  0  0  0  0  0  0  0  0  0  0
  -22.9009   -8.4986   21.2146 C   0  0  0  0  0  0  0  0  0  0  0  0
  -23.5280   -9.1367   23.4588 C   0  0  0  0  0  0  0  0  0  0  0  0
  -31.3586  -22.6048   19.8225 C   0  0  0  0  0  0  0  0  0  0  0  0
  -20.0135   -7.6370   22.7488 C   0  0  0  0  0  0  0  0  0  0  0  0
  -18.7530   -7.2938   22.2602 C   0  0  0  0  0  0  0  0  0  0  0  0
  -29.1030  -22.5030   18.9733 C   0  0  0  0  0  0  0  0  0  0  0  0
  -19.6409   -5.2022   21.4390 C   0  0  0  0  0  0  0  0  0  0  0  0
  -30.6378  -17.1229   22.8371 C   0  0  0  0  0  0  0  0  0  0  0  0
  -30.2775  -16.5524   20.6008 C   0  0  0  0  0  0  0  0  0  0  0  0
  -24.1047  -10.5589   21.5928 C   0  0  0  0  0  0  0  0  0  0  0  0
  -24.1078  -13.0126   20.8952 C   0  0  0  0  0  0  0  0  0  0  0  0
  -27.6677  -31.6370   20.3609 C   0  0  0  0  0  0  0  0  0  0  0  0
  -30.4027  -24.5246   18.6843 C   0  0  0  0  0  0  0  0  0  0  0  0
  -28.4194  -30.4864   20.6663 C   0  0  0  0  0  0  0  0  0  0  0  0
  -29.2106  -23.8140   18.4846 C   0  0  0  0  0  0  0  0  0  0  0  0
  -30.3019  -16.1480   21.9199 C   0  0  0  0  0  0  0  0  0  0  0  0
  -22.9177   -8.2373   22.5846 C   0  0  0  0  0  0  0  0  0  0  0  0
  -30.1708  -21.9027   19.6399 C   0  0  0  0  0  0  0  0  0  0  0  0
  -21.0878   -6.7629   22.5825 C   0  0  0  0  0  0  0  0  0  0  0  0
  -18.5666   -6.0764   21.6053 C   0  0  0  0  0  0  0  0  0  0  0  0
  -20.9014   -5.5455   21.9277 C   0  0  0  0  0  0  0  0  0  0  0  0
  -24.7184  -11.7579   21.0811 C   0  0  0  0  0  0  0  0  0  0  0  0
  -25.1066  -13.8091   20.3905 C   0  0  0  0  0  0  0  0  0  0  0  0
  -30.8711  -18.6673   21.1856 C   0  0  0  0  0  0  0  0  0  0  0  0
  -22.7585  -13.4217   21.1555 C   0  0  0  0  0  0  0  0  0  0  0  0
  -28.5997  -27.0829   19.2391 C   0  0  0  0  0  0  0  0  0  0  0  0
  -27.3883  -26.3814   16.3129 C   0  0  0  0  0  0  0  0  0  0  0  0
  -26.8190  -24.0371   13.8989 C   0  0  0  0  0  0  0  0  0  0  0  0
  -31.1704  -13.0690   20.8606 C   0  0  0  0  0  0  0  0  0  0  0  0
  -26.2268  -31.5504   19.9239 C   0  0  0  0  0  0  0  0  0  0  0  0
  -30.5550  -25.9224   18.1500 C   0  0  0  0  0  0  0  0  0  0  0  0
  -28.0355  -24.4227   17.7656 C   0  0  0  0  0  0  0  0  0  0  0  0
  -25.8216  -30.1629   19.4328 C   0  0  0  0  0  0  0  0  0  0  0  0
  -29.1302  -13.6125   17.8202 C   0  0  0  0  0  0  0  0  0  0  0  0
  -26.3164  -29.0897   20.3973 C   0  0  0  0  0  0  0  0  0  0  0  0
  -27.7265  -13.2328   18.2887 C   0  0  0  0  0  0  0  0  0  0  0  0
  -30.2092  -12.8638   18.5966 C   0  0  0  0  0  0  0  0  0  0  0  0
  -28.6998  -12.6356   20.5418 C   0  0  0  0  0  0  0  0  0  0  0  0
  -27.8469  -29.0964   20.4921 C   0  0  1  0  0  0  0  0  0  0  0  0
  -29.2204  -26.6330   17.9468 C   0  0  1  0  0  0  0  0  0  0  0  0
  -27.5905  -13.4071   19.8113 C   0  0  2  0  0  0  0  0  0  0  0  0
  -25.7740  -23.7544   11.6350 C   0  0  0  0  0  0  0  0  0  0  0  0
  -24.6177  -26.4124   17.5905 C   0  0  0  0  0  0  0  0  0  0  0  0
  -23.7483  -25.2190   15.5686 C   0  0  0  0  0  0  0  0  0  0  0  0
  -24.7409  -27.4961   15.3401 C   0  0  0  0  0  0  0  0  0  0  0  0
  -32.2320  -13.9254   22.9146 C   0  0  0  0  0  0  0  0  0  0  0  0
  -29.3952  -23.2369   12.6816 C   0  0  0  0  0  0  0  0  0  0  0  0
  -29.9853  -14.7573   22.3262 C   0  0  0  0  0  0  0  0  0  0  0  0
  -31.1858  -20.0757   20.7747 C   0  0  0  0  0  0  0  0  0  1  0  0
  -26.2549  -25.5248   15.8023 C   0  0  1  0  0  0  0  0  0  0  0  0
  -27.0533  -24.0581   12.3992 C   0  0  2  0  0  0  0  0  0  0  0  0
  -24.8617  -26.1520   16.0907 C   0  0  0  0  0  0  0  0  0  0  0  0
  -30.9294  -18.3973   22.5036 N   0  0  0  0  0  0  0  0  0  0  0  0
  -30.5575  -17.8088   20.1965 N   0  0  0  0  0  0  0  0  0  0  0  0
  -26.0053  -11.7526   20.7235 N   0  0  0  0  0  0  0  0  0  0  0  0
  -26.2115  -13.0138   20.3077 N   0  0  0  0  0  0  0  0  0  0  0  0
  -28.2311  -25.7942   17.2672 N   0  0  0  0  0  0  0  0  0  0  0  0
  -30.0308  -13.0108   20.0415 N   0  0  0  0  0  0  0  0  0  0  0  0
  -25.1386  -15.1050   20.0138 N   0  0  0  0  0  0  0  0  0  0  0  0
  -21.8622  -12.4771   21.6738 N   0  0  0  0  0  0  0  0  0  0  0  0
  -28.4278  -28.4507   19.3345 N   0  0  0  0  0  0  0  0  0  0  0  0
  -26.5242  -25.2924   14.3874 N   0  0  0  0  0  0  0  0  0  0  0  0
  -31.0735  -13.8254   22.0384 N   0  0  0  0  0  0  0  0  0  0  0  0
  -28.0786  -23.0449   12.0209 N   0  3  0  0  0  0  0  0  0  0  0  0
  -22.3553  -14.5858   20.9196 O   0  0  0  0  0  0  0  0  0  0  0  0
  -28.2976  -26.2506   20.0863 O   0  0  0  0  0  0  0  0  0  0  0  0
  -27.5253  -27.5266   15.8756 O   0  0  0  0  0  0  0  0  0  0  0  0
  -26.8868  -23.0093   14.5694 O   0  0  0  0  0  0  0  0  0  0  0  0
  -32.2178  -12.4864   20.5517 O   0  0  0  0  0  0  0  0  0  0  0  0
  -22.3385   -7.1048   23.0689 O   0  0  0  0  0  0  0  0  0  0  0  0
  -30.0530  -20.6300   20.1070 O   0  0  0  0  0  0  0  0  0  1  0  0
  -17.3557   -5.7462   21.1375 F   0  0  0  0  0  0  0  0  0  0  0  0
  -21.9294   -4.7011   21.7659 F   0  0  0  0  0  0  0  0  0  0  0  0
  1  2  1  0  0  0  0
  1  5  2  0  0  0  0
  2  6  2  0  0  0  0
  3  8  2  0  0  0  0
  3 17  1  0  0  0  0
  4  9  1  0  0  0  0
  4 17  2  0  0  0  0
  5 19  1  0  0  0  0
  6 21  1  0  0  0  0
  7 10  2  0  0  0  0
  7 20  1  0  0  0  0
  8 24  1  0  0  0  0
  9 24  2  0  0  0  0
 10 25  1  0  0  0  0
 11 12  2  0  0  0  0
 11 26  1  0  0  0  0
 12 27  1  0  0  0  0
 13 22  1  0  0  0  0
 13 25  2  0  0  0  0
 14 27  2  0  0  0  0
 14 28  1  0  0  0  0
 15 23  1  0  0  0  0
 15 60  2  0  0  0  0
 16 23  2  0  0  0  0
 16 61  1  0  0  0  0
 17 29  1  0  0  0  0
 18 29  1  0  0  0  0
 18 30  2  0  0  0  0
 18 32  1  0  0  0  0
 19 21  2  0  0  0  0
 19 37  1  0  0  0  0
 20 22  2  0  0  0  0
 20 38  1  0  0  0  0
 21 46  1  0  0  0  0
 22 39  1  0  0  0  0
 23 55  1  0  0  0  0
 24 77  1  0  0  0  0
 25 78  1  0  0  0  0
 26 28  2  0  0  0  0
 26 77  1  0  0  0  0
 27 79  1  0  0  0  0
 28 80  1  0  0  0  0
 29 62  2  0  0  0  0
 30 63  1  0  0  0  0
 30 66  1  0  0  0  0
 31 56  1  0  0  0  0
 31 60  1  0  0  0  0
 31 61  2  0  0  0  0
 32 67  1  0  0  0  0
 32 72  2  0  0  0  0
 33 47  1  0  0  0  0
 33 68  1  0  0  0  0
 33 73  2  0  0  0  0
 34 57  1  0  0  0  0
 34 64  1  0  0  0  0
 34 74  2  0  0  0  0
 35 58  1  0  0  0  0
 35 69  1  0  0  0  0
 35 75  2  0  0  0  0
 36 65  1  0  0  0  0
 36 70  1  0  0  0  0
 36 76  2  0  0  0  0
 37 40  1  0  0  0  0
 38 47  1  0  0  0  0
 39 64  1  0  0  0  0
 40 42  1  0  0  0  0
 41 43  1  0  0  0  0
 41 44  1  0  0  0  0
 42 46  1  0  0  0  0
 43 48  1  0  0  0  0
 44 65  1  0  0  0  0
 45 48  1  0  0  0  0
 45 65  1  0  0  0  0
 46 68  1  0  0  0  0
 47 64  1  0  0  0  0
 48 63  1  0  0  0  0
 49 58  1  0  0  0  0
 50 59  1  0  0  0  0
 51 59  1  0  0  0  0
 52 59  1  0  0  0  0
 53 70  1  0  0  0  0
 54 71  1  0  0  0  0
 55 70  1  0  0  0  0
 56 78  1  0  0  0  0
 57 59  1  0  0  0  0
 57 69  1  0  0  0  0
 58 71  1  0  0  0  0
 62 63  1  0  0  0  0
M  CHG  1  71   1
M  ISO  4  36 100  56 101  70 100  78 101
M  END
> <Batch ID>
0047

> <Smiles>
CNC(C)C(=O)NC(C(=O)N1Cc2cc([101O:1][101CH2:1]c3ncc(C[100N:0](C)[100C:0](=O)N4CCCC(n5nc(-c6ccc(Oc7ccc(F)cc7F)cc6)c(C(N)=O)c5N)C4)cn3)ccc2CC1C(=O)NC1CCCc2ccccc21)C(C)(C)C

> <Shape>
0.261

> <Color>
0.187

> <Negative vol penalty>
0.000

$$$$

  -OEChem-04052317243D

 82 90  0     1  0  0  0  0  0999 V2000
  -30.3163  -24.3339   15.9172 C   0  0  0  0  0  0  0  0  0  0  0  0
  -28.9904  -24.6976   16.1294 C   0  0  0  0  0  0  0  0  0  0  0  0
  -27.2940  -14.9749   21.8127 C   0  0  0  0  0  0  0  0  0  0  0  0
  -26.2263  -15.3009   19.6701 C   0  0  0  0  0  0  0  0  0  0  0  0
  -31.1887  -24.2208   16.9989 C   0  0  0  0  0  0  0  0  0  0  0  0
  -28.5358  -24.9475   17.4237 C   0  0  0  0  0  0  0  0  0  0  0  0
  -25.6888  -29.1257   17.7100 C   0  0  0  0  0  0  0  0  0  0  0  0
  -26.8936  -13.6387   21.8090 C   0  0  0  0  0  0  0  0  0  0  0  0
  -25.8259  -13.9647   19.6664 C   0  0  0  0  0  0  0  0  0  0  0  0
  -24.3685  -29.0278   17.2729 C   0  0  0  0  0  0  0  0  0  0  0  0
  -23.4034  -12.0859   21.0919 C   0  0  0  0  0  0  0  0  0  0  0  0
  -22.0886  -11.8043   20.7209 C   0  0  0  0  0  0  0  0  0  0  0  0
  -23.6331  -28.8165   19.5606 C   0  0  0  0  0  0  0  0  0  0  0  0
  -22.8953  -10.4511   18.8892 C   0  0  0  0  0  0  0  0  0  0  0  0
  -20.8664  -24.1870   16.5635 C   0  0  0  0  0  0  0  0  0  0  0  0
  -26.9603  -15.8060   20.7433 C   0  0  0  0  0  0  0  0  0  0  0  0
  -28.5705  -17.7170   20.2306 C   0  0  0  0  0  0  0  0  0  0  0  0
  -30.7469  -24.4788   18.3062 C   0  0  0  0  0  0  0  0  0  0  0  0
  -25.9927  -29.0588   19.0773 C   0  0  0  0  0  0  0  0  0  0  0  0
  -29.4027  -24.8365   18.5241 C   0  0  0  0  0  0  0  0  0  0  0  0
  -24.9578  -28.9164   20.0127 C   0  0  0  0  0  0  0  0  0  0  0  0
  -26.1596  -13.1336   20.7358 C   0  0  0  0  0  0  0  0  0  0  0  0
  -23.3407  -28.8702   18.1981 C   0  0  0  0  0  0  0  0  0  0  0  0
  -24.4642  -11.5500   20.3616 C   0  0  0  0  0  0  0  0  0  0  0  0
  -21.8346  -10.9869   19.6195 C   0  0  0  0  0  0  0  0  0  0  0  0
  -24.2101  -10.7326   19.2602 C   0  0  0  0  0  0  0  0  0  0  0  0
  -27.3731  -17.1864   20.7469 C   0  0  0  0  0  0  0  0  0  0  0  0
  -21.7888  -23.1698   16.4262 C   0  0  0  0  0  0  0  0  0  0  0  0
  -21.2695  -25.2586   17.3339 C   0  0  0  0  0  0  0  0  0  0  0  0
  -28.4836  -19.0652   20.4782 C   0  0  0  0  0  0  0  0  0  0  0  0
  -23.2878  -24.2866   17.7196 C   0  0  0  0  0  0  0  0  0  0  0  0
  -29.6637  -17.0507   19.5850 C   0  0  0  0  0  0  0  0  0  0  0  0
  -27.6991  -27.0937   20.9023 C   0  0  0  0  0  0  0  0  0  0  0  0
  -27.0356  -29.2822   23.2028 C   0  0  0  0  0  0  0  0  0  0  0  0
  -24.9861  -31.7651   24.3350 C   0  0  0  0  0  0  0  0  0  0  0  0
  -24.5818  -23.3393   20.6276 C   0  0  0  0  0  0  0  0  0  0  0  0
  -31.7148  -24.2976   19.4485 C   0  0  0  0  0  0  0  0  0  0  0  0
  -27.4194  -29.1929   19.5343 C   0  0  0  0  0  0  0  0  0  0  0  0
  -25.2292  -28.8593   21.4930 C   0  0  0  0  0  0  0  0  0  0  0  0
  -31.2485  -24.9442   20.7504 C   0  0  0  0  0  0  0  0  0  0  0  0
  -25.8765  -21.8729   23.6025 C   0  0  0  0  0  0  0  0  0  0  0  0
  -29.7871  -24.6022   21.0227 C   0  0  0  0  0  0  0  0  0  0  0  0
  -26.5057  -20.5643   23.1214 C   0  0  0  0  0  0  0  0  0  0  0  0
  -24.6019  -22.2041   22.8293 C   0  0  0  0  0  0  0  0  0  0  0  0
  -25.3836  -20.9125   20.8813 C   0  0  0  0  0  0  0  0  0  0  0  0
  -28.8782  -25.1398   19.9108 C   0  0  1  0  0  0  0  0  0  0  0  0
  -27.6626  -28.5957   20.9170 C   0  0  1  0  0  0  0  0  0  0  0  0
  -26.7020  -20.5650   21.5935 C   0  0  2  0  0  0  0  0  0  0  0  0
  -21.4433  -21.9692   15.6106 C   0  0  0  0  0  0  0  0  0  0  0  0
  -24.6792  -33.3394   26.2650 C   0  0  0  0  0  0  0  0  0  0  0  0
  -25.9634  -26.9860   24.9022 C   0  0  0  0  0  0  0  0  0  0  0  0
  -24.8335  -28.6821   26.3564 C   0  0  0  0  0  0  0  0  0  0  0  0
  -27.3202  -28.6692   26.1595 C   0  0  0  0  0  0  0  0  0  0  0  0
  -25.2678  -34.1405   22.5924 C   0  0  0  0  0  0  0  0  0  0  0  0
  -20.3304  -26.4200   17.5403 C   0  0  0  0  0  0  0  0  0  0  0  0
  -24.6338  -24.3441   18.3590 C   0  0  0  0  0  0  0  0  0  0  0  0
  -20.4665  -27.5176   16.4828 C   0  0  0  0  0  0  0  0  0  0  0  0
  -21.8319  -28.1952   16.4882 C   0  0  0  0  0  0  0  0  0  1  0  0
  -25.9265  -29.4728   24.2091 C   0  0  1  0  0  0  0  0  0  0  0  0
  -25.2874  -33.1478   24.8843 C   0  0  2  0  0  0  0  0  0  0  0  0
  -26.0056  -28.4517   25.3788 C   0  0  0  0  0  0  0  0  0  0  0  0
  -26.5834  -18.1213   21.2821 N   0  0  0  0  0  0  0  0  0  0  0  0
  -23.0132  -23.1868   16.9925 N   0  0  0  0  0  0  0  0  0  0  0  0
  -22.4775  -25.3416   17.9291 N   0  0  0  0  0  0  0  0  0  0  0  0
  -27.2862  -19.2529   21.1036 N   0  0  0  0  0  0  0  0  0  0  0  0
  -26.6411  -28.9885   21.8899 N   0  0  0  0  0  0  0  0  0  0  0  0
  -24.8566  -22.1898   21.3867 N   0  0  0  0  0  0  0  0  0  0  0  0
  -29.3154  -20.0965   20.2198 N   0  0  0  0  0  0  0  0  0  0  0  0
  -29.5907  -15.6619   19.4109 N   0  0  0  0  0  0  0  0  0  0  0  0
  -28.6686  -26.5626   20.0731 N   0  0  0  0  0  0  0  0  0  0  0  0
  -25.9917  -30.8685   24.6289 N   0  0  0  0  0  0  0  0  0  0  0  0
  -24.8578  -23.2432   19.2692 N   0  0  0  0  0  0  0  0  0  0  0  0
  -24.7373  -34.1960   23.9789 N   0  3  0  0  0  0  0  0  0  0  0  0
  -30.6825  -17.6663   19.1894 O   0  0  0  0  0  0  0  0  0  0  0  0
  -26.9073  -26.4633   21.5932 O   0  0  0  0  0  0  0  0  0  0  0  0
  -28.2087  -29.3969   23.5668 O   0  0  0  0  0  0  0  0  0  0  0  0
  -23.9596  -31.5053   23.7111 O   0  0  0  0  0  0  0  0  0  0  0  0
  -24.1293  -24.3762   21.1245 O   0  0  0  0  0  0  0  0  0  0  0  0
  -25.7689  -11.8298   20.7317 O   0  0  0  0  0  0  0  0  0  0  0  0
  -22.0512  -28.7737   17.7741 O   0  0  0  0  0  0  0  0  0  1  0  0
  -20.5719  -10.7154   19.2642 F   0  0  0  0  0  0  0  0  0  0  0  0
  -25.2251  -10.2140   18.5555 F   0  0  0  0  0  0  0  0  0  0  0  0
  1  2  1  0  0  0  0
  1  5  2  0  0  0  0
  2  6  2  0  0  0  0
  3  8  2  0  0  0  0
  3 16  1  0  0  0  0
  4  9  1  0  0  0  0
  4 16  2  0  0  0  0
  5 18  1  0  0  0  0
  6 20  1  0  0  0  0
  7 10  2  0  0  0  0
  7 19  1  0  0  0  0
  8 22  1  0  0  0  0
  9 22  2  0  0  0  0
 10 23  1  0  0  0  0
 11 12  2  0  0  0  0
 11 24  1  0  0  0  0
 12 25  1  0  0  0  0
 13 21  1  0  0  0  0
 13 23  2  0  0  0  0
 14 25  2  0  0  0  0
 14 26  1  0  0  0  0
 15 28  2  0  0  0  0
 15 29  1  0  0  0  0
 16 27  1  0  0  0  0
 17 27  1  0  0  0  0
 17 30  2  0  0  0  0
 17 32  1  0  0  0  0
 18 20  2  0  0  0  0
 18 37  1  0  0  0  0
 19 21  2  0  0  0  0
 19 38  1  0  0  0  0
 20 46  1  0  0  0  0
 21 39  1  0  0  0  0
 22 79  1  0  0  0  0
 23 80  1  0  0  0  0
 24 26  2  0  0  0  0
 24 79  1  0  0  0  0
 25 81  1  0  0  0  0
 26 82  1  0  0  0  0
 27 62  2  0  0  0  0
 28 49  1  0  0  0  0
 28 63  1  0  0  0  0
 29 55  1  0  0  0  0
 29 64  2  0  0  0  0
 30 65  1  0  0  0  0
 30 68  1  0  0  0  0
 31 56  1  0  0  0  0
 31 63  2  0  0  0  0
 31 64  1  0  0  0  0
 32 69  1  0  0  0  0
 32 74  2  0  0  0  0
 33 47  1  0  0  0  0
 33 70  1  0  0  0  0
 33 75  2  0  0  0  0
 34 59  1  0  0  0  0
 34 66  1  0  0  0  0
 34 76  2  0  0  0  0
 35 60  1  0  0  0  0
 35 71  1  0  0  0  0
 35 77  2  0  0  0  0
 36 67  1  0  0  0  0
 36 72  1  0  0  0  0
 36 78  2  0  0  0  0
 37 40  1  0  0  0  0
 38 47  1  0  0  0  0
 39 66  1  0  0  0  0
 40 42  1  0  0  0  0
 41 43  1  0  0  0  0
 41 44  1  0  0  0  0
 42 46  1  0  0  0  0
 43 48  1  0  0  0  0
 44 67  1  0  0  0  0
 45 48  1  0  0  0  0
 45 67  1  0  0  0  0
 46 70  1  0  0  0  0
 47 66  1  0  0  0  0
 48 65  1  0  0  0  0
 50 60  1  0  0  0  0
 51 61  1  0  0  0  0
 52 61  1  0  0  0  0
 53 61  1  0  0  0  0
 54 73  1  0  0  0  0
 55 57  1  0  0  0  0
 56 72  1  0  0  0  0
 57 58  1  0  0  0  0
 58 80  1  0  0  0  0
 59 61  1  0  0  0  0
 59 71  1  0  0  0  0
 60 73  1  0  0  0  0
 62 65  1  0  0  0  0
M  CHG  1  73   1
M  ISO  4  36 100  58 101  72 100  80 101
M  END
> <Batch ID>
0047

> <Smiles>
CNC(C)C(=O)NC(C(=O)N1Cc2cc([101O:1][101CH2:1]CCc3cc(C)nc(C[100NH:0][100C:0](=O)N4CCCC(n5nc(-c6ccc(Oc7ccc(F)cc7F)cc6)c(C(N)=O)c5N)C4)n3)ccc2CC1C(=O)NC1CCCc2ccccc21)C(C)(C)C

> <Shape>
0.214

> <Color>
0.073

> <Negative vol penalty>
0.000

$$$$
