
  -OEChem-04052317263D

 86 94  0     1  0  0  0  0  0999 V2000
  -16.5304  -29.4114   23.2991 C   0  0  0  0  0  0  0  0  0  0  0  0
  -17.3513  -28.6344   22.4881 C   0  0  0  0  0  0  0  0  0  0  0  0
  -26.5553  -12.2578   21.6399 C   0  0  0  0  0  0  0  0  0  0  0  0
  -25.4286  -12.7053   19.5501 C   0  0  0  0  0  0  0  0  0  0  0  0
  -17.0949  -30.3051   24.2082 C   0  0  0  0  0  0  0  0  0  0  0  0
  -18.7374  -28.7515   22.5850 C   0  0  0  0  0  0  0  0  0  0  0  0
  -22.8664  -24.2805   21.9008 C   0  0  0  0  0  0  0  0  0  0  0  0
  -25.3368  -11.9086   22.2221 C   0  0  0  0  0  0  0  0  0  0  0  0
  -24.2101  -12.3560   20.1322 C   0  0  0  0  0  0  0  0  0  0  0  0
  -23.6651  -23.8981   20.8240 C   0  0  0  0  0  0  0  0  0  0  0  0
  -20.8532  -11.2363   20.9663 C   0  0  0  0  0  0  0  0  0  0  0  0
  -20.0000  -10.4068   20.2386 C   0  0  0  0  0  0  0  0  0  0  0  0
  -25.4886  -25.1963   21.7232 C   0  0  0  0  0  0  0  0  0  0  0  0
  -21.6992   -8.6896   20.2037 C   0  0  0  0  0  0  0  0  0  0  0  0
  -26.6012  -12.6562   20.3039 C   0  0  0  0  0  0  0  0  0  0  0  0
  -28.7587  -12.1646   19.0345 C   0  0  0  0  0  0  0  0  0  0  0  0
  -18.4888  -30.4262   24.3232 C   0  0  0  0  0  0  0  0  0  0  0  0
  -23.3702  -25.1339   22.8929 C   0  0  0  0  0  0  0  0  0  0  0  0
  -19.3212  -29.6486   23.4956 C   0  0  0  0  0  0  0  0  0  0  0  0
  -24.6950  -25.5860   22.8130 C   0  0  0  0  0  0  0  0  0  0  0  0
  -24.1642  -11.9577   21.4683 C   0  0  0  0  0  0  0  0  0  0  0  0
  -24.9755  -24.3583   20.7335 C   0  0  0  0  0  0  0  0  0  0  0  0
  -22.1295  -10.7924   21.3127 C   0  0  0  0  0  0  0  0  0  0  0  0
  -20.4230   -9.1335   19.8573 C   0  0  0  0  0  0  0  0  0  0  0  0
  -22.5524   -9.5191   20.9315 C   0  0  0  0  0  0  0  0  0  0  0  0
  -27.8595  -13.0176   19.7021 C   0  0  0  0  0  0  0  0  0  0  0  0
  -29.6830  -22.2217   20.6632 C   0  0  0  0  0  0  0  0  0  0  0  0
  -28.9664  -22.7953   19.6396 C   0  0  0  0  0  0  0  0  0  0  0  0
  -29.7914  -12.9855   18.6525 C   0  0  0  0  0  0  0  0  0  0  0  0
  -27.9872  -20.9663   20.3829 C   0  0  0  0  0  0  0  0  0  0  0  0
  -28.6683  -10.7561   18.7822 C   0  0  0  0  0  0  0  0  0  0  0  0
  -22.6119  -28.0322   23.9554 C   0  0  0  0  0  0  0  0  0  0  0  0
  -29.9346  -18.8292   17.6007 C   0  0  0  0  0  0  0  0  0  0  0  0
  -24.8759  -27.3812   26.1853 C   0  0  0  0  0  0  0  0  0  0  0  0
  -27.6644  -25.6154   27.0533 C   0  0  0  0  0  0  0  0  0  0  0  0
  -19.0523  -31.4401   25.2871 C   0  0  0  0  0  0  0  0  0  0  0  0
  -22.5043  -25.5156   24.0621 C   0  0  0  0  0  0  0  0  0  0  0  0
  -25.2900  -26.4877   23.8625 C   0  0  0  0  0  0  0  0  0  0  0  0
  -20.5336  -31.2328   25.5921 C   0  0  0  0  0  0  0  0  0  0  0  0
  -32.0601  -16.9963   19.9137 C   0  0  0  0  0  0  0  0  0  0  0  0
  -21.3157  -30.9954   24.3041 C   0  0  0  0  0  0  0  0  0  0  0  0
  -31.2793  -15.6932   20.0792 C   0  0  0  0  0  0  0  0  0  0  0  0
  -31.1267  -18.1935   19.7540 C   0  0  0  0  0  0  0  0  0  0  0  0
  -29.3613  -16.7437   18.8021 C   0  0  0  0  0  0  0  0  0  0  0  0
  -20.8295  -29.7291   23.5889 C   0  0  1  0  0  0  0  0  0  0  0  0
  -22.9570  -26.8020   24.7461 C   0  0  1  0  0  0  0  0  0  0  0  0
  -30.2665  -15.5077   18.9357 C   0  0  2  0  0  0  0  0  0  0  0  0
  -30.9466  -22.6784   21.2634 C   0  0  0  0  0  0  0  0  0  0  0  0
  -26.9759  -19.8942   20.4877 C   0  0  0  0  0  0  0  0  0  0  0  0
  -29.3092  -25.3263   28.9263 C   0  0  0  0  0  0  0  0  0  0  0  0
  -26.2157  -30.0111   25.4114 C   0  0  0  0  0  0  0  0  0  0  0  0
  -28.2826  -29.2225   26.5837 C   0  0  0  0  0  0  0  0  0  0  0  0
  -26.1693  -29.5474   27.8685 C   0  0  0  0  0  0  0  0  0  0  0  0
  -26.9528  -22.7628   27.3927 C   0  0  0  0  0  0  0  0  0  0  0  0
  -32.1694  -24.0090   17.6849 C   0  0  0  0  0  0  0  0  0  0  0  0
  -29.2026  -24.0050   18.8312 C   0  0  0  0  0  0  0  0  0  0  0  0
  -30.7610  -20.0899   17.5622 C   0  0  0  0  0  0  0  0  0  0  0  0
  -30.4116  -20.9349   16.3416 C   0  0  0  0  0  0  0  0  0  0  0  0
  -26.7738  -22.1669   18.4647 C   0  0  0  0  0  0  0  0  0  0  0  0
  -29.7099  -23.7381   17.4056 C   0  0  0  0  0  0  0  0  0  0  0  0
  -31.2731  -22.1874   16.2426 C   0  0  0  0  0  0  0  0  0  0  0  0
  -25.4990  -22.7100   19.1011 C   0  0  0  0  0  0  0  0  0  1  0  0
  -26.3682  -27.5864   26.2853 C   0  0  1  0  0  0  0  0  0  0  0  0
  -28.0112  -24.8324   28.3067 C   0  0  2  0  0  0  0  0  0  0  0  0
  -26.7474  -29.0764   26.5163 C   0  0  0  0  0  0  0  0  0  0  0  0
  -28.2840  -14.2834   19.7438 N   0  0  0  0  0  0  0  0  0  0  0  0
  -29.0684  -21.0833   21.1214 N   0  0  0  0  0  0  0  0  0  0  0  0
  -27.8830  -21.9797   19.4710 N   0  0  0  0  0  0  0  0  0  0  0  0
  -29.4612  -14.2317   19.0975 N   0  0  0  0  0  0  0  0  0  0  0  0
  -24.4015  -26.8380   24.9830 N   0  0  0  0  0  0  0  0  0  0  0  0
  -30.1598  -17.9660   18.6733 N   0  0  0  0  0  0  0  0  0  0  0  0
  -30.9408  -12.7557   17.9829 N   0  0  0  0  0  0  0  0  0  0  0  0
  -27.5394  -10.0656   19.2438 N   0  0  0  0  0  0  0  0  0  0  0  0
  -21.3608  -28.5481   24.2349 N   0  0  0  0  0  0  0  0  0  0  0  0
  -26.8355  -26.6819   27.3303 N   0  0  0  0  0  0  0  0  0  0  0  0
  -28.1638  -23.3847   27.9874 N   0  3  0  0  0  0  0  0  0  0  0  0
  -31.0251  -23.0528   17.4537 N   0  3  1  0  0  0  0  0  0  0  0  0
  -29.5700  -10.1253   18.1799 O   0  0  0  0  0  0  0  0  0  0  0  0
  -23.4214  -28.4810   23.1523 O   0  0  0  0  0  0  0  0  0  0  0  0
  -29.1161  -18.6183   16.7020 O   0  0  0  0  0  0  0  0  0  0  0  0
  -24.1584  -27.6850   27.1416 O   0  0  0  0  0  0  0  0  0  0  0  0
  -28.0895  -25.3135   25.9403 O   0  0  0  0  0  0  0  0  0  0  0  0
  -22.9751  -11.6168   22.0360 O   0  0  0  0  0  0  0  0  0  0  0  0
  -25.7570  -23.9871   19.6832 O   0  0  0  0  0  0  0  0  0  1  0  0
  -19.6030   -8.3365   19.1598 F   0  0  0  0  0  0  0  0  0  0  0  0
  -23.7769   -9.0867   21.2624 F   0  0  0  0  0  0  0  0  0  0  0  0
  1  2  1  0  0  0  0
  1  5  2  0  0  0  0
  2  6  2  0  0  0  0
  3  8  2  0  0  0  0
  3 15  1  0  0  0  0
  4  9  1  0  0  0  0
  4 15  2  0  0  0  0
  5 17  1  0  0  0  0
  6 19  1  0  0  0  0
  7 10  2  0  0  0  0
  7 18  1  0  0  0  0
  8 21  1  0  0  0  0
  9 21  2  0  0  0  0
 10 22  1  0  0  0  0
 11 12  2  0  0  0  0
 11 23  1  0  0  0  0
 12 24  1  0  0  0  0
 13 20  1  0  0  0  0
 13 22  2  0  0  0  0
 14 24  2  0  0  0  0
 14 25  1  0  0  0  0
 15 26  1  0  0  0  0
 16 26  1  0  0  0  0
 16 29  2  0  0  0  0
 16 31  1  0  0  0  0
 17 19  2  0  0  0  0
 17 36  1  0  0  0  0
 18 20  2  0  0  0  0
 18 37  1  0  0  0  0
 19 45  1  0  0  0  0
 20 38  1  0  0  0  0
 21 83  1  0  0  0  0
 22 84  1  0  0  0  0
 23 25  2  0  0  0  0
 23 83  1  0  0  0  0
 24 85  1  0  0  0  0
 25 86  1  0  0  0  0
 26 66  2  0  0  0  0
 27 28  2  0  0  0  0
 27 48  1  0  0  0  0
 27 67  1  0  0  0  0
 28 56  1  0  0  0  0
 28 68  1  0  0  0  0
 29 69  1  0  0  0  0
 29 72  1  0  0  0  0
 30 49  1  0  0  0  0
 30 67  2  0  0  0  0
 30 68  1  0  0  0  0
 31 73  1  0  0  0  0
 31 78  2  0  0  0  0
 32 46  1  0  0  0  0
 32 74  1  0  0  0  0
 32 79  2  0  0  0  0
 33 57  1  0  0  0  0
 33 71  1  0  0  0  0
 33 80  2  0  0  0  0
 34 63  1  0  0  0  0
 34 70  1  0  0  0  0
 34 81  2  0  0  0  0
 35 64  1  0  0  0  0
 35 75  1  0  0  0  0
 35 82  2  0  0  0  0
 36 39  1  0  0  0  0
 37 46  1  0  0  0  0
 38 70  1  0  0  0  0
 39 41  1  0  0  0  0
 40 42  1  0  0  0  0
 40 43  1  0  0  0  0
 41 45  1  0  0  0  0
 42 47  1  0  0  0  0
 43 71  1  0  0  0  0
 44 47  1  0  0  0  0
 44 71  1  0  0  0  0
 45 74  1  0  0  0  0
 46 70  1  0  0  0  0
 47 69  1  0  0  0  0
 50 64  1  0  0  0  0
 51 65  1  0  0  0  0
 52 65  1  0  0  0  0
 53 65  1  0  0  0  0
 54 76  1  0  0  0  0
 55 77  1  0  0  0  0
 56 60  1  0  0  0  0
 57 58  1  0  0  0  0
 58 61  1  0  0  0  0
 59 62  1  0  0  0  0
 59 68  1  0  0  0  0
 60 77  1  0  0  0  0
 61 77  1  0  0  0  0
 62 84  1  0  0  0  0
 63 65  1  0  0  0  0
 63 75  1  0  0  0  0
 64 76  1  0  0  0  0
 66 69  1  0  0  0  0
M  CHG  2  76   1  77   1
M  ISO  4  33 100  57 100  62 101  84 101
M  END
> <Batch ID>
0048

> <Smiles>
CNC(C)C(=O)NC(C(=O)N1Cc2cc([101O:1][101CH2:1]Cn3c(C)nc(C)c3CCN(C)CC[100CH2:0][100C:0](=O)N3CCCC(n4nc(-c5ccc(Oc6ccc(F)cc6F)cc5)c(C(N)=O)c4N)C3)ccc2CC1C(=O)NC1CCCc2ccccc21)C(C)(C)C

> <Shape>
0.235

> <Color>
0.065

> <Negative vol penalty>
0.000

$$$$

  -OEChem-04052317263D

 79 86  0     1  0  0  0  0  0999 V2000
  -18.7733  -23.7617   15.3300 C   0  0  0  0  0  0  0  0  0  0  0  0
  -19.9469  -23.0575   15.0811 C   0  0  0  0  0  0  0  0  0  0  0  0
  -23.2805   -9.8058   19.9160 C   0  0  0  0  0  0  0  0  0  0  0  0
  -23.7261   -9.9486   22.2862 C   0  0  0  0  0  0  0  0  0  0  0  0
  -18.5597  -24.3383   16.5814 C   0  0  0  0  0  0  0  0  0  0  0  0
  -20.9083  -22.9303   16.0831 C   0  0  0  0  0  0  0  0  0  0  0  0
  -25.8562  -18.3619   18.5250 C   0  0  0  0  0  0  0  0  0  0  0  0
  -22.5439   -8.6398   20.1247 C   0  0  0  0  0  0  0  0  0  0  0  0
  -22.9895   -8.7826   22.4949 C   0  0  0  0  0  0  0  0  0  0  0  0
  -27.2081  -18.3179   18.8632 C   0  0  0  0  0  0  0  0  0  0  0  0
  -19.7344   -7.8991   22.7059 C   0  0  0  0  0  0  0  0  0  0  0  0
  -18.8291   -7.8876   23.7669 C   0  0  0  0  0  0  0  0  0  0  0  0
  -26.6960  -19.2883   21.0115 C   0  0  0  0  0  0  0  0  0  0  0  0
  -20.0168   -6.0330   24.7602 C   0  0  0  0  0  0  0  0  0  0  0  0
  -23.8717  -10.4601   20.9967 C   0  0  0  0  0  0  0  0  0  0  0  0
  -24.1526  -12.9874   20.7925 C   0  0  0  0  0  0  0  0  0  0  0  0
  -19.5147  -24.2099   17.6023 C   0  0  0  0  0  0  0  0  0  0  0  0
  -24.9139  -18.8803   19.4249 C   0  0  0  0  0  0  0  0  0  0  0  0
  -20.7079  -23.5068   17.3489 C   0  0  0  0  0  0  0  0  0  0  0  0
  -25.3325  -19.3354   20.6834 C   0  0  0  0  0  0  0  0  0  0  0  0
  -22.3983   -8.1283   21.4142 C   0  0  0  0  0  0  0  0  0  0  0  0
  -27.6285  -18.7838   20.1055 C   0  0  0  0  0  0  0  0  0  0  0  0
  -20.7809   -6.9775   22.6719 C   0  0  0  0  0  0  0  0  0  0  0  0
  -18.9703   -6.9546   24.7941 C   0  0  0  0  0  0  0  0  0  0  0  0
  -20.9221   -6.0445   23.6991 C   0  0  0  0  0  0  0  0  0  0  0  0
  -24.6333  -11.6642   20.7817 C   0  0  0  0  0  0  0  0  0  0  0  0
  -25.2612  -13.7574   20.5385 C   0  0  0  0  0  0  0  0  0  0  0  0
  -22.8230  -13.4766   21.0126 C   0  0  0  0  0  0  0  0  0  0  0  0
  -22.8886  -21.3299   19.3881 C   0  0  0  0  0  0  0  0  0  0  0  0
  -21.8904  -20.0428   22.1934 C   0  0  0  0  0  0  0  0  0  0  0  0
  -22.6044  -18.0978   24.9052 C   0  0  0  0  0  0  0  0  0  0  0  0
  -31.0102  -12.8111   21.4920 C   0  0  0  0  0  0  0  0  0  0  0  0
  -19.2605  -24.8906   18.9239 C   0  0  0  0  0  0  0  0  0  0  0  0
  -23.4560  -18.8961   19.0553 C   0  0  0  0  0  0  0  0  0  0  0  0
  -24.3581  -19.8827   21.6931 C   0  0  0  0  0  0  0  0  0  0  0  0
  -20.1622  -24.3911   20.0498 C   0  0  0  0  0  0  0  0  0  0  0  0
  -29.4919  -13.6097   18.3054 C   0  0  0  0  0  0  0  0  0  0  0  0
  -21.6113  -24.3155   19.5795 C   0  0  0  0  0  0  0  0  0  0  0  0
  -28.0167  -13.3224   18.5908 C   0  0  0  0  0  0  0  0  0  0  0  0
  -30.3972  -12.6018   19.0074 C   0  0  0  0  0  0  0  0  0  0  0  0
  -28.7149  -12.2203   20.7675 C   0  0  0  0  0  0  0  0  0  0  0  0
  -21.7635  -23.3259   18.4180 C   0  0  1  0  0  0  0  0  0  0  0  0
  -22.6496  -19.9198   19.8486 C   0  0  1  0  0  0  0  0  0  0  0  0
  -27.7487  -13.2185   20.1040 C   0  0  2  0  0  0  0  0  0  0  0  0
  -21.6025  -17.2627   27.0491 C   0  0  0  0  0  0  0  0  0  0  0  0
  -22.3264  -22.7834   23.4618 C   0  0  0  0  0  0  0  0  0  0  0  0
  -22.2391  -21.6805   25.7078 C   0  0  0  0  0  0  0  0  0  0  0  0
  -20.2483  -21.6079   24.2064 C   0  0  0  0  0  0  0  0  0  0  0  0
  -22.8422  -15.2740   24.0517 C   0  0  0  0  0  0  0  0  0  0  0  0
  -33.0425  -17.0084   24.7196 C   0  0  0  0  0  0  0  0  0  0  0  0
  -33.4276  -14.8901   22.4160 C   0  0  0  0  0  0  0  0  0  0  0  0
  -30.5971  -17.8578   21.9376 C   0  0  0  0  0  0  0  0  0  0  0  0
  -33.3495  -13.4082   22.0650 C   0  0  0  0  0  0  0  0  0  0  0  0
  -32.1382  -15.4031   23.0445 C   0  0  0  0  0  0  0  0  0  0  0  0
  -31.0363  -17.6119   23.3731 C   0  0  0  0  0  0  0  0  0  0  0  0
  -29.2643  -18.5870   21.8205 C   0  0  0  0  0  0  0  0  0  1  0  0
  -22.2771  -20.2084   23.6432 C   0  0  1  0  0  0  0  0  0  0  0  0
  -21.8289  -16.9764   25.5727 C   0  0  2  0  0  0  0  0  0  0  0  0
  -21.7916  -21.5616   24.2352 C   0  0  0  0  0  0  0  0  0  0  0  0
  -25.9450  -11.5941   20.5398 N   0  0  0  0  0  0  0  0  0  0  0  0
  -26.2980  -12.8828   20.3962 N   0  0  0  0  0  0  0  0  0  0  0  0
  -22.9442  -19.8830   21.2825 N   0  0  0  0  0  0  0  0  0  0  0  0
  -30.1040  -12.5651   20.4471 N   0  0  0  0  0  0  0  0  0  0  0  0
  -25.4406  -15.0906   20.4252 N   0  0  0  0  0  0  0  0  0  0  0  0
  -21.8020  -12.5488   21.2597 N   0  0  0  0  0  0  0  0  0  0  0  0
  -21.7583  -21.9648   18.9099 N   0  0  0  0  0  0  0  0  0  0  0  0
  -21.7643  -19.0333   24.3393 N   0  0  0  0  0  0  0  0  0  0  0  0
  -32.3072  -13.1241   21.1038 N   0  0  0  0  0  0  0  0  0  0  0  0
  -22.5713  -15.6899   25.4519 N   0  3  0  0  0  0  0  0  0  0  0  0
  -32.3118  -16.8585   23.4069 N   0  3  1  0  0  0  0  0  0  0  0  0
  -22.5454  -14.6993   20.9745 O   0  0  0  0  0  0  0  0  0  0  0  0
  -24.0148  -21.8071   19.4627 O   0  0  0  0  0  0  0  0  0  0  0  0
  -20.6969  -20.0476   21.8815 O   0  0  0  0  0  0  0  0  0  0  0  0
  -23.8326  -18.1415   24.8907 O   0  0  0  0  0  0  0  0  0  0  0  0
  -30.6861  -12.7609   22.6834 O   0  0  0  0  0  0  0  0  0  0  0  0
  -21.6794   -6.9907   21.6182 O   0  0  0  0  0  0  0  0  0  0  0  0
  -28.9475  -18.7426   20.4379 O   0  0  0  0  0  0  0  0  0  1  0  0
  -18.1017   -6.9446   25.8137 F   0  0  0  0  0  0  0  0  0  0  0  0
  -21.9262   -5.1573   23.6726 F   0  0  0  0  0  0  0  0  0  0  0  0
  1  2  1  0  0  0  0
  1  5  2  0  0  0  0
  2  6  2  0  0  0  0
  3  8  2  0  0  0  0
  3 15  1  0  0  0  0
  4  9  1  0  0  0  0
  4 15  2  0  0  0  0
  5 17  1  0  0  0  0
  6 19  1  0  0  0  0
  7 10  2  0  0  0  0
  7 18  1  0  0  0  0
  8 21  1  0  0  0  0
  9 21  2  0  0  0  0
 10 22  1  0  0  0  0
 11 12  2  0  0  0  0
 11 23  1  0  0  0  0
 12 24  1  0  0  0  0
 13 20  1  0  0  0  0
 13 22  2  0  0  0  0
 14 24  2  0  0  0  0
 14 25  1  0  0  0  0
 15 26  1  0  0  0  0
 16 26  1  0  0  0  0
 16 27  2  0  0  0  0
 16 28  1  0  0  0  0
 17 19  2  0  0  0  0
 17 33  1  0  0  0  0
 18 20  2  0  0  0  0
 18 34  1  0  0  0  0
 19 42  1  0  0  0  0
 20 35  1  0  0  0  0
 21 76  1  0  0  0  0
 22 77  1  0  0  0  0
 23 25  2  0  0  0  0
 23 76  1  0  0  0  0
 24 78  1  0  0  0  0
 25 79  1  0  0  0  0
 26 60  2  0  0  0  0
 27 61  1  0  0  0  0
 27 64  1  0  0  0  0
 28 65  1  0  0  0  0
 28 71  2  0  0  0  0
 29 43  1  0  0  0  0
 29 66  1  0  0  0  0
 29 72  2  0  0  0  0
 30 57  1  0  0  0  0
 30 62  1  0  0  0  0
 30 73  2  0  0  0  0
 31 58  1  0  0  0  0
 31 67  1  0  0  0  0
 31 74  2  0  0  0  0
 32 63  1  0  0  0  0
 32 68  1  0  0  0  0
 32 75  2  0  0  0  0
 33 36  1  0  0  0  0
 34 43  1  0  0  0  0
 35 62  1  0  0  0  0
 36 38  1  0  0  0  0
 37 39  1  0  0  0  0
 37 40  1  0  0  0  0
 38 42  1  0  0  0  0
 39 44  1  0  0  0  0
 40 63  1  0  0  0  0
 41 44  1  0  0  0  0
 41 63  1  0  0  0  0
 42 66  1  0  0  0  0
 43 62  1  0  0  0  0
 44 61  1  0  0  0  0
 45 58  1  0  0  0  0
 46 59  1  0  0  0  0
 47 59  1  0  0  0  0
 48 59  1  0  0  0  0
 49 69  1  0  0  0  0
 50 70  1  0  0  0  0
 51 53  1  0  0  0  0
 51 54  1  0  0  0  0
 52 55  1  0  0  0  0
 52 56  1  0  0  0  0
 53 68  1  0  0  0  0
 54 70  1  0  0  0  0
 55 70  1  0  0  0  0
 56 77  1  0  0  0  0
 57 59  1  0  0  0  0
 57 67  1  0  0  0  0
 58 69  1  0  0  0  0
 60 61  1  0  0  0  0
M  CHG  2  69   1  70   1
M  ISO  4  32 100  56 101  68 100  77 101
M  END
> <Batch ID>
0048

> <Smiles>
CNC(C)C(=O)NC(C(=O)N1Cc2cc([101O:1][101CH2:1]CCN(C)CCC[100NH:0][100C:0](=O)N3CCCC(n4nc(-c5ccc(Oc6ccc(F)cc6F)cc5)c(C(N)=O)c4N)C3)ccc2CC1C(=O)NC1CCCc2ccccc21)C(C)(C)C

> <Shape>
0.172

> <Color>
0.179

> <Negative vol penalty>
0.000

$$$$

  -OEChem-04052317263D

 79 87  0     1  0  0  0  0  0999 V2000
  -31.3134  -25.0127    9.5900 C   0  0  0  0  0  0  0  0  0  0  0  0
  -31.4104  -24.4490   10.8582 C   0  0  0  0  0  0  0  0  0  0  0  0
  -23.1115   -9.8850   19.9450 C   0  0  0  0  0  0  0  0  0  0  0  0
  -23.8748   -9.9086   22.2372 C   0  0  0  0  0  0  0  0  0  0  0  0
  -31.7290  -26.3267    9.3788 C   0  0  0  0  0  0  0  0  0  0  0  0
  -31.9242  -25.1987   11.9157 C   0  0  0  0  0  0  0  0  0  0  0  0
  -29.1744  -24.7340   16.1427 C   0  0  0  0  0  0  0  0  0  0  0  0
  -22.3838   -8.7225   20.1993 C   0  0  0  0  0  0  0  0  0  0  0  0
  -23.1471   -8.7461   22.4915 C   0  0  0  0  0  0  0  0  0  0  0  0
  -29.3494  -23.5711   16.8915 C   0  0  0  0  0  0  0  0  0  0  0  0
  -19.4490   -7.8898   21.6574 C   0  0  0  0  0  0  0  0  0  0  0  0
  -18.1421   -7.8244   21.1744 C   0  0  0  0  0  0  0  0  0  0  0  0
  -30.7949  -24.7705   18.4051 C   0  0  0  0  0  0  0  0  0  0  0  0
  -18.7262   -5.8855   19.8565 C   0  0  0  0  0  0  0  0  0  0  0  0
  -29.2538  -18.7941   20.9374 C   0  0  0  0  0  0  0  0  0  0  0  0
  -31.3947  -18.5845   20.0270 C   0  0  0  0  0  0  0  0  0  0  0  0
  -23.8570  -10.4780   20.9640 C   0  0  0  0  0  0  0  0  0  0  0  0
  -24.1642  -13.0073   20.8366 C   0  0  0  0  0  0  0  0  0  0  0  0
  -32.2392  -27.0961   10.4364 C   0  0  0  0  0  0  0  0  0  0  0  0
  -29.8181  -25.9233   16.5139 C   0  0  0  0  0  0  0  0  0  0  0  0
  -32.3483  -26.5238   11.7182 C   0  0  0  0  0  0  0  0  0  0  0  0
  -30.6244  -25.9478   17.6608 C   0  0  0  0  0  0  0  0  0  0  0  0
  -30.4670  -18.1365   20.9450 C   0  0  0  0  0  0  0  0  0  0  0  0
  -22.4016   -8.1530   21.4725 C   0  0  0  0  0  0  0  0  0  0  0  0
  -30.1620  -23.5885   18.0213 C   0  0  0  0  0  0  0  0  0  0  0  0
  -20.3945   -6.9531   21.2400 C   0  0  0  0  0  0  0  0  0  0  0  0
  -17.7806   -6.8223   20.2740 C   0  0  0  0  0  0  0  0  0  0  0  0
  -20.0331   -5.9509   20.3395 C   0  0  0  0  0  0  0  0  0  0  0  0
  -24.6094  -11.6786   20.7018 C   0  0  0  0  0  0  0  0  0  0  0  0
  -25.2455  -13.7706   20.4695 C   0  0  0  0  0  0  0  0  0  0  0  0
  -29.9458  -20.1564   19.2544 C   0  0  0  0  0  0  0  0  0  0  0  0
  -22.8875  -13.5068   21.2561 C   0  0  0  0  0  0  0  0  0  0  0  0
  -31.9682  -27.8289   15.1540 C   0  0  0  0  0  0  0  0  0  0  0  0
  -31.3712  -29.6981   17.7370 C   0  0  0  0  0  0  0  0  0  0  0  0
  -30.2808  -29.9194   20.9633 C   0  0  0  0  0  0  0  0  0  0  0  0
  -30.7151  -14.8648   20.6464 C   0  0  0  0  0  0  0  0  0  0  0  0
  -32.7198  -28.4965   10.1493 C   0  0  0  0  0  0  0  0  0  0  0  0
  -29.5977  -27.1758   15.7107 C   0  0  0  0  0  0  0  0  0  0  0  0
  -31.3215  -27.2039   18.1133 C   0  0  0  0  0  0  0  0  0  0  0  0
  -32.9039  -29.3464   11.4039 C   0  0  0  0  0  0  0  0  0  0  0  0
  -29.6064  -12.4585   18.2679 C   0  0  0  0  0  0  0  0  0  0  0  0
  -33.6585  -28.5631   12.4734 C   0  0  0  0  0  0  0  0  0  0  0  0
  -28.1738  -12.1464   18.7039 C   0  0  0  0  0  0  0  0  0  0  0  0
  -30.5223  -12.6951   19.4667 C   0  0  0  0  0  0  0  0  0  0  0  0
  -28.6129  -13.4039   20.8544 C   0  0  0  0  0  0  0  0  0  0  0  0
  -32.8772  -27.3131   12.8960 C   0  0  1  0  0  0  0  0  0  0  0  0
  -30.7116  -28.2030   15.8880 C   0  0  1  0  0  0  0  0  0  0  0  0
  -27.6394  -13.2129   19.6788 C   0  0  2  0  0  0  0  0  0  0  0  0
  -29.9444  -31.5739   22.8199 C   0  0  0  0  0  0  0  0  0  0  0  0
  -34.3768  -29.7165   18.2619 C   0  0  0  0  0  0  0  0  0  0  0  0
  -33.8971  -30.5414   20.5766 C   0  0  0  0  0  0  0  0  0  0  0  0
  -33.2448  -31.9203   18.6028 C   0  0  0  0  0  0  0  0  0  0  0  0
  -27.3680  -29.4030   21.0519 C   0  0  0  0  0  0  0  0  0  0  0  0
  -30.7536  -17.0194   21.8774 C   0  0  0  0  0  0  0  0  0  0  0  0
  -29.6541  -21.2828   18.3071 C   0  0  0  0  0  0  0  0  0  1  0  0
  -31.9465  -29.8153   19.1278 C   0  0  1  0  0  0  0  0  0  0  0  0
  -29.3047  -30.8691   21.6338 C   0  0  2  0  0  0  0  0  0  0  0  0
  -33.3548  -30.4741   19.1329 C   0  0  0  0  0  0  0  0  0  0  0  0
  -28.9582  -19.8120   20.1026 N   0  0  0  0  0  0  0  0  0  0  0  0
  -31.1668  -19.5957   19.1633 N   0  0  0  0  0  0  0  0  0  0  0  0
  -25.8748  -11.5988   20.2817 N   0  0  0  0  0  0  0  0  0  0  0  0
  -26.2340  -12.8871   20.1493 N   0  0  0  0  0  0  0  0  0  0  0  0
  -31.0797  -28.4011   17.2913 N   0  0  0  0  0  0  0  0  0  0  0  0
  -29.9592  -13.7184   20.3508 N   0  0  0  0  0  0  0  0  0  0  0  0
  -25.4376  -15.1046   20.3926 N   0  0  0  0  0  0  0  0  0  0  0  0
  -21.8886  -12.5849   21.5975 N   0  0  0  0  0  0  0  0  0  0  0  0
  -31.7982  -27.6705   13.7919 N   0  0  0  0  0  0  0  0  0  0  0  0
  -30.9512  -30.5267   19.9226 N   0  0  0  0  0  0  0  0  0  0  0  0
  -30.1047  -15.7876   21.4869 N   0  0  0  0  0  0  0  0  0  0  0  0
  -28.1081  -30.1249   22.1188 N   0  3  0  0  0  0  0  0  0  0  0  0
  -22.6346  -14.7343   21.3105 O   0  0  0  0  0  0  0  0  0  0  0  0
  -33.0149  -27.6954   15.7772 O   0  0  0  0  0  0  0  0  0  0  0  0
  -31.1805  -30.7203   17.0733 O   0  0  0  0  0  0  0  0  0  0  0  0
  -30.4360  -28.7562   21.3288 O   0  0  0  0  0  0  0  0  0  0  0  0
  -31.8479  -15.0545   20.1905 O   0  0  0  0  0  0  0  0  0  0  0  0
  -21.6914   -7.0188   21.7210 O   0  0  0  0  0  0  0  0  0  0  0  0
  -30.3351  -22.4547   18.7536 O   0  0  0  0  0  0  0  0  0  1  0  0
  -16.5252   -6.7587   19.8114 F   0  0  0  0  0  0  0  0  0  0  0  0
  -20.9368   -5.0475   19.9357 F   0  0  0  0  0  0  0  0  0  0  0  0
  1  2  1  0  0  0  0
  1  5  2  0  0  0  0
  2  6  2  0  0  0  0
  3  8  2  0  0  0  0
  3 17  1  0  0  0  0
  4  9  1  0  0  0  0
  4 17  2  0  0  0  0
  5 19  1  0  0  0  0
  6 21  1  0  0  0  0
  7 10  2  0  0  0  0
  7 20  1  0  0  0  0
  8 24  1  0  0  0  0
  9 24  2  0  0  0  0
 10 25  1  0  0  0  0
 11 12  2  0  0  0  0
 11 26  1  0  0  0  0
 12 27  1  0  0  0  0
 13 22  1  0  0  0  0
 13 25  2  0  0  0  0
 14 27  2  0  0  0  0
 14 28  1  0  0  0  0
 15 23  1  0  0  0  0
 15 59  2  0  0  0  0
 16 23  2  0  0  0  0
 16 60  1  0  0  0  0
 17 29  1  0  0  0  0
 18 29  1  0  0  0  0
 18 30  2  0  0  0  0
 18 32  1  0  0  0  0
 19 21  2  0  0  0  0
 19 37  1  0  0  0  0
 20 22  2  0  0  0  0
 20 38  1  0  0  0  0
 21 46  1  0  0  0  0
 22 39  1  0  0  0  0
 23 54  1  0  0  0  0
 24 76  1  0  0  0  0
 25 77  1  0  0  0  0
 26 28  2  0  0  0  0
 26 76  1  0  0  0  0
 27 78  1  0  0  0  0
 28 79  1  0  0  0  0
 29 61  2  0  0  0  0
 30 62  1  0  0  0  0
 30 65  1  0  0  0  0
 31 55  1  0  0  0  0
 31 59  1  0  0  0  0
 31 60  2  0  0  0  0
 32 66  1  0  0  0  0
 32 71  2  0  0  0  0
 33 47  1  0  0  0  0
 33 67  1  0  0  0  0
 33 72  2  0  0  0  0
 34 56  1  0  0  0  0
 34 63  1  0  0  0  0
 34 73  2  0  0  0  0
 35 57  1  0  0  0  0
 35 68  1  0  0  0  0
 35 74  2  0  0  0  0
 36 64  1  0  0  0  0
 36 69  1  0  0  0  0
 36 75  2  0  0  0  0
 37 40  1  0  0  0  0
 38 47  1  0  0  0  0
 39 63  1  0  0  0  0
 40 42  1  0  0  0  0
 41 43  1  0  0  0  0
 41 44  1  0  0  0  0
 42 46  1  0  0  0  0
 43 48  1  0  0  0  0
 44 64  1  0  0  0  0
 45 48  1  0  0  0  0
 45 64  1  0  0  0  0
 46 67  1  0  0  0  0
 47 63  1  0  0  0  0
 48 62  1  0  0  0  0
 49 57  1  0  0  0  0
 50 58  1  0  0  0  0
 51 58  1  0  0  0  0
 52 58  1  0  0  0  0
 53 70  1  0  0  0  0
 54 69  1  0  0  0  0
 55 77  1  0  0  0  0
 56 58  1  0  0  0  0
 56 68  1  0  0  0  0
 57 70  1  0  0  0  0
 61 62  1  0  0  0  0
M  CHG  1  70   1
M  ISO  4  36 100  55 101  69 100  77 101
M  END
> <Batch ID>
0048

> <Smiles>
CNC(C)C(=O)NC(C(=O)N1Cc2cc([101O:1][101CH2:1]c3ncc(C[100NH:0][100C:0](=O)N4CCCC(n5nc(-c6ccc(Oc7ccc(F)cc7F)cc6)c(C(N)=O)c5N)C4)cn3)ccc2CC1C(=O)NC1CCCc2ccccc21)C(C)(C)C

> <Shape>
0.226

> <Color>
0.209

> <Negative vol penalty>
0.000

$$$$

  -OEChem-04052317263D

 84 92  0     1  0  0  0  0  0999 V2000
  -28.2316  -35.5983   16.0342 C   0  0  0  0  0  0  0  0  0  0  0  0
  -28.8681  -34.4995   16.6025 C   0  0  0  0  0  0  0  0  0  0  0  0
  -24.3616   -9.1607   22.2712 C   0  0  0  0  0  0  0  0  0  0  0  0
  -24.5134   -8.5536   19.9377 C   0  0  0  0  0  0  0  0  0  0  0  0
  -27.1061  -36.1454   16.6488 C   0  0  0  0  0  0  0  0  0  0  0  0
  -28.3800  -33.9478   17.7865 C   0  0  0  0  0  0  0  0  0  0  0  0
  -26.3302  -27.0489   18.0943 C   0  0  0  0  0  0  0  0  0  0  0  0
  -23.2163   -8.3753   22.4011 C   0  0  0  0  0  0  0  0  0  0  0  0
  -23.3681   -7.7680   20.0676 C   0  0  0  0  0  0  0  0  0  0  0  0
  -26.1164  -25.6842   18.2891 C   0  0  0  0  0  0  0  0  0  0  0  0
  -20.4595   -6.2432   23.4352 C   0  0  0  0  0  0  0  0  0  0  0  0
  -20.3668   -5.4112   24.5509 C   0  0  0  0  0  0  0  0  0  0  0  0
  -25.4567  -26.1033   20.5775 C   0  0  0  0  0  0  0  0  0  0  0  0
  -22.3773   -4.2625   23.8613 C   0  0  0  0  0  0  0  0  0  0  0  0
  -25.0101   -9.2499   21.0395 C   0  0  0  0  0  0  0  0  0  0  0  0
  -27.5278   -9.6574   21.0963 C   0  0  0  0  0  0  0  0  0  0  0  0
  -26.5982  -35.5941   17.8357 C   0  0  0  0  0  0  0  0  0  0  0  0
  -26.0931  -27.9487   19.1371 C   0  0  0  0  0  0  0  0  0  0  0  0
  -27.2474  -34.4889   18.4183 C   0  0  0  0  0  0  0  0  0  0  0  0
  -25.6572  -27.4727   20.3846 C   0  0  0  0  0  0  0  0  0  0  0  0
  -22.7195   -7.6789   21.2993 C   0  0  0  0  0  0  0  0  0  0  0  0
  -25.6809  -25.2125   19.5277 C   0  0  0  0  0  0  0  0  0  0  0  0
  -21.5110   -6.0848   22.5325 C   0  0  0  0  0  0  0  0  0  0  0  0
  -21.3258   -4.4208   24.7640 C   0  0  0  0  0  0  0  0  0  0  0  0
  -22.4700   -5.0945   22.7456 C   0  0  0  0  0  0  0  0  0  0  0  0
  -26.1930  -10.0616   20.9045 C   0  0  0  0  0  0  0  0  0  0  0  0
  -28.2677  -10.7879   20.8494 C   0  0  0  0  0  0  0  0  0  0  0  0
  -28.0519   -8.3747   21.4646 C   0  0  0  0  0  0  0  0  0  0  0  0
  -26.0860  -31.5201   20.2865 C   0  0  0  0  0  0  0  0  0  0  0  0
  -23.5819  -30.1990   21.4675 C   0  0  0  0  0  0  0  0  0  0  0  0
  -20.7287  -28.4896   22.2255 C   0  0  0  0  0  0  0  0  0  0  0  0
  -29.2829  -16.0379   21.3403 C   0  0  0  0  0  0  0  0  0  0  0  0
  -25.4069  -36.2492   18.4887 C   0  0  0  0  0  0  0  0  0  0  0  0
  -26.3689  -29.4206   18.9909 C   0  0  0  0  0  0  0  0  0  0  0  0
  -25.4483  -28.4737   21.4879 C   0  0  0  0  0  0  0  0  0  0  0  0
  -24.7311  -35.3736   19.5408 C   0  0  0  0  0  0  0  0  0  0  0  0
  -30.5334  -19.2785   20.0518 C   0  0  0  0  0  0  0  0  0  0  0  0
  -26.9410  -15.2329   18.8504 C   0  0  0  0  0  0  0  0  0  0  0  0
  -25.7717  -34.7528   20.4673 C   0  0  0  0  0  0  0  0  0  0  0  0
  -29.6182  -20.2824   20.7484 C   0  0  0  0  0  0  0  0  0  0  0  0
  -26.6394  -13.7709   19.1783 C   0  0  0  0  0  0  0  0  0  0  0  0
  -30.6995  -18.0026   20.8701 C   0  0  0  0  0  0  0  0  0  0  0  0
  -27.0674  -16.0886   20.1119 C   0  0  0  0  0  0  0  0  0  0  0  0
  -28.4934  -18.3628   21.9300 C   0  0  0  0  0  0  0  0  0  0  0  0
  -27.7378  -14.1033   21.4258 C   0  0  0  0  0  0  0  0  0  0  0  0
  -26.7333  -33.8470   19.6886 C   0  0  1  0  0  0  0  0  0  0  0  0
  -25.3778  -30.3009   19.7731 C   0  0  1  0  0  0  0  0  0  0  0  0
  -28.2729  -19.6419   21.1151 C   0  0  1  0  0  0  0  0  0  0  0  0
  -27.6629  -13.2070   20.1800 C   0  0  1  0  0  0  0  0  0  0  0  0
  -18.5403  -28.7441   23.4270 C   0  0  0  0  0  0  0  0  0  0  0  0
  -23.7714  -20.2184   23.4393 C   0  0  0  0  0  0  0  0  0  0  0  0
  -25.7947  -21.3382   24.3950 C   0  0  0  0  0  0  0  0  0  0  0  0
  -25.0209  -29.9114   24.1415 C   0  0  0  0  0  0  0  0  0  0  0  0
  -22.8397  -29.2249   25.1609 C   0  0  0  0  0  0  0  0  0  0  0  0
  -23.0873  -31.4973   24.1622 C   0  0  0  0  0  0  0  0  0  0  0  0
  -19.1807  -28.0153   19.7480 C   0  0  0  0  0  0  0  0  0  0  0  0
  -26.4880  -21.6817   19.7073 C   0  0  0  0  0  0  0  0  0  0  0  0
  -27.2174  -21.9106   21.0374 C   0  0  0  0  0  0  0  0  0  0  0  0
  -26.0335  -20.0095   22.2746 C   0  0  0  0  0  0  0  0  0  0  0  0
  -26.2682  -22.9827   18.9422 C   0  0  0  0  0  0  0  0  0  1  0  0
  -22.9642  -29.4817   22.6411 C   0  0  1  0  0  0  0  0  0  0  0  0
  -19.2639  -28.8661   22.0949 C   0  0  2  0  0  0  0  0  0  0  0  0
  -27.3979  -20.6278   21.8860 C   0  0  1  0  0  0  0  0  0  0  0  0
  -25.0927  -20.9103   23.1022 C   0  0  0  0  0  0  0  0  0  0  0  0
  -23.4888  -30.0146   24.0043 C   0  0  0  0  0  0  0  0  0  0  0  0
  -26.0880  -11.3484   20.5623 N   0  0  0  0  0  0  0  0  0  0  0  0
  -27.3662  -11.7626   20.5373 N   0  0  0  0  0  0  0  0  0  0  0  0
  -24.7749  -29.6704   20.9597 N   0  0  0  0  0  0  0  0  0  0  0  0
  -29.4051  -17.4343   21.2455 N   0  0  0  0  0  0  0  0  0  0  0  0
  -28.0234  -15.4905   21.0533 N   0  0  0  0  0  0  0  0  0  0  0  0
  -29.5950  -11.0334   20.8711 N   0  0  0  0  0  0  0  0  0  0  0  0
  -27.1521   -7.3222   21.6807 N   0  0  0  0  0  0  0  0  0  0  0  0
  -26.1052  -32.5764   19.3959 N   0  0  0  0  0  0  0  0  0  0  0  0
  -21.5193  -29.5920   22.4724 N   0  0  0  0  0  0  0  0  0  0  0  0
  -18.5865  -27.9772   21.1091 N   0  3  0  0  0  0  0  0  0  0  0  0
  -29.2808   -8.1722   21.6141 O   0  0  0  0  0  0  0  0  0  0  0  0
  -26.5779  -31.5053   21.4088 O   0  0  0  0  0  0  0  0  0  0  0  0
  -23.0269  -31.2042   21.0149 O   0  0  0  0  0  0  0  0  0  0  0  0
  -21.1309  -27.3328   22.1226 O   0  0  0  0  0  0  0  0  0  0  0  0
  -30.2424  -15.3245   21.6589 O   0  0  0  0  0  0  0  0  0  0  0  0
  -21.6021   -6.9121   21.4258 O   0  0  0  0  0  0  0  0  0  0  0  0
  -25.4682  -23.8694   19.7110 O   0  0  0  0  0  0  0  0  0  1  0  0
  -21.2375   -3.6229   25.8362 F   0  0  0  0  0  0  0  0  0  0  0  0
  -23.4831   -4.9384   21.8824 F   0  0  0  0  0  0  0  0  0  0  0  0
  1  2  1  0  0  0  0
  1  5  2  0  0  0  0
  2  6  2  0  0  0  0
  3  8  2  0  0  0  0
  3 15  1  0  0  0  0
  4  9  1  0  0  0  0
  4 15  2  0  0  0  0
  5 17  1  0  0  0  0
  6 19  1  0  0  0  0
  7 10  2  0  0  0  0
  7 18  1  0  0  0  0
  8 21  1  0  0  0  0
  9 21  2  0  0  0  0
 10 22  1  0  0  0  0
 11 12  2  0  0  0  0
 11 23  1  0  0  0  0
 12 24  1  0  0  0  0
 13 20  1  0  0  0  0
 13 22  2  0  0  0  0
 14 24  2  0  0  0  0
 14 25  1  0  0  0  0
 15 26  1  0  0  0  0
 16 26  1  0  0  0  0
 16 27  2  0  0  0  0
 16 28  1  0  0  0  0
 17 19  2  0  0  0  0
 17 33  1  0  0  0  0
 18 20  2  0  0  0  0
 18 34  1  0  0  0  0
 19 46  1  0  0  0  0
 20 35  1  0  0  0  0
 21 81  1  0  0  0  0
 22 82  1  0  0  0  0
 23 25  2  0  0  0  0
 23 81  1  0  0  0  0
 24 83  1  0  0  0  0
 25 84  1  0  0  0  0
 26 66  2  0  0  0  0
 27 67  1  0  0  0  0
 27 71  1  0  0  0  0
 28 72  1  0  0  0  0
 28 76  2  0  0  0  0
 29 47  1  0  0  0  0
 29 73  1  0  0  0  0
 29 77  2  0  0  0  0
 30 61  1  0  0  0  0
 30 68  1  0  0  0  0
 30 78  2  0  0  0  0
 31 62  1  0  0  0  0
 31 74  1  0  0  0  0
 31 79  2  0  0  0  0
 32 69  1  0  0  0  0
 32 70  1  0  0  0  0
 32 80  2  0  0  0  0
 33 36  1  0  0  0  0
 34 47  1  0  0  0  0
 35 68  1  0  0  0  0
 36 39  1  0  0  0  0
 37 40  1  0  0  0  0
 37 42  1  0  0  0  0
 38 41  1  0  0  0  0
 38 43  1  0  0  0  0
 39 46  1  0  0  0  0
 40 48  1  0  0  0  0
 41 49  1  0  0  0  0
 42 69  1  0  0  0  0
 43 70  1  0  0  0  0
 44 48  1  0  0  0  0
 44 69  1  0  0  0  0
 45 49  1  0  0  0  0
 45 70  1  0  0  0  0
 46 73  1  0  0  0  0
 47 68  1  0  0  0  0
 48 63  1  0  0  0  0
 49 67  1  0  0  0  0
 50 62  1  0  0  0  0
 51 64  1  0  0  0  0
 52 64  1  0  0  0  0
 53 65  1  0  0  0  0
 54 65  1  0  0  0  0
 55 65  1  0  0  0  0
 56 75  1  0  0  0  0
 57 58  1  0  0  0  0
 57 60  1  0  0  0  0
 58 63  1  0  0  0  0
 59 63  1  0  0  0  0
 59 64  1  0  0  0  0
 60 82  1  0  0  0  0
 61 65  1  0  0  0  0
 61 74  1  0  0  0  0
 62 75  1  0  0  0  0
 66 67  1  0  0  0  0
M  CHG  1  75   1
M  ISO  4  32 100  60 101  69 100  82 101
M  END
> <Batch ID>
0048

> <Smiles>
CNC(C)C(=O)NC(C(=O)N1Cc2cc([101O:1][101CH2:1]CCC(CC(C)C)C3CCC[100N:0]([100C:0](=O)N4CCCC(n5nc(-c6ccc(Oc7ccc(F)cc7F)cc6)c(C(N)=O)c5N)C4)C3)ccc2CC1C(=O)NC1CCCc2ccccc21)C(C)(C)C

> <Shape>
0.256

> <Color>
0.094

> <Negative vol penalty>
0.000

$$$$

  -OEChem-04052317263D

 82 90  0     1  0  0  0  0  0999 V2000
  -17.8364  -20.9910   19.0193 C   0  0  0  0  0  0  0  0  0  0  0  0
  -18.7399  -19.9598   18.7829 C   0  0  0  0  0  0  0  0  0  0  0  0
  -27.6682  -23.5269   20.9635 C   0  0  0  0  0  0  0  0  0  0  0  0
  -28.9297  -23.3485   18.9107 C   0  0  0  0  0  0  0  0  0  0  0  0
  -18.0551  -21.8806   20.0704 C   0  0  0  0  0  0  0  0  0  0  0  0
  -19.8632  -19.8183   19.5969 C   0  0  0  0  0  0  0  0  0  0  0  0
  -22.5402  -14.5796   21.2984 C   0  0  0  0  0  0  0  0  0  0  0  0
  -27.7131  -24.9179   20.8702 C   0  0  0  0  0  0  0  0  0  0  0  0
  -28.9745  -24.7396   18.8174 C   0  0  0  0  0  0  0  0  0  0  0  0
  -23.6562  -13.8968   20.8165 C   0  0  0  0  0  0  0  0  0  0  0  0
  -26.1162  -27.3519   19.1502 C   0  0  0  0  0  0  0  0  0  0  0  0
  -24.9363  -28.0560   19.3899 C   0  0  0  0  0  0  0  0  0  0  0  0
  -25.0171  -14.9330   22.5175 C   0  0  0  0  0  0  0  0  0  0  0  0
  -26.0019  -29.2183   21.2205 C   0  0  0  0  0  0  0  0  0  0  0  0
  -29.5248  -12.4847   18.2833 C   0  0  0  0  0  0  0  0  0  0  0  0
  -28.2766  -22.7422   19.9837 C   0  0  0  0  0  0  0  0  0  0  0  0
  -27.2478  -20.4485   19.5497 C   0  0  0  0  0  0  0  0  0  0  0  0
  -19.1766  -21.7441   20.9036 C   0  0  0  0  0  0  0  0  0  0  0  0
  -22.6567  -15.4540   22.3885 C   0  0  0  0  0  0  0  0  0  0  0  0
  -20.0978  -20.7077   20.6593 C   0  0  0  0  0  0  0  0  0  0  0  0
  -23.9006  -15.6237   23.0129 C   0  0  0  0  0  0  0  0  0  0  0  0
  -28.3662  -25.5242   19.7972 C   0  0  0  0  0  0  0  0  0  0  0  0
  -24.8955  -14.0757   21.4242 C   0  0  0  0  0  0  0  0  0  0  0  0
  -27.2390  -27.5808   19.9456 C   0  0  0  0  0  0  0  0  0  0  0  0
  -24.8791  -28.9892   20.4251 C   0  0  0  0  0  0  0  0  0  0  0  0
  -27.1818  -28.5140   20.9807 C   0  0  0  0  0  0  0  0  0  0  0  0
  -28.2311  -21.3052   20.0798 C   0  0  0  0  0  0  0  0  0  0  0  0
  -28.2223  -11.8983   19.8613 C   0  0  0  0  0  0  0  0  0  0  0  0
  -29.2673  -12.5518   20.4709 C   0  0  0  0  0  0  0  0  0  0  0  0
  -27.6591  -19.1888   19.9109 C   0  0  0  0  0  0  0  0  0  0  0  0
  -26.0682  -20.7633   18.7980 C   0  0  0  0  0  0  0  0  0  0  0  0
  -22.1896  -18.5675   22.8264 C   0  0  0  0  0  0  0  0  0  0  0  0
  -22.7647  -17.8207   25.9303 C   0  0  0  0  0  0  0  0  0  0  0  0
  -24.1976  -15.6925   28.1806 C   0  0  0  0  0  0  0  0  0  0  0  0
  -32.8861  -16.4720   20.5278 C   0  0  0  0  0  0  0  0  0  0  0  0
  -19.3956  -22.7585   21.9980 C   0  0  0  0  0  0  0  0  0  0  0  0
  -21.4380  -16.1626   22.9131 C   0  0  0  0  0  0  0  0  0  0  0  0
  -24.0747  -16.5355   24.1990 C   0  0  0  0  0  0  0  0  0  0  0  0
  -20.4130  -22.3141   23.0457 C   0  0  0  0  0  0  0  0  0  0  0  0
  -30.6686  -17.3439   23.3605 C   0  0  0  0  0  0  0  0  0  0  0  0
  -21.6579  -21.7445   22.3730 C   0  0  0  0  0  0  0  0  0  0  0  0
  -29.7739  -18.4278   22.7617 C   0  0  0  0  0  0  0  0  0  0  0  0
  -32.0390  -17.3057   22.6908 C   0  0  0  0  0  0  0  0  0  0  0  0
  -31.0875  -18.2471   20.6117 C   0  0  0  0  0  0  0  0  0  0  0  0
  -21.3150  -20.5065   21.5357 C   0  0  1  0  0  0  0  0  0  0  0  0
  -21.7740  -17.4221   23.7056 C   0  0  1  0  0  0  0  0  0  0  0  0
  -29.6830  -18.2814   21.2327 C   0  0  2  0  0  0  0  0  0  0  0  0
  -29.5480  -12.8512   21.8864 C   0  0  0  0  0  0  0  0  0  0  0  0
  -24.5309  -15.3651   30.6462 C   0  0  0  0  0  0  0  0  0  0  0  0
  -24.9011  -19.9992   25.9283 C   0  0  0  0  0  0  0  0  0  0  0  0
  -25.8194  -19.0033   28.0338 C   0  0  0  0  0  0  0  0  0  0  0  0
  -23.4981  -19.9159   27.9969 C   0  0  0  0  0  0  0  0  0  0  0  0
  -33.4314  -15.6379   18.2724 C   0  0  0  0  0  0  0  0  0  0  0  0
  -22.7475  -13.1127   28.1517 C   0  0  0  0  0  0  0  0  0  0  0  0
  -27.0071  -11.2703   20.4994 C   0  0  0  0  0  0  0  0  0  0  0  0
  -31.3399  -13.6423   19.5558 C   0  0  0  0  0  0  0  0  0  0  0  0
  -31.2059  -15.1214   19.2030 C   0  0  0  0  0  0  0  0  0  0  0  0
  -25.7615  -12.1375   20.3522 C   0  0  0  0  0  0  0  0  0  1  0  0
  -23.9954  -17.7445   26.8012 C   0  0  1  0  0  0  0  0  0  0  0  0
  -23.6557  -15.0478   29.4437 C   0  0  2  0  0  0  0  0  0  0  0  0
  -24.5509  -19.1500   27.1665 C   0  0  0  0  0  0  0  0  0  0  0  0
  -28.3888  -11.8597   18.4995 N   0  0  0  0  0  0  0  0  0  0  0  0
  -29.1944  -20.6455   20.7285 N   0  0  0  0  0  0  0  0  0  0  0  0
  -30.0937  -12.9212   19.4474 N   0  0  0  0  0  0  0  0  0  0  0  0
  -28.8184  -19.3609   20.6085 N   0  0  0  0  0  0  0  0  0  0  0  0
  -22.8546  -17.2109   24.6710 N   0  0  0  0  0  0  0  0  0  0  0  0
  -31.9229  -17.2098   21.2353 N   0  0  0  0  0  0  0  0  0  0  0  0
  -27.1385  -17.9618   19.6967 N   0  0  0  0  0  0  0  0  0  0  0  0
  -25.7957  -22.1085   18.5145 N   0  0  0  0  0  0  0  0  0  0  0  0
  -21.1389  -19.3516   22.3898 N   0  0  0  0  0  0  0  0  0  0  0  0
  -23.6298  -16.9284   27.9539 N   0  0  0  0  0  0  0  0  0  0  0  0
  -32.4684  -15.8433   19.3450 N   0  0  0  0  0  0  0  0  0  0  0  0
  -23.5945  -13.5674   29.2844 N   0  3  0  0  0  0  0  0  0  0  0  0
  -25.2705  -19.8790   18.4038 O   0  0  0  0  0  0  0  0  0  0  0  0
  -23.3759  -18.7289   22.5648 O   0  0  0  0  0  0  0  0  0  0  0  0
  -21.7582  -18.3939   26.3546 O   0  0  0  0  0  0  0  0  0  0  0  0
  -25.0430  -15.1551   27.4685 O   0  0  0  0  0  0  0  0  0  0  0  0
  -34.0506  -16.3726   20.9353 O   0  0  0  0  0  0  0  0  0  0  0  0
  -28.4099  -26.8815   19.7058 O   0  0  0  0  0  0  0  0  0  0  0  0
  -25.9865  -13.4110   20.9555 O   0  0  0  0  0  0  0  0  0  1  0  0
  -23.7464  -29.6664   20.6542 F   0  0  0  0  0  0  0  0  0  0  0  0
  -28.2576  -28.7392   21.7475 F   0  0  0  0  0  0  0  0  0  0  0  0
  1  2  1  0  0  0  0
  1  5  2  0  0  0  0
  2  6  2  0  0  0  0
  3  8  2  0  0  0  0
  3 16  1  0  0  0  0
  4  9  1  0  0  0  0
  4 16  2  0  0  0  0
  5 18  1  0  0  0  0
  6 20  1  0  0  0  0
  7 10  2  0  0  0  0
  7 19  1  0  0  0  0
  8 22  1  0  0  0  0
  9 22  2  0  0  0  0
 10 23  1  0  0  0  0
 11 12  2  0  0  0  0
 11 24  1  0  0  0  0
 12 25  1  0  0  0  0
 13 21  1  0  0  0  0
 13 23  2  0  0  0  0
 14 25  2  0  0  0  0
 14 26  1  0  0  0  0
 15 62  2  0  0  0  0
 15 64  1  0  0  0  0
 16 27  1  0  0  0  0
 17 27  1  0  0  0  0
 17 30  2  0  0  0  0
 17 31  1  0  0  0  0
 18 20  2  0  0  0  0
 18 36  1  0  0  0  0
 19 21  2  0  0  0  0
 19 37  1  0  0  0  0
 20 45  1  0  0  0  0
 21 38  1  0  0  0  0
 22 79  1  0  0  0  0
 23 80  1  0  0  0  0
 24 26  2  0  0  0  0
 24 79  1  0  0  0  0
 25 81  1  0  0  0  0
 26 82  1  0  0  0  0
 27 63  2  0  0  0  0
 28 29  2  0  0  0  0
 28 55  1  0  0  0  0
 28 62  1  0  0  0  0
 29 48  1  0  0  0  0
 29 64  1  0  0  0  0
 30 65  1  0  0  0  0
 30 68  1  0  0  0  0
 31 69  1  0  0  0  0
 31 74  2  0  0  0  0
 32 46  1  0  0  0  0
 32 70  1  0  0  0  0
 32 75  2  0  0  0  0
 33 59  1  0  0  0  0
 33 66  1  0  0  0  0
 33 76  2  0  0  0  0
 34 60  1  0  0  0  0
 34 71  1  0  0  0  0
 34 77  2  0  0  0  0
 35 67  1  0  0  0  0
 35 72  1  0  0  0  0
 35 78  2  0  0  0  0
 36 39  1  0  0  0  0
 37 46  1  0  0  0  0
 38 66  1  0  0  0  0
 39 41  1  0  0  0  0
 40 42  1  0  0  0  0
 40 43  1  0  0  0  0
 41 45  1  0  0  0  0
 42 47  1  0  0  0  0
 43 67  1  0  0  0  0
 44 47  1  0  0  0  0
 44 67  1  0  0  0  0
 45 70  1  0  0  0  0
 46 66  1  0  0  0  0
 47 65  1  0  0  0  0
 49 60  1  0  0  0  0
 50 61  1  0  0  0  0
 51 61  1  0  0  0  0
 52 61  1  0  0  0  0
 53 72  1  0  0  0  0
 54 73  1  0  0  0  0
 55 58  1  0  0  0  0
 56 57  1  0  0  0  0
 56 64  1  0  0  0  0
 57 72  1  0  0  0  0
 58 80  1  0  0  0  0
 59 61  1  0  0  0  0
 59 71  1  0  0  0  0
 60 73  1  0  0  0  0
 63 65  1  0  0  0  0
M  CHG  1  73   1
M  ISO  4  35 100  58 101  72 100  80 101
M  END
> <Batch ID>
0048

> <Smiles>
CNC(C)C(=O)NC(C(=O)N1Cc2cc([101O:1][101CH2:1]Cc3ncn(CC[100N:0](C)[100C:0](=O)N4CCCC(n5nc(-c6ccc(Oc7ccc(F)cc7F)cc6)c(C(N)=O)c5N)C4)c3C)ccc2CC1C(=O)NC1CCCc2ccccc21)C(C)(C)C

> <Shape>
0.195

> <Color>
0.062

> <Negative vol penalty>
0.000

$$$$

  -OEChem-04052317263D

 77 84  0     1  0  0  0  0  0999 V2000
  -31.7465  -33.1652   20.8258 C   0  0  0  0  0  0  0  0  0  0  0  0
  -31.1889  -31.9037   21.0074 C   0  0  0  0  0  0  0  0  0  0  0  0
  -27.8699  -12.6248   23.0507 C   0  0  0  0  0  0  0  0  0  0  0  0
  -26.7218  -13.3312   21.0457 C   0  0  0  0  0  0  0  0  0  0  0  0
  -31.0892  -34.2936   21.3144 C   0  0  0  0  0  0  0  0  0  0  0  0
  -29.9741  -31.7696   21.6788 C   0  0  0  0  0  0  0  0  0  0  0  0
  -26.8021  -28.5896   19.3399 C   0  0  0  0  0  0  0  0  0  0  0  0
  -26.7269  -11.9405   23.4640 C   0  0  0  0  0  0  0  0  0  0  0  0
  -25.5788  -12.6469   21.4590 C   0  0  0  0  0  0  0  0  0  0  0  0
  -27.0343  -27.2245   19.5024 C   0  0  0  0  0  0  0  0  0  0  0  0
  -24.4694   -9.4551   21.5067 C   0  0  0  0  0  0  0  0  0  0  0  0
  -23.8049   -8.6754   20.5601 C   0  0  0  0  0  0  0  0  0  0  0  0
  -25.3006  -27.1352   21.1773 C   0  0  0  0  0  0  0  0  0  0  0  0
  -21.8109  -10.0053   20.8644 C   0  0  0  0  0  0  0  0  0  0  0  0
  -27.8673  -13.3202   21.8415 C   0  0  0  0  0  0  0  0  0  0  0  0
  -30.1039  -13.5243   20.6317 C   0  0  0  0  0  0  0  0  0  0  0  0
  -29.8610  -34.1742   21.9837 C   0  0  0  0  0  0  0  0  0  0  0  0
  -25.8232  -29.2410   20.1040 C   0  0  0  0  0  0  0  0  0  0  0  0
  -29.3005  -32.8973   22.1781 C   0  0  0  0  0  0  0  0  0  0  0  0
  -25.0562  -28.5081   21.0208 C   0  0  0  0  0  0  0  0  0  0  0  0
  -25.5814  -11.9515   22.6682 C   0  0  0  0  0  0  0  0  0  0  0  0
  -26.2855  -26.4977   20.4233 C   0  0  0  0  0  0  0  0  0  0  0  0
  -23.8046  -10.5099   22.1322 C   0  0  0  0  0  0  0  0  0  0  0  0
  -22.4757   -8.9504   20.2389 C   0  0  0  0  0  0  0  0  0  0  0  0
  -22.4754  -10.7850   21.8110 C   0  0  0  0  0  0  0  0  0  0  0  0
  -29.0475  -14.0278   21.4142 C   0  0  0  0  0  0  0  0  0  0  0  0
  -30.9721  -14.5812   20.5060 C   0  0  0  0  0  0  0  0  0  0  0  0
  -30.2843  -12.2181   20.0687 C   0  0  0  0  0  0  0  0  0  0  0  0
  -25.8440  -31.5928   22.2423 C   0  0  0  0  0  0  0  0  0  0  0  0
  -22.6218  -31.2736   22.0475 C   0  0  0  0  0  0  0  0  0  0  0  0
  -19.9467  -29.2887   21.3056 C   0  0  0  0  0  0  0  0  0  0  0  0
  -29.7324  -20.5027   21.0694 C   0  0  0  0  0  0  0  0  0  0  0  0
  -29.2111  -35.4182   22.5356 C   0  0  0  0  0  0  0  0  0  0  0  0
  -25.5667  -30.7087   19.8976 C   0  0  0  0  0  0  0  0  0  0  0  0
  -23.9796  -29.1562   21.8510 C   0  0  0  0  0  0  0  0  0  0  0  0
  -27.7432  -35.2250   22.9072 C   0  0  0  0  0  0  0  0  0  0  0  0
  -32.4289  -18.5329   22.7550 C   0  0  0  0  0  0  0  0  0  0  0  0
  -27.5594  -33.9380   23.7050 C   0  0  0  0  0  0  0  0  0  0  0  0
  -31.9013  -17.1094   22.5825 C   0  0  0  0  0  0  0  0  0  0  0  0
  -31.2877  -19.5413   22.8123 C   0  0  0  0  0  0  0  0  0  0  0  0
  -29.8411  -18.0659   21.4532 C   0  0  0  0  0  0  0  0  0  0  0  0
  -27.9722  -32.7134   22.8795 C   0  0  1  0  0  0  0  0  0  0  0  0
  -24.8969  -31.3725   21.0968 C   0  0  1  0  0  0  0  0  0  0  0  0
  -30.9603  -17.0147   21.3694 C   0  0  2  0  0  0  0  0  0  0  0  0
  -17.4373  -29.2930   21.2808 C   0  0  0  0  0  0  0  0  0  0  0  0
  -22.5936  -30.9725   25.0837 C   0  0  0  0  0  0  0  0  0  0  0  0
  -20.2731  -30.0506   24.9010 C   0  0  0  0  0  0  0  0  0  0  0  0
  -20.7482  -32.3840   24.1582 C   0  0  0  0  0  0  0  0  0  0  0  0
  -28.0043  -23.7739   22.6854 C   0  0  0  0  0  0  0  0  0  0  0  0
  -27.1179  -22.3504   20.8181 C   0  0  0  0  0  0  0  0  0  0  0  0
  -30.8522  -22.0043   22.7697 C   0  0  0  0  0  0  0  0  0  0  0  0
  -19.8592  -28.8112   18.3862 C   0  0  0  0  0  0  0  0  0  0  0  0
  -29.5818  -22.9565   20.8814 C   0  0  0  0  0  0  0  0  0  0  0  0
  -27.8373  -24.6971   20.3455 C   0  0  0  0  0  0  0  0  0  1  0  0
  -21.5841  -30.4458   22.7665 C   0  0  1  0  0  0  0  0  0  0  0  0
  -18.7022  -29.5446   20.4748 C   0  0  2  0  0  0  0  0  0  0  0  0
  -21.3213  -30.9511   24.2132 C   0  0  0  0  0  0  0  0  0  0  0  0
  -28.1435  -23.4375   21.1884 C   0  0  0  0  0  0  0  0  0  0  0  0
  -29.2263  -15.3051   21.7613 N   0  0  0  0  0  0  0  0  0  0  0  0
  -30.4052  -15.6131   21.1943 N   0  0  0  0  0  0  0  0  0  0  0  0
  -23.7708  -30.5947   21.6175 N   0  0  0  0  0  0  0  0  0  0  0  0
  -30.3884  -19.4090   21.6583 N   0  0  0  0  0  0  0  0  0  0  0  0
  -32.1575  -14.7191   19.8750 N   0  0  0  0  0  0  0  0  0  0  0  0
  -29.2956  -11.2507   20.2948 N   0  0  0  0  0  0  0  0  0  0  0  0
  -26.9380  -32.3752   21.9253 N   0  0  0  0  0  0  0  0  0  0  0  0
  -20.4021  -30.4406   21.9115 N   0  0  0  0  0  0  0  0  0  0  0  0
  -29.9765  -21.7681   21.6241 N   0  0  0  0  0  0  0  0  0  0  0  0
  -18.6840  -28.6527   19.2810 N   0  3  0  0  0  0  0  0  0  0  0  0
  -31.3002  -11.9128   19.3991 O   0  0  0  0  0  0  0  0  0  0  0  0
  -25.5996  -31.0913   23.3334 O   0  0  0  0  0  0  0  0  0  0  0  0
  -22.4173  -32.4767   21.8676 O   0  0  0  0  0  0  0  0  0  0  0  0
  -20.4610  -28.1773   21.4100 O   0  0  0  0  0  0  0  0  0  0  0  0
  -28.9805  -20.3575   20.0971 O   0  0  0  0  0  0  0  0  0  0  0  0
  -24.4659  -11.2836   23.0712 O   0  0  0  0  0  0  0  0  0  0  0  0
  -26.5106  -25.1653   20.5844 O   0  0  0  0  0  0  0  0  0  1  0  0
  -21.8382   -8.2025   19.3288 F   0  0  0  0  0  0  0  0  0  0  0  0
  -21.8319  -11.7978   22.4077 F   0  0  0  0  0  0  0  0  0  0  0  0
  1  2  1  0  0  0  0
  1  5  2  0  0  0  0
  2  6  2  0  0  0  0
  3  8  2  0  0  0  0
  3 15  1  0  0  0  0
  4  9  1  0  0  0  0
  4 15  2  0  0  0  0
  5 17  1  0  0  0  0
  6 19  1  0  0  0  0
  7 10  2  0  0  0  0
  7 18  1  0  0  0  0
  8 21  1  0  0  0  0
  9 21  2  0  0  0  0
 10 22  1  0  0  0  0
 11 12  2  0  0  0  0
 11 23  1  0  0  0  0
 12 24  1  0  0  0  0
 13 20  1  0  0  0  0
 13 22  2  0  0  0  0
 14 24  2  0  0  0  0
 14 25  1  0  0  0  0
 15 26  1  0  0  0  0
 16 26  1  0  0  0  0
 16 27  2  0  0  0  0
 16 28  1  0  0  0  0
 17 19  2  0  0  0  0
 17 33  1  0  0  0  0
 18 20  2  0  0  0  0
 18 34  1  0  0  0  0
 19 42  1  0  0  0  0
 20 35  1  0  0  0  0
 21 74  1  0  0  0  0
 22 75  1  0  0  0  0
 23 25  2  0  0  0  0
 23 74  1  0  0  0  0
 24 76  1  0  0  0  0
 25 77  1  0  0  0  0
 26 59  2  0  0  0  0
 27 60  1  0  0  0  0
 27 63  1  0  0  0  0
 28 64  1  0  0  0  0
 28 69  2  0  0  0  0
 29 43  1  0  0  0  0
 29 65  1  0  0  0  0
 29 70  2  0  0  0  0
 30 55  1  0  0  0  0
 30 61  1  0  0  0  0
 30 71  2  0  0  0  0
 31 56  1  0  0  0  0
 31 66  1  0  0  0  0
 31 72  2  0  0  0  0
 32 62  1  0  0  0  0
 32 67  1  0  0  0  0
 32 73  2  0  0  0  0
 33 36  1  0  0  0  0
 34 43  1  0  0  0  0
 35 61  1  0  0  0  0
 36 38  1  0  0  0  0
 37 39  1  0  0  0  0
 37 40  1  0  0  0  0
 38 42  1  0  0  0  0
 39 44  1  0  0  0  0
 40 62  1  0  0  0  0
 41 44  1  0  0  0  0
 41 62  1  0  0  0  0
 42 65  1  0  0  0  0
 43 61  1  0  0  0  0
 44 60  1  0  0  0  0
 45 56  1  0  0  0  0
 46 57  1  0  0  0  0
 47 57  1  0  0  0  0
 48 57  1  0  0  0  0
 49 58  1  0  0  0  0
 50 58  1  0  0  0  0
 51 67  1  0  0  0  0
 52 68  1  0  0  0  0
 53 58  1  0  0  0  0
 53 67  1  0  0  0  0
 54 58  1  0  0  0  0
 54 75  1  0  0  0  0
 55 57  1  0  0  0  0
 55 66  1  0  0  0  0
 56 68  1  0  0  0  0
 59 60  1  0  0  0  0
M  CHG  1  68   1
M  ISO  4  32 100  54 101  67 100  75 101
M  END
> <Batch ID>
0048

> <Smiles>
CNC(C)C(=O)NC(C(=O)N1Cc2cc([101O:1][101CH2:1]C(C)(C)C[100N:0](C)[100C:0](=O)N3CCCC(n4nc(-c5ccc(Oc6ccc(F)cc6F)cc5)c(C(N)=O)c4N)C3)ccc2CC1C(=O)NC1CCCc2ccccc21)C(C)(C)C

> <Shape>
0.257

> <Color>
0.090

> <Negative vol penalty>
0.000

$$$$

  -OEChem-04052317263D

 83 91  0     1  0  0  0  0  0999 V2000
  -24.4574  -11.7020   20.0087 C   0  0  0  0  0  0  0  0  0  0  0  0
  -24.2455  -13.0082   19.5792 C   0  0  0  0  0  0  0  0  0  0  0  0
  -18.9524  -27.7579   23.8648 C   0  0  0  0  0  0  0  0  0  0  0  0
  -18.7942  -29.9011   22.7610 C   0  0  0  0  0  0  0  0  0  0  0  0
  -25.3706  -11.4449   21.0304 C   0  0  0  0  0  0  0  0  0  0  0  0
  -24.9458  -14.0581   20.1721 C   0  0  0  0  0  0  0  0  0  0  0  0
  -27.7790  -20.4540   18.6287 C   0  0  0  0  0  0  0  0  0  0  0  0
  -17.5837  -27.7938   24.1308 C   0  0  0  0  0  0  0  0  0  0  0  0
  -17.4254  -29.9370   23.0269 C   0  0  0  0  0  0  0  0  0  0  0  0
  -27.7676  -21.7738   19.0780 C   0  0  0  0  0  0  0  0  0  0  0  0
  -14.7043  -27.2221   22.4530 C   0  0  0  0  0  0  0  0  0  0  0  0
  -13.9670  -26.0622   22.2148 C   0  0  0  0  0  0  0  0  0  0  0  0
  -29.3784  -21.2020   20.7802 C   0  0  0  0  0  0  0  0  0  0  0  0
  -13.3263  -25.9914   24.5432 C   0  0  0  0  0  0  0  0  0  0  0  0
  -28.7011  -27.8324   20.3766 C   0  0  0  0  0  0  0  0  0  0  0  0
  -19.5577  -28.8116   23.1799 C   0  0  0  0  0  0  0  0  0  0  0  0
  -21.6034  -28.2367   21.7685 C   0  0  0  0  0  0  0  0  0  0  0  0
  -26.0896  -12.4912   21.6295 C   0  0  0  0  0  0  0  0  0  0  0  0
  -28.5833  -19.4943   19.2599 C   0  0  0  0  0  0  0  0  0  0  0  0
  -25.8685  -13.8149   21.2037 C   0  0  0  0  0  0  0  0  0  0  0  0
  -29.4001  -19.8713   20.3354 C   0  0  0  0  0  0  0  0  0  0  0  0
  -16.8201  -28.8833   23.7118 C   0  0  0  0  0  0  0  0  0  0  0  0
  -28.5651  -22.1474   20.1557 C   0  0  0  0  0  0  0  0  0  0  0  0
  -14.7526  -27.7666   23.7363 C   0  0  0  0  0  0  0  0  0  0  0  0
  -13.2780  -25.4469   23.2599 C   0  0  0  0  0  0  0  0  0  0  0  0
  -14.0636  -27.1513   24.7814 C   0  0  0  0  0  0  0  0  0  0  0  0
  -20.9717  -28.7754   22.9054 C   0  0  0  0  0  0  0  0  0  0  0  0
  -28.1336  -28.1409   21.5932 C   0  0  0  0  0  0  0  0  0  0  0  0
  -27.2884  -26.0208   21.7365 C   0  0  0  0  0  0  0  0  0  0  0  0
  -27.8553  -25.7126   20.5195 C   0  0  0  0  0  0  0  0  0  0  0  0
  -22.9427  -28.4490   21.9868 C   0  0  0  0  0  0  0  0  0  0  0  0
  -21.0308  -27.6013   20.6178 C   0  0  0  0  0  0  0  0  0  0  0  0
  -28.0305  -16.7884   20.8334 C   0  0  0  0  0  0  0  0  0  0  0  0
  -31.2665  -16.5659   20.8034 C   0  0  0  0  0  0  0  0  0  0  0  0
  -34.2781  -18.1566   20.5869 C   0  0  0  0  0  0  0  0  0  0  0  0
  -26.8870  -32.2164   23.5886 C   0  0  0  0  0  0  0  0  0  0  0  0
  -27.0313  -12.1692   22.7628 C   0  0  0  0  0  0  0  0  0  0  0  0
  -28.6045  -18.0807   18.7462 C   0  0  0  0  0  0  0  0  0  0  0  0
  -30.2968  -18.8835   21.0345 C   0  0  0  0  0  0  0  0  0  0  0  0
  -28.0083  -13.2977   23.0821 C   0  0  0  0  0  0  0  0  0  0  0  0
  -25.4260  -29.9458   26.1206 C   0  0  0  0  0  0  0  0  0  0  0  0
  -27.2762  -14.6341   23.1513 C   0  0  0  0  0  0  0  0  0  0  0  0
  -24.1525  -29.4558   25.4334 C   0  0  0  0  0  0  0  0  0  0  0  0
  -25.8321  -31.3351   25.6385 C   0  0  0  0  0  0  0  0  0  0  0  0
  -24.7002  -30.9525   23.4737 C   0  0  0  0  0  0  0  0  0  0  0  0
  -26.6273  -14.9780   21.8051 C   0  0  1  0  0  0  0  0  0  0  0  0
  -29.0741  -17.0725   19.7904 C   0  0  1  0  0  0  0  0  0  0  0  0
  -24.2895  -29.5360   23.9030 C   0  0  2  0  0  0  0  0  0  0  0  0
  -25.7075  -25.6461   23.6462 C   0  0  0  0  0  0  0  0  0  0  0  0
  -36.7477  -17.7135   20.6321 C   0  0  0  0  0  0  0  0  0  0  0  0
  -31.1455  -16.2143   23.8319 C   0  0  0  0  0  0  0  0  0  0  0  0
  -33.5942  -16.7285   23.9195 C   0  0  0  0  0  0  0  0  0  0  0  0
  -32.7863  -14.7242   22.6734 C   0  0  0  0  0  0  0  0  0  0  0  0
  -28.4192  -32.6241   21.7003 C   0  0  0  0  0  0  0  0  0  0  0  0
  -34.6351  -19.2119   17.8450 C   0  0  0  0  0  0  0  0  0  0  0  0
  -28.2960  -29.4994   22.1797 C   0  0  0  0  0  0  0  0  0  0  0  0
  -26.4986  -25.0153   22.5028 C   0  0  0  0  0  0  0  0  0  0  0  0
  -27.7043  -24.3505   19.9085 C   0  0  0  0  0  0  0  0  0  1  0  0
  -27.1932  -30.4845   21.7695 C   0  0  0  0  0  0  0  0  0  0  0  0
  -32.3784  -17.0276   21.7142 C   0  0  1  0  0  0  0  0  0  0  0  0
  -35.5142  -17.8644   19.7555 C   0  0  2  0  0  0  0  0  0  0  0  0
  -32.4579  -16.1920   23.0230 C   0  0  0  0  0  0  0  0  0  0  0  0
  -28.5721  -26.6127   19.8178 N   0  0  0  0  0  0  0  0  0  0  0  0
  -21.8385  -29.2910   23.7811 N   0  0  0  0  0  0  0  0  0  0  0  0
  -27.4170  -27.2406   22.2951 N   0  0  0  0  0  0  0  0  0  0  0  0
  -23.0285  -29.0772   23.1944 N   0  0  0  0  0  0  0  0  0  0  0  0
  -30.2776  -17.5121   20.4993 N   0  0  0  0  0  0  0  0  0  0  0  0
  -25.9127  -31.3946   24.1786 N   0  0  0  0  0  0  0  0  0  0  0  0
  -24.0436  -28.1577   21.2618 N   0  0  0  0  0  0  0  0  0  0  0  0
  -19.6373  -27.4648   20.5541 N   0  0  0  0  0  0  0  0  0  0  0  0
  -27.6217  -15.4690   20.8754 N   0  0  0  0  0  0  0  0  0  0  0  0
  -33.5982  -17.0026   20.9143 N   0  0  0  0  0  0  0  0  0  0  0  0
  -27.3987  -31.8112   22.3466 N   0  0  0  0  0  0  0  0  0  0  0  0
  -35.7591  -18.9689   18.7855 N   0  3  0  0  0  0  0  0  0  0  0  0
  -21.7350  -27.1527   19.6816 O   0  0  0  0  0  0  0  0  0  0  0  0
  -27.6271  -17.6984   21.5482 O   0  0  0  0  0  0  0  0  0  0  0  0
  -31.2789  -15.4104   20.3717 O   0  0  0  0  0  0  0  0  0  0  0  0
  -33.9506  -19.2945   20.9162 O   0  0  0  0  0  0  0  0  0  0  0  0
  -27.2843  -33.2482   24.1450 O   0  0  0  0  0  0  0  0  0  0  0  0
  -15.4844  -28.9186   23.9710 O   0  0  0  0  0  0  0  0  0  0  0  0
  -28.5554  -23.4347   20.5966 O   0  0  0  0  0  0  0  0  0  1  0  0
  -12.5687  -24.3340   23.0307 F   0  0  0  0  0  0  0  0  0  0  0  0
  -14.1053  -27.6704   26.0162 F   0  0  0  0  0  0  0  0  0  0  0  0
  1  2  1  0  0  0  0
  1  5  2  0  0  0  0
  2  6  2  0  0  0  0
  3  8  2  0  0  0  0
  3 16  1  0  0  0  0
  4  9  1  0  0  0  0
  4 16  2  0  0  0  0
  5 18  1  0  0  0  0
  6 20  1  0  0  0  0
  7 10  2  0  0  0  0
  7 19  1  0  0  0  0
  8 22  1  0  0  0  0
  9 22  2  0  0  0  0
 10 23  1  0  0  0  0
 11 12  2  0  0  0  0
 11 24  1  0  0  0  0
 12 25  1  0  0  0  0
 13 21  1  0  0  0  0
 13 23  2  0  0  0  0
 14 25  2  0  0  0  0
 14 26  1  0  0  0  0
 15 28  1  0  0  0  0
 15 63  2  0  0  0  0
 16 27  1  0  0  0  0
 17 27  1  0  0  0  0
 17 31  2  0  0  0  0
 17 32  1  0  0  0  0
 18 20  2  0  0  0  0
 18 37  1  0  0  0  0
 19 21  2  0  0  0  0
 19 38  1  0  0  0  0
 20 46  1  0  0  0  0
 21 39  1  0  0  0  0
 22 80  1  0  0  0  0
 23 81  1  0  0  0  0
 24 26  2  0  0  0  0
 24 80  1  0  0  0  0
 25 82  1  0  0  0  0
 26 83  1  0  0  0  0
 27 64  2  0  0  0  0
 28 56  1  0  0  0  0
 28 65  2  0  0  0  0
 29 30  2  0  0  0  0
 29 57  1  0  0  0  0
 29 65  1  0  0  0  0
 30 58  1  0  0  0  0
 30 63  1  0  0  0  0
 31 66  1  0  0  0  0
 31 69  1  0  0  0  0
 32 70  1  0  0  0  0
 32 75  2  0  0  0  0
 33 47  1  0  0  0  0
 33 71  1  0  0  0  0
 33 76  2  0  0  0  0
 34 60  1  0  0  0  0
 34 67  1  0  0  0  0
 34 77  2  0  0  0  0
 35 61  1  0  0  0  0
 35 72  1  0  0  0  0
 35 78  2  0  0  0  0
 36 68  1  0  0  0  0
 36 73  1  0  0  0  0
 36 79  2  0  0  0  0
 37 40  1  0  0  0  0
 38 47  1  0  0  0  0
 39 67  1  0  0  0  0
 40 42  1  0  0  0  0
 41 43  1  0  0  0  0
 41 44  1  0  0  0  0
 42 46  1  0  0  0  0
 43 48  1  0  0  0  0
 44 68  1  0  0  0  0
 45 48  1  0  0  0  0
 45 68  1  0  0  0  0
 46 71  1  0  0  0  0
 47 67  1  0  0  0  0
 48 66  1  0  0  0  0
 49 57  1  0  0  0  0
 50 61  1  0  0  0  0
 51 62  1  0  0  0  0
 52 62  1  0  0  0  0
 53 62  1  0  0  0  0
 54 73  1  0  0  0  0
 55 74  1  0  0  0  0
 56 59  1  0  0  0  0
 58 81  1  0  0  0  0
 59 73  1  0  0  0  0
 60 62  1  0  0  0  0
 60 72  1  0  0  0  0
 61 74  1  0  0  0  0
 64 66  1  0  0  0  0
M  CHG  1  74   1
M  ISO  4  36 100  58 101  73 100  81 101
M  END
> <Batch ID>
0048

> <Smiles>
CCc1nc(CC[100N:0](C)[100C:0](=O)N2CCCC(n3nc(-c4ccc(Oc5ccc(F)cc5F)cc4)c(C(N)=O)c3N)C2)cnc1[101CH2:1][101O:1]c1ccc2c(c1)CN(C(=O)C(NC(=O)C(C)NC)C(C)(C)C)C(C(=O)NC1CCCc3ccccc31)C2

> <Shape>
0.262

> <Color>
0.058

> <Negative vol penalty>
0.000

$$$$

  -OEChem-04052317263D

 83 91  0     1  0  0  0  0  0999 V2000
  -18.0610  -26.5089   20.0113 C   0  0  0  0  0  0  0  0  0  0  0  0
  -18.2793  -25.2028   19.5851 C   0  0  0  0  0  0  0  0  0  0  0  0
  -27.1675  -23.4732   20.7589 C   0  0  0  0  0  0  0  0  0  0  0  0
  -28.6601  -23.2947   18.8676 C   0  0  0  0  0  0  0  0  0  0  0  0
  -18.9942  -27.1375   20.8346 C   0  0  0  0  0  0  0  0  0  0  0  0
  -19.4317  -24.5248   19.9811 C   0  0  0  0  0  0  0  0  0  0  0  0
  -19.9546  -18.5417   21.1791 C   0  0  0  0  0  0  0  0  0  0  0  0
  -27.3695  -24.8530   20.7881 C   0  0  0  0  0  0  0  0  0  0  0  0
  -28.8622  -24.6745   18.8968 C   0  0  0  0  0  0  0  0  0  0  0  0
  -20.4168  -17.4694   20.4173 C   0  0  0  0  0  0  0  0  0  0  0  0
  -26.2743  -27.5673   19.0952 C   0  0  0  0  0  0  0  0  0  0  0  0
  -25.1535  -28.3835   19.2472 C   0  0  0  0  0  0  0  0  0  0  0  0
  -22.5874  -17.6803   21.4486 C   0  0  0  0  0  0  0  0  0  0  0  0
  -26.0872  -29.2863   21.2845 C   0  0  0  0  0  0  0  0  0  0  0  0
  -24.2807  -12.0475   20.7873 C   0  0  0  0  0  0  0  0  0  0  0  0
  -27.8128  -22.6940   19.7986 C   0  0  0  0  0  0  0  0  0  0  0  0
  -26.6149  -20.5689   19.0527 C   0  0  0  0  0  0  0  0  0  0  0  0
  -20.1539  -26.4636   21.2488 C   0  0  0  0  0  0  0  0  0  0  0  0
  -20.8098  -19.1994   22.0750 C   0  0  0  0  0  0  0  0  0  0  0  0
  -20.3820  -25.1454   20.8096 C   0  0  0  0  0  0  0  0  0  0  0  0
  -22.1328  -18.7589   22.2225 C   0  0  0  0  0  0  0  0  0  0  0  0
  -28.2169  -25.4537   19.8571 C   0  0  0  0  0  0  0  0  0  0  0  0
  -21.7342  -17.0404   20.5499 C   0  0  0  0  0  0  0  0  0  0  0  0
  -27.3016  -27.6105   20.0379 C   0  0  0  0  0  0  0  0  0  0  0  0
  -25.0599  -29.2430   20.3418 C   0  0  0  0  0  0  0  0  0  0  0  0
  -27.2080  -28.4700   21.1325 C   0  0  0  0  0  0  0  0  0  0  0  0
  -27.6049  -21.2685   19.7683 C   0  0  0  0  0  0  0  0  0  0  0  0
  -24.6195  -13.1286   20.0037 C   0  0  0  0  0  0  0  0  0  0  0  0
  -26.4935  -11.5147   21.0090 C   0  0  0  0  0  0  0  0  0  0  0  0
  -26.8324  -12.5954   20.2248 C   0  0  0  0  0  0  0  0  0  0  0  0
  -26.8413  -19.2484   19.3551 C   0  0  0  0  0  0  0  0  0  0  0  0
  -25.5828  -21.0680   18.1917 C   0  0  0  0  0  0  0  0  0  0  0  0
  -21.9331  -22.1611   22.3396 C   0  0  0  0  0  0  0  0  0  0  0  0
  -23.1567  -21.0316   25.1234 C   0  0  0  0  0  0  0  0  0  0  0  0
  -24.1945  -18.3440   26.9527 C   0  0  0  0  0  0  0  0  0  0  0  0
  -30.7609  -15.1583   19.8302 C   0  0  0  0  0  0  0  0  0  0  0  0
  -21.1569  -27.2007   22.1004 C   0  0  0  0  0  0  0  0  0  0  0  0
  -20.2883  -20.3373   22.9090 C   0  0  0  0  0  0  0  0  0  0  0  0
  -23.0854  -19.4181   23.1851 C   0  0  0  0  0  0  0  0  0  0  0  0
  -22.1698  -26.2832   22.7804 C   0  0  0  0  0  0  0  0  0  0  0  0
  -29.8172  -17.1114   22.8297 C   0  0  0  0  0  0  0  0  0  0  0  0
  -22.7226  -25.2678   21.7854 C   0  0  0  0  0  0  0  0  0  0  0  0
  -29.1404  -18.3413   22.2269 C   0  0  0  0  0  0  0  0  0  0  0  0
  -30.8603  -16.5189   21.8870 C   0  0  0  0  0  0  0  0  0  0  0  0
  -29.6590  -17.4319   19.9281 C   0  0  0  0  0  0  0  0  0  0  0  0
  -21.6078  -24.3683   21.2381 C   0  0  1  0  0  0  0  0  0  0  0  0
  -21.3913  -21.2620   23.4146 C   0  0  1  0  0  0  0  0  0  0  0  0
  -28.5694  -18.0257   20.8335 C   0  0  2  0  0  0  0  0  0  0  0  0
  -27.5330  -10.6082   21.5743 C   0  0  0  0  0  0  0  0  0  0  0  0
  -25.1800  -17.7392   29.1799 C   0  0  0  0  0  0  0  0  0  0  0  0
  -25.8821  -22.0344   24.1871 C   0  0  0  0  0  0  0  0  0  0  0  0
  -26.9371  -20.5970   25.9446 C   0  0  0  0  0  0  0  0  0  0  0  0
  -25.3948  -22.4428   26.6058 C   0  0  0  0  0  0  0  0  0  0  0  0
  -30.3592  -13.8871   17.7560 C   0  0  0  0  0  0  0  0  0  0  0  0
  -21.8532  -16.6807   27.6672 C   0  0  0  0  0  0  0  0  0  0  0  0
  -23.5493  -14.0332   19.4428 C   0  0  0  0  0  0  0  0  0  0  0  0
  -28.2542  -12.9083   19.9053 C   0  0  0  0  0  0  0  0  0  0  0  0
  -28.4519  -14.2893   19.2681 C   0  0  0  0  0  0  0  0  0  0  0  0
  -23.2185  -15.1901   20.3794 C   0  0  0  0  0  0  0  0  0  1  0  0
  -24.4464  -20.3607   25.5300 C   0  0  1  0  0  0  0  0  0  0  0  0
  -23.8991  -17.9231   28.3810 C   0  0  2  0  0  0  0  0  0  0  0  0
  -25.6480  -21.3473   25.5472 C   0  0  0  0  0  0  0  0  0  0  0  0
  -25.2117  -11.2212   21.3040 N   0  0  0  0  0  0  0  0  0  0  0  0
  -28.4010  -20.4595   20.4723 N   0  0  0  0  0  0  0  0  0  0  0  0
  -25.9014  -13.4219   19.7084 N   0  0  0  0  0  0  0  0  0  0  0  0
  -27.9114  -19.2378   20.2007 N   0  0  0  0  0  0  0  0  0  0  0  0
  -22.5300  -20.5305   23.9736 N   0  0  0  0  0  0  0  0  0  0  0  0
  -30.3024  -16.2690   20.5576 N   0  0  0  0  0  0  0  0  0  0  0  0
  -26.2275  -18.1068   18.9775 N   0  0  0  0  0  0  0  0  0  0  0  0
  -25.4920  -22.4520   17.9903 N   0  0  0  0  0  0  0  0  0  0  0  0
  -21.2521  -23.3564   22.2097 N   0  0  0  0  0  0  0  0  0  0  0  0
  -24.1845  -19.7157   26.8121 N   0  0  0  0  0  0  0  0  0  0  0  0
  -29.8533  -14.5524   18.9483 N   0  0  0  0  0  0  0  0  0  0  0  0
  -23.1466  -16.6369   28.3968 N   0  3  0  0  0  0  0  0  0  0  0  0
  -24.7552  -20.3104   17.6309 O   0  0  0  0  0  0  0  0  0  0  0  0
  -22.8985  -21.7979   21.6780 O   0  0  0  0  0  0  0  0  0  0  0  0
  -22.7176  -21.9613   25.8050 O   0  0  0  0  0  0  0  0  0  0  0  0
  -24.4160  -17.5369   26.0527 O   0  0  0  0  0  0  0  0  0  0  0  0
  -31.9126  -14.7268   19.9687 O   0  0  0  0  0  0  0  0  0  0  0  0
  -28.4141  -26.8001   19.8851 O   0  0  0  0  0  0  0  0  0  0  0  0
  -22.1881  -15.9945   19.8070 O   0  0  0  0  0  0  0  0  0  1  0  0
  -23.9843  -30.0279   20.4869 F   0  0  0  0  0  0  0  0  0  0  0  0
  -28.1923  -28.5168   22.0407 F   0  0  0  0  0  0  0  0  0  0  0  0
  1  2  1  0  0  0  0
  1  5  2  0  0  0  0
  2  6  2  0  0  0  0
  3  8  2  0  0  0  0
  3 16  1  0  0  0  0
  4  9  1  0  0  0  0
  4 16  2  0  0  0  0
  5 18  1  0  0  0  0
  6 20  1  0  0  0  0
  7 10  2  0  0  0  0
  7 19  1  0  0  0  0
  8 22  1  0  0  0  0
  9 22  2  0  0  0  0
 10 23  1  0  0  0  0
 11 12  2  0  0  0  0
 11 24  1  0  0  0  0
 12 25  1  0  0  0  0
 13 21  1  0  0  0  0
 13 23  2  0  0  0  0
 14 25  2  0  0  0  0
 14 26  1  0  0  0  0
 15 28  1  0  0  0  0
 15 63  2  0  0  0  0
 16 27  1  0  0  0  0
 17 27  1  0  0  0  0
 17 31  2  0  0  0  0
 17 32  1  0  0  0  0
 18 20  2  0  0  0  0
 18 37  1  0  0  0  0
 19 21  2  0  0  0  0
 19 38  1  0  0  0  0
 20 46  1  0  0  0  0
 21 39  1  0  0  0  0
 22 80  1  0  0  0  0
 23 81  1  0  0  0  0
 24 26  2  0  0  0  0
 24 80  1  0  0  0  0
 25 82  1  0  0  0  0
 26 83  1  0  0  0  0
 27 64  2  0  0  0  0
 28 56  1  0  0  0  0
 28 65  2  0  0  0  0
 29 30  2  0  0  0  0
 29 49  1  0  0  0  0
 29 63  1  0  0  0  0
 30 57  1  0  0  0  0
 30 65  1  0  0  0  0
 31 66  1  0  0  0  0
 31 69  1  0  0  0  0
 32 70  1  0  0  0  0
 32 75  2  0  0  0  0
 33 47  1  0  0  0  0
 33 71  1  0  0  0  0
 33 76  2  0  0  0  0
 34 60  1  0  0  0  0
 34 67  1  0  0  0  0
 34 77  2  0  0  0  0
 35 61  1  0  0  0  0
 35 72  1  0  0  0  0
 35 78  2  0  0  0  0
 36 68  1  0  0  0  0
 36 73  1  0  0  0  0
 36 79  2  0  0  0  0
 37 40  1  0  0  0  0
 38 47  1  0  0  0  0
 39 67  1  0  0  0  0
 40 42  1  0  0  0  0
 41 43  1  0  0  0  0
 41 44  1  0  0  0  0
 42 46  1  0  0  0  0
 43 48  1  0  0  0  0
 44 68  1  0  0  0  0
 45 48  1  0  0  0  0
 45 68  1  0  0  0  0
 46 71  1  0  0  0  0
 47 67  1  0  0  0  0
 48 66  1  0  0  0  0
 50 61  1  0  0  0  0
 51 62  1  0  0  0  0
 52 62  1  0  0  0  0
 53 62  1  0  0  0  0
 54 73  1  0  0  0  0
 55 74  1  0  0  0  0
 56 59  1  0  0  0  0
 57 58  1  0  0  0  0
 58 73  1  0  0  0  0
 59 81  1  0  0  0  0
 60 62  1  0  0  0  0
 60 72  1  0  0  0  0
 61 74  1  0  0  0  0
 64 66  1  0  0  0  0
M  CHG  1  74   1
M  ISO  4  36 100  59 101  73 100  81 101
M  END
> <Batch ID>
0048

> <Smiles>
CNC(C)C(=O)NC(C(=O)N1Cc2cc([101O:1][101CH2:1]Cc3cnc(C)c(CC[100N:0](C)[100C:0](=O)N4CCCC(n5nc(-c6ccc(Oc7ccc(F)cc7F)cc6)c(C(N)=O)c5N)C4)n3)ccc2CC1C(=O)NC1CCCc2ccccc21)C(C)(C)C

> <Shape>
0.204

> <Color>
0.087

> <Negative vol penalty>
0.000

$$$$

  -OEChem-04052317263D

 84 92  0     1  0  0  0  0  0999 V2000
  -18.6749  -25.6866   24.0726 C   0  0  0  0  0  0  0  0  0  0  0  0
  -18.7737  -24.3035   24.1732 C   0  0  0  0  0  0  0  0  0  0  0  0
  -27.4983  -23.5082   21.1405 C   0  0  0  0  0  0  0  0  0  0  0  0
  -28.3964  -23.1084   18.9336 C   0  0  0  0  0  0  0  0  0  0  0  0
  -19.8300  -26.4656   24.0693 C   0  0  0  0  0  0  0  0  0  0  0  0
  -20.0269  -23.6998   24.2826 C   0  0  0  0  0  0  0  0  0  0  0  0
  -21.5871  -17.8118   24.4395 C   0  0  0  0  0  0  0  0  0  0  0  0
  -27.6475  -24.8822   20.9524 C   0  0  0  0  0  0  0  0  0  0  0  0
  -28.5456  -24.4824   18.7454 C   0  0  0  0  0  0  0  0  0  0  0  0
  -21.9558  -16.8203   23.5313 C   0  0  0  0  0  0  0  0  0  0  0  0
  -26.0130  -27.3685   19.3464 C   0  0  0  0  0  0  0  0  0  0  0  0
  -24.9515  -28.1929   19.7194 C   0  0  0  0  0  0  0  0  0  0  0  0
  -24.2802  -17.2626   24.0013 C   0  0  0  0  0  0  0  0  0  0  0  0
  -26.3915  -29.3381   21.2854 C   0  0  0  0  0  0  0  0  0  0  0  0
  -25.7420  -11.3849   20.7425 C   0  0  0  0  0  0  0  0  0  0  0  0
  -27.8728  -22.6212   20.1311 C   0  0  0  0  0  0  0  0  0  0  0  0
  -26.5940  -20.4173   20.0090 C   0  0  0  0  0  0  0  0  0  0  0  0
  -21.0982  -25.8695   24.1662 C   0  0  0  0  0  0  0  0  0  0  0  0
  -22.5640  -18.5448   25.1285 C   0  0  0  0  0  0  0  0  0  0  0  0
  -21.2033  -24.4705   24.3052 C   0  0  0  0  0  0  0  0  0  0  0  0
  -23.9212  -18.2611   24.9196 C   0  0  0  0  0  0  0  0  0  0  0  0
  -28.1711  -25.3693   19.7548 C   0  0  0  0  0  0  0  0  0  0  0  0
  -23.3025  -16.5476   23.3099 C   0  0  0  0  0  0  0  0  0  0  0  0
  -27.2637  -27.5288   19.9428 C   0  0  0  0  0  0  0  0  0  0  0  0
  -25.1408  -29.1778   20.6889 C   0  0  0  0  0  0  0  0  0  0  0  0
  -27.4529  -28.5136   20.9123 C   0  0  0  0  0  0  0  0  0  0  0  0
  -27.7194  -21.2017   20.3251 C   0  0  0  0  0  0  0  0  0  0  0  0
  -24.5719  -11.4137   20.0117 C   0  0  0  0  0  0  0  0  0  0  0  0
  -26.1613  -12.5993   21.2463 C   0  0  0  0  0  0  0  0  0  0  0  0
  -26.9474  -19.1437   20.3826 C   0  0  0  0  0  0  0  0  0  0  0  0
  -24.3703  -13.6557   20.3279 C   0  0  0  0  0  0  0  0  0  0  0  0
  -25.3412  -20.8051   19.4295 C   0  0  0  0  0  0  0  0  0  0  0  0
  -23.3884  -21.6118   25.2621 C   0  0  0  0  0  0  0  0  0  0  0  0
  -25.3910  -20.5697   27.5914 C   0  0  0  0  0  0  0  0  0  0  0  0
  -27.1435  -17.9815   28.9615 C   0  0  0  0  0  0  0  0  0  0  0  0
  -30.9930  -15.1553   20.1768 C   0  0  0  0  0  0  0  0  0  0  0  0
  -22.3151  -26.7608   24.1656 C   0  0  0  0  0  0  0  0  0  0  0  0
  -22.1494  -19.5927   26.1248 C   0  0  0  0  0  0  0  0  0  0  0  0
  -25.0084  -19.0056   25.6491 C   0  0  0  0  0  0  0  0  0  0  0  0
  -23.6019  -26.0098   23.8392 C   0  0  0  0  0  0  0  0  0  0  0  0
  -30.8685  -17.4522   23.0768 C   0  0  0  0  0  0  0  0  0  0  0  0
  -23.7062  -24.7591   24.6990 C   0  0  0  0  0  0  0  0  0  0  0  0
  -30.0017  -18.5980   22.5572 C   0  0  0  0  0  0  0  0  0  0  0  0
  -31.6219  -16.7543   21.9485 C   0  0  0  0  0  0  0  0  0  0  0  0
  -29.8787  -17.4200   20.3261 C   0  0  0  0  0  0  0  0  0  0  0  0
  -22.5571  -23.7896   24.3945 C   0  0  1  0  0  0  0  0  0  0  0  0
  -23.2370  -20.6295   26.3889 C   0  0  1  0  0  0  0  0  0  0  0  0
  -29.0701  -18.1145   21.4322 C   0  0  2  0  0  0  0  0  0  0  0  0
  -24.0388  -10.1487   19.4271 C   0  0  0  0  0  0  0  0  0  0  0  0
  -28.7195  -17.4451   30.8392 C   0  0  0  0  0  0  0  0  0  0  0  0
  -27.6655  -21.9107   26.0623 C   0  0  0  0  0  0  0  0  0  0  0  0
  -29.2803  -20.5672   27.4246 C   0  0  0  0  0  0  0  0  0  0  0  0
  -27.7637  -22.2008   28.5444 C   0  0  0  0  0  0  0  0  0  0  0  0
  -30.0662  -13.6418   18.4651 C   0  0  0  0  0  0  0  0  0  0  0  0
  -25.2541  -16.0356   30.1458 C   0  0  0  0  0  0  0  0  0  0  0  0
  -27.4156  -12.6673   22.0515 C   0  0  0  0  0  0  0  0  0  0  0  0
  -23.5978  -14.9319   20.0983 C   0  0  0  0  0  0  0  0  0  0  0  0
  -28.6901  -12.9286   21.2252 C   0  0  0  0  0  0  0  0  0  0  0  0
  -28.6544  -14.2163   20.4048 C   0  0  0  0  0  0  0  0  0  0  0  0
  -22.7885  -15.3479   21.3218 C   0  0  0  0  0  0  0  0  0  1  0  0
  -26.8068  -20.0470   27.6292 C   0  0  1  0  0  0  0  0  0  0  0  0
  -27.2662  -17.4947   30.3941 C   0  0  2  0  0  0  0  0  0  0  0  0
  -27.8589  -21.1685   27.3998 C   0  0  0  0  0  0  0  0  0  0  0  0
  -28.7132  -20.4864   20.8586 N   0  0  0  0  0  0  0  0  0  0  0  0
  -23.8578  -12.5355   19.7839 N   0  0  0  0  0  0  0  0  0  0  0  0
  -25.4976  -13.7586   21.0574 N   0  0  0  0  0  0  0  0  0  0  0  0
  -28.2135  -19.2391   20.8807 N   0  0  0  0  0  0  0  0  0  0  0  0
  -24.5526  -20.0252   26.6083 N   0  0  0  0  0  0  0  0  0  0  0  0
  -30.7185  -16.3438   20.8731 N   0  0  0  0  0  0  0  0  0  0  0  0
  -26.2954  -17.9627   20.3305 N   0  0  0  0  0  0  0  0  0  0  0  0
  -25.1441  -22.1544   19.1056 N   0  0  0  0  0  0  0  0  0  0  0  0
  -22.5707  -22.7206   25.3686 N   0  0  0  0  0  0  0  0  0  0  0  0
  -26.9490  -19.3452   28.9003 N   0  0  0  0  0  0  0  0  0  0  0  0
  -29.8957  -14.4440   19.6681 N   0  0  0  0  0  0  0  0  0  0  0  0
  -26.6867  -16.1283   30.5282 N   0  3  0  0  0  0  0  0  0  0  0  0
  -24.4177  -19.9823   19.2206 O   0  0  0  0  0  0  0  0  0  0  0  0
  -24.1890  -21.3815   24.3633 O   0  0  0  0  0  0  0  0  0  0  0  0
  -25.0398  -21.4242   28.4088 O   0  0  0  0  0  0  0  0  0  0  0  0
  -27.2170  -17.2280   27.9933 O   0  0  0  0  0  0  0  0  0  0  0  0
  -32.1521  -14.7478   20.0270 O   0  0  0  0  0  0  0  0  0  0  0  0
  -28.3167  -26.7100   19.5708 O   0  0  0  0  0  0  0  0  0  0  0  0
  -23.6651  -15.5808   22.4235 O   0  0  0  0  0  0  0  0  0  1  0  0
  -24.1218  -29.9704   21.0460 F   0  0  0  0  0  0  0  0  0  0  0  0
  -28.6525  -28.6732   21.4880 F   0  0  0  0  0  0  0  0  0  0  0  0
  1  2  1  0  0  0  0
  1  5  2  0  0  0  0
  2  6  2  0  0  0  0
  3  8  2  0  0  0  0
  3 16  1  0  0  0  0
  4  9  1  0  0  0  0
  4 16  2  0  0  0  0
  5 18  1  0  0  0  0
  6 20  1  0  0  0  0
  7 10  2  0  0  0  0
  7 19  1  0  0  0  0
  8 22  1  0  0  0  0
  9 22  2  0  0  0  0
 10 23  1  0  0  0  0
 11 12  2  0  0  0  0
 11 24  1  0  0  0  0
 12 25  1  0  0  0  0
 13 21  1  0  0  0  0
 13 23  2  0  0  0  0
 14 25  2  0  0  0  0
 14 26  1  0  0  0  0
 15 28  1  0  0  0  0
 15 29  2  0  0  0  0
 16 27  1  0  0  0  0
 17 27  1  0  0  0  0
 17 30  2  0  0  0  0
 17 32  1  0  0  0  0
 18 20  2  0  0  0  0
 18 37  1  0  0  0  0
 19 21  2  0  0  0  0
 19 38  1  0  0  0  0
 20 46  1  0  0  0  0
 21 39  1  0  0  0  0
 22 81  1  0  0  0  0
 23 82  1  0  0  0  0
 24 26  2  0  0  0  0
 24 81  1  0  0  0  0
 25 83  1  0  0  0  0
 26 84  1  0  0  0  0
 27 64  2  0  0  0  0
 28 49  1  0  0  0  0
 28 65  2  0  0  0  0
 29 56  1  0  0  0  0
 29 66  1  0  0  0  0
 30 67  1  0  0  0  0
 30 70  1  0  0  0  0
 31 57  1  0  0  0  0
 31 65  1  0  0  0  0
 31 66  2  0  0  0  0
 32 71  1  0  0  0  0
 32 76  2  0  0  0  0
 33 47  1  0  0  0  0
 33 72  1  0  0  0  0
 33 77  2  0  0  0  0
 34 61  1  0  0  0  0
 34 68  1  0  0  0  0
 34 78  2  0  0  0  0
 35 62  1  0  0  0  0
 35 73  1  0  0  0  0
 35 79  2  0  0  0  0
 36 69  1  0  0  0  0
 36 74  1  0  0  0  0
 36 80  2  0  0  0  0
 37 40  1  0  0  0  0
 38 47  1  0  0  0  0
 39 68  1  0  0  0  0
 40 42  1  0  0  0  0
 41 43  1  0  0  0  0
 41 44  1  0  0  0  0
 42 46  1  0  0  0  0
 43 48  1  0  0  0  0
 44 69  1  0  0  0  0
 45 48  1  0  0  0  0
 45 69  1  0  0  0  0
 46 72  1  0  0  0  0
 47 68  1  0  0  0  0
 48 67  1  0  0  0  0
 50 62  1  0  0  0  0
 51 63  1  0  0  0  0
 52 63  1  0  0  0  0
 53 63  1  0  0  0  0
 54 74  1  0  0  0  0
 55 75  1  0  0  0  0
 56 58  1  0  0  0  0
 57 60  1  0  0  0  0
 58 59  1  0  0  0  0
 59 74  1  0  0  0  0
 60 82  1  0  0  0  0
 61 63  1  0  0  0  0
 61 73  1  0  0  0  0
 62 75  1  0  0  0  0
 64 67  1  0  0  0  0
M  CHG  1  75   1
M  ISO  4  36 100  60 101  74 100  82 101
M  END
> <Batch ID>
0048

> <Smiles>
CNC(C)C(=O)NC(C(=O)N1Cc2cc([101O:1][101CH2:1]Cc3nc(C)cc(CCC[100N:0](C)[100C:0](=O)N4CCCC(n5nc(-c6ccc(Oc7ccc(F)cc7F)cc6)c(C(N)=O)c5N)C4)n3)ccc2CC1C(=O)NC1CCCc2ccccc21)C(C)(C)C

> <Shape>
0.189

> <Color>
0.077

> <Negative vol penalty>
0.000

$$$$

  -OEChem-04052317263D

 83 91  0     1  0  0  0  0  0999 V2000
  -32.8142  -26.4878   16.7603 C   0  0  0  0  0  0  0  0  0  0  0  0
  -32.2134  -25.2934   17.1448 C   0  0  0  0  0  0  0  0  0  0  0  0
  -23.1560   -9.8617   19.9642 C   0  0  0  0  0  0  0  0  0  0  0  0
  -23.8256   -9.9663   22.2832 C   0  0  0  0  0  0  0  0  0  0  0  0
  -33.0952  -27.4643   17.7150 C   0  0  0  0  0  0  0  0  0  0  0  0
  -31.8942  -25.0743   18.4844 C   0  0  0  0  0  0  0  0  0  0  0  0
  -27.0733  -21.9897   20.6636 C   0  0  0  0  0  0  0  0  0  0  0  0
  -22.4441   -8.6903   20.2226 C   0  0  0  0  0  0  0  0  0  0  0  0
  -23.1137   -8.7949   22.5416 C   0  0  0  0  0  0  0  0  0  0  0  0
  -26.9282  -20.6841   21.1306 C   0  0  0  0  0  0  0  0  0  0  0  0
  -23.5429   -5.4703   22.1018 C   0  0  0  0  0  0  0  0  0  0  0  0
  -24.1659   -4.4905   22.8747 C   0  0  0  0  0  0  0  0  0  0  0  0
  -27.2196  -21.4676   23.3935 C   0  0  0  0  0  0  0  0  0  0  0  0
  -22.3945   -4.6539   24.5096 C   0  0  0  0  0  0  0  0  0  0  0  0
  -32.1225  -17.5777   22.0301 C   0  0  0  0  0  0  0  0  0  0  0  0
  -23.8468  -10.4996   20.9945 C   0  0  0  0  0  0  0  0  0  0  0  0
  -24.1038  -13.0307   20.8070 C   0  0  0  0  0  0  0  0  0  0  0  0
  -32.7705  -27.2611   19.0655 C   0  0  0  0  0  0  0  0  0  0  0  0
  -27.3038  -23.0443   21.5586 C   0  0  0  0  0  0  0  0  0  0  0  0
  -32.1724  -26.0485   19.4582 C   0  0  0  0  0  0  0  0  0  0  0  0
  -27.3647  -22.7860   22.9354 C   0  0  0  0  0  0  0  0  0  0  0  0
  -22.4229   -8.1570   21.5113 C   0  0  0  0  0  0  0  0  0  0  0  0
  -27.0043  -20.4224   22.4955 C   0  0  0  0  0  0  0  0  0  0  0  0
  -22.3458   -6.0420   22.5327 C   0  0  0  0  0  0  0  0  0  0  0  0
  -23.5917   -4.0823   24.0786 C   0  0  0  0  0  0  0  0  0  0  0  0
  -21.7716   -5.6338   23.7366 C   0  0  0  0  0  0  0  0  0  0  0  0
  -24.5828  -11.7093   20.7281 C   0  0  0  0  0  0  0  0  0  0  0  0
  -31.4833  -18.8315   21.9953 C   0  0  0  0  0  0  0  0  0  0  0  0
  -31.2517  -16.7674   22.7169 C   0  0  0  0  0  0  0  0  0  0  0  0
  -25.1821  -13.8081   20.4614 C   0  0  0  0  0  0  0  0  0  0  0  0
  -22.8006  -13.5124   21.1612 C   0  0  0  0  0  0  0  0  0  0  0  0
  -29.6586  -25.1320   22.0065 C   0  0  0  0  0  0  0  0  0  0  0  0
  -27.6002  -26.3982   24.1703 C   0  0  0  0  0  0  0  0  0  0  0  0
  -24.9376  -25.9321   26.2535 C   0  0  0  0  0  0  0  0  0  0  0  0
  -30.9386  -13.9816   21.0505 C   0  0  0  0  0  0  0  0  0  0  0  0
  -33.1367  -28.3264   20.0684 C   0  0  0  0  0  0  0  0  0  0  0  0
  -27.4315  -24.4508   21.0410 C   0  0  0  0  0  0  0  0  0  0  0  0
  -27.5903  -23.8859   23.9394 C   0  0  0  0  0  0  0  0  0  0  0  0
  -32.4256  -28.1700   21.4101 C   0  0  0  0  0  0  0  0  0  0  0  0
  -29.3916  -13.0260   17.9895 C   0  0  0  0  0  0  0  0  0  0  0  0
  -32.4939  -26.7220   21.8849 C   0  0  0  0  0  0  0  0  0  0  0  0
  -27.9494  -12.7119   18.3909 C   0  0  0  0  0  0  0  0  0  0  0  0
  -30.3835  -12.6011   19.0700 C   0  0  0  0  0  0  0  0  0  0  0  0
  -28.6588  -12.8223   20.8165 C   0  0  0  0  0  0  0  0  0  0  0  0
  -31.7886  -25.7839   20.8979 C   0  0  1  0  0  0  0  0  0  0  0  0
  -28.1758  -25.3750   21.9997 C   0  0  1  0  0  0  0  0  0  0  0  0
  -27.6175  -13.2836   19.7825 C   0  0  2  0  0  0  0  0  0  0  0  0
  -31.5517  -20.2290   19.9146 C   0  0  0  0  0  0  0  0  0  0  0  0
  -23.5069  -27.1421   27.9227 C   0  0  0  0  0  0  0  0  0  0  0  0
  -26.5665  -16.3578   23.7618 C   0  0  0  0  0  0  0  0  0  0  0  0
  -29.8410  -26.1990   26.2316 C   0  0  0  0  0  0  0  0  0  0  0  0
  -28.1224  -26.5035   28.0265 C   0  0  0  0  0  0  0  0  0  0  0  0
  -28.5021  -28.3082   26.3467 C   0  0  0  0  0  0  0  0  0  0  0  0
  -22.4929  -25.5064   24.6405 C   0  0  0  0  0  0  0  0  0  0  0  0
  -31.9784  -20.0743   21.3797 C   0  0  0  0  0  0  0  0  0  0  0  0
  -31.3412  -15.3429   23.0863 C   0  0  0  0  0  0  0  0  0  0  0  0
  -28.9490  -17.1399   23.7986 C   0  0  0  0  0  0  0  0  0  0  0  0
  -27.2884  -18.0965   22.0889 C   0  0  0  0  0  0  0  0  0  1  0  0
  -27.3280  -26.1837   25.6396 C   0  0  1  0  0  0  0  0  0  0  0  0
  -23.6704  -26.7408   26.4650 C   0  0  2  0  0  0  0  0  0  0  0  0
  -27.7262  -16.8655   22.8969 C   0  0  2  0  0  0  0  0  0  0  0  0
  -28.4461  -26.7774   26.5423 C   0  0  0  0  0  0  0  0  0  0  0  0
  -25.8656  -11.6469   20.3610 N   0  0  0  0  0  0  0  0  0  0  0  0
  -30.2980  -18.8233   22.6108 N   0  0  0  0  0  0  0  0  0  0  0  0
  -30.1854  -17.5544   23.0388 N   0  0  0  0  0  0  0  0  0  0  0  0
  -26.2017  -12.9389   20.2061 N   0  0  0  0  0  0  0  0  0  0  0  0
  -27.7153  -25.2434   23.3835 N   0  0  0  0  0  0  0  0  0  0  0  0
  -30.0130  -13.1781   20.3645 N   0  0  0  0  0  0  0  0  0  0  0  0
  -25.3481  -15.1435   20.3540 N   0  0  0  0  0  0  0  0  0  0  0  0
  -21.8091  -12.5777   21.4889 N   0  0  0  0  0  0  0  0  0  0  0  0
  -30.3530  -25.8641   21.0624 N   0  0  0  0  0  0  0  0  0  0  0  0
  -26.0005  -26.7331   25.8932 N   0  0  0  0  0  0  0  0  0  0  0  0
  -30.5049  -14.4940   22.2672 N   0  0  0  0  0  0  0  0  0  0  0  0
  -22.4759  -25.9476   26.0590 N   0  3  0  0  0  0  0  0  0  0  0  0
  -22.5191  -14.7348   21.1703 O   0  0  0  0  0  0  0  0  0  0  0  0
  -30.1374  -24.3400   22.8097 O   0  0  0  0  0  0  0  0  0  0  0  0
  -27.6998  -27.5483   23.7353 O   0  0  0  0  0  0  0  0  0  0  0  0
  -24.9810  -24.7123   26.3973 O   0  0  0  0  0  0  0  0  0  0  0  0
  -32.0659  -14.2288   20.6088 O   0  0  0  0  0  0  0  0  0  0  0  0
  -21.7282   -7.0141   21.7639 O   0  0  0  0  0  0  0  0  0  0  0  0
  -26.8637  -19.1489   22.9540 O   0  0  0  0  0  0  0  0  0  1  0  0
  -24.1892   -3.1402   24.8200 F   0  0  0  0  0  0  0  0  0  0  0  0
  -20.6210   -6.1786   24.1552 F   0  0  0  0  0  0  0  0  0  0  0  0
  1  2  1  0  0  0  0
  1  5  2  0  0  0  0
  2  6  2  0  0  0  0
  3  8  2  0  0  0  0
  3 16  1  0  0  0  0
  4  9  1  0  0  0  0
  4 16  2  0  0  0  0
  5 18  1  0  0  0  0
  6 20  1  0  0  0  0
  7 10  2  0  0  0  0
  7 19  1  0  0  0  0
  8 22  1  0  0  0  0
  9 22  2  0  0  0  0
 10 23  1  0  0  0  0
 11 12  2  0  0  0  0
 11 24  1  0  0  0  0
 12 25  1  0  0  0  0
 13 21  1  0  0  0  0
 13 23  2  0  0  0  0
 14 25  2  0  0  0  0
 14 26  1  0  0  0  0
 15 28  1  0  0  0  0
 15 29  2  0  0  0  0
 16 27  1  0  0  0  0
 17 27  1  0  0  0  0
 17 30  2  0  0  0  0
 17 31  1  0  0  0  0
 18 20  2  0  0  0  0
 18 36  1  0  0  0  0
 19 21  2  0  0  0  0
 19 37  1  0  0  0  0
 20 45  1  0  0  0  0
 21 38  1  0  0  0  0
 22 80  1  0  0  0  0
 23 81  1  0  0  0  0
 24 26  2  0  0  0  0
 24 80  1  0  0  0  0
 25 82  1  0  0  0  0
 26 83  1  0  0  0  0
 27 63  2  0  0  0  0
 28 55  1  0  0  0  0
 28 64  2  0  0  0  0
 29 56  1  0  0  0  0
 29 65  1  0  0  0  0
 30 66  1  0  0  0  0
 30 69  1  0  0  0  0
 31 70  1  0  0  0  0
 31 75  2  0  0  0  0
 32 46  1  0  0  0  0
 32 71  1  0  0  0  0
 32 76  2  0  0  0  0
 33 59  1  0  0  0  0
 33 67  1  0  0  0  0
 33 77  2  0  0  0  0
 34 60  1  0  0  0  0
 34 72  1  0  0  0  0
 34 78  2  0  0  0  0
 35 68  1  0  0  0  0
 35 73  1  0  0  0  0
 35 79  2  0  0  0  0
 36 39  1  0  0  0  0
 37 46  1  0  0  0  0
 38 67  1  0  0  0  0
 39 41  1  0  0  0  0
 40 42  1  0  0  0  0
 40 43  1  0  0  0  0
 41 45  1  0  0  0  0
 42 47  1  0  0  0  0
 43 68  1  0  0  0  0
 44 47  1  0  0  0  0
 44 68  1  0  0  0  0
 45 71  1  0  0  0  0
 46 67  1  0  0  0  0
 47 66  1  0  0  0  0
 48 55  1  0  0  0  0
 49 60  1  0  0  0  0
 50 61  1  0  0  0  0
 51 62  1  0  0  0  0
 52 62  1  0  0  0  0
 53 62  1  0  0  0  0
 54 74  1  0  0  0  0
 56 73  1  0  0  0  0
 57 61  1  0  0  0  0
 57 65  1  0  0  0  0
 58 61  1  0  0  0  0
 58 81  1  0  0  0  0
 59 62  1  0  0  0  0
 59 72  1  0  0  0  0
 60 74  1  0  0  0  0
 63 66  1  0  0  0  0
 64 65  1  0  0  0  0
M  CHG  1  74   1
M  ISO  4  35 100  58 101  73 100  81 101
M  END
> <Batch ID>
0048

> <Smiles>
CCc1cc(C[100NH:0][100C:0](=O)N2CCCC(n3nc(-c4ccc(Oc5ccc(F)cc5F)cc4)c(C(N)=O)c3N)C2)n(CC(C)[101CH2:1][101O:1]c2ccc3c(c2)CN(C(=O)C(NC(=O)C(C)NC)C(C)(C)C)C(C(=O)NC2CCCc4ccccc42)C3)n1

> <Shape>
0.211

> <Color>
0.183

> <Negative vol penalty>
0.000

$$$$

  -OEChem-04052317263D

 88 96  0     1  0  0  0  0  0999 V2000
  -23.0024  -32.8837   28.5279 C   0  0  0  0  0  0  0  0  0  0  0  0
  -24.0748  -32.7812   27.6476 C   0  0  0  0  0  0  0  0  0  0  0  0
  -25.3744  -12.9470   22.1269 C   0  0  0  0  0  0  0  0  0  0  0  0
  -24.8593  -14.0210   20.0249 C   0  0  0  0  0  0  0  0  0  0  0  0
  -22.0296  -31.8854   28.5591 C   0  0  0  0  0  0  0  0  0  0  0  0
  -24.1755  -31.6796   26.7986 C   0  0  0  0  0  0  0  0  0  0  0  0
  -26.4890  -29.8568   20.2686 C   0  0  0  0  0  0  0  0  0  0  0  0
  -25.1835  -11.6982   21.5357 C   0  0  0  0  0  0  0  0  0  0  0  0
  -24.6684  -12.7721   19.4336 C   0  0  0  0  0  0  0  0  0  0  0  0
  -27.3130  -28.9249   19.6391 C   0  0  0  0  0  0  0  0  0  0  0  0
  -22.5793   -9.7314   20.6557 C   0  0  0  0  0  0  0  0  0  0  0  0
  -21.8310   -8.7889   21.3609 C   0  0  0  0  0  0  0  0  0  0  0  0
  -25.5314  -27.3008   19.7247 C   0  0  0  0  0  0  0  0  0  0  0  0
  -23.7290   -7.2941   21.3772 C   0  0  0  0  0  0  0  0  0  0  0  0
  -31.2132  -21.6690   18.8408 C   0  0  0  0  0  0  0  0  0  0  0  0
  -25.2122  -14.1084   21.3715 C   0  0  0  0  0  0  0  0  0  0  0  0
  -26.6103  -16.1282   22.0598 C   0  0  0  0  0  0  0  0  0  0  0  0
  -22.1134  -30.7758   27.7033 C   0  0  0  0  0  0  0  0  0  0  0  0
  -25.1815  -29.5138   20.6413 C   0  0  0  0  0  0  0  0  0  0  0  0
  -23.2036  -30.6648   26.8193 C   0  0  0  0  0  0  0  0  0  0  0  0
  -24.6920  -28.2310   20.3565 C   0  0  0  0  0  0  0  0  0  0  0  0
  -24.8305  -11.6107   20.1891 C   0  0  0  0  0  0  0  0  0  0  0  0
  -26.8353  -27.6457   19.3697 C   0  0  0  0  0  0  0  0  0  0  0  0
  -23.9025   -9.4552   20.3112 C   0  0  0  0  0  0  0  0  0  0  0  0
  -22.4058   -7.5703   21.7217 C   0  0  0  0  0  0  0  0  0  0  0  0
  -24.4774   -8.2366   20.6720 C   0  0  0  0  0  0  0  0  0  0  0  0
  -25.4087  -15.3988   21.9819 C   0  0  0  0  0  0  0  0  0  0  0  0
  -30.6144  -20.5914   19.4553 C   0  0  0  0  0  0  0  0  0  0  0  0
  -29.6302  -23.0575   19.7329 C   0  0  0  0  0  0  0  0  0  0  0  0
  -29.0309  -21.9798   20.3469 C   0  0  0  0  0  0  0  0  0  0  0  0
  -26.2709  -17.2782   22.7296 C   0  0  0  0  0  0  0  0  0  0  0  0
  -27.9164  -15.7958   21.5705 C   0  0  0  0  0  0  0  0  0  0  0  0
  -23.6102  -29.3291   23.3983 C   0  0  0  0  0  0  0  0  0  0  0  0
  -22.7542  -21.5636   23.4765 C   0  0  0  0  0  0  0  0  0  0  0  0
  -21.0694  -28.7580   21.4643 C   0  0  0  0  0  0  0  0  0  0  0  0
  -19.9148  -27.6655   18.4443 C   0  0  0  0  0  0  0  0  0  0  0  0
  -21.0629  -29.6986   27.8064 C   0  0  0  0  0  0  0  0  0  0  0  0
  -24.2963  -30.5389   21.2955 C   0  0  0  0  0  0  0  0  0  0  0  0
  -23.2891  -27.8192   20.7181 C   0  0  0  0  0  0  0  0  0  0  0  0
  -21.0443  -28.7495   26.6110 C   0  0  0  0  0  0  0  0  0  0  0  0
  -22.0662  -18.5195   25.2371 C   0  0  0  0  0  0  0  0  0  0  0  0
  -22.4603  -28.3019   26.2626 C   0  0  0  0  0  0  0  0  0  0  0  0
  -22.9504  -17.4904   24.5340 C   0  0  0  0  0  0  0  0  0  0  0  0
  -21.5332  -19.5602   24.2573 C   0  0  0  0  0  0  0  0  0  0  0  0
  -23.4828  -19.2310   22.7699 C   0  0  0  0  0  0  0  0  0  0  0  0
  -23.3347  -29.4973   25.8654 C   0  0  1  0  0  0  0  0  0  0  0  0
  -23.1536  -29.9194   22.0941 C   0  0  1  0  0  0  0  0  0  0  0  0
  -24.0669  -18.1789   23.7291 C   0  0  2  0  0  0  0  0  0  0  0  0
  -31.1745  -19.2218   19.2926 C   0  0  0  0  0  0  0  0  0  0  0  0
  -23.4785  -22.3123   21.2230 C   0  0  0  0  0  0  0  0  0  0  0  0
  -17.7869  -27.2798   17.1713 C   0  0  0  0  0  0  0  0  0  0  0  0
  -20.5521  -26.2337   23.0983 C   0  0  0  0  0  0  0  0  0  0  0  0
  -19.0664  -25.4268   21.2518 C   0  0  0  0  0  0  0  0  0  0  0  0
  -18.4963  -27.5189   22.4850 C   0  0  0  0  0  0  0  0  0  0  0  0
  -20.6862  -29.5996   16.3412 C   0  0  0  0  0  0  0  0  0  0  0  0
  -26.1920  -25.1488   23.1005 C   0  0  0  0  0  0  0  0  0  0  0  0
  -29.0814  -24.4537   19.8838 C   0  0  0  0  0  0  0  0  0  0  0  0
  -27.8120  -22.1441   21.1889 C   0  0  0  0  0  0  0  0  0  0  0  0
  -29.6640  -25.4559   18.8849 C   0  0  0  0  0  0  0  0  0  0  0  0
  -28.0869  -22.6535   22.6176 C   0  0  0  0  0  0  0  0  0  0  0  0
  -26.8548  -22.7834   23.5079 C   0  0  0  0  0  0  0  0  0  0  0  0
  -24.4457  -23.3889   23.3345 C   0  0  0  0  0  0  0  0  0  0  0  0
  -29.0413  -26.8433   18.9886 C   0  0  0  0  0  0  0  0  0  1  0  0
  -23.9023  -22.1227   22.6744 C   0  0  1  0  0  0  0  0  0  0  0  0
  -20.4376  -27.5247   20.8654 C   0  0  1  0  0  0  0  0  0  0  0  0
  -18.9089  -28.2603   17.4754 C   0  0  2  0  0  0  0  0  0  0  0  0
  -19.6652  -26.6828   21.9199 C   0  0  0  0  0  0  0  0  0  0  0  0
  -30.7319  -22.9214   18.9685 N   0  0  0  0  0  0  0  0  0  0  0  0
  -24.3828  -16.0323   22.5564 N   0  0  0  0  0  0  0  0  0  0  0  0
  -29.5124  -20.7274   20.2194 N   0  0  0  0  0  0  0  0  0  0  0  0
  -24.9387  -17.1718   23.0018 N   0  0  0  0  0  0  0  0  0  0  0  0
  -22.4643  -28.8550   21.3618 N   0  0  0  0  0  0  0  0  0  0  0  0
  -22.6224  -20.1750   23.4965 N   0  0  0  0  0  0  0  0  0  0  0  0
  -26.9851  -18.3600   23.1065 N   0  0  0  0  0  0  0  0  0  0  0  0
  -28.0897  -14.5746   20.9050 N   0  0  0  0  0  0  0  0  0  0  0  0
  -23.0371  -29.9135   24.5116 N   0  0  0  0  0  0  0  0  0  0  0  0
  -19.6162  -27.9867   19.7516 N   0  0  0  0  0  0  0  0  0  0  0  0
  -19.5766  -28.6229   16.1933 N   0  3  0  0  0  0  0  0  0  0  0  0
  -25.8579  -23.6909   22.8937 N   0  3  1  0  0  0  0  0  0  0  0  0
  -28.9040  -16.5518   21.7335 O   0  0  0  0  0  0  0  0  0  0  0  0
  -24.4213  -28.4105   23.3946 O   0  0  0  0  0  0  0  0  0  0  0  0
  -21.9999  -22.3394   24.0692 O   0  0  0  0  0  0  0  0  0  0  0  0
  -20.3509  -29.6076   21.9969 O   0  0  0  0  0  0  0  0  0  0  0  0
  -20.8678  -26.9811   18.0784 O   0  0  0  0  0  0  0  0  0  0  0  0
  -24.6444  -10.3923   19.6117 O   0  0  0  0  0  0  0  0  0  0  0  0
  -27.6377  -26.7339   18.7560 O   0  0  0  0  0  0  0  0  0  1  0  0
  -21.6876   -6.6659   22.4002 F   0  0  0  0  0  0  0  0  0  0  0  0
  -25.7484   -7.9661   20.3449 F   0  0  0  0  0  0  0  0  0  0  0  0
  1  2  1  0  0  0  0
  1  5  2  0  0  0  0
  2  6  2  0  0  0  0
  3  8  2  0  0  0  0
  3 16  1  0  0  0  0
  4  9  1  0  0  0  0
  4 16  2  0  0  0  0
  5 18  1  0  0  0  0
  6 20  1  0  0  0  0
  7 10  2  0  0  0  0
  7 19  1  0  0  0  0
  8 22  1  0  0  0  0
  9 22  2  0  0  0  0
 10 23  1  0  0  0  0
 11 12  2  0  0  0  0
 11 24  1  0  0  0  0
 12 25  1  0  0  0  0
 13 21  1  0  0  0  0
 13 23  2  0  0  0  0
 14 25  2  0  0  0  0
 14 26  1  0  0  0  0
 15 28  1  0  0  0  0
 15 68  2  0  0  0  0
 16 27  1  0  0  0  0
 17 27  1  0  0  0  0
 17 31  2  0  0  0  0
 17 32  1  0  0  0  0
 18 20  2  0  0  0  0
 18 37  1  0  0  0  0
 19 21  2  0  0  0  0
 19 38  1  0  0  0  0
 20 46  1  0  0  0  0
 21 39  1  0  0  0  0
 22 85  1  0  0  0  0
 23 86  1  0  0  0  0
 24 26  2  0  0  0  0
 24 85  1  0  0  0  0
 25 87  1  0  0  0  0
 26 88  1  0  0  0  0
 27 69  2  0  0  0  0
 28 49  1  0  0  0  0
 28 70  2  0  0  0  0
 29 30  2  0  0  0  0
 29 57  1  0  0  0  0
 29 68  1  0  0  0  0
 30 58  1  0  0  0  0
 30 70  1  0  0  0  0
 31 71  1  0  0  0  0
 31 74  1  0  0  0  0
 32 75  1  0  0  0  0
 32 80  2  0  0  0  0
 33 47  1  0  0  0  0
 33 76  1  0  0  0  0
 33 81  2  0  0  0  0
 34 64  1  0  0  0  0
 34 73  1  0  0  0  0
 34 82  2  0  0  0  0
 35 65  1  0  0  0  0
 35 72  1  0  0  0  0
 35 83  2  0  0  0  0
 36 66  1  0  0  0  0
 36 77  1  0  0  0  0
 36 84  2  0  0  0  0
 37 40  1  0  0  0  0
 38 47  1  0  0  0  0
 39 72  1  0  0  0  0
 40 42  1  0  0  0  0
 41 43  1  0  0  0  0
 41 44  1  0  0  0  0
 42 46  1  0  0  0  0
 43 48  1  0  0  0  0
 44 73  1  0  0  0  0
 45 48  1  0  0  0  0
 45 73  1  0  0  0  0
 46 76  1  0  0  0  0
 47 72  1  0  0  0  0
 48 71  1  0  0  0  0
 50 64  1  0  0  0  0
 51 66  1  0  0  0  0
 52 67  1  0  0  0  0
 53 67  1  0  0  0  0
 54 67  1  0  0  0  0
 55 78  1  0  0  0  0
 56 79  1  0  0  0  0
 57 59  1  0  0  0  0
 58 60  1  0  0  0  0
 59 63  1  0  0  0  0
 60 61  1  0  0  0  0
 61 79  1  0  0  0  0
 62 64  1  0  0  0  0
 62 79  1  0  0  0  0
 63 86  1  0  0  0  0
 65 67  1  0  0  0  0
 65 77  1  0  0  0  0
 66 78  1  0  0  0  0
 69 71  1  0  0  0  0
M  CHG  2  78   1  79   1
M  ISO  4  34 100  63 101  64 100  86 101
M  END
> <Batch ID>
0048

> <Smiles>
CNC(C)C(=O)NC(C(=O)N1Cc2cc([101O:1][101CH2:1]CCc3ncc(C)nc3CCCN(C)C[100CH:0](C)[100C:0](=O)N3CCCC(n4nc(-c5ccc(Oc6ccc(F)cc6F)cc5)c(C(N)=O)c4N)C3)ccc2CC1C(=O)NC1CCCc2ccccc21)C(C)(C)C

> <Shape>
0.228

> <Color>
0.071

> <Negative vol penalty>
0.000

$$$$

  -OEChem-04052317263D

 83 91  0     1  0  0  0  0  0999 V2000
  -16.6444  -28.5124   23.8208 C   0  0  0  0  0  0  0  0  0  0  0  0
  -17.6532  -27.5800   23.6008 C   0  0  0  0  0  0  0  0  0  0  0  0
  -29.4050  -16.4920   23.0329 C   0  0  0  0  0  0  0  0  0  0  0  0
  -30.2882  -16.4312   20.7849 C   0  0  0  0  0  0  0  0  0  0  0  0
  -16.7789  -29.8115   23.3328 C   0  0  0  0  0  0  0  0  0  0  0  0
  -18.7968  -27.9460   22.8917 C   0  0  0  0  0  0  0  0  0  0  0  0
  -25.8254  -26.6035   22.5552 C   0  0  0  0  0  0  0  0  0  0  0  0
  -29.5373  -15.1064   23.1224 C   0  0  0  0  0  0  0  0  0  0  0  0
  -30.4206  -15.0455   20.8744 C   0  0  0  0  0  0  0  0  0  0  0  0
  -26.8099  -26.2408   21.6371 C   0  0  0  0  0  0  0  0  0  0  0  0
  -32.5696  -12.8344   22.2576 C   0  0  0  0  0  0  0  0  0  0  0  0
  -33.7600  -12.2679   21.8020 C   0  0  0  0  0  0  0  0  0  0  0  0
  -26.9684  -28.5353   20.9098 C   0  0  0  0  0  0  0  0  0  0  0  0
  -32.5223  -10.9666   20.1860 C   0  0  0  0  0  0  0  0  0  0  0  0
  -30.8818  -25.1058   16.9274 C   0  0  0  0  0  0  0  0  0  0  0  0
  -29.7805  -17.1545   21.8641 C   0  0  0  0  0  0  0  0  0  0  0  0
  -30.6016  -19.5560   22.1208 C   0  0  0  0  0  0  0  0  0  0  0  0
  -17.9289  -30.1963   22.6257 C   0  0  0  0  0  0  0  0  0  0  0  0
  -25.3965  -27.9353   22.6501 C   0  0  0  0  0  0  0  0  0  0  0  0
  -18.9462  -29.2511   22.3927 C   0  0  0  0  0  0  0  0  0  0  0  0
  -25.9802  -28.9128   21.8317 C   0  0  0  0  0  0  0  0  0  0  0  0
  -30.0451  -14.3831   22.0431 C   0  0  0  0  0  0  0  0  0  0  0  0
  -27.3795  -27.2062   20.8122 C   0  0  0  0  0  0  0  0  0  0  0  0
  -31.3555  -12.4670   21.6774 C   0  0  0  0  0  0  0  0  0  0  0  0
  -33.7364  -11.3340   20.7662 C   0  0  0  0  0  0  0  0  0  0  0  0
  -31.3318  -11.5331   20.6416 C   0  0  0  0  0  0  0  0  0  0  0  0
  -29.6435  -18.5858   21.7709 C   0  0  0  0  0  0  0  0  0  0  0  0
  -31.7928  -24.9848   17.9385 C   0  0  0  0  0  0  0  0  0  0  0  0
  -29.9910  -20.7557   21.8476 C   0  0  0  0  0  0  0  0  0  0  0  0
  -29.7996  -25.2997   18.8487 C   0  0  0  0  0  0  0  0  0  0  0  0
  -31.9251  -19.3880   22.6459 C   0  0  0  0  0  0  0  0  0  0  0  0
  -22.6316  -29.4386   22.2042 C   0  0  0  0  0  0  0  0  0  0  0  0
  -24.2818  -31.9897   23.3406 C   0  0  0  0  0  0  0  0  0  0  0  0
  -27.3026  -33.4966   23.8412 C   0  0  0  0  0  0  0  0  0  0  0  0
  -26.3645  -23.1570   18.0271 C   0  0  0  0  0  0  0  0  0  0  0  0
  -18.0083  -31.5987   22.0767 C   0  0  0  0  0  0  0  0  0  0  0  0
  -24.3526  -28.3150   23.6642 C   0  0  0  0  0  0  0  0  0  0  0  0
  -25.5693  -30.3598   21.9084 C   0  0  0  0  0  0  0  0  0  0  0  0
  -19.4176  -32.0105   21.6589 C   0  0  0  0  0  0  0  0  0  0  0  0
  -25.3058  -22.2354   21.2992 C   0  0  0  0  0  0  0  0  0  0  0  0
  -20.0733  -30.9079   20.8336 C   0  0  0  0  0  0  0  0  0  0  0  0
  -26.4054  -21.2905   21.7869 C   0  0  0  0  0  0  0  0  0  0  0  0
  -25.0337  -22.0620   19.8066 C   0  0  0  0  0  0  0  0  0  0  0  0
  -27.3234  -21.2315   19.4305 C   0  0  0  0  0  0  0  0  0  0  0  0
  -20.2127  -29.6169   21.6495 C   0  0  1  0  0  0  0  0  0  0  0  0
  -23.6261  -29.6108   23.3174 C   0  0  1  0  0  0  0  0  0  0  0  0
  -27.6722  -21.4087   20.9182 C   0  0  2  0  0  0  0  0  0  0  0  0
  -28.3296  -35.5942   24.7591 C   0  0  0  0  0  0  0  0  0  0  0  0
  -23.4177  -33.5052   20.8373 C   0  0  0  0  0  0  0  0  0  0  0  0
  -25.1995  -35.1939   21.3292 C   0  0  0  0  0  0  0  0  0  0  0  0
  -23.3342  -34.8439   22.9482 C   0  0  0  0  0  0  0  0  0  0  0  0
  -28.8203  -31.9950   25.8908 C   0  0  0  0  0  0  0  0  0  0  0  0
  -28.7167  -25.4790   19.8717 C   0  0  0  0  0  0  0  0  0  1  0  0
  -28.4061  -25.4751   16.8084 C   0  0  0  0  0  0  0  0  0  0  0  0
  -27.8248  -24.1621   16.2904 C   0  0  0  0  0  0  0  0  0  0  0  0
  -25.1282  -33.0766   22.7232 C   0  0  1  0  0  0  0  0  0  0  0  0
  -27.9039  -34.1664   25.0636 C   0  0  2  0  0  0  0  0  0  0  0  0
  -33.2414  -24.7661   17.9153 C   0  0  0  0  0  0  0  0  0  0  0  0
  -24.2765  -34.1274   21.9564 C   0  0  0  0  0  0  0  0  0  0  0  0
  -28.5103  -19.1226   21.3106 N   0  0  0  0  0  0  0  0  0  0  0  0
  -29.6570  -25.2993   17.5194 N   0  0  0  0  0  0  0  0  0  0  0  0
  -28.7525  -20.4432   21.3695 N   0  0  0  0  0  0  0  0  0  0  0  0
  -31.0956  -25.1090   19.1160 N   0  3  0  0  0  0  0  0  0  0  0  0
  -24.5404  -30.6802   22.9115 N   0  0  0  0  0  0  0  0  0  0  0  0
  -26.2752  -22.1869   19.0391 N   0  0  0  0  0  0  0  0  0  0  0  0
  -30.3982  -22.0367   21.9721 N   0  0  0  0  0  0  0  0  0  0  0  0
  -32.3960  -18.0865   22.8669 N   0  0  0  0  0  0  0  0  0  0  0  0
  -21.3275  -29.7167   22.5669 N   0  0  0  0  0  0  0  0  0  0  0  0
  -25.9310  -33.6337   23.8065 N   0  0  0  0  0  0  0  0  0  0  0  0
  -27.5781  -23.2127   17.3527 N   0  0  0  0  0  0  0  0  0  0  0  0
  -29.0988  -33.4098   25.5336 N   0  3  0  0  0  0  0  0  0  0  0  0
  -32.6622  -20.3634   22.9266 O   0  0  0  0  0  0  0  0  0  0  0  0
  -23.0190  -29.0815   21.0978 O   0  0  0  0  0  0  0  0  0  0  0  0
  -23.4277  -32.2906   24.1782 O   0  0  0  0  0  0  0  0  0  0  0  0
  -27.9821  -32.9136   22.9992 O   0  0  0  0  0  0  0  0  0  0  0  0
  -25.4336  -23.9206   17.7491 O   0  0  0  0  0  0  0  0  0  0  0  0
  -30.1746  -13.0310   22.1302 O   0  0  0  0  0  0  0  0  0  0  0  0
  -28.3402  -26.8547   19.9147 O   0  0  0  0  0  0  0  0  0  1  0  0
  -34.8797  -10.7911   20.3278 F   0  0  0  0  0  0  0  0  0  0  0  0
  -30.1686  -11.1771   20.0794 F   0  0  0  0  0  0  0  0  0  0  0  0
  -33.7861  -24.6638   16.6550 F   0  0  0  0  0  0  0  0  0  0  0  0
  -33.9806  -25.7597   18.5165 F   0  0  0  0  0  0  0  0  0  0  0  0
  -33.6352  -23.6131   18.5529 F   0  0  0  0  0  0  0  0  0  0  0  0
  1  2  1  0  0  0  0
  1  5  2  0  0  0  0
  2  6  2  0  0  0  0
  3  8  2  0  0  0  0
  3 16  1  0  0  0  0
  4  9  1  0  0  0  0
  4 16  2  0  0  0  0
  5 18  1  0  0  0  0
  6 20  1  0  0  0  0
  7 10  2  0  0  0  0
  7 19  1  0  0  0  0
  8 22  1  0  0  0  0
  9 22  2  0  0  0  0
 10 23  1  0  0  0  0
 11 12  2  0  0  0  0
 11 24  1  0  0  0  0
 12 25  1  0  0  0  0
 13 21  1  0  0  0  0
 13 23  2  0  0  0  0
 14 25  2  0  0  0  0
 14 26  1  0  0  0  0
 15 28  2  0  0  0  0
 15 61  1  0  0  0  0
 16 27  1  0  0  0  0
 17 27  1  0  0  0  0
 17 29  2  0  0  0  0
 17 31  1  0  0  0  0
 18 20  2  0  0  0  0
 18 36  1  0  0  0  0
 19 21  2  0  0  0  0
 19 37  1  0  0  0  0
 20 45  1  0  0  0  0
 21 38  1  0  0  0  0
 22 77  1  0  0  0  0
 23 78  1  0  0  0  0
 24 26  2  0  0  0  0
 24 77  1  0  0  0  0
 25 79  1  0  0  0  0
 26 80  1  0  0  0  0
 27 60  2  0  0  0  0
 28 58  1  0  0  0  0
 28 63  1  0  0  0  0
 29 62  1  0  0  0  0
 29 66  1  0  0  0  0
 30 53  1  0  0  0  0
 30 61  1  0  0  0  0
 30 63  2  0  0  0  0
 31 67  1  0  0  0  0
 31 72  2  0  0  0  0
 32 46  1  0  0  0  0
 32 68  1  0  0  0  0
 32 73  2  0  0  0  0
 33 56  1  0  0  0  0
 33 64  1  0  0  0  0
 33 74  2  0  0  0  0
 34 57  1  0  0  0  0
 34 69  1  0  0  0  0
 34 75  2  0  0  0  0
 35 65  1  0  0  0  0
 35 70  1  0  0  0  0
 35 76  2  0  0  0  0
 36 39  1  0  0  0  0
 37 46  1  0  0  0  0
 38 64  1  0  0  0  0
 39 41  1  0  0  0  0
 40 42  1  0  0  0  0
 40 43  1  0  0  0  0
 41 45  1  0  0  0  0
 42 47  1  0  0  0  0
 43 65  1  0  0  0  0
 44 47  1  0  0  0  0
 44 65  1  0  0  0  0
 45 68  1  0  0  0  0
 46 64  1  0  0  0  0
 47 62  1  0  0  0  0
 48 57  1  0  0  0  0
 49 59  1  0  0  0  0
 50 59  1  0  0  0  0
 51 59  1  0  0  0  0
 52 71  1  0  0  0  0
 53 78  1  0  0  0  0
 54 55  1  0  0  0  0
 54 61  1  0  0  0  0
 55 70  1  0  0  0  0
 56 59  1  0  0  0  0
 56 69  1  0  0  0  0
 57 71  1  0  0  0  0
 58 81  1  0  0  0  0
 58 82  1  0  0  0  0
 58 83  1  0  0  0  0
 60 62  1  0  0  0  0
M  CHG  2  63   1  71   1
M  ISO  4  35 100  53 101  70 100  78 101
M  END
> <Batch ID>
0048

> <Smiles>
CNC(C)C(=O)NC(C(=O)N1Cc2cc([101O:1][101CH2:1]c3nc(C(F)(F)F)cn3CC[100NH:0][100C:0](=O)N3CCCC(n4nc(-c5ccc(Oc6ccc(F)cc6F)cc5)c(C(N)=O)c4N)C3)ccc2CC1C(=O)NC1CCCc2ccccc21)C(C)(C)C

> <Shape>
0.233

> <Color>
0.079

> <Negative vol penalty>
0.000

$$$$

  -OEChem-04052317263D

 79 87  0     1  0  0  0  0  0999 V2000
  -29.6971   -3.6489   24.9201 C   0  0  0  0  0  0  0  0  0  0  0  0
  -30.0966   -4.9753   25.0482 C   0  0  0  0  0  0  0  0  0  0  0  0
  -22.8517  -10.1111   20.1202 C   0  0  0  0  0  0  0  0  0  0  0  0
  -24.3443   -9.5508   21.9355 C   0  0  0  0  0  0  0  0  0  0  0  0
  -28.3894   -3.2823   25.2355 C   0  0  0  0  0  0  0  0  0  0  0  0
  -29.1882   -5.9362   25.4907 C   0  0  0  0  0  0  0  0  0  0  0  0
  -31.1793   -9.0389   28.9626 C   0  0  0  0  0  0  0  0  0  0  0  0
  -22.1646   -8.9131   20.3153 C   0  0  0  0  0  0  0  0  0  0  0  0
  -23.6571   -8.3527   22.1306 C   0  0  0  0  0  0  0  0  0  0  0  0
  -32.0179  -10.0536   28.5035 C   0  0  0  0  0  0  0  0  0  0  0  0
  -20.7814   -7.3416   23.5897 C   0  0  0  0  0  0  0  0  0  0  0  0
  -20.4663   -6.9830   24.9003 C   0  0  0  0  0  0  0  0  0  0  0  0
  -30.1984  -11.6279   28.6776 C   0  0  0  0  0  0  0  0  0  0  0  0
  -21.7570   -4.9553   24.6558 C   0  0  0  0  0  0  0  0  0  0  0  0
  -23.9416  -10.4300   20.9303 C   0  0  0  0  0  0  0  0  0  0  0  0
  -24.1294  -12.9715   20.8148 C   0  0  0  0  0  0  0  0  0  0  0  0
  -27.4672   -4.2375   25.6913 C   0  0  0  0  0  0  0  0  0  0  0  0
  -29.8387   -9.3092   29.2728 C   0  0  0  0  0  0  0  0  0  0  0  0
  -27.8665   -5.5823   25.8112 C   0  0  0  0  0  0  0  0  0  0  0  0
  -29.3455  -10.6154   29.1428 C   0  0  0  0  0  0  0  0  0  0  0  0
  -22.5673   -8.0339   21.3205 C   0  0  0  0  0  0  0  0  0  0  0  0
  -31.5268  -11.3477   28.3582 C   0  0  0  0  0  0  0  0  0  0  0  0
  -21.5843   -6.5070   22.8121 C   0  0  0  0  0  0  0  0  0  0  0  0
  -20.9541   -5.7899   25.4334 C   0  0  0  0  0  0  0  0  0  0  0  0
  -22.0721   -5.3139   23.3452 C   0  0  0  0  0  0  0  0  0  0  0  0
  -24.6522  -11.6672   20.7289 C   0  0  0  0  0  0  0  0  0  0  0  0
  -25.1988  -13.7887   20.5412 C   0  0  0  0  0  0  0  0  0  0  0  0
  -22.7963  -13.4054   21.1153 C   0  0  0  0  0  0  0  0  0  0  0  0
  -27.0336   -8.3086   28.1621 C   0  0  0  0  0  0  0  0  0  0  0  0
  -25.8712  -10.0508   30.6392 C   0  0  0  0  0  0  0  0  0  0  0  0
  -26.5629  -13.2466   32.1644 C   0  0  0  0  0  0  0  0  0  0  0  0
  -31.0381  -13.2332   21.0615 C   0  0  0  0  0  0  0  0  0  0  0  0
  -26.0514   -3.8020   25.9749 C   0  0  0  0  0  0  0  0  0  0  0  0
  -28.9541   -8.2092   29.7922 C   0  0  0  0  0  0  0  0  0  0  0  0
  -27.9195  -10.9620   29.4816 C   0  0  0  0  0  0  0  0  0  0  0  0
  -25.2554   -4.8144   26.7946 C   0  0  0  0  0  0  0  0  0  0  0  0
  -29.3172  -13.9002   18.1256 C   0  0  0  0  0  0  0  0  0  0  0  0
  -25.4465   -6.2212   26.2369 C   0  0  0  0  0  0  0  0  0  0  0  0
  -32.1519  -15.1075   25.3445 C   0  0  0  0  0  0  0  0  0  0  0  0
  -33.3239  -12.8695   25.2699 C   0  0  0  0  0  0  0  0  0  0  0  0
  -27.8716  -13.5303   18.4549 C   0  0  0  0  0  0  0  0  0  0  0  0
  -31.1548  -14.6228   24.2916 C   0  0  0  0  0  0  0  0  0  0  0  0
  -32.3293  -12.3812   24.2163 C   0  0  0  0  0  0  0  0  0  0  0  0
  -30.2878  -12.8913   18.7277 C   0  0  0  0  0  0  0  0  0  0  0  0
  -28.7072  -12.3631   20.5563 C   0  0  0  0  0  0  0  0  0  0  0  0
  -26.9171   -6.6492   26.3117 C   0  0  1  0  0  0  0  0  0  0  0  0
  -27.4686   -8.4906   29.5887 C   0  0  1  0  0  0  0  0  0  0  0  0
  -32.7499  -13.9657   26.1790 C   0  0  0  0  0  0  0  0  0  0  0  0
  -27.6796  -13.3536   19.9713 C   0  0  2  0  0  0  0  0  0  0  0  0
  -31.7669  -13.5435   23.3961 C   0  0  0  0  0  0  0  0  0  0  0  0
  -26.1985  -14.0454   34.5152 C   0  0  0  0  0  0  0  0  0  0  0  0
  -23.2207  -11.1096   29.5604 C   0  0  0  0  0  0  0  0  0  0  0  0
  -23.5156  -13.1275   31.0128 C   0  0  0  0  0  0  0  0  0  0  0  0
  -23.3123  -10.8670   32.0478 C   0  0  0  0  0  0  0  0  0  0  0  0
  -29.7557  -12.1790   22.9718 C   0  0  0  0  0  0  0  0  0  0  0  0
  -29.4031  -14.0224   32.4644 C   0  0  0  0  0  0  0  0  0  0  0  0
  -31.7333  -13.4001   27.1745 C   0  0  0  0  0  0  0  0  0  1  0  0
  -25.4387  -11.4849   30.8276 C   0  0  1  0  0  0  0  0  0  0  0  0
  -27.2033  -13.4872   33.5195 C   0  0  2  0  0  0  0  0  0  0  0  0
  -23.8917  -11.6401   30.8431 C   0  0  0  0  0  0  0  0  0  0  0  0
  -25.9525  -11.6519   20.4242 N   0  0  0  0  0  0  0  0  0  0  0  0
  -26.2559  -12.9567   20.3164 N   0  0  0  0  0  0  0  0  0  0  0  0
  -27.0922   -9.8506   29.9797 N   0  0  0  0  0  0  0  0  0  0  0  0
  -30.0737  -12.7447   20.1677 N   0  0  0  0  0  0  0  0  0  0  0  0
  -25.3287  -15.1307   20.4733 N   0  0  0  0  0  0  0  0  0  0  0  0
  -21.8192  -12.4339   21.3717 N   0  0  0  0  0  0  0  0  0  0  0  0
  -27.2615   -7.0409   27.6617 N   0  0  0  0  0  0  0  0  0  0  0  0
  -26.0985  -11.9541   32.0412 N   0  0  0  0  0  0  0  0  0  0  0  0
  -30.7894  -13.0601   22.4314 N   0  0  0  0  0  0  0  0  0  0  0  0
  -28.3296  -14.4553   33.3956 N   0  3  0  0  0  0  0  0  0  0  0  0
  -22.4772  -14.6183   21.1390 O   0  0  0  0  0  0  0  0  0  0  0  0
  -26.5271   -9.2484   27.5603 O   0  0  0  0  0  0  0  0  0  0  0  0
  -25.1557   -9.1421   31.0678 O   0  0  0  0  0  0  0  0  0  0  0  0
  -26.4793  -14.1190   31.3028 O   0  0  0  0  0  0  0  0  0  0  0  0
  -32.0692  -13.7872   20.6588 O   0  0  0  0  0  0  0  0  0  0  0  0
  -21.8969   -6.8648   21.5113 O   0  0  0  0  0  0  0  0  0  0  0  0
  -32.3431  -12.3399   27.9097 O   0  0  0  0  0  0  0  0  0  1  0  0
  -20.6527   -5.4465   26.6925 F   0  0  0  0  0  0  0  0  0  0  0  0
  -22.8448   -4.5086   22.6034 F   0  0  0  0  0  0  0  0  0  0  0  0
  1  2  1  0  0  0  0
  1  5  2  0  0  0  0
  2  6  2  0  0  0  0
  3  8  2  0  0  0  0
  3 15  1  0  0  0  0
  4  9  1  0  0  0  0
  4 15  2  0  0  0  0
  5 17  1  0  0  0  0
  6 19  1  0  0  0  0
  7 10  2  0  0  0  0
  7 18  1  0  0  0  0
  8 21  1  0  0  0  0
  9 21  2  0  0  0  0
 10 22  1  0  0  0  0
 11 12  2  0  0  0  0
 11 23  1  0  0  0  0
 12 24  1  0  0  0  0
 13 20  1  0  0  0  0
 13 22  2  0  0  0  0
 14 24  2  0  0  0  0
 14 25  1  0  0  0  0
 15 26  1  0  0  0  0
 16 26  1  0  0  0  0
 16 27  2  0  0  0  0
 16 28  1  0  0  0  0
 17 19  2  0  0  0  0
 17 33  1  0  0  0  0
 18 20  2  0  0  0  0
 18 34  1  0  0  0  0
 19 46  1  0  0  0  0
 20 35  1  0  0  0  0
 21 76  1  0  0  0  0
 22 77  1  0  0  0  0
 23 25  2  0  0  0  0
 23 76  1  0  0  0  0
 24 78  1  0  0  0  0
 25 79  1  0  0  0  0
 26 61  2  0  0  0  0
 27 62  1  0  0  0  0
 27 65  1  0  0  0  0
 28 66  1  0  0  0  0
 28 71  2  0  0  0  0
 29 47  1  0  0  0  0
 29 67  1  0  0  0  0
 29 72  2  0  0  0  0
 30 58  1  0  0  0  0
 30 63  1  0  0  0  0
 30 73  2  0  0  0  0
 31 59  1  0  0  0  0
 31 68  1  0  0  0  0
 31 74  2  0  0  0  0
 32 64  1  0  0  0  0
 32 69  1  0  0  0  0
 32 75  2  0  0  0  0
 33 36  1  0  0  0  0
 34 47  1  0  0  0  0
 35 63  1  0  0  0  0
 36 38  1  0  0  0  0
 37 41  1  0  0  0  0
 37 44  1  0  0  0  0
 38 46  1  0  0  0  0
 39 42  1  0  0  0  0
 39 48  1  0  0  0  0
 40 43  1  0  0  0  0
 40 48  1  0  0  0  0
 41 49  1  0  0  0  0
 42 50  1  0  0  0  0
 43 50  1  0  0  0  0
 44 64  1  0  0  0  0
 45 49  1  0  0  0  0
 45 64  1  0  0  0  0
 46 67  1  0  0  0  0
 47 63  1  0  0  0  0
 48 57  1  0  0  0  0
 49 62  1  0  0  0  0
 50 69  1  0  0  0  0
 51 59  1  0  0  0  0
 52 60  1  0  0  0  0
 53 60  1  0  0  0  0
 54 60  1  0  0  0  0
 55 69  1  0  0  0  0
 56 70  1  0  0  0  0
 57 77  1  0  0  0  0
 58 60  1  0  0  0  0
 58 68  1  0  0  0  0
 59 70  1  0  0  0  0
 61 62  1  0  0  0  0
M  CHG  1  70   1
M  ISO  4  32 100  57 101  69 100  77 101
M  END
> <Batch ID>
0048

> <Smiles>
CNC(C)C(=O)NC(C(=O)N1Cc2cc([101O:1][101CH2:1]C3CCC([100N:0](C)[100C:0](=O)N4CCCC(n5nc(-c6ccc(Oc7ccc(F)cc7F)cc6)c(C(N)=O)c5N)C4)CC3)ccc2CC1C(=O)NC1CCCc2ccccc21)C(C)(C)C

> <Shape>
0.160

> <Color>
0.193

> <Negative vol penalty>
0.000

$$$$

  -OEChem-04052317263D

 89 98  0     1  0  0  0  0  0999 V2000
  -18.6754  -33.1646   20.7695 C   0  0  0  0  0  0  0  0  0  0  0  0
  -19.9080  -32.7934   20.2418 C   0  0  0  0  0  0  0  0  0  0  0  0
  -24.1412   -9.9790   22.4003 C   0  0  0  0  0  0  0  0  0  0  0  0
  -24.3644  -11.5289   24.2401 C   0  0  0  0  0  0  0  0  0  0  0  0
  -18.3388  -32.8021   22.0730 C   0  0  0  0  0  0  0  0  0  0  0  0
  -20.8051  -32.0604   21.0178 C   0  0  0  0  0  0  0  0  0  0  0  0
  -24.6896  -27.7463   19.0670 C   0  0  0  0  0  0  0  0  0  0  0  0
  -30.0368  -22.9128   18.6795 C   0  0  0  0  0  0  0  0  0  0  0  0
  -23.6396   -9.0142   23.2739 C   0  0  0  0  0  0  0  0  0  0  0  0
  -23.8627  -10.5641   25.1137 C   0  0  0  0  0  0  0  0  0  0  0  0
  -26.0491  -27.7779   18.7595 C   0  0  0  0  0  0  0  0  0  0  0  0
  -20.7032   -8.3225   24.8011 C   0  0  0  0  0  0  0  0  0  0  0  0
  -19.5773   -7.6050   24.3973 C   0  0  0  0  0  0  0  0  0  0  0  0
  -29.9394  -24.1197   17.9960 C   0  0  0  0  0  0  0  0  0  0  0  0
  -26.5630  -26.9806   20.9775 C   0  0  0  0  0  0  0  0  0  0  0  0
  -20.8325   -5.5466   24.5547 C   0  0  0  0  0  0  0  0  0  0  0  0
  -27.4222  -19.7597   21.2411 C   0  0  0  0  0  0  0  0  0  0  0  0
  -28.1669  -21.6806   21.7761 C   0  0  0  0  0  0  0  0  0  0  0  0
  -24.5036  -11.2363   22.8834 C   0  0  0  0  0  0  0  0  0  0  0  0
  -24.2867  -13.1937   21.2619 C   0  0  0  0  0  0  0  0  0  0  0  0
  -19.2284  -32.0559   22.8621 C   0  0  0  0  0  0  0  0  0  0  0  0
  -24.2564  -27.3413   20.3377 C   0  0  0  0  0  0  0  0  0  0  0  0
  -20.4806  -31.6887   22.3336 C   0  0  0  0  0  0  0  0  0  0  0  0
  -25.1973  -26.9423   21.2977 C   0  0  0  0  0  0  0  0  0  0  0  0
  -30.3704  -22.9097   20.0294 C   0  0  0  0  0  0  0  0  0  0  0  0
  -23.5003   -9.3068   24.6306 C   0  0  0  0  0  0  0  0  0  0  0  0
  -26.9862  -27.3978   19.7158 C   0  0  0  0  0  0  0  0  0  0  0  0
  -21.8939   -7.6520   25.0817 C   0  0  0  0  0  0  0  0  0  0  0  0
  -19.6419   -6.2171   24.2741 C   0  0  0  0  0  0  0  0  0  0  0  0
  -21.9584   -6.2641   24.9585 C   0  0  0  0  0  0  0  0  0  0  0  0
  -25.0224  -12.2332   21.9816 C   0  0  0  0  0  0  0  0  0  0  0  0
  -30.1833  -25.2865   18.7022 C   0  0  0  0  0  0  0  0  0  0  0  0
  -30.5952  -24.1307   20.6445 C   0  0  0  0  0  0  0  0  0  0  0  0
  -28.6955  -19.8169   20.7254 C   0  0  0  0  0  0  0  0  0  0  0  0
  -25.2345  -13.8949   20.5573 C   0  0  0  0  0  0  0  0  0  0  0  0
  -22.8730  -13.4309   21.2329 C   0  0  0  0  0  0  0  0  0  0  0  0
  -22.6584  -28.7275   22.7102 C   0  0  0  0  0  0  0  0  0  0  0  0
  -22.7662  -25.7533   24.0004 C   0  0  0  0  0  0  0  0  0  0  0  0
  -24.3204  -22.7192   24.1603 C   0  0  0  0  0  0  0  0  0  0  0  0
  -30.1741  -16.4780   20.2856 C   0  0  0  0  0  0  0  0  0  0  0  0
  -18.8395  -31.7280   24.2819 C   0  0  0  0  0  0  0  0  0  0  0  0
  -22.7850  -27.2873   20.6448 C   0  0  0  0  0  0  0  0  0  0  0  0
  -24.7830  -26.4801   22.6700 C   0  0  0  0  0  0  0  0  0  0  0  0
  -19.6938  -30.6294   24.9092 C   0  0  0  0  0  0  0  0  0  0  0  0
  -30.1468  -12.9500   19.8070 C   0  0  0  0  0  0  0  0  0  0  0  0
  -21.1734  -30.8846   24.6399 C   0  0  0  0  0  0  0  0  0  0  0  0
  -28.7535  -12.5279   20.2764 C   0  0  0  0  0  0  0  0  0  0  0  0
  -30.7081  -14.0877   20.6570 C   0  0  0  0  0  0  0  0  0  0  0  0
  -28.4366  -14.8451   21.2402 C   0  0  0  0  0  0  0  0  0  0  0  0
  -21.4706  -30.8720   23.1356 C   0  0  1  0  0  0  0  0  0  0  0  0
  -22.4838  -27.3487   22.1391 C   0  0  1  0  0  0  0  0  0  0  0  0
  -27.8057  -13.7381   20.3784 C   0  0  2  0  0  0  0  0  0  0  0  0
  -30.9536  -24.1886   22.0933 C   0  0  0  0  0  0  0  0  0  0  0  0
  -27.8536  -18.8405   17.9566 C   0  0  0  0  0  0  0  0  0  0  0  0
  -24.6991  -20.3292   24.8250 C   0  0  0  0  0  0  0  0  0  0  0  0
  -23.9636  -27.0193   26.5051 C   0  0  0  0  0  0  0  0  0  0  0  0
  -24.6880  -24.7346   27.2290 C   0  0  0  0  0  0  0  0  0  0  0  0
  -22.2617  -25.2408   26.9468 C   0  0  0  0  0  0  0  0  0  0  0  0
  -22.7129  -21.7114   21.8889 C   0  0  0  0  0  0  0  0  0  0  0  0
  -30.4775  -21.6199   20.7667 C   0  0  0  0  0  0  0  0  0  0  0  0
  -30.0847  -26.6149   17.9922 C   0  0  0  0  0  0  0  0  0  0  0  0
  -29.2987  -18.9781   18.4201 C   0  0  0  0  0  0  0  0  0  0  0  0
  -28.6800  -27.2045   18.0576 C   0  0  0  0  0  0  0  0  0  1  0  0
  -29.4851  -18.8394   19.9570 C   0  0  2  0  0  0  0  0  0  0  0  0
  -23.7265  -25.0119   24.8988 C   0  0  1  0  0  0  0  0  0  0  0  0
  -23.7738  -21.3038   24.1131 C   0  0  2  0  0  0  0  0  0  0  0  0
  -23.6682  -25.5121   26.3698 C   0  0  0  0  0  0  0  0  0  0  0  0
  -27.0990  -20.9230   21.8937 N   0  0  0  0  0  0  0  0  0  0  0  0
  -26.3362  -12.3139   21.7549 N   0  0  0  0  0  0  0  0  0  0  0  0
  -30.5098  -25.3233   20.0135 N   0  0  0  0  0  0  0  0  0  0  0  0
  -29.1596  -21.0534   21.0758 N   0  0  0  0  0  0  0  0  0  0  0  0
  -26.4336  -13.3334   20.8848 N   0  0  0  0  0  0  0  0  0  0  0  0
  -23.3331  -26.4507   22.9243 N   0  0  0  0  0  0  0  0  0  0  0  0
  -29.7618  -15.2046   20.7118 N   0  0  0  0  0  0  0  0  0  0  0  0
  -25.1509  -14.9308   19.6957 N   0  0  0  0  0  0  0  0  0  0  0  0
  -22.0430  -12.6183   22.0172 N   0  0  0  0  0  0  0  0  0  0  0  0
  -21.5233  -29.5126   22.6421 N   0  0  0  0  0  0  0  0  0  0  0  0
  -23.4242  -23.5938   24.7375 N   0  0  0  0  0  0  0  0  0  0  0  0
  -29.2136  -17.4789   20.3646 N   0  0  0  0  0  0  0  0  0  0  0  0
  -23.6167  -20.8560   22.7004 N   0  3  0  0  0  0  0  0  0  0  0  0
  -22.3595  -14.3260   20.5197 O   0  0  0  0  0  0  0  0  0  0  0  0
  -23.7423  -29.0545   23.1792 O   0  0  0  0  0  0  0  0  0  0  0  0
  -21.5571  -25.7093   24.2403 O   0  0  0  0  0  0  0  0  0  0  0  0
  -25.4327  -23.0184   23.7317 O   0  0  0  0  0  0  0  0  0  0  0  0
  -31.3121  -16.7048   19.8609 O   0  0  0  0  0  0  0  0  0  0  0  0
  -23.0106   -8.3657   25.4833 O   0  0  0  0  0  0  0  0  0  0  0  0
  -28.3138  -27.4283   19.4185 O   0  0  0  0  0  0  0  0  0  1  0  0
  -18.5601   -5.5281   23.8878 F   0  0  0  0  0  0  0  0  0  0  0  0
  -23.0991   -5.6144   25.2279 F   0  0  0  0  0  0  0  0  0  0  0  0
  1  2  1  0  0  0  0
  1  5  2  0  0  0  0
  2  6  2  0  0  0  0
  3  9  2  0  0  0  0
  3 19  1  0  0  0  0
  4 10  1  0  0  0  0
  4 19  2  0  0  0  0
  5 21  1  0  0  0  0
  6 23  1  0  0  0  0
  7 11  2  0  0  0  0
  7 22  1  0  0  0  0
  8 14  2  0  0  0  0
  8 25  1  0  0  0  0
  9 26  1  0  0  0  0
 10 26  2  0  0  0  0
 11 27  1  0  0  0  0
 12 13  2  0  0  0  0
 12 28  1  0  0  0  0
 13 29  1  0  0  0  0
 14 32  1  0  0  0  0
 15 24  1  0  0  0  0
 15 27  2  0  0  0  0
 16 29  2  0  0  0  0
 16 30  1  0  0  0  0
 17 34  2  0  0  0  0
 17 68  1  0  0  0  0
 18 68  2  0  0  0  0
 18 71  1  0  0  0  0
 19 31  1  0  0  0  0
 20 31  1  0  0  0  0
 20 35  2  0  0  0  0
 20 36  1  0  0  0  0
 21 23  2  0  0  0  0
 21 41  1  0  0  0  0
 22 24  2  0  0  0  0
 22 42  1  0  0  0  0
 23 50  1  0  0  0  0
 24 43  1  0  0  0  0
 25 33  2  0  0  0  0
 25 60  1  0  0  0  0
 26 86  1  0  0  0  0
 27 87  1  0  0  0  0
 28 30  2  0  0  0  0
 28 86  1  0  0  0  0
 29 88  1  0  0  0  0
 30 89  1  0  0  0  0
 31 69  2  0  0  0  0
 32 61  1  0  0  0  0
 32 70  2  0  0  0  0
 33 53  1  0  0  0  0
 33 70  1  0  0  0  0
 34 64  1  0  0  0  0
 34 71  1  0  0  0  0
 35 72  1  0  0  0  0
 35 75  1  0  0  0  0
 36 76  1  0  0  0  0
 36 81  2  0  0  0  0
 37 51  1  0  0  0  0
 37 77  1  0  0  0  0
 37 82  2  0  0  0  0
 38 65  1  0  0  0  0
 38 73  1  0  0  0  0
 38 83  2  0  0  0  0
 39 66  1  0  0  0  0
 39 78  1  0  0  0  0
 39 84  2  0  0  0  0
 40 74  1  0  0  0  0
 40 79  1  0  0  0  0
 40 85  2  0  0  0  0
 41 44  1  0  0  0  0
 42 51  1  0  0  0  0
 43 73  1  0  0  0  0
 44 46  1  0  0  0  0
 45 47  1  0  0  0  0
 45 48  1  0  0  0  0
 46 50  1  0  0  0  0
 47 52  1  0  0  0  0
 48 74  1  0  0  0  0
 49 52  1  0  0  0  0
 49 74  1  0  0  0  0
 50 77  1  0  0  0  0
 51 73  1  0  0  0  0
 52 72  1  0  0  0  0
 54 62  1  0  0  0  0
 55 66  1  0  0  0  0
 56 67  1  0  0  0  0
 57 67  1  0  0  0  0
 58 67  1  0  0  0  0
 59 80  1  0  0  0  0
 60 71  1  0  0  0  0
 61 63  1  0  0  0  0
 62 64  1  0  0  0  0
 63 87  1  0  0  0  0
 64 79  1  0  0  0  0
 65 67  1  0  0  0  0
 65 78  1  0  0  0  0
 66 80  1  0  0  0  0
 69 72  1  0  0  0  0
M  CHG  1  80   1
M  ISO  4  40 100  63 101  79 100  87 101
M  END
> <Batch ID>
0048

> <Smiles>
CCC([100NH:0][100C:0](=O)N1CCCC(n2nc(-c3ccc(Oc4ccc(F)cc4F)cc3)c(C(N)=O)c2N)C1)c1cncn1Cc1ccc(C[101CH2:1][101O:1]c2ccc3c(c2)CN(C(=O)C(NC(=O)C(C)NC)C(C)(C)C)C(C(=O)NC2CCCc4ccccc42)C3)nc1C

> <Shape>
0.261

> <Color>
0.139

> <Negative vol penalty>
0.000

$$$$

  -OEChem-04052317263D

 84 92  0     1  0  0  0  0  0999 V2000
  -18.6515  -33.4839   21.8312 C   0  0  0  0  0  0  0  0  0  0  0  0
  -19.9879  -33.3734   21.4607 C   0  0  0  0  0  0  0  0  0  0  0  0
  -26.5564  -12.2698   20.1273 C   0  0  0  0  0  0  0  0  0  0  0  0
  -24.6663  -13.6035   20.8245 C   0  0  0  0  0  0  0  0  0  0  0  0
  -18.1053  -32.5817   22.7431 C   0  0  0  0  0  0  0  0  0  0  0  0
  -20.7792  -32.3613   22.0027 C   0  0  0  0  0  0  0  0  0  0  0  0
  -25.3037  -29.3278   19.2041 C   0  0  0  0  0  0  0  0  0  0  0  0
  -25.8706  -11.1098   20.4869 C   0  0  0  0  0  0  0  0  0  0  0  0
  -23.9804  -12.4434   21.1841 C   0  0  0  0  0  0  0  0  0  0  0  0
  -26.6896  -29.4781   19.2290 C   0  0  0  0  0  0  0  0  0  0  0  0
  -22.2480   -9.9930   19.6301 C   0  0  0  0  0  0  0  0  0  0  0  0
  -20.9125   -9.8850   19.2424 C   0  0  0  0  0  0  0  0  0  0  0  0
  -26.8383  -27.7693   20.9253 C   0  0  0  0  0  0  0  0  0  0  0  0
  -20.2542   -9.7042   21.5599 C   0  0  0  0  0  0  0  0  0  0  0  0
  -32.2093  -23.5575   23.5932 C   0  0  0  0  0  0  0  0  0  0  0  0
  -25.9543  -13.5167   20.2961 C   0  0  0  0  0  0  0  0  0  0  0  0
  -26.6517  -15.3559   18.6716 C   0  0  0  0  0  0  0  0  0  0  0  0
  -18.8878  -31.5520   23.2893 C   0  0  0  0  0  0  0  0  0  0  0  0
  -24.6727  -28.4032   20.0488 C   0  0  0  0  0  0  0  0  0  0  0  0
  -20.2433  -31.4452   22.9238 C   0  0  0  0  0  0  0  0  0  0  0  0
  -25.4446  -27.6074   20.9073 C   0  0  0  0  0  0  0  0  0  0  0  0
  -24.5826  -11.1965   21.0153 C   0  0  0  0  0  0  0  0  0  0  0  0
  -27.4568  -28.7009   20.0918 C   0  0  0  0  0  0  0  0  0  0  0  0
  -22.5867   -9.9565   20.9828 C   0  0  0  0  0  0  0  0  0  0  0  0
  -19.9156   -9.7406   20.2073 C   0  0  0  0  0  0  0  0  0  0  0  0
  -21.5898   -9.8121   21.9477 C   0  0  0  0  0  0  0  0  0  0  0  0
  -26.6625  -14.7155   19.9253 C   0  0  0  0  0  0  0  0  0  0  0  0
  -31.5305  -23.4732   22.4104 C   0  0  0  0  0  0  0  0  0  0  0  0
  -27.4767  -16.4420   18.8337 C   0  0  0  0  0  0  0  0  0  0  0  0
  -33.5398  -24.3003   21.9874 C   0  0  0  0  0  0  0  0  0  0  0  0
  -25.9578  -15.0008   17.4682 C   0  0  0  0  0  0  0  0  0  0  0  0
  -22.5463  -28.6031   22.4029 C   0  0  0  0  0  0  0  0  0  0  0  0
  -22.6521  -25.3647   22.2492 C   0  0  0  0  0  0  0  0  0  0  0  0
  -24.3919  -22.5608   21.3784 C   0  0  0  0  0  0  0  0  0  0  0  0
  -29.0892  -20.8015   21.7218 C   0  0  0  0  0  0  0  0  0  0  0  0
  -18.2656  -30.6295   24.3073 C   0  0  0  0  0  0  0  0  0  0  0  0
  -23.1793  -28.2342   19.9906 C   0  0  0  0  0  0  0  0  0  0  0  0
  -24.8175  -26.5862   21.8196 C   0  0  0  0  0  0  0  0  0  0  0  0
  -19.0732  -29.3570   24.5501 C   0  0  0  0  0  0  0  0  0  0  0  0
  -30.6342  -17.6482   22.5976 C   0  0  0  0  0  0  0  0  0  0  0  0
  -20.5509  -29.6891   24.7313 C   0  0  0  0  0  0  0  0  0  0  0  0
  -29.7284  -16.6532   21.8697 C   0  0  0  0  0  0  0  0  0  0  0  0
  -29.8302  -18.8131   23.1674 C   0  0  0  0  0  0  0  0  0  0  0  0
  -28.0977  -18.5483   21.4349 C   0  0  0  0  0  0  0  0  0  0  0  0
  -21.1273  -30.3456   23.4711 C   0  0  1  0  0  0  0  0  0  0  0  0
  -22.5968  -27.6259   21.2627 C   0  0  1  0  0  0  0  0  0  0  0  0
  -28.8538  -17.3585   20.8162 C   0  0  2  0  0  0  0  0  0  0  0  0
  -34.7260  -24.8546   21.2887 C   0  0  0  0  0  0  0  0  0  0  0  0
  -29.0686  -23.8010   22.8499 C   0  0  0  0  0  0  0  0  0  0  0  0
  -24.2354  -20.0565   21.4092 C   0  0  0  0  0  0  0  0  0  0  0  0
  -23.2458  -25.3669   25.2421 C   0  0  0  0  0  0  0  0  0  0  0  0
  -24.0054  -22.9914   25.0224 C   0  0  0  0  0  0  0  0  0  0  0  0
  -21.6431  -23.5972   24.4978 C   0  0  0  0  0  0  0  0  0  0  0  0
  -24.5760  -22.3972   18.4291 C   0  0  0  0  0  0  0  0  0  0  0  0
  -31.8139  -26.5449   20.1038 C   0  0  0  0  0  0  0  0  0  0  0  0
  -31.1586  -25.2359   19.6584 C   0  0  0  0  0  0  0  0  0  0  0  0
  -30.9345  -27.7508   19.7605 C   0  0  0  0  0  0  0  0  0  0  0  0
  -32.0552  -24.0342   19.9646 C   0  0  0  0  0  0  0  0  0  0  0  0
  -29.5800  -27.6933   20.4563 C   0  0  0  0  0  0  0  0  0  1  0  0
  -30.1712  -22.9978   22.1249 C   0  0  2  0  0  0  0  0  0  0  0  0
  -23.4827  -24.2897   22.9077 C   0  0  1  0  0  0  0  0  0  0  0  0
  -23.9823  -21.3213   20.6037 C   0  0  2  0  0  0  0  0  0  0  0  0
  -23.1062  -24.0818   24.4018 C   0  0  0  0  0  0  0  0  0  0  0  0
  -27.4334  -15.3424   20.8178 N   0  0  0  0  0  0  0  0  0  0  0  0
  -32.3773  -23.9398   21.4340 N   0  0  0  0  0  0  0  0  0  0  0  0
  -27.9148  -16.3880   20.1242 N   0  0  0  0  0  0  0  0  0  0  0  0
  -33.4495  -24.0722   23.3016 N   0  3  0  0  0  0  0  0  0  0  0  0
  -23.3531  -26.4626   21.7305 N   0  0  0  0  0  0  0  0  0  0  0  0
  -29.0344  -19.4526   22.1102 N   0  0  0  0  0  0  0  0  0  0  0  0
  -27.8630  -17.4282   17.9968 N   0  0  0  0  0  0  0  0  0  0  0  0
  -25.1522  -13.8540   17.4751 N   0  0  0  0  0  0  0  0  0  0  0  0
  -21.3840  -29.3486   22.4540 N   0  0  0  0  0  0  0  0  0  0  0  0
  -23.3339  -23.0960   22.0823 N   0  0  0  0  0  0  0  0  0  0  0  0
  -29.9972  -21.5920   22.4156 N   0  0  0  0  0  0  0  0  0  0  0  0
  -24.7507  -21.2290   19.3301 N   0  3  0  0  0  0  0  0  0  0  0  0
  -26.0625  -15.6712   16.4132 O   0  0  0  0  0  0  0  0  0  0  0  0
  -23.4913  -28.6744   23.1799 O   0  0  0  0  0  0  0  0  0  0  0  0
  -21.4272  -25.2317   22.1907 O   0  0  0  0  0  0  0  0  0  0  0  0
  -25.5368  -23.0074   21.3637 O   0  0  0  0  0  0  0  0  0  0  0  0
  -28.3846  -21.2663   20.8193 O   0  0  0  0  0  0  0  0  0  0  0  0
  -23.9129  -10.0647   21.3662 O   0  0  0  0  0  0  0  0  0  0  0  0
  -28.8096  -28.8461   20.1186 O   0  0  0  0  0  0  0  0  0  1  0  0
  -18.6330   -9.6384   19.8348 F   0  0  0  0  0  0  0  0  0  0  0  0
  -21.9089   -9.7776   23.2488 F   0  0  0  0  0  0  0  0  0  0  0  0
  1  2  1  0  0  0  0
  1  5  2  0  0  0  0
  2  6  2  0  0  0  0
  3  8  2  0  0  0  0
  3 16  1  0  0  0  0
  4  9  1  0  0  0  0
  4 16  2  0  0  0  0
  5 18  1  0  0  0  0
  6 20  1  0  0  0  0
  7 10  2  0  0  0  0
  7 19  1  0  0  0  0
  8 22  1  0  0  0  0
  9 22  2  0  0  0  0
 10 23  1  0  0  0  0
 11 12  2  0  0  0  0
 11 24  1  0  0  0  0
 12 25  1  0  0  0  0
 13 21  1  0  0  0  0
 13 23  2  0  0  0  0
 14 25  2  0  0  0  0
 14 26  1  0  0  0  0
 15 28  2  0  0  0  0
 15 67  1  0  0  0  0
 16 27  1  0  0  0  0
 17 27  1  0  0  0  0
 17 29  2  0  0  0  0
 17 31  1  0  0  0  0
 18 20  2  0  0  0  0
 18 36  1  0  0  0  0
 19 21  2  0  0  0  0
 19 37  1  0  0  0  0
 20 45  1  0  0  0  0
 21 38  1  0  0  0  0
 22 81  1  0  0  0  0
 23 82  1  0  0  0  0
 24 26  2  0  0  0  0
 24 81  1  0  0  0  0
 25 83  1  0  0  0  0
 26 84  1  0  0  0  0
 27 64  2  0  0  0  0
 28 60  1  0  0  0  0
 28 65  1  0  0  0  0
 29 66  1  0  0  0  0
 29 70  1  0  0  0  0
 30 48  1  0  0  0  0
 30 65  1  0  0  0  0
 30 67  2  0  0  0  0
 31 71  1  0  0  0  0
 31 76  2  0  0  0  0
 32 46  1  0  0  0  0
 32 72  1  0  0  0  0
 32 77  2  0  0  0  0
 33 61  1  0  0  0  0
 33 68  1  0  0  0  0
 33 78  2  0  0  0  0
 34 62  1  0  0  0  0
 34 73  1  0  0  0  0
 34 79  2  0  0  0  0
 35 69  1  0  0  0  0
 35 74  1  0  0  0  0
 35 80  2  0  0  0  0
 36 39  1  0  0  0  0
 37 46  1  0  0  0  0
 38 68  1  0  0  0  0
 39 41  1  0  0  0  0
 40 42  1  0  0  0  0
 40 43  1  0  0  0  0
 41 45  1  0  0  0  0
 42 47  1  0  0  0  0
 43 69  1  0  0  0  0
 44 47  1  0  0  0  0
 44 69  1  0  0  0  0
 45 72  1  0  0  0  0
 46 68  1  0  0  0  0
 47 66  1  0  0  0  0
 49 60  1  0  0  0  0
 50 62  1  0  0  0  0
 51 63  1  0  0  0  0
 52 63  1  0  0  0  0
 53 63  1  0  0  0  0
 54 75  1  0  0  0  0
 55 56  1  0  0  0  0
 55 57  1  0  0  0  0
 56 58  1  0  0  0  0
 57 59  1  0  0  0  0
 58 65  1  0  0  0  0
 59 82  1  0  0  0  0
 60 74  1  0  0  0  0
 61 63  1  0  0  0  0
 61 73  1  0  0  0  0
 62 75  1  0  0  0  0
 64 66  1  0  0  0  0
M  CHG  2  67   1  75   1
M  ISO  4  35 100  59 101  74 100  82 101
M  END
> <Batch ID>
0048

> <Smiles>
CNC(C)C(=O)NC(C(=O)N1Cc2cc([101O:1][101CH2:1]CCCCn3c(C(C)[100NH:0][100C:0](=O)N4CCCC(n5nc(-c6ccc(Oc7ccc(F)cc7F)cc6)c(C(N)=O)c5N)C4)cnc3C)ccc2CC1C(=O)NC1CCCc2ccccc21)C(C)(C)C

> <Shape>
0.204

> <Color>
0.075

> <Negative vol penalty>
0.000

$$$$

  -OEChem-04052317263D

 86 94  0     1  0  0  0  0  0999 V2000
  -29.9665  -11.7869   20.0467 C   0  0  0  0  0  0  0  0  0  0  0  0
  -30.0786  -13.0824   20.5411 C   0  0  0  0  0  0  0  0  0  0  0  0
  -26.3994  -28.0161   18.8851 C   0  0  0  0  0  0  0  0  0  0  0  0
  -26.1679  -27.2906   21.1779 C   0  0  0  0  0  0  0  0  0  0  0  0
  -28.9081  -11.4533   19.2026 C   0  0  0  0  0  0  0  0  0  0  0  0
  -29.1328  -14.0454   20.1909 C   0  0  0  0  0  0  0  0  0  0  0  0
  -27.0532  -18.6113   23.7028 C   0  0  0  0  0  0  0  0  0  0  0  0
  -25.3875  -28.9560   19.0802 C   0  0  0  0  0  0  0  0  0  0  0  0
  -25.1560  -28.2305   21.3731 C   0  0  0  0  0  0  0  0  0  0  0  0
  -27.3876  -19.9625   23.7797 C   0  0  0  0  0  0  0  0  0  0  0  0
  -24.9208  -31.5552   21.9317 C   0  0  0  0  0  0  0  0  0  0  0  0
  -24.9642  -32.3191   23.0980 C   0  0  0  0  0  0  0  0  0  0  0  0
  -25.5477  -20.4953   22.3134 C   0  0  0  0  0  0  0  0  0  0  0  0
  -22.8053  -31.4503   23.7472 C   0  0  0  0  0  0  0  0  0  0  0  0
  -31.3428  -22.7645   24.8573 C   0  0  0  0  0  0  0  0  0  0  0  0
  -26.7896  -27.1833   19.9339 C   0  0  0  0  0  0  0  0  0  0  0  0
  -29.2160  -26.3958   19.9307 C   0  0  0  0  0  0  0  0  0  0  0  0
  -27.9436  -12.4101   18.8496 C   0  0  0  0  0  0  0  0  0  0  0  0
  -25.9682  -18.1900   22.9205 C   0  0  0  0  0  0  0  0  0  0  0  0
  -28.0613  -13.7246   19.3402 C   0  0  0  0  0  0  0  0  0  0  0  0
  -25.2000  -19.1384   22.2303 C   0  0  0  0  0  0  0  0  0  0  0  0
  -24.7658  -29.0633   20.3243 C   0  0  0  0  0  0  0  0  0  0  0  0
  -26.6367  -20.9045   23.0827 C   0  0  0  0  0  0  0  0  0  0  0  0
  -23.8197  -30.7389   21.6731 C   0  0  0  0  0  0  0  0  0  0  0  0
  -23.9064  -32.2666   24.0057 C   0  0  0  0  0  0  0  0  0  0  0  0
  -22.7619  -30.6864   22.5809 C   0  0  0  0  0  0  0  0  0  0  0  0
  -27.8345  -26.2117   19.7327 C   0  0  0  0  0  0  0  0  0  0  0  0
  -30.7693  -23.9451   24.3482 C   0  0  0  0  0  0  0  0  0  0  0  0
  -32.5226  -22.6305   24.1670 C   0  0  0  0  0  0  0  0  0  0  0  0
  -29.7741  -25.1840   19.6044 C   0  0  0  0  0  0  0  0  0  0  0  0
  -29.9310  -27.5583   20.3702 C   0  0  0  0  0  0  0  0  0  0  0  0
  -25.6298  -16.3031   20.3850 C   0  0  0  0  0  0  0  0  0  0  0  0
  -29.7154  -19.6009   19.9446 C   0  0  0  0  0  0  0  0  0  0  0  0
  -22.4698  -16.8000   20.9238 C   0  0  0  0  0  0  0  0  0  0  0  0
  -20.0356  -18.7826   22.2620 C   0  0  0  0  0  0  0  0  0  0  0  0
  -26.8437  -12.0147   17.8963 C   0  0  0  0  0  0  0  0  0  0  0  0
  -25.6041  -16.7315   22.8693 C   0  0  0  0  0  0  0  0  0  0  0  0
  -24.0133  -18.7399   21.3927 C   0  0  0  0  0  0  0  0  0  0  0  0
  -25.6750  -12.9965   17.8739 C   0  0  0  0  0  0  0  0  0  0  0  0
  -27.7776  -21.1308   17.3476 C   0  0  0  0  0  0  0  0  0  0  0  0
  -26.1847  -14.4313   17.7830 C   0  0  0  0  0  0  0  0  0  0  0  0
  -27.7077  -22.5980   17.7687 C   0  0  0  0  0  0  0  0  0  0  0  0
  -27.7587  -20.2012   18.5569 C   0  0  0  0  0  0  0  0  0  0  0  0
  -28.7578  -21.9574   19.9850 C   0  0  0  0  0  0  0  0  0  0  0  0
  -27.0416  -14.7906   19.0030 C   0  0  1  0  0  0  0  0  0  0  0  0
  -24.7928  -16.3613   21.6315 C   0  0  1  0  0  0  0  0  0  0  0  0
  -28.8053  -22.9315   18.7946 C   0  0  2  0  0  0  0  0  0  0  0  0
  -17.5439  -18.9467   22.5101 C   0  0  0  0  0  0  0  0  0  0  0  0
  -22.2409  -17.6868   18.0133 C   0  0  0  0  0  0  0  0  0  0  0  0
  -20.0272  -18.7136   18.5730 C   0  0  0  0  0  0  0  0  0  0  0  0
  -20.3566  -16.2531   18.8183 C   0  0  0  0  0  0  0  0  0  0  0  0
  -33.6368  -24.0034   22.3814 C   0  0  0  0  0  0  0  0  0  0  0  0
  -20.2070  -18.6882   25.2151 C   0  0  0  0  0  0  0  0  0  0  0  0
  -33.8932  -18.4630   22.3712 C   0  0  0  0  0  0  0  0  0  0  0  0
  -29.4588  -24.5758   24.7463 C   0  0  0  0  0  0  0  0  0  0  0  0
  -33.5755  -21.6011   24.2395 C   0  0  0  0  0  0  0  0  0  0  0  0
  -30.7622  -20.0514   20.9321 C   0  0  0  0  0  0  0  0  0  0  0  0
  -28.2647  -24.0859   23.9244 C   0  0  0  0  0  0  0  0  0  0  0  0
  -33.0838  -20.1888   24.6403 C   0  0  0  0  0  0  0  0  0  0  0  0
  -31.6856  -18.9067   21.3081 C   0  0  0  0  0  0  0  0  0  0  0  0
  -32.0799  -19.5611   23.6781 C   0  0  0  0  0  0  0  0  0  0  0  0
  -28.0837  -22.5730   23.9648 C   0  0  0  0  0  0  0  0  0  1  0  0
  -21.4554  -17.8213   20.4691 C   0  0  1  0  0  0  0  0  0  0  0  0
  -18.8394  -18.4565   23.1379 C   0  0  2  0  0  0  0  0  0  0  0  0
  -21.0435  -17.6263   18.9826 C   0  0  0  0  0  0  0  0  0  0  0  0
  -27.5333  -24.9800   19.3131 N   0  0  0  0  0  0  0  0  0  0  0  0
  -31.5228  -24.5203   23.4073 N   0  0  0  0  0  0  0  0  0  0  0  0
  -32.5819  -23.6977   23.3197 N   0  0  0  0  0  0  0  0  0  0  0  0
  -28.7335  -24.3791   19.2446 N   0  0  0  0  0  0  0  0  0  0  0  0
  -23.7011  -17.3013   21.3693 N   0  0  0  0  0  0  0  0  0  0  0  0
  -28.8015  -20.5647   19.5181 N   0  0  0  0  0  0  0  0  0  0  0  0
  -31.0486  -24.7390   19.5931 N   0  0  0  0  0  0  0  0  0  0  0  0
  -29.2028  -28.7194   20.6633 N   0  0  0  0  0  0  0  0  0  0  0  0
  -26.2003  -15.0672   20.1476 N   0  0  0  0  0  0  0  0  0  0  0  0
  -20.3451  -17.7418   21.4122 N   0  0  0  0  0  0  0  0  0  0  0  0
  -18.9860  -19.0984   24.4749 N   0  3  0  0  0  0  0  0  0  0  0  0
  -32.6861  -19.3695   22.3399 N   0  3  1  0  0  0  0  0  0  0  0  0
  -31.1802  -27.5721   20.4835 O   0  0  0  0  0  0  0  0  0  0  0  0
  -25.7479  -17.3049   19.6893 O   0  0  0  0  0  0  0  0  0  0  0  0
  -29.7134  -18.4278   19.5625 O   0  0  0  0  0  0  0  0  0  0  0  0
  -22.1778  -15.6019   20.8919 O   0  0  0  0  0  0  0  0  0  0  0  0
  -20.6333  -19.8548   22.3229 O   0  0  0  0  0  0  0  0  0  0  0  0
  -23.7785  -29.9805   20.5152 O   0  0  0  0  0  0  0  0  0  0  0  0
  -26.9614  -22.2240   23.1556 O   0  0  0  0  0  0  0  0  0  1  0  0
  -23.9489  -32.9990   25.1264 F   0  0  0  0  0  0  0  0  0  0  0  0
  -21.7019  -29.9032   22.3385 F   0  0  0  0  0  0  0  0  0  0  0  0
  1  2  1  0  0  0  0
  1  5  2  0  0  0  0
  2  6  2  0  0  0  0
  3  8  2  0  0  0  0
  3 16  1  0  0  0  0
  4  9  1  0  0  0  0
  4 16  2  0  0  0  0
  5 18  1  0  0  0  0
  6 20  1  0  0  0  0
  7 10  2  0  0  0  0
  7 19  1  0  0  0  0
  8 22  1  0  0  0  0
  9 22  2  0  0  0  0
 10 23  1  0  0  0  0
 11 12  2  0  0  0  0
 11 24  1  0  0  0  0
 12 25  1  0  0  0  0
 13 21  1  0  0  0  0
 13 23  2  0  0  0  0
 14 25  2  0  0  0  0
 14 26  1  0  0  0  0
 15 28  1  0  0  0  0
 15 29  2  0  0  0  0
 16 27  1  0  0  0  0
 17 27  1  0  0  0  0
 17 30  2  0  0  0  0
 17 31  1  0  0  0  0
 18 20  2  0  0  0  0
 18 36  1  0  0  0  0
 19 21  2  0  0  0  0
 19 37  1  0  0  0  0
 20 45  1  0  0  0  0
 21 38  1  0  0  0  0
 22 83  1  0  0  0  0
 23 84  1  0  0  0  0
 24 26  2  0  0  0  0
 24 83  1  0  0  0  0
 25 85  1  0  0  0  0
 26 86  1  0  0  0  0
 27 66  2  0  0  0  0
 28 55  1  0  0  0  0
 28 67  2  0  0  0  0
 29 56  1  0  0  0  0
 29 68  1  0  0  0  0
 30 69  1  0  0  0  0
 30 72  1  0  0  0  0
 31 73  1  0  0  0  0
 31 78  2  0  0  0  0
 32 46  1  0  0  0  0
 32 74  1  0  0  0  0
 32 79  2  0  0  0  0
 33 57  1  0  0  0  0
 33 71  1  0  0  0  0
 33 80  2  0  0  0  0
 34 63  1  0  0  0  0
 34 70  1  0  0  0  0
 34 81  2  0  0  0  0
 35 64  1  0  0  0  0
 35 75  1  0  0  0  0
 35 82  2  0  0  0  0
 36 39  1  0  0  0  0
 37 46  1  0  0  0  0
 38 70  1  0  0  0  0
 39 41  1  0  0  0  0
 40 42  1  0  0  0  0
 40 43  1  0  0  0  0
 41 45  1  0  0  0  0
 42 47  1  0  0  0  0
 43 71  1  0  0  0  0
 44 47  1  0  0  0  0
 44 71  1  0  0  0  0
 45 74  1  0  0  0  0
 46 70  1  0  0  0  0
 47 69  1  0  0  0  0
 48 64  1  0  0  0  0
 49 65  1  0  0  0  0
 50 65  1  0  0  0  0
 51 65  1  0  0  0  0
 52 68  1  0  0  0  0
 53 76  1  0  0  0  0
 54 77  1  0  0  0  0
 55 58  1  0  0  0  0
 56 59  1  0  0  0  0
 57 60  1  0  0  0  0
 58 62  1  0  0  0  0
 59 61  1  0  0  0  0
 60 77  1  0  0  0  0
 61 77  1  0  0  0  0
 62 84  1  0  0  0  0
 63 65  1  0  0  0  0
 63 75  1  0  0  0  0
 64 76  1  0  0  0  0
 66 69  1  0  0  0  0
 67 68  1  0  0  0  0
M  CHG  2  76   1  77   1
M  ISO  4  33 100  57 100  62 101  84 101
M  END
> <Batch ID>
0048

> <Smiles>
CNC(C)C(=O)NC(C(=O)N1Cc2cc([101O:1][101CH2:1]CCc3cc(CCCN(C)C[100CH2:0][100C:0](=O)N4CCCC(n5nc(-c6ccc(Oc7ccc(F)cc7F)cc6)c(C(N)=O)c5N)C4)n(C)n3)ccc2CC1C(=O)NC1CCCc2ccccc21)C(C)(C)C

> <Shape>
0.204

> <Color>
0.071

> <Negative vol penalty>
0.000

$$$$

  -OEChem-04052317263D

 84 92  0     1  0  0  0  0  0999 V2000
  -17.8544  -29.7585   25.4742 C   0  0  0  0  0  0  0  0  0  0  0  0
  -19.2140  -29.8628   25.7498 C   0  0  0  0  0  0  0  0  0  0  0  0
  -27.7938  -13.5015   19.2888 C   0  0  0  0  0  0  0  0  0  0  0  0
  -29.8876  -13.6158   20.4888 C   0  0  0  0  0  0  0  0  0  0  0  0
  -17.4247  -29.0655   24.3432 C   0  0  0  0  0  0  0  0  0  0  0  0
  -20.1448  -29.2731   24.8951 C   0  0  0  0  0  0  0  0  0  0  0  0
  -25.7212  -31.3875   23.5027 C   0  0  0  0  0  0  0  0  0  0  0  0
  -28.1615  -12.2622   18.7651 C   0  0  0  0  0  0  0  0  0  0  0  0
  -30.2554  -12.3764   19.9651 C   0  0  0  0  0  0  0  0  0  0  0  0
  -26.9912  -31.0712   23.9831 C   0  0  0  0  0  0  0  0  0  0  0  0
  -29.5759   -9.1206   20.5635 C   0  0  0  0  0  0  0  0  0  0  0  0
  -30.1327   -8.1883   21.4388 C   0  0  0  0  0  0  0  0  0  0  0  0
  -27.3050  -29.5519   22.1358 C   0  0  0  0  0  0  0  0  0  0  0  0
  -32.1486   -8.1428   20.1080 C   0  0  0  0  0  0  0  0  0  0  0  0
  -28.6568  -14.1784   20.1506 C   0  0  0  0  0  0  0  0  0  0  0  0
  -27.5785  -15.7028   21.8888 C   0  0  0  0  0  0  0  0  0  0  0  0
  -18.3511  -28.4753   23.4690 C   0  0  0  0  0  0  0  0  0  0  0  0
  -25.2284  -30.7792   22.3393 C   0  0  0  0  0  0  0  0  0  0  0  0
  -19.7270  -28.5705   23.7521 C   0  0  0  0  0  0  0  0  0  0  0  0
  -26.0294  -29.8641   21.6413 C   0  0  0  0  0  0  0  0  0  0  0  0
  -29.3923  -11.6996   19.1032 C   0  0  0  0  0  0  0  0  0  0  0  0
  -27.7822  -30.1511   23.3013 C   0  0  0  0  0  0  0  0  0  0  0  0
  -30.3053   -9.5639   19.4603 C   0  0  0  0  0  0  0  0  0  0  0  0
  -31.4191   -7.6994   21.2111 C   0  0  0  0  0  0  0  0  0  0  0  0
  -31.5917   -9.0750   19.2326 C   0  0  0  0  0  0  0  0  0  0  0  0
  -28.2777  -15.4590   20.6915 C   0  0  0  0  0  0  0  0  0  0  0  0
  -27.4695  -17.0706   21.9503 C   0  0  0  0  0  0  0  0  0  0  0  0
  -29.0023  -25.5876   25.3577 C   0  0  0  0  0  0  0  0  0  0  0  0
  -29.0683  -26.7880   25.9541 C   0  0  0  0  0  0  0  0  0  0  0  0
  -30.4914  -26.8329   24.1620 C   0  0  0  0  0  0  0  0  0  0  0  0
  -27.0727  -14.7758   22.8586 C   0  0  0  0  0  0  0  0  0  0  0  0
  -22.7614  -28.8904   21.6682 C   0  0  0  0  0  0  0  0  0  0  0  0
  -29.8208  -22.0277   21.5303 C   0  0  0  0  0  0  0  0  0  0  0  0
  -23.7561  -29.3306   18.6122 C   0  0  0  0  0  0  0  0  0  0  0  0
  -26.3049  -30.1010   16.4774 C   0  0  0  0  0  0  0  0  0  0  0  0
  -17.8369  -27.6961   22.2846 C   0  0  0  0  0  0  0  0  0  0  0  0
  -23.8669  -31.1512   21.8194 C   0  0  0  0  0  0  0  0  0  0  0  0
  -25.5548  -29.1984   20.3764 C   0  0  0  0  0  0  0  0  0  0  0  0
  -18.9033  -27.4199   21.2277 C   0  0  0  0  0  0  0  0  0  0  0  0
  -28.4201  -20.6185   18.4842 C   0  0  0  0  0  0  0  0  0  0  0  0
  -20.1855  -26.9155   21.8822 C   0  0  0  0  0  0  0  0  0  0  0  0
  -28.2295  -19.1559   18.8835 C   0  0  0  0  0  0  0  0  0  0  0  0
  -29.6690  -21.2174   19.1257 C   0  0  0  0  0  0  0  0  0  0  0  0
  -29.5117  -19.6275   21.0157 C   0  0  0  0  0  0  0  0  0  0  0  0
  -20.7683  -27.9656   22.8356 C   0  0  1  0  0  0  0  0  0  0  0  0
  -23.2634  -30.0861   20.9091 C   0  0  1  0  0  0  0  0  0  0  0  0
  -28.2458  -18.9950   20.4137 C   0  0  2  0  0  0  0  0  0  0  0  0
  -28.3387  -27.2608   27.1551 C   0  0  0  0  0  0  0  0  0  0  0  0
  -26.8229  -30.3431   14.0340 C   0  0  0  0  0  0  0  0  0  0  0  0
  -23.8148  -26.2934   18.3261 C   0  0  0  0  0  0  0  0  0  0  0  0
  -25.2093  -26.5840   16.2672 C   0  0  0  0  0  0  0  0  0  0  0  0
  -22.8944  -27.5103   16.3445 C   0  0  0  0  0  0  0  0  0  0  0  0
  -28.4252  -25.6290   21.8398 C   0  0  0  0  0  0  0  0  0  0  0  0
  -27.7119  -23.5878   23.0832 C   0  0  0  0  0  0  0  0  0  0  0  0
  -27.0200  -32.9554   16.7932 C   0  0  0  0  0  0  0  0  0  0  0  0
  -29.3332  -23.4022   21.1469 C   0  0  0  0  0  0  0  0  0  0  0  0
  -30.3126  -28.9411   25.5867 C   0  0  0  0  0  0  0  0  0  0  0  0
  -30.0437  -24.4519   23.3848 C   0  0  0  0  0  0  0  0  0  0  0  0
  -29.2223  -29.9158   25.1792 C   0  0  0  0  0  0  0  0  0  1  0  0
  -24.7213  -28.6257   17.6900 C   0  0  1  0  0  0  0  0  0  0  0  0
  -26.3793  -31.0576   15.3011 C   0  0  2  0  0  0  0  0  0  0  0  0
  -24.1684  -27.2642   17.1818 C   0  0  0  0  0  0  0  0  0  0  0  0
  -28.8997  -24.2565   22.3616 C   0  0  0  0  0  0  0  0  0  0  0  0
  -28.5907  -16.5818   20.0394 N   0  0  0  0  0  0  0  0  0  0  0  0
  -28.0858  -17.5444   20.8297 N   0  0  0  0  0  0  0  0  0  0  0  0
  -29.8458  -25.5706   24.2711 N   0  0  0  0  0  0  0  0  0  0  0  0
  -29.9665  -27.5836   25.2584 N   0  0  0  0  0  0  0  0  0  0  0  0
  -24.2140  -29.5904   19.9117 N   0  0  0  0  0  0  0  0  0  0  0  0
  -29.6597  -21.0191   20.5801 N   0  0  0  0  0  0  0  0  0  0  0  0
  -26.9075  -17.9022   22.8531 N   0  0  0  0  0  0  0  0  0  0  0  0
  -27.2717  -13.4057   22.6405 N   0  0  0  0  0  0  0  0  0  0  0  0
  -21.4504  -29.0018   22.0902 N   0  0  0  0  0  0  0  0  0  0  0  0
  -25.0393  -29.5750   16.6289 N   0  0  0  0  0  0  0  0  0  0  0  0
  -27.3473  -32.1543   15.5857 N   0  3  0  0  0  0  0  0  0  0  0  0
  -31.3061  -27.1929   23.3254 O   0  0  0  0  0  0  0  0  0  0  0  0
  -26.4482  -15.1505   23.8799 O   0  0  0  0  0  0  0  0  0  0  0  0
  -23.5079  -27.9369   21.8557 O   0  0  0  0  0  0  0  0  0  0  0  0
  -30.3268  -21.8570   22.6425 O   0  0  0  0  0  0  0  0  0  0  0  0
  -22.6397  -29.6458   18.1927 O   0  0  0  0  0  0  0  0  0  0  0  0
  -27.2736  -29.8430   17.1885 O   0  0  0  0  0  0  0  0  0  0  0  0
  -29.7514  -10.4901   18.5925 O   0  0  0  0  0  0  0  0  0  0  0  0
  -29.0219  -29.8401   23.7684 O   0  0  0  0  0  0  0  0  0  1  0  0
  -31.9543   -6.8052   22.0527 F   0  0  0  0  0  0  0  0  0  0  0  0
  -32.2978   -9.4981   18.1751 F   0  0  0  0  0  0  0  0  0  0  0  0
  1  2  1  0  0  0  0
  1  5  2  0  0  0  0
  2  6  2  0  0  0  0
  3  8  2  0  0  0  0
  3 15  1  0  0  0  0
  4  9  1  0  0  0  0
  4 15  2  0  0  0  0
  5 17  1  0  0  0  0
  6 19  1  0  0  0  0
  7 10  2  0  0  0  0
  7 18  1  0  0  0  0
  8 21  1  0  0  0  0
  9 21  2  0  0  0  0
 10 22  1  0  0  0  0
 11 12  2  0  0  0  0
 11 23  1  0  0  0  0
 12 24  1  0  0  0  0
 13 20  1  0  0  0  0
 13 22  2  0  0  0  0
 14 24  2  0  0  0  0
 14 25  1  0  0  0  0
 15 26  1  0  0  0  0
 16 26  1  0  0  0  0
 16 27  2  0  0  0  0
 16 31  1  0  0  0  0
 17 19  2  0  0  0  0
 17 36  1  0  0  0  0
 18 20  2  0  0  0  0
 18 37  1  0  0  0  0
 19 45  1  0  0  0  0
 20 38  1  0  0  0  0
 21 81  1  0  0  0  0
 22 82  1  0  0  0  0
 23 25  2  0  0  0  0
 23 81  1  0  0  0  0
 24 83  1  0  0  0  0
 25 84  1  0  0  0  0
 26 64  2  0  0  0  0
 27 65  1  0  0  0  0
 27 70  1  0  0  0  0
 28 29  2  0  0  0  0
 28 66  1  0  0  0  0
 29 48  1  0  0  0  0
 29 67  1  0  0  0  0
 30 66  1  0  0  0  0
 30 67  1  0  0  0  0
 30 75  2  0  0  0  0
 31 71  1  0  0  0  0
 31 76  2  0  0  0  0
 32 46  1  0  0  0  0
 32 72  1  0  0  0  0
 32 77  2  0  0  0  0
 33 56  1  0  0  0  0
 33 69  1  0  0  0  0
 33 78  2  0  0  0  0
 34 60  1  0  0  0  0
 34 68  1  0  0  0  0
 34 79  2  0  0  0  0
 35 61  1  0  0  0  0
 35 73  1  0  0  0  0
 35 80  2  0  0  0  0
 36 39  1  0  0  0  0
 37 46  1  0  0  0  0
 38 68  1  0  0  0  0
 39 41  1  0  0  0  0
 40 42  1  0  0  0  0
 40 43  1  0  0  0  0
 41 45  1  0  0  0  0
 42 47  1  0  0  0  0
 43 69  1  0  0  0  0
 44 47  1  0  0  0  0
 44 69  1  0  0  0  0
 45 72  1  0  0  0  0
 46 68  1  0  0  0  0
 47 65  1  0  0  0  0
 49 61  1  0  0  0  0
 50 62  1  0  0  0  0
 51 62  1  0  0  0  0
 52 62  1  0  0  0  0
 53 63  1  0  0  0  0
 54 63  1  0  0  0  0
 55 74  1  0  0  0  0
 56 63  1  0  0  0  0
 57 59  1  0  0  0  0
 57 67  1  0  0  0  0
 58 63  1  0  0  0  0
 58 66  1  0  0  0  0
 59 82  1  0  0  0  0
 60 62  1  0  0  0  0
 60 73  1  0  0  0  0
 61 74  1  0  0  0  0
 64 65  1  0  0  0  0
M  CHG  1  74   1
M  ISO  4  33 100  56 100  59 101  82 101
M  END
> <Batch ID>
0048

> <Smiles>
CNC(C)C(=O)NC(C(=O)N1Cc2cc([101O:1][101CH2:1]Cn3c(C)cn(CC(C)(C)[100CH2:0][100C:0](=O)N4CCCC(n5nc(-c6ccc(Oc7ccc(F)cc7F)cc6)c(C(N)=O)c5N)C4)c3=O)ccc2CC1C(=O)NC1CCCc2ccccc21)C(C)(C)C

> <Shape>
0.228

> <Color>
0.075

> <Negative vol penalty>
0.000

$$$$

  -OEChem-04052317263D

 76 83  0     1  0  0  0  0  0999 V2000
  -22.1420  -11.6163   19.0973 C   0  0  0  0  0  0  0  0  0  0  0  0
  -21.6951  -12.7208   19.8155 C   0  0  0  0  0  0  0  0  0  0  0  0
  -25.9161  -25.8063   20.4291 C   0  0  0  0  0  0  0  0  0  0  0  0
  -25.1016  -27.9971   19.8177 C   0  0  0  0  0  0  0  0  0  0  0  0
  -23.4981  -11.2928   19.0905 C   0  0  0  0  0  0  0  0  0  0  0  0
  -22.6041  -13.5018   20.5284 C   0  0  0  0  0  0  0  0  0  0  0  0
  -22.3676  -19.5598   21.3945 C   0  0  0  0  0  0  0  0  0  0  0  0
  -27.2291  -26.2656   20.3257 C   0  0  0  0  0  0  0  0  0  0  0  0
  -26.4146  -28.4565   19.7143 C   0  0  0  0  0  0  0  0  0  0  0  0
  -21.9172  -20.3381   22.4599 C   0  0  0  0  0  0  0  0  0  0  0  0
  -29.3867  -28.0823   22.1905 C   0  0  0  0  0  0  0  0  0  0  0  0
  -30.2767  -27.7355   23.2069 C   0  0  0  0  0  0  0  0  0  0  0  0
  -24.1751  -20.4899   23.2956 C   0  0  0  0  0  0  0  0  0  0  0  0
  -31.6807  -26.6111   21.5939 C   0  0  0  0  0  0  0  0  0  0  0  0
  -24.8523  -26.6721   20.1750 C   0  0  0  0  0  0  0  0  0  0  0  0
  -22.9003  -25.1540   19.5482 C   0  0  0  0  0  0  0  0  0  0  0  0
  -24.4255  -12.0758   19.7958 C   0  0  0  0  0  0  0  0  0  0  0  0
  -23.7258  -19.2310   21.2774 C   0  0  0  0  0  0  0  0  0  0  0  0
  -23.9738  -13.1876   20.5322 C   0  0  0  0  0  0  0  0  0  0  0  0
  -24.6405  -19.7094   22.2264 C   0  0  0  0  0  0  0  0  0  0  0  0
  -27.4784  -27.5907   19.9683 C   0  0  0  0  0  0  0  0  0  0  0  0
  -22.8205  -20.8009   23.4122 C   0  0  0  0  0  0  0  0  0  0  0  0
  -29.6436  -27.6935   20.8757 C   0  0  0  0  0  0  0  0  0  0  0  0
  -31.4237  -26.9999   22.9087 C   0  0  0  0  0  0  0  0  0  0  0  0
  -30.7906  -26.9579   20.5775 C   0  0  0  0  0  0  0  0  0  0  0  0
  -23.4958  -26.1981   20.2811 C   0  0  0  0  0  0  0  0  0  0  0  0
  -21.6105  -25.0976   20.0169 C   0  0  0  0  0  0  0  0  0  0  0  0
  -23.4629  -24.3106   18.5344 C   0  0  0  0  0  0  0  0  0  0  0  0
  -25.3855  -16.5201   21.2769 C   0  0  0  0  0  0  0  0  0  0  0  0
  -27.8605  -18.4908   20.5606 C   0  0  0  0  0  0  0  0  0  0  0  0
  -19.1571  -26.8072   25.2294 C   0  0  0  0  0  0  0  0  0  0  0  0
  -29.1895  -21.6320   20.6746 C   0  0  0  0  0  0  0  0  0  0  0  0
  -25.8750  -11.6592   19.7973 C   0  0  0  0  0  0  0  0  0  0  0  0
  -24.1996  -18.4128   20.1076 C   0  0  0  0  0  0  0  0  0  0  0  0
  -26.1120  -19.4015   22.1350 C   0  0  0  0  0  0  0  0  0  0  0  0
  -26.8237  -12.7563   20.2735 C   0  0  0  0  0  0  0  0  0  0  0  0
  -18.1918  -27.8286   21.9332 C   0  0  0  0  0  0  0  0  0  0  0  0
  -26.2911  -13.4073   21.5460 C   0  0  0  0  0  0  0  0  0  0  0  0
  -19.3998  -27.4574   21.0741 C   0  0  0  0  0  0  0  0  0  0  0  0
  -18.6162  -28.2882   23.3245 C   0  0  0  0  0  0  0  0  0  0  0  0
  -20.6818  -26.9323   23.1968 C   0  0  0  0  0  0  0  0  0  0  0  0
  -24.9325  -14.0736   21.2978 C   0  0  1  0  0  0  0  0  0  0  0  0
  -25.5277  -17.7092   20.3694 C   0  0  1  0  0  0  0  0  0  0  0  0
  -20.2957  -26.4332   21.7932 C   0  0  2  0  0  0  0  0  0  0  0  0
  -30.8145  -23.4906   20.2243 C   0  0  0  0  0  0  0  0  0  0  0  0
  -19.5412  -25.3919   27.1992 C   0  0  0  0  0  0  0  0  0  0  0  0
  -21.4795  -26.4234   25.9992 C   0  0  0  0  0  0  0  0  0  0  0  0
  -29.3531  -17.2706   22.9256 C   0  0  0  0  0  0  0  0  0  0  0  0
  -30.9406  -19.2043   22.8318 C   0  0  0  0  0  0  0  0  0  0  0  0
  -30.7557  -17.6494   20.8900 C   0  0  0  0  0  0  0  0  0  0  0  0
  -27.8355  -22.3592   18.1454 C   0  0  0  0  0  0  0  0  0  0  0  0
  -21.3241  -23.6084   25.1223 C   0  0  0  0  0  0  0  0  0  0  0  0
  -20.1272  -24.5413   24.9098 C   0  0  0  0  0  0  0  0  0  0  0  0
  -21.2389  -22.3809   24.2235 C   0  0  0  0  0  0  0  0  0  1  0  0
  -28.8738  -19.2699   21.3638 C   0  0  1  0  0  0  0  0  0  0  0  0
  -29.8559  -22.4831   19.6087 C   0  0  2  0  0  0  0  0  0  0  0  0
  -20.0967  -25.7879   25.8227 C   0  0  0  0  0  0  0  0  0  0  0  0
  -29.9529  -18.3529   22.0059 C   0  0  0  0  0  0  0  0  0  0  0  0
  -22.6534  -26.7643   21.1494 N   0  0  0  0  0  0  0  0  0  0  0  0
  -21.5154  -26.0736   20.9649 N   0  0  0  0  0  0  0  0  0  0  0  0
  -26.5254  -18.5926   20.9764 N   0  0  0  0  0  0  0  0  0  0  0  0
  -19.4839  -27.2984   23.9652 N   0  0  0  0  0  0  0  0  0  0  0  0
  -20.5598  -24.3090   19.7064 N   0  0  0  0  0  0  0  0  0  0  0  0
  -24.0741  -23.1117   18.9260 N   0  0  0  0  0  0  0  0  0  0  0  0
  -25.1069  -15.3386   20.6167 N   0  0  0  0  0  0  0  0  0  0  0  0
  -29.4111  -20.2871   20.4666 N   0  0  0  0  0  0  0  0  0  0  0  0
  -28.8306  -23.2282   18.8249 N   0  3  0  0  0  0  0  0  0  0  0  0
  -23.4390  -24.6190   17.3187 O   0  0  0  0  0  0  0  0  0  0  0  0
  -25.5201  -16.6636   22.4864 O   0  0  0  0  0  0  0  0  0  0  0  0
  -28.2387  -17.8223   19.5953 O   0  0  0  0  0  0  0  0  0  0  0  0
  -18.1614  -27.1532   25.8705 O   0  0  0  0  0  0  0  0  0  0  0  0
  -28.5407  -22.1125   21.6012 O   0  0  0  0  0  0  0  0  0  0  0  0
  -28.7595  -28.0392   19.8676 O   0  0  0  0  0  0  0  0  0  0  0  0
  -22.3835  -21.5603   24.4535 O   0  0  0  0  0  0  0  0  0  1  0  0
  -32.2791  -26.6683   23.8846 F   0  0  0  0  0  0  0  0  0  0  0  0
  -31.0434  -26.5825   19.3161 F   0  0  0  0  0  0  0  0  0  0  0  0
  1  2  1  0  0  0  0
  1  5  2  0  0  0  0
  2  6  2  0  0  0  0
  3  8  2  0  0  0  0
  3 15  1  0  0  0  0
  4  9  1  0  0  0  0
  4 15  2  0  0  0  0
  5 17  1  0  0  0  0
  6 19  1  0  0  0  0
  7 10  2  0  0  0  0
  7 18  1  0  0  0  0
  8 21  1  0  0  0  0
  9 21  2  0  0  0  0
 10 22  1  0  0  0  0
 11 12  2  0  0  0  0
 11 23  1  0  0  0  0
 12 24  1  0  0  0  0
 13 20  1  0  0  0  0
 13 22  2  0  0  0  0
 14 24  2  0  0  0  0
 14 25  1  0  0  0  0
 15 26  1  0  0  0  0
 16 26  1  0  0  0  0
 16 27  2  0  0  0  0
 16 28  1  0  0  0  0
 17 19  2  0  0  0  0
 17 33  1  0  0  0  0
 18 20  2  0  0  0  0
 18 34  1  0  0  0  0
 19 42  1  0  0  0  0
 20 35  1  0  0  0  0
 21 73  1  0  0  0  0
 22 74  1  0  0  0  0
 23 25  2  0  0  0  0
 23 73  1  0  0  0  0
 24 75  1  0  0  0  0
 25 76  1  0  0  0  0
 26 59  2  0  0  0  0
 27 60  1  0  0  0  0
 27 63  1  0  0  0  0
 28 64  1  0  0  0  0
 28 68  2  0  0  0  0
 29 43  1  0  0  0  0
 29 65  1  0  0  0  0
 29 69  2  0  0  0  0
 30 55  1  0  0  0  0
 30 61  1  0  0  0  0
 30 70  2  0  0  0  0
 31 57  1  0  0  0  0
 31 62  1  0  0  0  0
 31 71  2  0  0  0  0
 32 56  1  0  0  0  0
 32 66  1  0  0  0  0
 32 72  2  0  0  0  0
 33 36  1  0  0  0  0
 34 43  1  0  0  0  0
 35 61  1  0  0  0  0
 36 38  1  0  0  0  0
 37 39  1  0  0  0  0
 37 40  1  0  0  0  0
 38 42  1  0  0  0  0
 39 44  1  0  0  0  0
 40 62  1  0  0  0  0
 41 44  1  0  0  0  0
 41 62  1  0  0  0  0
 42 65  1  0  0  0  0
 43 61  1  0  0  0  0
 44 60  1  0  0  0  0
 45 56  1  0  0  0  0
 46 57  1  0  0  0  0
 47 57  1  0  0  0  0
 48 58  1  0  0  0  0
 49 58  1  0  0  0  0
 50 58  1  0  0  0  0
 51 67  1  0  0  0  0
 52 53  1  0  0  0  0
 52 54  1  0  0  0  0
 53 57  1  0  0  0  0
 54 74  1  0  0  0  0
 55 58  1  0  0  0  0
 55 66  1  0  0  0  0
 56 67  1  0  0  0  0
 59 60  1  0  0  0  0
M  CHG  1  67   1
M  ISO  4  31 100  54 101  57 100  74 101
M  END
> <Batch ID>
0048

> <Smiles>
CNC(C)C(=O)NC(C(=O)N1Cc2cc([101O:1][101CH2:1]CC[100C:0](C)(C)[100C:0](=O)N3CCCC(n4nc(-c5ccc(Oc6ccc(F)cc6F)cc5)c(C(N)=O)c4N)C3)ccc2CC1C(=O)NC1CCCc2ccccc21)C(C)(C)C

> <Shape>
0.210

> <Color>
0.063

> <Negative vol penalty>
0.000

$$$$

  -OEChem-04052317263D

 86 94  0     1  0  0  0  0  0999 V2000
  -26.1009  -19.6639   27.0933 C   0  0  0  0  0  0  0  0  0  0  0  0
  -26.5314  -20.3837   25.9833 C   0  0  0  0  0  0  0  0  0  0  0  0
  -26.5276  -15.6415   21.4592 C   0  0  0  0  0  0  0  0  0  0  0  0
  -26.6008  -15.2757   19.0722 C   0  0  0  0  0  0  0  0  0  0  0  0
  -24.7467  -19.6385   27.4239 C   0  0  0  0  0  0  0  0  0  0  0  0
  -25.6076  -21.0778   25.2027 C   0  0  0  0  0  0  0  0  0  0  0  0
  -27.1839  -25.7410   24.0133 C   0  0  0  0  0  0  0  0  0  0  0  0
  -26.1516  -14.3122   21.6515 C   0  0  0  0  0  0  0  0  0  0  0  0
  -26.2249  -13.9462   19.2644 C   0  0  0  0  0  0  0  0  0  0  0  0
  -28.1231  -25.8537   22.9891 C   0  0  0  0  0  0  0  0  0  0  0  0
  -24.8228  -11.1086   22.7445 C   0  0  0  0  0  0  0  0  0  0  0  0
  -23.7819  -10.8498   23.6363 C   0  0  0  0  0  0  0  0  0  0  0  0
  -26.3649  -26.4558   21.4511 C   0  0  0  0  0  0  0  0  0  0  0  0
  -22.2946  -12.1974   22.2912 C   0  0  0  0  0  0  0  0  0  0  0  0
  -31.4457  -23.9965   18.7884 C   0  0  0  0  0  0  0  0  0  0  0  0
  -26.7521  -16.1233   20.1695 C   0  0  0  0  0  0  0  0  0  0  0  0
  -28.4489  -18.0133   19.9311 C   0  0  0  0  0  0  0  0  0  0  0  0
  -23.8070  -20.3405   26.6526 C   0  0  0  0  0  0  0  0  0  0  0  0
  -25.8243  -25.9746   23.7611 C   0  0  0  0  0  0  0  0  0  0  0  0
  -24.2393  -21.0607   25.5226 C   0  0  0  0  0  0  0  0  0  0  0  0
  -25.4108  -26.3479   22.4744 C   0  0  0  0  0  0  0  0  0  0  0  0
  -26.0004  -13.4645   20.5541 C   0  0  0  0  0  0  0  0  0  0  0  0
  -27.7134  -26.2083   21.7072 C   0  0  0  0  0  0  0  0  0  0  0  0
  -24.5996  -11.9118   21.6261 C   0  0  0  0  0  0  0  0  0  0  0  0
  -22.5178  -11.3942   23.4096 C   0  0  0  0  0  0  0  0  0  0  0  0
  -23.3355  -12.4562   21.3995 C   0  0  0  0  0  0  0  0  0  0  0  0
  -27.1399  -17.4967   19.9703 C   0  0  0  0  0  0  0  0  0  0  0  0
  -30.0729  -25.5404   18.2762 C   0  0  0  0  0  0  0  0  0  0  0  0
  -30.0221  -24.6433   17.2355 C   0  0  0  0  0  0  0  0  0  0  0  0
  -28.2803  -19.3597   19.7186 C   0  0  0  0  0  0  0  0  0  0  0  0
  -29.7048  -17.3365   20.0738 C   0  0  0  0  0  0  0  0  0  0  0  0
  -23.1779  -24.2222   23.9318 C   0  0  0  0  0  0  0  0  0  0  0  0
  -21.7313  -27.0449   23.2518 C   0  0  0  0  0  0  0  0  0  0  0  0
  -21.9625  -30.1637   21.8856 C   0  0  0  0  0  0  0  0  0  0  0  0
  -23.4594  -22.2570   17.2891 C   0  0  0  0  0  0  0  0  0  0  0  0
  -22.3479  -20.2447   27.0218 C   0  0  0  0  0  0  0  0  0  0  0  0
  -24.8272  -25.8749   24.8828 C   0  0  0  0  0  0  0  0  0  0  0  0
  -23.9657  -26.6292   22.1563 C   0  0  0  0  0  0  0  0  0  0  0  0
  -21.4809  -21.3131   26.3605 C   0  0  0  0  0  0  0  0  0  0  0  0
  -25.1954  -22.9269   20.4890 C   0  0  0  0  0  0  0  0  0  0  0  0
  -21.8115  -21.4250   24.8756 C   0  0  0  0  0  0  0  0  0  0  0  0
  -25.9433  -21.6191   20.7423 C   0  0  0  0  0  0  0  0  0  0  0  0
  -23.9269  -22.7055   19.6707 C   0  0  0  0  0  0  0  0  0  0  0  0
  -24.9039  -20.6814   18.6397 C   0  0  0  0  0  0  0  0  0  0  0  0
  -23.2708  -21.8466   24.6656 C   0  0  1  0  0  0  0  0  0  0  0  0
  -23.4018  -25.6338   24.3954 C   0  0  1  0  0  0  0  0  0  0  0  0
  -26.2114  -20.8758   19.4221 C   0  0  2  0  0  0  0  0  0  0  0  0
  -23.1595  -20.2297   14.7251 C   0  0  0  0  0  0  0  0  0  0  0  0
  -20.6038  -32.2271   21.4453 C   0  0  0  0  0  0  0  0  0  0  0  0
  -20.3345  -25.6285   20.9382 C   0  0  0  0  0  0  0  0  0  0  0  0
  -19.7697  -27.8774   19.9939 C   0  0  0  0  0  0  0  0  0  0  0  0
  -18.8817  -27.2050   22.2260 C   0  0  0  0  0  0  0  0  0  0  0  0
  -31.2254  -22.4758   16.8155 C   0  0  0  0  0  0  0  0  0  0  0  0
  -23.7471  -31.8352   23.5530 C   0  0  0  0  0  0  0  0  0  0  0  0
  -29.3042  -26.8285   18.4440 C   0  0  0  0  0  0  0  0  0  0  0  0
  -29.2386  -24.6288   15.9873 C   0  0  0  0  0  0  0  0  0  0  0  0
  -25.5649  -23.9050   15.2424 C   0  0  0  0  0  0  0  0  0  0  0  0
  -23.2970  -21.7302   14.8858 C   0  0  0  0  0  0  0  0  0  0  0  0
  -25.4735  -22.4786   15.7737 C   0  0  0  0  0  0  0  0  0  0  0  0
  -26.9986  -24.3133   14.9283 C   0  0  0  0  0  0  0  0  0  0  0  0
  -28.1384  -26.6856   19.4164 C   0  0  0  0  0  0  0  0  0  1  0  0
  -21.3353  -27.7656   21.9858 C   0  0  1  0  0  0  0  0  0  0  0  0
  -21.5476  -31.5265   22.4102 C   0  0  2  0  0  0  0  0  0  0  0  0
  -20.1074  -27.1120   21.2912 C   0  0  0  0  0  0  0  0  0  0  0  0
  -30.9611  -25.1322   19.2395 N   0  0  0  0  0  0  0  0  0  0  0  0
  -26.2085  -18.4382   19.7968 N   0  0  0  0  0  0  0  0  0  0  0  0
  -30.9071  -23.6600   17.5776 N   0  0  0  0  0  0  0  0  0  0  0  0
  -26.9332  -19.5600   19.6467 N   0  0  0  0  0  0  0  0  0  0  0  0
  -23.0279  -26.5123   23.2852 N   0  0  0  0  0  0  0  0  0  0  0  0
  -24.2035  -21.9594   18.4426 N   0  0  0  0  0  0  0  0  0  0  0  0
  -29.1546  -20.3801   19.5884 N   0  0  0  0  0  0  0  0  0  0  0  0
  -29.6969  -15.9513   20.2866 N   0  0  0  0  0  0  0  0  0  0  0  0
  -23.4253  -23.2665   24.8987 N   0  0  0  0  0  0  0  0  0  0  0  0
  -21.1387  -29.1630   22.3560 N   0  0  0  0  0  0  0  0  0  0  0  0
  -24.0968  -22.0757   16.0524 N   0  0  0  0  0  0  0  0  0  0  0  0
  -22.7448  -32.3917   22.6081 N   0  3  0  0  0  0  0  0  0  0  0  0
  -27.7981  -24.2721   16.1770 N   0  3  0  0  0  0  0  0  0  0  0  0
  -30.8010  -17.9448   20.0307 O   0  0  0  0  0  0  0  0  0  0  0  0
  -22.8066  -24.0155   22.7824 O   0  0  0  0  0  0  0  0  0  0  0  0
  -20.9227  -26.9639   24.1798 O   0  0  0  0  0  0  0  0  0  0  0  0
  -22.9191  -30.0035   21.1308 O   0  0  0  0  0  0  0  0  0  0  0  0
  -22.2951  -22.6707   17.3609 O   0  0  0  0  0  0  0  0  0  0  0  0
  -25.6338  -12.1671   20.7413 O   0  0  0  0  0  0  0  0  0  0  0  0
  -28.6280  -26.3184   20.7056 O   0  0  0  0  0  0  0  0  0  1  0  0
  -21.5179  -11.1444   24.2652 F   0  0  0  0  0  0  0  0  0  0  0  0
  -23.1147  -13.2276   20.3262 F   0  0  0  0  0  0  0  0  0  0  0  0
  1  2  1  0  0  0  0
  1  5  2  0  0  0  0
  2  6  2  0  0  0  0
  3  8  2  0  0  0  0
  3 16  1  0  0  0  0
  4  9  1  0  0  0  0
  4 16  2  0  0  0  0
  5 18  1  0  0  0  0
  6 20  1  0  0  0  0
  7 10  2  0  0  0  0
  7 19  1  0  0  0  0
  8 22  1  0  0  0  0
  9 22  2  0  0  0  0
 10 23  1  0  0  0  0
 11 12  2  0  0  0  0
 11 24  1  0  0  0  0
 12 25  1  0  0  0  0
 13 21  1  0  0  0  0
 13 23  2  0  0  0  0
 14 25  2  0  0  0  0
 14 26  1  0  0  0  0
 15 65  2  0  0  0  0
 15 67  1  0  0  0  0
 16 27  1  0  0  0  0
 17 27  1  0  0  0  0
 17 30  2  0  0  0  0
 17 31  1  0  0  0  0
 18 20  2  0  0  0  0
 18 36  1  0  0  0  0
 19 21  2  0  0  0  0
 19 37  1  0  0  0  0
 20 45  1  0  0  0  0
 21 38  1  0  0  0  0
 22 83  1  0  0  0  0
 23 84  1  0  0  0  0
 24 26  2  0  0  0  0
 24 83  1  0  0  0  0
 25 85  1  0  0  0  0
 26 86  1  0  0  0  0
 27 66  2  0  0  0  0
 28 29  2  0  0  0  0
 28 55  1  0  0  0  0
 28 65  1  0  0  0  0
 29 56  1  0  0  0  0
 29 67  1  0  0  0  0
 30 68  1  0  0  0  0
 30 71  1  0  0  0  0
 31 72  1  0  0  0  0
 31 78  2  0  0  0  0
 32 46  1  0  0  0  0
 32 73  1  0  0  0  0
 32 79  2  0  0  0  0
 33 62  1  0  0  0  0
 33 69  1  0  0  0  0
 33 80  2  0  0  0  0
 34 63  1  0  0  0  0
 34 74  1  0  0  0  0
 34 81  2  0  0  0  0
 35 70  1  0  0  0  0
 35 75  1  0  0  0  0
 35 82  2  0  0  0  0
 36 39  1  0  0  0  0
 37 46  1  0  0  0  0
 38 69  1  0  0  0  0
 39 41  1  0  0  0  0
 40 42  1  0  0  0  0
 40 43  1  0  0  0  0
 41 45  1  0  0  0  0
 42 47  1  0  0  0  0
 43 70  1  0  0  0  0
 44 47  1  0  0  0  0
 44 70  1  0  0  0  0
 45 73  1  0  0  0  0
 46 69  1  0  0  0  0
 47 68  1  0  0  0  0
 48 58  1  0  0  0  0
 49 63  1  0  0  0  0
 50 64  1  0  0  0  0
 51 64  1  0  0  0  0
 52 64  1  0  0  0  0
 53 67  1  0  0  0  0
 54 76  1  0  0  0  0
 55 61  1  0  0  0  0
 56 77  1  0  0  0  0
 57 59  1  0  0  0  0
 57 60  1  0  0  0  0
 58 75  1  0  0  0  0
 59 75  1  0  0  0  0
 60 77  1  0  0  0  0
 61 84  1  0  0  0  0
 62 64  1  0  0  0  0
 62 74  1  0  0  0  0
 63 76  1  0  0  0  0
 66 68  1  0  0  0  0
M  CHG  2  76   1  77   1
M  ISO  4  35 100  61 101  75 100  84 101
M  END
> <Batch ID>
0048

> <Smiles>
CC[100N:0](CCCNCc1c(C[101CH2:1][101O:1]c2ccc3c(c2)CN(C(=O)C(NC(=O)C(C)NC)C(C)(C)C)C(C(=O)NC2CCCc4ccccc42)C3)ncn1C)[100C:0](=O)N1CCCC(n2nc(-c3ccc(Oc4ccc(F)cc4F)cc3)c(C(N)=O)c2N)C1

> <Shape>
0.195

> <Color>
0.088

> <Negative vol penalty>
0.000

$$$$

  -OEChem-04052317263D

 83 91  0     1  0  0  0  0  0999 V2000
  -18.4680  -33.7759   22.8214 C   0  0  0  0  0  0  0  0  0  0  0  0
  -19.6677  -33.6462   22.1291 C   0  0  0  0  0  0  0  0  0  0  0  0
  -22.5663  -15.0086   19.6093 C   0  0  0  0  0  0  0  0  0  0  0  0
  -24.6735  -14.1705   20.4425 C   0  0  0  0  0  0  0  0  0  0  0  0
  -18.1422  -32.8656   23.8260 C   0  0  0  0  0  0  0  0  0  0  0  0
  -20.5429  -32.6066   22.4417 C   0  0  0  0  0  0  0  0  0  0  0  0
  -25.3279  -28.2310   19.3964 C   0  0  0  0  0  0  0  0  0  0  0  0
  -22.1627  -13.7054   19.3190 C   0  0  0  0  0  0  0  0  0  0  0  0
  -24.2699  -12.8672   20.1522 C   0  0  0  0  0  0  0  0  0  0  0  0
  -26.6469  -27.8052   19.5470 C   0  0  0  0  0  0  0  0  0  0  0  0
  -22.2768  -10.5129   21.5325 C   0  0  0  0  0  0  0  0  0  0  0  0
  -22.5065   -9.5344   22.4996 C   0  0  0  0  0  0  0  0  0  0  0  0
  -31.2279  -26.7439   21.2513 C   0  0  0  0  0  0  0  0  0  0  0  0
  -25.9429  -26.2454   21.2472 C   0  0  0  0  0  0  0  0  0  0  0  0
  -23.8812   -8.3103   20.9347 C   0  0  0  0  0  0  0  0  0  0  0  0
  -32.4527  -26.1360   21.4375 C   0  0  0  0  0  0  0  0  0  0  0  0
  -23.8217  -15.2412   20.1710 C   0  0  0  0  0  0  0  0  0  0  0  0
  -24.0432  -17.2902   21.6744 C   0  0  0  0  0  0  0  0  0  0  0  0
  -19.0094  -31.8086   24.1444 C   0  0  0  0  0  0  0  0  0  0  0  0
  -24.3063  -27.6739   20.1790 C   0  0  0  0  0  0  0  0  0  0  0  0
  -20.2290  -31.6821   23.4523 C   0  0  0  0  0  0  0  0  0  0  0  0
  -24.6114  -26.6640   21.1028 C   0  0  0  0  0  0  0  0  0  0  0  0
  -23.0145  -12.6347   19.5905 C   0  0  0  0  0  0  0  0  0  0  0  0
  -26.9550  -26.8144   20.4746 C   0  0  0  0  0  0  0  0  0  0  0  0
  -22.8493  -10.3901   20.2664 C   0  0  0  0  0  0  0  0  0  0  0  0
  -23.3087   -8.4331   22.2007 C   0  0  0  0  0  0  0  0  0  0  0  0
  -23.6515   -9.2888   19.9675 C   0  0  0  0  0  0  0  0  0  0  0  0
  -24.2394  -16.5873   20.4706 C   0  0  0  0  0  0  0  0  0  0  0  0
  -30.5651  -26.4074   20.0886 C   0  0  0  0  0  0  0  0  0  0  0  0
  -24.6195  -18.5172   21.4534 C   0  0  0  0  0  0  0  0  0  0  0  0
  -32.2543  -25.0187   19.4679 C   0  0  0  0  0  0  0  0  0  0  0  0
  -23.3978  -16.8714   22.8843 C   0  0  0  0  0  0  0  0  0  0  0  0
  -22.2590  -28.8054   22.3312 C   0  0  0  0  0  0  0  0  0  0  0  0
  -29.1880  -20.7095   18.7815 C   0  0  0  0  0  0  0  0  0  0  0  0
  -21.0453  -25.8008   22.1828 C   0  0  0  0  0  0  0  0  0  0  0  0
  -21.5542  -22.5026   21.4690 C   0  0  0  0  0  0  0  0  0  0  0  0
  -18.6359  -30.8772   25.2703 C   0  0  0  0  0  0  0  0  0  0  0  0
  -22.8846  -28.1251   19.9856 C   0  0  0  0  0  0  0  0  0  0  0  0
  -23.5483  -26.0195   21.9530 C   0  0  0  0  0  0  0  0  0  0  0  0
  -19.4462  -29.5836   25.2849 C   0  0  0  0  0  0  0  0  0  0  0  0
  -25.8307  -21.1390   17.4508 C   0  0  0  0  0  0  0  0  0  0  0  0
  -20.9306  -29.8813   25.0988 C   0  0  0  0  0  0  0  0  0  0  0  0
  -25.0645  -20.0470   18.1961 C   0  0  0  0  0  0  0  0  0  0  0  0
  -27.2574  -20.7030   17.1278 C   0  0  0  0  0  0  0  0  0  0  0  0
  -27.2733  -19.1693   19.0700 C   0  0  0  0  0  0  0  0  0  0  0  0
  -21.1931  -30.5531   23.7455 C   0  0  1  0  0  0  0  0  0  0  0  0
  -22.0008  -27.8522   21.1987 C   0  0  1  0  0  0  0  0  0  0  0  0
  -25.8390  -19.5812   19.4415 C   0  0  2  0  0  0  0  0  0  0  0  0
  -33.4319  -21.8197   16.6456 C   0  0  0  0  0  0  0  0  0  0  0  0
  -20.9913  -20.0824   21.1180 C   0  0  0  0  0  0  0  0  0  0  0  0
  -21.3365  -25.6679   25.2172 C   0  0  0  0  0  0  0  0  0  0  0  0
  -21.0751  -23.1827   25.0636 C   0  0  0  0  0  0  0  0  0  0  0  0
  -19.2189  -24.6781   24.3281 C   0  0  0  0  0  0  0  0  0  0  0  0
  -20.8731  -22.9536   18.6244 C   0  0  0  0  0  0  0  0  0  0  0  0
  -29.2258  -27.0183   19.7979 C   0  0  0  0  0  0  0  0  0  1  0  0
  -32.8246  -24.0616   18.4771 C   0  0  0  0  0  0  0  0  0  0  0  0
  -29.8472  -21.7783   17.9466 C   0  0  0  0  0  0  0  0  0  0  0  0
  -32.2973  -22.7905   16.4017 C   0  0  0  0  0  0  0  0  0  0  0  0
  -31.1791  -22.1935   18.5451 C   0  0  0  0  0  0  0  0  0  0  0  0
  -21.3064  -24.5051   22.9122 C   0  0  1  0  0  0  0  0  0  0  0  0
  -20.7402  -21.5102   20.6585 C   0  0  2  0  0  0  0  0  0  0  0  0
  -20.7548  -24.5218   24.3658 C   0  0  0  0  0  0  0  0  0  0  0  0
  -32.9980  -25.2652   20.5631 N   0  0  0  0  0  0  0  0  0  0  0  0
  -24.8894  -17.3078   19.5528 N   0  0  0  0  0  0  0  0  0  0  0  0
  -31.0508  -25.5453   19.1714 N   0  0  0  0  0  0  0  0  0  0  0  0
  -25.1066  -18.4763   20.1801 N   0  0  0  0  0  0  0  0  0  0  0  0
  -22.1741  -26.4993   21.7314 N   0  0  0  0  0  0  0  0  0  0  0  0
  -27.9521  -20.2407   18.3354 N   0  0  0  0  0  0  0  0  0  0  0  0
  -24.7520  -19.6163   22.2260 N   0  0  0  0  0  0  0  0  0  0  0  0
  -22.8600  -15.5784   22.9417 N   0  0  0  0  0  0  0  0  0  0  0  0
  -21.1646  -29.5732   22.6809 N   0  0  0  0  0  0  0  0  0  0  0  0
  -20.7524  -23.4466   22.0749 N   0  0  0  0  0  0  0  0  0  0  0  0
  -21.0933  -21.6079   19.2139 N   0  3  0  0  0  0  0  0  0  0  0  0
  -31.7882  -23.3014   17.7250 N   0  3  1  0  0  0  0  0  0  0  0  0
  -23.2864  -17.6274   23.8791 O   0  0  0  0  0  0  0  0  0  0  0  0
  -23.3685  -28.8405   22.8502 O   0  0  0  0  0  0  0  0  0  0  0  0
  -29.7548  -20.3066   19.8006 O   0  0  0  0  0  0  0  0  0  0  0  0
  -19.8824  -26.1757   22.0133 O   0  0  0  0  0  0  0  0  0  0  0  0
  -22.7785  -22.4439   21.5588 O   0  0  0  0  0  0  0  0  0  0  0  0
  -22.6209  -11.3628   19.3076 O   0  0  0  0  0  0  0  0  0  0  0  0
  -28.2418  -26.3975   20.6241 O   0  0  0  0  0  0  0  0  0  1  0  0
  -23.5304   -7.4943   23.1301 F   0  0  0  0  0  0  0  0  0  0  0  0
  -24.2051   -9.1660   18.7533 F   0  0  0  0  0  0  0  0  0  0  0  0
  1  2  1  0  0  0  0
  1  5  2  0  0  0  0
  2  6  2  0  0  0  0
  3  8  2  0  0  0  0
  3 17  1  0  0  0  0
  4  9  1  0  0  0  0
  4 17  2  0  0  0  0
  5 19  1  0  0  0  0
  6 21  1  0  0  0  0
  7 10  2  0  0  0  0
  7 20  1  0  0  0  0
  8 23  1  0  0  0  0
  9 23  2  0  0  0  0
 10 24  1  0  0  0  0
 11 12  2  0  0  0  0
 11 25  1  0  0  0  0
 12 26  1  0  0  0  0
 13 16  1  0  0  0  0
 13 29  2  0  0  0  0
 14 22  1  0  0  0  0
 14 24  2  0  0  0  0
 15 26  2  0  0  0  0
 15 27  1  0  0  0  0
 16 63  2  0  0  0  0
 17 28  1  0  0  0  0
 18 28  1  0  0  0  0
 18 30  2  0  0  0  0
 18 32  1  0  0  0  0
 19 21  2  0  0  0  0
 19 37  1  0  0  0  0
 20 22  2  0  0  0  0
 20 38  1  0  0  0  0
 21 46  1  0  0  0  0
 22 39  1  0  0  0  0
 23 80  1  0  0  0  0
 24 81  1  0  0  0  0
 25 27  2  0  0  0  0
 25 80  1  0  0  0  0
 26 82  1  0  0  0  0
 27 83  1  0  0  0  0
 28 64  2  0  0  0  0
 29 55  1  0  0  0  0
 29 65  1  0  0  0  0
 30 66  1  0  0  0  0
 30 69  1  0  0  0  0
 31 56  1  0  0  0  0
 31 63  1  0  0  0  0
 31 65  2  0  0  0  0
 32 70  1  0  0  0  0
 32 75  2  0  0  0  0
 33 47  1  0  0  0  0
 33 71  1  0  0  0  0
 33 76  2  0  0  0  0
 34 57  1  0  0  0  0
 34 68  1  0  0  0  0
 34 77  2  0  0  0  0
 35 60  1  0  0  0  0
 35 67  1  0  0  0  0
 35 78  2  0  0  0  0
 36 61  1  0  0  0  0
 36 72  1  0  0  0  0
 36 79  2  0  0  0  0
 37 40  1  0  0  0  0
 38 47  1  0  0  0  0
 39 67  1  0  0  0  0
 40 42  1  0  0  0  0
 41 43  1  0  0  0  0
 41 44  1  0  0  0  0
 42 46  1  0  0  0  0
 43 48  1  0  0  0  0
 44 68  1  0  0  0  0
 45 48  1  0  0  0  0
 45 68  1  0  0  0  0
 46 71  1  0  0  0  0
 47 67  1  0  0  0  0
 48 66  1  0  0  0  0
 49 58  1  0  0  0  0
 50 61  1  0  0  0  0
 51 62  1  0  0  0  0
 52 62  1  0  0  0  0
 53 62  1  0  0  0  0
 54 73  1  0  0  0  0
 55 81  1  0  0  0  0
 56 74  1  0  0  0  0
 57 59  1  0  0  0  0
 58 74  1  0  0  0  0
 59 74  1  0  0  0  0
 60 62  1  0  0  0  0
 60 72  1  0  0  0  0
 61 73  1  0  0  0  0
 64 66  1  0  0  0  0
M  CHG  2  73   1  74   1
M  ISO  4  34 100  55 101  57 100  81 101
M  END
> <Batch ID>
0048

> <Smiles>
CCN(C[100CH2:0][100C:0](=O)N1CCCC(n2nc(-c3ccc(Oc4ccc(F)cc4F)cc3)c(C(N)=O)c2N)C1)Cc1nccc([101CH2:1][101O:1]c2ccc3c(c2)CN(C(=O)C(NC(=O)C(C)NC)C(C)(C)C)C(C(=O)NC2CCCc4ccccc42)C3)n1

> <Shape>
0.183

> <Color>
0.099

> <Negative vol penalty>
0.000

$$$$

  -OEChem-04052317263D

 84 92  0     1  0  0  0  0  0999 V2000
  -25.7528  -30.2109   23.3870 C   0  0  0  0  0  0  0  0  0  0  0  0
  -25.4240  -28.9198   23.7874 C   0  0  0  0  0  0  0  0  0  0  0  0
  -20.1514  -22.5692   23.0874 C   0  0  0  0  0  0  0  0  0  0  0  0
  -22.3900  -22.4948   22.1820 C   0  0  0  0  0  0  0  0  0  0  0  0
  -26.1176  -30.4577   22.0641 C   0  0  0  0  0  0  0  0  0  0  0  0
  -25.4586  -27.8748   22.8648 C   0  0  0  0  0  0  0  0  0  0  0  0
  -26.8556  -20.8628   22.4216 C   0  0  0  0  0  0  0  0  0  0  0  0
  -20.2917  -23.9370   23.3221 C   0  0  0  0  0  0  0  0  0  0  0  0
  -22.5304  -23.8626   22.4166 C   0  0  0  0  0  0  0  0  0  0  0  0
  -26.2840  -19.6777   21.9604 C   0  0  0  0  0  0  0  0  0  0  0  0
  -20.1452  -26.7999   21.5290 C   0  0  0  0  0  0  0  0  0  0  0  0
  -19.0856  -27.6318   21.1671 C   0  0  0  0  0  0  0  0  0  0  0  0
  -27.0056  -20.2085   19.7206 C   0  0  0  0  0  0  0  0  0  0  0  0
  -18.8675  -28.3524   23.4628 C   0  0  0  0  0  0  0  0  0  0  0  0
  -27.0413  -14.7806   18.6761 C   0  0  0  0  0  0  0  0  0  0  0  0
  -21.2005  -21.8481   22.5174 C   0  0  0  0  0  0  0  0  0  0  0  0
  -20.5645  -19.8182   21.1094 C   0  0  0  0  0  0  0  0  0  0  0  0
  -26.1661  -29.4135   21.1271 C   0  0  0  0  0  0  0  0  0  0  0  0
  -27.4980  -21.7363   21.5325 C   0  0  0  0  0  0  0  0  0  0  0  0
  -25.8231  -28.1081   21.5278 C   0  0  0  0  0  0  0  0  0  0  0  0
  -27.5867  -21.4027   20.1734 C   0  0  0  0  0  0  0  0  0  0  0  0
  -21.4812  -24.5837   22.9866 C   0  0  0  0  0  0  0  0  0  0  0  0
  -26.3564  -19.3518   20.6093 C   0  0  0  0  0  0  0  0  0  0  0  0
  -20.5659  -26.7442   22.8578 C   0  0  0  0  0  0  0  0  0  0  0  0
  -18.4468  -28.4081   22.1341 C   0  0  0  0  0  0  0  0  0  0  0  0
  -19.9271  -27.5205   23.8247 C   0  0  0  0  0  0  0  0  0  0  0  0
  -21.0564  -20.4350   22.2753 C   0  0  0  0  0  0  0  0  0  0  0  0
  -25.9602  -15.4455   19.2115 C   0  0  0  0  0  0  0  0  0  0  0  0
  -26.0727  -14.1266   21.0764 C   0  0  0  0  0  0  0  0  0  0  0  0
  -27.1534  -13.4613   20.5406 C   0  0  0  0  0  0  0  0  0  0  0  0
  -20.6297  -18.4730   21.3790 C   0  0  0  0  0  0  0  0  0  0  0  0
  -20.0910  -20.4083   19.8915 C   0  0  0  0  0  0  0  0  0  0  0  0
  -27.0243  -24.7386   20.6021 C   0  0  0  0  0  0  0  0  0  0  0  0
  -29.8292  -24.2852   19.0371 C   0  0  0  0  0  0  0  0  0  0  0  0
  -32.0460  -22.0998   17.6384 C   0  0  0  0  0  0  0  0  0  0  0  0
  -23.9587  -14.6243   24.1395 C   0  0  0  0  0  0  0  0  0  0  0  0
  -26.5204  -29.7371   19.6973 C   0  0  0  0  0  0  0  0  0  0  0  0
  -28.1328  -22.9978   22.0502 C   0  0  0  0  0  0  0  0  0  0  0  0
  -28.2831  -22.2967   19.1813 C   0  0  0  0  0  0  0  0  0  0  0  0
  -26.8948  -28.5101   18.8699 C   0  0  0  0  0  0  0  0  0  0  0  0
  -20.8684  -15.7532   25.5007 C   0  0  0  0  0  0  0  0  0  0  0  0
  -25.8870  -27.3872   19.0943 C   0  0  0  0  0  0  0  0  0  0  0  0
  -20.5561  -17.0182   24.6993 C   0  0  0  0  0  0  0  0  0  0  0  0
  -22.3657  -15.6063   25.7627 C   0  0  0  0  0  0  0  0  0  0  0  0
  -22.9020  -16.9337   23.7566 C   0  0  0  0  0  0  0  0  0  0  0  0
  -25.8728  -26.9439   20.5622 C   0  0  1  0  0  0  0  0  0  0  0  0
  -28.3138  -24.0617   20.9718 C   0  0  1  0  0  0  0  0  0  0  0  0
  -21.4099  -17.0962   23.4194 C   0  0  2  0  0  0  0  0  0  0  0  0
  -34.2281  -22.0289   16.4010 C   0  0  0  0  0  0  0  0  0  0  0  0
  -28.4138  -25.2001   16.4936 C   0  0  0  0  0  0  0  0  0  0  0  0
  -30.3023  -24.2206   15.1736 C   0  0  0  0  0  0  0  0  0  0  0  0
  -30.7358  -26.0863   16.7717 C   0  0  0  0  0  0  0  0  0  0  0  0
  -33.3391  -20.5120   19.7752 C   0  0  0  0  0  0  0  0  0  0  0  0
  -25.2949  -16.5649   18.4482 C   0  0  0  0  0  0  0  0  0  0  0  0
  -25.5258  -13.7685   22.4159 C   0  0  0  0  0  0  0  0  0  0  0  0
  -25.9102  -17.9248   18.7598 C   0  0  0  0  0  0  0  0  0  1  0  0
  -30.2209  -23.7797   17.6696 C   0  0  1  0  0  0  0  0  0  0  0  0
  -33.5539  -21.9764   17.7632 C   0  0  2  0  0  0  0  0  0  0  0  0
  -27.8259  -12.3524   21.2755 C   0  0  0  0  0  0  0  0  0  0  0  0
  -29.9033  -24.8056   16.5453 C   0  0  0  0  0  0  0  0  0  0  0  0
  -27.6573  -13.7765   19.3310 N   0  0  0  0  0  0  0  0  0  0  0  0
  -21.4080  -19.5541   23.2157 N   0  0  0  0  0  0  0  0  0  0  0  0
  -25.4566  -15.1304   20.4213 N   0  0  0  0  0  0  0  0  0  0  0  0
  -21.1366  -18.3699   22.6410 N   0  0  0  0  0  0  0  0  0  0  0  0
  -28.8826  -23.5220   19.7351 N   0  0  0  0  0  0  0  0  0  0  0  0
  -23.1182  -15.6876   24.5084 N   0  0  0  0  0  0  0  0  0  0  0  0
  -20.3023  -17.3801   20.6574 N   0  0  0  0  0  0  0  0  0  0  0  0
  -20.0922  -21.8056   19.7815 N   0  0  0  0  0  0  0  0  0  0  0  0
  -27.0128  -26.0987   20.8460 N   0  0  0  0  0  0  0  0  0  0  0  0
  -31.6289  -23.4084   17.7595 N   0  0  0  0  0  0  0  0  0  0  0  0
  -24.6303  -14.7792   22.9330 N   0  0  0  0  0  0  0  0  0  0  0  0
  -33.9158  -20.6872   18.4173 N   0  3  0  0  0  0  0  0  0  0  0  0
  -19.6638  -19.7177   18.9355 O   0  0  0  0  0  0  0  0  0  0  0  0
  -26.1082  -24.0762   20.1292 O   0  0  0  0  0  0  0  0  0  0  0  0
  -30.3495  -25.3152   19.4730 O   0  0  0  0  0  0  0  0  0  0  0  0
  -31.3120  -21.1324   17.4485 O   0  0  0  0  0  0  0  0  0  0  0  0
  -24.0959  -13.6097   24.8313 O   0  0  0  0  0  0  0  0  0  0  0  0
  -21.6185  -25.9184   23.2152 O   0  0  0  0  0  0  0  0  0  0  0  0
  -25.7988  -18.1960   20.1564 O   0  0  0  0  0  0  0  0  0  1  0  0
  -17.4304  -29.2080   21.7862 F   0  0  0  0  0  0  0  0  0  0  0  0
  -20.3275  -27.4721   25.1026 F   0  0  0  0  0  0  0  0  0  0  0  0
  -27.2677  -12.0840   22.4934 F   0  0  0  0  0  0  0  0  0  0  0  0
  -27.8075  -11.1615   20.6061 F   0  0  0  0  0  0  0  0  0  0  0  0
  -29.1429  -12.6103   21.5261 F   0  0  0  0  0  0  0  0  0  0  0  0
  1  2  1  0  0  0  0
  1  5  2  0  0  0  0
  2  6  2  0  0  0  0
  3  8  2  0  0  0  0
  3 16  1  0  0  0  0
  4  9  1  0  0  0  0
  4 16  2  0  0  0  0
  5 18  1  0  0  0  0
  6 20  1  0  0  0  0
  7 10  2  0  0  0  0
  7 19  1  0  0  0  0
  8 22  1  0  0  0  0
  9 22  2  0  0  0  0
 10 23  1  0  0  0  0
 11 12  2  0  0  0  0
 11 24  1  0  0  0  0
 12 25  1  0  0  0  0
 13 21  1  0  0  0  0
 13 23  2  0  0  0  0
 14 25  2  0  0  0  0
 14 26  1  0  0  0  0
 15 28  1  0  0  0  0
 15 61  2  0  0  0  0
 16 27  1  0  0  0  0
 17 27  1  0  0  0  0
 17 31  2  0  0  0  0
 17 32  1  0  0  0  0
 18 20  2  0  0  0  0
 18 37  1  0  0  0  0
 19 21  2  0  0  0  0
 19 38  1  0  0  0  0
 20 46  1  0  0  0  0
 21 39  1  0  0  0  0
 22 78  1  0  0  0  0
 23 79  1  0  0  0  0
 24 26  2  0  0  0  0
 24 78  1  0  0  0  0
 25 80  1  0  0  0  0
 26 81  1  0  0  0  0
 27 62  2  0  0  0  0
 28 54  1  0  0  0  0
 28 63  2  0  0  0  0
 29 30  2  0  0  0  0
 29 55  1  0  0  0  0
 29 63  1  0  0  0  0
 30 59  1  0  0  0  0
 30 61  1  0  0  0  0
 31 64  1  0  0  0  0
 31 67  1  0  0  0  0
 32 68  1  0  0  0  0
 32 73  2  0  0  0  0
 33 47  1  0  0  0  0
 33 69  1  0  0  0  0
 33 74  2  0  0  0  0
 34 57  1  0  0  0  0
 34 65  1  0  0  0  0
 34 75  2  0  0  0  0
 35 58  1  0  0  0  0
 35 70  1  0  0  0  0
 35 76  2  0  0  0  0
 36 66  1  0  0  0  0
 36 71  1  0  0  0  0
 36 77  2  0  0  0  0
 37 40  1  0  0  0  0
 38 47  1  0  0  0  0
 39 65  1  0  0  0  0
 40 42  1  0  0  0  0
 41 43  1  0  0  0  0
 41 44  1  0  0  0  0
 42 46  1  0  0  0  0
 43 48  1  0  0  0  0
 44 66  1  0  0  0  0
 45 48  1  0  0  0  0
 45 66  1  0  0  0  0
 46 69  1  0  0  0  0
 47 65  1  0  0  0  0
 48 64  1  0  0  0  0
 49 58  1  0  0  0  0
 50 60  1  0  0  0  0
 51 60  1  0  0  0  0
 52 60  1  0  0  0  0
 53 72  1  0  0  0  0
 54 56  1  0  0  0  0
 55 71  1  0  0  0  0
 56 79  1  0  0  0  0
 57 60  1  0  0  0  0
 57 70  1  0  0  0  0
 58 72  1  0  0  0  0
 59 82  1  0  0  0  0
 59 83  1  0  0  0  0
 59 84  1  0  0  0  0
 62 64  1  0  0  0  0
M  CHG  1  72   1
M  ISO  4  36 100  56 101  71 100  79 101
M  END
> <Batch ID>
0048

> <Smiles>
CNC(C)C(=O)NC(C(=O)N1Cc2cc([101O:1][101CH2:1]Cc3cnc(C(F)(F)F)c(C[100NH:0][100C:0](=O)N4CCCC(n5nc(-c6ccc(Oc7ccc(F)cc7F)cc6)c(C(N)=O)c5N)C4)n3)ccc2CC1C(=O)NC1CCCc2ccccc21)C(C)(C)C

> <Shape>
0.182

> <Color>
0.073

> <Negative vol penalty>
0.000

$$$$

  -OEChem-04052317263D

 78 86  0     1  0  0  0  0  0999 V2000
  -40.0601  -26.2421   30.2452 C   0  0  0  0  0  0  0  0  0  0  0  0
  -39.4791  -25.2237   29.4964 C   0  0  0  0  0  0  0  0  0  0  0  0
  -23.0622   -9.8438   19.9782 C   0  0  0  0  0  0  0  0  0  0  0  0
  -23.8617   -9.8877   22.2576 C   0  0  0  0  0  0  0  0  0  0  0  0
  -39.3243  -27.3852   30.5545 C   0  0  0  0  0  0  0  0  0  0  0  0
  -38.1613  -25.3474   29.0574 C   0  0  0  0  0  0  0  0  0  0  0  0
  -35.8241  -23.2673   23.7928 C   0  0  0  0  0  0  0  0  0  0  0  0
  -22.3313   -8.6890   20.2568 C   0  0  0  0  0  0  0  0  0  0  0  0
  -23.1307   -8.7329   22.5363 C   0  0  0  0  0  0  0  0  0  0  0  0
  -35.0943  -22.1218   23.4783 C   0  0  0  0  0  0  0  0  0  0  0  0
  -19.9194   -7.9206   23.2058 C   0  0  0  0  0  0  0  0  0  0  0  0
  -19.1832   -7.8915   24.3902 C   0  0  0  0  0  0  0  0  0  0  0  0
  -33.0454  -23.3788   23.6805 C   0  0  0  0  0  0  0  0  0  0  0  0
  -20.4513   -5.9732   25.1313 C   0  0  0  0  0  0  0  0  0  0  0  0
  -31.8985  -16.6983   22.9729 C   0  0  0  0  0  0  0  0  0  0  0  0
  -31.9342  -18.8774   21.4311 C   0  0  0  0  0  0  0  0  0  0  0  0
  -23.8275  -10.4432   20.9786 C   0  0  0  0  0  0  0  0  0  0  0  0
  -24.1487  -12.9688   20.8181 C   0  0  0  0  0  0  0  0  0  0  0  0
  -38.0000  -27.5272   30.1109 C   0  0  0  0  0  0  0  0  0  0  0  0
  -35.1683  -24.4767   24.0647 C   0  0  0  0  0  0  0  0  0  0  0  0
  -37.4066  -26.4929   29.3623 C   0  0  0  0  0  0  0  0  0  0  0  0
  -33.7692  -24.5389   23.9958 C   0  0  0  0  0  0  0  0  0  0  0  0
  -22.3655   -8.1335   21.5358 C   0  0  0  0  0  0  0  0  0  0  0  0
  -33.7046  -22.1767   23.4249 C   0  0  0  0  0  0  0  0  0  0  0  0
  -20.9215   -6.9760   22.9841 C   0  0  0  0  0  0  0  0  0  0  0  0
  -19.4491   -6.9178   25.3529 C   0  0  0  0  0  0  0  0  0  0  0  0
  -21.1875   -6.0023   23.9468 C   0  0  0  0  0  0  0  0  0  0  0  0
  -24.5833  -11.6358   20.6912 C   0  0  0  0  0  0  0  0  0  0  0  0
  -31.0608  -16.8135   21.8855 C   0  0  0  0  0  0  0  0  0  0  0  0
  -32.7715  -18.7627   22.5189 C   0  0  0  0  0  0  0  0  0  0  0  0
  -25.2289  -13.7209   20.4257 C   0  0  0  0  0  0  0  0  0  0  0  0
  -22.8819  -13.4813   21.2521 C   0  0  0  0  0  0  0  0  0  0  0  0
  -34.9721  -26.4048   26.5841 C   0  0  0  0  0  0  0  0  0  0  0  0
  -30.7305  -14.7163   20.6019 C   0  0  0  0  0  0  0  0  0  0  0  0
  -33.3525  -28.3054   24.5136 C   0  0  0  0  0  0  0  0  0  0  0  0
  -31.4837  -28.5590   21.6693 C   0  0  0  0  0  0  0  0  0  0  0  0
  -37.2289  -28.7604   30.5104 C   0  0  0  0  0  0  0  0  0  0  0  0
  -35.9712  -25.7098   24.3762 C   0  0  0  0  0  0  0  0  0  0  0  0
  -33.0183  -25.8176   24.2594 C   0  0  0  0  0  0  0  0  0  0  0  0
  -35.9608  -28.9784   29.6891 C   0  0  0  0  0  0  0  0  0  0  0  0
  -29.5395  -12.3774   18.1625 C   0  0  0  0  0  0  0  0  0  0  0  0
  -35.1713  -27.6786   29.5707 C   0  0  0  0  0  0  0  0  0  0  0  0
  -28.1192  -12.0626   18.6304 C   0  0  0  0  0  0  0  0  0  0  0  0
  -30.4791  -12.6031   19.3428 C   0  0  0  0  0  0  0  0  0  0  0  0
  -28.5950  -13.3435   20.7653 C   0  0  0  0  0  0  0  0  0  0  0  0
  -35.9879  -26.6011   28.8470 C   0  0  1  0  0  0  0  0  0  0  0  0
  -35.1752  -26.7641   25.1394 C   0  0  1  0  0  0  0  0  0  0  0  0
  -27.6066  -13.1389   19.6037 C   0  0  2  0  0  0  0  0  0  0  0  0
  -30.2711  -30.2379   20.2522 C   0  0  0  0  0  0  0  0  0  0  0  0
  -31.0930  -28.3987   26.5619 C   0  0  0  0  0  0  0  0  0  0  0  0
  -29.5845  -29.2531   24.7556 C   0  0  0  0  0  0  0  0  0  0  0  0
  -31.5794  -30.5828   25.4450 C   0  0  0  0  0  0  0  0  0  0  0  0
  -33.1888  -27.9807   19.3204 C   0  0  0  0  0  0  0  0  0  0  0  0
  -30.1116  -15.7188   21.5432 C   0  0  0  0  0  0  0  0  0  0  0  0
  -33.7284  -19.8658   22.8636 C   0  0  0  0  0  0  0  0  0  1  0  0
  -31.9055  -28.4594   24.1120 C   0  0  1  0  0  0  0  0  0  0  0  0
  -31.5803  -29.4988   20.4810 C   0  0  2  0  0  0  0  0  0  0  0  0
  -31.0543  -29.1488   25.2155 C   0  0  0  0  0  0  0  0  0  0  0  0
  -31.0638  -17.9049   21.0949 N   0  0  0  0  0  0  0  0  0  0  0  0
  -32.7687  -17.6710   23.3093 N   0  0  0  0  0  0  0  0  0  0  0  0
  -25.8413  -11.5432   20.2523 N   0  0  0  0  0  0  0  0  0  0  0  0
  -26.2066  -12.8275   20.0999 N   0  0  0  0  0  0  0  0  0  0  0  0
  -33.8477  -26.9947   24.5660 N   0  0  0  0  0  0  0  0  0  0  0  0
  -29.9460  -13.6161   20.2554 N   0  0  0  0  0  0  0  0  0  0  0  0
  -25.4282  -15.0527   20.3308 N   0  0  0  0  0  0  0  0  0  0  0  0
  -21.8827  -12.5697   21.6193 N   0  0  0  0  0  0  0  0  0  0  0  0
  -35.9842  -26.8380   27.4193 N   0  0  0  0  0  0  0  0  0  0  0  0
  -31.9092  -29.1626   22.8337 N   0  0  0  0  0  0  0  0  0  0  0  0
  -31.9124  -28.7371   19.2439 N   0  3  0  0  0  0  0  0  0  0  0  0
  -22.6377  -14.7109   21.2967 O   0  0  0  0  0  0  0  0  0  0  0  0
  -33.9705  -25.7820   26.9168 O   0  0  0  0  0  0  0  0  0  0  0  0
  -31.8760  -14.9085   20.1858 O   0  0  0  0  0  0  0  0  0  0  0  0
  -34.0209  -29.3114   24.7644 O   0  0  0  0  0  0  0  0  0  0  0  0
  -31.0685  -27.4061   21.5747 O   0  0  0  0  0  0  0  0  0  0  0  0
  -21.6521   -7.0068   21.8081 O   0  0  0  0  0  0  0  0  0  0  0  0
  -32.9899  -21.0598   23.1188 O   0  0  0  0  0  0  0  0  0  1  0  0
  -18.7431   -6.8909   26.4909 F   0  0  0  0  0  0  0  0  0  0  0  0
  -22.1498   -5.0930   23.7400 F   0  0  0  0  0  0  0  0  0  0  0  0
  1  2  1  0  0  0  0
  1  5  2  0  0  0  0
  2  6  2  0  0  0  0
  3  8  2  0  0  0  0
  3 17  1  0  0  0  0
  4  9  1  0  0  0  0
  4 17  2  0  0  0  0
  5 19  1  0  0  0  0
  6 21  1  0  0  0  0
  7 10  2  0  0  0  0
  7 20  1  0  0  0  0
  8 23  1  0  0  0  0
  9 23  2  0  0  0  0
 10 24  1  0  0  0  0
 11 12  2  0  0  0  0
 11 25  1  0  0  0  0
 12 26  1  0  0  0  0
 13 22  1  0  0  0  0
 13 24  2  0  0  0  0
 14 26  2  0  0  0  0
 14 27  1  0  0  0  0
 15 29  2  0  0  0  0
 15 60  1  0  0  0  0
 16 30  1  0  0  0  0
 16 59  2  0  0  0  0
 17 28  1  0  0  0  0
 18 28  1  0  0  0  0
 18 31  2  0  0  0  0
 18 32  1  0  0  0  0
 19 21  2  0  0  0  0
 19 37  1  0  0  0  0
 20 22  2  0  0  0  0
 20 38  1  0  0  0  0
 21 46  1  0  0  0  0
 22 39  1  0  0  0  0
 23 75  1  0  0  0  0
 24 76  1  0  0  0  0
 25 27  2  0  0  0  0
 25 75  1  0  0  0  0
 26 77  1  0  0  0  0
 27 78  1  0  0  0  0
 28 61  2  0  0  0  0
 29 54  1  0  0  0  0
 29 59  1  0  0  0  0
 30 55  1  0  0  0  0
 30 60  2  0  0  0  0
 31 62  1  0  0  0  0
 31 65  1  0  0  0  0
 32 66  1  0  0  0  0
 32 70  2  0  0  0  0
 33 47  1  0  0  0  0
 33 67  1  0  0  0  0
 33 71  2  0  0  0  0
 34 54  1  0  0  0  0
 34 64  1  0  0  0  0
 34 72  2  0  0  0  0
 35 56  1  0  0  0  0
 35 63  1  0  0  0  0
 35 73  2  0  0  0  0
 36 57  1  0  0  0  0
 36 68  1  0  0  0  0
 36 74  2  0  0  0  0
 37 40  1  0  0  0  0
 38 47  1  0  0  0  0
 39 63  1  0  0  0  0
 40 42  1  0  0  0  0
 41 43  1  0  0  0  0
 41 44  1  0  0  0  0
 42 46  1  0  0  0  0
 43 48  1  0  0  0  0
 44 64  1  0  0  0  0
 45 48  1  0  0  0  0
 45 64  1  0  0  0  0
 46 67  1  0  0  0  0
 47 63  1  0  0  0  0
 48 62  1  0  0  0  0
 49 57  1  0  0  0  0
 50 58  1  0  0  0  0
 51 58  1  0  0  0  0
 52 58  1  0  0  0  0
 53 69  1  0  0  0  0
 55 76  1  0  0  0  0
 56 58  1  0  0  0  0
 56 68  1  0  0  0  0
 57 69  1  0  0  0  0
 61 62  1  0  0  0  0
M  CHG  1  69   1
M  ISO  4  34 100  54 100  55 101  76 101
M  END
> <Batch ID>
0048

> <Smiles>
CNC(C)C(=O)NC(C(=O)N1Cc2cc([101O:1][101CH2:1]c3cnc([100CH2:0][100C:0](=O)N4CCCC(n5nc(-c6ccc(Oc7ccc(F)cc7F)cc6)c(C(N)=O)c5N)C4)cn3)ccc2CC1C(=O)NC1CCCc2ccccc21)C(C)(C)C

> <Shape>
0.180

> <Color>
0.198

> <Negative vol penalty>
0.000

$$$$

  -OEChem-04052317263D

 81 89  0     1  0  0  0  0  0999 V2000
  -33.6425  -29.8835    9.2213 C   0  0  0  0  0  0  0  0  0  0  0  0
  -32.9794  -28.7116    9.5710 C   0  0  0  0  0  0  0  0  0  0  0  0
  -23.0372   -9.8991   19.9641 C   0  0  0  0  0  0  0  0  0  0  0  0
  -23.7768   -9.9381   22.2637 C   0  0  0  0  0  0  0  0  0  0  0  0
  -34.4717  -30.5164   10.1464 C   0  0  0  0  0  0  0  0  0  0  0  0
  -33.1460  -28.1712   10.8456 C   0  0  0  0  0  0  0  0  0  0  0  0
  -29.5861  -24.5007   15.8626 C   0  0  0  0  0  0  0  0  0  0  0  0
  -22.2922   -8.7486   20.2232 C   0  0  0  0  0  0  0  0  0  0  0  0
  -23.0318   -8.7877   22.5229 C   0  0  0  0  0  0  0  0  0  0  0  0
  -29.7093  -23.3581   16.6520 C   0  0  0  0  0  0  0  0  0  0  0  0
  -23.3307   -5.4587   22.0135 C   0  0  0  0  0  0  0  0  0  0  0  0
  -23.9408   -4.4440   22.7508 C   0  0  0  0  0  0  0  0  0  0  0  0
  -31.1046  -24.5810   18.1937 C   0  0  0  0  0  0  0  0  0  0  0  0
  -22.2242   -4.6391   24.4397 C   0  0  0  0  0  0  0  0  0  0  0  0
  -29.3360  -18.7106   20.8383 C   0  0  0  0  0  0  0  0  0  0  0  0
  -23.7795  -10.4938   20.9843 C   0  0  0  0  0  0  0  0  0  0  0  0
  -24.1200  -13.0174   20.8329 C   0  0  0  0  0  0  0  0  0  0  0  0
  -34.6411  -29.9888   11.4362 C   0  0  0  0  0  0  0  0  0  0  0  0
  -30.2312  -25.6910   16.2278 C   0  0  0  0  0  0  0  0  0  0  0  0
  -33.9794  -28.7970   11.7883 C   0  0  0  0  0  0  0  0  0  0  0  0
  -30.9859  -25.7380   17.4086 C   0  0  0  0  0  0  0  0  0  0  0  0
  -22.2895   -8.1930   21.5026 C   0  0  0  0  0  0  0  0  0  0  0  0
  -30.4710  -23.3973   17.8162 C   0  0  0  0  0  0  0  0  0  0  0  0
  -22.1674   -6.0637   22.4894 C   0  0  0  0  0  0  0  0  0  0  0  0
  -23.3876   -4.0341   23.9639 C   0  0  0  0  0  0  0  0  0  0  0  0
  -21.6141   -5.6539   23.7024 C   0  0  0  0  0  0  0  0  0  0  0  0
  -24.5497  -11.6819   20.7172 C   0  0  0  0  0  0  0  0  0  0  0  0
  -30.5419  -18.0484   20.9081 C   0  0  0  0  0  0  0  0  0  0  0  0
  -31.3523  -19.3452   19.2076 C   0  0  0  0  0  0  0  0  0  0  0  0
  -30.1461  -20.0068   19.1374 C   0  0  0  0  0  0  0  0  0  0  0  0
  -25.2146  -13.7630   20.4691 C   0  0  0  0  0  0  0  0  0  0  0  0
  -22.8454  -13.5376   21.2335 C   0  0  0  0  0  0  0  0  0  0  0  0
  -32.4695  -27.5243   14.9114 C   0  0  0  0  0  0  0  0  0  0  0  0
  -31.7873  -29.4778   17.4095 C   0  0  0  0  0  0  0  0  0  0  0  0
  -30.5579  -29.8104   20.5757 C   0  0  0  0  0  0  0  0  0  0  0  0
  -30.6955  -14.7904   20.6919 C   0  0  0  0  0  0  0  0  0  0  0  0
  -35.5849  -30.6827   12.3862 C   0  0  0  0  0  0  0  0  0  0  0  0
  -30.0665  -26.9222   15.3795 C   0  0  0  0  0  0  0  0  0  0  0  0
  -31.6818  -26.9968   17.8554 C   0  0  0  0  0  0  0  0  0  0  0  0
  -35.4138  -30.2492   13.8398 C   0  0  0  0  0  0  0  0  0  0  0  0
  -29.5813  -12.3723   18.3279 C   0  0  0  0  0  0  0  0  0  0  0  0
  -35.3298  -28.7292   13.9372 C   0  0  0  0  0  0  0  0  0  0  0  0
  -28.1404  -12.0830   18.7521 C   0  0  0  0  0  0  0  0  0  0  0  0
  -30.4876  -12.6105   19.5337 C   0  0  0  0  0  0  0  0  0  0  0  0
  -28.5730  -13.3584   20.8934 C   0  0  0  0  0  0  0  0  0  0  0  0
  -34.1153  -28.1934   13.1694 C   0  0  1  0  0  0  0  0  0  0  0  0
  -31.1874  -27.9381   15.5768 C   0  0  1  0  0  0  0  0  0  0  0  0
  -27.6094  -13.1667   19.7097 C   0  0  2  0  0  0  0  0  0  0  0  0
  -33.5942  -18.6461   18.3291 C   0  0  0  0  0  0  0  0  0  0  0  0
  -30.1651  -31.5239   22.3665 C   0  0  0  0  0  0  0  0  0  0  0  0
  -34.7665  -29.4685   18.0685 C   0  0  0  0  0  0  0  0  0  0  0  0
  -34.1971  -30.3685   20.3343 C   0  0  0  0  0  0  0  0  0  0  0  0
  -33.6552  -31.6975   18.2940 C   0  0  0  0  0  0  0  0  0  0  0  0
  -27.6363  -29.3388   20.5481 C   0  0  0  0  0  0  0  0  0  0  0  0
  -32.4835  -19.6934   18.3016 C   0  0  0  0  0  0  0  0  0  0  0  0
  -30.7484  -16.9577   21.8998 C   0  0  0  0  0  0  0  0  0  0  0  0
  -29.9147  -21.1087   18.1457 C   0  0  0  0  0  0  0  0  0  1  0  0
  -32.3018  -29.6280   18.8208 C   0  0  1  0  0  0  0  0  0  0  0  0
  -29.5678  -30.7936   21.1737 C   0  0  2  0  0  0  0  0  0  0  0  0
  -33.7188  -30.2662   18.8702 C   0  0  0  0  0  0  0  0  0  0  0  0
  -29.1164  -19.7016   19.9516 N   0  0  0  0  0  0  0  0  0  0  0  0
  -25.8183  -11.5817   20.3114 N   0  0  0  0  0  0  0  0  0  0  0  0
  -31.5718  -18.3539   20.0940 N   0  0  0  0  0  0  0  0  0  0  0  0
  -26.1951  -12.8638   20.1689 N   0  0  0  0  0  0  0  0  0  0  0  0
  -31.4957  -28.1725   16.9890 N   0  0  0  0  0  0  0  0  0  0  0  0
  -29.9283  -13.6504   20.4007 N   0  0  0  0  0  0  0  0  0  0  0  0
  -25.4244  -15.0936   20.3797 N   0  0  0  0  0  0  0  0  0  0  0  0
  -21.8314  -12.6320   21.5742 N   0  0  0  0  0  0  0  0  0  0  0  0
  -32.9035  -28.3989   13.9335 N   0  0  0  0  0  0  0  0  0  0  0  0
  -31.2834  -30.3768   19.5491 N   0  0  0  0  0  0  0  0  0  0  0  0
  -30.0881  -15.7300   21.5158 N   0  0  0  0  0  0  0  0  0  0  0  0
  -28.3393  -30.0813   21.6258 N   0  3  0  0  0  0  0  0  0  0  0  0
  -22.6075  -14.7686   21.2719 O   0  0  0  0  0  0  0  0  0  0  0  0
  -33.0246  -26.4891   15.2603 O   0  0  0  0  0  0  0  0  0  0  0  0
  -31.6425  -30.4824   16.7085 O   0  0  0  0  0  0  0  0  0  0  0  0
  -30.6783  -28.6565   20.9814 O   0  0  0  0  0  0  0  0  0  0  0  0
  -31.8353  -14.9608   20.2459 O   0  0  0  0  0  0  0  0  0  0  0  0
  -21.5625   -7.0705   21.7558 O   0  0  0  0  0  0  0  0  0  0  0  0
  -30.5934  -22.2834   18.5882 O   0  0  0  0  0  0  0  0  0  1  0  0
  -23.9727   -3.0585   24.6711 F   0  0  0  0  0  0  0  0  0  0  0  0
  -20.4960   -6.2305   24.1641 F   0  0  0  0  0  0  0  0  0  0  0  0
  1  2  1  0  0  0  0
  1  5  2  0  0  0  0
  2  6  2  0  0  0  0
  3  8  2  0  0  0  0
  3 16  1  0  0  0  0
  4  9  1  0  0  0  0
  4 16  2  0  0  0  0
  5 18  1  0  0  0  0
  6 20  1  0  0  0  0
  7 10  2  0  0  0  0
  7 19  1  0  0  0  0
  8 22  1  0  0  0  0
  9 22  2  0  0  0  0
 10 23  1  0  0  0  0
 11 12  2  0  0  0  0
 11 24  1  0  0  0  0
 12 25  1  0  0  0  0
 13 21  1  0  0  0  0
 13 23  2  0  0  0  0
 14 25  2  0  0  0  0
 14 26  1  0  0  0  0
 15 28  1  0  0  0  0
 15 61  2  0  0  0  0
 16 27  1  0  0  0  0
 17 27  1  0  0  0  0
 17 31  2  0  0  0  0
 17 32  1  0  0  0  0
 18 20  2  0  0  0  0
 18 37  1  0  0  0  0
 19 21  2  0  0  0  0
 19 38  1  0  0  0  0
 20 46  1  0  0  0  0
 21 39  1  0  0  0  0
 22 78  1  0  0  0  0
 23 79  1  0  0  0  0
 24 26  2  0  0  0  0
 24 78  1  0  0  0  0
 25 80  1  0  0  0  0
 26 81  1  0  0  0  0
 27 62  2  0  0  0  0
 28 56  1  0  0  0  0
 28 63  2  0  0  0  0
 29 30  2  0  0  0  0
 29 55  1  0  0  0  0
 29 63  1  0  0  0  0
 30 57  1  0  0  0  0
 30 61  1  0  0  0  0
 31 64  1  0  0  0  0
 31 67  1  0  0  0  0
 32 68  1  0  0  0  0
 32 73  2  0  0  0  0
 33 47  1  0  0  0  0
 33 69  1  0  0  0  0
 33 74  2  0  0  0  0
 34 58  1  0  0  0  0
 34 65  1  0  0  0  0
 34 75  2  0  0  0  0
 35 59  1  0  0  0  0
 35 70  1  0  0  0  0
 35 76  2  0  0  0  0
 36 66  1  0  0  0  0
 36 71  1  0  0  0  0
 36 77  2  0  0  0  0
 37 40  1  0  0  0  0
 38 47  1  0  0  0  0
 39 65  1  0  0  0  0
 40 42  1  0  0  0  0
 41 43  1  0  0  0  0
 41 44  1  0  0  0  0
 42 46  1  0  0  0  0
 43 48  1  0  0  0  0
 44 66  1  0  0  0  0
 45 48  1  0  0  0  0
 45 66  1  0  0  0  0
 46 69  1  0  0  0  0
 47 65  1  0  0  0  0
 48 64  1  0  0  0  0
 49 55  1  0  0  0  0
 50 59  1  0  0  0  0
 51 60  1  0  0  0  0
 52 60  1  0  0  0  0
 53 60  1  0  0  0  0
 54 72  1  0  0  0  0
 56 71  1  0  0  0  0
 57 79  1  0  0  0  0
 58 60  1  0  0  0  0
 58 70  1  0  0  0  0
 59 72  1  0  0  0  0
 62 64  1  0  0  0  0
M  CHG  1  72   1
M  ISO  4  36 100  57 101  71 100  79 101
M  END
> <Batch ID>
0048

> <Smiles>
CCc1nc(C[100NH:0][100C:0](=O)N2CCCC(n3nc(-c4ccc(Oc5ccc(F)cc5F)cc4)c(C(N)=O)c3N)C2)cnc1[101CH2:1][101O:1]c1ccc2c(c1)CN(C(=O)C(NC(=O)C(C)NC)C(C)(C)C)C(C(=O)NC1CCCc3ccccc31)C2

> <Shape>
0.243

> <Color>
0.211

> <Negative vol penalty>
0.000

$$$$

  -OEChem-04052317263D

 80 88  0     1  0  0  0  0  0999 V2000
  -15.6728  -19.3081   23.7965 C   0  0  0  0  0  0  0  0  0  0  0  0
  -16.9140  -19.9360   23.7701 C   0  0  0  0  0  0  0  0  0  0  0  0
  -23.0623   -9.8494   19.9465 C   0  0  0  0  0  0  0  0  0  0  0  0
  -23.8239   -9.8663   22.2392 C   0  0  0  0  0  0  0  0  0  0  0  0
  -15.5074  -18.0674   23.1823 C   0  0  0  0  0  0  0  0  0  0  0  0
  -17.9908  -19.3230   23.1305 C   0  0  0  0  0  0  0  0  0  0  0  0
  -23.8965  -20.8966   19.3938 C   0  0  0  0  0  0  0  0  0  0  0  0
  -22.3226   -8.6945   20.2007 C   0  0  0  0  0  0  0  0  0  0  0  0
  -23.0842   -8.7114   22.4935 C   0  0  0  0  0  0  0  0  0  0  0  0
  -25.2653  -20.6323   19.3811 C   0  0  0  0  0  0  0  0  0  0  0  0
  -19.9471   -5.9463   20.3397 C   0  0  0  0  0  0  0  0  0  0  0  0
  -18.6412   -5.8922   19.8525 C   0  0  0  0  0  0  0  0  0  0  0  0
  -24.8423  -18.5252   18.2857 C   0  0  0  0  0  0  0  0  0  0  0  0
  -18.0703   -7.8373   21.1670 C   0  0  0  0  0  0  0  0  0  0  0  0
  -29.4657  -18.7688   20.7092 C   0  0  0  0  0  0  0  0  0  0  0  0
  -31.1032  -19.3501   19.3538 C   0  0  0  0  0  0  0  0  0  0  0  0
  -23.8130  -10.4353   20.9658 C   0  0  0  0  0  0  0  0  0  0  0  0
  -24.1460  -12.9612   20.8375 C   0  0  0  0  0  0  0  0  0  0  0  0
  -16.5803  -17.4433   22.5265 C   0  0  0  0  0  0  0  0  0  0  0  0
  -22.9879  -19.9707   18.8614 C   0  0  0  0  0  0  0  0  0  0  0  0
  -17.8399  -18.0721   22.5081 C   0  0  0  0  0  0  0  0  0  0  0  0
  -23.4626  -18.7812   18.2905 C   0  0  0  0  0  0  0  0  0  0  0  0
  -22.3336   -8.1255   21.4742 C   0  0  0  0  0  0  0  0  0  0  0  0
  -25.7382  -19.4452   18.8296 C   0  0  0  0  0  0  0  0  0  0  0  0
  -20.3146   -6.9458   21.2405 C   0  0  0  0  0  0  0  0  0  0  0  0
  -17.7028   -6.8377   20.2662 C   0  0  0  0  0  0  0  0  0  0  0  0
  -19.3763   -7.8913   21.6542 C   0  0  0  0  0  0  0  0  0  0  0  0
  -24.5778  -11.6280   20.7036 C   0  0  0  0  0  0  0  0  0  0  0  0
  -30.5857  -17.9981   20.9142 C   0  0  0  0  0  0  0  0  0  0  0  0
  -25.2353  -13.7133   20.4710 C   0  0  0  0  0  0  0  0  0  0  0  0
  -22.8740  -13.4740   21.2557 C   0  0  0  0  0  0  0  0  0  0  0  0
  -20.5806  -18.2599   20.0370 C   0  0  0  0  0  0  0  0  0  0  0  0
  -20.1451  -17.4555   16.9249 C   0  0  0  0  0  0  0  0  0  0  0  0
  -21.4874  -17.1118   13.8061 C   0  0  0  0  0  0  0  0  0  0  0  0
  -30.7156  -14.7520   20.6518 C   0  0  0  0  0  0  0  0  0  0  0  0
  -16.3651  -16.0803   21.9177 C   0  0  0  0  0  0  0  0  0  0  0  0
  -21.5164  -20.2827   18.8586 C   0  0  0  0  0  0  0  0  0  0  0  0
  -22.5301  -17.7635   17.6877 C   0  0  0  0  0  0  0  0  0  0  0  0
  -17.4617  -15.6709   20.9378 C   0  0  0  0  0  0  0  0  0  0  0  0
  -29.5844  -12.3560   18.2735 C   0  0  0  0  0  0  0  0  0  0  0  0
  -18.8390  -15.9531   21.5296 C   0  0  0  0  0  0  0  0  0  0  0  0
  -28.1483  -12.0586   18.7085 C   0  0  0  0  0  0  0  0  0  0  0  0
  -30.5017  -12.5838   19.4729 C   0  0  0  0  0  0  0  0  0  0  0  0
  -28.5985  -13.3127   20.8587 C   0  0  0  0  0  0  0  0  0  0  0  0
  -19.0257  -17.4505   21.8028 C   0  0  1  0  0  0  0  0  0  0  0  0
  -20.6418  -19.0373   18.7526 C   0  0  1  0  0  0  0  0  0  0  0  0
  -27.6240  -13.1310   19.6824 C   0  0  2  0  0  0  0  0  0  0  0  0
  -20.8952  -16.3984   11.4742 C   0  0  0  0  0  0  0  0  0  0  0  0
  -28.6038  -19.3623   16.9825 C   0  0  0  0  0  0  0  0  0  0  0  0
  -20.2448  -14.5330   17.7962 C   0  0  0  0  0  0  0  0  0  0  0  0
  -20.6052  -13.9033   15.4000 C   0  0  0  0  0  0  0  0  0  0  0  0
  -18.4986  -15.0517   16.0827 C   0  0  0  0  0  0  0  0  0  0  0  0
  -22.1086  -19.7879   12.7052 C   0  0  0  0  0  0  0  0  0  0  0  0
  -30.7749  -16.9067   21.8818 C   0  0  0  0  0  0  0  0  0  0  0  0
  -28.9304  -20.6933   19.0956 C   0  0  0  0  0  0  0  0  0  0  0  0
  -20.6603  -16.3614   16.0213 C   0  0  1  0  0  0  0  0  0  0  0  0
  -20.9976  -17.5662   12.4430 C   0  0  2  0  0  0  0  0  0  0  0  0
  -27.9086  -20.1059   18.1162 C   0  0  2  0  0  0  0  0  0  1  0  0
  -20.0199  -14.9804   16.3381 C   0  0  0  0  0  0  0  0  0  0  0  0
  -31.6016  -18.3651   20.0676 N   0  0  0  0  0  0  0  0  0  0  0  0
  -25.8426  -11.5352   20.2847 N   0  0  0  0  0  0  0  0  0  0  0  0
  -29.8126  -19.6306   19.7071 N   0  0  0  0  0  0  0  0  0  0  0  0
  -26.2150  -12.8197   20.1520 N   0  0  0  0  0  0  0  0  0  0  0  0
  -21.0999  -18.1115   17.7147 N   0  0  0  0  0  0  0  0  0  0  0  0
  -29.9483  -13.6132   20.3561 N   0  0  0  0  0  0  0  0  0  0  0  0
  -25.4410  -15.0453   20.3935 N   0  0  0  0  0  0  0  0  0  0  0  0
  -21.8656  -12.5624   21.5967 N   0  0  0  0  0  0  0  0  0  0  0  0
  -19.3108  -18.1570   20.5724 N   0  0  0  0  0  0  0  0  0  0  0  0
  -20.4400  -16.8228   14.6549 N   0  0  0  0  0  0  0  0  0  0  0  0
  -30.1139  -15.6814   21.4913 N   0  0  0  0  0  0  0  0  0  0  0  0
  -21.9316  -18.5745   11.8666 N   0  3  0  0  0  0  0  0  0  0  0  0
  -22.6336  -14.7039   21.3094 O   0  0  0  0  0  0  0  0  0  0  0  0
  -21.6090  -17.7871   20.5067 O   0  0  0  0  0  0  0  0  0  0  0  0
  -18.9409  -17.7231   16.9245 O   0  0  0  0  0  0  0  0  0  0  0  0
  -22.6800  -17.0188   14.0883 O   0  0  0  0  0  0  0  0  0  0  0  0
  -31.8506  -14.9299   20.1967 O   0  0  0  0  0  0  0  0  0  0  0  0
  -21.6117   -6.9986   21.7226 O   0  0  0  0  0  0  0  0  0  0  0  0
  -27.0738  -19.1845   18.8165 O   0  0  0  0  0  0  0  0  0  1  0  0
  -16.4492   -6.7866   19.7971 F   0  0  0  0  0  0  0  0  0  0  0  0
  -19.7237   -8.8546   22.5185 F   0  0  0  0  0  0  0  0  0  0  0  0
  1  2  1  0  0  0  0
  1  5  2  0  0  0  0
  2  6  2  0  0  0  0
  3  8  2  0  0  0  0
  3 17  1  0  0  0  0
  4  9  1  0  0  0  0
  4 17  2  0  0  0  0
  5 19  1  0  0  0  0
  6 21  1  0  0  0  0
  7 10  2  0  0  0  0
  7 20  1  0  0  0  0
  8 23  1  0  0  0  0
  9 23  2  0  0  0  0
 10 24  1  0  0  0  0
 11 12  2  0  0  0  0
 11 25  1  0  0  0  0
 12 26  1  0  0  0  0
 13 22  1  0  0  0  0
 13 24  2  0  0  0  0
 14 26  2  0  0  0  0
 14 27  1  0  0  0  0
 15 29  2  0  0  0  0
 15 62  1  0  0  0  0
 16 60  2  0  0  0  0
 16 62  1  0  0  0  0
 17 28  1  0  0  0  0
 18 28  1  0  0  0  0
 18 30  2  0  0  0  0
 18 31  1  0  0  0  0
 19 21  2  0  0  0  0
 19 36  1  0  0  0  0
 20 22  2  0  0  0  0
 20 37  1  0  0  0  0
 21 45  1  0  0  0  0
 22 38  1  0  0  0  0
 23 77  1  0  0  0  0
 24 78  1  0  0  0  0
 25 27  2  0  0  0  0
 25 77  1  0  0  0  0
 26 79  1  0  0  0  0
 27 80  1  0  0  0  0
 28 61  2  0  0  0  0
 29 54  1  0  0  0  0
 29 60  1  0  0  0  0
 30 63  1  0  0  0  0
 30 66  1  0  0  0  0
 31 67  1  0  0  0  0
 31 72  2  0  0  0  0
 32 46  1  0  0  0  0
 32 68  1  0  0  0  0
 32 73  2  0  0  0  0
 33 56  1  0  0  0  0
 33 64  1  0  0  0  0
 33 74  2  0  0  0  0
 34 57  1  0  0  0  0
 34 69  1  0  0  0  0
 34 75  2  0  0  0  0
 35 65  1  0  0  0  0
 35 70  1  0  0  0  0
 35 76  2  0  0  0  0
 36 39  1  0  0  0  0
 37 46  1  0  0  0  0
 38 64  1  0  0  0  0
 39 41  1  0  0  0  0
 40 42  1  0  0  0  0
 40 43  1  0  0  0  0
 41 45  1  0  0  0  0
 42 47  1  0  0  0  0
 43 65  1  0  0  0  0
 44 47  1  0  0  0  0
 44 65  1  0  0  0  0
 45 68  1  0  0  0  0
 46 64  1  0  0  0  0
 47 63  1  0  0  0  0
 48 57  1  0  0  0  0
 49 58  1  0  0  0  0
 50 59  1  0  0  0  0
 51 59  1  0  0  0  0
 52 59  1  0  0  0  0
 53 71  1  0  0  0  0
 54 70  1  0  0  0  0
 55 58  1  0  0  0  0
 55 62  1  0  0  0  0
 56 59  1  0  0  0  0
 56 69  1  0  0  0  0
 57 71  1  0  0  0  0
 58 78  1  0  0  0  0
 61 63  1  0  0  0  0
M  CHG  1  71   1
M  ISO  4  35 100  58 101  70 100  78 101
M  END
> <Batch ID>
0048

> <Smiles>
CNC(C)C(=O)NC(C(=O)N1Cc2cc([101O:1][101CH:1](C)Cn3cnc(C[100NH:0][100C:0](=O)N4CCCC(n5nc(-c6ccc(Oc7ccc(F)cc7F)cc6)c(C(N)=O)c5N)C4)c3)ccc2CC1C(=O)NC1CCCc2ccccc21)C(C)(C)C

> <Shape>
0.175

> <Color>
0.195

> <Negative vol penalty>
0.000

$$$$

  -OEChem-04052317263D

 82 90  0     1  0  0  0  0  0999 V2000
  -30.5923  -30.7216   13.4164 C   0  0  0  0  0  0  0  0  0  0  0  0
  -30.5074  -29.5498   14.1615 C   0  0  0  0  0  0  0  0  0  0  0  0
  -26.5242  -13.2293   20.1447 C   0  0  0  0  0  0  0  0  0  0  0  0
  -25.4480  -14.9351   21.4748 C   0  0  0  0  0  0  0  0  0  0  0  0
  -30.3550  -31.9528   14.0261 C   0  0  0  0  0  0  0  0  0  0  0  0
  -30.1862  -29.6087   15.5171 C   0  0  0  0  0  0  0  0  0  0  0  0
  -26.8971  -25.5406   18.7013 C   0  0  0  0  0  0  0  0  0  0  0  0
  -28.3753  -19.1683   22.9768 C   0  0  0  0  0  0  0  0  0  0  0  0
  -25.3319  -12.5064   20.1072 C   0  0  0  0  0  0  0  0  0  0  0  0
  -24.2557  -14.2122   21.4373 C   0  0  0  0  0  0  0  0  0  0  0  0
  -27.2634  -24.4892   19.5404 C   0  0  0  0  0  0  0  0  0  0  0  0
  -23.6011  -10.4494   22.1560 C   0  0  0  0  0  0  0  0  0  0  0  0
  -23.6695   -9.0756   22.3875 C   0  0  0  0  0  0  0  0  0  0  0  0
  -28.0501  -20.0699   21.9695 C   0  0  0  0  0  0  0  0  0  0  0  0
  -26.9954  -25.9319   21.4551 C   0  0  0  0  0  0  0  0  0  0  0  0
  -22.7368   -8.6601   20.1979 C   0  0  0  0  0  0  0  0  0  0  0  0
  -26.5823  -14.4437   20.8286 C   0  0  0  0  0  0  0  0  0  0  0  0
  -28.2420  -16.1729   19.9553 C   0  0  0  0  0  0  0  0  0  0  0  0
  -30.0212  -32.0260   15.3877 C   0  0  0  0  0  0  0  0  0  0  0  0
  -26.5873  -26.8007   19.2328 C   0  0  0  0  0  0  0  0  0  0  0  0
  -29.9455  -30.8421   16.1460 C   0  0  0  0  0  0  0  0  0  0  0  0
  -26.6230  -26.9969   20.6208 C   0  0  0  0  0  0  0  0  0  0  0  0
  -28.9543  -19.6289   24.1541 C   0  0  0  0  0  0  0  0  0  0  0  0
  -24.1977  -12.9978   20.7534 C   0  0  0  0  0  0  0  0  0  0  0  0
  -27.3154  -24.6855   20.9173 C   0  0  0  0  0  0  0  0  0  0  0  0
  -23.1005  -10.9286   20.9454 C   0  0  0  0  0  0  0  0  0  0  0  0
  -23.2374   -8.1810   21.4085 C   0  0  0  0  0  0  0  0  0  0  0  0
  -22.6684  -10.0340   19.9664 C   0  0  0  0  0  0  0  0  0  0  0  0
  -27.8138  -15.1906   20.8683 C   0  0  0  0  0  0  0  0  0  0  0  0
  -28.3220  -21.4110   22.1869 C   0  0  0  0  0  0  0  0  0  0  0  0
  -29.1859  -20.9898   24.2736 C   0  0  0  0  0  0  0  0  0  0  0  0
  -29.4659  -16.5745   20.4320 C   0  0  0  0  0  0  0  0  0  0  0  0
  -27.5915  -16.6773   18.7813 C   0  0  0  0  0  0  0  0  0  0  0  0
  -27.8145  -29.7190   18.9478 C   0  0  0  0  0  0  0  0  0  0  0  0
  -25.2277  -30.5567   20.7166 C   0  0  0  0  0  0  0  0  0  0  0  0
  -22.8181  -29.6256   22.9468 C   0  0  0  0  0  0  0  0  0  0  0  0
  -31.6763  -16.1000   26.1265 C   0  0  0  0  0  0  0  0  0  0  0  0
  -29.8199  -33.3833   16.0137 C   0  0  0  0  0  0  0  0  0  0  0  0
  -26.1681  -27.9172   18.3162 C   0  0  0  0  0  0  0  0  0  0  0  0
  -26.2800  -28.3249   21.2430 C   0  0  0  0  0  0  0  0  0  0  0  0
  -29.1175  -33.3312   17.3681 C   0  0  0  0  0  0  0  0  0  0  0  0
  -33.2174  -15.0076   22.9432 C   0  0  0  0  0  0  0  0  0  0  0  0
  -29.7353  -32.2496   18.2485 C   0  0  0  0  0  0  0  0  0  0  0  0
  -32.0198  -14.9484   21.9964 C   0  0  0  0  0  0  0  0  0  0  0  0
  -32.8081  -14.7581   24.3916 C   0  0  0  0  0  0  0  0  0  0  0  0
  -30.5297  -15.6000   23.9292 C   0  0  0  0  0  0  0  0  0  0  0  0
  -29.5754  -30.8631   17.6132 C   0  0  1  0  0  0  0  0  0  0  0  0
  -26.3716  -29.3002   18.9272 C   0  0  1  0  0  0  0  0  0  0  0  0
  -30.9007  -15.8933   22.4677 C   0  0  2  0  0  0  0  0  0  0  0  0
  -29.8025  -21.5417   25.5169 C   0  0  0  0  0  0  0  0  0  0  0  0
  -20.8684  -30.5389   24.2360 C   0  0  0  0  0  0  0  0  0  0  0  0
  -27.1505  -31.9193   22.6547 C   0  0  0  0  0  0  0  0  0  0  0  0
  -25.3033  -31.9677   24.3440 C   0  0  0  0  0  0  0  0  0  0  0  0
  -25.0542  -33.2017   22.1905 C   0  0  0  0  0  0  0  0  0  0  0  0
  -31.0512  -17.8865   27.7067 C   0  0  0  0  0  0  0  0  0  0  0  0
  -20.9283  -27.7672   21.6302 C   0  0  0  0  0  0  0  0  0  0  0  0
  -29.3061  -18.6677   25.2362 C   0  0  0  0  0  0  0  0  0  0  0  0
  -27.9824  -22.4119   21.1218 C   0  0  0  0  0  0  0  0  0  1  0  0
  -30.7997  -18.3220   25.2916 C   0  0  0  0  0  0  0  0  0  0  0  0
  -24.9352  -30.6763   22.1928 C   0  0  1  0  0  0  0  0  0  0  0  0
  -21.3163  -29.8468   22.9580 C   0  0  2  0  0  0  0  0  0  0  0  0
  -25.6192  -31.9167   22.8339 C   0  0  0  0  0  0  0  0  0  0  0  0
  -28.6942  -14.9808   21.8506 N   0  0  0  0  0  0  0  0  0  0  0  0
  -28.8835  -21.8960   23.3170 N   0  0  0  0  0  0  0  0  0  0  0  0
  -29.6879  -15.8369   21.5575 N   0  0  0  0  0  0  0  0  0  0  0  0
  -25.8821  -29.3872   20.3046 N   0  0  0  0  0  0  0  0  0  0  0  0
  -31.7140  -15.6398   24.8000 N   0  0  0  0  0  0  0  0  0  0  0  0
  -30.3631  -17.4831   19.9940 N   0  0  0  0  0  0  0  0  0  0  0  0
  -26.3378  -16.1549   18.4356 N   0  0  0  0  0  0  0  0  0  0  0  0
  -28.2269  -30.3729   17.8025 N   0  0  0  0  0  0  0  0  0  0  0  0
  -23.4822  -30.6609   22.3236 N   0  0  0  0  0  0  0  0  0  0  0  0
  -31.1030  -17.3610   26.3499 N   0  0  0  0  0  0  0  0  0  0  0  0
  -20.6001  -28.5442   22.8531 N   0  3  0  0  0  0  0  0  0  0  0  0
  -28.1142  -17.5533   18.0512 O   0  0  0  0  0  0  0  0  0  0  0  0
  -28.5023  -29.4688   19.9307 O   0  0  0  0  0  0  0  0  0  0  0  0
  -24.8816  -31.4642   19.9561 O   0  0  0  0  0  0  0  0  0  0  0  0
  -23.3493  -28.6354   23.4447 O   0  0  0  0  0  0  0  0  0  0  0  0
  -32.1379  -15.4266   27.0568 O   0  0  0  0  0  0  0  0  0  0  0  0
  -23.0340  -12.2927   20.7167 O   0  0  0  0  0  0  0  0  0  0  0  0
  -27.6732  -23.6611   21.7385 O   0  0  0  0  0  0  0  0  0  1  0  0
  -23.3045   -6.8617   21.6304 F   0  0  0  0  0  0  0  0  0  0  0  0
  -22.1876  -10.4883   18.8009 F   0  0  0  0  0  0  0  0  0  0  0  0
  1  2  1  0  0  0  0
  1  5  2  0  0  0  0
  2  6  2  0  0  0  0
  3  9  2  0  0  0  0
  3 17  1  0  0  0  0
  4 10  1  0  0  0  0
  4 17  2  0  0  0  0
  5 19  1  0  0  0  0
  6 21  1  0  0  0  0
  7 11  2  0  0  0  0
  7 20  1  0  0  0  0
  8 14  2  0  0  0  0
  8 23  1  0  0  0  0
  9 24  1  0  0  0  0
 10 24  2  0  0  0  0
 11 25  1  0  0  0  0
 12 13  2  0  0  0  0
 12 26  1  0  0  0  0
 13 27  1  0  0  0  0
 14 30  1  0  0  0  0
 15 22  1  0  0  0  0
 15 25  2  0  0  0  0
 16 27  2  0  0  0  0
 16 28  1  0  0  0  0
 17 29  1  0  0  0  0
 18 29  1  0  0  0  0
 18 32  2  0  0  0  0
 18 33  1  0  0  0  0
 19 21  2  0  0  0  0
 19 38  1  0  0  0  0
 20 22  2  0  0  0  0
 20 39  1  0  0  0  0
 21 47  1  0  0  0  0
 22 40  1  0  0  0  0
 23 31  2  0  0  0  0
 23 57  1  0  0  0  0
 24 79  1  0  0  0  0
 25 80  1  0  0  0  0
 26 28  2  0  0  0  0
 26 79  1  0  0  0  0
 27 81  1  0  0  0  0
 28 82  1  0  0  0  0
 29 63  2  0  0  0  0
 30 58  1  0  0  0  0
 30 64  2  0  0  0  0
 31 50  1  0  0  0  0
 31 64  1  0  0  0  0
 32 65  1  0  0  0  0
 32 68  1  0  0  0  0
 33 69  1  0  0  0  0
 33 74  2  0  0  0  0
 34 48  1  0  0  0  0
 34 70  1  0  0  0  0
 34 75  2  0  0  0  0
 35 60  1  0  0  0  0
 35 66  1  0  0  0  0
 35 76  2  0  0  0  0
 36 61  1  0  0  0  0
 36 71  1  0  0  0  0
 36 77  2  0  0  0  0
 37 67  1  0  0  0  0
 37 72  1  0  0  0  0
 37 78  2  0  0  0  0
 38 41  1  0  0  0  0
 39 48  1  0  0  0  0
 40 66  1  0  0  0  0
 41 43  1  0  0  0  0
 42 44  1  0  0  0  0
 42 45  1  0  0  0  0
 43 47  1  0  0  0  0
 44 49  1  0  0  0  0
 45 67  1  0  0  0  0
 46 49  1  0  0  0  0
 46 67  1  0  0  0  0
 47 70  1  0  0  0  0
 48 66  1  0  0  0  0
 49 65  1  0  0  0  0
 51 61  1  0  0  0  0
 52 62  1  0  0  0  0
 53 62  1  0  0  0  0
 54 62  1  0  0  0  0
 55 72  1  0  0  0  0
 56 73  1  0  0  0  0
 57 59  1  0  0  0  0
 58 80  1  0  0  0  0
 59 72  1  0  0  0  0
 60 62  1  0  0  0  0
 60 71  1  0  0  0  0
 61 73  1  0  0  0  0
 63 65  1  0  0  0  0
M  CHG  1  73   1
M  ISO  4  37 100  58 101  72 100  80 101
M  END
> <Batch ID>
0048

> <Smiles>
CNC(C)C(=O)NC(C(=O)N1Cc2cc([101O:1][101CH2:1]c3ccc(CC[100N:0](C)[100C:0](=O)N4CCCC(n5nc(-c6ccc(Oc7ccc(F)cc7F)cc6)c(C(N)=O)c5N)C4)c(C)n3)ccc2CC1C(=O)NC1CCCc2ccccc21)C(C)(C)C

> <Shape>
0.229

> <Color>
0.083

> <Negative vol penalty>
0.000

$$$$

  -OEChem-04052317263D

 79 87  0     1  0  0  0  0  0999 V2000
  -27.4498  -10.4985   19.1214 C   0  0  0  0  0  0  0  0  0  0  0  0
  -27.9884  -11.7294   18.7606 C   0  0  0  0  0  0  0  0  0  0  0  0
  -20.6890  -28.7290   21.1506 C   0  0  0  0  0  0  0  0  0  0  0  0
  -21.8851  -27.3693   22.7498 C   0  0  0  0  0  0  0  0  0  0  0  0
  -26.2479  -10.4443   19.8260 C   0  0  0  0  0  0  0  0  0  0  0  0
  -27.3249  -12.9069   19.1033 C   0  0  0  0  0  0  0  0  0  0  0  0
  -29.8772  -18.2624   20.6232 C   0  0  0  0  0  0  0  0  0  0  0  0
  -19.5258  -28.0016   21.4020 C   0  0  0  0  0  0  0  0  0  0  0  0
  -20.7219  -26.6418   23.0013 C   0  0  0  0  0  0  0  0  0  0  0  0
  -30.1213  -19.4256   19.8943 C   0  0  0  0  0  0  0  0  0  0  0  0
  -18.9692  -24.1568   21.5237 C   0  0  0  0  0  0  0  0  0  0  0  0
  -19.0737  -22.7670   21.5815 C   0  0  0  0  0  0  0  0  0  0  0  0
  -28.0673  -20.3740   20.7316 C   0  0  0  0  0  0  0  0  0  0  0  0
  -18.2619  -22.8007   23.8569 C   0  0  0  0  0  0  0  0  0  0  0  0
  -30.7980  -23.3300   16.4534 C   0  0  0  0  0  0  0  0  0  0  0  0
  -21.8687  -28.4129   21.8244 C   0  0  0  0  0  0  0  0  0  0  0  0
  -23.5068  -30.3265   22.2275 C   0  0  0  0  0  0  0  0  0  0  0  0
  -25.5742  -11.6221   20.1859 C   0  0  0  0  0  0  0  0  0  0  0  0
  -28.7190  -18.1419   21.4045 C   0  0  0  0  0  0  0  0  0  0  0  0
  -26.1121  -12.8685   19.8122 C   0  0  0  0  0  0  0  0  0  0  0  0
  -27.8122  -19.2092   21.4714 C   0  0  0  0  0  0  0  0  0  0  0  0
  -19.5422  -26.9580   22.3274 C   0  0  0  0  0  0  0  0  0  0  0  0
  -29.2149  -20.4805   19.9461 C   0  0  0  0  0  0  0  0  0  0  0  0
  -18.5111  -24.8685   22.6325 C   0  0  0  0  0  0  0  0  0  0  0  0
  -18.7200  -22.0890   22.7481 C   0  0  0  0  0  0  0  0  0  0  0  0
  -18.1575  -24.1904   23.7990 C   0  0  0  0  0  0  0  0  0  0  0  0
  -23.0708  -29.1636   21.5646 C   0  0  0  0  0  0  0  0  0  0  0  0
  -30.7387  -22.9939   17.7765 C   0  0  0  0  0  0  0  0  0  0  0  0
  -24.6931  -30.6470   21.6141 C   0  0  0  0  0  0  0  0  0  0  0  0
  -30.8615  -25.1998   17.6368 C   0  0  0  0  0  0  0  0  0  0  0  0
  -22.8943  -31.0519   23.3018 C   0  0  0  0  0  0  0  0  0  0  0  0
  -26.1971  -16.2069   21.3934 C   0  0  0  0  0  0  0  0  0  0  0  0
  -25.4663  -17.7816   24.1336 C   0  0  0  0  0  0  0  0  0  0  0  0
  -25.8015  -20.5951   26.0359 C   0  0  0  0  0  0  0  0  0  0  0  0
  -28.6657  -27.3399   18.7615 C   0  0  0  0  0  0  0  0  0  0  0  0
  -24.2537  -11.5119   20.9062 C   0  0  0  0  0  0  0  0  0  0  0  0
  -28.4836  -16.8910   22.2059 C   0  0  0  0  0  0  0  0  0  0  0  0
  -26.5638  -19.1378   22.3111 C   0  0  0  0  0  0  0  0  0  0  0  0
  -23.8044  -12.8173   21.5576 C   0  0  0  0  0  0  0  0  0  0  0  0
  -26.9708  -30.2443   17.4239 C   0  0  0  0  0  0  0  0  0  0  0  0
  -23.9657  -13.9820   20.5858 C   0  0  0  0  0  0  0  0  0  0  0  0
  -25.8124  -30.4017   18.4106 C   0  0  0  0  0  0  0  0  0  0  0  0
  -27.2695  -28.7729   17.1522 C   0  0  0  0  0  0  0  0  0  0  0  0
  -26.3911  -28.1208   19.3606 C   0  0  0  0  0  0  0  0  0  0  0  0
  -25.4346  -14.1686   20.1873 C   0  0  1  0  0  0  0  0  0  0  0  0
  -27.0158  -16.6771   22.5624 C   0  0  1  0  0  0  0  0  0  0  0  0
  -26.0548  -29.5857   19.6941 C   0  0  2  0  0  0  0  0  0  0  0  0
  -25.0556  -21.6040   28.2092 C   0  0  0  0  0  0  0  0  0  0  0  0
  -22.7290  -18.3671   22.9196 C   0  0  0  0  0  0  0  0  0  0  0  0
  -22.4055  -20.1261   24.6716 C   0  0  0  0  0  0  0  0  0  0  0  0
  -22.6840  -17.7389   25.3399 C   0  0  0  0  0  0  0  0  0  0  0  0
  -30.9513  -25.4813   15.1775 C   0  0  0  0  0  0  0  0  0  0  0  0
  -28.5799  -20.7757   27.0391 C   0  0  0  0  0  0  0  0  0  0  0  0
  -30.6459  -21.6600   18.4572 C   0  0  0  0  0  0  0  0  0  1  0  0
  -30.9261  -26.6314   18.0229 C   0  0  0  0  0  0  0  0  0  0  0  0
  -24.6816  -19.0251   24.4753 C   0  0  1  0  0  0  0  0  0  0  0  0
  -26.1264  -20.7838   27.5067 C   0  0  2  0  0  0  0  0  0  0  0  0
  -23.1475  -18.8152   24.3341 C   0  0  0  0  0  0  0  0  0  0  0  0
  -23.9117  -28.7720   20.6035 N   0  0  0  0  0  0  0  0  0  0  0  0
  -30.8728  -24.7009   16.3964 N   0  0  0  0  0  0  0  0  0  0  0  0
  -24.8879  -29.6941   20.6580 N   0  0  0  0  0  0  0  0  0  0  0  0
  -30.7801  -24.1701   18.4856 N   0  3  0  0  0  0  0  0  0  0  0  0
  -26.3751  -17.8913   23.0715 N   0  0  0  0  0  0  0  0  0  0  0  0
  -27.5090  -28.0570   18.4132 N   0  0  0  0  0  0  0  0  0  0  0  0
  -25.5783  -31.6484   21.8045 N   0  0  0  0  0  0  0  0  0  0  0  0
  -21.6764  -30.5848   23.8145 N   0  0  0  0  0  0  0  0  0  0  0  0
  -26.1648  -14.8335   21.2453 N   0  0  0  0  0  0  0  0  0  0  0  0
  -25.1097  -19.4236   25.8119 N   0  0  0  0  0  0  0  0  0  0  0  0
  -29.6746  -27.3227   17.8063 N   0  0  0  0  0  0  0  0  0  0  0  0
  -27.4327  -21.4839   27.6630 N   0  3  0  0  0  0  0  0  0  0  0  0
  -23.4034  -32.0931   23.7817 O   0  0  0  0  0  0  0  0  0  0  0  0
  -25.6352  -17.0294   20.6796 O   0  0  0  0  0  0  0  0  0  0  0  0
  -25.2851  -16.7528   24.7897 O   0  0  0  0  0  0  0  0  0  0  0  0
  -26.1255  -21.4077   25.1726 O   0  0  0  0  0  0  0  0  0  0  0  0
  -28.7924  -26.7619   19.8464 O   0  0  0  0  0  0  0  0  0  0  0  0
  -18.4072  -26.2481   22.5733 O   0  0  0  0  0  0  0  0  0  0  0  0
  -29.4503  -21.6167   19.2352 O   0  0  0  0  0  0  0  0  0  1  0  0
  -18.8189  -20.7543   22.8029 F   0  0  0  0  0  0  0  0  0  0  0  0
  -17.7157  -24.8686   24.8671 F   0  0  0  0  0  0  0  0  0  0  0  0
  1  2  1  0  0  0  0
  1  5  2  0  0  0  0
  2  6  2  0  0  0  0
  3  8  2  0  0  0  0
  3 16  1  0  0  0  0
  4  9  1  0  0  0  0
  4 16  2  0  0  0  0
  5 18  1  0  0  0  0
  6 20  1  0  0  0  0
  7 10  2  0  0  0  0
  7 19  1  0  0  0  0
  8 22  1  0  0  0  0
  9 22  2  0  0  0  0
 10 23  1  0  0  0  0
 11 12  2  0  0  0  0
 11 24  1  0  0  0  0
 12 25  1  0  0  0  0
 13 21  1  0  0  0  0
 13 23  2  0  0  0  0
 14 25  2  0  0  0  0
 14 26  1  0  0  0  0
 15 28  2  0  0  0  0
 15 60  1  0  0  0  0
 16 27  1  0  0  0  0
 17 27  1  0  0  0  0
 17 29  2  0  0  0  0
 17 31  1  0  0  0  0
 18 20  2  0  0  0  0
 18 36  1  0  0  0  0
 19 21  2  0  0  0  0
 19 37  1  0  0  0  0
 20 45  1  0  0  0  0
 21 38  1  0  0  0  0
 22 76  1  0  0  0  0
 23 77  1  0  0  0  0
 24 26  2  0  0  0  0
 24 76  1  0  0  0  0
 25 78  1  0  0  0  0
 26 79  1  0  0  0  0
 27 59  2  0  0  0  0
 28 54  1  0  0  0  0
 28 62  1  0  0  0  0
 29 61  1  0  0  0  0
 29 65  1  0  0  0  0
 30 55  1  0  0  0  0
 30 60  1  0  0  0  0
 30 62  2  0  0  0  0
 31 66  1  0  0  0  0
 31 71  2  0  0  0  0
 32 46  1  0  0  0  0
 32 67  1  0  0  0  0
 32 72  2  0  0  0  0
 33 56  1  0  0  0  0
 33 63  1  0  0  0  0
 33 73  2  0  0  0  0
 34 57  1  0  0  0  0
 34 68  1  0  0  0  0
 34 74  2  0  0  0  0
 35 64  1  0  0  0  0
 35 69  1  0  0  0  0
 35 75  2  0  0  0  0
 36 39  1  0  0  0  0
 37 46  1  0  0  0  0
 38 63  1  0  0  0  0
 39 41  1  0  0  0  0
 40 42  1  0  0  0  0
 40 43  1  0  0  0  0
 41 45  1  0  0  0  0
 42 47  1  0  0  0  0
 43 64  1  0  0  0  0
 44 47  1  0  0  0  0
 44 64  1  0  0  0  0
 45 67  1  0  0  0  0
 46 63  1  0  0  0  0
 47 61  1  0  0  0  0
 48 57  1  0  0  0  0
 49 58  1  0  0  0  0
 50 58  1  0  0  0  0
 51 58  1  0  0  0  0
 52 60  1  0  0  0  0
 53 70  1  0  0  0  0
 54 77  1  0  0  0  0
 55 69  1  0  0  0  0
 56 58  1  0  0  0  0
 56 68  1  0  0  0  0
 57 70  1  0  0  0  0
 59 61  1  0  0  0  0
M  CHG  2  62   1  70   1
M  ISO  4  35 100  54 101  69 100  77 101
M  END
> <Batch ID>
0048

> <Smiles>
CNC(C)C(=O)NC(C(=O)N1Cc2cc([101O:1][101CH2:1]c3cn(C)c(C[100NH:0][100C:0](=O)N4CCCC(n5nc(-c6ccc(Oc7ccc(F)cc7F)cc6)c(C(N)=O)c5N)C4)n3)ccc2CC1C(=O)NC1CCCc2ccccc21)C(C)(C)C

> <Shape>
0.237

> <Color>
0.072

> <Negative vol penalty>
0.000

$$$$

  -OEChem-04052317262D

  0  0  0     0  0  0  0  0  0999 V2000
M  END
$$$$

  -OEChem-04052317263D

 78 86  0     1  0  0  0  0  0999 V2000
  -25.3537  -35.4862   22.7169 C   0  0  0  0  0  0  0  0  0  0  0  0
  -26.0394  -34.2980   22.4858 C   0  0  0  0  0  0  0  0  0  0  0  0
  -26.6919  -12.6991   21.1191 C   0  0  0  0  0  0  0  0  0  0  0  0
  -26.6645  -13.0865   18.7346 C   0  0  0  0  0  0  0  0  0  0  0  0
  -24.1183  -35.4625   23.3629 C   0  0  0  0  0  0  0  0  0  0  0  0
  -25.4906  -33.0854   22.9015 C   0  0  0  0  0  0  0  0  0  0  0  0
  -25.8547  -29.4755   19.3686 C   0  0  0  0  0  0  0  0  0  0  0  0
  -26.1701  -11.4213   20.9175 C   0  0  0  0  0  0  0  0  0  0  0  0
  -26.1428  -11.8087   18.5329 C   0  0  0  0  0  0  0  0  0  0  0  0
  -27.0939  -28.8547   19.2180 C   0  0  0  0  0  0  0  0  0  0  0  0
  -23.1552  -10.0352   20.2744 C   0  0  0  0  0  0  0  0  0  0  0  0
  -22.1121   -9.6236   21.1039 C   0  0  0  0  0  0  0  0  0  0  0  0
  -26.3081  -26.9831   20.5213 C   0  0  0  0  0  0  0  0  0  0  0  0
  -23.4623   -7.7791   21.8864 C   0  0  0  0  0  0  0  0  0  0  0  0
  -29.2827  -23.7826   18.7564 C   0  0  0  0  0  0  0  0  0  0  0  0
  -28.6897  -24.5124   16.7633 C   0  0  0  0  0  0  0  0  0  0  0  0
  -26.9390  -13.5317   20.0276 C   0  0  0  0  0  0  0  0  0  0  0  0
  -28.8358  -15.2189   20.2792 C   0  0  0  0  0  0  0  0  0  0  0  0
  -23.5496  -34.2481   23.7781 C   0  0  0  0  0  0  0  0  0  0  0  0
  -24.8347  -28.8586   20.1072 C   0  0  0  0  0  0  0  0  0  0  0  0
  -24.2471  -33.0456   23.5548 C   0  0  0  0  0  0  0  0  0  0  0  0
  -25.0559  -27.5970   20.6777 C   0  0  0  0  0  0  0  0  0  0  0  0
  -25.8956  -10.9761   19.6244 C   0  0  0  0  0  0  0  0  0  0  0  0
  -27.3217  -27.6097   19.7968 C   0  0  0  0  0  0  0  0  0  0  0  0
  -24.3518   -9.3188   20.2508 C   0  0  0  0  0  0  0  0  0  0  0  0
  -22.2656   -8.4956   21.9099 C   0  0  0  0  0  0  0  0  0  0  0  0
  -24.5054   -8.1908   21.0568 C   0  0  0  0  0  0  0  0  0  0  0  0
  -27.4774  -14.8520   20.2353 C   0  0  0  0  0  0  0  0  0  0  0  0
  -28.4903  -22.8693   18.1016 C   0  0  0  0  0  0  0  0  0  0  0  0
  -28.8184  -16.5746   20.4988 C   0  0  0  0  0  0  0  0  0  0  0  0
  -30.0085  -14.4069   20.1342 C   0  0  0  0  0  0  0  0  0  0  0  0
  -23.2159  -29.5915   22.7427 C   0  0  0  0  0  0  0  0  0  0  0  0
  -26.7259  -21.6246   19.3119 C   0  0  0  0  0  0  0  0  0  0  0  0
  -21.5158  -26.9399   21.9676 C   0  0  0  0  0  0  0  0  0  0  0  0
  -21.4045  -23.9433   20.3384 C   0  0  0  0  0  0  0  0  0  0  0  0
  -22.2338  -34.2770   24.5147 C   0  0  0  0  0  0  0  0  0  0  0  0
  -23.4947  -29.5293   20.2379 C   0  0  0  0  0  0  0  0  0  0  0  0
  -23.9871  -26.8834   21.4631 C   0  0  0  0  0  0  0  0  0  0  0  0
  -21.5474  -32.9155   24.5891 C   0  0  0  0  0  0  0  0  0  0  0  0
  -25.0342  -19.6616   21.7867 C   0  0  0  0  0  0  0  0  0  0  0  0
  -22.5447  -31.8366   24.9992 C   0  0  0  0  0  0  0  0  0  0  0  0
  -25.6085  -18.2596   21.5870 C   0  0  0  0  0  0  0  0  0  0  0  0
  -24.9068  -20.4068   20.4618 C   0  0  0  0  0  0  0  0  0  0  0  0
  -26.7572  -19.0868   19.4843 C   0  0  0  0  0  0  0  0  0  0  0  0
  -23.6730  -31.7079   23.9687 C   0  0  1  0  0  0  0  0  0  0  0  0
  -22.6977  -29.0419   21.4439 C   0  0  1  0  0  0  0  0  0  0  0  0
  -26.9311  -18.3107   20.8018 C   0  0  2  0  0  0  0  0  0  0  0  0
  -19.8938  -21.9838   19.9193 C   0  0  0  0  0  0  0  0  0  0  0  0
  -22.0689  -25.9135   24.7873 C   0  0  0  0  0  0  0  0  0  0  0  0
  -21.3886  -23.6313   24.0148 C   0  0  0  0  0  0  0  0  0  0  0  0
  -19.7423  -25.5048   23.9660 C   0  0  0  0  0  0  0  0  0  0  0  0
  -21.4120  -24.4143   17.4166 C   0  0  0  0  0  0  0  0  0  0  0  0
  -28.0391  -21.5516   18.5742 C   0  0  0  0  0  0  0  0  0  0  0  0
  -30.1719  -26.1059   18.1237 C   0  0  0  0  0  0  0  0  0  0  0  0
  -29.2587  -27.2807   18.4566 C   0  0  0  0  0  0  0  0  0  1  0  0
  -21.6283  -25.4678   22.2826 C   0  0  1  0  0  0  0  0  0  0  0  0
  -20.3648  -23.3381   19.4126 C   0  0  2  0  0  0  0  0  0  0  0  0
  -21.2280  -25.1434   23.7496 C   0  0  0  0  0  0  0  0  0  0  0  0
  -28.1248  -23.3294   16.8614 N   0  0  0  0  0  0  0  0  0  0  0  0
  -26.6567  -15.8907   20.4130 N   0  0  0  0  0  0  0  0  0  0  0  0
  -29.4019  -24.8296   17.8864 N   0  0  0  0  0  0  0  0  0  0  0  0
  -27.5019  -16.9237   20.5707 N   0  0  0  0  0  0  0  0  0  0  0  0
  -22.6959  -27.5829   21.5680 N   0  0  0  0  0  0  0  0  0  0  0  0
  -26.1783  -20.4138   19.7361 N   0  0  0  0  0  0  0  0  0  0  0  0
  -29.8009  -17.4902   20.6356 N   0  0  0  0  0  0  0  0  0  0  0  0
  -29.8464  -13.0324   19.9135 N   0  0  0  0  0  0  0  0  0  0  0  0
  -23.2169  -30.9718   22.8091 N   0  0  0  0  0  0  0  0  0  0  0  0
  -20.8304  -24.7733   21.2780 N   0  0  0  0  0  0  0  0  0  0  0  0
  -20.9307  -23.1575   18.0458 N   0  3  0  0  0  0  0  0  0  0  0  0
  -31.1661  -14.8833   20.2149 O   0  0  0  0  0  0  0  0  0  0  0  0
  -23.5860  -28.8204   23.6203 O   0  0  0  0  0  0  0  0  0  0  0  0
  -26.2055  -22.7261   19.5071 O   0  0  0  0  0  0  0  0  0  0  0  0
  -20.4196  -27.4972   22.0654 O   0  0  0  0  0  0  0  0  0  0  0  0
  -22.6054  -23.7008   20.2405 O   0  0  0  0  0  0  0  0  0  0  0  0
  -25.3868   -9.7292   19.4273 O   0  0  0  0  0  0  0  0  0  0  0  0
  -28.5306  -27.0018   19.6519 O   0  0  0  0  0  0  0  0  0  1  0  0
  -21.2644   -8.1013   22.7076 F   0  0  0  0  0  0  0  0  0  0  0  0
  -25.6530   -7.4991   21.0393 F   0  0  0  0  0  0  0  0  0  0  0  0
  1  2  1  0  0  0  0
  1  5  2  0  0  0  0
  2  6  2  0  0  0  0
  3  8  2  0  0  0  0
  3 17  1  0  0  0  0
  4  9  1  0  0  0  0
  4 17  2  0  0  0  0
  5 19  1  0  0  0  0
  6 21  1  0  0  0  0
  7 10  2  0  0  0  0
  7 20  1  0  0  0  0
  8 23  1  0  0  0  0
  9 23  2  0  0  0  0
 10 24  1  0  0  0  0
 11 12  2  0  0  0  0
 11 25  1  0  0  0  0
 12 26  1  0  0  0  0
 13 22  1  0  0  0  0
 13 24  2  0  0  0  0
 14 26  2  0  0  0  0
 14 27  1  0  0  0  0
 15 29  2  0  0  0  0
 15 61  1  0  0  0  0
 16 59  2  0  0  0  0
 16 61  1  0  0  0  0
 17 28  1  0  0  0  0
 18 28  1  0  0  0  0
 18 30  2  0  0  0  0
 18 31  1  0  0  0  0
 19 21  2  0  0  0  0
 19 36  1  0  0  0  0
 20 22  2  0  0  0  0
 20 37  1  0  0  0  0
 21 45  1  0  0  0  0
 22 38  1  0  0  0  0
 23 75  1  0  0  0  0
 24 76  1  0  0  0  0
 25 27  2  0  0  0  0
 25 75  1  0  0  0  0
 26 77  1  0  0  0  0
 27 78  1  0  0  0  0
 28 60  2  0  0  0  0
 29 53  1  0  0  0  0
 29 59  1  0  0  0  0
 30 62  1  0  0  0  0
 30 65  1  0  0  0  0
 31 66  1  0  0  0  0
 31 70  2  0  0  0  0
 32 46  1  0  0  0  0
 32 67  1  0  0  0  0
 32 71  2  0  0  0  0
 33 53  1  0  0  0  0
 33 64  1  0  0  0  0
 33 72  2  0  0  0  0
 34 56  1  0  0  0  0
 34 63  1  0  0  0  0
 34 73  2  0  0  0  0
 35 57  1  0  0  0  0
 35 68  1  0  0  0  0
 35 74  2  0  0  0  0
 36 39  1  0  0  0  0
 37 46  1  0  0  0  0
 38 63  1  0  0  0  0
 39 41  1  0  0  0  0
 40 42  1  0  0  0  0
 40 43  1  0  0  0  0
 41 45  1  0  0  0  0
 42 47  1  0  0  0  0
 43 64  1  0  0  0  0
 44 47  1  0  0  0  0
 44 64  1  0  0  0  0
 45 67  1  0  0  0  0
 46 63  1  0  0  0  0
 47 62  1  0  0  0  0
 48 57  1  0  0  0  0
 49 58  1  0  0  0  0
 50 58  1  0  0  0  0
 51 58  1  0  0  0  0
 52 69  1  0  0  0  0
 54 55  1  0  0  0  0
 54 61  1  0  0  0  0
 55 76  1  0  0  0  0
 56 58  1  0  0  0  0
 56 68  1  0  0  0  0
 57 69  1  0  0  0  0
 60 62  1  0  0  0  0
M  CHG  1  69   1
M  ISO  4  33 100  53 100  55 101  76 101
M  END
> <Batch ID>
0048

> <Smiles>
CNC(C)C(=O)NC(C(=O)N1Cc2cc([101O:1][101CH2:1]Cn3cnc([100CH2:0][100C:0](=O)N4CCCC(n5nc(-c6ccc(Oc7ccc(F)cc7F)cc6)c(C(N)=O)c5N)C4)c3)ccc2CC1C(=O)NC1CCCc2ccccc21)C(C)(C)C

> <Shape>
0.254

> <Color>
0.097

> <Negative vol penalty>
0.000

$$$$

  -OEChem-04052317263D

 86 94  0     1  0  0  0  0  0999 V2000
  -22.8366  -10.7636   21.0848 C   0  0  0  0  0  0  0  0  0  0  0  0
  -22.2964  -11.9947   21.4424 C   0  0  0  0  0  0  0  0  0  0  0  0
  -30.9621  -24.6531   18.7535 C   0  0  0  0  0  0  0  0  0  0  0  0
  -31.7216  -26.0610   20.5639 C   0  0  0  0  0  0  0  0  0  0  0  0
  -24.1916  -10.6625   20.7723 C   0  0  0  0  0  0  0  0  0  0  0  0
  -23.1112  -13.1254   21.4889 C   0  0  0  0  0  0  0  0  0  0  0  0
  -21.5247  -18.8675   20.0689 C   0  0  0  0  0  0  0  0  0  0  0  0
  -32.2596  -24.6084   18.2437 C   0  0  0  0  0  0  0  0  0  0  0  0
  -33.0193  -26.0164   20.0542 C   0  0  0  0  0  0  0  0  0  0  0  0
  -21.1446  -19.9566   20.8520 C   0  0  0  0  0  0  0  0  0  0  0  0
  -36.4626  -26.5691   19.0307 C   0  0  0  0  0  0  0  0  0  0  0  0
  -37.1760  -27.7660   18.9678 C   0  0  0  0  0  0  0  0  0  0  0  0
  -23.4160  -20.7682   20.8150 C   0  0  0  0  0  0  0  0  0  0  0  0
  -35.4884  -28.6953   17.5098 C   0  0  0  0  0  0  0  0  0  0  0  0
  -20.3141  -27.3871   21.3046 C   0  0  0  0  0  0  0  0  0  0  0  0
  -30.6930  -25.3794   19.9135 C   0  0  0  0  0  0  0  0  0  0  0  0
  -28.7734  -24.5429   21.3706 C   0  0  0  0  0  0  0  0  0  0  0  0
  -25.0214  -11.7943   20.8056 C   0  0  0  0  0  0  0  0  0  0  0  0
  -22.8577  -18.7146   19.6613 C   0  0  0  0  0  0  0  0  0  0  0  0
  -24.4789  -13.0390   21.1778 C   0  0  0  0  0  0  0  0  0  0  0  0
  -23.8099  -19.6777   20.0246 C   0  0  0  0  0  0  0  0  0  0  0  0
  -21.2985  -26.8896   22.1794 C   0  0  0  0  0  0  0  0  0  0  0  0
  -33.2883  -25.2900   18.8941 C   0  0  0  0  0  0  0  0  0  0  0  0
  -22.0909  -20.9056   21.2276 C   0  0  0  0  0  0  0  0  0  0  0  0
  -35.2621  -26.4352   18.3331 C   0  0  0  0  0  0  0  0  0  0  0  0
  -36.6889  -28.8291   18.2074 C   0  0  0  0  0  0  0  0  0  0  0  0
  -34.7750  -27.4983   17.5727 C   0  0  0  0  0  0  0  0  0  0  0  0
  -29.3527  -25.4264   20.4402 C   0  0  0  0  0  0  0  0  0  0  0  0
  -21.2285  -27.7111   23.2779 C   0  0  0  0  0  0  0  0  0  0  0  0
  -27.4948  -25.0142   21.5417 C   0  0  0  0  0  0  0  0  0  0  0  0
  -29.3406  -23.3985   22.0220 C   0  0  0  0  0  0  0  0  0  0  0  0
  -25.1149  -16.5295   20.1459 C   0  0  0  0  0  0  0  0  0  0  0  0
  -26.7664  -18.3265   18.0091 C   0  0  0  0  0  0  0  0  0  0  0  0
  -27.2299  -21.3637   16.5233 C   0  0  0  0  0  0  0  0  0  0  0  0
  -23.9250  -29.2364   22.3000 C   0  0  0  0  0  0  0  0  0  0  0  0
  -26.4900  -11.6267   20.5055 C   0  0  0  0  0  0  0  0  0  0  0  0
  -23.2463  -17.5484   18.7945 C   0  0  0  0  0  0  0  0  0  0  0  0
  -25.2498  -19.5702   19.5961 C   0  0  0  0  0  0  0  0  0  0  0  0
  -27.2064  -12.9431   20.2153 C   0  0  0  0  0  0  0  0  0  0  0  0
  -24.8972  -28.4997   18.9551 C   0  0  0  0  0  0  0  0  0  0  0  0
  -26.8293  -13.9961   21.2525 C   0  0  0  0  0  0  0  0  0  0  0  0
  -26.0984  -27.5671   19.1202 C   0  0  0  0  0  0  0  0  0  0  0  0
  -24.8678  -29.5789   20.0350 C   0  0  0  0  0  0  0  0  0  0  0  0
  -26.1343  -28.1399   21.5839 C   0  0  0  0  0  0  0  0  0  0  0  0
  -25.3253  -14.2930   21.2156 C   0  0  1  0  0  0  0  0  0  0  0  0
  -24.7343  -17.2198   18.8667 C   0  0  1  0  0  0  0  0  0  0  0  0
  -26.1761  -27.0008   20.5508 C   0  0  2  0  0  0  0  0  0  0  0  0
  -28.6812  -22.5339   14.8435 C   0  0  0  0  0  0  0  0  0  0  0  0
  -17.3473  -29.2439   23.6045 C   0  0  0  0  0  0  0  0  0  0  0  0
  -18.5566  -28.1923   25.5185 C   0  0  0  0  0  0  0  0  0  0  0  0
  -18.1057  -30.6570   25.5173 C   0  0  0  0  0  0  0  0  0  0  0  0
  -29.0227  -18.4647   20.0584 C   0  0  0  0  0  0  0  0  0  0  0  0
  -29.9928  -20.3718   18.7584 C   0  0  0  0  0  0  0  0  0  0  0  0
  -29.7765  -18.1241   17.6983 C   0  0  0  0  0  0  0  0  0  0  0  0
  -24.9204  -21.9614   14.7717 C   0  0  0  0  0  0  0  0  0  0  0  0
  -22.2201  -25.7175   21.9551 C   0  0  0  0  0  0  0  0  0  0  0  0
  -21.9943  -27.7184   24.5387 C   0  0  0  0  0  0  0  0  0  0  0  0
  -21.5406  -24.3575   22.1296 C   0  0  0  0  0  0  0  0  0  0  0  0
  -19.7938  -29.6915   23.8567 C   0  0  0  0  0  0  0  0  0  0  0  0
  -23.1014  -28.7872   24.5976 C   0  0  0  0  0  0  0  0  0  0  0  0
  -22.4570  -23.1802   21.8175 C   0  0  0  0  0  0  0  0  0  1  0  0
  -27.7002  -19.5090   18.1023 C   0  0  1  0  0  0  0  0  0  0  0  0
  -27.3924  -21.7580   15.0664 C   0  0  2  0  0  0  0  0  0  0  0  0
  -18.4730  -29.4503   24.6378 C   0  0  0  0  0  0  0  0  0  0  0  0
  -29.0964  -19.1187   18.6642 C   0  0  0  0  0  0  0  0  0  0  0  0
  -19.6660  -28.4426   21.8044 N   0  0  0  0  0  0  0  0  0  0  0  0
  -28.5110  -26.3863   20.0476 N   0  0  0  0  0  0  0  0  0  0  0  0
  -20.2444  -28.6152   23.0051 N   0  0  0  0  0  0  0  0  0  0  0  0
  -27.3898  -26.1086   20.7345 N   0  0  0  0  0  0  0  0  0  0  0  0
  -25.5817  -18.4087   18.7546 N   0  0  0  0  0  0  0  0  0  0  0  0
  -24.9429  -28.9757   21.3678 N   0  0  0  0  0  0  0  0  0  0  0  0
  -26.4611  -24.5951   22.3022 N   0  0  0  0  0  0  0  0  0  0  0  0
  -30.6678  -23.0541   21.7320 N   0  0  0  0  0  0  0  0  0  0  0  0
  -25.0071  -15.1528   20.0958 N   0  0  0  0  0  0  0  0  0  0  0  0
  -27.7372  -20.1058   16.7716 N   0  0  0  0  0  0  0  0  0  0  0  0
  -24.0700  -28.6204   23.5370 N   0  0  0  0  0  0  0  0  0  0  0  0
  -26.2498  -22.6092   14.6296 N   0  3  0  0  0  0  0  0  0  0  0  0
  -28.6844  -22.6923   22.8247 O   0  0  0  0  0  0  0  0  0  0  0  0
  -25.4806  -17.1965   21.1066 O   0  0  0  0  0  0  0  0  0  0  0  0
  -27.0732  -17.3684   17.2953 O   0  0  0  0  0  0  0  0  0  0  0  0
  -26.7086  -22.0995   17.3583 O   0  0  0  0  0  0  0  0  0  0  0  0
  -22.9559  -29.9600   22.0467 O   0  0  0  0  0  0  0  0  0  0  0  0
  -34.5546  -25.2465   18.3972 O   0  0  0  0  0  0  0  0  0  0  0  0
  -21.7227  -21.9692   21.9925 O   0  0  0  0  0  0  0  0  0  1  0  0
  -37.3733  -29.9790   18.1483 F   0  0  0  0  0  0  0  0  0  0  0  0
  -33.6217  -27.3759   16.9013 F   0  0  0  0  0  0  0  0  0  0  0  0
  1  2  1  0  0  0  0
  1  5  2  0  0  0  0
  2  6  2  0  0  0  0
  3  8  2  0  0  0  0
  3 16  1  0  0  0  0
  4  9  1  0  0  0  0
  4 16  2  0  0  0  0
  5 18  1  0  0  0  0
  6 20  1  0  0  0  0
  7 10  2  0  0  0  0
  7 19  1  0  0  0  0
  8 23  1  0  0  0  0
  9 23  2  0  0  0  0
 10 24  1  0  0  0  0
 11 12  2  0  0  0  0
 11 25  1  0  0  0  0
 12 26  1  0  0  0  0
 13 21  1  0  0  0  0
 13 24  2  0  0  0  0
 14 26  2  0  0  0  0
 14 27  1  0  0  0  0
 15 22  1  0  0  0  0
 15 66  2  0  0  0  0
 16 28  1  0  0  0  0
 17 28  1  0  0  0  0
 17 30  2  0  0  0  0
 17 31  1  0  0  0  0
 18 20  2  0  0  0  0
 18 36  1  0  0  0  0
 19 21  2  0  0  0  0
 19 37  1  0  0  0  0
 20 45  1  0  0  0  0
 21 38  1  0  0  0  0
 22 29  2  0  0  0  0
 22 56  1  0  0  0  0
 23 83  1  0  0  0  0
 24 84  1  0  0  0  0
 25 27  2  0  0  0  0
 25 83  1  0  0  0  0
 26 85  1  0  0  0  0
 27 86  1  0  0  0  0
 28 67  2  0  0  0  0
 29 57  1  0  0  0  0
 29 68  1  0  0  0  0
 30 69  1  0  0  0  0
 30 72  1  0  0  0  0
 31 73  1  0  0  0  0
 31 78  2  0  0  0  0
 32 46  1  0  0  0  0
 32 74  1  0  0  0  0
 32 79  2  0  0  0  0
 33 62  1  0  0  0  0
 33 70  1  0  0  0  0
 33 80  2  0  0  0  0
 34 63  1  0  0  0  0
 34 75  1  0  0  0  0
 34 81  2  0  0  0  0
 35 71  1  0  0  0  0
 35 76  1  0  0  0  0
 35 82  2  0  0  0  0
 36 39  1  0  0  0  0
 37 46  1  0  0  0  0
 38 70  1  0  0  0  0
 39 41  1  0  0  0  0
 40 42  1  0  0  0  0
 40 43  1  0  0  0  0
 41 45  1  0  0  0  0
 42 47  1  0  0  0  0
 43 71  1  0  0  0  0
 44 47  1  0  0  0  0
 44 71  1  0  0  0  0
 45 74  1  0  0  0  0
 46 70  1  0  0  0  0
 47 69  1  0  0  0  0
 48 63  1  0  0  0  0
 49 64  1  0  0  0  0
 50 64  1  0  0  0  0
 51 64  1  0  0  0  0
 52 65  1  0  0  0  0
 53 65  1  0  0  0  0
 54 65  1  0  0  0  0
 55 77  1  0  0  0  0
 56 58  1  0  0  0  0
 57 60  1  0  0  0  0
 58 61  1  0  0  0  0
 59 64  1  0  0  0  0
 59 68  1  0  0  0  0
 60 76  1  0  0  0  0
 61 84  1  0  0  0  0
 62 65  1  0  0  0  0
 62 75  1  0  0  0  0
 63 77  1  0  0  0  0
 66 68  1  0  0  0  0
 67 69  1  0  0  0  0
M  CHG  1  77   1
M  ISO  4  35 100  61 101  76 100  84 101
M  END
> <Batch ID>
0048

> <Smiles>
CNC(C)C(=O)NC(C(=O)N1Cc2cc([101O:1][101CH2:1]CCc3cnn(CC(C)(C)C)c3CC[100NH:0][100C:0](=O)N3CCCC(n4nc(-c5ccc(Oc6ccc(F)cc6F)cc5)c(C(N)=O)c4N)C3)ccc2CC1C(=O)NC1CCCc2ccccc21)C(C)(C)C

> <Shape>
0.215

> <Color>
0.062

> <Negative vol penalty>
0.000

$$$$

  -OEChem-04052317263D

 81 88  0     1  0  0  0  0  0999 V2000
  -21.5594  -30.3040   23.0245 C   0  0  0  0  0  0  0  0  0  0  0  0
  -21.3606  -29.0923   22.3705 C   0  0  0  0  0  0  0  0  0  0  0  0
  -28.5186  -12.5277   20.0505 C   0  0  0  0  0  0  0  0  0  0  0  0
  -28.1442  -14.8245   20.6997 C   0  0  0  0  0  0  0  0  0  0  0  0
  -22.7281  -31.0312   22.8024 C   0  0  0  0  0  0  0  0  0  0  0  0
  -22.3299  -28.6077   21.4930 C   0  0  0  0  0  0  0  0  0  0  0  0
  -23.2617  -23.6749   22.1597 C   0  0  0  0  0  0  0  0  0  0  0  0
  -29.8861  -12.7806   19.9441 C   0  0  0  0  0  0  0  0  0  0  0  0
  -29.5118  -15.0775   20.5934 C   0  0  0  0  0  0  0  0  0  0  0  0
  -22.3398  -22.7751   21.6267 C   0  0  0  0  0  0  0  0  0  0  0  0
  -32.9487  -16.2368   20.8427 C   0  0  0  0  0  0  0  0  0  0  0  0
  -33.5555  -16.9657   21.8654 C   0  0  0  0  0  0  0  0  0  0  0  0
  -23.7930  -22.4157   19.7352 C   0  0  0  0  0  0  0  0  0  0  0  0
  -32.9025  -15.2723   23.4600 C   0  0  0  0  0  0  0  0  0  0  0  0
  -27.6476  -13.5496   20.4283 C   0  0  0  0  0  0  0  0  0  0  0  0
  -25.5367  -12.8527   21.6798 C   0  0  0  0  0  0  0  0  0  0  0  0
  -23.7165  -30.5505   21.9292 C   0  0  0  0  0  0  0  0  0  0  0  0
  -24.4533  -23.9606   21.4779 C   0  0  0  0  0  0  0  0  0  0  0  0
  -23.5123  -29.3298   21.2580 C   0  0  0  0  0  0  0  0  0  0  0  0
  -24.7296  -23.3176   20.2628 C   0  0  0  0  0  0  0  0  0  0  0  0
  -30.3828  -14.0555   20.2156 C   0  0  0  0  0  0  0  0  0  0  0  0
  -22.6040  -22.1475   20.4129 C   0  0  0  0  0  0  0  0  0  0  0  0
  -32.3186  -15.0256   21.1287 C   0  0  0  0  0  0  0  0  0  0  0  0
  -33.5325  -16.4835   23.1740 C   0  0  0  0  0  0  0  0  0  0  0  0
  -32.2956  -14.5433   22.4373 C   0  0  0  0  0  0  0  0  0  0  0  0
  -26.2347  -13.2891   20.5378 C   0  0  0  0  0  0  0  0  0  0  0  0
  -24.2300  -12.7571   21.2678 C   0  0  0  0  0  0  0  0  0  0  0  0
  -26.0258  -12.5601   22.9954 C   0  0  0  0  0  0  0  0  0  0  0  0
  -25.7378  -26.5746   20.2048 C   0  0  0  0  0  0  0  0  0  0  0  0
  -21.2140  -15.4605   16.8286 C   0  0  0  0  0  0  0  0  0  0  0  0
  -28.2862  -24.6227   19.7376 C   0  0  0  0  0  0  0  0  0  0  0  0
  -29.4707  -21.4442   19.3628 C   0  0  0  0  0  0  0  0  0  0  0  0
  -24.9421  -31.3948   21.6848 C   0  0  0  0  0  0  0  0  0  0  0  0
  -25.4497  -24.9135   22.0792 C   0  0  0  0  0  0  0  0  0  0  0  0
  -26.0035  -23.5745   19.5014 C   0  0  0  0  0  0  0  0  0  0  0  0
  -26.0874  -30.6298   21.0265 C   0  0  0  0  0  0  0  0  0  0  0  0
  -21.5699  -11.9387   17.3855 C   0  0  0  0  0  0  0  0  0  0  0  0
  -25.5723  -29.8042   19.8518 C   0  0  0  0  0  0  0  0  0  0  0  0
  -22.7609  -11.8445   18.3383 C   0  0  0  0  0  0  0  0  0  0  0  0
  -21.7389  -13.0839   16.3920 C   0  0  0  0  0  0  0  0  0  0  0  0
  -23.1722  -14.3206   17.9850 C   0  0  0  0  0  0  0  0  0  0  0  0
  -24.5516  -28.7589   20.3178 C   0  0  1  0  0  0  0  0  0  0  0  0
  -26.3961  -25.5186   21.0470 C   0  0  1  0  0  0  0  0  0  0  0  0
  -23.0275  -13.1956   19.0251 C   0  0  2  0  0  0  0  0  0  0  0  0
  -22.6083  -17.5146   16.8152 C   0  0  0  0  0  0  0  0  0  0  0  0
  -31.5931  -20.1678   18.9582 C   0  0  0  0  0  0  0  0  0  0  0  0
  -18.2209  -19.1643   18.5290 C   0  0  0  0  0  0  0  0  0  0  0  0
  -28.2142  -25.4394   16.7986 C   0  0  0  0  0  0  0  0  0  0  0  0
  -29.6788  -23.4739   16.2886 C   0  0  0  0  0  0  0  0  0  0  0  0
  -30.5079  -25.2903   17.7840 C   0  0  0  0  0  0  0  0  0  0  0  0
  -19.3415  -22.0130   18.0061 C   0  0  0  0  0  0  0  0  0  0  0  0
  -20.3517  -20.2664   16.5327 C   0  0  0  0  0  0  0  0  0  0  0  0
  -29.2271  -19.9971   21.9330 C   0  0  0  0  0  0  0  0  0  0  0  0
  -20.3641  -17.7816   20.3682 C   0  0  0  0  0  0  0  0  0  0  0  0
  -20.2867  -17.5143   17.8937 C   0  0  0  0  0  0  0  0  0  0  0  0
  -21.6523  -21.1638   18.4680 C   0  0  0  0  0  0  0  0  0  1  0  0
  -21.5552  -16.7224   17.5804 C   0  0  1  0  0  0  0  0  0  0  0  0
  -28.7364  -23.6984   18.6322 C   0  0  1  0  0  0  0  0  0  0  0  0
  -30.6413  -20.7230   20.0064 C   0  0  2  0  0  0  0  0  0  0  0  0
  -19.6049  -19.6712   18.9347 C   0  0  2  0  0  0  0  0  0  0  0  0
  -29.2594  -24.4719   17.3890 C   0  0  0  0  0  0  0  0  0  0  0  0
  -20.2343  -20.7503   17.9925 C   0  0  0  0  0  0  0  0  0  0  0  0
  -25.4374  -13.4587   19.4797 N   0  0  0  0  0  0  0  0  0  0  0  0
  -24.2249  -13.1272   19.9551 N   0  0  0  0  0  0  0  0  0  0  0  0
  -26.9434  -24.5190   20.1275 N   0  0  0  0  0  0  0  0  0  0  0  0
  -22.0127  -14.3454   17.0826 N   0  0  0  0  0  0  0  0  0  0  0  0
  -23.0962  -12.3932   21.9040 N   0  0  0  0  0  0  0  0  0  0  0  0
  -27.3962  -12.7114   23.2477 N   0  0  0  0  0  0  0  0  0  0  0  0
  -25.2245  -27.6332   20.9297 N   0  0  0  0  0  0  0  0  0  0  0  0
  -29.7142  -22.7947   19.2286 N   0  0  0  0  0  0  0  0  0  0  0  0
  -30.1547  -19.5918   20.8457 N   0  3  0  0  0  0  0  0  0  0  0  0
  -20.4916  -18.4704   19.0370 N   0  3  1  0  0  0  0  0  0  0  0  0
  -25.2727  -12.1602   23.9154 O   0  0  0  0  0  0  0  0  0  0  0  0
  -25.6999  -26.4398   18.9874 O   0  0  0  0  0  0  0  0  0  0  0  0
  -20.2638  -15.4669   16.0416 O   0  0  0  0  0  0  0  0  0  0  0  0
  -29.0979  -25.4029   20.2417 O   0  0  0  0  0  0  0  0  0  0  0  0
  -28.4446  -20.8666   19.0107 O   0  0  0  0  0  0  0  0  0  0  0  0
  -31.7172  -14.3026   20.1121 O   0  0  0  0  0  0  0  0  0  0  0  0
  -21.7055  -21.2692   19.8901 O   0  0  0  0  0  0  0  0  0  1  0  0
  -34.1167  -17.1829   24.1557 F   0  0  0  0  0  0  0  0  0  0  0  0
  -31.6929  -13.3798   22.7180 F   0  0  0  0  0  0  0  0  0  0  0  0
  1  2  1  0  0  0  0
  1  5  2  0  0  0  0
  2  6  2  0  0  0  0
  3  8  2  0  0  0  0
  3 15  1  0  0  0  0
  4  9  1  0  0  0  0
  4 15  2  0  0  0  0
  5 17  1  0  0  0  0
  6 19  1  0  0  0  0
  7 10  2  0  0  0  0
  7 18  1  0  0  0  0
  8 21  1  0  0  0  0
  9 21  2  0  0  0  0
 10 22  1  0  0  0  0
 11 12  2  0  0  0  0
 11 23  1  0  0  0  0
 12 24  1  0  0  0  0
 13 20  1  0  0  0  0
 13 22  2  0  0  0  0
 14 24  2  0  0  0  0
 14 25  1  0  0  0  0
 15 26  1  0  0  0  0
 16 26  1  0  0  0  0
 16 27  2  0  0  0  0
 16 28  1  0  0  0  0
 17 19  2  0  0  0  0
 17 33  1  0  0  0  0
 18 20  2  0  0  0  0
 18 34  1  0  0  0  0
 19 42  1  0  0  0  0
 20 35  1  0  0  0  0
 21 78  1  0  0  0  0
 22 79  1  0  0  0  0
 23 25  2  0  0  0  0
 23 78  1  0  0  0  0
 24 80  1  0  0  0  0
 25 81  1  0  0  0  0
 26 63  2  0  0  0  0
 27 64  1  0  0  0  0
 27 67  1  0  0  0  0
 28 68  1  0  0  0  0
 28 73  2  0  0  0  0
 29 43  1  0  0  0  0
 29 69  1  0  0  0  0
 29 74  2  0  0  0  0
 30 57  1  0  0  0  0
 30 66  1  0  0  0  0
 30 75  2  0  0  0  0
 31 58  1  0  0  0  0
 31 65  1  0  0  0  0
 31 76  2  0  0  0  0
 32 59  1  0  0  0  0
 32 70  1  0  0  0  0
 32 77  2  0  0  0  0
 33 36  1  0  0  0  0
 34 43  1  0  0  0  0
 35 65  1  0  0  0  0
 36 38  1  0  0  0  0
 37 39  1  0  0  0  0
 37 40  1  0  0  0  0
 38 42  1  0  0  0  0
 39 44  1  0  0  0  0
 40 66  1  0  0  0  0
 41 44  1  0  0  0  0
 41 66  1  0  0  0  0
 42 69  1  0  0  0  0
 43 65  1  0  0  0  0
 44 64  1  0  0  0  0
 45 57  1  0  0  0  0
 46 59  1  0  0  0  0
 47 60  1  0  0  0  0
 48 61  1  0  0  0  0
 49 61  1  0  0  0  0
 50 61  1  0  0  0  0
 51 62  1  0  0  0  0
 52 62  1  0  0  0  0
 53 71  1  0  0  0  0
 54 72  1  0  0  0  0
 55 57  1  0  0  0  0
 55 72  1  0  0  0  0
 56 62  1  0  0  0  0
 56 79  1  0  0  0  0
 58 61  1  0  0  0  0
 58 70  1  0  0  0  0
 59 71  1  0  0  0  0
 60 62  1  0  0  0  0
 60 72  1  0  0  0  0
 63 64  1  0  0  0  0
M  CHG  2  71   1  72   1
M  ISO  4  30 100  56 101  57 100  79 101
M  END
> <Batch ID>
0048

> <Smiles>
CNC(C)C(=O)NC(C(=O)N1Cc2cc([101O:1][101CH2:1]C(C)(C)C(C)N(C)C[100CH:0](C)[100C:0](=O)N3CCCC(n4nc(-c5ccc(Oc6ccc(F)cc6F)cc5)c(C(N)=O)c4N)C3)ccc2CC1C(=O)NC1CCCc2ccccc21)C(C)(C)C

> <Shape>
0.195

> <Color>
0.066

> <Negative vol penalty>
0.000

$$$$

  -OEChem-04052317263D

 87 95  0     1  0  0  0  0  0999 V2000
  -17.4102  -12.3191   22.4522 C   0  0  0  0  0  0  0  0  0  0  0  0
  -18.0339  -13.5474   22.2583 C   0  0  0  0  0  0  0  0  0  0  0  0
  -24.5697  -28.7605   21.2615 C   0  0  0  0  0  0  0  0  0  0  0  0
  -26.1320  -30.2273   20.1457 C   0  0  0  0  0  0  0  0  0  0  0  0
  -18.1447  -11.2326   22.9252 C   0  0  0  0  0  0  0  0  0  0  0  0
  -19.3924  -13.6902   22.5384 C   0  0  0  0  0  0  0  0  0  0  0  0
  -23.4153  -17.2164   19.5571 C   0  0  0  0  0  0  0  0  0  0  0  0
  -23.9181  -29.8678   21.8047 C   0  0  0  0  0  0  0  0  0  0  0  0
  -25.4804  -31.3345   20.6889 C   0  0  0  0  0  0  0  0  0  0  0  0
  -23.9319  -18.4832   19.8257 C   0  0  0  0  0  0  0  0  0  0  0  0
  -25.3792  -32.9598   23.6519 C   0  0  0  0  0  0  0  0  0  0  0  0
  -26.1679  -33.9721   24.1985 C   0  0  0  0  0  0  0  0  0  0  0  0
  -25.8617  -17.4702   20.8596 C   0  0  0  0  0  0  0  0  0  0  0  0
  -25.2394  -35.5478   22.6198 C   0  0  0  0  0  0  0  0  0  0  0  0
  -28.1155  -21.4180   18.0768 C   0  0  0  0  0  0  0  0  0  0  0  0
  -25.6767  -28.9403   20.4320 C   0  0  0  0  0  0  0  0  0  0  0  0
  -26.0714  -27.1624   18.6457 C   0  0  0  0  0  0  0  0  0  0  0  0
  -19.5151  -11.3595   23.2020 C   0  0  0  0  0  0  0  0  0  0  0  0
  -24.1140  -16.0652   19.9480 C   0  0  0  0  0  0  0  0  0  0  0  0
  -20.1457  -12.6047   23.0168 C   0  0  0  0  0  0  0  0  0  0  0  0
  -25.3530  -16.1900   20.5924 C   0  0  0  0  0  0  0  0  0  0  0  0
  -24.3735  -31.1548   21.5184 C   0  0  0  0  0  0  0  0  0  0  0  0
  -25.1539  -18.6103   20.4796 C   0  0  0  0  0  0  0  0  0  0  0  0
  -24.5207  -33.2414   22.5892 C   0  0  0  0  0  0  0  0  0  0  0  0
  -26.0980  -35.2661   23.6825 C   0  0  0  0  0  0  0  0  0  0  0  0
  -24.4508  -34.5354   22.0732 C   0  0  0  0  0  0  0  0  0  0  0  0
  -26.3505  -27.7969   19.8710 C   0  0  0  0  0  0  0  0  0  0  0  0
  -27.7535  -21.4023   19.4058 C   0  0  0  0  0  0  0  0  0  0  0  0
  -29.7472  -20.4159   19.9371 C   0  0  0  0  0  0  0  0  0  0  0  0
  -30.1088  -20.4311   18.6080 C   0  0  0  0  0  0  0  0  0  0  0  0
  -26.9834  -26.1379   18.5741 C   0  0  0  0  0  0  0  0  0  0  0  0
  -25.0768  -27.4715   17.6604 C   0  0  0  0  0  0  0  0  0  0  0  0
  -23.5166  -13.6366   21.9099 C   0  0  0  0  0  0  0  0  0  0  0  0
  -32.2342  -24.3060   19.1769 C   0  0  0  0  0  0  0  0  0  0  0  0
  -26.2992  -12.4859   20.7036 C   0  0  0  0  0  0  0  0  0  0  0  0
  -29.2951  -13.1356   19.2038 C   0  0  0  0  0  0  0  0  0  0  0  0
  -20.2570  -10.1692   23.7565 C   0  0  0  0  0  0  0  0  0  0  0  0
  -23.5558  -14.7058   19.6271 C   0  0  0  0  0  0  0  0  0  0  0  0
  -26.1522  -14.9853   21.0148 C   0  0  0  0  0  0  0  0  0  0  0  0
  -21.7752  -10.3050   23.6733 C   0  0  0  0  0  0  0  0  0  0  0  0
  -30.1110  -24.2525   22.0629 C   0  0  0  0  0  0  0  0  0  0  0  0
  -22.2156  -11.6816   24.1610 C   0  0  0  0  0  0  0  0  0  0  0  0
  -28.9355  -25.1421   21.6603 C   0  0  0  0  0  0  0  0  0  0  0  0
  -31.4222  -24.7570   21.4685 C   0  0  0  0  0  0  0  0  0  0  0  0
  -30.2193  -25.8062   19.5780 C   0  0  0  0  0  0  0  0  0  0  0  0
  -21.6230  -12.7925   23.2857 C   0  0  1  0  0  0  0  0  0  0  0  0
  -24.1071  -13.6055   20.5286 C   0  0  1  0  0  0  0  0  0  0  0  0
  -28.8705  -25.3143   20.1324 C   0  0  2  0  0  0  0  0  0  0  0  0
  -30.6521  -19.8590   20.9824 C   0  0  0  0  0  0  0  0  0  0  0  0
  -34.7124  -21.7426   15.4471 C   0  0  0  0  0  0  0  0  0  0  0  0
  -31.3723  -11.9959   18.3770 C   0  0  0  0  0  0  0  0  0  0  0  0
  -27.2763  -12.1864   23.5786 C   0  0  0  0  0  0  0  0  0  0  0  0
  -29.6069  -11.9691   22.6903 C   0  0  0  0  0  0  0  0  0  0  0  0
  -27.8753  -10.2841   22.0698 C   0  0  0  0  0  0  0  0  0  0  0  0
  -28.8252  -14.0403   16.4253 C   0  0  0  0  0  0  0  0  0  0  0  0
  -26.4181  -21.9540   19.8424 C   0  0  0  0  0  0  0  0  0  0  0  0
  -31.4218  -19.8912   18.1535 C   0  0  0  0  0  0  0  0  0  0  0  0
  -32.0544  -24.5266   17.6960 C   0  0  0  0  0  0  0  0  0  0  0  0
  -31.7695  -20.2098   16.6860 C   0  0  0  0  0  0  0  0  0  0  0  0
  -34.3279  -21.6163   16.9051 C   0  0  0  0  0  0  0  0  0  0  0  0
  -33.1213  -23.7946   16.9022 C   0  0  0  0  0  0  0  0  0  0  0  0
  -31.8996  -21.6941   16.3580 C   0  0  0  0  0  0  0  0  0  0  0  0
  -25.3224  -20.8935   19.8359 C   0  0  0  0  0  0  0  0  0  1  0  0
  -27.7570  -12.6062   21.0769 C   0  0  1  0  0  0  0  0  0  0  0  0
  -29.9839  -12.4971   18.0111 C   0  0  2  0  0  0  0  0  0  0  0  0
  -28.1132  -11.7843   22.3478 C   0  0  0  0  0  0  0  0  0  0  0  0
  -29.2996  -20.9327   17.6541 N   0  0  0  0  0  0  0  0  0  0  0  0
  -27.3606  -27.2234   20.5303 N   0  0  0  0  0  0  0  0  0  0  0  0
  -28.5628  -20.9010   20.3598 N   0  0  0  0  0  0  0  0  0  0  0  0
  -27.7242  -26.2177   19.7164 N   0  0  0  0  0  0  0  0  0  0  0  0
  -25.5613  -13.6779   20.6842 N   0  0  0  0  0  0  0  0  0  0  0  0
  -31.3126  -24.9289   20.0188 N   0  0  0  0  0  0  0  0  0  0  0  0
  -27.2159  -25.1854   17.6460 N   0  0  0  0  0  0  0  0  0  0  0  0
  -24.2216  -28.5574   17.8920 N   0  0  0  0  0  0  0  0  0  0  0  0
  -22.3547  -12.9003   22.0417 N   0  0  0  0  0  0  0  0  0  0  0  0
  -28.5150  -12.2283   19.8891 N   0  0  0  0  0  0  0  0  0  0  0  0
  -30.1173  -13.4827   16.9013 N   0  3  0  0  0  0  0  0  0  0  0  0
  -33.0044  -22.3068   17.1319 N   0  3  1  0  0  0  0  0  0  0  0  0
  -24.9395  -26.7944   16.6134 O   0  0  0  0  0  0  0  0  0  0  0  0
  -24.0746  -14.2797   22.7912 O   0  0  0  0  0  0  0  0  0  0  0  0
  -33.1647  -23.5985   19.5715 O   0  0  0  0  0  0  0  0  0  0  0  0
  -25.8341  -11.3761   20.4322 O   0  0  0  0  0  0  0  0  0  0  0  0
  -29.4378  -14.3198   19.5001 O   0  0  0  0  0  0  0  0  0  0  0  0
  -23.7378  -32.2354   22.0482 O   0  0  0  0  0  0  0  0  0  0  0  0
  -25.6602  -19.8456   20.7436 O   0  0  0  0  0  0  0  0  0  1  0  0
  -26.8543  -36.2385   24.2085 F   0  0  0  0  0  0  0  0  0  0  0  0
  -23.6270  -34.8123   21.0531 F   0  0  0  0  0  0  0  0  0  0  0  0
  1  2  1  0  0  0  0
  1  5  2  0  0  0  0
  2  6  2  0  0  0  0
  3  8  2  0  0  0  0
  3 16  1  0  0  0  0
  4  9  1  0  0  0  0
  4 16  2  0  0  0  0
  5 18  1  0  0  0  0
  6 20  1  0  0  0  0
  7 10  2  0  0  0  0
  7 19  1  0  0  0  0
  8 22  1  0  0  0  0
  9 22  2  0  0  0  0
 10 23  1  0  0  0  0
 11 12  2  0  0  0  0
 11 24  1  0  0  0  0
 12 25  1  0  0  0  0
 13 21  1  0  0  0  0
 13 23  2  0  0  0  0
 14 25  2  0  0  0  0
 14 26  1  0  0  0  0
 15 28  1  0  0  0  0
 15 67  2  0  0  0  0
 16 27  1  0  0  0  0
 17 27  1  0  0  0  0
 17 31  2  0  0  0  0
 17 32  1  0  0  0  0
 18 20  2  0  0  0  0
 18 37  1  0  0  0  0
 19 21  2  0  0  0  0
 19 38  1  0  0  0  0
 20 46  1  0  0  0  0
 21 39  1  0  0  0  0
 22 84  1  0  0  0  0
 23 85  1  0  0  0  0
 24 26  2  0  0  0  0
 24 84  1  0  0  0  0
 25 86  1  0  0  0  0
 26 87  1  0  0  0  0
 27 68  2  0  0  0  0
 28 56  1  0  0  0  0
 28 69  2  0  0  0  0
 29 30  2  0  0  0  0
 29 49  1  0  0  0  0
 29 69  1  0  0  0  0
 30 57  1  0  0  0  0
 30 67  1  0  0  0  0
 31 70  1  0  0  0  0
 31 73  1  0  0  0  0
 32 74  1  0  0  0  0
 32 79  2  0  0  0  0
 33 47  1  0  0  0  0
 33 75  1  0  0  0  0
 33 80  2  0  0  0  0
 34 58  1  0  0  0  0
 34 72  1  0  0  0  0
 34 81  2  0  0  0  0
 35 64  1  0  0  0  0
 35 71  1  0  0  0  0
 35 82  2  0  0  0  0
 36 65  1  0  0  0  0
 36 76  1  0  0  0  0
 36 83  2  0  0  0  0
 37 40  1  0  0  0  0
 38 47  1  0  0  0  0
 39 71  1  0  0  0  0
 40 42  1  0  0  0  0
 41 43  1  0  0  0  0
 41 44  1  0  0  0  0
 42 46  1  0  0  0  0
 43 48  1  0  0  0  0
 44 72  1  0  0  0  0
 45 48  1  0  0  0  0
 45 72  1  0  0  0  0
 46 75  1  0  0  0  0
 47 71  1  0  0  0  0
 48 70  1  0  0  0  0
 50 60  1  0  0  0  0
 51 65  1  0  0  0  0
 52 66  1  0  0  0  0
 53 66  1  0  0  0  0
 54 66  1  0  0  0  0
 55 77  1  0  0  0  0
 56 63  1  0  0  0  0
 57 59  1  0  0  0  0
 58 61  1  0  0  0  0
 59 62  1  0  0  0  0
 60 78  1  0  0  0  0
 61 78  1  0  0  0  0
 62 78  1  0  0  0  0
 63 85  1  0  0  0  0
 64 66  1  0  0  0  0
 64 76  1  0  0  0  0
 65 77  1  0  0  0  0
 68 70  1  0  0  0  0
M  CHG  2  77   1  78   1
M  ISO  4  34 100  58 100  63 101  85 101
M  END
> <Batch ID>
0048

> <Smiles>
CCN(CCCc1ncc(C[101CH2:1][101O:1]c2ccc3c(c2)CN(C(=O)C(NC(=O)C(C)NC)C(C)(C)C)C(C(=O)NC2CCCc4ccccc42)C3)nc1C)C[100CH2:0][100C:0](=O)N1CCCC(n2nc(-c3ccc(Oc4ccc(F)cc4F)cc3)c(C(N)=O)c2N)C1

> <Shape>
0.240

> <Color>
0.063

> <Negative vol penalty>
0.000

$$$$

  -OEChem-04052317263D

 82 90  0     1  0  0  0  0  0999 V2000
  -20.2628  -26.4689   33.9299 C   0  0  0  0  0  0  0  0  0  0  0  0
  -21.1694  -25.7291   33.1775 C   0  0  0  0  0  0  0  0  0  0  0  0
  -22.9831   -9.9151   19.9940 C   0  0  0  0  0  0  0  0  0  0  0  0
  -23.7461   -9.9540   22.2860 C   0  0  0  0  0  0  0  0  0  0  0  0
  -19.0434  -26.8507   33.3720 C   0  0  0  0  0  0  0  0  0  0  0  0
  -20.8567  -25.3697   31.8670 C   0  0  0  0  0  0  0  0  0  0  0  0
  -24.7386  -24.8923   27.1544 C   0  0  0  0  0  0  0  0  0  0  0  0
  -22.2186   -8.7810   20.2676 C   0  0  0  0  0  0  0  0  0  0  0  0
  -22.9815   -8.8198   22.5597 C   0  0  0  0  0  0  0  0  0  0  0  0
  -25.3760  -23.7980   26.5714 C   0  0  0  0  0  0  0  0  0  0  0  0
  -23.2109   -5.4826   22.0686 C   0  0  0  0  0  0  0  0  0  0  0  0
  -23.8086   -4.4607   22.8063 C   0  0  0  0  0  0  0  0  0  0  0  0
  -23.6306  -23.6737   24.9108 C   0  0  0  0  0  0  0  0  0  0  0  0
  -22.1129   -4.6995   24.5107 C   0  0  0  0  0  0  0  0  0  0  0  0
  -23.7469  -10.5016   21.0031 C   0  0  0  0  0  0  0  0  0  0  0  0
  -24.1346  -13.0172   20.8323 C   0  0  0  0  0  0  0  0  0  0  0  0
  -18.7197  -26.5042   32.0508 C   0  0  0  0  0  0  0  0  0  0  0  0
  -23.5347  -25.3796   26.6256 C   0  0  0  0  0  0  0  0  0  0  0  0
  -19.6313  -25.7462   31.2913 C   0  0  0  0  0  0  0  0  0  0  0  0
  -22.9813  -24.7760   25.4874 C   0  0  0  0  0  0  0  0  0  0  0  0
  -22.2178   -8.2334   21.5505 C   0  0  0  0  0  0  0  0  0  0  0  0
  -24.8206  -23.1867   25.4511 C   0  0  0  0  0  0  0  0  0  0  0  0
  -22.0643   -6.1130   22.5519 C   0  0  0  0  0  0  0  0  0  0  0  0
  -23.2595   -4.0692   24.0273 C   0  0  0  0  0  0  0  0  0  0  0  0
  -21.5153   -5.7214   23.7729 C   0  0  0  0  0  0  0  0  0  0  0  0
  -24.5372  -11.6728   20.7209 C   0  0  0  0  0  0  0  0  0  0  0  0
  -27.4468  -18.4888   23.8981 C   0  0  0  0  0  0  0  0  0  0  0  0
  -28.4842  -19.1046   23.2299 C   0  0  0  0  0  0  0  0  0  0  0  0
  -25.2398  -13.7391   20.4531 C   0  0  0  0  0  0  0  0  0  0  0  0
  -27.1965  -20.5159   24.6970 C   0  0  0  0  0  0  0  0  0  0  0  0
  -22.8743  -13.5644   21.2421 C   0  0  0  0  0  0  0  0  0  0  0  0
  -20.5643  -25.6799   27.7167 C   0  0  0  0  0  0  0  0  0  0  0  0
  -30.7613  -14.5964   20.7139 C   0  0  0  0  0  0  0  0  0  0  0  0
  -20.1022  -27.2247   24.9020 C   0  0  0  0  0  0  0  0  0  0  0  0
  -21.0911  -27.7224   21.6738 C   0  0  0  0  0  0  0  0  0  0  0  0
  -17.3696  -26.8991   31.5068 C   0  0  0  0  0  0  0  0  0  0  0  0
  -22.8736  -26.5776   27.2502 C   0  0  0  0  0  0  0  0  0  0  0  0
  -21.7012  -25.2735   24.8691 C   0  0  0  0  0  0  0  0  0  0  0  0
  -17.2724  -26.7990   29.9866 C   0  0  0  0  0  0  0  0  0  0  0  0
  -29.5513  -12.2722   18.2697 C   0  0  0  0  0  0  0  0  0  0  0  0
  -17.8520  -25.4743   29.5008 C   0  0  0  0  0  0  0  0  0  0  0  0
  -28.1160  -11.9965   18.7161 C   0  0  0  0  0  0  0  0  0  0  0  0
  -30.4770  -12.4819   19.4639 C   0  0  0  0  0  0  0  0  0  0  0  0
  -28.5893  -13.2791   20.8506 C   0  0  0  0  0  0  0  0  0  0  0  0
  -19.3388  -25.3585   29.8580 C   0  0  1  0  0  0  0  0  0  0  0  0
  -21.3834  -26.6689   26.9365 C   0  0  1  0  0  0  0  0  0  0  0  0
  -27.6150  -13.0918   19.6740 C   0  0  2  0  0  0  0  0  0  0  0  0
  -27.0698  -17.0642   23.7937 C   0  0  0  0  0  0  0  0  0  0  0  0
  -20.4954  -29.0174   19.6085 C   0  0  0  0  0  0  0  0  0  0  0  0
  -17.7727  -25.3232   24.3845 C   0  0  0  0  0  0  0  0  0  0  0  0
  -17.8362  -26.0116   21.9782 C   0  0  0  0  0  0  0  0  0  0  0  0
  -17.3398  -27.7017   23.7445 C   0  0  0  0  0  0  0  0  0  0  0  0
  -23.7037  -29.1126   21.6515 C   0  0  0  0  0  0  0  0  0  0  0  0
  -31.5737  -18.5496   23.5890 C   0  0  0  0  0  0  0  0  0  0  0  0
  -29.4609  -18.5496   22.2712 C   0  0  0  0  0  0  0  0  0  0  0  0
  -26.6566  -21.6754   25.4814 C   0  0  0  0  0  0  0  0  0  1  0  0
  -30.1528  -15.6204   21.6386 C   0  0  0  0  0  0  0  0  0  0  0  0
  -31.1360  -16.7376   21.9376 C   0  0  0  0  0  0  0  0  0  0  0  0
  -19.6937  -26.8097   23.5092 C   0  0  1  0  0  0  0  0  0  0  0  0
  -21.3316  -28.9929   20.8785 C   0  0  2  0  0  0  0  0  0  0  0  0
  -18.1837  -26.4507   23.4167 C   0  0  0  0  0  0  0  0  0  0  0  0
  -25.7996  -11.5455   20.3034 N   0  0  0  0  0  0  0  0  0  0  0  0
  -26.7075  -19.2964   24.7402 N   0  0  0  0  0  0  0  0  0  0  0  0
  -26.1997  -12.8192   20.1490 N   0  0  0  0  0  0  0  0  0  0  0  0
  -21.0892  -26.4437   25.5198 N   0  0  0  0  0  0  0  0  0  0  0  0
  -29.9549  -13.5141   20.3613 N   0  0  0  0  0  0  0  0  0  0  0  0
  -25.4744  -15.0648   20.3533 N   0  0  0  0  0  0  0  0  0  0  0  0
  -21.8464  -12.6808   21.5985 N   0  0  0  0  0  0  0  0  0  0  0  0
  -20.1405  -26.1463   28.9464 N   0  0  0  0  0  0  0  0  0  0  0  0
  -20.1057  -27.8930   22.6232 N   0  0  0  0  0  0  0  0  0  0  0  0
  -22.7683  -29.1012   20.4975 N   0  3  0  0  0  0  0  0  0  0  0  0
  -30.5251  -17.7137   22.9064 N   0  3  1  0  0  0  0  0  0  0  0  0
  -22.6607  -14.8000   21.2751 O   0  0  0  0  0  0  0  0  0  0  0  0
  -20.3328  -24.5760   27.2378 O   0  0  0  0  0  0  0  0  0  0  0  0
  -31.9179  -14.7569   20.3155 O   0  0  0  0  0  0  0  0  0  0  0  0
  -19.5704  -28.2099   25.4199 O   0  0  0  0  0  0  0  0  0  0  0  0
  -21.7124  -26.6816   21.4706 O   0  0  0  0  0  0  0  0  0  0  0  0
  -21.4717   -7.1268   21.8180 O   0  0  0  0  0  0  0  0  0  0  0  0
  -25.4403  -22.1180   24.8805 O   0  0  0  0  0  0  0  0  0  1  0  0
  -23.8327   -3.0868   24.7349 F   0  0  0  0  0  0  0  0  0  0  0  0
  -20.4132   -6.3225   24.2419 F   0  0  0  0  0  0  0  0  0  0  0  0
  -28.5447  -20.7626   23.6643 S   0  0  0  0  0  0  0  0  0  0  0  0
  1  2  1  0  0  0  0
  1  5  2  0  0  0  0
  2  6  2  0  0  0  0
  3  8  2  0  0  0  0
  3 15  1  0  0  0  0
  4  9  1  0  0  0  0
  4 15  2  0  0  0  0
  5 17  1  0  0  0  0
  6 19  1  0  0  0  0
  7 10  2  0  0  0  0
  7 18  1  0  0  0  0
  8 21  1  0  0  0  0
  9 21  2  0  0  0  0
 10 22  1  0  0  0  0
 11 12  2  0  0  0  0
 11 23  1  0  0  0  0
 12 24  1  0  0  0  0
 13 20  1  0  0  0  0
 13 22  2  0  0  0  0
 14 24  2  0  0  0  0
 14 25  1  0  0  0  0
 15 26  1  0  0  0  0
 16 26  1  0  0  0  0
 16 29  2  0  0  0  0
 16 31  1  0  0  0  0
 17 19  2  0  0  0  0
 17 36  1  0  0  0  0
 18 20  2  0  0  0  0
 18 37  1  0  0  0  0
 19 45  1  0  0  0  0
 20 38  1  0  0  0  0
 21 78  1  0  0  0  0
 22 79  1  0  0  0  0
 23 25  2  0  0  0  0
 23 78  1  0  0  0  0
 24 80  1  0  0  0  0
 25 81  1  0  0  0  0
 26 62  2  0  0  0  0
 27 28  2  0  0  0  0
 27 48  1  0  0  0  0
 27 63  1  0  0  0  0
 28 55  1  0  0  0  0
 28 82  1  0  0  0  0
 29 64  1  0  0  0  0
 29 67  1  0  0  0  0
 30 56  1  0  0  0  0
 30 63  2  0  0  0  0
 30 82  1  0  0  0  0
 31 68  1  0  0  0  0
 31 73  2  0  0  0  0
 32 46  1  0  0  0  0
 32 69  1  0  0  0  0
 32 74  2  0  0  0  0
 33 57  1  0  0  0  0
 33 66  1  0  0  0  0
 33 75  2  0  0  0  0
 34 59  1  0  0  0  0
 34 65  1  0  0  0  0
 34 76  2  0  0  0  0
 35 60  1  0  0  0  0
 35 70  1  0  0  0  0
 35 77  2  0  0  0  0
 36 39  1  0  0  0  0
 37 46  1  0  0  0  0
 38 65  1  0  0  0  0
 39 41  1  0  0  0  0
 40 42  1  0  0  0  0
 40 43  1  0  0  0  0
 41 45  1  0  0  0  0
 42 47  1  0  0  0  0
 43 66  1  0  0  0  0
 44 47  1  0  0  0  0
 44 66  1  0  0  0  0
 45 69  1  0  0  0  0
 46 65  1  0  0  0  0
 47 64  1  0  0  0  0
 49 60  1  0  0  0  0
 50 61  1  0  0  0  0
 51 61  1  0  0  0  0
 52 61  1  0  0  0  0
 53 71  1  0  0  0  0
 54 72  1  0  0  0  0
 55 72  1  0  0  0  0
 56 79  1  0  0  0  0
 57 58  1  0  0  0  0
 58 72  1  0  0  0  0
 59 61  1  0  0  0  0
 59 70  1  0  0  0  0
 60 71  1  0  0  0  0
 62 64  1  0  0  0  0
M  CHG  2  71   1  72   1
M  ISO  4  33 100  56 101  57 100  79 101
M  END
> <Batch ID>
0048

> <Smiles>
CNC(C)C(=O)NC(C(=O)N1Cc2cc([101O:1][101CH2:1]c3nc(C)c(CN(C)C[100CH2:0][100C:0](=O)N4CCCC(n5nc(-c6ccc(Oc7ccc(F)cc7F)cc6)c(C(N)=O)c5N)C4)s3)ccc2CC1C(=O)NC1CCCc2ccccc21)C(C)(C)C

> <Shape>
0.238

> <Color>
0.196

> <Negative vol penalty>
0.000

$$$$

  -OEChem-04052317263D

 87 95  0     1  0  0  0  0  0999 V2000
  -24.0930  -30.2243   20.2746 C   0  0  0  0  0  0  0  0  0  0  0  0
  -24.2843  -28.8638   20.4932 C   0  0  0  0  0  0  0  0  0  0  0  0
  -23.0888   -9.8600   19.9103 C   0  0  0  0  0  0  0  0  0  0  0  0
  -23.9034   -9.8060   22.1842 C   0  0  0  0  0  0  0  0  0  0  0  0
  -25.1468  -31.1158   20.4713 C   0  0  0  0  0  0  0  0  0  0  0  0
  -25.5300  -28.3938   20.9077 C   0  0  0  0  0  0  0  0  0  0  0  0
  -25.1800  -25.0113   24.6601 C   0  0  0  0  0  0  0  0  0  0  0  0
  -26.6646  -20.9154   19.1821 C   0  0  0  0  0  0  0  0  0  0  0  0
  -22.3874   -8.6752   20.1334 C   0  0  0  0  0  0  0  0  0  0  0  0
  -23.2021   -8.6212   22.4073 C   0  0  0  0  0  0  0  0  0  0  0  0
  -24.8130  -23.7116   24.3136 C   0  0  0  0  0  0  0  0  0  0  0  0
  -21.9165   -5.3916   23.4687 C   0  0  0  0  0  0  0  0  0  0  0  0
  -22.5793   -4.3616   24.1361 C   0  0  0  0  0  0  0  0  0  0  0  0
  -25.5297  -20.8168   19.9793 C   0  0  0  0  0  0  0  0  0  0  0  0
  -27.1266  -23.0368   24.4184 C   0  0  0  0  0  0  0  0  0  0  0  0
  -24.2462   -4.3018   22.3883 C   0  0  0  0  0  0  0  0  0  0  0  0
  -23.8468  -10.4255   20.9357 C   0  0  0  0  0  0  0  0  0  0  0  0
  -24.1069  -12.9630   20.9037 C   0  0  0  0  0  0  0  0  0  0  0  0
  -26.4033  -30.6576   20.8977 C   0  0  0  0  0  0  0  0  0  0  0  0
  -26.5265  -25.3365   24.8781 C   0  0  0  0  0  0  0  0  0  0  0  0
  -26.6020  -29.2798   21.1090 C   0  0  0  0  0  0  0  0  0  0  0  0
  -27.5078  -24.3407   24.7700 C   0  0  0  0  0  0  0  0  0  0  0  0
  -27.8787  -20.4218   19.6465 C   0  0  0  0  0  0  0  0  0  0  0  0
  -22.4440   -8.0558   21.3819 C   0  0  0  0  0  0  0  0  0  0  0  0
  -25.7866  -22.7248   24.1899 C   0  0  0  0  0  0  0  0  0  0  0  0
  -22.4184   -5.8766   22.2610 C   0  0  0  0  0  0  0  0  0  0  0  0
  -23.7442   -3.8168   23.5959 C   0  0  0  0  0  0  0  0  0  0  0  0
  -23.5833   -5.3318   21.7208 C   0  0  0  0  0  0  0  0  0  0  0  0
  -24.5720  -11.6491   20.7056 C   0  0  0  0  0  0  0  0  0  0  0  0
  -25.6607  -20.2206   21.2232 C   0  0  0  0  0  0  0  0  0  0  0  0
  -27.9046  -19.8435   20.9053 C   0  0  0  0  0  0  0  0  0  0  0  0
  -25.1661  -13.7600   20.5440 C   0  0  0  0  0  0  0  0  0  0  0  0
  -22.8315  -13.4219   21.3710 C   0  0  0  0  0  0  0  0  0  0  0  0
  -28.6065  -27.3129   23.5102 C   0  0  0  0  0  0  0  0  0  0  0  0
  -30.6437  -14.8771   20.7383 C   0  0  0  0  0  0  0  0  0  0  0  0
  -30.5105  -26.3850   25.9671 C   0  0  0  0  0  0  0  0  0  0  0  0
  -31.2616  -24.0311   28.3212 C   0  0  0  0  0  0  0  0  0  0  0  0
  -27.5254  -31.6536   21.0512 C   0  0  0  0  0  0  0  0  0  0  0  0
  -26.9031  -26.7369   25.2773 C   0  0  0  0  0  0  0  0  0  0  0  0
  -28.9650  -24.6337   25.0134 C   0  0  0  0  0  0  0  0  0  0  0  0
  -28.7095  -31.1185   21.8524 C   0  0  0  0  0  0  0  0  0  0  0  0
  -29.4908  -12.6386   18.1887 C   0  0  0  0  0  0  0  0  0  0  0  0
  -29.0882  -29.7199   21.3756 C   0  0  0  0  0  0  0  0  0  0  0  0
  -28.0819  -12.2661   18.6484 C   0  0  0  0  0  0  0  0  0  0  0  0
  -30.4334  -12.8259   19.3735 C   0  0  0  0  0  0  0  0  0  0  0  0
  -28.5426  -13.4468   20.8436 C   0  0  0  0  0  0  0  0  0  0  0  0
  -27.9317  -28.7344   21.5829 C   0  0  1  0  0  0  0  0  0  0  0  0
  -28.3595  -27.0738   24.9729 C   0  0  1  0  0  0  0  0  0  0  0  0
  -27.5509  -13.2783   19.6789 C   0  0  2  0  0  0  0  0  0  0  0  0
  -29.0982  -20.5257   18.7975 C   0  0  0  0  0  0  0  0  0  0  0  0
  -31.7791  -20.4974   25.4573 C   0  0  0  0  0  0  0  0  0  0  0  0
  -32.8959  -23.5354   30.1599 C   0  0  0  0  0  0  0  0  0  0  0  0
  -32.6216  -25.6519   23.8896 C   0  0  0  0  0  0  0  0  0  0  0  0
  -33.7951  -24.3190   25.6544 C   0  0  0  0  0  0  0  0  0  0  0  0
  -33.5170  -26.7823   25.9328 C   0  0  0  0  0  0  0  0  0  0  0  0
  -29.1216  -23.9698   30.3647 C   0  0  0  0  0  0  0  0  0  0  0  0
  -24.4490  -20.0952   22.1144 C   0  0  0  0  0  0  0  0  0  0  0  0
  -29.1800  -19.2935   21.4545 C   0  0  0  0  0  0  0  0  0  0  0  0
  -30.0081  -15.8147   21.7337 C   0  0  0  0  0  0  0  0  0  0  0  0
  -30.8741  -19.3774   24.9702 C   0  0  0  0  0  0  0  0  0  0  0  0
  -28.9972  -18.3948   22.6773 C   0  0  0  0  0  0  0  0  0  0  0  0
  -30.9424  -16.9610   22.0766 C   0  0  0  0  0  0  0  0  0  0  0  0
  -31.2601  -18.9281   23.5700 C   0  0  0  0  0  0  0  0  0  0  0  0
  -24.2747  -21.3024   23.0294 C   0  0  0  0  0  0  0  0  0  1  0  0
  -31.5059  -25.2714   26.1867 C   0  0  1  0  0  0  0  0  0  0  0  0
  -31.5497  -24.1487   29.8070 C   0  0  2  0  0  0  0  0  0  0  0  0
  -32.8327  -25.5008   25.4093 C   0  0  0  0  0  0  0  0  0  0  0  0
  -25.8287  -11.6094   20.2550 N   0  0  0  0  0  0  0  0  0  0  0  0
  -26.8231  -19.7297   21.7085 N   0  0  0  0  0  0  0  0  0  0  0  0
  -26.1623  -12.9083   20.1668 N   0  0  0  0  0  0  0  0  0  0  0  0
  -29.2837  -26.0194   25.3952 N   0  0  0  0  0  0  0  0  0  0  0  0
  -29.8830  -13.7776   20.3402 N   0  0  0  0  0  0  0  0  0  0  0  0
  -25.3331  -15.0993   20.5167 N   0  0  0  0  0  0  0  0  0  0  0  0
  -21.8569  -12.4689   21.6968 N   0  0  0  0  0  0  0  0  0  0  0  0
  -27.8498  -28.3361   22.9718 N   0  0  0  0  0  0  0  0  0  0  0  0
  -31.6726  -25.1519   27.6311 N   0  0  0  0  0  0  0  0  0  0  0  0
  -30.4947  -23.4520   30.5960 N   0  3  0  0  0  0  0  0  0  0  0  0
  -30.3059  -17.8506   23.1162 N   0  3  1  0  0  0  0  0  0  0  0  0
  -22.5586  -14.6414   21.4805 O   0  0  0  0  0  0  0  0  0  0  0  0
  -29.4242  -26.6213   22.9146 O   0  0  0  0  0  0  0  0  0  0  0  0
  -31.7812  -15.1179   20.3258 O   0  0  0  0  0  0  0  0  0  0  0  0
  -30.8077  -27.5357   26.2976 O   0  0  0  0  0  0  0  0  0  0  0  0
  -30.7288  -23.0424   27.8222 O   0  0  0  0  0  0  0  0  0  0  0  0
  -21.7596   -6.8997   21.6001 O   0  0  0  0  0  0  0  0  0  0  0  0
  -25.4312  -21.4557   23.8512 O   0  0  0  0  0  0  0  0  0  1  0  0
  -24.3815   -2.8288   24.2377 F   0  0  0  0  0  0  0  0  0  0  0  0
  -24.0710   -5.7944   20.5616 F   0  0  0  0  0  0  0  0  0  0  0  0
  1  2  1  0  0  0  0
  1  5  2  0  0  0  0
  2  6  2  0  0  0  0
  3  9  2  0  0  0  0
  3 17  1  0  0  0  0
  4 10  1  0  0  0  0
  4 17  2  0  0  0  0
  5 19  1  0  0  0  0
  6 21  1  0  0  0  0
  7 11  2  0  0  0  0
  7 20  1  0  0  0  0
  8 14  2  0  0  0  0
  8 23  1  0  0  0  0
  9 24  1  0  0  0  0
 10 24  2  0  0  0  0
 11 25  1  0  0  0  0
 12 13  2  0  0  0  0
 12 26  1  0  0  0  0
 13 27  1  0  0  0  0
 14 30  1  0  0  0  0
 15 22  1  0  0  0  0
 15 25  2  0  0  0  0
 16 27  2  0  0  0  0
 16 28  1  0  0  0  0
 17 29  1  0  0  0  0
 18 29  1  0  0  0  0
 18 32  2  0  0  0  0
 18 33  1  0  0  0  0
 19 21  2  0  0  0  0
 19 38  1  0  0  0  0
 20 22  2  0  0  0  0
 20 39  1  0  0  0  0
 21 47  1  0  0  0  0
 22 40  1  0  0  0  0
 23 31  2  0  0  0  0
 23 50  1  0  0  0  0
 24 84  1  0  0  0  0
 25 85  1  0  0  0  0
 26 28  2  0  0  0  0
 26 84  1  0  0  0  0
 27 86  1  0  0  0  0
 28 87  1  0  0  0  0
 29 68  2  0  0  0  0
 30 57  1  0  0  0  0
 30 69  2  0  0  0  0
 31 58  1  0  0  0  0
 31 69  1  0  0  0  0
 32 70  1  0  0  0  0
 32 73  1  0  0  0  0
 33 74  1  0  0  0  0
 33 79  2  0  0  0  0
 34 48  1  0  0  0  0
 34 75  1  0  0  0  0
 34 80  2  0  0  0  0
 35 59  1  0  0  0  0
 35 72  1  0  0  0  0
 35 81  2  0  0  0  0
 36 65  1  0  0  0  0
 36 71  1  0  0  0  0
 36 82  2  0  0  0  0
 37 66  1  0  0  0  0
 37 76  1  0  0  0  0
 37 83  2  0  0  0  0
 38 41  1  0  0  0  0
 39 48  1  0  0  0  0
 40 71  1  0  0  0  0
 41 43  1  0  0  0  0
 42 44  1  0  0  0  0
 42 45  1  0  0  0  0
 43 47  1  0  0  0  0
 44 49  1  0  0  0  0
 45 72  1  0  0  0  0
 46 49  1  0  0  0  0
 46 72  1  0  0  0  0
 47 75  1  0  0  0  0
 48 71  1  0  0  0  0
 49 70  1  0  0  0  0
 51 60  1  0  0  0  0
 52 66  1  0  0  0  0
 53 67  1  0  0  0  0
 54 67  1  0  0  0  0
 55 67  1  0  0  0  0
 56 77  1  0  0  0  0
 57 64  1  0  0  0  0
 58 61  1  0  0  0  0
 59 62  1  0  0  0  0
 60 63  1  0  0  0  0
 61 78  1  0  0  0  0
 62 78  1  0  0  0  0
 63 78  1  0  0  0  0
 64 85  1  0  0  0  0
 65 67  1  0  0  0  0
 65 76  1  0  0  0  0
 66 77  1  0  0  0  0
 68 70  1  0  0  0  0
M  CHG  2  77   1  78   1
M  ISO  4  35 100  59 100  64 101  85 101
M  END
> <Batch ID>
0048

> <Smiles>
CCCN(CCc1nc(C[101CH2:1][101O:1]c2ccc3c(c2)CN(C(=O)C(NC(=O)C(C)NC)C(C)(C)C)C(C(=O)NC2CCCc4ccccc42)C3)ccc1C)C[100CH2:0][100C:0](=O)N1CCCC(n2nc(-c3ccc(Oc4ccc(F)cc4F)cc3)c(C(N)=O)c2N)C1

> <Shape>
0.239

> <Color>
0.197

> <Negative vol penalty>
0.000

$$$$

  -OEChem-04052317263D

 84 92  0     1  0  0  0  0  0999 V2000
  -17.1919  -25.1694   15.9369 C   0  0  0  0  0  0  0  0  0  0  0  0
  -17.1150  -23.7853   16.0549 C   0  0  0  0  0  0  0  0  0  0  0  0
  -28.5993  -22.8378   20.3665 C   0  0  0  0  0  0  0  0  0  0  0  0
  -30.0945  -22.0745   18.6290 C   0  0  0  0  0  0  0  0  0  0  0  0
  -18.3523  -25.8376   16.3255 C   0  0  0  0  0  0  0  0  0  0  0  0
  -18.1990  -23.0685   16.5606 C   0  0  0  0  0  0  0  0  0  0  0  0
  -19.7176  -17.2329   20.4278 C   0  0  0  0  0  0  0  0  0  0  0  0
  -29.1716  -24.1081   20.3010 C   0  0  0  0  0  0  0  0  0  0  0  0
  -30.6668  -23.3449   18.5634 C   0  0  0  0  0  0  0  0  0  0  0  0
  -20.4955  -16.0771   20.3734 C   0  0  0  0  0  0  0  0  0  0  0  0
  -28.9692  -26.8316   18.3074 C   0  0  0  0  0  0  0  0  0  0  0  0
  -28.1096  -27.9301   18.2974 C   0  0  0  0  0  0  0  0  0  0  0  0
  -22.4193  -17.3456   21.0871 C   0  0  0  0  0  0  0  0  0  0  0  0
  -29.1333  -28.7494   20.3267 C   0  0  0  0  0  0  0  0  0  0  0  0
  -24.4387  -12.8246   21.7954 C   0  0  0  0  0  0  0  0  0  0  0  0
  -29.0607  -21.8209   19.5305 C   0  0  0  0  0  0  0  0  0  0  0  0
  -27.3701  -20.0321   18.8602 C   0  0  0  0  0  0  0  0  0  0  0  0
  -19.4474  -25.1296   16.8453 C   0  0  0  0  0  0  0  0  0  0  0  0
  -20.2882  -18.4579   20.8023 C   0  0  0  0  0  0  0  0  0  0  0  0
  -19.3755  -23.7278   16.9553 C   0  0  0  0  0  0  0  0  0  0  0  0
  -21.6459  -18.5149   21.1479 C   0  0  0  0  0  0  0  0  0  0  0  0
  -30.2053  -24.3617   19.3994 C   0  0  0  0  0  0  0  0  0  0  0  0
  -21.8472  -16.1339   20.7003 C   0  0  0  0  0  0  0  0  0  0  0  0
  -29.9107  -26.6919   19.3270 C   0  0  0  0  0  0  0  0  0  0  0  0
  -28.1917  -28.8890   19.3070 C   0  0  0  0  0  0  0  0  0  0  0  0
  -29.9928  -27.6509   20.3366 C   0  0  0  0  0  0  0  0  0  0  0  0
  -28.4703  -20.5083   19.5981 C   0  0  0  0  0  0  0  0  0  0  0  0
  -24.6573  -13.8040   20.8481 C   0  0  0  0  0  0  0  0  0  0  0  0
  -25.0954  -11.6300   21.5815 C   0  0  0  0  0  0  0  0  0  0  0  0
  -27.2056  -18.7368   19.2865 C   0  0  0  0  0  0  0  0  0  0  0  0
  -26.0376  -12.4314   19.6744 C   0  0  0  0  0  0  0  0  0  0  0  0
  -26.5685  -20.7007   17.8773 C   0  0  0  0  0  0  0  0  0  0  0  0
  -20.6946  -21.2713   19.3799 C   0  0  0  0  0  0  0  0  0  0  0  0
  -21.7732  -22.1572   22.3080 C   0  0  0  0  0  0  0  0  0  0  0  0
  -23.1333  -21.2293   25.2973 C   0  0  0  0  0  0  0  0  0  0  0  0
  -29.3214  -13.7545   20.6449 C   0  0  0  0  0  0  0  0  0  0  0  0
  -20.6979  -25.8907   17.2078 C   0  0  0  0  0  0  0  0  0  0  0  0
  -19.4295  -19.6902   20.8818 C   0  0  0  0  0  0  0  0  0  0  0  0
  -22.3019  -19.8014   21.5759 C   0  0  0  0  0  0  0  0  0  0  0  0
  -21.6625  -25.0956   18.0839 C   0  0  0  0  0  0  0  0  0  0  0  0
  -29.2893  -16.2604   23.1739 C   0  0  0  0  0  0  0  0  0  0  0  0
  -21.8480  -23.6862   17.5306 C   0  0  0  0  0  0  0  0  0  0  0  0
  -28.9890  -17.5497   22.4075 C   0  0  0  0  0  0  0  0  0  0  0  0
  -30.1776  -15.3173   22.3656 C   0  0  0  0  0  0  0  0  0  0  0  0
  -29.3776  -16.2913   20.2479 C   0  0  0  0  0  0  0  0  0  0  0  0
  -20.5211  -22.9177   17.5225 C   0  0  1  0  0  0  0  0  0  0  0  0
  -20.2308  -20.9844   20.7800 C   0  0  1  0  0  0  0  0  0  0  0  0
  -28.4390  -17.2502   21.0000 C   0  0  2  0  0  0  0  0  0  0  0  0
  -23.9373  -22.1808   27.4758 C   0  0  0  0  0  0  0  0  0  0  0  0
  -24.3097  -23.1522   20.9345 C   0  0  0  0  0  0  0  0  0  0  0  0
  -25.4223  -23.1984   23.1769 C   0  0  0  0  0  0  0  0  0  0  0  0
  -23.4431  -24.6521   22.7383 C   0  0  0  0  0  0  0  0  0  0  0  0
  -21.1409  -19.6797   26.8427 C   0  0  0  0  0  0  0  0  0  0  0  0
  -23.9866  -15.1381   20.9955 C   0  0  0  0  0  0  0  0  0  1  0  0
  -26.9286  -12.2135   18.4986 C   0  0  0  0  0  0  0  0  0  0  0  0
  -28.4218  -12.3189   18.8313 C   0  0  0  0  0  0  0  0  0  0  0  0
  -23.1164  -22.1585   22.9972 C   0  0  1  0  0  0  0  0  0  0  0  0
  -22.7588  -21.5791   26.7263 C   0  0  2  0  0  0  0  0  0  0  0  0
  -24.9220  -10.5116   22.5538 C   0  0  0  0  0  0  0  0  0  0  0  0
  -24.0613  -23.2663   22.4518 C   0  0  0  0  0  0  0  0  0  0  0  0
  -28.9694  -19.5904   20.4301 N   0  0  0  0  0  0  0  0  0  0  0  0
  -25.4534  -13.6408   19.7712 N   0  0  0  0  0  0  0  0  0  0  0  0
  -25.9053  -11.3979   20.5276 N   0  0  0  0  0  0  0  0  0  0  0  0
  -28.1791  -18.5244   20.2177 N   0  0  0  0  0  0  0  0  0  0  0  0
  -21.4218  -20.9803   21.6319 N   0  0  0  0  0  0  0  0  0  0  0  0
  -29.5990  -15.0728   21.0423 N   0  0  0  0  0  0  0  0  0  0  0  0
  -26.3245  -17.7703   18.9519 N   0  0  0  0  0  0  0  0  0  0  0  0
  -26.8746  -22.0305   17.5577 N   0  0  0  0  0  0  0  0  0  0  0  0
  -20.2000  -22.4494   18.8537 N   0  0  0  0  0  0  0  0  0  0  0  0
  -22.8417  -22.2579   24.4265 N   0  0  0  0  0  0  0  0  0  0  0  0
  -28.7681  -13.6118   19.3783 N   0  0  0  0  0  0  0  0  0  0  0  0
  -22.3096  -20.3605   27.4572 N   0  3  0  0  0  0  0  0  0  0  0  0
  -25.5989  -20.1409   17.3116 O   0  0  0  0  0  0  0  0  0  0  0  0
  -21.4467  -20.4829   18.8191 O   0  0  0  0  0  0  0  0  0  0  0  0
  -21.0591  -23.1609   22.3734 O   0  0  0  0  0  0  0  0  0  0  0  0
  -23.6377  -20.1528   24.9854 O   0  0  0  0  0  0  0  0  0  0  0  0
  -29.5448  -12.7774   21.3676 O   0  0  0  0  0  0  0  0  0  0  0  0
  -30.7639  -25.6012   19.3351 O   0  0  0  0  0  0  0  0  0  0  0  0
  -22.6089  -15.0075   20.6474 O   0  0  0  0  0  0  0  0  0  1  0  0
  -27.3673  -29.9447   19.2965 F   0  0  0  0  0  0  0  0  0  0  0  0
  -30.8961  -27.5228   21.3182 F   0  0  0  0  0  0  0  0  0  0  0  0
  -24.0918  -10.8158   23.5948 F   0  0  0  0  0  0  0  0  0  0  0  0
  -24.3963   -9.3807   21.9973 F   0  0  0  0  0  0  0  0  0  0  0  0
  -26.0998  -10.1259   23.1250 F   0  0  0  0  0  0  0  0  0  0  0  0
  1  2  1  0  0  0  0
  1  5  2  0  0  0  0
  2  6  2  0  0  0  0
  3  8  2  0  0  0  0
  3 16  1  0  0  0  0
  4  9  1  0  0  0  0
  4 16  2  0  0  0  0
  5 18  1  0  0  0  0
  6 20  1  0  0  0  0
  7 10  2  0  0  0  0
  7 19  1  0  0  0  0
  8 22  1  0  0  0  0
  9 22  2  0  0  0  0
 10 23  1  0  0  0  0
 11 12  2  0  0  0  0
 11 24  1  0  0  0  0
 12 25  1  0  0  0  0
 13 21  1  0  0  0  0
 13 23  2  0  0  0  0
 14 25  2  0  0  0  0
 14 26  1  0  0  0  0
 15 28  1  0  0  0  0
 15 29  2  0  0  0  0
 16 27  1  0  0  0  0
 17 27  1  0  0  0  0
 17 30  2  0  0  0  0
 17 32  1  0  0  0  0
 18 20  2  0  0  0  0
 18 37  1  0  0  0  0
 19 21  2  0  0  0  0
 19 38  1  0  0  0  0
 20 46  1  0  0  0  0
 21 39  1  0  0  0  0
 22 78  1  0  0  0  0
 23 79  1  0  0  0  0
 24 26  2  0  0  0  0
 24 78  1  0  0  0  0
 25 80  1  0  0  0  0
 26 81  1  0  0  0  0
 27 61  2  0  0  0  0
 28 54  1  0  0  0  0
 28 62  2  0  0  0  0
 29 59  1  0  0  0  0
 29 63  1  0  0  0  0
 30 64  1  0  0  0  0
 30 67  1  0  0  0  0
 31 55  1  0  0  0  0
 31 62  1  0  0  0  0
 31 63  2  0  0  0  0
 32 68  1  0  0  0  0
 32 73  2  0  0  0  0
 33 47  1  0  0  0  0
 33 69  1  0  0  0  0
 33 74  2  0  0  0  0
 34 57  1  0  0  0  0
 34 65  1  0  0  0  0
 34 75  2  0  0  0  0
 35 58  1  0  0  0  0
 35 70  1  0  0  0  0
 35 76  2  0  0  0  0
 36 66  1  0  0  0  0
 36 71  1  0  0  0  0
 36 77  2  0  0  0  0
 37 40  1  0  0  0  0
 38 47  1  0  0  0  0
 39 65  1  0  0  0  0
 40 42  1  0  0  0  0
 41 43  1  0  0  0  0
 41 44  1  0  0  0  0
 42 46  1  0  0  0  0
 43 48  1  0  0  0  0
 44 66  1  0  0  0  0
 45 48  1  0  0  0  0
 45 66  1  0  0  0  0
 46 69  1  0  0  0  0
 47 65  1  0  0  0  0
 48 64  1  0  0  0  0
 49 58  1  0  0  0  0
 50 60  1  0  0  0  0
 51 60  1  0  0  0  0
 52 60  1  0  0  0  0
 53 72  1  0  0  0  0
 54 79  1  0  0  0  0
 55 56  1  0  0  0  0
 56 71  1  0  0  0  0
 57 60  1  0  0  0  0
 57 70  1  0  0  0  0
 58 72  1  0  0  0  0
 59 82  1  0  0  0  0
 59 83  1  0  0  0  0
 59 84  1  0  0  0  0
 61 64  1  0  0  0  0
M  CHG  1  72   1
M  ISO  4  36 100  54 101  71 100  79 101
M  END
> <Batch ID>
0048

> <Smiles>
CNC(C)C(=O)NC(C(=O)N1Cc2cc([101O:1][101CH2:1]c3cc(C(F)(F)F)nc(CC[100NH:0][100C:0](=O)N4CCCC(n5nc(-c6ccc(Oc7ccc(F)cc7F)cc6)c(C(N)=O)c5N)C4)n3)ccc2CC1C(=O)NC1CCCc2ccccc21)C(C)(C)C

> <Shape>
0.185

> <Color>
0.078

> <Negative vol penalty>
0.000

$$$$

  -OEChem-04052317263D

 78 86  0     1  0  0  0  0  0999 V2000
  -23.6746  -27.4526   20.8878 C   0  0  0  0  0  0  0  0  0  0  0  0
  -24.3028  -26.2341   21.1246 C   0  0  0  0  0  0  0  0  0  0  0  0
  -23.1886   -9.9227   21.5413 C   0  0  0  0  0  0  0  0  0  0  0  0
  -23.8922  -10.9571   23.6082 C   0  0  0  0  0  0  0  0  0  0  0  0
  -22.4742  -27.7532   21.5303 C   0  0  0  0  0  0  0  0  0  0  0  0
  -23.7315  -25.3159   22.0050 C   0  0  0  0  0  0  0  0  0  0  0  0
  -23.7780  -20.5908   20.1842 C   0  0  0  0  0  0  0  0  0  0  0  0
  -22.4821   -8.9607   22.2632 C   0  0  0  0  0  0  0  0  0  0  0  0
  -23.1857   -9.9951   24.3301 C   0  0  0  0  0  0  0  0  0  0  0  0
  -24.9839  -19.8943   20.2516 C   0  0  0  0  0  0  0  0  0  0  0  0
  -23.1698   -6.1255   23.9699 C   0  0  0  0  0  0  0  0  0  0  0  0
  -23.2973   -4.7947   23.5722 C   0  0  0  0  0  0  0  0  0  0  0  0
  -24.1974  -18.7349   22.2154 C   0  0  0  0  0  0  0  0  0  0  0  0
  -20.9175   -4.6868   23.1699 C   0  0  0  0  0  0  0  0  0  0  0  0
  -28.6587  -16.5930   21.3618 C   0  0  0  0  0  0  0  0  0  0  0  0
  -30.5633  -17.0491   20.3515 C   0  0  0  0  0  0  0  0  0  0  0  0
  -23.8937  -10.9208   22.2138 C   0  0  0  0  0  0  0  0  0  0  0  0
  -24.1445  -13.1563   21.0107 C   0  0  0  0  0  0  0  0  0  0  0  0
  -21.8830  -26.8343   22.4115 C   0  0  0  0  0  0  0  0  0  0  0  0
  -22.7754  -20.3721   21.1398 C   0  0  0  0  0  0  0  0  0  0  0  0
  -22.5228  -25.6051   22.6609 C   0  0  0  0  0  0  0  0  0  0  0  0
  -22.9787  -19.4280   22.1564 C   0  0  0  0  0  0  0  0  0  0  0  0
  -22.4806   -8.9969   23.6576 C   0  0  0  0  0  0  0  0  0  0  0  0
  -25.1949  -18.9683   21.2691 C   0  0  0  0  0  0  0  0  0  0  0  0
  -21.9160   -6.7370   23.9678 C   0  0  0  0  0  0  0  0  0  0  0  0
  -22.1712   -4.0754   23.1721 C   0  0  0  0  0  0  0  0  0  0  0  0
  -20.7899   -6.0177   23.5678 C   0  0  0  0  0  0  0  0  0  0  0  0
  -24.6241  -11.9145   21.4687 C   0  0  0  0  0  0  0  0  0  0  0  0
  -28.5501  -17.7069   20.5631 C   0  0  0  0  0  0  0  0  0  0  0  0
  -25.2166  -13.7211   20.3641 C   0  0  0  0  0  0  0  0  0  0  0  0
  -22.8461  -13.7465   21.1568 C   0  0  0  0  0  0  0  0  0  0  0  0
  -21.3234  -22.1729   23.3198 C   0  0  0  0  0  0  0  0  0  0  0  0
  -30.9983  -14.0189   20.8445 C   0  0  0  0  0  0  0  0  0  0  0  0
  -19.4880  -19.5278   23.7163 C   0  0  0  0  0  0  0  0  0  0  0  0
  -19.1814  -16.1423   23.4141 C   0  0  0  0  0  0  0  0  0  0  0  0
  -20.6090  -27.2234   23.1189 C   0  0  0  0  0  0  0  0  0  0  0  0
  -21.4698  -21.1120   21.0375 C   0  0  0  0  0  0  0  0  0  0  0  0
  -21.9262  -19.1418   23.1950 C   0  0  0  0  0  0  0  0  0  0  0  0
  -19.8773  -26.0415   23.7497 C   0  0  0  0  0  0  0  0  0  0  0  0
  -29.3865  -12.0047   18.3576 C   0  0  0  0  0  0  0  0  0  0  0  0
  -20.8536  -25.1592   24.5212 C   0  0  0  0  0  0  0  0  0  0  0  0
  -27.9557  -11.8695   18.8770 C   0  0  0  0  0  0  0  0  0  0  0  0
  -30.3955  -12.0322   19.5013 C   0  0  0  0  0  0  0  0  0  0  0  0
  -28.6961  -12.9553   21.0445 C   0  0  0  0  0  0  0  0  0  0  0  0
  -21.9216  -24.5729   23.5900 C   0  0  1  0  0  0  0  0  0  0  0  0
  -20.7186  -21.1845   22.3633 C   0  0  1  0  0  0  0  0  0  0  0  0
  -27.6426  -12.9544   19.9227 C   0  0  2  0  0  0  0  0  0  0  0  0
  -31.7549  -15.4433   22.7350 C   0  0  0  0  0  0  0  0  0  0  0  0
  -18.0734  -13.8912   23.4617 C   0  0  0  0  0  0  0  0  0  0  0  0
  -20.1476  -19.6690   26.6920 C   0  0  0  0  0  0  0  0  0  0  0  0
  -19.3439  -17.3080   26.9110 C   0  0  0  0  0  0  0  0  0  0  0  0
  -17.7681  -19.0970   26.1769 C   0  0  0  0  0  0  0  0  0  0  0  0
  -18.2378  -16.4189   20.6227 C   0  0  0  0  0  0  0  0  0  0  0  0
  -27.3454  -18.5716   20.3343 C   0  0  0  0  0  0  0  0  0  1  0  0
  -30.5682  -15.0475   21.8599 C   0  0  1  0  0  0  0  0  0  0  0  0
  -19.5619  -18.2958   24.5856 C   0  0  1  0  0  0  0  0  0  0  0  0
  -18.0734  -15.2786   22.8389 C   0  0  2  0  0  0  0  0  0  0  0  0
  -19.2262  -18.5990   26.0731 C   0  0  0  0  0  0  0  0  0  0  0  0
  -29.7391  -17.9853   19.9367 N   0  0  0  0  0  0  0  0  0  0  0  0
  -25.9014  -11.7022   21.1407 N   0  0  0  0  0  0  0  0  0  0  0  0
  -29.9538  -16.1825   21.2156 N   0  0  0  0  0  0  0  0  0  0  0  0
  -26.2335  -12.8183   20.4697 N   0  0  0  0  0  0  0  0  0  0  0  0
  -20.6690  -19.8953   23.0560 N   0  0  0  0  0  0  0  0  0  0  0  0
  -30.0506  -13.0606   20.4845 N   0  0  0  0  0  0  0  0  0  0  0  0
  -25.3793  -14.8969   19.7211 N   0  0  0  0  0  0  0  0  0  0  0  0
  -21.8607  -13.0303   21.8498 N   0  0  0  0  0  0  0  0  0  0  0  0
  -21.3791  -23.4650   22.8332 N   0  0  0  0  0  0  0  0  0  0  0  0
  -18.6879  -17.3057   23.9656 N   0  0  0  0  0  0  0  0  0  0  0  0
  -18.2427  -15.1323   21.3655 N   0  3  0  0  0  0  0  0  0  0  0  0
  -22.5631  -14.8686   20.6726 O   0  0  0  0  0  0  0  0  0  0  0  0
  -21.7094  -21.7918   24.4187 O   0  0  0  0  0  0  0  0  0  0  0  0
  -32.1418  -14.0690   20.3840 O   0  0  0  0  0  0  0  0  0  0  0  0
  -18.4199  -20.1373   23.6208 O   0  0  0  0  0  0  0  0  0  0  0  0
  -20.3658  -15.8157   23.3811 O   0  0  0  0  0  0  0  0  0  0  0  0
  -21.7912   -8.0585   24.3623 O   0  0  0  0  0  0  0  0  0  0  0  0
  -26.3712  -18.2875   21.3376 O   0  0  0  0  0  0  0  0  0  1  0  0
  -22.2941   -2.7978   22.7887 F   0  0  0  0  0  0  0  0  0  0  0  0
  -19.5830   -6.6001   23.5625 F   0  0  0  0  0  0  0  0  0  0  0  0
  1  2  1  0  0  0  0
  1  5  2  0  0  0  0
  2  6  2  0  0  0  0
  3  8  2  0  0  0  0
  3 17  1  0  0  0  0
  4  9  1  0  0  0  0
  4 17  2  0  0  0  0
  5 19  1  0  0  0  0
  6 21  1  0  0  0  0
  7 10  2  0  0  0  0
  7 20  1  0  0  0  0
  8 23  1  0  0  0  0
  9 23  2  0  0  0  0
 10 24  1  0  0  0  0
 11 12  2  0  0  0  0
 11 25  1  0  0  0  0
 12 26  1  0  0  0  0
 13 22  1  0  0  0  0
 13 24  2  0  0  0  0
 14 26  2  0  0  0  0
 14 27  1  0  0  0  0
 15 29  2  0  0  0  0
 15 61  1  0  0  0  0
 16 59  2  0  0  0  0
 16 61  1  0  0  0  0
 17 28  1  0  0  0  0
 18 28  1  0  0  0  0
 18 30  2  0  0  0  0
 18 31  1  0  0  0  0
 19 21  2  0  0  0  0
 19 36  1  0  0  0  0
 20 22  2  0  0  0  0
 20 37  1  0  0  0  0
 21 45  1  0  0  0  0
 22 38  1  0  0  0  0
 23 75  1  0  0  0  0
 24 76  1  0  0  0  0
 25 27  2  0  0  0  0
 25 75  1  0  0  0  0
 26 77  1  0  0  0  0
 27 78  1  0  0  0  0
 28 60  2  0  0  0  0
 29 54  1  0  0  0  0
 29 59  1  0  0  0  0
 30 62  1  0  0  0  0
 30 65  1  0  0  0  0
 31 66  1  0  0  0  0
 31 70  2  0  0  0  0
 32 46  1  0  0  0  0
 32 67  1  0  0  0  0
 32 71  2  0  0  0  0
 33 55  1  0  0  0  0
 33 64  1  0  0  0  0
 33 72  2  0  0  0  0
 34 56  1  0  0  0  0
 34 63  1  0  0  0  0
 34 73  2  0  0  0  0
 35 57  1  0  0  0  0
 35 68  1  0  0  0  0
 35 74  2  0  0  0  0
 36 39  1  0  0  0  0
 37 46  1  0  0  0  0
 38 63  1  0  0  0  0
 39 41  1  0  0  0  0
 40 42  1  0  0  0  0
 40 43  1  0  0  0  0
 41 45  1  0  0  0  0
 42 47  1  0  0  0  0
 43 64  1  0  0  0  0
 44 47  1  0  0  0  0
 44 64  1  0  0  0  0
 45 67  1  0  0  0  0
 46 63  1  0  0  0  0
 47 62  1  0  0  0  0
 48 55  1  0  0  0  0
 49 57  1  0  0  0  0
 50 58  1  0  0  0  0
 51 58  1  0  0  0  0
 52 58  1  0  0  0  0
 53 69  1  0  0  0  0
 54 76  1  0  0  0  0
 55 61  1  0  0  0  0
 56 58  1  0  0  0  0
 56 68  1  0  0  0  0
 57 69  1  0  0  0  0
 60 62  1  0  0  0  0
M  CHG  1  69   1
M  ISO  4  33 100  54 101  55 100  76 101
M  END
> <Batch ID>
0048

> <Smiles>
CNC(C)C(=O)NC(C(=O)N1Cc2cc([101O:1][101CH2:1]c3cn([100CH:0](C)[100C:0](=O)N4CCCC(n5nc(-c6ccc(Oc7ccc(F)cc7F)cc6)c(C(N)=O)c5N)C4)cn3)ccc2CC1C(=O)NC1CCCc2ccccc21)C(C)(C)C

> <Shape>
0.202

> <Color>
0.158

> <Negative vol penalty>
0.000

$$$$

  -OEChem-04052317263D

 87 95  0     1  0  0  0  0  0999 V2000
  -27.9977  -24.9366   17.0484 C   0  0  0  0  0  0  0  0  0  0  0  0
  -26.8490  -25.6145   17.4438 C   0  0  0  0  0  0  0  0  0  0  0  0
  -26.3751  -13.6263   21.5047 C   0  0  0  0  0  0  0  0  0  0  0  0
  -24.8210  -13.8659   19.6705 C   0  0  0  0  0  0  0  0  0  0  0  0
  -29.0751  -24.8222   17.9259 C   0  0  0  0  0  0  0  0  0  0  0  0
  -26.7767  -26.1776   18.7175 C   0  0  0  0  0  0  0  0  0  0  0  0
  -24.8626  -30.8657   18.6631 C   0  0  0  0  0  0  0  0  0  0  0  0
  -26.1352  -12.2525   21.5287 C   0  0  0  0  0  0  0  0  0  0  0  0
  -24.5811  -12.4920   19.6944 C   0  0  0  0  0  0  0  0  0  0  0  0
  -23.4793  -30.9872   18.5388 C   0  0  0  0  0  0  0  0  0  0  0  0
  -23.7473  -10.1614   22.6905 C   0  0  0  0  0  0  0  0  0  0  0  0
  -23.5451   -9.5611   23.9332 C   0  0  0  0  0  0  0  0  0  0  0  0
  -23.3024  -31.3406   20.9185 C   0  0  0  0  0  0  0  0  0  0  0  0
  -25.4565   -8.1327   23.5542 C   0  0  0  0  0  0  0  0  0  0  0  0
  -19.5803  -28.7853   23.1941 C   0  0  0  0  0  0  0  0  0  0  0  0
  -25.7180  -14.4331   20.5757 C   0  0  0  0  0  0  0  0  0  0  0  0
  -26.9482  -16.5312   19.8063 C   0  0  0  0  0  0  0  0  0  0  0  0
  -29.0197  -25.3925   19.2075 C   0  0  0  0  0  0  0  0  0  0  0  0
  -25.4761  -30.9700   19.9198 C   0  0  0  0  0  0  0  0  0  0  0  0
  -27.8539  -26.0696   19.6134 C   0  0  0  0  0  0  0  0  0  0  0  0
  -24.6939  -31.2225   21.0558 C   0  0  0  0  0  0  0  0  0  0  0  0
  -25.2382  -11.6853   20.6235 C   0  0  0  0  0  0  0  0  0  0  0  0
  -22.6987  -31.2218   19.6669 C   0  0  0  0  0  0  0  0  0  0  0  0
  -24.8041   -9.7473   21.8795 C   0  0  0  0  0  0  0  0  0  0  0  0
  -24.3997   -8.5468   24.3651 C   0  0  0  0  0  0  0  0  0  0  0  0
  -25.6586   -8.7330   22.3114 C   0  0  0  0  0  0  0  0  0  0  0  0
  -25.9650  -15.8524   20.5508 C   0  0  0  0  0  0  0  0  0  0  0  0
  -18.7996  -28.7859   22.0655 C   0  0  0  0  0  0  0  0  0  0  0  0
  -26.7703  -17.8545   20.1287 C   0  0  0  0  0  0  0  0  0  0  0  0
  -27.9340  -16.0122   18.9038 C   0  0  0  0  0  0  0  0  0  0  0  0
  -27.2074  -29.0218   21.7393 C   0  0  0  0  0  0  0  0  0  0  0  0
  -27.5218  -31.6655   23.5925 C   0  0  0  0  0  0  0  0  0  0  0  0
  -26.2792  -34.6959   24.5515 C   0  0  0  0  0  0  0  0  0  0  0  0
  -22.8236  -21.6054   21.5887 C   0  0  0  0  0  0  0  0  0  0  0  0
  -30.1912  -25.2021   20.1380 C   0  0  0  0  0  0  0  0  0  0  0  0
  -26.9721  -30.8631   20.0334 C   0  0  0  0  0  0  0  0  0  0  0  0
  -25.3059  -31.3629   22.4248 C   0  0  0  0  0  0  0  0  0  0  0  0
  -30.1790  -26.1499   21.3346 C   0  0  0  0  0  0  0  0  0  0  0  0
  -23.9347  -18.8898   23.9316 C   0  0  0  0  0  0  0  0  0  0  0  0
  -28.7925  -26.1904   21.9693 C   0  0  0  0  0  0  0  0  0  0  0  0
  -25.2728  -19.0937   23.2211 C   0  0  0  0  0  0  0  0  0  0  0  0
  -22.8958  -19.9317   23.5015 C   0  0  0  0  0  0  0  0  0  0  0  0
  -23.6715  -19.3105   21.2370 C   0  0  0  0  0  0  0  0  0  0  0  0
  -27.7470  -26.7153   20.9779 C   0  0  1  0  0  0  0  0  0  0  0  0
  -27.4388  -30.4745   21.4329 C   0  0  1  0  0  0  0  0  0  0  0  0
  -25.1314  -19.1111   21.6805 C   0  0  2  0  0  0  0  0  0  0  0  0
  -26.7353  -36.6075   26.1120 C   0  0  0  0  0  0  0  0  0  0  0  0
  -22.7342  -26.2741   25.5284 C   0  0  0  0  0  0  0  0  0  0  0  0
  -26.5149  -29.9900   25.9354 C   0  0  0  0  0  0  0  0  0  0  0  0
  -26.0906  -32.1179   27.1844 C   0  0  0  0  0  0  0  0  0  0  0  0
  -28.4113  -31.5237   26.4886 C   0  0  0  0  0  0  0  0  0  0  0  0
  -20.7674  -21.9762   23.0215 C   0  0  0  0  0  0  0  0  0  0  0  0
  -26.5356  -36.6142   22.3125 C   0  0  0  0  0  0  0  0  0  0  0  0
  -23.6492  -26.5373   22.5156 C   0  0  0  0  0  0  0  0  0  0  0  0
  -18.2794  -29.9575   21.2716 C   0  0  0  0  0  0  0  0  0  0  0  0
  -19.2208  -30.4104   20.1534 C   0  0  0  0  0  0  0  0  0  0  0  0
  -20.4824  -26.8732   24.5562 C   0  0  0  0  0  0  0  0  0  0  0  0
  -22.0238  -23.8825   22.0898 C   0  0  0  0  0  0  0  0  0  0  0  0
  -22.3190  -24.6192   23.3829 C   0  0  0  0  0  0  0  0  0  0  0  0
  -20.5597  -30.9294   20.6646 C   0  0  0  0  0  0  0  0  0  1  0  0
  -26.7444  -32.2663   24.7387 C   0  0  1  0  0  0  0  0  0  0  0  0
  -26.9430  -36.0517   24.7118 C   0  0  2  0  0  0  0  0  0  0  0  0
  -21.9995  -26.8928   24.3470 C   0  0  2  0  0  0  0  0  0  0  0  0
  -26.9283  -31.4699   26.0614 C   0  0  0  0  0  0  0  0  0  0  0  0
  -25.2181  -16.6763   21.2906 N   0  0  0  0  0  0  0  0  0  0  0  0
  -18.5195  -27.4985   21.7000 N   0  0  0  0  0  0  0  0  0  0  0  0
  -19.1063  -26.6889   22.5748 N   0  0  0  0  0  0  0  0  0  0  0  0
  -19.7416  -27.4624   23.4699 N   0  0  0  0  0  0  0  0  0  0  0  0
  -25.7321  -17.8864   21.0126 N   0  0  0  0  0  0  0  0  0  0  0  0
  -26.7721  -31.2443   22.4851 N   0  0  0  0  0  0  0  0  0  0  0  0
  -23.0160  -20.3050   22.0846 N   0  0  0  0  0  0  0  0  0  0  0  0
  -27.4023  -18.9821   19.7395 N   0  0  0  0  0  0  0  0  0  0  0  0
  -27.9782  -14.6283   18.6866 N   0  0  0  0  0  0  0  0  0  0  0  0
  -27.8356  -28.1554   20.8652 N   0  0  0  0  0  0  0  0  0  0  0  0
  -27.1535  -33.6642   24.8211 N   0  0  0  0  0  0  0  0  0  0  0  0
  -21.9374  -22.4414   22.2831 N   0  0  0  0  0  0  0  0  0  0  0  0
  -26.3796  -37.0232   23.7322 N   0  3  0  0  0  0  0  0  0  0  0  0
  -22.3438  -26.1038   23.1295 N   0  3  1  0  0  0  0  0  0  0  0  0
  -28.7621  -16.7519   18.3203 O   0  0  0  0  0  0  0  0  0  0  0  0
  -26.5117  -28.7101   22.6988 O   0  0  0  0  0  0  0  0  0  0  0  0
  -28.7497  -31.5799   23.6738 O   0  0  0  0  0  0  0  0  0  0  0  0
  -25.1019  -34.5651   24.2239 O   0  0  0  0  0  0  0  0  0  0  0  0
  -23.4262  -22.0059   20.5838 O   0  0  0  0  0  0  0  0  0  0  0  0
  -25.0040  -10.3447   20.6464 O   0  0  0  0  0  0  0  0  0  0  0  0
  -21.3482  -31.3402   19.5484 O   0  0  0  0  0  0  0  0  0  1  0  0
  -24.2063   -7.9715   25.5592 F   0  0  0  0  0  0  0  0  0  0  0  0
  -26.6763   -8.3317   21.5373 F   0  0  0  0  0  0  0  0  0  0  0  0
  1  2  1  0  0  0  0
  1  5  2  0  0  0  0
  2  6  2  0  0  0  0
  3  8  2  0  0  0  0
  3 16  1  0  0  0  0
  4  9  1  0  0  0  0
  4 16  2  0  0  0  0
  5 18  1  0  0  0  0
  6 20  1  0  0  0  0
  7 10  2  0  0  0  0
  7 19  1  0  0  0  0
  8 22  1  0  0  0  0
  9 22  2  0  0  0  0
 10 23  1  0  0  0  0
 11 12  2  0  0  0  0
 11 24  1  0  0  0  0
 12 25  1  0  0  0  0
 13 21  1  0  0  0  0
 13 23  2  0  0  0  0
 14 25  2  0  0  0  0
 14 26  1  0  0  0  0
 15 28  2  0  0  0  0
 15 68  1  0  0  0  0
 16 27  1  0  0  0  0
 17 27  1  0  0  0  0
 17 29  2  0  0  0  0
 17 30  1  0  0  0  0
 18 20  2  0  0  0  0
 18 35  1  0  0  0  0
 19 21  2  0  0  0  0
 19 36  1  0  0  0  0
 20 44  1  0  0  0  0
 21 37  1  0  0  0  0
 22 84  1  0  0  0  0
 23 85  1  0  0  0  0
 24 26  2  0  0  0  0
 24 84  1  0  0  0  0
 25 86  1  0  0  0  0
 26 87  1  0  0  0  0
 27 65  2  0  0  0  0
 28 55  1  0  0  0  0
 28 66  1  0  0  0  0
 29 69  1  0  0  0  0
 29 72  1  0  0  0  0
 30 73  1  0  0  0  0
 30 79  2  0  0  0  0
 31 45  1  0  0  0  0
 31 74  1  0  0  0  0
 31 80  2  0  0  0  0
 32 61  1  0  0  0  0
 32 70  1  0  0  0  0
 32 81  2  0  0  0  0
 33 62  1  0  0  0  0
 33 75  1  0  0  0  0
 33 82  2  0  0  0  0
 34 71  1  0  0  0  0
 34 76  1  0  0  0  0
 34 83  2  0  0  0  0
 35 38  1  0  0  0  0
 36 45  1  0  0  0  0
 37 70  1  0  0  0  0
 38 40  1  0  0  0  0
 39 41  1  0  0  0  0
 39 42  1  0  0  0  0
 40 44  1  0  0  0  0
 41 46  1  0  0  0  0
 42 71  1  0  0  0  0
 43 46  1  0  0  0  0
 43 71  1  0  0  0  0
 44 74  1  0  0  0  0
 45 70  1  0  0  0  0
 46 69  1  0  0  0  0
 47 62  1  0  0  0  0
 48 63  1  0  0  0  0
 49 64  1  0  0  0  0
 50 64  1  0  0  0  0
 51 64  1  0  0  0  0
 52 76  1  0  0  0  0
 53 77  1  0  0  0  0
 54 78  1  0  0  0  0
 55 56  1  0  0  0  0
 56 60  1  0  0  0  0
 57 63  1  0  0  0  0
 57 68  1  0  0  0  0
 58 59  1  0  0  0  0
 58 76  1  0  0  0  0
 59 78  1  0  0  0  0
 60 85  1  0  0  0  0
 61 64  1  0  0  0  0
 61 75  1  0  0  0  0
 62 77  1  0  0  0  0
 63 78  1  0  0  0  0
 65 69  1  0  0  0  0
 66 67  2  0  0  0  0
 67 68  1  0  0  0  0
M  CHG  2  77   1  78   1
M  ISO  4  34 100  60 101  76 100  85 101
M  END
> <Batch ID>
0048

> <Smiles>
CNC(C)C(=O)NC(C(=O)N1Cc2cc([101O:1][101CH2:1]CCc3cn(CC(C)N(C)CC[100N:0](C)[100C:0](=O)N4CCCC(n5nc(-c6ccc(Oc7ccc(F)cc7F)cc6)c(C(N)=O)c5N)C4)nn3)ccc2CC1C(=O)NC1CCCc2ccccc21)C(C)(C)C

> <Shape>
0.269

> <Color>
0.076

> <Negative vol penalty>
0.000

$$$$

  -OEChem-04052317263D

 81 89  0     1  0  0  0  0  0999 V2000
  -19.8406  -31.2803   21.9825 C   0  0  0  0  0  0  0  0  0  0  0  0
  -21.1525  -30.8177   21.9629 C   0  0  0  0  0  0  0  0  0  0  0  0
  -28.4335  -17.8978   21.9002 C   0  0  0  0  0  0  0  0  0  0  0  0
  -30.4979  -17.2001   20.8568 C   0  0  0  0  0  0  0  0  0  0  0  0
  -18.7913  -30.3884   22.2000 C   0  0  0  0  0  0  0  0  0  0  0  0
  -21.4159  -29.4629   22.1620 C   0  0  0  0  0  0  0  0  0  0  0  0
  -24.8061  -27.6390   18.8718 C   0  0  0  0  0  0  0  0  0  0  0  0
  -28.0519  -16.5633   22.0376 C   0  0  0  0  0  0  0  0  0  0  0  0
  -30.1163  -15.8655   20.9942 C   0  0  0  0  0  0  0  0  0  0  0  0
  -26.1482  -27.9282   19.1144 C   0  0  0  0  0  0  0  0  0  0  0  0
  -29.5268  -12.2879   20.7437 C   0  0  0  0  0  0  0  0  0  0  0  0
  -29.7118  -11.4446   19.6482 C   0  0  0  0  0  0  0  0  0  0  0  0
  -26.4427  -25.7321   20.0681 C   0  0  0  0  0  0  0  0  0  0  0  0
  -28.2498  -12.8416   18.3260 C   0  0  0  0  0  0  0  0  0  0  0  0
  -31.2274  -28.7115   19.6244 C   0  0  0  0  0  0  0  0  0  0  0  0
  -29.6565  -18.2163   21.3097 C   0  0  0  0  0  0  0  0  0  0  0  0
  -30.7793  -20.3704   22.0888 C   0  0  0  0  0  0  0  0  0  0  0  0
  -19.0413  -29.0205   22.3922 C   0  0  0  0  0  0  0  0  0  0  0  0
  -24.2686  -26.3961   19.2361 C   0  0  0  0  0  0  0  0  0  0  0  0
  -20.3690  -28.5520   22.3836 C   0  0  0  0  0  0  0  0  0  0  0  0
  -25.0941  -25.4287   19.8267 C   0  0  0  0  0  0  0  0  0  0  0  0
  -28.8933  -15.5471   21.5846 C   0  0  0  0  0  0  0  0  0  0  0  0
  -26.9660  -26.9757   19.7153 C   0  0  0  0  0  0  0  0  0  0  0  0
  -28.7033  -13.4080   20.6305 C   0  0  0  0  0  0  0  0  0  0  0  0
  -29.0733  -11.7214   18.4393 C   0  0  0  0  0  0  0  0  0  0  0  0
  -28.0648  -13.6849   19.4216 C   0  0  0  0  0  0  0  0  0  0  0  0
  -30.0510  -19.5947   21.1669 C   0  0  0  0  0  0  0  0  0  0  0  0
  -31.0882  -27.7206   20.5548 C   0  0  0  0  0  0  0  0  0  0  0  0
  -30.8926  -21.6005   21.4885 C   0  0  0  0  0  0  0  0  0  0  0  0
  -32.9391  -27.3248   19.4069 C   0  0  0  0  0  0  0  0  0  0  0  0
  -31.3063  -20.0110   23.3728 C   0  0  0  0  0  0  0  0  0  0  0  0
  -21.9856  -25.4366   21.2288 C   0  0  0  0  0  0  0  0  0  0  0  0
  -22.5928  -22.5365   19.9086 C   0  0  0  0  0  0  0  0  0  0  0  0
  -24.7969  -19.9908   18.6130 C   0  0  0  0  0  0  0  0  0  0  0  0
  -31.9157  -24.7470   16.9942 C   0  0  0  0  0  0  0  0  0  0  0  0
  -17.8779  -28.1020   22.6708 C   0  0  0  0  0  0  0  0  0  0  0  0
  -22.8254  -26.0899   18.9432 C   0  0  0  0  0  0  0  0  0  0  0  0
  -24.5707  -24.0718   20.2183 C   0  0  0  0  0  0  0  0  0  0  0  0
  -18.2150  -26.6230   22.5001 C   0  0  0  0  0  0  0  0  0  0  0  0
  -28.6096  -23.4854   17.3871 C   0  0  0  0  0  0  0  0  0  0  0  0
  -19.5353  -26.2934   23.1893 C   0  0  0  0  0  0  0  0  0  0  0  0
  -28.7513  -22.4210   18.4765 C   0  0  0  0  0  0  0  0  0  0  0  0
  -29.8294  -23.5192   16.4689 C   0  0  0  0  0  0  0  0  0  0  0  0
  -31.2642  -22.6045   18.2518 C   0  0  0  0  0  0  0  0  0  0  0  0
  -20.6933  -27.0858   22.5708 C   0  0  1  0  0  0  0  0  0  0  0  0
  -22.2595  -24.9801   19.8237 C   0  0  1  0  0  0  0  0  0  0  0  0
  -30.0829  -22.5703   19.2366 C   0  0  2  0  0  0  0  0  0  0  0  0
  -25.0134  -17.7556   17.4929 C   0  0  0  0  0  0  0  0  0  0  0  0
  -22.9801  -21.4679   22.7403 C   0  0  0  0  0  0  0  0  0  0  0  0
  -24.1050  -19.4604   21.7541 C   0  0  0  0  0  0  0  0  0  0  0  0
  -21.7180  -19.9419   21.2129 C   0  0  0  0  0  0  0  0  0  0  0  0
  -32.9084  -29.2469   17.8447 C   0  0  0  0  0  0  0  0  0  0  0  0
  -25.1997  -21.2313   15.9563 C   0  0  0  0  0  0  0  0  0  0  0  0
  -30.0281  -27.4770   21.6013 C   0  0  0  0  0  0  0  0  0  0  0  0
  -34.1928  -26.6831   18.9387 C   0  0  0  0  0  0  0  0  0  0  0  0
  -34.0300  -25.8726   17.6438 C   0  0  0  0  0  0  0  0  0  0  0  0
  -28.8826  -26.6179   21.0772 C   0  0  0  0  0  0  0  0  0  1  0  0
  -23.5318  -21.3959   20.2191 C   0  0  1  0  0  0  0  0  0  0  0  0
  -24.6291  -19.2166   17.3180 C   0  0  2  0  0  0  0  0  0  0  0  0
  -23.0934  -20.5927   21.4761 C   0  0  0  0  0  0  0  0  0  0  0  0
  -29.7245  -20.2752   20.0649 N   0  0  0  0  0  0  0  0  0  0  0  0
  -32.3812  -28.4418   18.9287 N   0  0  0  0  0  0  0  0  0  0  0  0
  -30.2500  -21.4913   20.2904 N   0  0  0  0  0  0  0  0  0  0  0  0
  -32.1610  -26.8766   20.3973 N   0  3  0  0  0  0  0  0  0  0  0  0
  -23.1513  -23.8224   19.9171 N   0  0  0  0  0  0  0  0  0  0  0  0
  -31.0591  -23.6640   17.2518 N   0  0  0  0  0  0  0  0  0  0  0  0
  -31.4782  -22.7542   21.8739 N   0  0  0  0  0  0  0  0  0  0  0  0
  -31.0994  -18.7053   23.8383 N   0  0  0  0  0  0  0  0  0  0  0  0
  -21.0978  -26.4920   21.3145 N   0  0  0  0  0  0  0  0  0  0  0  0
  -23.6213  -20.5978   19.0011 N   0  0  0  0  0  0  0  0  0  0  0  0
  -33.0561  -24.8133   17.7854 N   0  0  0  0  0  0  0  0  0  0  0  0
  -25.4860  -19.8032   16.2491 N   0  3  0  0  0  0  0  0  0  0  0  0
  -31.9276  -20.8284   24.0934 O   0  0  0  0  0  0  0  0  0  0  0  0
  -22.5378  -24.8721   22.1659 O   0  0  0  0  0  0  0  0  0  0  0  0
  -21.4089  -22.2946   19.6605 O   0  0  0  0  0  0  0  0  0  0  0  0
  -25.8632  -20.0481   19.2214 O   0  0  0  0  0  0  0  0  0  0  0  0
  -31.6790  -25.5952   16.1273 O   0  0  0  0  0  0  0  0  0  0  0  0
  -28.5213  -14.2447   21.7188 O   0  0  0  0  0  0  0  0  0  0  0  0
  -28.2762  -27.2556   19.9538 O   0  0  0  0  0  0  0  0  0  1  0  0
  -29.2522  -10.9123   17.3869 F   0  0  0  0  0  0  0  0  0  0  0  0
  -27.2734  -14.7602   19.3064 F   0  0  0  0  0  0  0  0  0  0  0  0
  1  2  1  0  0  0  0
  1  5  2  0  0  0  0
  2  6  2  0  0  0  0
  3  8  2  0  0  0  0
  3 16  1  0  0  0  0
  4  9  1  0  0  0  0
  4 16  2  0  0  0  0
  5 18  1  0  0  0  0
  6 20  1  0  0  0  0
  7 10  2  0  0  0  0
  7 19  1  0  0  0  0
  8 22  1  0  0  0  0
  9 22  2  0  0  0  0
 10 23  1  0  0  0  0
 11 12  2  0  0  0  0
 11 24  1  0  0  0  0
 12 25  1  0  0  0  0
 13 21  1  0  0  0  0
 13 23  2  0  0  0  0
 14 25  2  0  0  0  0
 14 26  1  0  0  0  0
 15 28  2  0  0  0  0
 15 62  1  0  0  0  0
 16 27  1  0  0  0  0
 17 27  1  0  0  0  0
 17 29  2  0  0  0  0
 17 31  1  0  0  0  0
 18 20  2  0  0  0  0
 18 36  1  0  0  0  0
 19 21  2  0  0  0  0
 19 37  1  0  0  0  0
 20 45  1  0  0  0  0
 21 38  1  0  0  0  0
 22 78  1  0  0  0  0
 23 79  1  0  0  0  0
 24 26  2  0  0  0  0
 24 78  1  0  0  0  0
 25 80  1  0  0  0  0
 26 81  1  0  0  0  0
 27 61  2  0  0  0  0
 28 54  1  0  0  0  0
 28 64  1  0  0  0  0
 29 63  1  0  0  0  0
 29 67  1  0  0  0  0
 30 55  1  0  0  0  0
 30 62  1  0  0  0  0
 30 64  2  0  0  0  0
 31 68  1  0  0  0  0
 31 73  2  0  0  0  0
 32 46  1  0  0  0  0
 32 69  1  0  0  0  0
 32 74  2  0  0  0  0
 33 58  1  0  0  0  0
 33 65  1  0  0  0  0
 33 75  2  0  0  0  0
 34 59  1  0  0  0  0
 34 70  1  0  0  0  0
 34 76  2  0  0  0  0
 35 66  1  0  0  0  0
 35 71  1  0  0  0  0
 35 77  2  0  0  0  0
 36 39  1  0  0  0  0
 37 46  1  0  0  0  0
 38 65  1  0  0  0  0
 39 41  1  0  0  0  0
 40 42  1  0  0  0  0
 40 43  1  0  0  0  0
 41 45  1  0  0  0  0
 42 47  1  0  0  0  0
 43 66  1  0  0  0  0
 44 47  1  0  0  0  0
 44 66  1  0  0  0  0
 45 69  1  0  0  0  0
 46 65  1  0  0  0  0
 47 63  1  0  0  0  0
 48 59  1  0  0  0  0
 49 60  1  0  0  0  0
 50 60  1  0  0  0  0
 51 60  1  0  0  0  0
 52 62  1  0  0  0  0
 53 72  1  0  0  0  0
 54 57  1  0  0  0  0
 55 56  1  0  0  0  0
 56 71  1  0  0  0  0
 57 79  1  0  0  0  0
 58 60  1  0  0  0  0
 58 70  1  0  0  0  0
 59 72  1  0  0  0  0
 61 63  1  0  0  0  0
M  CHG  2  64   1  72   1
M  ISO  4  35 100  57 101  71 100  79 101
M  END
> <Batch ID>
0048

> <Smiles>
CNC(C)C(=O)NC(C(=O)N1Cc2cc([101O:1][101CH2:1]Cc3cn(C)c(CC[100NH:0][100C:0](=O)N4CCCC(n5nc(-c6ccc(Oc7ccc(F)cc7F)cc6)c(C(N)=O)c5N)C4)n3)ccc2CC1C(=O)NC1CCCc2ccccc21)C(C)(C)C

> <Shape>
0.223

> <Color>
0.068

> <Negative vol penalty>
0.000

$$$$

  -OEChem-04052317263D

 81 89  0     1  0  0  0  0  0999 V2000
  -17.1430  -30.5125   24.0868 C   0  0  0  0  0  0  0  0  0  0  0  0
  -18.5004  -30.8134   24.1363 C   0  0  0  0  0  0  0  0  0  0  0  0
  -24.9345  -18.8607   17.4449 C   0  0  0  0  0  0  0  0  0  0  0  0
  -24.0118  -20.3003   19.1516 C   0  0  0  0  0  0  0  0  0  0  0  0
  -16.7189  -29.2956   23.5547 C   0  0  0  0  0  0  0  0  0  0  0  0
  -19.4345  -29.8969   23.6548 C   0  0  0  0  0  0  0  0  0  0  0  0
  -25.8169  -29.6106   20.4146 C   0  0  0  0  0  0  0  0  0  0  0  0
  -23.6585  -18.3691   17.1697 C   0  0  0  0  0  0  0  0  0  0  0  0
  -22.7358  -19.8088   18.8764 C   0  0  0  0  0  0  0  0  0  0  0  0
  -27.0721  -29.0208   20.5578 C   0  0  0  0  0  0  0  0  0  0  0  0
  -20.9140  -19.3761   15.4707 C   0  0  0  0  0  0  0  0  0  0  0  0
  -20.5390  -19.2595   14.1323 C   0  0  0  0  0  0  0  0  0  0  0  0
  -26.2187  -26.9835   19.5881 C   0  0  0  0  0  0  0  0  0  0  0  0
  -20.2199  -16.8831   14.4289 C   0  0  0  0  0  0  0  0  0  0  0  0
  -30.9310  -25.7316   21.0332 C   0  0  0  0  0  0  0  0  0  0  0  0
  -25.1112  -19.8263   18.4359 C   0  0  0  0  0  0  0  0  0  0  0  0
  -27.0597  -21.4434   18.1264 C   0  0  0  0  0  0  0  0  0  0  0  0
  -17.6477  -28.3678   23.0576 C   0  0  0  0  0  0  0  0  0  0  0  0
  -24.7487  -28.8865   19.8661 C   0  0  0  0  0  0  0  0  0  0  0  0
  -19.0225  -28.6659   23.1169 C   0  0  0  0  0  0  0  0  0  0  0  0
  -24.9517  -27.5672   19.4366 C   0  0  0  0  0  0  0  0  0  0  0  0
  -22.5592  -18.8431   17.8854 C   0  0  0  0  0  0  0  0  0  0  0  0
  -27.2724  -27.7061   20.1472 C   0  0  0  0  0  0  0  0  0  0  0  0
  -20.9421  -18.2462   16.2882 C   0  0  0  0  0  0  0  0  0  0  0  0
  -20.1919  -18.0130   13.6114 C   0  0  0  0  0  0  0  0  0  0  0  0
  -20.5950  -16.9997   15.7673 C   0  0  0  0  0  0  0  0  0  0  0  0
  -26.4291  -20.3341   18.7210 C   0  0  0  0  0  0  0  0  0  0  0  0
  -30.7996  -27.1271   20.9026 C   0  0  0  0  0  0  0  0  0  0  0  0
  -32.2865  -25.5110   21.0136 C   0  0  0  0  0  0  0  0  0  0  0  0
  -28.2883  -21.5081   18.7372 C   0  0  0  0  0  0  0  0  0  0  0  0
  -26.5780  -22.3356   17.1128 C   0  0  0  0  0  0  0  0  0  0  0  0
  -21.9050  -27.9374   20.9229 C   0  0  0  0  0  0  0  0  0  0  0  0
  -21.5233  -26.9628   17.8526 C   0  0  0  0  0  0  0  0  0  0  0  0
  -22.9732  -25.9990   14.9173 C   0  0  0  0  0  0  0  0  0  0  0  0
  -31.4595  -21.3012   23.3248 C   0  0  0  0  0  0  0  0  0  0  0  0
  -17.1445  -27.0455   22.5352 C   0  0  0  0  0  0  0  0  0  0  0  0
  -23.4078  -29.5458   19.6938 C   0  0  0  0  0  0  0  0  0  0  0  0
  -23.8428  -26.7535   18.8229 C   0  0  0  0  0  0  0  0  0  0  0  0
  -18.1753  -26.2874   21.7027 C   0  0  0  0  0  0  0  0  0  0  0  0
  -30.6369  -18.2075   21.7664 C   0  0  0  0  0  0  0  0  0  0  0  0
  -19.5293  -26.2820   22.4053 C   0  0  0  0  0  0  0  0  0  0  0  0
  -29.5172  -18.5754   20.7913 C   0  0  0  0  0  0  0  0  0  0  0  0
  -30.5462  -19.0138   23.0601 C   0  0  0  0  0  0  0  0  0  0  0  0
  -29.3716  -20.8440   21.9007 C   0  0  0  0  0  0  0  0  0  0  0  0
  -20.0648  -27.7080   22.5818 C   0  0  1  0  0  0  0  0  0  0  0  0
  -22.2589  -28.5469   19.5959 C   0  0  1  0  0  0  0  0  0  0  0  0
  -29.4538  -20.0969   20.5586 C   0  0  2  0  0  0  0  0  0  0  0  0
  -22.4028  -25.2267   12.5988 C   0  0  0  0  0  0  0  0  0  0  0  0
  -20.8172  -24.2039   18.9478 C   0  0  0  0  0  0  0  0  0  0  0  0
  -21.1919  -23.2740   16.6537 C   0  0  0  0  0  0  0  0  0  0  0  0
  -19.3954  -24.9622   17.0352 C   0  0  0  0  0  0  0  0  0  0  0  0
  -34.2748  -27.0337   20.8079 C   0  0  0  0  0  0  0  0  0  0  0  0
  -24.3306  -28.3220   13.6845 C   0  0  0  0  0  0  0  0  0  0  0  0
  -29.5302  -27.9260   20.8612 C   0  0  0  0  0  0  0  0  0  1  0  0
  -33.0662  -24.2634   21.1101 C   0  0  0  0  0  0  0  0  0  0  0  0
  -33.4546  -23.8432   22.5491 C   0  0  0  0  0  0  0  0  0  0  0  0
  -32.2624  -23.6442   23.4826 C   0  0  0  0  0  0  0  0  0  0  0  0
  -21.8151  -25.6931   17.0898 C   0  0  1  0  0  0  0  0  0  0  0  0
  -22.7203  -26.4234   13.4819 C   0  0  2  0  0  0  0  0  0  0  0  0
  -20.8255  -24.5477   17.4450 C   0  0  0  0  0  0  0  0  0  0  0  0
  -27.1940  -19.7369   19.6389 N   0  0  0  0  0  0  0  0  0  0  0  0
  -31.9777  -27.7492   20.8073 N   0  0  0  0  0  0  0  0  0  0  0  0
  -32.8622  -26.7399   20.8781 N   0  0  0  0  0  0  0  0  0  0  0  0
  -28.3178  -20.4737   19.6256 N   0  0  0  0  0  0  0  0  0  0  0  0
  -22.5483  -27.4404   18.6814 N   0  0  0  0  0  0  0  0  0  0  0  0
  -30.4911  -20.4486   22.7696 N   0  0  0  0  0  0  0  0  0  0  0  0
  -29.3354  -22.3483   18.5955 N   0  0  0  0  0  0  0  0  0  0  0  0
  -25.2931  -22.1260   16.5939 N   0  0  0  0  0  0  0  0  0  0  0  0
  -20.6127  -28.1999   21.3359 N   0  0  0  0  0  0  0  0  0  0  0  0
  -21.8243  -26.0584   15.6774 N   0  0  0  0  0  0  0  0  0  0  0  0
  -31.3382  -22.6453   22.9940 N   0  0  0  0  0  0  0  0  0  0  0  0
  -23.9195  -27.1123   12.9266 N   0  3  0  0  0  0  0  0  0  0  0  0
  -27.2730  -23.2806   16.6683 O   0  0  0  0  0  0  0  0  0  0  0  0
  -22.7419  -27.2766   21.5267 O   0  0  0  0  0  0  0  0  0  0  0  0
  -20.4289  -27.5145   17.7125 O   0  0  0  0  0  0  0  0  0  0  0  0
  -24.0785  -25.6462   15.3228 O   0  0  0  0  0  0  0  0  0  0  0  0
  -32.3682  -20.8941   24.0565 O   0  0  0  0  0  0  0  0  0  0  0  0
  -21.3138  -18.3638   17.6170 O   0  0  0  0  0  0  0  0  0  0  0  0
  -28.4964  -27.1278   20.2865 O   0  0  0  0  0  0  0  0  0  1  0  0
  -19.8303  -17.9013   12.3265 F   0  0  0  0  0  0  0  0  0  0  0  0
  -20.6189  -15.9109   16.5481 F   0  0  0  0  0  0  0  0  0  0  0  0
  1  2  1  0  0  0  0
  1  5  2  0  0  0  0
  2  6  2  0  0  0  0
  3  8  2  0  0  0  0
  3 16  1  0  0  0  0
  4  9  1  0  0  0  0
  4 16  2  0  0  0  0
  5 18  1  0  0  0  0
  6 20  1  0  0  0  0
  7 10  2  0  0  0  0
  7 19  1  0  0  0  0
  8 22  1  0  0  0  0
  9 22  2  0  0  0  0
 10 23  1  0  0  0  0
 11 12  2  0  0  0  0
 11 24  1  0  0  0  0
 12 25  1  0  0  0  0
 13 21  1  0  0  0  0
 13 23  2  0  0  0  0
 14 25  2  0  0  0  0
 14 26  1  0  0  0  0
 15 28  1  0  0  0  0
 15 29  2  0  0  0  0
 16 27  1  0  0  0  0
 17 27  1  0  0  0  0
 17 30  2  0  0  0  0
 17 31  1  0  0  0  0
 18 20  2  0  0  0  0
 18 36  1  0  0  0  0
 19 21  2  0  0  0  0
 19 37  1  0  0  0  0
 20 45  1  0  0  0  0
 21 38  1  0  0  0  0
 22 78  1  0  0  0  0
 23 79  1  0  0  0  0
 24 26  2  0  0  0  0
 24 78  1  0  0  0  0
 25 80  1  0  0  0  0
 26 81  1  0  0  0  0
 27 61  2  0  0  0  0
 28 54  1  0  0  0  0
 28 62  2  0  0  0  0
 29 55  1  0  0  0  0
 29 63  1  0  0  0  0
 30 64  1  0  0  0  0
 30 67  1  0  0  0  0
 31 68  1  0  0  0  0
 31 73  2  0  0  0  0
 32 46  1  0  0  0  0
 32 69  1  0  0  0  0
 32 74  2  0  0  0  0
 33 58  1  0  0  0  0
 33 65  1  0  0  0  0
 33 75  2  0  0  0  0
 34 59  1  0  0  0  0
 34 70  1  0  0  0  0
 34 76  2  0  0  0  0
 35 66  1  0  0  0  0
 35 71  1  0  0  0  0
 35 77  2  0  0  0  0
 36 39  1  0  0  0  0
 37 46  1  0  0  0  0
 38 65  1  0  0  0  0
 39 41  1  0  0  0  0
 40 42  1  0  0  0  0
 40 43  1  0  0  0  0
 41 45  1  0  0  0  0
 42 47  1  0  0  0  0
 43 66  1  0  0  0  0
 44 47  1  0  0  0  0
 44 66  1  0  0  0  0
 45 69  1  0  0  0  0
 46 65  1  0  0  0  0
 47 64  1  0  0  0  0
 48 59  1  0  0  0  0
 49 60  1  0  0  0  0
 50 60  1  0  0  0  0
 51 60  1  0  0  0  0
 52 63  1  0  0  0  0
 53 72  1  0  0  0  0
 54 79  1  0  0  0  0
 55 56  1  0  0  0  0
 56 57  1  0  0  0  0
 57 71  1  0  0  0  0
 58 60  1  0  0  0  0
 58 70  1  0  0  0  0
 59 72  1  0  0  0  0
 61 64  1  0  0  0  0
 62 63  1  0  0  0  0
M  CHG  1  72   1
M  ISO  4  35 100  54 101  71 100  79 101
M  END
> <Batch ID>
0048

> <Smiles>
CNC(C)C(=O)NC(C(=O)N1Cc2cc([101O:1][101CH2:1]c3cc(CCC[100NH:0][100C:0](=O)N4CCCC(n5nc(-c6ccc(Oc7ccc(F)cc7F)cc6)c(C(N)=O)c5N)C4)n(C)n3)ccc2CC1C(=O)NC1CCCc2ccccc21)C(C)(C)C

> <Shape>
0.176

> <Color>
0.074

> <Negative vol penalty>
0.000

$$$$

  -OEChem-04052317263D

 81 89  0     1  0  0  0  0  0999 V2000
  -30.8174  -34.5871   20.8795 C   0  0  0  0  0  0  0  0  0  0  0  0
  -30.9881  -33.2082   20.8086 C   0  0  0  0  0  0  0  0  0  0  0  0
  -23.8050  -10.0258   22.3826 C   0  0  0  0  0  0  0  0  0  0  0  0
  -24.3508  -11.5914   24.1399 C   0  0  0  0  0  0  0  0  0  0  0  0
  -29.6830  -35.1173   21.4926 C   0  0  0  0  0  0  0  0  0  0  0  0
  -30.0250  -32.3587   21.3518 C   0  0  0  0  0  0  0  0  0  0  0  0
  -28.3235  -26.8777   19.2141 C   0  0  0  0  0  0  0  0  0  0  0  0
  -23.2818   -9.1453   23.3295 C   0  0  0  0  0  0  0  0  0  0  0  0
  -23.8275  -10.7110   25.0868 C   0  0  0  0  0  0  0  0  0  0  0  0
  -28.6784  -25.5787   19.5752 C   0  0  0  0  0  0  0  0  0  0  0  0
  -20.4328   -8.8190   25.1211 C   0  0  0  0  0  0  0  0  0  0  0  0
  -19.2062   -8.2177   24.8392 C   0  0  0  0  0  0  0  0  0  0  0  0
  -26.7185  -25.4389   20.9747 C   0  0  0  0  0  0  0  0  0  0  0  0
  -20.2447   -6.0399   24.9657 C   0  0  0  0  0  0  0  0  0  0  0  0
  -29.5190  -19.4031   20.3322 C   0  0  0  0  0  0  0  0  0  0  0  0
  -30.0404  -21.4103   22.0134 C   0  0  0  0  0  0  0  0  0  0  0  0
  -24.3396  -11.2488   22.7878 C   0  0  0  0  0  0  0  0  0  0  0  0
  -24.1913  -13.1735   21.1202 C   0  0  0  0  0  0  0  0  0  0  0  0
  -28.7008  -34.2737   22.0351 C   0  0  0  0  0  0  0  0  0  0  0  0
  -27.1674  -27.4720   19.7400 C   0  0  0  0  0  0  0  0  0  0  0  0
  -28.8770  -32.8781   21.9740 C   0  0  0  0  0  0  0  0  0  0  0  0
  -26.3499  -26.7446   20.6167 C   0  0  0  0  0  0  0  0  0  0  0  0
  -23.2930   -9.4879   24.6816 C   0  0  0  0  0  0  0  0  0  0  0  0
  -27.8774  -24.8601   20.4579 C   0  0  0  0  0  0  0  0  0  0  0  0
  -21.5654   -8.0307   25.3253 C   0  0  0  0  0  0  0  0  0  0  0  0
  -19.1121   -6.8282   24.7615 C   0  0  0  0  0  0  0  0  0  0  0  0
  -21.4713   -6.6412   25.2476 C   0  0  0  0  0  0  0  0  0  0  0  0
  -24.8807  -12.1585   21.8102 C   0  0  0  0  0  0  0  0  0  0  0  0
  -29.9530  -19.1599   21.6168 C   0  0  0  0  0  0  0  0  0  0  0  0
  -29.6072  -21.6536   20.7287 C   0  0  0  0  0  0  0  0  0  0  0  0
  -25.1432  -13.7481   20.3138 C   0  0  0  0  0  0  0  0  0  0  0  0
  -22.8136  -13.5624   21.2010 C   0  0  0  0  0  0  0  0  0  0  0  0
  -26.5789  -30.0155   21.5534 C   0  0  0  0  0  0  0  0  0  0  0  0
  -23.4868  -29.2616   20.9268 C   0  0  0  0  0  0  0  0  0  0  0  0
  -21.2063  -26.8796   20.0480 C   0  0  0  0  0  0  0  0  0  0  0  0
  -31.1084  -14.1187   20.6746 C   0  0  0  0  0  0  0  0  0  0  0  0
  -27.5145  -34.8938   22.7300 C   0  0  0  0  0  0  0  0  0  0  0  0
  -26.7842  -28.8645   19.3197 C   0  0  0  0  0  0  0  0  0  0  0  0
  -25.0876  -27.3298   21.1935 C   0  0  0  0  0  0  0  0  0  0  0  0
  -26.3593  -33.9201   22.9488 C   0  0  0  0  0  0  0  0  0  0  0  0
  -29.2075  -12.7260   18.0056 C   0  0  0  0  0  0  0  0  0  0  0  0
  -26.8743  -32.5981   23.5091 C   0  0  0  0  0  0  0  0  0  0  0  0
  -27.8209  -12.5142   18.6157 C   0  0  0  0  0  0  0  0  0  0  0  0
  -30.3174  -12.4547   19.0188 C   0  0  0  0  0  0  0  0  0  0  0  0
  -28.8110  -12.9916   20.8940 C   0  0  0  0  0  0  0  0  0  0  0  0
  -27.8425  -31.9236   22.5297 C   0  0  1  0  0  0  0  0  0  0  0  0
  -25.8596  -29.5564   20.3166 C   0  0  1  0  0  0  0  0  0  0  0  0
  -27.6578  -13.3075   19.9262 C   0  0  2  0  0  0  0  0  0  0  0  0
  -18.7494  -26.5550   19.6534 C   0  0  0  0  0  0  0  0  0  0  0  0
  -23.0036  -29.2759   23.9394 C   0  0  0  0  0  0  0  0  0  0  0  0
  -20.8613  -28.0461   23.5314 C   0  0  0  0  0  0  0  0  0  0  0  0
  -21.1848  -30.3318   22.5862 C   0  0  0  0  0  0  0  0  0  0  0  0
  -21.6447  -26.0947   17.2283 C   0  0  0  0  0  0  0  0  0  0  0  0
  -30.1414  -17.7642   22.0995 C   0  0  0  0  0  0  0  0  0  0  0  0
  -29.4168  -23.0602   20.2423 C   0  0  0  0  0  0  0  0  0  1  0  0
  -31.5535  -17.1898   21.8636 C   0  0  0  0  0  0  0  0  0  0  0  0
  -31.7544  -15.7761   22.4052 C   0  0  0  0  0  0  0  0  0  0  0  0
  -22.4464  -28.3850   21.5811 C   0  0  1  0  0  0  0  0  0  0  0  0
  -20.0913  -26.8840   19.0179 C   0  0  2  0  0  0  0  0  0  0  0  0
  -21.8988  -28.9991   22.9003 C   0  0  0  0  0  0  0  0  0  0  0  0
  -30.2212  -20.1591   22.4806 N   0  0  0  0  0  0  0  0  0  0  0  0
  -29.3387  -20.6543   19.8650 N   0  0  0  0  0  0  0  0  0  0  0  0
  -26.1709  -12.0895   21.4716 N   0  0  0  0  0  0  0  0  0  0  0  0
  -26.2998  -13.0684   20.5600 N   0  0  0  0  0  0  0  0  0  0  0  0
  -24.7589  -28.6970   20.7571 N   0  0  0  0  0  0  0  0  0  0  0  0
  -30.1045  -13.2387   20.2378 N   0  0  0  0  0  0  0  0  0  0  0  0
  -25.0954  -14.7632   19.4252 N   0  0  0  0  0  0  0  0  0  0  0  0
  -21.9735  -12.8665   22.0809 N   0  0  0  0  0  0  0  0  0  0  0  0
  -27.1120  -31.2865   21.4550 N   0  0  0  0  0  0  0  0  0  0  0  0
  -21.4258  -28.1375   20.5684 N   0  0  0  0  0  0  0  0  0  0  0  0
  -30.8234  -14.8280   21.8349 N   0  0  0  0  0  0  0  0  0  0  0  0
  -20.3660  -25.8783   17.9529 N   0  3  0  0  0  0  0  0  0  0  0  0
  -22.3379  -14.4884   20.5012 O   0  0  0  0  0  0  0  0  0  0  0  0
  -26.6441  -29.2722   22.5254 O   0  0  0  0  0  0  0  0  0  0  0  0
  -23.1801  -30.4027   20.5725 O   0  0  0  0  0  0  0  0  0  0  0  0
  -21.8187  -25.8614   20.3624 O   0  0  0  0  0  0  0  0  0  0  0  0
  -32.1772  -14.2656   20.0721 O   0  0  0  0  0  0  0  0  0  0  0  0
  -22.7823   -8.6292   25.6059 O   0  0  0  0  0  0  0  0  0  0  0  0
  -28.2217  -23.5922   20.8125 O   0  0  0  0  0  0  0  0  0  1  0  0
  -17.9338   -6.2509   24.4922 F   0  0  0  0  0  0  0  0  0  0  0  0
  -22.5556   -5.8787   25.4439 F   0  0  0  0  0  0  0  0  0  0  0  0
  1  2  1  0  0  0  0
  1  5  2  0  0  0  0
  2  6  2  0  0  0  0
  3  8  2  0  0  0  0
  3 17  1  0  0  0  0
  4  9  1  0  0  0  0
  4 17  2  0  0  0  0
  5 19  1  0  0  0  0
  6 21  1  0  0  0  0
  7 10  2  0  0  0  0
  7 20  1  0  0  0  0
  8 23  1  0  0  0  0
  9 23  2  0  0  0  0
 10 24  1  0  0  0  0
 11 12  2  0  0  0  0
 11 25  1  0  0  0  0
 12 26  1  0  0  0  0
 13 22  1  0  0  0  0
 13 24  2  0  0  0  0
 14 26  2  0  0  0  0
 14 27  1  0  0  0  0
 15 29  2  0  0  0  0
 15 62  1  0  0  0  0
 16 30  1  0  0  0  0
 16 61  2  0  0  0  0
 17 28  1  0  0  0  0
 18 28  1  0  0  0  0
 18 31  2  0  0  0  0
 18 32  1  0  0  0  0
 19 21  2  0  0  0  0
 19 37  1  0  0  0  0
 20 22  2  0  0  0  0
 20 38  1  0  0  0  0
 21 46  1  0  0  0  0
 22 39  1  0  0  0  0
 23 78  1  0  0  0  0
 24 79  1  0  0  0  0
 25 27  2  0  0  0  0
 25 78  1  0  0  0  0
 26 80  1  0  0  0  0
 27 81  1  0  0  0  0
 28 63  2  0  0  0  0
 29 54  1  0  0  0  0
 29 61  1  0  0  0  0
 30 55  1  0  0  0  0
 30 62  2  0  0  0  0
 31 64  1  0  0  0  0
 31 67  1  0  0  0  0
 32 68  1  0  0  0  0
 32 73  2  0  0  0  0
 33 47  1  0  0  0  0
 33 69  1  0  0  0  0
 33 74  2  0  0  0  0
 34 58  1  0  0  0  0
 34 65  1  0  0  0  0
 34 75  2  0  0  0  0
 35 59  1  0  0  0  0
 35 70  1  0  0  0  0
 35 76  2  0  0  0  0
 36 66  1  0  0  0  0
 36 71  1  0  0  0  0
 36 77  2  0  0  0  0
 37 40  1  0  0  0  0
 38 47  1  0  0  0  0
 39 65  1  0  0  0  0
 40 42  1  0  0  0  0
 41 43  1  0  0  0  0
 41 44  1  0  0  0  0
 42 46  1  0  0  0  0
 43 48  1  0  0  0  0
 44 66  1  0  0  0  0
 45 48  1  0  0  0  0
 45 66  1  0  0  0  0
 46 69  1  0  0  0  0
 47 65  1  0  0  0  0
 48 64  1  0  0  0  0
 49 59  1  0  0  0  0
 50 60  1  0  0  0  0
 51 60  1  0  0  0  0
 52 60  1  0  0  0  0
 53 72  1  0  0  0  0
 54 56  1  0  0  0  0
 55 79  1  0  0  0  0
 56 57  1  0  0  0  0
 57 71  1  0  0  0  0
 58 60  1  0  0  0  0
 58 70  1  0  0  0  0
 59 72  1  0  0  0  0
 63 64  1  0  0  0  0
M  CHG  1  72   1
M  ISO  4  36 100  55 101  71 100  79 101
M  END
> <Batch ID>
0048

> <Smiles>
CNC(C)C(=O)NC(C(=O)N1Cc2cc([101O:1][101CH2:1]c3cnc(CCC[100NH:0][100C:0](=O)N4CCCC(n5nc(-c6ccc(Oc7ccc(F)cc7F)cc6)c(C(N)=O)c5N)C4)cn3)ccc2CC1C(=O)NC1CCCc2ccccc21)C(C)(C)C

> <Shape>
0.299

> <Color>
0.150

> <Negative vol penalty>
0.000

$$$$

  -OEChem-04052317263D

 78 86  0     1  0  0  0  0  0999 V2000
  -29.7176  -35.7724   18.8426 C   0  0  0  0  0  0  0  0  0  0  0  0
  -29.9945  -34.4897   18.3807 C   0  0  0  0  0  0  0  0  0  0  0  0
  -24.5268   -9.4350   21.2575 C   0  0  0  0  0  0  0  0  0  0  0  0
  -24.9593  -10.4094   23.4256 C   0  0  0  0  0  0  0  0  0  0  0  0
  -29.0763  -35.9474   20.0682 C   0  0  0  0  0  0  0  0  0  0  0  0
  -29.6313  -33.3812   19.1447 C   0  0  0  0  0  0  0  0  0  0  0  0
  -27.4386  -26.5971   18.4482 C   0  0  0  0  0  0  0  0  0  0  0  0
  -24.3100   -8.1949   21.8580 C   0  0  0  0  0  0  0  0  0  0  0  0
  -24.7424   -9.1692   24.0262 C   0  0  0  0  0  0  0  0  0  0  0  0
  -27.7559  -25.3123   18.8868 C   0  0  0  0  0  0  0  0  0  0  0  0
  -21.8247   -6.6466   23.5489 C   0  0  0  0  0  0  0  0  0  0  0  0
  -20.7179   -5.9082   23.1301 C   0  0  0  0  0  0  0  0  0  0  0  0
  -26.5815  -25.7335   20.9514 C   0  0  0  0  0  0  0  0  0  0  0  0
  -22.1782   -4.1126   22.4369 C   0  0  0  0  0  0  0  0  0  0  0  0
  -28.0390  -20.2499   20.0807 C   0  0  0  0  0  0  0  0  0  0  0  0
  -24.8516  -10.5423   22.0413 C   0  0  0  0  0  0  0  0  0  0  0  0
  -24.1187  -12.8227   21.1636 C   0  0  0  0  0  0  0  0  0  0  0  0
  -28.6963  -34.8402   20.8431 C   0  0  0  0  0  0  0  0  0  0  0  0
  -26.6985  -27.4651   19.2638 C   0  0  0  0  0  0  0  0  0  0  0  0
  -28.9855  -33.5416   20.3824 C   0  0  0  0  0  0  0  0  0  0  0  0
  -26.2540  -27.0280   20.5198 C   0  0  0  0  0  0  0  0  0  0  0  0
  -24.4177   -8.0620   23.2424 C   0  0  0  0  0  0  0  0  0  0  0  0
  -27.3298  -24.8813   20.1397 C   0  0  0  0  0  0  0  0  0  0  0  0
  -23.1082   -6.1181   23.4117 C   0  0  0  0  0  0  0  0  0  0  0  0
  -20.8947   -4.6412   22.5741 C   0  0  0  0  0  0  0  0  0  0  0  0
  -23.2850   -4.8511   22.8558 C   0  0  0  0  0  0  0  0  0  0  0  0
  -25.0762  -11.8234   21.4214 C   0  0  0  0  0  0  0  0  0  0  0  0
  -28.6127  -21.4656   20.3251 C   0  0  0  0  0  0  0  0  0  0  0  0
  -24.8307  -13.8348   20.5676 C   0  0  0  0  0  0  0  0  0  0  0  0
  -29.4978  -19.9984   21.7267 C   0  0  0  0  0  0  0  0  0  0  0  0
  -22.7116  -12.8349   21.4383 C   0  0  0  0  0  0  0  0  0  0  0  0
  -27.2504  -30.2877   20.6173 C   0  0  0  0  0  0  0  0  0  0  0  0
  -29.3676  -17.1038   20.4276 C   0  0  0  0  0  0  0  0  0  0  0  0
  -24.1218  -30.0655   21.4446 C   0  0  0  0  0  0  0  0  0  0  0  0
  -21.4181  -28.0711   22.0442 C   0  0  0  0  0  0  0  0  0  0  0  0
  -28.0476  -35.0804   22.1833 C   0  0  0  0  0  0  0  0  0  0  0  0
  -26.3418  -28.8386   18.7652 C   0  0  0  0  0  0  0  0  0  0  0  0
  -25.4395  -27.9141   21.4253 C   0  0  0  0  0  0  0  0  0  0  0  0
  -27.3599  -33.8444   22.7574 C   0  0  0  0  0  0  0  0  0  0  0  0
  -29.5473  -13.9350   18.7644 C   0  0  0  0  0  0  0  0  0  0  0  0
  -28.2681  -32.6246   22.6386 C   0  0  0  0  0  0  0  0  0  0  0  0
  -28.3388  -13.1746   19.3091 C   0  0  0  0  0  0  0  0  0  0  0  0
  -30.1623  -14.8407   19.8267 C   0  0  0  0  0  0  0  0  0  0  0  0
  -27.9859  -15.0422   20.9862 C   0  0  0  0  0  0  0  0  0  0  0  0
  -28.5848  -32.3135   21.1708 C   0  0  1  0  0  0  0  0  0  0  0  0
  -26.0222  -29.8183   19.8901 C   0  0  1  0  0  0  0  0  0  0  0  0
  -27.3160  -14.1385   19.9360 C   0  0  2  0  0  0  0  0  0  0  0  0
  -30.3319  -19.4095   22.8039 C   0  0  0  0  0  0  0  0  0  0  0  0
  -19.0092  -28.1749   22.7396 C   0  0  0  0  0  0  0  0  0  0  0  0
  -24.9787  -30.5633   24.3304 C   0  0  0  0  0  0  0  0  0  0  0  0
  -22.7378  -29.7244   25.0672 C   0  0  0  0  0  0  0  0  0  0  0  0
  -22.8964  -31.7633   23.6388 C   0  0  0  0  0  0  0  0  0  0  0  0
  -20.5115  -26.8573   19.5019 C   0  0  0  0  0  0  0  0  0  0  0  0
  -28.4021  -22.8073   19.6873 C   0  0  0  0  0  0  0  0  0  1  0  0
  -28.2831  -17.9500   21.0454 C   0  0  0  0  0  0  0  0  0  0  0  0
  -23.3646  -29.4971   22.6205 C   0  0  1  0  0  0  0  0  0  0  0  0
  -19.9790  -28.1552   21.5684 C   0  0  2  0  0  0  0  0  0  0  0  0
  -23.5114  -30.3708   23.8982 C   0  0  0  0  0  0  0  0  0  0  0  0
  -26.3029  -12.1693   21.0218 N   0  0  0  0  0  0  0  0  0  0  0  0
  -28.6056  -19.3607   20.9619 N   0  0  0  0  0  0  0  0  0  0  0  0
  -26.1210  -13.3972   20.5068 N   0  0  0  0  0  0  0  0  0  0  0  0
  -29.5110  -21.2806   21.3483 N   0  3  0  0  0  0  0  0  0  0  0  0
  -25.1216  -29.2504   20.8954 N   0  0  0  0  0  0  0  0  0  0  0  0
  -29.1543  -15.7253   20.4137 N   0  0  0  0  0  0  0  0  0  0  0  0
  -24.4725  -15.0475   20.0949 N   0  0  0  0  0  0  0  0  0  0  0  0
  -22.1415  -11.7130   22.0554 N   0  0  0  0  0  0  0  0  0  0  0  0
  -27.4628  -31.6510   20.5410 N   0  0  0  0  0  0  0  0  0  0  0  0
  -21.9875  -29.3203   22.1724 N   0  0  0  0  0  0  0  0  0  0  0  0
  -19.6497  -26.9860   20.7051 N   0  3  0  0  0  0  0  0  0  0  0  0
  -21.9784  -13.8050   21.1304 O   0  0  0  0  0  0  0  0  0  0  0  0
  -27.9525  -29.4736   21.2054 O   0  0  0  0  0  0  0  0  0  0  0  0
  -30.3723  -17.6537   19.9688 O   0  0  0  0  0  0  0  0  0  0  0  0
  -23.8317  -31.1884   21.0243 O   0  0  0  0  0  0  0  0  0  0  0  0
  -21.9797  -27.0041   22.2822 O   0  0  0  0  0  0  0  0  0  0  0  0
  -24.2060   -6.8521   23.8288 O   0  0  0  0  0  0  0  0  0  0  0  0
  -27.6386  -23.6279   20.5705 O   0  0  0  0  0  0  0  0  0  1  0  0
  -19.8317   -3.9316   22.1734 F   0  0  0  0  0  0  0  0  0  0  0  0
  -24.5156   -4.3375   22.7225 F   0  0  0  0  0  0  0  0  0  0  0  0
  1  2  1  0  0  0  0
  1  5  2  0  0  0  0
  2  6  2  0  0  0  0
  3  8  2  0  0  0  0
  3 16  1  0  0  0  0
  4  9  1  0  0  0  0
  4 16  2  0  0  0  0
  5 18  1  0  0  0  0
  6 20  1  0  0  0  0
  7 10  2  0  0  0  0
  7 19  1  0  0  0  0
  8 22  1  0  0  0  0
  9 22  2  0  0  0  0
 10 23  1  0  0  0  0
 11 12  2  0  0  0  0
 11 24  1  0  0  0  0
 12 25  1  0  0  0  0
 13 21  1  0  0  0  0
 13 23  2  0  0  0  0
 14 25  2  0  0  0  0
 14 26  1  0  0  0  0
 15 28  2  0  0  0  0
 15 60  1  0  0  0  0
 16 27  1  0  0  0  0
 17 27  1  0  0  0  0
 17 29  2  0  0  0  0
 17 31  1  0  0  0  0
 18 20  2  0  0  0  0
 18 36  1  0  0  0  0
 19 21  2  0  0  0  0
 19 37  1  0  0  0  0
 20 45  1  0  0  0  0
 21 38  1  0  0  0  0
 22 75  1  0  0  0  0
 23 76  1  0  0  0  0
 24 26  2  0  0  0  0
 24 75  1  0  0  0  0
 25 77  1  0  0  0  0
 26 78  1  0  0  0  0
 27 59  2  0  0  0  0
 28 54  1  0  0  0  0
 28 62  1  0  0  0  0
 29 61  1  0  0  0  0
 29 65  1  0  0  0  0
 30 48  1  0  0  0  0
 30 60  1  0  0  0  0
 30 62  2  0  0  0  0
 31 66  1  0  0  0  0
 31 70  2  0  0  0  0
 32 46  1  0  0  0  0
 32 67  1  0  0  0  0
 32 71  2  0  0  0  0
 33 55  1  0  0  0  0
 33 64  1  0  0  0  0
 33 72  2  0  0  0  0
 34 56  1  0  0  0  0
 34 63  1  0  0  0  0
 34 73  2  0  0  0  0
 35 57  1  0  0  0  0
 35 68  1  0  0  0  0
 35 74  2  0  0  0  0
 36 39  1  0  0  0  0
 37 46  1  0  0  0  0
 38 63  1  0  0  0  0
 39 41  1  0  0  0  0
 40 42  1  0  0  0  0
 40 43  1  0  0  0  0
 41 45  1  0  0  0  0
 42 47  1  0  0  0  0
 43 64  1  0  0  0  0
 44 47  1  0  0  0  0
 44 64  1  0  0  0  0
 45 67  1  0  0  0  0
 46 63  1  0  0  0  0
 47 61  1  0  0  0  0
 49 57  1  0  0  0  0
 50 58  1  0  0  0  0
 51 58  1  0  0  0  0
 52 58  1  0  0  0  0
 53 69  1  0  0  0  0
 54 76  1  0  0  0  0
 55 60  1  0  0  0  0
 56 58  1  0  0  0  0
 56 68  1  0  0  0  0
 57 69  1  0  0  0  0
 59 61  1  0  0  0  0
M  CHG  2  62   1  69   1
M  ISO  4  33 100  54 101  55 100  76 101
M  END
> <Batch ID>
0048

> <Smiles>
CNC(C)C(=O)NC(C(=O)N1Cc2cc([101O:1][101CH2:1]c3cn([100CH2:0][100C:0](=O)N4CCCC(n5nc(-c6ccc(Oc7ccc(F)cc7F)cc6)c(C(N)=O)c5N)C4)c(C)n3)ccc2CC1C(=O)NC1CCCc2ccccc21)C(C)(C)C

> <Shape>
0.305

> <Color>
0.127

> <Negative vol penalty>
0.000

$$$$

  -OEChem-04052317263D

 82 90  0     1  0  0  0  0  0999 V2000
  -19.3299  -33.6722   21.5872 C   0  0  0  0  0  0  0  0  0  0  0  0
  -20.6292  -33.3400   21.2171 C   0  0  0  0  0  0  0  0  0  0  0  0
  -26.9556  -12.6859   21.6745 C   0  0  0  0  0  0  0  0  0  0  0  0
  -26.2174  -14.2386   19.9770 C   0  0  0  0  0  0  0  0  0  0  0  0
  -18.6667  -32.9165   22.5531 C   0  0  0  0  0  0  0  0  0  0  0  0
  -21.2665  -32.2526   21.8135 C   0  0  0  0  0  0  0  0  0  0  0  0
  -25.2436  -28.4152   19.1747 C   0  0  0  0  0  0  0  0  0  0  0  0
  -26.1077  -11.7101   21.1507 C   0  0  0  0  0  0  0  0  0  0  0  0
  -25.3695  -13.2628   19.4532 C   0  0  0  0  0  0  0  0  0  0  0  0
  -26.6365  -28.3556   19.1839 C   0  0  0  0  0  0  0  0  0  0  0  0
  -23.8702   -8.9234   20.4788 C   0  0  0  0  0  0  0  0  0  0  0  0
  -23.1029   -8.1797   21.3753 C   0  0  0  0  0  0  0  0  0  0  0  0
  -26.5496  -26.7437   20.9766 C   0  0  0  0  0  0  0  0  0  0  0  0
  -22.0461  -10.2081   22.1535 C   0  0  0  0  0  0  0  0  0  0  0  0
  -30.1465  -23.1869   18.4956 C   0  0  0  0  0  0  0  0  0  0  0  0
  -27.0105  -13.9502   21.0877 C   0  0  0  0  0  0  0  0  0  0  0  0
  -29.2248  -15.2036   21.2699 C   0  0  0  0  0  0  0  0  0  0  0  0
  -19.2927  -31.8133   23.1547 C   0  0  0  0  0  0  0  0  0  0  0  0
  -24.4923  -27.6465   20.0753 C   0  0  0  0  0  0  0  0  0  0  0  0
  -20.6115  -31.4822   22.7893 C   0  0  0  0  0  0  0  0  0  0  0  0
  -25.1472  -26.7935   20.9751 C   0  0  0  0  0  0  0  0  0  0  0  0
  -25.3147  -11.9985   20.0400 C   0  0  0  0  0  0  0  0  0  0  0  0
  -27.2898  -27.5219   20.0868 C   0  0  0  0  0  0  0  0  0  0  0  0
  -23.7254  -10.3096   20.4196 C   0  0  0  0  0  0  0  0  0  0  0  0
  -22.1908   -8.8220   22.2127 C   0  0  0  0  0  0  0  0  0  0  0  0
  -22.8134  -10.9519   21.2570 C   0  0  0  0  0  0  0  0  0  0  0  0
  -27.8857  -14.9588   21.6287 C   0  0  0  0  0  0  0  0  0  0  0  0
  -29.6065  -16.2561   22.0655 C   0  0  0  0  0  0  0  0  0  0  0  0
  -30.1937  -22.4868   20.5490 C   0  0  0  0  0  0  0  0  0  0  0  0
  -30.0499  -14.5390   20.3039 C   0  0  0  0  0  0  0  0  0  0  0  0
  -22.4529  -28.2996   22.4243 C   0  0  0  0  0  0  0  0  0  0  0  0
  -22.0677  -25.0790   22.4600 C   0  0  0  0  0  0  0  0  0  0  0  0
  -23.3533  -21.9993   21.7462 C   0  0  0  0  0  0  0  0  0  0  0  0
  -27.4777  -21.1264   24.3596 C   0  0  0  0  0  0  0  0  0  0  0  0
  -18.5527  -31.0551   24.2281 C   0  0  0  0  0  0  0  0  0  0  0  0
  -22.9897  -27.7020   20.0346 C   0  0  0  0  0  0  0  0  0  0  0  0
  -24.3862  -25.9326   21.9488 C   0  0  0  0  0  0  0  0  0  0  0  0
  -19.1628  -29.6912   24.5410 C   0  0  0  0  0  0  0  0  0  0  0  0
  -27.9673  -18.1886   26.3106 C   0  0  0  0  0  0  0  0  0  0  0  0
  -20.6760  -29.8059   24.6950 C   0  0  0  0  0  0  0  0  0  0  0  0
  -28.1206  -17.0790   25.2688 C   0  0  0  0  0  0  0  0  0  0  0  0
  -26.9477  -19.2375   25.8720 C   0  0  0  0  0  0  0  0  0  0  0  0
  -27.3460  -18.7106   23.4977 C   0  0  0  0  0  0  0  0  0  0  0  0
  -21.3273  -30.2947   23.3956 C   0  0  1  0  0  0  0  0  0  0  0  0
  -22.3399  -27.2625   21.3430 C   0  0  1  0  0  0  0  0  0  0  0  0
  -28.4048  -17.6586   23.8700 C   0  0  2  0  0  0  0  0  0  0  0  0
  -22.8218  -19.5532   21.9245 C   0  0  0  0  0  0  0  0  0  0  0  0
  -22.6962  -25.1624   25.4447 C   0  0  0  0  0  0  0  0  0  0  0  0
  -23.0863  -22.6908   25.3607 C   0  0  0  0  0  0  0  0  0  0  0  0
  -20.8352  -23.6157   24.8133 C   0  0  0  0  0  0  0  0  0  0  0  0
  -23.4700  -21.6414   18.8107 C   0  0  0  0  0  0  0  0  0  0  0  0
  -30.4656  -22.4498   21.9971 C   0  0  0  0  0  0  0  0  0  0  0  0
  -29.5037  -23.2968   22.8667 C   0  0  0  0  0  0  0  0  0  0  0  0
  -30.5703  -26.0629   19.7701 C   0  0  0  0  0  0  0  0  0  0  0  0
  -31.3091  -24.7746   20.1394 C   0  0  0  0  0  0  0  0  0  0  0  0
  -28.0331  -22.9096   22.7253 C   0  0  0  0  0  0  0  0  0  0  0  0
  -29.2418  -26.2275   20.4991 C   0  0  0  0  0  0  0  0  0  1  0  0
  -22.7359  -23.9302   23.1762 C   0  0  1  0  0  0  0  0  0  0  0  0
  -22.7510  -20.7936   21.0475 C   0  0  2  0  0  0  0  0  0  0  0  0
  -22.3531  -23.8673   24.6818 C   0  0  0  0  0  0  0  0  0  0  0  0
  -29.5413  -22.0212   18.5291 N   0  0  0  0  0  0  0  0  0  0  0  0
  -27.4464  -15.7890   22.5784 N   0  0  0  0  0  0  0  0  0  0  0  0
  -29.5714  -21.5757   19.8356 N   0  0  0  0  0  0  0  0  0  0  0  0
  -30.5732  -23.5189   19.7456 N   0  0  0  0  0  0  0  0  0  0  0  0
  -28.5155  -16.5656   22.8231 N   0  0  0  0  0  0  0  0  0  0  0  0
  -22.9188  -26.0268   21.8744 N   0  0  0  0  0  0  0  0  0  0  0  0
  -27.2753  -19.7480   24.5386 N   0  0  0  0  0  0  0  0  0  0  0  0
  -30.7657  -16.9379   22.1839 N   0  0  0  0  0  0  0  0  0  0  0  0
  -29.4998  -13.4772   19.5729 N   0  0  0  0  0  0  0  0  0  0  0  0
  -21.4168  -29.2139   22.4374 N   0  0  0  0  0  0  0  0  0  0  0  0
  -22.3977  -22.7275   22.4229 N   0  0  0  0  0  0  0  0  0  0  0  0
  -27.7906  -21.5254   23.0659 N   0  0  0  0  0  0  0  0  0  0  0  0
  -23.4792  -20.5136   19.7777 N   0  3  0  0  0  0  0  0  0  0  0  0
  -31.2447  -14.8661   20.1066 O   0  0  0  0  0  0  0  0  0  0  0  0
  -23.4085  -28.2716   23.1910 O   0  0  0  0  0  0  0  0  0  0  0  0
  -20.8360  -25.1295   22.4156 O   0  0  0  0  0  0  0  0  0  0  0  0
  -24.5521  -22.2661   21.6997 O   0  0  0  0  0  0  0  0  0  0  0  0
  -27.3915  -21.9405   25.2852 O   0  0  0  0  0  0  0  0  0  0  0  0
  -24.4873  -11.0465   19.5285 O   0  0  0  0  0  0  0  0  0  0  0  0
  -28.6493  -27.4623   20.0984 O   0  0  0  0  0  0  0  0  0  1  0  0
  -21.4530   -8.1075   23.0725 F   0  0  0  0  0  0  0  0  0  0  0  0
  -22.6690  -12.2831   21.2039 F   0  0  0  0  0  0  0  0  0  0  0  0
  1  2  1  0  0  0  0
  1  5  2  0  0  0  0
  2  6  2  0  0  0  0
  3  8  2  0  0  0  0
  3 16  1  0  0  0  0
  4  9  1  0  0  0  0
  4 16  2  0  0  0  0
  5 18  1  0  0  0  0
  6 20  1  0  0  0  0
  7 10  2  0  0  0  0
  7 19  1  0  0  0  0
  8 22  1  0  0  0  0
  9 22  2  0  0  0  0
 10 23  1  0  0  0  0
 11 12  2  0  0  0  0
 11 24  1  0  0  0  0
 12 25  1  0  0  0  0
 13 21  1  0  0  0  0
 13 23  2  0  0  0  0
 14 25  2  0  0  0  0
 14 26  1  0  0  0  0
 15 61  2  0  0  0  0
 15 64  1  0  0  0  0
 16 27  1  0  0  0  0
 17 27  1  0  0  0  0
 17 28  2  0  0  0  0
 17 30  1  0  0  0  0
 18 20  2  0  0  0  0
 18 35  1  0  0  0  0
 19 21  2  0  0  0  0
 19 36  1  0  0  0  0
 20 44  1  0  0  0  0
 21 37  1  0  0  0  0
 22 79  1  0  0  0  0
 23 80  1  0  0  0  0
 24 26  2  0  0  0  0
 24 79  1  0  0  0  0
 25 81  1  0  0  0  0
 26 82  1  0  0  0  0
 27 62  2  0  0  0  0
 28 65  1  0  0  0  0
 28 68  1  0  0  0  0
 29 52  1  0  0  0  0
 29 63  2  0  0  0  0
 29 64  1  0  0  0  0
 30 69  1  0  0  0  0
 30 74  2  0  0  0  0
 31 45  1  0  0  0  0
 31 70  1  0  0  0  0
 31 75  2  0  0  0  0
 32 58  1  0  0  0  0
 32 66  1  0  0  0  0
 32 76  2  0  0  0  0
 33 59  1  0  0  0  0
 33 71  1  0  0  0  0
 33 77  2  0  0  0  0
 34 67  1  0  0  0  0
 34 72  1  0  0  0  0
 34 78  2  0  0  0  0
 35 38  1  0  0  0  0
 36 45  1  0  0  0  0
 37 66  1  0  0  0  0
 38 40  1  0  0  0  0
 39 41  1  0  0  0  0
 39 42  1  0  0  0  0
 40 44  1  0  0  0  0
 41 46  1  0  0  0  0
 42 67  1  0  0  0  0
 43 46  1  0  0  0  0
 43 67  1  0  0  0  0
 44 70  1  0  0  0  0
 45 66  1  0  0  0  0
 46 65  1  0  0  0  0
 47 59  1  0  0  0  0
 48 60  1  0  0  0  0
 49 60  1  0  0  0  0
 50 60  1  0  0  0  0
 51 73  1  0  0  0  0
 52 53  1  0  0  0  0
 53 56  1  0  0  0  0
 54 55  1  0  0  0  0
 54 57  1  0  0  0  0
 55 64  1  0  0  0  0
 56 72  1  0  0  0  0
 57 80  1  0  0  0  0
 58 60  1  0  0  0  0
 58 71  1  0  0  0  0
 59 73  1  0  0  0  0
 61 63  1  0  0  0  0
 62 65  1  0  0  0  0
M  CHG  1  73   1
M  ISO  4  34 100  57 101  72 100  80 101
M  END
> <Batch ID>
0048

> <Smiles>
CNC(C)C(=O)NC(C(=O)N1Cc2cc([101O:1][101CH2:1]CCn3cnnc3CCC[100NH:0][100C:0](=O)N3CCCC(n4nc(-c5ccc(Oc6ccc(F)cc6F)cc5)c(C(N)=O)c4N)C3)ccc2CC1C(=O)NC1CCCc2ccccc21)C(C)(C)C

> <Shape>
0.220

> <Color>
0.106

> <Negative vol penalty>
0.000

$$$$

  -OEChem-04052317263D

 82 90  0     1  0  0  0  0  0999 V2000
  -20.1682  -14.4393   15.5846 C   0  0  0  0  0  0  0  0  0  0  0  0
  -19.9649  -15.7256   16.0741 C   0  0  0  0  0  0  0  0  0  0  0  0
  -29.0901  -17.6891   19.2781 C   0  0  0  0  0  0  0  0  0  0  0  0
  -30.3816  -18.1375   21.2701 C   0  0  0  0  0  0  0  0  0  0  0  0
  -21.4644  -13.9756   15.3637 C   0  0  0  0  0  0  0  0  0  0  0  0
  -21.0578  -16.5485   16.3440 C   0  0  0  0  0  0  0  0  0  0  0  0
  -23.0171  -23.4382   16.2476 C   0  0  0  0  0  0  0  0  0  0  0  0
  -29.6240  -16.4017   19.2216 C   0  0  0  0  0  0  0  0  0  0  0  0
  -30.9155  -16.8501   21.2137 C   0  0  0  0  0  0  0  0  0  0  0  0
  -23.5884  -24.4071   17.0713 C   0  0  0  0  0  0  0  0  0  0  0  0
  -30.3723  -12.8745   18.7588 C   0  0  0  0  0  0  0  0  0  0  0  0
  -29.4961  -11.8196   18.5039 C   0  0  0  0  0  0  0  0  0  0  0  0
  -25.7794  -23.5274   16.5763 C   0  0  0  0  0  0  0  0  0  0  0  0
  -28.2499  -12.3728   20.4985 C   0  0  0  0  0  0  0  0  0  0  0  0
  -25.7675  -28.5923   19.2780 C   0  0  0  0  0  0  0  0  0  0  0  0
  -29.4689  -18.5570   20.3023 C   0  0  0  0  0  0  0  0  0  0  0  0
  -27.7474  -20.2939   21.0285 C   0  0  0  0  0  0  0  0  0  0  0  0
  -22.5734  -14.7966   15.6219 C   0  0  0  0  0  0  0  0  0  0  0  0
  -23.8231  -22.4982   15.5895 C   0  0  0  0  0  0  0  0  0  0  0  0
  -22.3701  -16.0948   16.1276 C   0  0  0  0  0  0  0  0  0  0  0  0
  -25.2160  -22.5492   15.7428 C   0  0  0  0  0  0  0  0  0  0  0  0
  -30.5367  -15.9822   20.1894 C   0  0  0  0  0  0  0  0  0  0  0  0
  -24.9695  -24.4500   17.2381 C   0  0  0  0  0  0  0  0  0  0  0  0
  -30.1874  -13.6786   19.8836 C   0  0  0  0  0  0  0  0  0  0  0  0
  -28.4349  -11.5688   19.3737 C   0  0  0  0  0  0  0  0  0  0  0  0
  -29.1262  -13.4277   20.7534 C   0  0  0  0  0  0  0  0  0  0  0  0
  -28.9181  -19.8871   20.3608 C   0  0  0  0  0  0  0  0  0  0  0  0
  -25.4471  -27.2821   19.4960 C   0  0  0  0  0  0  0  0  0  0  0  0
  -27.6621  -21.6423   20.7813 C   0  0  0  0  0  0  0  0  0  0  0  0
  -26.6759  -27.9779   21.2009 C   0  0  0  0  0  0  0  0  0  0  0  0
  -26.8201  -19.5219   21.8029 C   0  0  0  0  0  0  0  0  0  0  0  0
  -24.0898  -19.3315   15.6597 C   0  0  0  0  0  0  0  0  0  0  0  0
  -26.1549  -19.8409   13.2106 C   0  0  0  0  0  0  0  0  0  0  0  0
  -28.2821  -21.9772   11.6112 C   0  0  0  0  0  0  0  0  0  0  0  0
  -30.0281  -26.6841   20.4247 C   0  0  0  0  0  0  0  0  0  0  0  0
  -23.9572  -14.2346   15.4122 C   0  0  0  0  0  0  0  0  0  0  0  0
  -23.1934  -21.4761   14.6833 C   0  0  0  0  0  0  0  0  0  0  0  0
  -26.1270  -21.5755   15.0425 C   0  0  0  0  0  0  0  0  0  0  0  0
  -25.0479  -15.3017   15.3692 C   0  0  0  0  0  0  0  0  0  0  0  0
  -30.2477  -24.5706   17.5679 C   0  0  0  0  0  0  0  0  0  0  0  0
  -24.8713  -16.2921   16.5159 C   0  0  0  0  0  0  0  0  0  0  0  0
  -29.8310  -23.1968   18.0963 C   0  0  0  0  0  0  0  0  0  0  0  0
  -31.0520  -25.3534   18.6034 C   0  0  0  0  0  0  0  0  0  0  0  0
  -29.9838  -24.1162   20.4479 C   0  0  0  0  0  0  0  0  0  0  0  0
  -23.5292  -17.0261   16.4091 C   0  0  1  0  0  0  0  0  0  0  0  0
  -24.0709  -20.2468   14.4683 C   0  0  1  0  0  0  0  0  0  0  0  0
  -29.1225  -23.3117   19.4594 C   0  0  2  0  0  0  0  0  0  0  0  0
  -29.8556  -22.0965    9.6601 C   0  0  0  0  0  0  0  0  0  0  0  0
  -25.9878  -31.3893   20.6456 C   0  0  0  0  0  0  0  0  0  0  0  0
  -28.0871  -30.6754   19.4251 C   0  0  0  0  0  0  0  0  0  0  0  0
  -28.2144  -18.2225   14.7757 C   0  0  0  0  0  0  0  0  0  0  0  0
  -29.9875  -19.1620   13.2785 C   0  0  0  0  0  0  0  0  0  0  0  0
  -28.1661  -17.7528   12.3197 C   0  0  0  0  0  0  0  0  0  0  0  0
  -26.7208  -24.1440   10.3360 C   0  0  0  0  0  0  0  0  0  0  0  0
  -24.6431  -26.3097   18.6841 C   0  0  0  0  0  0  0  0  0  1  0  0
  -27.4245  -27.9885   22.4825 C   0  0  0  0  0  0  0  0  0  0  0  0
  -28.9474  -27.8773   22.3135 C   0  0  0  0  0  0  0  0  0  0  0  0
  -27.6380  -20.0994   13.0989 C   0  0  1  0  0  0  0  0  0  0  0  0
  -28.4341  -22.3367   10.1442 C   0  0  2  0  0  0  0  0  0  0  0  0
  -27.0808  -30.3257   20.5231 C   0  0  0  0  0  0  0  0  0  0  0  0
  -28.4845  -18.8265   13.3831 C   0  0  0  0  0  0  0  0  0  0  0  0
  -29.5323  -20.8955   19.7362 N   0  0  0  0  0  0  0  0  0  0  0  0
  -26.5276  -28.9973   20.3486 N   0  0  0  0  0  0  0  0  0  0  0  0
  -28.7444  -21.9492   20.0104 N   0  0  0  0  0  0  0  0  0  0  0  0
  -26.0224  -26.9281   20.6926 N   0  3  0  0  0  0  0  0  0  0  0  0
  -25.4631  -20.5910   14.1721 N   0  0  0  0  0  0  0  0  0  0  0  0
  -30.3240  -25.4269   19.8725 N   0  0  0  0  0  0  0  0  0  0  0  0
  -26.7674  -22.5834   21.1504 N   0  0  0  0  0  0  0  0  0  0  0  0
  -27.0581  -18.1493   21.9567 N   0  0  0  0  0  0  0  0  0  0  0  0
  -23.5999  -18.0650   15.4041 N   0  0  0  0  0  0  0  0  0  0  0  0
  -27.8533  -20.6772   11.7768 N   0  0  0  0  0  0  0  0  0  0  0  0
  -29.3300  -26.6642   21.6260 N   0  0  0  0  0  0  0  0  0  0  0  0
  -28.0993  -23.7722    9.9253 N   0  3  0  0  0  0  0  0  0  0  0  0
  -25.8015  -20.0310   22.3290 O   0  0  0  0  0  0  0  0  0  0  0  0
  -24.5186  -19.7434   16.7313 O   0  0  0  0  0  0  0  0  0  0  0  0
  -25.6283  -19.0094   12.4670 O   0  0  0  0  0  0  0  0  0  0  0  0
  -28.5234  -22.7692   12.5196 O   0  0  0  0  0  0  0  0  0  0  0  0
  -30.3567  -27.7457   19.8844 O   0  0  0  0  0  0  0  0  0  0  0  0
  -31.0578  -14.7260   20.1348 O   0  0  0  0  0  0  0  0  0  0  0  0
  -25.5297  -25.3943   18.0421 O   0  0  0  0  0  0  0  0  0  1  0  0
  -27.5926  -10.5567   19.1280 F   0  0  0  0  0  0  0  0  0  0  0  0
  -28.9428  -14.1974   21.8349 F   0  0  0  0  0  0  0  0  0  0  0  0
  1  2  1  0  0  0  0
  1  5  2  0  0  0  0
  2  6  2  0  0  0  0
  3  8  2  0  0  0  0
  3 16  1  0  0  0  0
  4  9  1  0  0  0  0
  4 16  2  0  0  0  0
  5 18  1  0  0  0  0
  6 20  1  0  0  0  0
  7 10  2  0  0  0  0
  7 19  1  0  0  0  0
  8 22  1  0  0  0  0
  9 22  2  0  0  0  0
 10 23  1  0  0  0  0
 11 12  2  0  0  0  0
 11 24  1  0  0  0  0
 12 25  1  0  0  0  0
 13 21  1  0  0  0  0
 13 23  2  0  0  0  0
 14 25  2  0  0  0  0
 14 26  1  0  0  0  0
 15 28  2  0  0  0  0
 15 63  1  0  0  0  0
 16 27  1  0  0  0  0
 17 27  1  0  0  0  0
 17 29  2  0  0  0  0
 17 31  1  0  0  0  0
 18 20  2  0  0  0  0
 18 36  1  0  0  0  0
 19 21  2  0  0  0  0
 19 37  1  0  0  0  0
 20 45  1  0  0  0  0
 21 38  1  0  0  0  0
 22 79  1  0  0  0  0
 23 80  1  0  0  0  0
 24 26  2  0  0  0  0
 24 79  1  0  0  0  0
 25 81  1  0  0  0  0
 26 82  1  0  0  0  0
 27 62  2  0  0  0  0
 28 55  1  0  0  0  0
 28 65  1  0  0  0  0
 29 64  1  0  0  0  0
 29 68  1  0  0  0  0
 30 56  1  0  0  0  0
 30 63  1  0  0  0  0
 30 65  2  0  0  0  0
 31 69  1  0  0  0  0
 31 74  2  0  0  0  0
 32 46  1  0  0  0  0
 32 70  1  0  0  0  0
 32 75  2  0  0  0  0
 33 58  1  0  0  0  0
 33 66  1  0  0  0  0
 33 76  2  0  0  0  0
 34 59  1  0  0  0  0
 34 71  1  0  0  0  0
 34 77  2  0  0  0  0
 35 67  1  0  0  0  0
 35 72  1  0  0  0  0
 35 78  2  0  0  0  0
 36 39  1  0  0  0  0
 37 46  1  0  0  0  0
 38 66  1  0  0  0  0
 39 41  1  0  0  0  0
 40 42  1  0  0  0  0
 40 43  1  0  0  0  0
 41 45  1  0  0  0  0
 42 47  1  0  0  0  0
 43 67  1  0  0  0  0
 44 47  1  0  0  0  0
 44 67  1  0  0  0  0
 45 70  1  0  0  0  0
 46 66  1  0  0  0  0
 47 64  1  0  0  0  0
 48 59  1  0  0  0  0
 49 60  1  0  0  0  0
 50 60  1  0  0  0  0
 51 61  1  0  0  0  0
 52 61  1  0  0  0  0
 53 61  1  0  0  0  0
 54 73  1  0  0  0  0
 55 80  1  0  0  0  0
 56 57  1  0  0  0  0
 57 72  1  0  0  0  0
 58 61  1  0  0  0  0
 58 71  1  0  0  0  0
 59 73  1  0  0  0  0
 60 63  1  0  0  0  0
 62 64  1  0  0  0  0
M  CHG  2  65   1  73   1
M  ISO  4  35 100  55 101  72 100  80 101
M  END
> <Batch ID>
0048

> <Smiles>
CNC(C)C(=O)NC(C(=O)N1Cc2cc([101O:1][101CH2:1]c3cn(C(C)C)c(CC[100NH:0][100C:0](=O)N4CCCC(n5nc(-c6ccc(Oc7ccc(F)cc7F)cc6)c(C(N)=O)c5N)C4)n3)ccc2CC1C(=O)NC1CCCc2ccccc21)C(C)(C)C

> <Shape>
0.199

> <Color>
0.059

> <Negative vol penalty>
0.000

$$$$

  -OEChem-04052317263D

 84 92  0     1  0  0  0  0  0999 V2000
  -29.5185  -26.1033   32.2004 C   0  0  0  0  0  0  0  0  0  0  0  0
  -28.8794  -24.8930   31.9509 C   0  0  0  0  0  0  0  0  0  0  0  0
  -23.1853   -9.8176   19.9329 C   0  0  0  0  0  0  0  0  0  0  0  0
  -23.5631   -9.9999   22.3122 C   0  0  0  0  0  0  0  0  0  0  0  0
  -29.8685  -26.9372   31.1393 C   0  0  0  0  0  0  0  0  0  0  0  0
  -28.5888  -24.5166   30.6401 C   0  0  0  0  0  0  0  0  0  0  0  0
  -28.6288  -18.8386   28.3456 C   0  0  0  0  0  0  0  0  0  0  0  0
  -22.4171   -8.6724   20.1425 C   0  0  0  0  0  0  0  0  0  0  0  0
  -22.7948   -8.8547   22.5219 C   0  0  0  0  0  0  0  0  0  0  0  0
  -27.6108  -17.9169   28.1052 C   0  0  0  0  0  0  0  0  0  0  0  0
  -23.1906   -5.5071   22.2614 C   0  0  0  0  0  0  0  0  0  0  0  0
  -23.6871   -4.5459   23.1418 C   0  0  0  0  0  0  0  0  0  0  0  0
  -27.4988  -18.6485   25.8092 C   0  0  0  0  0  0  0  0  0  0  0  0
  -21.7305   -4.8105   24.5342 C   0  0  0  0  0  0  0  0  0  0  0  0
  -23.7583  -10.4814   21.0177 C   0  0  0  0  0  0  0  0  0  0  0  0
  -24.1012  -12.9972   20.7714 C   0  0  0  0  0  0  0  0  0  0  0  0
  -29.5907  -26.5664   29.8142 C   0  0  0  0  0  0  0  0  0  0  0  0
  -29.0827  -19.6811   27.3207 C   0  0  0  0  0  0  0  0  0  0  0  0
  -28.9341  -25.3470   29.5603 C   0  0  0  0  0  0  0  0  0  0  0  0
  -28.5245  -19.5783   26.0386 C   0  0  0  0  0  0  0  0  0  0  0  0
  -22.2218   -8.1910   21.4370 C   0  0  0  0  0  0  0  0  0  0  0  0
  -27.0436  -17.8237   26.8376 C   0  0  0  0  0  0  0  0  0  0  0  0
  -21.9640   -6.1201   22.5175 C   0  0  0  0  0  0  0  0  0  0  0  0
  -22.9571   -4.1976   24.2782 C   0  0  0  0  0  0  0  0  0  0  0  0
  -21.2340   -5.7718   23.6538 C   0  0  0  0  0  0  0  0  0  0  0  0
  -24.5524  -11.6641   20.8017 C   0  0  0  0  0  0  0  0  0  0  0  0
  -25.2336  -13.7378   20.5357 C   0  0  0  0  0  0  0  0  0  0  0  0
  -27.3903  -13.8542   23.6840 C   0  0  0  0  0  0  0  0  0  0  0  0
  -26.1645  -14.3919   25.2613 C   0  0  0  0  0  0  0  0  0  0  0  0
  -22.7767  -13.5194   20.9412 C   0  0  0  0  0  0  0  0  0  0  0  0
  -29.1495  -22.8265   26.8670 C   0  0  0  0  0  0  0  0  0  0  0  0
  -30.8450  -22.0168   24.2228 C   0  0  0  0  0  0  0  0  0  0  0  0
  -31.6031  -19.6563   21.8776 C   0  0  0  0  0  0  0  0  0  0  0  0
  -31.0731  -12.1986   21.5698 C   0  0  0  0  0  0  0  0  0  0  0  0
  -29.9456  -27.5225   28.7031 C   0  0  0  0  0  0  0  0  0  0  0  0
  -30.2001  -20.6516   27.5894 C   0  0  0  0  0  0  0  0  0  0  0  0
  -28.9902  -20.4459   24.8989 C   0  0  0  0  0  0  0  0  0  0  0  0
  -29.9385  -26.8780   27.3193 C   0  0  0  0  0  0  0  0  0  0  0  0
  -29.5286  -13.4751   18.4575 C   0  0  0  0  0  0  0  0  0  0  0  0
  -28.6815  -26.0350   27.1295 C   0  0  0  0  0  0  0  0  0  0  0  0
  -28.0435  -13.1977   18.6845 C   0  0  0  0  0  0  0  0  0  0  0  0
  -30.4121  -12.4841   19.2091 C   0  0  0  0  0  0  0  0  0  0  0  0
  -28.6378  -12.1269   20.8938 C   0  0  0  0  0  0  0  0  0  0  0  0
  -28.6242  -24.8923   28.1506 C   0  0  1  0  0  0  0  0  0  0  0  0
  -30.2300  -21.8160   26.6042 C   0  0  1  0  0  0  0  0  0  0  0  0
  -27.7204  -13.1365   20.1876 C   0  0  2  0  0  0  0  0  0  0  0  0
  -32.9941  -19.2997   19.8196 C   0  0  0  0  0  0  0  0  0  0  0  0
  -30.1306  -15.0268   22.3582 C   0  0  0  0  0  0  0  0  0  0  0  0
  -28.8565  -23.6632   22.5964 C   0  0  0  0  0  0  0  0  0  0  0  0
  -29.7011  -22.5191   20.5359 C   0  0  0  0  0  0  0  0  0  0  0  0
  -31.2442  -23.9261   21.9004 C   0  0  0  0  0  0  0  0  0  0  0  0
  -31.9267  -12.5728   23.8526 C   0  0  0  0  0  0  0  0  0  0  0  0
  -33.1323  -17.4650   23.1499 C   0  0  0  0  0  0  0  0  0  0  0  0
  -28.4501  -13.1856   22.9209 C   0  0  0  0  0  0  0  0  0  0  0  0
  -26.0605  -15.7253   27.3725 C   0  0  0  0  0  0  0  0  0  1  0  0
  -30.4990  -21.6808   22.7923 C   0  0  1  0  0  0  0  0  0  0  0  0
  -32.9334  -19.1678   21.3334 C   0  0  2  0  0  0  0  0  0  0  0  0
  -29.8751  -13.7567   23.1635 C   0  0  1  0  0  0  0  0  0  0  0  0
  -25.4211  -14.6082   26.5561 C   0  0  0  0  0  0  0  0  0  0  0  0
  -30.0649  -22.9322   21.9780 C   0  0  0  0  0  0  0  0  0  0  0  0
  -25.8689  -11.5607   20.6011 N   0  0  0  0  0  0  0  0  0  0  0  0
  -27.1722  -13.5962   25.0061 N   0  0  0  0  0  0  0  0  0  0  0  0
  -26.5772  -14.7561   23.1263 N   0  0  0  0  0  0  0  0  0  0  0  0
  -26.2546  -12.8382   20.4424 N   0  0  0  0  0  0  0  0  0  0  0  0
  -30.0809  -21.3835   25.2132 N   0  0  0  0  0  0  0  0  0  0  0  0
  -30.0551  -12.4140   20.6264 N   0  0  0  0  0  0  0  0  0  0  0  0
  -25.4457  -15.0642   20.4011 N   0  0  0  0  0  0  0  0  0  0  0  0
  -21.7285  -12.6191   21.1759 N   0  0  0  0  0  0  0  0  0  0  0  0
  -29.5118  -23.8187   27.7579 N   0  0  0  0  0  0  0  0  0  0  0  0
  -31.6581  -20.9842   22.2448 N   0  0  0  0  0  0  0  0  0  0  0  0
  -30.8935  -12.7588   22.8437 N   0  0  0  0  0  0  0  0  0  0  0  0
  -33.1444  -17.7361   21.6893 N   0  3  0  0  0  0  0  0  0  0  0  0
  -22.5275  -14.7468   20.8702 O   0  0  0  0  0  0  0  0  0  0  0  0
  -28.0677  -22.7152   26.3021 O   0  0  0  0  0  0  0  0  0  0  0  0
  -31.7643  -22.8064   24.4532 O   0  0  0  0  0  0  0  0  0  0  0  0
  -30.6130  -18.9332   21.9644 O   0  0  0  0  0  0  0  0  0  0  0  0
  -32.0892  -11.5511   21.2866 O   0  0  0  0  0  0  0  0  0  0  0  0
  -25.7466  -15.1208   24.1934 O   0  0  0  0  0  0  0  0  0  0  0  0
  -21.4721   -7.0737   21.6420 O   0  0  0  0  0  0  0  0  0  0  0  0
  -26.0493  -16.9253   26.6004 O   0  0  0  0  0  0  0  0  0  1  0  0
  -23.4333   -3.2734   25.1228 F   0  0  0  0  0  0  0  0  0  0  0  0
  -20.0545   -6.3564   23.9045 F   0  0  0  0  0  0  0  0  0  0  0  0
  -24.1106  -14.9312   26.3495 F   0  0  0  0  0  0  0  0  0  0  0  0
  -25.3936  -13.4821   27.3278 F   0  0  0  0  0  0  0  0  0  0  0  0
  1  2  1  0  0  0  0
  1  5  2  0  0  0  0
  2  6  2  0  0  0  0
  3  8  2  0  0  0  0
  3 15  1  0  0  0  0
  4  9  1  0  0  0  0
  4 15  2  0  0  0  0
  5 17  1  0  0  0  0
  6 19  1  0  0  0  0
  7 10  2  0  0  0  0
  7 18  1  0  0  0  0
  8 21  1  0  0  0  0
  9 21  2  0  0  0  0
 10 22  1  0  0  0  0
 11 12  2  0  0  0  0
 11 23  1  0  0  0  0
 12 24  1  0  0  0  0
 13 20  1  0  0  0  0
 13 22  2  0  0  0  0
 14 24  2  0  0  0  0
 14 25  1  0  0  0  0
 15 26  1  0  0  0  0
 16 26  1  0  0  0  0
 16 27  2  0  0  0  0
 16 30  1  0  0  0  0
 17 19  2  0  0  0  0
 17 35  1  0  0  0  0
 18 20  2  0  0  0  0
 18 36  1  0  0  0  0
 19 44  1  0  0  0  0
 20 37  1  0  0  0  0
 21 79  1  0  0  0  0
 22 80  1  0  0  0  0
 23 25  2  0  0  0  0
 23 79  1  0  0  0  0
 24 81  1  0  0  0  0
 25 82  1  0  0  0  0
 26 61  2  0  0  0  0
 27 64  1  0  0  0  0
 27 67  1  0  0  0  0
 28 54  1  0  0  0  0
 28 62  1  0  0  0  0
 28 63  2  0  0  0  0
 29 59  1  0  0  0  0
 29 62  2  0  0  0  0
 29 78  1  0  0  0  0
 30 68  1  0  0  0  0
 30 73  2  0  0  0  0
 31 45  1  0  0  0  0
 31 69  1  0  0  0  0
 31 74  2  0  0  0  0
 32 56  1  0  0  0  0
 32 65  1  0  0  0  0
 32 75  2  0  0  0  0
 33 57  1  0  0  0  0
 33 70  1  0  0  0  0
 33 76  2  0  0  0  0
 34 66  1  0  0  0  0
 34 71  1  0  0  0  0
 34 77  2  0  0  0  0
 35 38  1  0  0  0  0
 36 45  1  0  0  0  0
 37 65  1  0  0  0  0
 38 40  1  0  0  0  0
 39 41  1  0  0  0  0
 39 42  1  0  0  0  0
 40 44  1  0  0  0  0
 41 46  1  0  0  0  0
 42 66  1  0  0  0  0
 43 46  1  0  0  0  0
 43 66  1  0  0  0  0
 44 69  1  0  0  0  0
 45 65  1  0  0  0  0
 46 64  1  0  0  0  0
 47 57  1  0  0  0  0
 48 58  1  0  0  0  0
 49 60  1  0  0  0  0
 50 60  1  0  0  0  0
 51 60  1  0  0  0  0
 52 71  1  0  0  0  0
 53 72  1  0  0  0  0
 54 58  1  0  0  0  0
 55 59  1  0  0  0  0
 55 80  1  0  0  0  0
 56 60  1  0  0  0  0
 56 70  1  0  0  0  0
 57 72  1  0  0  0  0
 58 71  1  0  0  0  0
 59 83  1  0  0  0  0
 59 84  1  0  0  0  0
 61 64  1  0  0  0  0
 63 78  1  0  0  0  0
M  CHG  1  72   1
M  ISO  4  34 100  55 101  71 100  80 101
M  END
> <Batch ID>
0048

> <Smiles>
CNC(C)C(=O)NC(C(=O)N1Cc2cc([101O:1][101CH2:1]C(F)(F)c3nc(CC(C)[100N:0](C)[100C:0](=O)N4CCCC(n5nc(-c6ccc(Oc7ccc(F)cc7F)cc6)c(C(N)=O)c5N)C4)no3)ccc2CC1C(=O)NC1CCCc2ccccc21)C(C)(C)C

> <Shape>
0.164

> <Color>
0.186

> <Negative vol penalty>
0.000

$$$$

  -OEChem-04052317263D

 87 95  0     1  0  0  0  0  0999 V2000
  -22.9594  -24.0147   18.0989 C   0  0  0  0  0  0  0  0  0  0  0  0
  -23.9126  -23.0062   18.0130 C   0  0  0  0  0  0  0  0  0  0  0  0
  -19.6056  -28.4421   21.5400 C   0  0  0  0  0  0  0  0  0  0  0  0
  -20.6934  -26.9032   23.0518 C   0  0  0  0  0  0  0  0  0  0  0  0
  -21.9144  -23.9047   19.0138 C   0  0  0  0  0  0  0  0  0  0  0  0
  -23.8145  -21.8820   18.8336 C   0  0  0  0  0  0  0  0  0  0  0  0
  -26.9863  -18.2168   17.9913 C   0  0  0  0  0  0  0  0  0  0  0  0
  -18.3625  -27.9351   21.9182 C   0  0  0  0  0  0  0  0  0  0  0  0
  -19.4502  -26.3962   23.4301 C   0  0  0  0  0  0  0  0  0  0  0  0
  -28.3411  -18.3047   18.3083 C   0  0  0  0  0  0  0  0  0  0  0  0
  -17.1512  -24.2516   22.1866 C   0  0  0  0  0  0  0  0  0  0  0  0
  -17.0142  -22.8659   22.2685 C   0  0  0  0  0  0  0  0  0  0  0  0
  -31.8189  -25.2206   21.4528 C   0  0  0  0  0  0  0  0  0  0  0  0
  -27.9720  -16.9148   20.2451 C   0  0  0  0  0  0  0  0  0  0  0  0
  -16.4468  -23.0603   24.6088 C   0  0  0  0  0  0  0  0  0  0  0  0
  -31.6179  -26.4040   20.7851 C   0  0  0  0  0  0  0  0  0  0  0  0
  -20.7711  -27.9261   22.1068 C   0  0  0  0  0  0  0  0  0  0  0  0
  -22.7523  -29.5208   22.3059 C   0  0  0  0  0  0  0  0  0  0  0  0
  -21.8112  -22.7840   19.8543 C   0  0  0  0  0  0  0  0  0  0  0  0
  -26.1107  -17.4849   18.8063 C   0  0  0  0  0  0  0  0  0  0  0  0
  -22.7538  -21.7413   19.7466 C   0  0  0  0  0  0  0  0  0  0  0  0
  -26.6069  -16.8170   19.9348 C   0  0  0  0  0  0  0  0  0  0  0  0
  -18.2847  -26.9121   22.8633 C   0  0  0  0  0  0  0  0  0  0  0  0
  -28.8336  -17.6560   19.4370 C   0  0  0  0  0  0  0  0  0  0  0  0
  -16.9361  -25.0416   23.3159 C   0  0  0  0  0  0  0  0  0  0  0  0
  -16.6619  -22.2702   23.4796 C   0  0  0  0  0  0  0  0  0  0  0  0
  -16.5839  -24.4460   24.5270 C   0  0  0  0  0  0  0  0  0  0  0  0
  -22.0556  -28.4491   21.7160 C   0  0  0  0  0  0  0  0  0  0  0  0
  -31.3732  -24.2308   20.5565 C   0  0  0  0  0  0  0  0  0  0  0  0
  -23.9110  -29.6207   21.5753 C   0  0  0  0  0  0  0  0  0  0  0  0
  -22.3849  -30.3516   23.4152 C   0  0  0  0  0  0  0  0  0  0  0  0
  -23.5477  -18.1930   20.5479 C   0  0  0  0  0  0  0  0  0  0  0  0
  -28.2689  -27.1865   19.2598 C   0  0  0  0  0  0  0  0  0  0  0  0
  -23.4097  -14.9764   20.9440 C   0  0  0  0  0  0  0  0  0  0  0  0
  -25.0535  -11.9856   20.9557 C   0  0  0  0  0  0  0  0  0  0  0  0
  -20.6555  -22.7126   20.8210 C   0  0  0  0  0  0  0  0  0  0  0  0
  -24.6568  -17.3778   18.4358 C   0  0  0  0  0  0  0  0  0  0  0  0
  -25.7122  -16.0018   20.8311 C   0  0  0  0  0  0  0  0  0  0  0  0
  -20.8825  -21.7080   21.9460 C   0  0  0  0  0  0  0  0  0  0  0  0
  -25.2680  -27.4492   17.2222 C   0  0  0  0  0  0  0  0  0  0  0  0
  -21.3376  -20.3758   21.3692 C   0  0  0  0  0  0  0  0  0  0  0  0
  -24.2138  -27.7936   18.2735 C   0  0  0  0  0  0  0  0  0  0  0  0
  -26.3233  -26.4959   17.7768 C   0  0  0  0  0  0  0  0  0  0  0  0
  -25.9368  -27.3361   20.0722 C   0  0  0  0  0  0  0  0  0  0  0  0
  -22.6846  -20.5235   20.6503 C   0  0  1  0  0  0  0  0  0  0  0  0
  -23.7621  -17.0297   19.6214 C   0  0  1  0  0  0  0  0  0  0  0  0
  -24.8705  -28.3198   19.5617 C   0  0  2  0  0  0  0  0  0  0  0  0
  -24.6826   -9.5354   21.3512 C   0  0  0  0  0  0  0  0  0  0  0  0
  -32.9204  -21.1042   22.8650 C   0  0  0  0  0  0  0  0  0  0  0  0
  -23.3359  -15.4757   23.9532 C   0  0  0  0  0  0  0  0  0  0  0  0
  -23.9212  -13.0659   24.2970 C   0  0  0  0  0  0  0  0  0  0  0  0
  -21.7897  -13.6793   23.1556 C   0  0  0  0  0  0  0  0  0  0  0  0
  -30.9465  -28.4647   18.8632 C   0  0  0  0  0  0  0  0  0  0  0  0
  -31.5567  -26.6658   17.2698 C   0  0  0  0  0  0  0  0  0  0  0  0
  -25.8606  -11.2990   18.1924 C   0  0  0  0  0  0  0  0  0  0  0  0
  -33.1763  -22.0239   19.2246 C   0  0  0  0  0  0  0  0  0  0  0  0
  -31.3606  -22.7455   20.7684 C   0  0  0  0  0  0  0  0  0  0  0  0
  -29.2059  -26.7946   18.1452 C   0  0  0  0  0  0  0  0  0  0  0  0
  -31.7679  -18.4771   21.3935 C   0  0  0  0  0  0  0  0  0  0  0  0
  -31.5859  -19.9609   21.0476 C   0  0  0  0  0  0  0  0  0  0  0  0
  -30.5025  -17.6677   21.1313 C   0  0  0  0  0  0  0  0  0  1  0  0
  -23.9830  -13.9961   21.9387 C   0  0  1  0  0  0  0  0  0  0  0  0
  -24.7189  -10.6498   20.3169 C   0  0  2  0  0  0  0  0  0  0  0  0
  -32.8153  -20.8170   21.3729 C   0  0  1  0  0  0  0  0  0  0  0  0
  -23.2742  -14.0711   23.3205 C   0  0  0  0  0  0  0  0  0  0  0  0
  -30.7017  -26.9738   18.5236 C   0  0  0  0  0  0  0  0  0  0  0  0
  -22.7164  -27.9071   20.6896 N   0  0  0  0  0  0  0  0  0  0  0  0
  -30.9229  -24.7408   19.4071 N   0  0  0  0  0  0  0  0  0  0  0  0
  -31.0845  -26.0642   19.5767 N   0  0  0  0  0  0  0  0  0  0  0  0
  -23.8405  -28.6412   20.6288 N   0  0  0  0  0  0  0  0  0  0  0  0
  -24.2972  -15.9326   20.4303 N   0  0  0  0  0  0  0  0  0  0  0  0
  -26.9050  -27.0202   19.0182 N   0  0  0  0  0  0  0  0  0  0  0  0
  -24.9731  -30.4500   21.6564 N   0  0  0  0  0  0  0  0  0  0  0  0
  -21.1596  -30.1124   24.0521 N   0  0  0  0  0  0  0  0  0  0  0  0
  -22.9788  -19.2971   19.9424 N   0  0  0  0  0  0  0  0  0  0  0  0
  -23.9169  -12.6844   21.3036 N   0  0  0  0  0  0  0  0  0  0  0  0
  -25.7354  -10.3000   19.2848 N   0  3  0  0  0  0  0  0  0  0  0  0
  -32.7281  -22.1220   20.6599 N   0  3  1  0  0  0  0  0  0  0  0  0
  -23.1140  -31.2891   23.8189 O   0  0  0  0  0  0  0  0  0  0  0  0
  -23.8727  -18.0954   21.7254 O   0  0  0  0  0  0  0  0  0  0  0  0
  -28.7370  -27.6294   20.3119 O   0  0  0  0  0  0  0  0  0  0  0  0
  -22.2201  -14.8921   20.6288 O   0  0  0  0  0  0  0  0  0  0  0  0
  -26.2078  -12.3691   21.1321 O   0  0  0  0  0  0  0  0  0  0  0  0
  -17.0718  -26.4172   23.2328 O   0  0  0  0  0  0  0  0  0  0  0  0
  -30.1555  -17.7407   19.7490 O   0  0  0  0  0  0  0  0  0  1  0  0
  -16.5289  -20.9397   23.5576 F   0  0  0  0  0  0  0  0  0  0  0  0
  -16.3748  -25.1999   25.6150 F   0  0  0  0  0  0  0  0  0  0  0  0
  1  2  1  0  0  0  0
  1  5  2  0  0  0  0
  2  6  2  0  0  0  0
  3  8  2  0  0  0  0
  3 17  1  0  0  0  0
  4  9  1  0  0  0  0
  4 17  2  0  0  0  0
  5 19  1  0  0  0  0
  6 21  1  0  0  0  0
  7 10  2  0  0  0  0
  7 20  1  0  0  0  0
  8 23  1  0  0  0  0
  9 23  2  0  0  0  0
 10 24  1  0  0  0  0
 11 12  2  0  0  0  0
 11 25  1  0  0  0  0
 12 26  1  0  0  0  0
 13 16  2  0  0  0  0
 13 29  1  0  0  0  0
 14 22  1  0  0  0  0
 14 24  2  0  0  0  0
 15 26  2  0  0  0  0
 15 27  1  0  0  0  0
 16 69  1  0  0  0  0
 17 28  1  0  0  0  0
 18 28  1  0  0  0  0
 18 30  2  0  0  0  0
 18 31  1  0  0  0  0
 19 21  2  0  0  0  0
 19 36  1  0  0  0  0
 20 22  2  0  0  0  0
 20 37  1  0  0  0  0
 21 45  1  0  0  0  0
 22 38  1  0  0  0  0
 23 84  1  0  0  0  0
 24 85  1  0  0  0  0
 25 27  2  0  0  0  0
 25 84  1  0  0  0  0
 26 86  1  0  0  0  0
 27 87  1  0  0  0  0
 28 67  2  0  0  0  0
 29 57  1  0  0  0  0
 29 68  2  0  0  0  0
 30 70  1  0  0  0  0
 30 73  1  0  0  0  0
 31 74  1  0  0  0  0
 31 79  2  0  0  0  0
 32 46  1  0  0  0  0
 32 75  1  0  0  0  0
 32 80  2  0  0  0  0
 33 58  1  0  0  0  0
 33 72  1  0  0  0  0
 33 81  2  0  0  0  0
 34 62  1  0  0  0  0
 34 71  1  0  0  0  0
 34 82  2  0  0  0  0
 35 63  1  0  0  0  0
 35 76  1  0  0  0  0
 35 83  2  0  0  0  0
 36 39  1  0  0  0  0
 37 46  1  0  0  0  0
 38 71  1  0  0  0  0
 39 41  1  0  0  0  0
 40 42  1  0  0  0  0
 40 43  1  0  0  0  0
 41 45  1  0  0  0  0
 42 47  1  0  0  0  0
 43 72  1  0  0  0  0
 44 47  1  0  0  0  0
 44 72  1  0  0  0  0
 45 75  1  0  0  0  0
 46 71  1  0  0  0  0
 47 70  1  0  0  0  0
 48 63  1  0  0  0  0
 49 64  1  0  0  0  0
 50 65  1  0  0  0  0
 51 65  1  0  0  0  0
 52 65  1  0  0  0  0
 53 66  1  0  0  0  0
 54 66  1  0  0  0  0
 55 77  1  0  0  0  0
 56 78  1  0  0  0  0
 57 78  1  0  0  0  0
 58 66  1  0  0  0  0
 59 60  1  0  0  0  0
 59 61  1  0  0  0  0
 60 64  1  0  0  0  0
 61 85  1  0  0  0  0
 62 65  1  0  0  0  0
 62 76  1  0  0  0  0
 63 77  1  0  0  0  0
 64 78  1  0  0  0  0
 66 69  1  0  0  0  0
 67 70  1  0  0  0  0
 68 69  1  0  0  0  0
M  CHG  2  77   1  78   1
M  ISO  4  33 100  58 100  61 101  85 101
M  END
> <Batch ID>
0048

> <Smiles>
CNC(C)C(=O)NC(C(=O)N1Cc2cc([101O:1][101CH2:1]CCC(C)N(C)Cc3ccn(C(C)(C)[100CH2:0][100C:0](=O)N4CCCC(n5nc(-c6ccc(Oc7ccc(F)cc7F)cc6)c(C(N)=O)c5N)C4)n3)ccc2CC1C(=O)NC1CCCc2ccccc21)C(C)(C)C

> <Shape>
0.218

> <Color>
0.090

> <Negative vol penalty>
0.000

$$$$

  -OEChem-04052317263D

 80 88  0     1  0  0  0  0  0999 V2000
  -26.9681  -32.9395   17.6702 C   0  0  0  0  0  0  0  0  0  0  0  0
  -27.5152  -31.7935   18.2382 C   0  0  0  0  0  0  0  0  0  0  0  0
  -23.0361   -9.9008   19.9650 C   0  0  0  0  0  0  0  0  0  0  0  0
  -23.7758   -9.9399   22.2646 C   0  0  0  0  0  0  0  0  0  0  0  0
  -26.1366  -32.8350   16.5558 C   0  0  0  0  0  0  0  0  0  0  0  0
  -27.2303  -30.5421   17.6929 C   0  0  0  0  0  0  0  0  0  0  0  0
  -30.9867  -25.7144   17.3948 C   0  0  0  0  0  0  0  0  0  0  0  0
  -22.2905   -8.7508   20.2243 C   0  0  0  0  0  0  0  0  0  0  0  0
  -23.0302   -8.7899   22.5240 C   0  0  0  0  0  0  0  0  0  0  0  0
  -31.1138  -24.5745   18.1874 C   0  0  0  0  0  0  0  0  0  0  0  0
  -23.3274   -5.4607   22.0153 C   0  0  0  0  0  0  0  0  0  0  0  0
  -23.9370   -4.4457   22.7527 C   0  0  0  0  0  0  0  0  0  0  0  0
  -29.7177  -23.3536   16.6449 C   0  0  0  0  0  0  0  0  0  0  0  0
  -22.2206   -4.6420   24.4417 C   0  0  0  0  0  0  0  0  0  0  0  0
  -29.3397  -18.7091   20.8371 C   0  0  0  0  0  0  0  0  0  0  0  0
  -23.7788  -10.4953   20.9851 C   0  0  0  0  0  0  0  0  0  0  0  0
  -24.1206  -13.0187   20.8331 C   0  0  0  0  0  0  0  0  0  0  0  0
  -25.8492  -31.5826   15.9907 C   0  0  0  0  0  0  0  0  0  0  0  0
  -30.2139  -25.6854   16.2251 C   0  0  0  0  0  0  0  0  0  0  0  0
  -26.3932  -30.4207   16.5708 C   0  0  0  0  0  0  0  0  0  0  0  0
  -29.5844  -24.4938   15.8379 C   0  0  0  0  0  0  0  0  0  0  0  0
  -22.2876   -8.1954   21.5038 C   0  0  0  0  0  0  0  0  0  0  0  0
  -30.4769  -23.3947   17.8141 C   0  0  0  0  0  0  0  0  0  0  0  0
  -22.1644   -6.0664   22.4911 C   0  0  0  0  0  0  0  0  0  0  0  0
  -23.3836   -4.0364   23.9659 C   0  0  0  0  0  0  0  0  0  0  0  0
  -21.6110   -5.6571   23.7043 C   0  0  0  0  0  0  0  0  0  0  0  0
  -24.5496  -11.6829   20.7176 C   0  0  0  0  0  0  0  0  0  0  0  0
  -30.5452  -18.0463   20.9070 C   0  0  0  0  0  0  0  0  0  0  0  0
  -31.3562  -19.3424   19.2062 C   0  0  0  0  0  0  0  0  0  0  0  0
  -30.1503  -20.0045   19.1359 C   0  0  0  0  0  0  0  0  0  0  0  0
  -25.2156  -13.7637   20.4691 C   0  0  0  0  0  0  0  0  0  0  0  0
  -22.8463  -13.5396   21.2337 C   0  0  0  0  0  0  0  0  0  0  0  0
  -27.6082  -27.2032   15.2199 C   0  0  0  0  0  0  0  0  0  0  0  0
  -28.2455  -25.6473   12.4459 C   0  0  0  0  0  0  0  0  0  0  0  0
  -29.7278  -22.9999   10.8835 C   0  0  0  0  0  0  0  0  0  0  0  0
  -30.6971  -14.7882   20.6914 C   0  0  0  0  0  0  0  0  0  0  0  0
  -24.9071  -31.5157   14.8148 C   0  0  0  0  0  0  0  0  0  0  0  0
  -30.1086  -26.9162   15.3669 C   0  0  0  0  0  0  0  0  0  0  0  0
  -28.7599  -24.4048   14.5806 C   0  0  0  0  0  0  0  0  0  0  0  0
  -24.9559  -30.1840   14.0702 C   0  0  0  0  0  0  0  0  0  0  0  0
  -29.5814  -12.3702   18.3280 C   0  0  0  0  0  0  0  0  0  0  0  0
  -24.9147  -29.0199   15.0550 C   0  0  0  0  0  0  0  0  0  0  0  0
  -28.1404  -12.0818   18.7523 C   0  0  0  0  0  0  0  0  0  0  0  0
  -30.4879  -12.6082   19.5337 C   0  0  0  0  0  0  0  0  0  0  0  0
  -28.5738  -13.3573   20.8933 C   0  0  0  0  0  0  0  0  0  0  0  0
  -26.1276  -29.0475   15.9929 C   0  0  1  0  0  0  0  0  0  0  0  0
  -28.8762  -26.9140   14.4676 C   0  0  1  0  0  0  0  0  0  0  0  0
  -27.6101  -13.1659   19.7097 C   0  0  2  0  0  0  0  0  0  0  0  0
  -32.4875  -19.6898   18.3001 C   0  0  0  0  0  0  0  0  0  0  0  0
  -30.0439  -21.9770    8.6139 C   0  0  0  0  0  0  0  0  0  0  0  0
  -25.3827  -24.5948   12.5242 C   0  0  0  0  0  0  0  0  0  0  0  0
  -26.0406  -22.8799   10.8229 C   0  0  0  0  0  0  0  0  0  0  0  0
  -26.1709  -25.3066   10.2600 C   0  0  0  0  0  0  0  0  0  0  0  0
  -32.6689  -23.2940   11.0328 C   0  0  0  0  0  0  0  0  0  0  0  0
  -30.7512  -16.9557   21.8989 C   0  0  0  0  0  0  0  0  0  0  0  0
  -29.9194  -21.1064   18.1440 C   0  0  0  0  0  0  0  0  0  1  0  0
  -27.8605  -24.3120   11.8563 C   0  0  1  0  0  0  0  0  0  0  0  0
  -30.6179  -22.9241    9.6561 C   0  0  2  0  0  0  0  0  0  0  0  0
  -26.3776  -24.2752   11.3906 C   0  0  0  0  0  0  0  0  0  0  0  0
  -29.1205  -19.7001   19.9503 N   0  0  0  0  0  0  0  0  0  0  0  0
  -25.8181  -11.5820   20.3118 N   0  0  0  0  0  0  0  0  0  0  0  0
  -31.5752  -18.3511   20.0928 N   0  0  0  0  0  0  0  0  0  0  0  0
  -26.1956  -12.8638   20.1690 N   0  0  0  0  0  0  0  0  0  0  0  0
  -28.6819  -25.6367   13.7783 N   0  0  0  0  0  0  0  0  0  0  0  0
  -29.9292  -13.6485   20.4005 N   0  0  0  0  0  0  0  0  0  0  0  0
  -25.4261  -15.0941   20.3795 N   0  0  0  0  0  0  0  0  0  0  0  0
  -21.8319  -12.6347   21.5747 N   0  0  0  0  0  0  0  0  0  0  0  0
  -27.3035  -28.5478   15.3132 N   0  0  0  0  0  0  0  0  0  0  0  0
  -28.8263  -24.0397   10.7972 N   0  0  0  0  0  0  0  0  0  0  0  0
  -30.0902  -15.7282   21.5152 N   0  0  0  0  0  0  0  0  0  0  0  0
  -31.9774  -22.4423   10.0311 N   0  3  0  0  0  0  0  0  0  0  0  0
  -22.6091  -14.7708   21.2719 O   0  0  0  0  0  0  0  0  0  0  0  0
  -26.9537  -26.2751   15.6804 O   0  0  0  0  0  0  0  0  0  0  0  0
  -28.1690  -26.6614   11.7477 O   0  0  0  0  0  0  0  0  0  0  0  0
  -29.8203  -22.2130   11.8230 O   0  0  0  0  0  0  0  0  0  0  0  0
  -31.8369  -14.9579   20.2453 O   0  0  0  0  0  0  0  0  0  0  0  0
  -21.5600   -7.0734   21.7574 O   0  0  0  0  0  0  0  0  0  0  0  0
  -30.5988  -22.2808   18.5862 O   0  0  0  0  0  0  0  0  0  1  0  0
  -23.9683   -3.0607   24.6732 F   0  0  0  0  0  0  0  0  0  0  0  0
  -20.4933   -6.2344   24.1659 F   0  0  0  0  0  0  0  0  0  0  0  0
  1  2  1  0  0  0  0
  1  5  2  0  0  0  0
  2  6  2  0  0  0  0
  3  8  2  0  0  0  0
  3 16  1  0  0  0  0
  4  9  1  0  0  0  0
  4 16  2  0  0  0  0
  5 18  1  0  0  0  0
  6 20  1  0  0  0  0
  7 10  2  0  0  0  0
  7 19  1  0  0  0  0
  8 22  1  0  0  0  0
  9 22  2  0  0  0  0
 10 23  1  0  0  0  0
 11 12  2  0  0  0  0
 11 24  1  0  0  0  0
 12 25  1  0  0  0  0
 13 21  1  0  0  0  0
 13 23  2  0  0  0  0
 14 25  2  0  0  0  0
 14 26  1  0  0  0  0
 15 28  1  0  0  0  0
 15 60  2  0  0  0  0
 16 27  1  0  0  0  0
 17 27  1  0  0  0  0
 17 31  2  0  0  0  0
 17 32  1  0  0  0  0
 18 20  2  0  0  0  0
 18 37  1  0  0  0  0
 19 21  2  0  0  0  0
 19 38  1  0  0  0  0
 20 46  1  0  0  0  0
 21 39  1  0  0  0  0
 22 77  1  0  0  0  0
 23 78  1  0  0  0  0
 24 26  2  0  0  0  0
 24 77  1  0  0  0  0
 25 79  1  0  0  0  0
 26 80  1  0  0  0  0
 27 61  2  0  0  0  0
 28 55  1  0  0  0  0
 28 62  2  0  0  0  0
 29 30  2  0  0  0  0
 29 49  1  0  0  0  0
 29 62  1  0  0  0  0
 30 56  1  0  0  0  0
 30 60  1  0  0  0  0
 31 63  1  0  0  0  0
 31 66  1  0  0  0  0
 32 67  1  0  0  0  0
 32 72  2  0  0  0  0
 33 47  1  0  0  0  0
 33 68  1  0  0  0  0
 33 73  2  0  0  0  0
 34 57  1  0  0  0  0
 34 64  1  0  0  0  0
 34 74  2  0  0  0  0
 35 58  1  0  0  0  0
 35 69  1  0  0  0  0
 35 75  2  0  0  0  0
 36 65  1  0  0  0  0
 36 70  1  0  0  0  0
 36 76  2  0  0  0  0
 37 40  1  0  0  0  0
 38 47  1  0  0  0  0
 39 64  1  0  0  0  0
 40 42  1  0  0  0  0
 41 43  1  0  0  0  0
 41 44  1  0  0  0  0
 42 46  1  0  0  0  0
 43 48  1  0  0  0  0
 44 65  1  0  0  0  0
 45 48  1  0  0  0  0
 45 65  1  0  0  0  0
 46 68  1  0  0  0  0
 47 64  1  0  0  0  0
 48 63  1  0  0  0  0
 50 58  1  0  0  0  0
 51 59  1  0  0  0  0
 52 59  1  0  0  0  0
 53 59  1  0  0  0  0
 54 71  1  0  0  0  0
 55 70  1  0  0  0  0
 56 78  1  0  0  0  0
 57 59  1  0  0  0  0
 57 69  1  0  0  0  0
 58 71  1  0  0  0  0
 61 63  1  0  0  0  0
M  CHG  1  71   1
M  ISO  4  36 100  56 101  70 100  78 101
M  END
> <Batch ID>
0048

> <Smiles>
CNC(C)C(=O)NC(C(=O)N1Cc2cc([101O:1][101CH2:1]c3ncc(C[100NH:0][100C:0](=O)N4CCCC(n5nc(-c6ccc(Oc7ccc(F)cc7F)cc6)c(C(N)=O)c5N)C4)nc3C)ccc2CC1C(=O)NC1CCCc2ccccc21)C(C)(C)C

> <Shape>
0.226

> <Color>
0.216

> <Negative vol penalty>
0.000

$$$$

  -OEChem-04052317263D

 78 86  0     1  0  0  0  0  0999 V2000
  -29.5669  -35.7736   18.6322 C   0  0  0  0  0  0  0  0  0  0  0  0
  -29.8595  -34.4874   18.1900 C   0  0  0  0  0  0  0  0  0  0  0  0
  -24.5197   -9.4762   21.2398 C   0  0  0  0  0  0  0  0  0  0  0  0
  -24.9712  -10.4394   23.4090 C   0  0  0  0  0  0  0  0  0  0  0  0
  -28.9384  -35.9604   19.8626 C   0  0  0  0  0  0  0  0  0  0  0  0
  -29.5247  -33.3872   18.9787 C   0  0  0  0  0  0  0  0  0  0  0  0
  -27.4379  -26.5560   18.4340 C   0  0  0  0  0  0  0  0  0  0  0  0
  -24.2992   -8.2350   21.8367 C   0  0  0  0  0  0  0  0  0  0  0  0
  -24.7507   -9.1981   24.0060 C   0  0  0  0  0  0  0  0  0  0  0  0
  -27.7822  -25.2849   18.8916 C   0  0  0  0  0  0  0  0  0  0  0  0
  -23.2640   -4.8939   22.8270 C   0  0  0  0  0  0  0  0  0  0  0  0
  -22.1525   -4.1619   22.4096 C   0  0  0  0  0  0  0  0  0  0  0  0
  -26.6273  -25.7245   20.9633 C   0  0  0  0  0  0  0  0  0  0  0  0
  -20.7024   -5.9602   23.1171 C   0  0  0  0  0  0  0  0  0  0  0  0
  -28.1089  -20.2845   20.1030 C   0  0  0  0  0  0  0  0  0  0  0  0
  -24.8558  -10.5784   22.0259 C   0  0  0  0  0  0  0  0  0  0  0  0
  -24.1311  -12.8666   21.1618 C   0  0  0  0  0  0  0  0  0  0  0  0
  -28.5870  -34.8615   20.6623 C   0  0  0  0  0  0  0  0  0  0  0  0
  -26.6937  -27.4265   19.2433 C   0  0  0  0  0  0  0  0  0  0  0  0
  -28.8921  -33.5595   20.2215 C   0  0  0  0  0  0  0  0  0  0  0  0
  -26.2726  -27.0052   20.5126 C   0  0  0  0  0  0  0  0  0  0  0  0
  -28.7218  -21.4801   20.3882 C   0  0  0  0  0  0  0  0  0  0  0  0
  -24.4146   -8.0960   23.2198 C   0  0  0  0  0  0  0  0  0  0  0  0
  -27.3794  -24.8700   20.1575 C   0  0  0  0  0  0  0  0  0  0  0  0
  -23.0948   -6.1591   23.3895 C   0  0  0  0  0  0  0  0  0  0  0  0
  -20.8717   -4.6950   22.5546 C   0  0  0  0  0  0  0  0  0  0  0  0
  -21.8140   -6.6922   23.5345 C   0  0  0  0  0  0  0  0  0  0  0  0
  -25.0842  -11.8607   21.4098 C   0  0  0  0  0  0  0  0  0  0  0  0
  -29.6181  -21.1763   21.4304 C   0  0  0  0  0  0  0  0  0  0  0  0
  -24.8453  -13.8769   20.5655 C   0  0  0  0  0  0  0  0  0  0  0  0
  -22.7257  -12.8860   21.4452 C   0  0  0  0  0  0  0  0  0  0  0  0
  -27.2151  -30.2822   20.5380 C   0  0  0  0  0  0  0  0  0  0  0  0
  -29.4006  -17.1197   20.4105 C   0  0  0  0  0  0  0  0  0  0  0  0
  -24.1014  -30.0233   21.4098 C   0  0  0  0  0  0  0  0  0  0  0  0
  -21.4396  -27.9957   22.0806 C   0  0  0  0  0  0  0  0  0  0  0  0
  -27.9514  -35.1154   22.0063 C   0  0  0  0  0  0  0  0  0  0  0  0
  -26.3076  -28.7845   18.7244 C   0  0  0  0  0  0  0  0  0  0  0  0
  -25.4548  -27.8941   21.4123 C   0  0  0  0  0  0  0  0  0  0  0  0
  -27.2920  -33.8789   22.6116 C   0  0  0  0  0  0  0  0  0  0  0  0
  -29.5514  -13.9565   18.7338 C   0  0  0  0  0  0  0  0  0  0  0  0
  -28.2190  -32.6724   22.5031 C   0  0  0  0  0  0  0  0  0  0  0  0
  -28.3418  -13.2011   19.2829 C   0  0  0  0  0  0  0  0  0  0  0  0
  -30.1782  -14.8543   19.7959 C   0  0  0  0  0  0  0  0  0  0  0  0
  -28.0102  -15.0640   20.9695 C   0  0  0  0  0  0  0  0  0  0  0  0
  -28.5222  -32.3397   21.0372 C   0  0  1  0  0  0  0  0  0  0  0  0
  -25.9859  -29.7792   19.8354 C   0  0  1  0  0  0  0  0  0  0  0  0
  -27.3285  -14.1685   19.9199 C   0  0  2  0  0  0  0  0  0  0  0  0
  -30.5382  -22.0930   22.1262 C   0  0  0  0  0  0  0  0  0  0  0  0
  -19.0382  -28.0723   22.8052 C   0  0  0  0  0  0  0  0  0  0  0  0
  -24.9865  -30.5882   24.2747 C   0  0  0  0  0  0  0  0  0  0  0  0
  -22.7696  -29.7259   25.0557 C   0  0  0  0  0  0  0  0  0  0  0  0
  -22.8757  -31.7406   23.5886 C   0  0  0  0  0  0  0  0  0  0  0  0
  -20.5213  -26.7206   19.5727 C   0  0  0  0  0  0  0  0  0  0  0  0
  -28.4806  -22.8062   19.7289 C   0  0  0  0  0  0  0  0  0  1  0  0
  -28.3248  -17.9698   21.0384 C   0  0  0  0  0  0  0  0  0  0  0  0
  -23.3690  -29.4641   22.6056 C   0  0  1  0  0  0  0  0  0  0  0  0
  -19.9934  -28.0472   21.6221 C   0  0  2  0  0  0  0  0  0  0  0  0
  -23.5172  -30.3634   23.8652 C   0  0  0  0  0  0  0  0  0  0  0  0
  -26.3105  -12.2010   21.0040 N   0  0  0  0  0  0  0  0  0  0  0  0
  -29.5809  -19.8887   21.7836 N   0  0  0  0  0  0  0  0  0  0  0  0
  -28.6538  -19.3728   20.9587 N   0  0  0  0  0  0  0  0  0  0  0  0
  -26.1327  -13.4319   20.4950 N   0  0  0  0  0  0  0  0  0  0  0  0
  -25.1078  -29.2150   20.8625 N   0  0  0  0  0  0  0  0  0  0  0  0
  -29.1790  -15.7425   20.3925 N   0  0  0  0  0  0  0  0  0  0  0  0
  -24.4915  -15.0936   20.0997 N   0  0  0  0  0  0  0  0  0  0  0  0
  -22.1529  -11.7650   22.0613 N   0  0  0  0  0  0  0  0  0  0  0  0
  -27.4036  -31.6472   20.4343 N   0  0  0  0  0  0  0  0  0  0  0  0
  -21.9895  -29.2563   22.1787 N   0  0  0  0  0  0  0  0  0  0  0  0
  -19.6728  -26.8570   20.7845 N   0  3  0  0  0  0  0  0  0  0  0  0
  -21.9964  -13.8616   21.1456 O   0  0  0  0  0  0  0  0  0  0  0  0
  -27.9383  -29.4908   21.1316 O   0  0  0  0  0  0  0  0  0  0  0  0
  -30.4057  -17.6654   19.9478 O   0  0  0  0  0  0  0  0  0  0  0  0
  -23.7872  -31.1333   20.9730 O   0  0  0  0  0  0  0  0  0  0  0  0
  -22.0220  -26.9427   22.3306 O   0  0  0  0  0  0  0  0  0  0  0  0
  -24.1993   -6.8850   23.8027 O   0  0  0  0  0  0  0  0  0  0  0  0
  -27.7147  -23.6300   20.6069 O   0  0  0  0  0  0  0  0  0  1  0  0
  -19.8046   -3.9925   22.1523 F   0  0  0  0  0  0  0  0  0  0  0  0
  -21.6452   -7.9077   24.0731 F   0  0  0  0  0  0  0  0  0  0  0  0
  1  2  1  0  0  0  0
  1  5  2  0  0  0  0
  2  6  2  0  0  0  0
  3  8  2  0  0  0  0
  3 16  1  0  0  0  0
  4  9  1  0  0  0  0
  4 16  2  0  0  0  0
  5 18  1  0  0  0  0
  6 20  1  0  0  0  0
  7 10  2  0  0  0  0
  7 19  1  0  0  0  0
  8 23  1  0  0  0  0
  9 23  2  0  0  0  0
 10 24  1  0  0  0  0
 11 12  2  0  0  0  0
 11 25  1  0  0  0  0
 12 26  1  0  0  0  0
 13 21  1  0  0  0  0
 13 24  2  0  0  0  0
 14 26  2  0  0  0  0
 14 27  1  0  0  0  0
 15 22  2  0  0  0  0
 15 61  1  0  0  0  0
 16 28  1  0  0  0  0
 17 28  1  0  0  0  0
 17 30  2  0  0  0  0
 17 31  1  0  0  0  0
 18 20  2  0  0  0  0
 18 36  1  0  0  0  0
 19 21  2  0  0  0  0
 19 37  1  0  0  0  0
 20 45  1  0  0  0  0
 21 38  1  0  0  0  0
 22 29  1  0  0  0  0
 22 54  1  0  0  0  0
 23 75  1  0  0  0  0
 24 76  1  0  0  0  0
 25 27  2  0  0  0  0
 25 75  1  0  0  0  0
 26 77  1  0  0  0  0
 27 78  1  0  0  0  0
 28 59  2  0  0  0  0
 29 48  1  0  0  0  0
 29 60  2  0  0  0  0
 30 62  1  0  0  0  0
 30 65  1  0  0  0  0
 31 66  1  0  0  0  0
 31 70  2  0  0  0  0
 32 46  1  0  0  0  0
 32 67  1  0  0  0  0
 32 71  2  0  0  0  0
 33 55  1  0  0  0  0
 33 64  1  0  0  0  0
 33 72  2  0  0  0  0
 34 56  1  0  0  0  0
 34 63  1  0  0  0  0
 34 73  2  0  0  0  0
 35 57  1  0  0  0  0
 35 68  1  0  0  0  0
 35 74  2  0  0  0  0
 36 39  1  0  0  0  0
 37 46  1  0  0  0  0
 38 63  1  0  0  0  0
 39 41  1  0  0  0  0
 40 42  1  0  0  0  0
 40 43  1  0  0  0  0
 41 45  1  0  0  0  0
 42 47  1  0  0  0  0
 43 64  1  0  0  0  0
 44 47  1  0  0  0  0
 44 64  1  0  0  0  0
 45 67  1  0  0  0  0
 46 63  1  0  0  0  0
 47 62  1  0  0  0  0
 49 57  1  0  0  0  0
 50 58  1  0  0  0  0
 51 58  1  0  0  0  0
 52 58  1  0  0  0  0
 53 69  1  0  0  0  0
 54 76  1  0  0  0  0
 55 61  1  0  0  0  0
 56 58  1  0  0  0  0
 56 68  1  0  0  0  0
 57 69  1  0  0  0  0
 59 62  1  0  0  0  0
 60 61  1  0  0  0  0
M  CHG  1  69   1
M  ISO  4  33 100  54 101  55 100  76 101
M  END
> <Batch ID>
0048

> <Smiles>
CNC(C)C(=O)NC(C(=O)N1Cc2cc([101O:1][101CH2:1]c3cn([100CH2:0][100C:0](=O)N4CCCC(n5nc(-c6ccc(Oc7ccc(F)cc7F)cc6)c(C(N)=O)c5N)C4)nc3C)ccc2CC1C(=O)NC1CCCc2ccccc21)C(C)(C)C

> <Shape>
0.310

> <Color>
0.132

> <Negative vol penalty>
0.000

$$$$

  -OEChem-04052317263D

 79 87  0     1  0  0  0  0  0999 V2000
  -17.4404  -23.8195   23.6834 C   0  0  0  0  0  0  0  0  0  0  0  0
  -18.7943  -23.5467   23.5158 C   0  0  0  0  0  0  0  0  0  0  0  0
  -23.0620   -9.8439   19.9455 C   0  0  0  0  0  0  0  0  0  0  0  0
  -23.8246   -9.8601   22.2379 C   0  0  0  0  0  0  0  0  0  0  0  0
  -16.4854  -22.9845   23.1049 C   0  0  0  0  0  0  0  0  0  0  0  0
  -19.1939  -22.4381   22.7704 C   0  0  0  0  0  0  0  0  0  0  0  0
  -24.1417  -21.9997   19.1881 C   0  0  0  0  0  0  0  0  0  0  0  0
  -22.3237   -8.6881   20.1992 C   0  0  0  0  0  0  0  0  0  0  0  0
  -23.0862   -8.7042   22.4917 C   0  0  0  0  0  0  0  0  0  0  0  0
  -25.4058  -21.4503   19.3977 C   0  0  0  0  0  0  0  0  0  0  0  0
  -19.8625   -7.8933   23.1000 C   0  0  0  0  0  0  0  0  0  0  0  0
  -19.1071   -7.8528   24.2719 C   0  0  0  0  0  0  0  0  0  0  0  0
  -24.6849  -19.4042   18.3428 C   0  0  0  0  0  0  0  0  0  0  0  0
  -29.3291  -18.6624   20.8634 C   0  0  0  0  0  0  0  0  0  0  0  0
  -20.3582   -5.9229   25.0117 C   0  0  0  0  0  0  0  0  0  0  0  0
  -30.2371  -19.9747   19.1136 C   0  0  0  0  0  0  0  0  0  0  0  0
  -23.8125  -10.4299   20.9648 C   0  0  0  0  0  0  0  0  0  0  0  0
  -24.1428  -12.9563   20.8381 C   0  0  0  0  0  0  0  0  0  0  0  0
  -16.8736  -21.8706   22.3440 C   0  0  0  0  0  0  0  0  0  0  0  0
  -23.1347  -21.2503   18.5629 C   0  0  0  0  0  0  0  0  0  0  0  0
  -18.2432  -21.5866   22.1823 C   0  0  0  0  0  0  0  0  0  0  0  0
  -23.4096  -19.9473   18.1241 C   0  0  0  0  0  0  0  0  0  0  0  0
  -29.1699  -19.6784   19.9375 C   0  0  0  0  0  0  0  0  0  0  0  0
  -22.3358   -8.1182   21.4723 C   0  0  0  0  0  0  0  0  0  0  0  0
  -25.6767  -20.1514   18.9777 C   0  0  0  0  0  0  0  0  0  0  0  0
  -20.8657   -6.9485   22.8839 C   0  0  0  0  0  0  0  0  0  0  0  0
  -19.3550   -6.8677   25.2278 C   0  0  0  0  0  0  0  0  0  0  0  0
  -21.1135   -5.9633   23.8397 C   0  0  0  0  0  0  0  0  0  0  0  0
  -24.5759  -11.6236   20.7032 C   0  0  0  0  0  0  0  0  0  0  0  0
  -30.5449  -18.0099   20.9041 C   0  0  0  0  0  0  0  0  0  0  0  0
  -25.2311  -13.7098   20.4716 C   0  0  0  0  0  0  0  0  0  0  0  0
  -22.8704  -13.4674   21.2573 C   0  0  0  0  0  0  0  0  0  0  0  0
  -20.2674  -20.1848   19.4272 C   0  0  0  0  0  0  0  0  0  0  0  0
  -20.1069  -19.2571   16.3230 C   0  0  0  0  0  0  0  0  0  0  0  0
  -21.7649  -18.4000   13.4659 C   0  0  0  0  0  0  0  0  0  0  0  0
  -30.7103  -14.7542   20.6509 C   0  0  0  0  0  0  0  0  0  0  0  0
  -15.8045  -20.9701   21.7775 C   0  0  0  0  0  0  0  0  0  0  0  0
  -21.7844  -21.8669   18.3202 C   0  0  0  0  0  0  0  0  0  0  0  0
  -22.3692  -19.1082   17.4298 C   0  0  0  0  0  0  0  0  0  0  0  0
  -16.3147  -20.0287   20.6895 C   0  0  0  0  0  0  0  0  0  0  0  0
  -29.5807  -12.3586   18.2714 C   0  0  0  0  0  0  0  0  0  0  0  0
  -17.6169  -19.3647   21.1256 C   0  0  0  0  0  0  0  0  0  0  0  0
  -28.1452  -12.0595   18.7068 C   0  0  0  0  0  0  0  0  0  0  0  0
  -30.4983  -12.5866   19.4706 C   0  0  0  0  0  0  0  0  0  0  0  0
  -28.5949  -13.3125   20.8577 C   0  0  0  0  0  0  0  0  0  0  0  0
  -18.7164  -20.4076   21.3600 C   0  0  1  0  0  0  0  0  0  0  0  0
  -20.6794  -20.8314   18.1350 C   0  0  1  0  0  0  0  0  0  0  0  0
  -27.6201  -13.1306   19.6817 C   0  0  2  0  0  0  0  0  0  0  0  0
  -21.3634  -17.6536   11.1039 C   0  0  0  0  0  0  0  0  0  0  0  0
  -19.4332  -16.4551   17.3255 C   0  0  0  0  0  0  0  0  0  0  0  0
  -19.9786  -15.5829   15.0430 C   0  0  0  0  0  0  0  0  0  0  0  0
  -18.1041  -17.2013   15.3428 C   0  0  0  0  0  0  0  0  0  0  0  0
  -23.1119  -20.7912   12.3586 C   0  0  0  0  0  0  0  0  0  0  0  0
  -27.8780  -20.4343   19.8322 C   0  0  0  0  0  0  0  0  0  1  0  0
  -30.7679  -16.9081   21.8823 C   0  0  0  0  0  0  0  0  0  0  0  0
  -20.4888  -18.0131   15.5579 C   0  0  1  0  0  0  0  0  0  0  0  0
  -21.5847  -18.8431   12.0252 C   0  0  2  0  0  0  0  0  0  0  0  0
  -19.5204  -16.8280   15.8321 C   0  0  0  0  0  0  0  0  0  0  0  0
  -31.4157  -19.3195   19.1754 N   0  0  0  0  0  0  0  0  0  0  0  0
  -25.8407  -11.5325   20.2836 N   0  0  0  0  0  0  0  0  0  0  0  0
  -31.5720  -18.3208   20.0853 N   0  0  0  0  0  0  0  0  0  0  0  0
  -26.2116  -12.8175   20.1517 N   0  0  0  0  0  0  0  0  0  0  0  0
  -21.0624  -19.7533   17.2211 N   0  0  0  0  0  0  0  0  0  0  0  0
  -29.9441  -13.6148   20.3547 N   0  0  0  0  0  0  0  0  0  0  0  0
  -25.4353  -15.0421   20.3951 N   0  0  0  0  0  0  0  0  0  0  0  0
  -21.8631  -12.5545   21.5980 N   0  0  0  0  0  0  0  0  0  0  0  0
  -19.2638  -20.8573   20.0980 N   0  0  0  0  0  0  0  0  0  0  0  0
  -20.5707  -18.4056   14.1552 N   0  0  0  0  0  0  0  0  0  0  0  0
  -30.1080  -15.6824   21.4913 N   0  0  0  0  0  0  0  0  0  0  0  0
  -22.7903  -19.5830   11.5562 N   0  3  0  0  0  0  0  0  0  0  0  0
  -22.6287  -14.6971   21.3118 O   0  0  0  0  0  0  0  0  0  0  0  0
  -20.8182  -19.1514   19.7882 O   0  0  0  0  0  0  0  0  0  0  0  0
  -19.0043  -19.7738   16.1257 O   0  0  0  0  0  0  0  0  0  0  0  0
  -22.8553  -18.0773   13.9321 O   0  0  0  0  0  0  0  0  0  0  0  0
  -31.8449  -14.9337   20.1955 O   0  0  0  0  0  0  0  0  0  0  0  0
  -21.6152   -6.9904   21.7203 O   0  0  0  0  0  0  0  0  0  0  0  0
  -26.9096  -19.6125   19.1817 O   0  0  0  0  0  0  0  0  0  1  0  0
  -18.6305   -6.8299   26.3538 F   0  0  0  0  0  0  0  0  0  0  0  0
  -22.0767   -5.0537   23.6383 F   0  0  0  0  0  0  0  0  0  0  0  0
  1  2  1  0  0  0  0
  1  5  2  0  0  0  0
  2  6  2  0  0  0  0
  3  8  2  0  0  0  0
  3 17  1  0  0  0  0
  4  9  1  0  0  0  0
  4 17  2  0  0  0  0
  5 19  1  0  0  0  0
  6 21  1  0  0  0  0
  7 10  2  0  0  0  0
  7 20  1  0  0  0  0
  8 24  1  0  0  0  0
  9 24  2  0  0  0  0
 10 25  1  0  0  0  0
 11 12  2  0  0  0  0
 11 26  1  0  0  0  0
 12 27  1  0  0  0  0
 13 22  1  0  0  0  0
 13 25  2  0  0  0  0
 14 23  2  0  0  0  0
 14 30  1  0  0  0  0
 15 27  2  0  0  0  0
 15 28  1  0  0  0  0
 16 23  1  0  0  0  0
 16 59  2  0  0  0  0
 17 29  1  0  0  0  0
 18 29  1  0  0  0  0
 18 31  2  0  0  0  0
 18 32  1  0  0  0  0
 19 21  2  0  0  0  0
 19 37  1  0  0  0  0
 20 22  2  0  0  0  0
 20 38  1  0  0  0  0
 21 46  1  0  0  0  0
 22 39  1  0  0  0  0
 23 54  1  0  0  0  0
 24 76  1  0  0  0  0
 25 77  1  0  0  0  0
 26 28  2  0  0  0  0
 26 76  1  0  0  0  0
 27 78  1  0  0  0  0
 28 79  1  0  0  0  0
 29 60  2  0  0  0  0
 30 55  1  0  0  0  0
 30 61  2  0  0  0  0
 31 62  1  0  0  0  0
 31 65  1  0  0  0  0
 32 66  1  0  0  0  0
 32 71  2  0  0  0  0
 33 47  1  0  0  0  0
 33 67  1  0  0  0  0
 33 72  2  0  0  0  0
 34 56  1  0  0  0  0
 34 63  1  0  0  0  0
 34 73  2  0  0  0  0
 35 57  1  0  0  0  0
 35 68  1  0  0  0  0
 35 74  2  0  0  0  0
 36 64  1  0  0  0  0
 36 69  1  0  0  0  0
 36 75  2  0  0  0  0
 37 40  1  0  0  0  0
 38 47  1  0  0  0  0
 39 63  1  0  0  0  0
 40 42  1  0  0  0  0
 41 43  1  0  0  0  0
 41 44  1  0  0  0  0
 42 46  1  0  0  0  0
 43 48  1  0  0  0  0
 44 64  1  0  0  0  0
 45 48  1  0  0  0  0
 45 64  1  0  0  0  0
 46 67  1  0  0  0  0
 47 63  1  0  0  0  0
 48 62  1  0  0  0  0
 49 57  1  0  0  0  0
 50 58  1  0  0  0  0
 51 58  1  0  0  0  0
 52 58  1  0  0  0  0
 53 70  1  0  0  0  0
 54 77  1  0  0  0  0
 55 69  1  0  0  0  0
 56 58  1  0  0  0  0
 56 68  1  0  0  0  0
 57 70  1  0  0  0  0
 59 61  1  0  0  0  0
 60 62  1  0  0  0  0
M  CHG  1  70   1
M  ISO  4  36 100  54 101  69 100  77 101
M  END
> <Batch ID>
0048

> <Smiles>
CNC(C)C(=O)NC(C(=O)N1Cc2cc([101O:1][101CH2:1]c3cnnc(C[100NH:0][100C:0](=O)N4CCCC(n5nc(-c6ccc(Oc7ccc(F)cc7F)cc6)c(C(N)=O)c5N)C4)c3)ccc2CC1C(=O)NC1CCCc2ccccc21)C(C)(C)C

> <Shape>
0.198

> <Color>
0.194

> <Negative vol penalty>
0.000

$$$$

  -OEChem-04052317263D

 82 90  0     1  0  0  0  0  0999 V2000
  -20.1622  -17.1673   24.3885 C   0  0  0  0  0  0  0  0  0  0  0  0
  -21.3355  -17.9106   24.4677 C   0  0  0  0  0  0  0  0  0  0  0  0
  -27.2905  -17.4216   20.6773 C   0  0  0  0  0  0  0  0  0  0  0  0
  -29.0320  -17.9750   22.2578 C   0  0  0  0  0  0  0  0  0  0  0  0
  -19.1520  -17.5529   23.5084 C   0  0  0  0  0  0  0  0  0  0  0  0
  -21.4996  -19.0396   23.6658 C   0  0  0  0  0  0  0  0  0  0  0  0
  -23.3962  -22.9785   26.2217 C   0  0  0  0  0  0  0  0  0  0  0  0
  -27.5782  -16.0659   20.8349 C   0  0  0  0  0  0  0  0  0  0  0  0
  -29.3196  -16.6192   22.4155 C   0  0  0  0  0  0  0  0  0  0  0  0
  -24.7665  -22.9706   26.4786 C   0  0  0  0  0  0  0  0  0  0  0  0
  -28.0954  -12.4777   20.5504 C   0  0  0  0  0  0  0  0  0  0  0  0
  -28.1768  -11.6925   19.4005 C   0  0  0  0  0  0  0  0  0  0  0  0
  -25.1162  -24.4772   24.6273 C   0  0  0  0  0  0  0  0  0  0  0  0
  -29.9777  -13.0791   18.5812 C   0  0  0  0  0  0  0  0  0  0  0  0
  -31.4701  -25.9085   23.2262 C   0  0  0  0  0  0  0  0  0  0  0  0
  -28.0175  -18.3762   21.3887 C   0  0  0  0  0  0  0  0  0  0  0  0
  -26.8036  -20.5436   21.9688 C   0  0  0  0  0  0  0  0  0  0  0  0
  -19.2998  -18.6927   22.7024 C   0  0  0  0  0  0  0  0  0  0  0  0
  -22.8760  -23.7285   25.1571 C   0  0  0  0  0  0  0  0  0  0  0  0
  -20.4910  -19.4401   22.7732 C   0  0  0  0  0  0  0  0  0  0  0  0
  -23.7386  -24.4950   24.3606 C   0  0  0  0  0  0  0  0  0  0  0  0
  -28.5927  -15.6647   21.7041 C   0  0  0  0  0  0  0  0  0  0  0  0
  -25.6271  -23.7177   25.6796 C   0  0  0  0  0  0  0  0  0  0  0  0
  -28.9551  -13.5637   20.7158 C   0  0  0  0  0  0  0  0  0  0  0  0
  -29.1180  -11.9931   18.4159 C   0  0  0  0  0  0  0  0  0  0  0  0
  -29.8963  -13.8643   19.7312 C   0  0  0  0  0  0  0  0  0  0  0  0
  -27.7212  -19.7768   21.2259 C   0  0  0  0  0  0  0  0  0  0  0  0
  -30.4843  -26.8431   22.8796 C   0  0  0  0  0  0  0  0  0  0  0  0
  -26.8935  -21.8037   21.4298 C   0  0  0  0  0  0  0  0  0  0  0  0
  -25.9466  -20.1519   23.0494 C   0  0  0  0  0  0  0  0  0  0  0  0
  -21.2857  -23.0377   22.4930 C   0  0  0  0  0  0  0  0  0  0  0  0
  -21.1028  -26.2656   22.2284 C   0  0  0  0  0  0  0  0  0  0  0  0
  -22.4067  -29.3165   23.0276 C   0  0  0  0  0  0  0  0  0  0  0  0
  -30.4156  -25.9186   19.7036 C   0  0  0  0  0  0  0  0  0  0  0  0
  -18.1998  -19.0433   21.7320 C   0  0  0  0  0  0  0  0  0  0  0  0
  -21.3924  -23.7476   24.9097 C   0  0  0  0  0  0  0  0  0  0  0  0
  -23.2280  -25.3330   23.2180 C   0  0  0  0  0  0  0  0  0  0  0  0
  -18.2978  -20.4664   21.1884 C   0  0  0  0  0  0  0  0  0  0  0  0
  -29.1703  -23.4558   17.2367 C   0  0  0  0  0  0  0  0  0  0  0  0
  -19.7268  -20.7742   20.7527 C   0  0  0  0  0  0  0  0  0  0  0  0
  -28.6746  -22.3160   18.1251 C   0  0  0  0  0  0  0  0  0  0  0  0
  -30.2996  -24.2402   17.8978 C   0  0  0  0  0  0  0  0  0  0  0  0
  -29.4665  -23.6162   20.1408 C   0  0  0  0  0  0  0  0  0  0  0  0
  -20.6961  -20.6851   21.9377 C   0  0  1  0  0  0  0  0  0  0  0  0
  -21.0300  -24.1406   23.4809 C   0  0  1  0  0  0  0  0  0  0  0  0
  -28.2969  -22.8348   19.5235 C   0  0  2  0  0  0  0  0  0  0  0  0
  -27.7956  -28.0050   19.6781 C   0  0  0  0  0  0  0  0  0  0  0  0
  -22.0624  -31.7706   22.6325 C   0  0  0  0  0  0  0  0  0  0  0  0
  -22.2813  -25.9776   19.4287 C   0  0  0  0  0  0  0  0  0  0  0  0
  -22.7918  -28.4284   19.4672 C   0  0  0  0  0  0  0  0  0  0  0  0
  -20.4276  -27.6462   19.6138 C   0  0  0  0  0  0  0  0  0  0  0  0
  -21.9839  -29.8394   25.9098 C   0  0  0  0  0  0  0  0  0  0  0  0
  -30.2418  -27.4993   21.5880 C   0  0  0  0  0  0  0  0  0  0  0  0
  -28.8670  -25.0336   26.5526 C   0  0  0  0  0  0  0  0  0  0  0  0
  -29.7363  -26.2611   26.2712 C   0  0  0  0  0  0  0  0  0  0  0  0
  -28.1625  -26.7713   20.4778 C   0  0  0  0  0  0  0  0  0  0  0  0
  -27.6940  -24.8906   25.5898 C   0  0  0  0  0  0  0  0  0  1  0  0
  -21.9608  -27.3371   21.6002 C   0  0  1  0  0  0  0  0  0  0  0  0
  -21.7540  -30.5884   23.5381 C   0  0  2  0  0  0  0  0  0  0  0  0
  -21.8755  -27.3301   20.0477 C   0  0  0  0  0  0  0  0  0  0  0  0
  -31.3374  -25.5652   24.5105 N   0  0  0  0  0  0  0  0  0  0  0  0
  -28.3478  -20.4902   20.2865 N   0  0  0  0  0  0  0  0  0  0  0  0
  -29.7136  -27.1027   23.9395 N   0  0  0  0  0  0  0  0  0  0  0  0
  -27.8230  -21.7184   20.4354 N   0  0  0  0  0  0  0  0  0  0  0  0
  -30.2788  -26.3112   24.8652 N   0  0  0  0  0  0  0  0  0  0  0  0
  -21.7704  -25.3138   23.0123 N   0  0  0  0  0  0  0  0  0  0  0  0
  -29.9298  -24.6842   19.2422 N   0  0  0  0  0  0  0  0  0  0  0  0
  -26.2673  -22.9654   21.7142 N   0  0  0  0  0  0  0  0  0  0  0  0
  -25.9798  -18.8181   23.4787 N   0  0  0  0  0  0  0  0  0  0  0  0
  -20.5969  -21.8704   22.7620 N   0  0  0  0  0  0  0  0  0  0  0  0
  -21.5563  -28.5966   22.2152 N   0  0  0  0  0  0  0  0  0  0  0  0
  -29.6103  -26.6242   20.6105 N   0  0  0  0  0  0  0  0  0  0  0  0
  -22.2426  -30.9069   24.9095 N   0  3  0  0  0  0  0  0  0  0  0  0
  -25.1624  -20.9568   23.6067 O   0  0  0  0  0  0  0  0  0  0  0  0
  -22.0502  -23.2319   21.5551 O   0  0  0  0  0  0  0  0  0  0  0  0
  -19.8843  -26.2769   22.0368 O   0  0  0  0  0  0  0  0  0  0  0  0
  -23.5572  -28.9956   23.3174 O   0  0  0  0  0  0  0  0  0  0  0  0
  -31.5024  -26.3691   19.3192 O   0  0  0  0  0  0  0  0  0  0  0  0
  -28.8735  -14.3419   21.8583 O   0  0  0  0  0  0  0  0  0  0  0  0
  -26.9651  -23.7113   25.9277 O   0  0  0  0  0  0  0  0  0  1  0  0
  -29.1971  -11.2380   17.3124 F   0  0  0  0  0  0  0  0  0  0  0  0
  -30.7256  -14.9056   19.8849 F   0  0  0  0  0  0  0  0  0  0  0  0
  1  2  1  0  0  0  0
  1  5  2  0  0  0  0
  2  6  2  0  0  0  0
  3  8  2  0  0  0  0
  3 16  1  0  0  0  0
  4  9  1  0  0  0  0
  4 16  2  0  0  0  0
  5 18  1  0  0  0  0
  6 20  1  0  0  0  0
  7 10  2  0  0  0  0
  7 19  1  0  0  0  0
  8 22  1  0  0  0  0
  9 22  2  0  0  0  0
 10 23  1  0  0  0  0
 11 12  2  0  0  0  0
 11 24  1  0  0  0  0
 12 25  1  0  0  0  0
 13 21  1  0  0  0  0
 13 23  2  0  0  0  0
 14 25  2  0  0  0  0
 14 26  1  0  0  0  0
 15 28  1  0  0  0  0
 15 61  2  0  0  0  0
 16 27  1  0  0  0  0
 17 27  1  0  0  0  0
 17 29  2  0  0  0  0
 17 30  1  0  0  0  0
 18 20  2  0  0  0  0
 18 35  1  0  0  0  0
 19 21  2  0  0  0  0
 19 36  1  0  0  0  0
 20 44  1  0  0  0  0
 21 37  1  0  0  0  0
 22 79  1  0  0  0  0
 23 80  1  0  0  0  0
 24 26  2  0  0  0  0
 24 79  1  0  0  0  0
 25 81  1  0  0  0  0
 26 82  1  0  0  0  0
 27 62  2  0  0  0  0
 28 53  1  0  0  0  0
 28 63  2  0  0  0  0
 29 64  1  0  0  0  0
 29 68  1  0  0  0  0
 30 69  1  0  0  0  0
 30 74  2  0  0  0  0
 31 45  1  0  0  0  0
 31 70  1  0  0  0  0
 31 75  2  0  0  0  0
 32 58  1  0  0  0  0
 32 66  1  0  0  0  0
 32 76  2  0  0  0  0
 33 59  1  0  0  0  0
 33 71  1  0  0  0  0
 33 77  2  0  0  0  0
 34 67  1  0  0  0  0
 34 72  1  0  0  0  0
 34 78  2  0  0  0  0
 35 38  1  0  0  0  0
 36 45  1  0  0  0  0
 37 66  1  0  0  0  0
 38 40  1  0  0  0  0
 39 41  1  0  0  0  0
 39 42  1  0  0  0  0
 40 44  1  0  0  0  0
 41 46  1  0  0  0  0
 42 67  1  0  0  0  0
 43 46  1  0  0  0  0
 43 67  1  0  0  0  0
 44 70  1  0  0  0  0
 45 66  1  0  0  0  0
 46 64  1  0  0  0  0
 47 56  1  0  0  0  0
 48 59  1  0  0  0  0
 49 60  1  0  0  0  0
 50 60  1  0  0  0  0
 51 60  1  0  0  0  0
 52 73  1  0  0  0  0
 53 72  1  0  0  0  0
 54 55  1  0  0  0  0
 54 57  1  0  0  0  0
 55 65  1  0  0  0  0
 56 72  1  0  0  0  0
 57 80  1  0  0  0  0
 58 60  1  0  0  0  0
 58 71  1  0  0  0  0
 59 73  1  0  0  0  0
 61 65  1  0  0  0  0
 62 64  1  0  0  0  0
 63 65  1  0  0  0  0
M  CHG  1  73   1
M  ISO  4  34 100  57 101  72 100  80 101
M  END
> <Batch ID>
0048

> <Smiles>
CC[100N:0](Cc1cnn(CC[101CH2:1][101O:1]c2ccc3c(c2)CN(C(=O)C(NC(=O)C(C)NC)C(C)(C)C)C(C(=O)NC2CCCc4ccccc42)C3)n1)[100C:0](=O)N1CCCC(n2nc(-c3ccc(Oc4ccc(F)cc4F)cc3)c(C(N)=O)c2N)C1

> <Shape>
0.191

> <Color>
0.058

> <Negative vol penalty>
0.000

$$$$

  -OEChem-04052317263D

 90 98  0     1  0  0  0  0  0999 V2000
  -29.4657  -27.9584   24.0132 C   0  0  0  0  0  0  0  0  0  0  0  0
  -28.7419  -26.7713   23.9672 C   0  0  0  0  0  0  0  0  0  0  0  0
  -20.9971  -27.3905   22.7047 C   0  0  0  0  0  0  0  0  0  0  0  0
  -19.9676  -26.9885   20.5563 C   0  0  0  0  0  0  0  0  0  0  0  0
  -30.0893  -28.4383   22.8622 C   0  0  0  0  0  0  0  0  0  0  0  0
  -28.6403  -26.0638   22.7699 C   0  0  0  0  0  0  0  0  0  0  0  0
  -28.4103  -19.9812   22.0959 C   0  0  0  0  0  0  0  0  0  0  0  0
  -21.7106  -28.4595   22.1628 C   0  0  0  0  0  0  0  0  0  0  0  0
  -20.6811  -28.0575   20.0144 C   0  0  0  0  0  0  0  0  0  0  0  0
  -27.3482  -19.0978   21.9078 C   0  0  0  0  0  0  0  0  0  0  0  0
  -24.0744  -31.0697   21.2558 C   0  0  0  0  0  0  0  0  0  0  0  0
  -25.4297  -31.1723   21.5694 C   0  0  0  0  0  0  0  0  0  0  0  0
  -27.7217  -19.1652   19.5256 C   0  0  0  0  0  0  0  0  0  0  0  0
  -23.0270  -16.8994   20.6075 C   0  0  0  0  0  0  0  0  0  0  0  0
  -24.3575  -15.0590   21.3993 C   0  0  0  0  0  0  0  0  0  0  0  0
  -25.8245  -29.0080   20.5710 C   0  0  0  0  0  0  0  0  0  0  0  0
  -20.1256  -26.6549   21.9015 C   0  0  0  0  0  0  0  0  0  0  0  0
  -18.1165  -25.5943   23.0617 C   0  0  0  0  0  0  0  0  0  0  0  0
  -30.0034  -27.7314   21.6524 C   0  0  0  0  0  0  0  0  0  0  0  0
  -29.1303  -20.4726   20.9975 C   0  0  0  0  0  0  0  0  0  0  0  0
  -29.2622  -26.5354   21.6013 C   0  0  0  0  0  0  0  0  0  0  0  0
  -28.7941  -20.0528   19.7026 C   0  0  0  0  0  0  0  0  0  0  0  0
  -24.1949  -16.4245   21.1938 C   0  0  0  0  0  0  0  0  0  0  0  0
  -21.5526  -28.7930   20.8176 C   0  0  0  0  0  0  0  0  0  0  0  0
  -27.0019  -18.6919   20.6224 C   0  0  0  0  0  0  0  0  0  0  0  0
  -23.5942  -29.9362   20.5999 C   0  0  0  0  0  0  0  0  0  0  0  0
  -26.3047  -30.1415   21.2270 C   0  0  0  0  0  0  0  0  0  0  0  0
  -24.4692  -28.9054   20.2575 C   0  0  0  0  0  0  0  0  0  0  0  0
  -19.3887  -25.5502   22.4605 C   0  0  0  0  0  0  0  0  0  0  0  0
  -22.0597  -15.9750   20.2475 C   0  0  0  0  0  0  0  0  0  0  0  0
  -23.3305  -14.2170   21.0041 C   0  0  0  0  0  0  0  0  0  0  0  0
  -17.8633  -24.2942   23.4254 C   0  0  0  0  0  0  0  0  0  0  0  0
  -17.2418  -26.7106   23.2725 C   0  0  0  0  0  0  0  0  0  0  0  0
  -29.6431  -23.3549   19.7594 C   0  0  0  0  0  0  0  0  0  0  0  0
  -31.6636  -21.7300   17.8102 C   0  0  0  0  0  0  0  0  0  0  0  0
  -32.5337  -18.7644   16.3629 C   0  0  0  0  0  0  0  0  0  0  0  0
  -19.8147  -19.1558   21.2703 C   0  0  0  0  0  0  0  0  0  0  0  0
  -30.6549  -28.3141   20.4233 C   0  0  0  0  0  0  0  0  0  0  0  0
  -30.2904  -21.4040   21.2192 C   0  0  0  0  0  0  0  0  0  0  0  0
  -29.5485  -20.5353   18.4916 C   0  0  0  0  0  0  0  0  0  0  0  0
  -30.8118  -27.3109   19.2835 C   0  0  0  0  0  0  0  0  0  0  0  0
  -20.0990  -20.2604   24.7049 C   0  0  0  0  0  0  0  0  0  0  0  0
  -29.5164  -26.5326   19.0752 C   0  0  0  0  0  0  0  0  0  0  0  0
  -19.8244  -21.7589   24.5662 C   0  0  0  0  0  0  0  0  0  0  0  0
  -20.9058  -19.7344   23.5214 C   0  0  0  0  0  0  0  0  0  0  0  0
  -20.0176  -21.4999   22.0491 C   0  0  0  0  0  0  0  0  0  0  0  0
  -29.1497  -25.7266   20.3272 C   0  0  1  0  0  0  0  0  0  0  0  0
  -30.6266  -22.2426   19.9900 C   0  0  1  0  0  0  0  0  0  0  0  0
  -19.1860  -22.0878   23.2037 C   0  0  2  0  0  0  0  0  0  0  0  0
  -25.7142  -12.5265   19.9056 C   0  0  0  0  0  0  0  0  0  0  0  0
  -34.2082  -17.7572   14.7884 C   0  0  0  0  0  0  0  0  0  0  0  0
  -19.2680  -12.0269   23.8904 C   0  0  0  0  0  0  0  0  0  0  0  0
  -21.1215  -10.3360   24.0090 C   0  0  0  0  0  0  0  0  0  0  0  0
  -22.6939  -11.9395   20.1260 C   0  0  0  0  0  0  0  0  0  0  0  0
  -30.1936  -22.9838   15.4486 C   0  0  0  0  0  0  0  0  0  0  0  0
  -31.2418  -21.2573   13.9692 C   0  0  0  0  0  0  0  0  0  0  0  0
  -32.6797  -22.8849   15.1964 C   0  0  0  0  0  0  0  0  0  0  0  0
  -33.5520  -16.9200   18.4414 C   0  0  0  0  0  0  0  0  0  0  0  0
  -23.6006  -12.7843   23.6979 C   0  0  0  0  0  0  0  0  0  0  0  0
  -25.2758  -17.3817   21.6021 C   0  0  0  0  0  0  0  0  0  1  0  0
  -20.7941  -16.4483   19.6143 C   0  0  0  0  0  0  0  0  0  0  0  0
  -24.9606  -12.2490   21.2039 C   0  0  0  0  0  0  0  0  0  0  0  0
  -19.6839  -16.7639   20.6234 C   0  0  0  0  0  0  0  0  0  0  0  0
  -21.4106  -12.4172   22.5711 C   0  0  0  0  0  0  0  0  0  0  0  0
  -31.5333  -21.0316   16.4782 C   0  0  1  0  0  0  0  0  0  0  0  0
  -33.8715  -18.0574   16.2407 C   0  0  2  0  0  0  0  0  0  0  0  0
  -20.7820  -11.8171   23.8339 C   0  0  0  0  0  0  0  0  0  0  0  0
  -23.4705  -12.7459   21.2113 C   0  0  1  0  0  0  0  0  0  0  0  0
  -31.3965  -22.0316   15.2956 C   0  0  0  0  0  0  0  0  0  0  0  0
  -19.9076  -24.3196   22.4416 N   0  0  0  0  0  0  0  0  0  0  0  0
  -22.1818  -14.6413   20.4314 N   0  0  0  0  0  0  0  0  0  0  0  0
  -18.9568  -23.5784   23.0354 N   0  0  0  0  0  0  0  0  0  0  0  0
  -30.6707  -21.4498   18.7596 N   0  0  0  0  0  0  0  0  0  0  0  0
  -20.2345  -20.0642   22.2562 N   0  0  0  0  0  0  0  0  0  0  0  0
  -16.8142  -23.7050   24.0375 N   0  0  0  0  0  0  0  0  0  0  0  0
  -17.6572  -27.9764   22.8373 N   0  0  0  0  0  0  0  0  0  0  0  0
  -29.9597  -24.5304   20.4133 N   0  0  0  0  0  0  0  0  0  0  0  0
  -32.6798  -20.1355   16.3733 N   0  0  0  0  0  0  0  0  0  0  0  0
  -20.0635  -17.8157   21.5402 N   0  0  0  0  0  0  0  0  0  0  0  0
  -33.8483  -16.7713   16.9933 N   0  3  0  0  0  0  0  0  0  0  0  0
  -22.8858  -12.2088   22.5233 N   0  3  1  0  0  0  0  0  0  0  0  0
  -16.1319  -26.5919   23.8449 O   0  0  0  0  0  0  0  0  0  0  0  0
  -28.6699  -23.1615   19.0403 O   0  0  0  0  0  0  0  0  0  0  0  0
  -32.6154  -22.4905   18.0037 O   0  0  0  0  0  0  0  0  0  0  0  0
  -31.4657  -18.1608   16.4376 O   0  0  0  0  0  0  0  0  0  0  0  0
  -19.2543  -19.5124   20.2282 O   0  0  0  0  0  0  0  0  0  0  0  0
  -22.2485  -29.8362   20.2885 O   0  0  0  0  0  0  0  0  0  0  0  0
  -25.9652  -17.8303   20.4360 O   0  0  0  0  0  0  0  0  0  1  0  0
  -27.6064  -30.2408   21.5269 F   0  0  0  0  0  0  0  0  0  0  0  0
  -24.0139  -27.8145   19.6262 F   0  0  0  0  0  0  0  0  0  0  0  0
  1  2  1  0  0  0  0
  1  5  2  0  0  0  0
  2  6  2  0  0  0  0
  3  8  2  0  0  0  0
  3 17  1  0  0  0  0
  4  9  1  0  0  0  0
  4 17  2  0  0  0  0
  5 19  1  0  0  0  0
  6 21  1  0  0  0  0
  7 10  2  0  0  0  0
  7 20  1  0  0  0  0
  8 24  1  0  0  0  0
  9 24  2  0  0  0  0
 10 25  1  0  0  0  0
 11 12  2  0  0  0  0
 11 26  1  0  0  0  0
 12 27  1  0  0  0  0
 13 22  1  0  0  0  0
 13 25  2  0  0  0  0
 14 23  1  0  0  0  0
 14 30  2  0  0  0  0
 15 23  2  0  0  0  0
 15 31  1  0  0  0  0
 16 27  2  0  0  0  0
 16 28  1  0  0  0  0
 17 29  1  0  0  0  0
 18 29  1  0  0  0  0
 18 32  2  0  0  0  0
 18 33  1  0  0  0  0
 19 21  2  0  0  0  0
 19 38  1  0  0  0  0
 20 22  2  0  0  0  0
 20 39  1  0  0  0  0
 21 47  1  0  0  0  0
 22 40  1  0  0  0  0
 23 60  1  0  0  0  0
 24 87  1  0  0  0  0
 25 88  1  0  0  0  0
 26 28  2  0  0  0  0
 26 87  1  0  0  0  0
 27 89  1  0  0  0  0
 28 90  1  0  0  0  0
 29 70  2  0  0  0  0
 30 61  1  0  0  0  0
 30 71  1  0  0  0  0
 31 68  1  0  0  0  0
 31 71  2  0  0  0  0
 32 72  1  0  0  0  0
 32 75  1  0  0  0  0
 33 76  1  0  0  0  0
 33 82  2  0  0  0  0
 34 48  1  0  0  0  0
 34 77  1  0  0  0  0
 34 83  2  0  0  0  0
 35 65  1  0  0  0  0
 35 73  1  0  0  0  0
 35 84  2  0  0  0  0
 36 66  1  0  0  0  0
 36 78  1  0  0  0  0
 36 85  2  0  0  0  0
 37 74  1  0  0  0  0
 37 79  1  0  0  0  0
 37 86  2  0  0  0  0
 38 41  1  0  0  0  0
 39 48  1  0  0  0  0
 40 73  1  0  0  0  0
 41 43  1  0  0  0  0
 42 44  1  0  0  0  0
 42 45  1  0  0  0  0
 43 47  1  0  0  0  0
 44 49  1  0  0  0  0
 45 74  1  0  0  0  0
 46 49  1  0  0  0  0
 46 74  1  0  0  0  0
 47 77  1  0  0  0  0
 48 73  1  0  0  0  0
 49 72  1  0  0  0  0
 50 62  1  0  0  0  0
 51 66  1  0  0  0  0
 52 67  1  0  0  0  0
 53 67  1  0  0  0  0
 54 68  1  0  0  0  0
 55 69  1  0  0  0  0
 56 69  1  0  0  0  0
 57 69  1  0  0  0  0
 58 80  1  0  0  0  0
 59 81  1  0  0  0  0
 60 88  1  0  0  0  0
 61 63  1  0  0  0  0
 62 68  1  0  0  0  0
 63 79  1  0  0  0  0
 64 67  1  0  0  0  0
 64 81  1  0  0  0  0
 65 69  1  0  0  0  0
 65 78  1  0  0  0  0
 66 80  1  0  0  0  0
 68 81  1  0  0  0  0
 70 72  1  0  0  0  0
M  CHG  2  80   1  81   1
M  ISO  4  37 100  60 101  79 100  88 101
M  END
> <Batch ID>
0048

> <Smiles>
CCC(C)(c1cc([101CH2:1][101O:1]c2ccc3c(c2)CN(C(=O)C(NC(=O)C(C)NC)C(C)(C)C)C(C(=O)NC2CCCc4ccccc42)C3)cc(CC[100NH:0][100C:0](=O)N2CCCC(n3nc(-c4ccc(Oc5ccc(F)cc5F)cc4)c(C(N)=O)c3N)C2)n1)N(C)CC(C)C

> <Shape>
0.228

> <Color>
0.054

> <Negative vol penalty>
0.000

$$$$

  -OEChem-04052317263D

 85 93  0     1  0  0  0  0  0999 V2000
  -22.5066  -11.0659   18.7890 C   0  0  0  0  0  0  0  0  0  0  0  0
  -22.0532  -12.3798   18.8477 C   0  0  0  0  0  0  0  0  0  0  0  0
  -29.9876  -28.5060   19.0792 C   0  0  0  0  0  0  0  0  0  0  0  0
  -29.8253  -27.8929   21.4105 C   0  0  0  0  0  0  0  0  0  0  0  0
  -23.6805  -10.7046   19.4488 C   0  0  0  0  0  0  0  0  0  0  0  0
  -22.7730  -13.3330   19.5672 C   0  0  0  0  0  0  0  0  0  0  0  0
  -23.4239  -19.2652   18.1916 C   0  0  0  0  0  0  0  0  0  0  0  0
  -31.3769  -28.5602   19.1902 C   0  0  0  0  0  0  0  0  0  0  0  0
  -31.2147  -27.9470   21.5214 C   0  0  0  0  0  0  0  0  0  0  0  0
  -22.7769  -20.4112   18.6519 C   0  0  0  0  0  0  0  0  0  0  0  0
  -33.5970  -30.3237   21.8489 C   0  0  0  0  0  0  0  0  0  0  0  0
  -34.1335  -30.9729   22.9608 C   0  0  0  0  0  0  0  0  0  0  0  0
  -24.5570  -20.7711   20.2396 C   0  0  0  0  0  0  0  0  0  0  0  0
  -35.2342  -28.9270   23.6241 C   0  0  0  0  0  0  0  0  0  0  0  0
  -19.0138  -24.1130   22.5555 C   0  0  0  0  0  0  0  0  0  0  0  0
  -19.3786  -22.8032   22.6909 C   0  0  0  0  0  0  0  0  0  0  0  0
  -29.2117  -28.1724   20.1894 C   0  0  0  0  0  0  0  0  0  0  0  0
  -26.9940  -26.9994   19.7274 C   0  0  0  0  0  0  0  0  0  0  0  0
  -24.4202  -11.6560   20.1687 C   0  0  0  0  0  0  0  0  0  0  0  0
  -24.6388  -18.8567   18.7603 C   0  0  0  0  0  0  0  0  0  0  0  0
  -23.9572  -12.9839   20.2384 C   0  0  0  0  0  0  0  0  0  0  0  0
  -25.2186  -19.6209   19.7831 C   0  0  0  0  0  0  0  0  0  0  0  0
  -31.9905  -28.2807   20.4112 C   0  0  0  0  0  0  0  0  0  0  0  0
  -23.3420  -21.1628   19.6780 C   0  0  0  0  0  0  0  0  0  0  0  0
  -33.8790  -28.9762   21.6246 C   0  0  0  0  0  0  0  0  0  0  0  0
  -34.9521  -30.2745   23.8484 C   0  0  0  0  0  0  0  0  0  0  0  0
  -34.6977  -28.2778   22.5122 C   0  0  0  0  0  0  0  0  0  0  0  0
  -27.7765  -28.1167   20.0756 C   0  0  0  0  0  0  0  0  0  0  0  0
  -25.7012  -27.4621   19.7600 C   0  0  0  0  0  0  0  0  0  0  0  0
  -21.1421  -23.9330   21.9739 C   0  0  0  0  0  0  0  0  0  0  0  0
  -27.3995  -25.6629   19.4037 C   0  0  0  0  0  0  0  0  0  0  0  0
  -25.6209  -16.2814   20.3437 C   0  0  0  0  0  0  0  0  0  0  0  0
  -28.5200  -17.7158   20.0992 C   0  0  0  0  0  0  0  0  0  0  0  0
  -30.3013  -20.5992   19.6988 C   0  0  0  0  0  0  0  0  0  0  0  0
  -21.6420  -30.3939   22.2243 C   0  0  0  0  0  0  0  0  0  0  0  0
  -25.6579  -11.2078   20.9049 C   0  0  0  0  0  0  0  0  0  0  0  0
  -25.3374  -17.6329   18.2344 C   0  0  0  0  0  0  0  0  0  0  0  0
  -26.5315  -19.2365   20.4133 C   0  0  0  0  0  0  0  0  0  0  0  0
  -26.5618  -12.3604   21.3347 C   0  0  0  0  0  0  0  0  0  0  0  0
  -23.8990  -32.1745   20.1238 C   0  0  0  0  0  0  0  0  0  0  0  0
  -25.7396  -13.4719   21.9792 C   0  0  0  0  0  0  0  0  0  0  0  0
  -25.0466  -31.1880   19.9007 C   0  0  0  0  0  0  0  0  0  0  0  0
  -23.3319  -32.0700   21.5378 C   0  0  0  0  0  0  0  0  0  0  0  0
  -24.0698  -29.7256   21.7190 C   0  0  0  0  0  0  0  0  0  0  0  0
  -24.7234  -14.0520   20.9881 C   0  0  1  0  0  0  0  0  0  0  0  0
  -26.3136  -17.0249   19.2369 C   0  0  1  0  0  0  0  0  0  0  0  0
  -24.6375  -29.7546   20.2896 C   0  0  2  0  0  0  0  0  0  0  0  0
  -32.6556  -21.4595   19.5779 C   0  0  0  0  0  0  0  0  0  0  0  0
  -19.5756  -25.8311   19.3595 C   0  0  0  0  0  0  0  0  0  0  0  0
  -17.7598  -26.5703   20.9193 C   0  0  0  0  0  0  0  0  0  0  0  0
  -21.0029  -26.6929   24.2234 C   0  0  0  0  0  0  0  0  0  0  0  0
  -28.7777  -17.4292   23.1260 C   0  0  0  0  0  0  0  0  0  0  0  0
  -30.6345  -19.1072   23.0569 C   0  0  0  0  0  0  0  0  0  0  0  0
  -30.8712  -16.9372   21.8496 C   0  0  0  0  0  0  0  0  0  0  0  0
  -29.9102  -21.6199   16.9485 C   0  0  0  0  0  0  0  0  0  0  0  0
  -22.5413  -24.2563   21.5091 C   0  0  0  0  0  0  0  0  0  0  0  0
  -20.0615  -28.5989   22.8869 C   0  0  0  0  0  0  0  0  0  0  0  0
  -23.3479  -23.0039   21.1834 C   0  0  0  0  0  0  0  0  0  1  0  0
  -29.3014  -18.6974   20.9389 C   0  0  1  0  0  0  0  0  0  0  0  0
  -31.4630  -20.9469   18.7856 C   0  0  2  0  0  0  0  0  0  0  0  0
  -19.2636  -26.6254   20.6357 C   0  0  0  0  0  0  0  0  0  0  0  0
  -19.9860  -27.0780   23.1314 C   0  0  1  0  0  0  0  0  0  0  0  0
  -20.1804  -26.2114   21.8361 C   0  0  1  0  0  0  0  0  0  0  0  0
  -29.8705  -18.0492   22.2325 C   0  0  0  0  0  0  0  0  0  0  0  0
  -27.0421  -29.2071   20.3117 N   0  0  0  0  0  0  0  0  0  0  0  0
  -20.1244  -24.7891   22.1110 N   0  0  0  0  0  0  0  0  0  0  0  0
  -25.7846  -28.7772   20.1116 N   0  0  0  0  0  0  0  0  0  0  0  0
  -20.7002  -22.7208   22.3240 N   0  3  0  0  0  0  0  0  0  0  0  0
  -27.1727  -18.0282   19.8689 N   0  0  0  0  0  0  0  0  0  0  0  0
  -22.9620  -30.6859   21.8433 N   0  0  0  0  0  0  0  0  0  0  0  0
  -24.5125  -26.8682   19.5218 N   0  0  0  0  0  0  0  0  0  0  0  0
  -28.7673  -25.3577   19.4179 N   0  0  0  0  0  0  0  0  0  0  0  0
  -25.3776  -14.9508   20.0614 N   0  0  0  0  0  0  0  0  0  0  0  0
  -30.3165  -19.2687   20.0604 N   0  0  0  0  0  0  0  0  0  0  0  0
  -21.3744  -29.0565   22.4898 N   0  0  0  0  0  0  0  0  0  0  0  0
  -31.0587  -21.9994   17.8110 N   0  3  0  0  0  0  0  0  0  0  0  0
  -26.5744  -24.7700   19.0945 O   0  0  0  0  0  0  0  0  0  0  0  0
  -25.3301  -16.8709   21.3779 O   0  0  0  0  0  0  0  0  0  0  0  0
  -29.0861  -16.7127   19.6578 O   0  0  0  0  0  0  0  0  0  0  0  0
  -29.4662  -21.4260   20.0586 O   0  0  0  0  0  0  0  0  0  0  0  0
  -20.7654  -31.2601   22.3157 O   0  0  0  0  0  0  0  0  0  0  0  0
  -33.3463  -28.3333   20.5198 O   0  0  0  0  0  0  0  0  0  0  0  0
  -22.7124  -22.2815   20.1295 O   0  0  0  0  0  0  0  0  0  1  0  0
  -35.4685  -30.8984   24.9153 F   0  0  0  0  0  0  0  0  0  0  0  0
  -34.9732  -26.9834   22.3013 F   0  0  0  0  0  0  0  0  0  0  0  0
  1  2  1  0  0  0  0
  1  5  2  0  0  0  0
  2  6  2  0  0  0  0
  3  8  2  0  0  0  0
  3 17  1  0  0  0  0
  4  9  1  0  0  0  0
  4 17  2  0  0  0  0
  5 19  1  0  0  0  0
  6 21  1  0  0  0  0
  7 10  2  0  0  0  0
  7 20  1  0  0  0  0
  8 23  1  0  0  0  0
  9 23  2  0  0  0  0
 10 24  1  0  0  0  0
 11 12  2  0  0  0  0
 11 25  1  0  0  0  0
 12 26  1  0  0  0  0
 13 22  1  0  0  0  0
 13 24  2  0  0  0  0
 14 26  2  0  0  0  0
 14 27  1  0  0  0  0
 15 16  2  0  0  0  0
 15 66  1  0  0  0  0
 16 68  1  0  0  0  0
 17 28  1  0  0  0  0
 18 28  1  0  0  0  0
 18 29  2  0  0  0  0
 18 31  1  0  0  0  0
 19 21  2  0  0  0  0
 19 36  1  0  0  0  0
 20 22  2  0  0  0  0
 20 37  1  0  0  0  0
 21 45  1  0  0  0  0
 22 38  1  0  0  0  0
 23 82  1  0  0  0  0
 24 83  1  0  0  0  0
 25 27  2  0  0  0  0
 25 82  1  0  0  0  0
 26 84  1  0  0  0  0
 27 85  1  0  0  0  0
 28 65  2  0  0  0  0
 29 67  1  0  0  0  0
 29 71  1  0  0  0  0
 30 56  1  0  0  0  0
 30 66  1  0  0  0  0
 30 68  2  0  0  0  0
 31 72  1  0  0  0  0
 31 77  2  0  0  0  0
 32 46  1  0  0  0  0
 32 73  1  0  0  0  0
 32 78  2  0  0  0  0
 33 59  1  0  0  0  0
 33 69  1  0  0  0  0
 33 79  2  0  0  0  0
 34 60  1  0  0  0  0
 34 74  1  0  0  0  0
 34 80  2  0  0  0  0
 35 70  1  0  0  0  0
 35 75  1  0  0  0  0
 35 81  2  0  0  0  0
 36 39  1  0  0  0  0
 37 46  1  0  0  0  0
 38 69  1  0  0  0  0
 39 41  1  0  0  0  0
 40 42  1  0  0  0  0
 40 43  1  0  0  0  0
 41 45  1  0  0  0  0
 42 47  1  0  0  0  0
 43 70  1  0  0  0  0
 44 47  1  0  0  0  0
 44 70  1  0  0  0  0
 45 73  1  0  0  0  0
 46 69  1  0  0  0  0
 47 67  1  0  0  0  0
 48 60  1  0  0  0  0
 49 61  1  0  0  0  0
 50 61  1  0  0  0  0
 51 62  1  0  0  0  0
 52 64  1  0  0  0  0
 53 64  1  0  0  0  0
 54 64  1  0  0  0  0
 55 76  1  0  0  0  0
 56 58  1  0  0  0  0
 57 62  1  0  0  0  0
 57 75  1  0  0  0  0
 58 83  1  0  0  0  0
 59 64  1  0  0  0  0
 59 74  1  0  0  0  0
 60 76  1  0  0  0  0
 61 63  1  0  0  0  0
 62 63  1  0  0  0  0
 63 66  1  0  0  0  0
 65 67  1  0  0  0  0
M  CHG  2  68   1  76   1
M  ISO  4  35 100  58 101  75 100  83 101
M  END
> <Batch ID>
0048

> <Smiles>
CNC(C)C(=O)NC(C(=O)N1Cc2cc([101O:1][101CH2:1]Cc3nccn3C(C(C)C)C(C)C[100NH:0][100C:0](=O)N3CCCC(n4nc(-c5ccc(Oc6ccc(F)cc6F)cc5)c(C(N)=O)c4N)C3)ccc2CC1C(=O)NC1CCCc2ccccc21)C(C)(C)C

> <Shape>
0.233

> <Color>
0.076

> <Negative vol penalty>
0.000

$$$$

  -OEChem-04052317263D

 82 90  0     1  0  0  0  0  0999 V2000
  -16.7056  -29.0493   24.2074 C   0  0  0  0  0  0  0  0  0  0  0  0
  -17.4881  -27.9438   23.8899 C   0  0  0  0  0  0  0  0  0  0  0  0
  -23.3887   -9.3950   19.6904 C   0  0  0  0  0  0  0  0  0  0  0  0
  -24.4366   -9.2829   21.8644 C   0  0  0  0  0  0  0  0  0  0  0  0
  -17.0405  -30.3063   23.7054 C   0  0  0  0  0  0  0  0  0  0  0  0
  -18.6055  -28.0943   23.0693 C   0  0  0  0  0  0  0  0  0  0  0  0
  -22.6546  -25.6118   24.8261 C   0  0  0  0  0  0  0  0  0  0  0  0
  -22.2772   -8.7173   20.1911 C   0  0  0  0  0  0  0  0  0  0  0  0
  -23.3250   -8.6052   22.3652 C   0  0  0  0  0  0  0  0  0  0  0  0
  -22.6964  -24.2339   24.6180 C   0  0  0  0  0  0  0  0  0  0  0  0
  -22.0883   -5.4592   22.3021 C   0  0  0  0  0  0  0  0  0  0  0  0
  -22.3179   -4.3405   23.1029 C   0  0  0  0  0  0  0  0  0  0  0  0
  -24.1760  -24.5681   22.7422 C   0  0  0  0  0  0  0  0  0  0  0  0
  -21.1477   -5.4068   24.9279 C   0  0  0  0  0  0  0  0  0  0  0  0
  -24.4685   -9.6778   20.5270 C   0  0  0  0  0  0  0  0  0  0  0  0
  -26.4604   -9.9677   18.9599 C   0  0  0  0  0  0  0  0  0  0  0  0
  -18.1680  -30.4740   22.8861 C   0  0  0  0  0  0  0  0  0  0  0  0
  -23.3657  -26.4805   23.9857 C   0  0  0  0  0  0  0  0  0  0  0  0
  -18.9550  -29.3544   22.5549 C   0  0  0  0  0  0  0  0  0  0  0  0
  -24.1436  -25.9565   22.9434 C   0  0  0  0  0  0  0  0  0  0  0  0
  -22.2453   -8.3224   21.5285 C   0  0  0  0  0  0  0  0  0  0  0  0
  -23.4548  -23.7120   23.5742 C   0  0  0  0  0  0  0  0  0  0  0  0
  -21.3885   -6.5518   22.8141 C   0  0  0  0  0  0  0  0  0  0  0  0
  -21.8476   -4.3142   24.4158 C   0  0  0  0  0  0  0  0  0  0  0  0
  -20.9182   -6.5255   24.1271 C   0  0  0  0  0  0  0  0  0  0  0  0
  -25.6173  -10.3773   20.0102 C   0  0  0  0  0  0  0  0  0  0  0  0
  -27.3927  -10.9710   18.8569 C   0  0  0  0  0  0  0  0  0  0  0  0
  -26.4056   -8.7860   18.1497 C   0  0  0  0  0  0  0  0  0  0  0  0
  -22.5701  -28.8306   21.9989 C   0  0  0  0  0  0  0  0  0  0  0  0
  -25.7843  -29.2105   21.7824 C   0  0  0  0  0  0  0  0  0  0  0  0
  -29.0605  -29.8041   21.0335 C   0  0  0  0  0  0  0  0  0  0  0  0
  -27.3200  -16.6340   20.0947 C   0  0  0  0  0  0  0  0  0  0  0  0
  -18.4630  -31.8440   22.3287 C   0  0  0  0  0  0  0  0  0  0  0  0
  -23.3316  -27.9626   24.2400 C   0  0  0  0  0  0  0  0  0  0  0  0
  -24.9414  -26.8450   22.0254 C   0  0  0  0  0  0  0  0  0  0  0  0
  -19.8773  -31.9832   21.7713 C   0  0  0  0  0  0  0  0  0  0  0  0
  -23.9837  -18.0478   22.9478 C   0  0  0  0  0  0  0  0  0  0  0  0
  -29.6125  -14.3133   21.4478 C   0  0  0  0  0  0  0  0  0  0  0  0
  -20.2226  -30.7890   20.8872 C   0  0  0  0  0  0  0  0  0  0  0  0
  -25.3048  -17.8154   22.2204 C   0  0  0  0  0  0  0  0  0  0  0  0
  -23.5363  -19.5030   23.0474 C   0  0  0  0  0  0  0  0  0  0  0  0
  -26.5209  -19.3268   23.9081 C   0  0  0  0  0  0  0  0  0  0  0  0
  -25.6112  -20.5248   24.1899 C   0  0  0  0  0  0  0  0  0  0  0  0
  -28.9205  -12.9872   21.1356 C   0  0  0  0  0  0  0  0  0  0  0  0
  -28.6188  -15.3908   21.8860 C   0  0  0  0  0  0  0  0  0  0  0  0
  -26.8095  -14.2694   20.6244 C   0  0  0  0  0  0  0  0  0  0  0  0
  -20.1889  -29.4817   21.6880 C   0  0  1  0  0  0  0  0  0  0  0  0
  -23.6837  -28.7886   23.0067 C   0  0  1  0  0  0  0  0  0  0  0  0
  -26.4260  -18.8374   22.4561 C   0  0  1  0  0  0  0  0  0  0  0  0
  -24.1099  -20.2207   24.2797 C   0  0  1  0  0  0  0  0  0  0  0  0
  -27.7786  -13.1873   20.1240 C   0  0  2  0  0  0  0  0  0  0  0  0
  -26.5855  -19.7843   19.5395 C   0  0  0  0  0  0  0  0  0  0  0  0
  -30.5247  -30.8179   19.2655 C   0  0  0  0  0  0  0  0  0  0  0  0
  -25.3420  -26.7624   20.0157 C   0  0  0  0  0  0  0  0  0  0  0  0
  -27.4548  -27.3417   18.8038 C   0  0  0  0  0  0  0  0  0  0  0  0
  -25.5275  -28.9252   18.7739 C   0  0  0  0  0  0  0  0  0  0  0  0
  -30.1509  -31.8065   22.9205 C   0  0  0  0  0  0  0  0  0  0  0  0
  -27.7608  -18.2266   22.0115 C   0  0  0  0  0  0  0  0  0  0  0  0
  -23.3461  -21.5301   24.5140 C   0  0  0  0  0  0  0  0  0  1  0  0
  -27.8745  -18.9986   19.6712 C   0  0  0  0  0  0  0  0  0  0  0  0
  -26.8703  -28.6470   20.8979 C   0  0  1  0  0  0  0  0  0  0  0  0
  -29.7757  -31.0592   20.5669 C   0  0  2  0  0  0  0  0  0  0  0  0
  -26.2988  -27.9150   19.6510 C   0  0  0  0  0  0  0  0  0  0  0  0
  -25.9818  -11.5493   20.5369 N   0  0  0  0  0  0  0  0  0  0  0  0
  -27.0644  -11.8848   19.8147 N   0  0  0  0  0  0  0  0  0  0  0  0
  -24.8707  -28.2875   22.3109 N   0  0  0  0  0  0  0  0  0  0  0  0
  -27.5211  -15.5160   20.9174 N   0  0  0  0  0  0  0  0  0  0  0  0
  -28.4532  -11.1518   18.0414 N   0  0  0  0  0  0  0  0  0  0  0  0
  -27.1013   -7.6480   18.5802 N   0  0  0  0  0  0  0  0  0  0  0  0
  -21.3867  -29.3488   22.4893 N   0  0  0  0  0  0  0  0  0  0  0  0
  -27.7584  -29.7606   20.5822 N   0  0  0  0  0  0  0  0  0  0  0  0
  -27.7314  -17.8797   20.5920 N   0  0  0  0  0  0  0  0  0  0  0  0
  -30.7548  -31.5104   21.5959 N   0  3  0  0  0  0  0  0  0  0  0  0
  -25.7724   -8.7457   17.0677 O   0  0  0  0  0  0  0  0  0  0  0  0
  -22.7702  -28.4244   20.8602 O   0  0  0  0  0  0  0  0  0  0  0  0
  -25.7522  -30.4239   22.0022 O   0  0  0  0  0  0  0  0  0  0  0  0
  -29.6039  -28.9462   21.7258 O   0  0  0  0  0  0  0  0  0  0  0  0
  -26.7940  -16.5277   18.9792 O   0  0  0  0  0  0  0  0  0  0  0  0
  -21.1607   -7.6613   22.0176 O   0  0  0  0  0  0  0  0  0  0  0  0
  -23.4968  -22.3675   23.3684 O   0  0  0  0  0  0  0  0  0  1  0  0
  -22.0668   -3.2392   25.1842 F   0  0  0  0  0  0  0  0  0  0  0  0
  -20.2441   -7.5717   24.6242 F   0  0  0  0  0  0  0  0  0  0  0  0
  1  2  1  0  0  0  0
  1  5  2  0  0  0  0
  2  6  2  0  0  0  0
  3  8  2  0  0  0  0
  3 15  1  0  0  0  0
  4  9  1  0  0  0  0
  4 15  2  0  0  0  0
  5 17  1  0  0  0  0
  6 19  1  0  0  0  0
  7 10  2  0  0  0  0
  7 18  1  0  0  0  0
  8 21  1  0  0  0  0
  9 21  2  0  0  0  0
 10 22  1  0  0  0  0
 11 12  2  0  0  0  0
 11 23  1  0  0  0  0
 12 24  1  0  0  0  0
 13 20  1  0  0  0  0
 13 22  2  0  0  0  0
 14 24  2  0  0  0  0
 14 25  1  0  0  0  0
 15 26  1  0  0  0  0
 16 26  1  0  0  0  0
 16 27  2  0  0  0  0
 16 28  1  0  0  0  0
 17 19  2  0  0  0  0
 17 33  1  0  0  0  0
 18 20  2  0  0  0  0
 18 34  1  0  0  0  0
 19 47  1  0  0  0  0
 20 35  1  0  0  0  0
 21 79  1  0  0  0  0
 22 80  1  0  0  0  0
 23 25  2  0  0  0  0
 23 79  1  0  0  0  0
 24 81  1  0  0  0  0
 25 82  1  0  0  0  0
 26 64  2  0  0  0  0
 27 65  1  0  0  0  0
 27 68  1  0  0  0  0
 28 69  1  0  0  0  0
 28 74  2  0  0  0  0
 29 48  1  0  0  0  0
 29 70  1  0  0  0  0
 29 75  2  0  0  0  0
 30 61  1  0  0  0  0
 30 66  1  0  0  0  0
 30 76  2  0  0  0  0
 31 62  1  0  0  0  0
 31 71  1  0  0  0  0
 31 77  2  0  0  0  0
 32 67  1  0  0  0  0
 32 72  1  0  0  0  0
 32 78  2  0  0  0  0
 33 36  1  0  0  0  0
 34 48  1  0  0  0  0
 35 66  1  0  0  0  0
 36 39  1  0  0  0  0
 37 40  1  0  0  0  0
 37 41  1  0  0  0  0
 38 44  1  0  0  0  0
 38 45  1  0  0  0  0
 39 47  1  0  0  0  0
 40 49  1  0  0  0  0
 41 50  1  0  0  0  0
 42 43  1  0  0  0  0
 42 49  1  0  0  0  0
 43 50  1  0  0  0  0
 44 51  1  0  0  0  0
 45 67  1  0  0  0  0
 46 51  1  0  0  0  0
 46 67  1  0  0  0  0
 47 70  1  0  0  0  0
 48 66  1  0  0  0  0
 49 58  1  0  0  0  0
 50 59  1  0  0  0  0
 51 65  1  0  0  0  0
 52 60  1  0  0  0  0
 53 62  1  0  0  0  0
 54 63  1  0  0  0  0
 55 63  1  0  0  0  0
 56 63  1  0  0  0  0
 57 73  1  0  0  0  0
 58 72  1  0  0  0  0
 59 80  1  0  0  0  0
 60 72  1  0  0  0  0
 61 63  1  0  0  0  0
 61 71  1  0  0  0  0
 62 73  1  0  0  0  0
 64 65  1  0  0  0  0
M  CHG  1  73   1
M  ISO  4  32 100  59 101  72 100  80 101
M  END
> <Batch ID>
0048

> <Smiles>
CC[100N:0](CC1CCCC([101CH2:1][101O:1]c2ccc3c(c2)CN(C(=O)C(NC(=O)C(C)NC)C(C)(C)C)C(C(=O)NC2CCCc4ccccc42)C3)CC1)[100C:0](=O)N1CCCC(n2nc(-c3ccc(Oc4ccc(F)cc4F)cc3)c(C(N)=O)c2N)C1

> <Shape>
0.239

> <Color>
0.106

> <Negative vol penalty>
0.000

$$$$

  -OEChem-04052317263D

 77 85  0     1  0  0  0  0  0999 V2000
  -17.6782  -32.4943   22.0664 C   0  0  0  0  0  0  0  0  0  0  0  0
  -19.0463  -32.3014   21.9033 C   0  0  0  0  0  0  0  0  0  0  0  0
  -25.8309  -14.7274   22.2963 C   0  0  0  0  0  0  0  0  0  0  0  0
  -25.5372  -13.9674   20.0218 C   0  0  0  0  0  0  0  0  0  0  0  0
  -16.8903  -31.4752   22.5997 C   0  0  0  0  0  0  0  0  0  0  0  0
  -19.6274  -31.0894   22.2745 C   0  0  0  0  0  0  0  0  0  0  0  0
  -24.3265  -28.2697   19.5407 C   0  0  0  0  0  0  0  0  0  0  0  0
  -24.8157  -13.8673   22.7148 C   0  0  0  0  0  0  0  0  0  0  0  0
  -24.5220  -13.1073   20.4403 C   0  0  0  0  0  0  0  0  0  0  0  0
  -25.6892  -28.2217   19.8312 C   0  0  0  0  0  0  0  0  0  0  0  0
  -24.2776  -10.0946   21.9519 C   0  0  0  0  0  0  0  0  0  0  0  0
  -24.2911   -8.7901   21.4584 C   0  0  0  0  0  0  0  0  0  0  0  0
  -25.3594  -26.1404   21.0053 C   0  0  0  0  0  0  0  0  0  0  0  0
  -22.1143   -9.1411   20.4709 C   0  0  0  0  0  0  0  0  0  0  0  0
  -29.7616  -24.5267   20.5327 C   0  0  0  0  0  0  0  0  0  0  0  0
  -29.5911  -25.0285   18.3936 C   0  0  0  0  0  0  0  0  0  0  0  0
  -26.1917  -14.7775   20.9498 C   0  0  0  0  0  0  0  0  0  0  0  0
  -28.6160  -15.3811   20.4342 C   0  0  0  0  0  0  0  0  0  0  0  0
  -17.4605  -30.2466   22.9687 C   0  0  0  0  0  0  0  0  0  0  0  0
  -23.4667  -27.2572   19.9903 C   0  0  0  0  0  0  0  0  0  0  0  0
  -18.8466  -30.0533   22.8145 C   0  0  0  0  0  0  0  0  0  0  0  0
  -23.9866  -26.1765   20.7169 C   0  0  0  0  0  0  0  0  0  0  0  0
  -24.1613  -13.0572   21.7868 C   0  0  0  0  0  0  0  0  0  0  0  0
  -26.2054  -27.1584   20.5662 C   0  0  0  0  0  0  0  0  0  0  0  0
  -23.1824  -10.9224   21.7050 C   0  0  0  0  0  0  0  0  0  0  0  0
  -23.2095   -8.3133   20.7179 C   0  0  0  0  0  0  0  0  0  0  0  0
  -22.1007  -10.4456   20.9644 C   0  0  0  0  0  0  0  0  0  0  0  0
  -27.2399  -15.6662   20.5168 C   0  0  0  0  0  0  0  0  0  0  0  0
  -29.6612  -23.3956   19.7572 C   0  0  0  0  0  0  0  0  0  0  0  0
  -29.1806  -16.5446   19.9716 C   0  0  0  0  0  0  0  0  0  0  0  0
  -29.3209  -14.1725   20.7474 C   0  0  0  0  0  0  0  0  0  0  0  0
  -29.6625  -22.0095   20.2409 C   0  0  0  0  0  0  0  0  0  0  0  0
  -20.9518  -27.1480   21.9311 C   0  0  0  0  0  0  0  0  0  0  0  0
  -20.8041  -24.0659   20.9304 C   0  0  0  0  0  0  0  0  0  0  0  0
  -22.4295  -21.3600   19.6331 C   0  0  0  0  0  0  0  0  0  0  0  0
  -16.5761  -29.1917   23.5848 C   0  0  0  0  0  0  0  0  0  0  0  0
  -22.0036  -27.3099   19.6456 C   0  0  0  0  0  0  0  0  0  0  0  0
  -23.1092  -25.0539   21.2054 C   0  0  0  0  0  0  0  0  0  0  0  0
  -17.2084  -27.8024   23.6046 C   0  0  0  0  0  0  0  0  0  0  0  0
  -27.0521  -20.7193   18.0757 C   0  0  0  0  0  0  0  0  0  0  0  0
  -18.6466  -27.8774   24.1074 C   0  0  0  0  0  0  0  0  0  0  0  0
  -26.9723  -19.2617   18.5314 C   0  0  0  0  0  0  0  0  0  0  0  0
  -27.3440  -21.6526   19.2468 C   0  0  0  0  0  0  0  0  0  0  0  0
  -28.4976  -19.8412   20.4722 C   0  0  0  0  0  0  0  0  0  0  0  0
  -19.5099  -28.7437   23.1823 C   0  0  1  0  0  0  0  0  0  0  0  0
  -21.1363  -26.4879   20.5940 C   0  0  1  0  0  0  0  0  0  0  0  0
  -28.2299  -18.8555   19.3215 C   0  0  1  0  0  0  0  0  0  0  0  0
  -22.0536  -18.9712   18.9625 C   0  0  0  0  0  0  0  0  0  0  0  0
  -20.8075  -23.2430   23.8686 C   0  0  0  0  0  0  0  0  0  0  0  0
  -21.3864  -20.9173   23.1445 C   0  0  0  0  0  0  0  0  0  0  0  0
  -19.2312  -21.9460   22.4238 C   0  0  0  0  0  0  0  0  0  0  0  0
  -23.1641  -21.9128   16.8200 C   0  0  0  0  0  0  0  0  0  0  0  0
  -29.7872  -27.0338   19.9834 C   0  0  0  0  0  0  0  0  0  0  0  0
  -28.4237  -27.7129   19.9123 C   0  0  0  0  0  0  0  0  0  1  0  0
  -21.3958  -22.7594   21.4016 C   0  0  1  0  0  0  0  0  0  0  0  0
  -22.0712  -20.4190   18.4971 C   0  0  2  0  0  0  0  0  0  0  0  0
  -20.7217  -22.2384   22.7022 C   0  0  0  0  0  0  0  0  0  0  0  0
  -29.5556  -23.7149   18.4266 N   0  0  0  0  0  0  0  0  0  0  0  0
  -26.9480  -16.9131   20.1373 N   0  0  0  0  0  0  0  0  0  0  0  0
  -29.7150  -25.5646   19.6451 N   0  0  0  0  0  0  0  0  0  0  0  0
  -28.1485  -17.4219   19.8119 N   0  0  0  0  0  0  0  0  0  0  0  0
  -28.5446  -21.2162   19.9710 N   0  0  0  0  0  0  0  0  0  0  0  0
  -21.6845  -25.1541   20.8483 N   0  0  0  0  0  0  0  0  0  0  0  0
  -30.4541  -16.8927   19.6901 N   0  0  0  0  0  0  0  0  0  0  0  0
  -28.5871  -13.0720   21.2107 N   0  0  0  0  0  0  0  0  0  0  0  0
  -19.8704  -28.0062   21.9904 N   0  0  0  0  0  0  0  0  0  0  0  0
  -21.3061  -21.8399   20.2725 N   0  0  0  0  0  0  0  0  0  0  0  0
  -23.0599  -20.5445   17.3891 N   0  3  0  0  0  0  0  0  0  0  0  0
  -30.5667  -14.0767   20.6359 O   0  0  0  0  0  0  0  0  0  0  0  0
  -30.6697  -21.6475   20.8472 O   0  0  0  0  0  0  0  0  0  0  0  0
  -21.7318  -26.8961   22.8421 O   0  0  0  0  0  0  0  0  0  0  0  0
  -19.6066  -24.1172   20.6390 O   0  0  0  0  0  0  0  0  0  0  0  0
  -23.5901  -21.6384   19.9266 O   0  0  0  0  0  0  0  0  0  0  0  0
  -23.1708  -12.2176   22.1949 O   0  0  0  0  0  0  0  0  0  0  0  0
  -27.5350  -27.1095   20.8517 O   0  0  0  0  0  0  0  0  0  1  0  0
  -23.2233   -7.0610   20.2428 F   0  0  0  0  0  0  0  0  0  0  0  0
  -21.0463  -11.2366   20.7229 F   0  0  0  0  0  0  0  0  0  0  0  0
  1  2  1  0  0  0  0
  1  5  2  0  0  0  0
  2  6  2  0  0  0  0
  3  8  2  0  0  0  0
  3 17  1  0  0  0  0
  4  9  1  0  0  0  0
  4 17  2  0  0  0  0
  5 19  1  0  0  0  0
  6 21  1  0  0  0  0
  7 10  2  0  0  0  0
  7 20  1  0  0  0  0
  8 23  1  0  0  0  0
  9 23  2  0  0  0  0
 10 24  1  0  0  0  0
 11 12  2  0  0  0  0
 11 25  1  0  0  0  0
 12 26  1  0  0  0  0
 13 22  1  0  0  0  0
 13 24  2  0  0  0  0
 14 26  2  0  0  0  0
 14 27  1  0  0  0  0
 15 29  2  0  0  0  0
 15 60  1  0  0  0  0
 16 58  2  0  0  0  0
 16 60  1  0  0  0  0
 17 28  1  0  0  0  0
 18 28  1  0  0  0  0
 18 30  2  0  0  0  0
 18 31  1  0  0  0  0
 19 21  2  0  0  0  0
 19 36  1  0  0  0  0
 20 22  2  0  0  0  0
 20 37  1  0  0  0  0
 21 45  1  0  0  0  0
 22 38  1  0  0  0  0
 23 74  1  0  0  0  0
 24 75  1  0  0  0  0
 25 27  2  0  0  0  0
 25 74  1  0  0  0  0
 26 76  1  0  0  0  0
 27 77  1  0  0  0  0
 28 59  2  0  0  0  0
 29 32  1  0  0  0  0
 29 58  1  0  0  0  0
 30 61  1  0  0  0  0
 30 64  1  0  0  0  0
 31 65  1  0  0  0  0
 31 69  2  0  0  0  0
 32 62  1  0  0  0  0
 32 70  2  0  0  0  0
 33 46  1  0  0  0  0
 33 66  1  0  0  0  0
 33 71  2  0  0  0  0
 34 55  1  0  0  0  0
 34 63  1  0  0  0  0
 34 72  2  0  0  0  0
 35 56  1  0  0  0  0
 35 67  1  0  0  0  0
 35 73  2  0  0  0  0
 36 39  1  0  0  0  0
 37 46  1  0  0  0  0
 38 63  1  0  0  0  0
 39 41  1  0  0  0  0
 40 42  1  0  0  0  0
 40 43  1  0  0  0  0
 41 45  1  0  0  0  0
 42 47  1  0  0  0  0
 43 62  1  0  0  0  0
 44 47  1  0  0  0  0
 44 62  1  0  0  0  0
 45 66  1  0  0  0  0
 46 63  1  0  0  0  0
 47 61  1  0  0  0  0
 48 56  1  0  0  0  0
 49 57  1  0  0  0  0
 50 57  1  0  0  0  0
 51 57  1  0  0  0  0
 52 68  1  0  0  0  0
 53 54  1  0  0  0  0
 53 60  1  0  0  0  0
 54 75  1  0  0  0  0
 55 57  1  0  0  0  0
 55 67  1  0  0  0  0
 56 68  1  0  0  0  0
 59 61  1  0  0  0  0
M  CHG  1  68   1
M  ISO  4  29 100  32 100  54 101  75 101
M  END
> <Batch ID>
0048

> <Smiles>
CNC(C)C(=O)NC(C(=O)N1Cc2cc([101O:1][101CH2:1]Cn3cn[100c:0]([100C:0](=O)N4CCCC(n5nc(-c6ccc(Oc7ccc(F)cc7F)cc6)c(C(N)=O)c5N)C4)c3)ccc2CC1C(=O)NC1CCCc2ccccc21)C(C)(C)C

> <Shape>
0.267

> <Color>
0.059

> <Negative vol penalty>
0.000

$$$$

  -OEChem-04052317263D

 80 88  0     1  0  0  0  0  0999 V2000
  -27.7511  -21.0689   27.7542 C   0  0  0  0  0  0  0  0  0  0  0  0
  -27.9456  -22.1521   26.9046 C   0  0  0  0  0  0  0  0  0  0  0  0
  -25.8824  -13.1200   21.8130 C   0  0  0  0  0  0  0  0  0  0  0  0
  -24.6898  -14.4062   20.1516 C   0  0  0  0  0  0  0  0  0  0  0  0
  -26.4861  -20.4962   27.8687 C   0  0  0  0  0  0  0  0  0  0  0  0
  -26.8728  -22.6704   26.1783 C   0  0  0  0  0  0  0  0  0  0  0  0
  -27.6788  -26.8136   23.6510 C   0  0  0  0  0  0  0  0  0  0  0  0
  -24.8236  -12.2138   21.8716 C   0  0  0  0  0  0  0  0  0  0  0  0
  -23.6310  -13.5000   20.2101 C   0  0  0  0  0  0  0  0  0  0  0  0
  -28.4545  -26.8514   22.4931 C   0  0  0  0  0  0  0  0  0  0  0  0
  -22.5896   -9.3642   22.1944 C   0  0  0  0  0  0  0  0  0  0  0  0
  -22.8991   -8.0042   22.1908 C   0  0  0  0  0  0  0  0  0  0  0  0
  -26.4480  -26.9820   21.1604 C   0  0  0  0  0  0  0  0  0  0  0  0
  -23.9733   -8.2543   20.0412 C   0  0  0  0  0  0  0  0  0  0  0  0
  -31.4767  -22.9226   19.7691 C   0  0  0  0  0  0  0  0  0  0  0  0
  -25.8155  -14.2162   20.9531 C   0  0  0  0  0  0  0  0  0  0  0  0
  -28.0302  -15.0967   20.0436 C   0  0  0  0  0  0  0  0  0  0  0  0
  -25.4006  -21.0005   27.1337 C   0  0  0  0  0  0  0  0  0  0  0  0
  -26.2792  -26.8488   23.5716 C   0  0  0  0  0  0  0  0  0  0  0  0
  -25.5834  -22.1213   26.2985 C   0  0  0  0  0  0  0  0  0  0  0  0
  -25.6569  -26.9471   22.3189 C   0  0  0  0  0  0  0  0  0  0  0  0
  -23.6979  -12.4038   21.0701 C   0  0  0  0  0  0  0  0  0  0  0  0
  -27.8390  -26.9327   21.2474 C   0  0  0  0  0  0  0  0  0  0  0  0
  -22.9719  -10.1694   21.1214 C   0  0  0  0  0  0  0  0  0  0  0  0
  -23.5909   -7.4492   21.1142 C   0  0  0  0  0  0  0  0  0  0  0  0
  -23.6638   -9.6144   20.0449 C   0  0  0  0  0  0  0  0  0  0  0  0
  -26.9086  -15.1529   20.8925 C   0  0  0  0  0  0  0  0  0  0  0  0
  -32.0194  -24.1018   19.3007 C   0  0  0  0  0  0  0  0  0  0  0  0
  -30.1107  -22.7940   19.6215 C   0  0  0  0  0  0  0  0  0  0  0  0
  -28.7668  -16.2080   20.3739 C   0  0  0  0  0  0  0  0  0  0  0  0
  -29.9729  -24.8414   18.6437 C   0  0  0  0  0  0  0  0  0  0  0  0
  -28.3754  -14.1269   19.0457 C   0  0  0  0  0  0  0  0  0  0  0  0
  -23.9348  -24.8707   24.4048 C   0  0  0  0  0  0  0  0  0  0  0  0
  -28.9887  -21.6759   21.5322 C   0  0  0  0  0  0  0  0  0  0  0  0
  -22.0488  -27.3570   23.5196 C   0  0  0  0  0  0  0  0  0  0  0  0
  -21.6832  -30.2003   21.6679 C   0  0  0  0  0  0  0  0  0  0  0  0
  -24.0514  -20.3473   27.3016 C   0  0  0  0  0  0  0  0  0  0  0  0
  -25.4575  -26.8342   24.8313 C   0  0  0  0  0  0  0  0  0  0  0  0
  -24.1584  -27.0082   22.1805 C   0  0  0  0  0  0  0  0  0  0  0  0
  -23.0858  -20.6775   26.1681 C   0  0  0  0  0  0  0  0  0  0  0  0
  -28.3332  -19.4256   24.2426 C   0  0  0  0  0  0  0  0  0  0  0  0
  -23.0612  -22.1795   25.9272 C   0  0  0  0  0  0  0  0  0  0  0  0
  -27.9669  -18.1175   23.5426 C   0  0  0  0  0  0  0  0  0  0  0  0
  -27.8377  -20.6365   23.4581 C   0  0  0  0  0  0  0  0  0  0  0  0
  -27.9398  -19.3666   21.3371 C   0  0  0  0  0  0  0  0  0  0  0  0
  -24.4380  -22.6827   25.4755 C   0  0  1  0  0  0  0  0  0  0  0  0
  -24.0262  -26.3570   24.6056 C   0  0  1  0  0  0  0  0  0  0  0  0
  -28.4486  -18.1191   22.0810 C   0  0  2  0  0  0  0  0  0  0  0  0
  -33.4891  -24.3316   19.4160 C   0  0  0  0  0  0  0  0  0  0  0  0
  -20.0158  -31.9943   21.1213 C   0  0  0  0  0  0  0  0  0  0  0  0
  -20.5667  -25.4182   21.6882 C   0  0  0  0  0  0  0  0  0  0  0  0
  -19.5896  -27.3947   20.5021 C   0  0  0  0  0  0  0  0  0  0  0  0
  -19.0949  -27.0226   22.9186 C   0  0  0  0  0  0  0  0  0  0  0  0
  -23.4288  -32.3205   22.7709 C   0  0  0  0  0  0  0  0  0  0  0  0
  -29.4338  -21.5521   20.0968 C   0  0  0  0  0  0  0  0  0  0  0  0
  -29.1275  -25.9181   18.0078 C   0  0  0  0  0  0  0  0  0  0  0  0
  -28.0208  -26.4094   18.9346 C   0  0  0  0  0  0  0  0  0  1  0  0
  -21.4000  -27.8009   22.2308 C   0  0  1  0  0  0  0  0  0  0  0  0
  -21.1613  -31.5788   22.0311 C   0  0  2  0  0  0  0  0  0  0  0  0
  -20.1910  -26.9060   21.8371 C   0  0  0  0  0  0  0  0  0  0  0  0
  -26.9269  -16.2156   21.7014 N   0  0  0  0  0  0  0  0  0  0  0  0
  -31.2943  -25.0862   18.7303 N   0  0  0  0  0  0  0  0  0  0  0  0
  -29.3251  -23.7372   19.0615 N   0  0  0  0  0  0  0  0  0  0  0  0
  -28.0690  -16.8375   21.3623 N   0  0  0  0  0  0  0  0  0  0  0  0
  -23.3982  -26.9846   23.4411 N   0  0  0  0  0  0  0  0  0  0  0  0
  -28.2979  -20.5894   22.0691 N   0  0  0  0  0  0  0  0  0  0  0  0
  -29.9369  -16.6982   19.9125 N   0  0  0  0  0  0  0  0  0  0  0  0
  -27.5068  -13.0473   18.8345 N   0  0  0  0  0  0  0  0  0  0  0  0
  -24.4303  -24.1289   25.4601 N   0  0  0  0  0  0  0  0  0  0  0  0
  -21.0681  -29.2108   22.4053 N   0  0  0  0  0  0  0  0  0  0  0  0
  -22.2477  -32.5920   21.9116 N   0  3  0  0  0  0  0  0  0  0  0  0
  -29.4311  -14.2061   18.3729 O   0  0  0  0  0  0  0  0  0  0  0  0
  -23.4492  -24.4296   23.3698 O   0  0  0  0  0  0  0  0  0  0  0  0
  -29.2508  -22.7071   22.1570 O   0  0  0  0  0  0  0  0  0  0  0  0
  -21.3848  -27.3482   24.5592 O   0  0  0  0  0  0  0  0  0  0  0  0
  -22.5471  -30.0192   20.8128 O   0  0  0  0  0  0  0  0  0  0  0  0
  -22.6646  -11.5196   21.1268 O   0  0  0  0  0  0  0  0  0  0  0  0
  -28.5938  -26.9690   20.1157 O   0  0  0  0  0  0  0  0  0  1  0  0
  -23.8894   -6.1434   21.1116 F   0  0  0  0  0  0  0  0  0  0  0  0
  -24.0348  -10.3831   19.0118 F   0  0  0  0  0  0  0  0  0  0  0  0
  1  2  1  0  0  0  0
  1  5  2  0  0  0  0
  2  6  2  0  0  0  0
  3  8  2  0  0  0  0
  3 16  1  0  0  0  0
  4  9  1  0  0  0  0
  4 16  2  0  0  0  0
  5 18  1  0  0  0  0
  6 20  1  0  0  0  0
  7 10  2  0  0  0  0
  7 19  1  0  0  0  0
  8 22  1  0  0  0  0
  9 22  2  0  0  0  0
 10 23  1  0  0  0  0
 11 12  2  0  0  0  0
 11 24  1  0  0  0  0
 12 25  1  0  0  0  0
 13 21  1  0  0  0  0
 13 23  2  0  0  0  0
 14 25  2  0  0  0  0
 14 26  1  0  0  0  0
 15 28  1  0  0  0  0
 15 29  2  0  0  0  0
 16 27  1  0  0  0  0
 17 27  1  0  0  0  0
 17 30  2  0  0  0  0
 17 32  1  0  0  0  0
 18 20  2  0  0  0  0
 18 37  1  0  0  0  0
 19 21  2  0  0  0  0
 19 38  1  0  0  0  0
 20 46  1  0  0  0  0
 21 39  1  0  0  0  0
 22 77  1  0  0  0  0
 23 78  1  0  0  0  0
 24 26  2  0  0  0  0
 24 77  1  0  0  0  0
 25 79  1  0  0  0  0
 26 80  1  0  0  0  0
 27 61  2  0  0  0  0
 28 49  1  0  0  0  0
 28 62  2  0  0  0  0
 29 55  1  0  0  0  0
 29 63  1  0  0  0  0
 30 64  1  0  0  0  0
 30 67  1  0  0  0  0
 31 56  1  0  0  0  0
 31 62  1  0  0  0  0
 31 63  2  0  0  0  0
 32 68  1  0  0  0  0
 32 72  2  0  0  0  0
 33 47  1  0  0  0  0
 33 69  1  0  0  0  0
 33 73  2  0  0  0  0
 34 55  1  0  0  0  0
 34 66  1  0  0  0  0
 34 74  2  0  0  0  0
 35 58  1  0  0  0  0
 35 65  1  0  0  0  0
 35 75  2  0  0  0  0
 36 59  1  0  0  0  0
 36 70  1  0  0  0  0
 36 76  2  0  0  0  0
 37 40  1  0  0  0  0
 38 47  1  0  0  0  0
 39 65  1  0  0  0  0
 40 42  1  0  0  0  0
 41 43  1  0  0  0  0
 41 44  1  0  0  0  0
 42 46  1  0  0  0  0
 43 48  1  0  0  0  0
 44 66  1  0  0  0  0
 45 48  1  0  0  0  0
 45 66  1  0  0  0  0
 46 69  1  0  0  0  0
 47 65  1  0  0  0  0
 48 64  1  0  0  0  0
 50 59  1  0  0  0  0
 51 60  1  0  0  0  0
 52 60  1  0  0  0  0
 53 60  1  0  0  0  0
 54 71  1  0  0  0  0
 56 57  1  0  0  0  0
 57 78  1  0  0  0  0
 58 60  1  0  0  0  0
 58 70  1  0  0  0  0
 59 71  1  0  0  0  0
 61 64  1  0  0  0  0
M  CHG  1  71   1
M  ISO  4  34 100  55 100  57 101  78 101
M  END
> <Batch ID>
0048

> <Smiles>
CNC(C)C(=O)NC(C(=O)N1Cc2cc([101O:1][101CH2:1]Cc3nc(C)cc([100CH2:0][100C:0](=O)N4CCCC(n5nc(-c6ccc(Oc7ccc(F)cc7F)cc6)c(C(N)=O)c5N)C4)n3)ccc2CC1C(=O)NC1CCCc2ccccc21)C(C)(C)C

> <Shape>
0.229

> <Color>
0.085

> <Negative vol penalty>
0.000

$$$$

  -OEChem-04052317263D

 83 91  0     1  0  0  0  0  0999 V2000
  -27.8670  -10.4255   22.2091 C   0  0  0  0  0  0  0  0  0  0  0  0
  -28.5187  -11.6433   22.0429 C   0  0  0  0  0  0  0  0  0  0  0  0
  -22.9306  -29.3255   22.2074 C   0  0  0  0  0  0  0  0  0  0  0  0
  -22.6904  -29.6365   19.8235 C   0  0  0  0  0  0  0  0  0  0  0  0
  -26.5837  -10.2469   21.6939 C   0  0  0  0  0  0  0  0  0  0  0  0
  -27.8880  -12.6829   21.3604 C   0  0  0  0  0  0  0  0  0  0  0  0
  -28.3686  -18.6763   22.5238 C   0  0  0  0  0  0  0  0  0  0  0  0
  -21.6889  -29.9274   22.4110 C   0  0  0  0  0  0  0  0  0  0  0  0
  -21.4487  -30.2384   20.0272 C   0  0  0  0  0  0  0  0  0  0  0  0
  -29.1379  -19.6853   21.9460 C   0  0  0  0  0  0  0  0  0  0  0  0
  -18.4205  -31.0566   23.5324 C   0  0  0  0  0  0  0  0  0  0  0  0
  -17.5424  -30.4452   24.4272 C   0  0  0  0  0  0  0  0  0  0  0  0
  -27.2744  -20.2928   20.5399 C   0  0  0  0  0  0  0  0  0  0  0  0
  -17.5509  -28.4465   23.0700 C   0  0  0  0  0  0  0  0  0  0  0  0
  -30.0314  -24.3791   19.6056 C   0  0  0  0  0  0  0  0  0  0  0  0
  -23.4314  -29.1801   20.9136 C   0  0  0  0  0  0  0  0  0  0  0  0
  -24.9727  -27.1903   20.4979 C   0  0  0  0  0  0  0  0  0  0  0  0
  -25.9331  -11.2880   21.0132 C   0  0  0  0  0  0  0  0  0  0  0  0
  -27.0476  -18.4606   22.1056 C   0  0  0  0  0  0  0  0  0  0  0  0
  -26.5954  -12.5176   20.8344 C   0  0  0  0  0  0  0  0  0  0  0  0
  -26.4895  -19.2821   21.1158 C   0  0  0  0  0  0  0  0  0  0  0  0
  -20.9479  -30.3838   21.3209 C   0  0  0  0  0  0  0  0  0  0  0  0
  -28.5918  -20.4918   20.9519 C   0  0  0  0  0  0  0  0  0  0  0  0
  -18.8637  -30.3629   22.4063 C   0  0  0  0  0  0  0  0  0  0  0  0
  -17.1076  -29.1402   24.1961 C   0  0  0  0  0  0  0  0  0  0  0  0
  -18.4289  -29.0579   22.1751 C   0  0  0  0  0  0  0  0  0  0  0  0
  -24.7142  -28.5589   20.7027 C   0  0  0  0  0  0  0  0  0  0  0  0
  -29.7065  -23.2694   18.8568 C   0  0  0  0  0  0  0  0  0  0  0  0
  -31.1370  -23.9607   17.2118 C   0  0  0  0  0  0  0  0  0  0  0  0
  -31.4613  -25.0707   17.9604 C   0  0  0  0  0  0  0  0  0  0  0  0
  -26.3362  -27.1167   20.3501 C   0  0  0  0  0  0  0  0  0  0  0  0
  -24.0616  -26.0844   20.4459 C   0  0  0  0  0  0  0  0  0  0  0  0
  -25.4892  -16.0422   20.7541 C   0  0  0  0  0  0  0  0  0  0  0  0
  -22.9077  -17.9462   21.2369 C   0  0  0  0  0  0  0  0  0  0  0  0
  -21.6753  -21.0962   21.6904 C   0  0  0  0  0  0  0  0  0  0  0  0
  -31.1079  -29.0406   18.1881 C   0  0  0  0  0  0  0  0  0  0  0  0
  -24.5647  -11.0323   20.4329 C   0  0  0  0  0  0  0  0  0  0  0  0
  -26.2222  -17.3855   22.7577 C   0  0  0  0  0  0  0  0  0  0  0  0
  -25.0696  -19.1047   20.6457 C   0  0  0  0  0  0  0  0  0  0  0  0
  -23.8182  -12.3071   20.0484 C   0  0  0  0  0  0  0  0  0  0  0  0
  -29.9288  -30.5810   21.1736 C   0  0  0  0  0  0  0  0  0  0  0  0
  -24.7332  -13.2476   19.2707 C   0  0  0  0  0  0  0  0  0  0  0  0
  -28.4872  -30.0844   21.2967 C   0  0  0  0  0  0  0  0  0  0  0  0
  -30.3200  -30.8229   19.7175 C   0  0  0  0  0  0  0  0  0  0  0  0
  -28.6562  -29.1791   18.9407 C   0  0  0  0  0  0  0  0  0  0  0  0
  -25.9344  -13.6774   20.1216 C   0  0  1  0  0  0  0  0  0  0  0  0
  -25.0545  -16.9212   21.8926 C   0  0  1  0  0  0  0  0  0  0  0  0
  -28.2337  -28.8675   20.3867 C   0  0  2  0  0  0  0  0  0  0  0  0
  -31.7498  -23.7189   15.8748 C   0  0  0  0  0  0  0  0  0  0  0  0
  -19.5208  -22.3401   22.0192 C   0  0  0  0  0  0  0  0  0  0  0  0
  -22.2710  -17.6227   18.2704 C   0  0  0  0  0  0  0  0  0  0  0  0
  -20.7314  -19.5881   18.4579 C   0  0  0  0  0  0  0  0  0  0  0  0
  -20.2808  -17.5223   19.7816 C   0  0  0  0  0  0  0  0  0  0  0  0
  -22.5314  -22.1133   24.3345 C   0  0  0  0  0  0  0  0  0  0  0  0
  -28.7178  -22.2656   19.3728 C   0  0  0  0  0  0  0  0  0  1  0  0
  -31.7481  -27.1889   16.6648 C   0  0  0  0  0  0  0  0  0  0  0  0
  -22.2078  -19.0207   20.4402 C   0  0  1  0  0  0  0  0  0  0  0  0
  -20.6948  -21.6580   22.7041 C   0  0  2  0  0  0  0  0  0  0  0  0
  -32.4400  -26.0814   17.4680 C   0  0  0  0  0  0  0  0  0  0  0  0
  -21.4002  -18.4408   19.2448 C   0  0  0  0  0  0  0  0  0  0  0  0
  -30.9146  -25.2996   19.1708 N   0  0  0  0  0  0  0  0  0  0  0  0
  -25.8245  -29.3012   20.6871 N   0  0  0  0  0  0  0  0  0  0  0  0
  -30.2535  -23.0403   17.6465 N   0  0  0  0  0  0  0  0  0  0  0  0
  -26.7938  -28.3958   20.4709 N   0  0  0  0  0  0  0  0  0  0  0  0
  -24.3050  -18.0358   21.3094 N   0  0  0  0  0  0  0  0  0  0  0  0
  -30.0563  -29.6304   18.9086 N   0  0  0  0  0  0  0  0  0  0  0  0
  -27.1764  -26.0832   20.1299 N   0  0  0  0  0  0  0  0  0  0  0  0
  -22.6937  -26.3370   20.6174 N   0  0  0  0  0  0  0  0  0  0  0  0
  -25.5426  -14.6980   21.0699 N   0  0  0  0  0  0  0  0  0  0  0  0
  -21.4036  -19.7773   21.3937 N   0  0  0  0  0  0  0  0  0  0  0  0
  -30.7735  -27.9102   17.4525 N   0  0  0  0  0  0  0  0  0  0  0  0
  -21.3711  -22.6550   23.5813 N   0  3  0  0  0  0  0  0  0  0  0  0
  -24.4507  -24.9050   20.2694 O   0  0  0  0  0  0  0  0  0  0  0  0
  -25.7549  -16.5461   19.6691 O   0  0  0  0  0  0  0  0  0  0  0  0
  -22.2387  -17.0642   21.7810 O   0  0  0  0  0  0  0  0  0  0  0  0
  -22.5884  -21.7619   21.2071 O   0  0  0  0  0  0  0  0  0  0  0  0
  -32.2608  -29.4852   18.2037 O   0  0  0  0  0  0  0  0  0  0  0  0
  -19.7361  -30.9710   21.5193 O   0  0  0  0  0  0  0  0  0  0  0  0
  -29.3408  -21.4769   20.3857 O   0  0  0  0  0  0  0  0  0  1  0  0
  -16.2656  -28.5527   25.0563 F   0  0  0  0  0  0  0  0  0  0  0  0
  -18.8523  -28.3860   21.0957 F   0  0  0  0  0  0  0  0  0  0  0  0
  -33.1384  -26.6840   18.4846 F   0  0  0  0  0  0  0  0  0  0  0  0
  -33.4099  -25.5342   16.6654 F   0  0  0  0  0  0  0  0  0  0  0  0
  1  2  1  0  0  0  0
  1  5  2  0  0  0  0
  2  6  2  0  0  0  0
  3  8  2  0  0  0  0
  3 16  1  0  0  0  0
  4  9  1  0  0  0  0
  4 16  2  0  0  0  0
  5 18  1  0  0  0  0
  6 20  1  0  0  0  0
  7 10  2  0  0  0  0
  7 19  1  0  0  0  0
  8 22  1  0  0  0  0
  9 22  2  0  0  0  0
 10 23  1  0  0  0  0
 11 12  2  0  0  0  0
 11 24  1  0  0  0  0
 12 25  1  0  0  0  0
 13 21  1  0  0  0  0
 13 23  2  0  0  0  0
 14 25  2  0  0  0  0
 14 26  1  0  0  0  0
 15 28  1  0  0  0  0
 15 61  2  0  0  0  0
 16 27  1  0  0  0  0
 17 27  1  0  0  0  0
 17 31  2  0  0  0  0
 17 32  1  0  0  0  0
 18 20  2  0  0  0  0
 18 37  1  0  0  0  0
 19 21  2  0  0  0  0
 19 38  1  0  0  0  0
 20 46  1  0  0  0  0
 21 39  1  0  0  0  0
 22 78  1  0  0  0  0
 23 79  1  0  0  0  0
 24 26  2  0  0  0  0
 24 78  1  0  0  0  0
 25 80  1  0  0  0  0
 26 81  1  0  0  0  0
 27 62  2  0  0  0  0
 28 55  1  0  0  0  0
 28 63  2  0  0  0  0
 29 30  2  0  0  0  0
 29 49  1  0  0  0  0
 29 63  1  0  0  0  0
 30 59  1  0  0  0  0
 30 61  1  0  0  0  0
 31 64  1  0  0  0  0
 31 67  1  0  0  0  0
 32 68  1  0  0  0  0
 32 73  2  0  0  0  0
 33 47  1  0  0  0  0
 33 69  1  0  0  0  0
 33 74  2  0  0  0  0
 34 57  1  0  0  0  0
 34 65  1  0  0  0  0
 34 75  2  0  0  0  0
 35 58  1  0  0  0  0
 35 70  1  0  0  0  0
 35 76  2  0  0  0  0
 36 66  1  0  0  0  0
 36 71  1  0  0  0  0
 36 77  2  0  0  0  0
 37 40  1  0  0  0  0
 38 47  1  0  0  0  0
 39 65  1  0  0  0  0
 40 42  1  0  0  0  0
 41 43  1  0  0  0  0
 41 44  1  0  0  0  0
 42 46  1  0  0  0  0
 43 48  1  0  0  0  0
 44 66  1  0  0  0  0
 45 48  1  0  0  0  0
 45 66  1  0  0  0  0
 46 69  1  0  0  0  0
 47 65  1  0  0  0  0
 48 64  1  0  0  0  0
 50 58  1  0  0  0  0
 51 60  1  0  0  0  0
 52 60  1  0  0  0  0
 53 60  1  0  0  0  0
 54 72  1  0  0  0  0
 55 79  1  0  0  0  0
 56 59  1  0  0  0  0
 56 71  1  0  0  0  0
 57 60  1  0  0  0  0
 57 70  1  0  0  0  0
 58 72  1  0  0  0  0
 59 82  1  0  0  0  0
 59 83  1  0  0  0  0
 62 64  1  0  0  0  0
M  CHG  1  72   1
M  ISO  4  36 100  55 101  71 100  79 101
M  END
> <Batch ID>
0048

> <Smiles>
CNC(C)C(=O)NC(C(=O)N1Cc2cc([101O:1][101CH2:1]c3cnc(C(F)(F)C[100NH:0][100C:0](=O)N4CCCC(n5nc(-c6ccc(Oc7ccc(F)cc7F)cc6)c(C(N)=O)c5N)C4)c(C)n3)ccc2CC1C(=O)NC1CCCc2ccccc21)C(C)(C)C

> <Shape>
0.214

> <Color>
0.084

> <Negative vol penalty>
0.000

$$$$

  -OEChem-04052317263D

 82 90  0     1  0  0  0  0  0999 V2000
  -18.8760  -33.0232   20.0748 C   0  0  0  0  0  0  0  0  0  0  0  0
  -20.2229  -32.7569   19.8506 C   0  0  0  0  0  0  0  0  0  0  0  0
  -28.9224  -17.7704   19.4059 C   0  0  0  0  0  0  0  0  0  0  0  0
  -31.0349  -18.2173   20.4896 C   0  0  0  0  0  0  0  0  0  0  0  0
  -18.2403  -32.4977   21.1989 C   0  0  0  0  0  0  0  0  0  0  0  0
  -20.9354  -31.9659   20.7512 C   0  0  0  0  0  0  0  0  0  0  0  0
  -25.4479  -28.0407   19.4337 C   0  0  0  0  0  0  0  0  0  0  0  0
  -29.3148  -16.4502   19.1853 C   0  0  0  0  0  0  0  0  0  0  0  0
  -31.4274  -16.8970   20.2691 C   0  0  0  0  0  0  0  0  0  0  0  0
  -26.8362  -28.1520   19.4970 C   0  0  0  0  0  0  0  0  0  0  0  0
  -29.6162  -12.8661   18.6574 C   0  0  0  0  0  0  0  0  0  0  0  0
  -28.6894  -11.8599   18.9298 C   0  0  0  0  0  0  0  0  0  0  0  0
  -26.8143  -27.1134   21.6741 C   0  0  0  0  0  0  0  0  0  0  0  0
  -33.6721  -27.9651   21.5110 C   0  0  0  0  0  0  0  0  0  0  0  0
  -31.7267  -27.7503   22.9088 C   0  0  0  0  0  0  0  0  0  0  0  0
  -28.5917  -12.5742   21.2357 C   0  0  0  0  0  0  0  0  0  0  0  0
  -29.7825  -18.6540   20.0580 C   0  0  0  0  0  0  0  0  0  0  0  0
  -28.6953  -20.5263   21.4071 C   0  0  0  0  0  0  0  0  0  0  0  0
  -18.9429  -31.6918   22.1087 C   0  0  0  0  0  0  0  0  0  0  0  0
  -24.7301  -27.4738   20.4967 C   0  0  0  0  0  0  0  0  0  0  0  0
  -20.3089  -31.4302   21.8893 C   0  0  0  0  0  0  0  0  0  0  0  0
  -25.4172  -26.9937   21.6208 C   0  0  0  0  0  0  0  0  0  0  0  0
  -33.0938  -27.9661   22.7755 C   0  0  0  0  0  0  0  0  0  0  0  0
  -30.5673  -16.0135   19.6169 C   0  0  0  0  0  0  0  0  0  0  0  0
  -27.5193  -27.6910   20.6185 C   0  0  0  0  0  0  0  0  0  0  0  0
  -30.0308  -13.7263   19.6742 C   0  0  0  0  0  0  0  0  0  0  0  0
  -28.1771  -11.7140   20.2189 C   0  0  0  0  0  0  0  0  0  0  0  0
  -29.5185  -13.5804   20.9633 C   0  0  0  0  0  0  0  0  0  0  0  0
  -29.3779  -20.0180   20.2857 C   0  0  0  0  0  0  0  0  0  0  0  0
  -32.8463  -27.7452   20.4204 C   0  0  0  0  0  0  0  0  0  0  0  0
  -30.9880  -27.5403   21.7556 C   0  0  0  0  0  0  0  0  0  0  0  0
  -28.5490  -21.8660   21.1417 C   0  0  0  0  0  0  0  0  0  0  0  0
  -28.2348  -19.8482   22.5834 C   0  0  0  0  0  0  0  0  0  0  0  0
  -22.4964  -28.5164   22.5035 C   0  0  0  0  0  0  0  0  0  0  0  0
  -31.6617  -25.6256   17.6362 C   0  0  0  0  0  0  0  0  0  0  0  0
  -22.4541  -25.4148   23.4527 C   0  0  0  0  0  0  0  0  0  0  0  0
  -24.0998  -22.4344   23.6885 C   0  0  0  0  0  0  0  0  0  0  0  0
  -18.2250  -31.1851   23.3344 C   0  0  0  0  0  0  0  0  0  0  0  0
  -23.2353  -27.3367   20.4016 C   0  0  0  0  0  0  0  0  0  0  0  0
  -24.6951  -26.3586   22.7800 C   0  0  0  0  0  0  0  0  0  0  0  0
  -18.9567  -30.0476   24.0422 C   0  0  0  0  0  0  0  0  0  0  0  0
  -28.1445  -24.9510   17.5171 C   0  0  0  0  0  0  0  0  0  0  0  0
  -20.4374  -30.3801   24.1973 C   0  0  0  0  0  0  0  0  0  0  0  0
  -28.0038  -23.6409   18.2911 C   0  0  0  0  0  0  0  0  0  0  0  0
  -29.4494  -24.9962   16.7284 C   0  0  0  0  0  0  0  0  0  0  0  0
  -30.5315  -23.4561   18.3343 C   0  0  0  0  0  0  0  0  0  0  0  0
  -21.1094  -30.5560   22.8302 C   0  0  1  0  0  0  0  0  0  0  0  0
  -22.5590  -27.2104   21.7632 C   0  0  1  0  0  0  0  0  0  0  0  0
  -29.2409  -23.3821   19.1693 C   0  0  2  0  0  0  0  0  0  0  0  0
  -33.9366  -28.1967   23.9839 C   0  0  0  0  0  0  0  0  0  0  0  0
  -23.8216  -20.0931   24.5477 C   0  0  0  0  0  0  0  0  0  0  0  0
  -34.5814  -26.4605   17.1855 C   0  0  0  0  0  0  0  0  0  0  0  0
  -22.8910  -26.4116   26.3032 C   0  0  0  0  0  0  0  0  0  0  0  0
  -23.5458  -24.0814   26.9434 C   0  0  0  0  0  0  0  0  0  0  0  0
  -21.2458  -24.5397   26.0933 C   0  0  0  0  0  0  0  0  0  0  0  0
  -24.4288  -21.2789   20.9838 C   0  0  0  0  0  0  0  0  0  0  0  0
  -33.4326  -27.7356   19.0482 C   0  0  0  0  0  0  0  0  0  0  0  0
  -29.5098  -27.3061   21.8619 C   0  0  0  0  0  0  0  0  0  1  0  0
  -32.8072  -25.2782   18.5533 C   0  0  0  0  0  0  0  0  0  0  0  0
  -23.1966  -24.6029   24.4863 C   0  0  1  0  0  0  0  0  0  0  0  0
  -23.6719  -21.0179   23.3497 C   0  0  2  0  0  0  0  0  0  0  0  0
  -33.9157  -26.3442   18.5616 C   0  0  1  0  0  0  0  0  0  0  0  0
  -22.7335  -24.9226   25.9357 C   0  0  0  0  0  0  0  0  0  0  0  0
  -29.6464  -20.9581   19.3757 N   0  0  0  0  0  0  0  0  0  0  0  0
  -31.5144  -27.5321   20.5104 N   0  0  0  0  0  0  0  0  0  0  0  0
  -29.1299  -22.0706   19.9248 N   0  0  0  0  0  0  0  0  0  0  0  0
  -23.2331  -26.2530   22.6425 N   0  0  0  0  0  0  0  0  0  0  0  0
  -30.5985  -24.7234   17.5935 N   0  0  0  0  0  0  0  0  0  0  0  0
  -27.9813  -22.8771   21.8329 N   0  0  0  0  0  0  0  0  0  0  0  0
  -28.4680  -18.4708   22.6950 N   0  0  0  0  0  0  0  0  0  0  0  0
  -21.3702  -29.2672   22.2256 N   0  0  0  0  0  0  0  0  0  0  0  0
  -23.0337  -23.2051   24.1016 N   0  0  0  0  0  0  0  0  0  0  0  0
  -24.5001  -20.4794   22.2339 N   0  3  0  0  0  0  0  0  0  0  0  0
  -27.6197  -20.4431   23.5007 O   0  0  0  0  0  0  0  0  0  0  0  0
  -23.4022  -28.8197   23.2713 O   0  0  0  0  0  0  0  0  0  0  0  0
  -31.7108  -26.6694   16.9804 O   0  0  0  0  0  0  0  0  0  0  0  0
  -21.2289  -25.3040   23.3626 O   0  0  0  0  0  0  0  0  0  0  0  0
  -25.2641  -22.8178   23.5994 O   0  0  0  0  0  0  0  0  0  0  0  0
  -30.9504  -14.7253   19.4020 O   0  0  0  0  0  0  0  0  0  0  0  0
  -28.8743  -27.7990   20.6831 O   0  0  0  0  0  0  0  0  0  1  0  0
  -27.2859  -10.7487   20.4800 F   0  0  0  0  0  0  0  0  0  0  0  0
  -29.9122  -14.4045   21.9440 F   0  0  0  0  0  0  0  0  0  0  0  0
  1  2  1  0  0  0  0
  1  5  2  0  0  0  0
  2  6  2  0  0  0  0
  3  8  2  0  0  0  0
  3 17  1  0  0  0  0
  4  9  1  0  0  0  0
  4 17  2  0  0  0  0
  5 19  1  0  0  0  0
  6 21  1  0  0  0  0
  7 10  2  0  0  0  0
  7 20  1  0  0  0  0
  8 24  1  0  0  0  0
  9 24  2  0  0  0  0
 10 25  1  0  0  0  0
 11 12  2  0  0  0  0
 11 26  1  0  0  0  0
 12 27  1  0  0  0  0
 13 22  1  0  0  0  0
 13 25  2  0  0  0  0
 14 23  1  0  0  0  0
 14 30  2  0  0  0  0
 15 23  2  0  0  0  0
 15 31  1  0  0  0  0
 16 27  2  0  0  0  0
 16 28  1  0  0  0  0
 17 29  1  0  0  0  0
 18 29  1  0  0  0  0
 18 32  2  0  0  0  0
 18 33  1  0  0  0  0
 19 21  2  0  0  0  0
 19 38  1  0  0  0  0
 20 22  2  0  0  0  0
 20 39  1  0  0  0  0
 21 47  1  0  0  0  0
 22 40  1  0  0  0  0
 23 50  1  0  0  0  0
 24 79  1  0  0  0  0
 25 80  1  0  0  0  0
 26 28  2  0  0  0  0
 26 79  1  0  0  0  0
 27 81  1  0  0  0  0
 28 82  1  0  0  0  0
 29 64  2  0  0  0  0
 30 57  1  0  0  0  0
 30 65  1  0  0  0  0
 31 58  1  0  0  0  0
 31 65  2  0  0  0  0
 32 66  1  0  0  0  0
 32 69  1  0  0  0  0
 33 70  1  0  0  0  0
 33 74  2  0  0  0  0
 34 48  1  0  0  0  0
 34 71  1  0  0  0  0
 34 75  2  0  0  0  0
 35 59  1  0  0  0  0
 35 68  1  0  0  0  0
 35 76  2  0  0  0  0
 36 60  1  0  0  0  0
 36 67  1  0  0  0  0
 36 77  2  0  0  0  0
 37 61  1  0  0  0  0
 37 72  1  0  0  0  0
 37 78  2  0  0  0  0
 38 41  1  0  0  0  0
 39 48  1  0  0  0  0
 40 67  1  0  0  0  0
 41 43  1  0  0  0  0
 42 44  1  0  0  0  0
 42 45  1  0  0  0  0
 43 47  1  0  0  0  0
 44 49  1  0  0  0  0
 45 68  1  0  0  0  0
 46 49  1  0  0  0  0
 46 68  1  0  0  0  0
 47 71  1  0  0  0  0
 48 67  1  0  0  0  0
 49 66  1  0  0  0  0
 51 61  1  0  0  0  0
 52 62  1  0  0  0  0
 53 63  1  0  0  0  0
 54 63  1  0  0  0  0
 55 63  1  0  0  0  0
 56 73  1  0  0  0  0
 57 62  1  0  0  0  0
 58 80  1  0  0  0  0
 59 62  1  0  0  0  0
 60 63  1  0  0  0  0
 60 72  1  0  0  0  0
 61 73  1  0  0  0  0
 64 66  1  0  0  0  0
M  CHG  1  73   1
M  ISO  4  35 100  58 101  59 100  80 101
M  END
> <Batch ID>
0048

> <Smiles>
CNC(C)C(=O)NC(C(=O)N1Cc2cc([101O:1][101CH2:1]c3cc(C)cc(CC(C)[100CH2:0][100C:0](=O)N4CCCC(n5nc(-c6ccc(Oc7ccc(F)cc7F)cc6)c(C(N)=O)c5N)C4)n3)ccc2CC1C(=O)NC1CCCc2ccccc21)C(C)(C)C

> <Shape>
0.220

> <Color>
0.086

> <Negative vol penalty>
0.000

$$$$

  -OEChem-04052317263D

 87 95  0     1  0  0  0  0  0999 V2000
  -27.4525  -32.3182   27.6963 C   0  0  0  0  0  0  0  0  0  0  0  0
  -27.6018  -31.2281   26.8449 C   0  0  0  0  0  0  0  0  0  0  0  0
  -29.8572  -12.4500   17.7779 C   0  0  0  0  0  0  0  0  0  0  0  0
  -30.8233  -13.1587   19.8758 C   0  0  0  0  0  0  0  0  0  0  0  0
  -26.1997  -32.9085   27.8580 C   0  0  0  0  0  0  0  0  0  0  0  0
  -26.4982  -30.7269   26.1556 C   0  0  0  0  0  0  0  0  0  0  0  0
  -27.5235  -29.7519   21.2932 C   0  0  0  0  0  0  0  0  0  0  0  0
  -30.9565  -11.6218   17.5514 C   0  0  0  0  0  0  0  0  0  0  0  0
  -31.9226  -12.3305   19.6493 C   0  0  0  0  0  0  0  0  0  0  0  0
  -28.2224  -28.5787   21.0127 C   0  0  0  0  0  0  0  0  0  0  0  0
  -34.8131  -10.1301   19.7947 C   0  0  0  0  0  0  0  0  0  0  0  0
  -35.2661   -9.3475   20.8567 C   0  0  0  0  0  0  0  0  0  0  0  0
  -26.1524  -27.4969   20.4094 C   0  0  0  0  0  0  0  0  0  0  0  0
  -33.1128   -8.2580   20.9723 C   0  0  0  0  0  0  0  0  0  0  0  0
  -31.3478  -23.7151   18.5958 C   0  0  0  0  0  0  0  0  0  0  0  0
  -29.7906  -13.2185   18.9401 C   0  0  0  0  0  0  0  0  0  0  0  0
  -27.4604  -13.7391   19.8383 C   0  0  0  0  0  0  0  0  0  0  0  0
  -25.0821  -32.4203   27.1629 C   0  0  0  0  0  0  0  0  0  0  0  0
  -26.1301  -29.8033   21.1440 C   0  0  0  0  0  0  0  0  0  0  0  0
  -25.2290  -31.3103   26.3092 C   0  0  0  0  0  0  0  0  0  0  0  0
  -25.4384  -28.6728   20.6862 C   0  0  0  0  0  0  0  0  0  0  0  0
  -31.9891  -11.5621   18.4871 C   0  0  0  0  0  0  0  0  0  0  0  0
  -27.5366  -27.4500   20.5735 C   0  0  0  0  0  0  0  0  0  0  0  0
  -33.5099   -9.9767   19.3215 C   0  0  0  0  0  0  0  0  0  0  0  0
  -34.4160   -8.4114   21.4455 C   0  0  0  0  0  0  0  0  0  0  0  0
  -32.6598   -9.0406   19.9103 C   0  0  0  0  0  0  0  0  0  0  0  0
  -28.6556  -14.0746   19.1743 C   0  0  0  0  0  0  0  0  0  0  0  0
  -31.2086  -22.6175   19.4164 C   0  0  0  0  0  0  0  0  0  0  0  0
  -30.0567  -23.8923   20.9258 C   0  0  0  0  0  0  0  0  0  0  0  0
  -30.1966  -24.9900   20.1053 C   0  0  0  0  0  0  0  0  0  0  0  0
  -26.7100  -14.8888   19.7964 C   0  0  0  0  0  0  0  0  0  0  0  0
  -27.0640  -12.4992   20.4392 C   0  0  0  0  0  0  0  0  0  0  0  0
  -23.6814  -30.3115   23.1061 C   0  0  0  0  0  0  0  0  0  0  0  0
  -21.9656  -30.2405   20.3541 C   0  0  0  0  0  0  0  0  0  0  0  0
  -21.7294  -29.1973   17.1133 C   0  0  0  0  0  0  0  0  0  0  0  0
  -26.2542  -20.4251   20.3315 C   0  0  0  0  0  0  0  0  0  0  0  0
  -23.7388  -33.0615   27.4062 C   0  0  0  0  0  0  0  0  0  0  0  0
  -25.3940  -31.0845   21.4252 C   0  0  0  0  0  0  0  0  0  0  0  0
  -23.9451  -28.6821   20.4903 C   0  0  0  0  0  0  0  0  0  0  0  0
  -22.6938  -32.7052   26.3521 C   0  0  0  0  0  0  0  0  0  0  0  0
  -27.3954  -19.1749   17.1992 C   0  0  0  0  0  0  0  0  0  0  0  0
  -22.7030  -31.2048   26.0771 C   0  0  0  0  0  0  0  0  0  0  0  0
  -27.7321  -17.7114   17.4902 C   0  0  0  0  0  0  0  0  0  0  0  0
  -27.7408  -20.0791   18.3804 C   0  0  0  0  0  0  0  0  0  0  0  0
  -27.4886  -18.2038   19.9594 C   0  0  0  0  0  0  0  0  0  0  0  0
  -24.0606  -30.7534   25.5251 C   0  0  1  0  0  0  0  0  0  0  0  0
  -23.9149  -30.8692   21.7305 C   0  0  1  0  0  0  0  0  0  0  0  0
  -27.1062  -17.2455   18.8185 C   0  0  2  0  0  0  0  0  0  0  0  0
  -31.7788  -21.3009   19.0201 C   0  0  0  0  0  0  0  0  0  0  0  0
  -20.1926  -29.2610   15.1304 C   0  0  0  0  0  0  0  0  0  0  0  0
  -20.2041  -28.1151   21.6540 C   0  0  0  0  0  0  0  0  0  0  0  0
  -19.3278  -27.5490   19.3781 C   0  0  0  0  0  0  0  0  0  0  0  0
  -18.9610  -29.8286   20.3224 C   0  0  0  0  0  0  0  0  0  0  0  0
  -23.7212  -30.6430   15.4697 C   0  0  0  0  0  0  0  0  0  0  0  0
  -26.5014  -23.4256   25.3861 C   0  0  0  0  0  0  0  0  0  0  0  0
  -29.3369  -23.9821   22.2279 C   0  0  0  0  0  0  0  0  0  0  0  0
  -29.6311  -26.3271   20.4842 C   0  0  0  0  0  0  0  0  0  1  0  0
  -29.4868  -22.7392   23.1273 C   0  0  0  0  0  0  0  0  0  0  0  0
  -25.4219  -21.8818   22.8906 C   0  0  0  0  0  0  0  0  0  0  0  0
  -24.7887  -20.6149   22.3254 C   0  0  0  0  0  0  0  0  0  0  0  0
  -28.7187  -22.7954   24.4442 C   0  0  0  0  0  0  0  0  0  0  0  0
  -26.6675  -21.5857   23.7161 C   0  0  0  0  0  0  0  0  0  0  0  0
  -21.2754  -29.1638   19.5520 C   0  0  1  0  0  0  0  0  0  0  0  0
  -21.3544  -29.9370   15.8418 C   0  0  2  0  0  0  0  0  0  0  0  0
  -19.9700  -28.6631   20.2321 C   0  0  0  0  0  0  0  0  0  0  0  0
  -30.8444  -24.9210   18.9255 N   0  0  0  0  0  0  0  0  0  0  0  0
  -28.6681  -15.3384   18.7422 N   0  0  0  0  0  0  0  0  0  0  0  0
  -30.5605  -22.6865   20.5962 N   0  0  0  0  0  0  0  0  0  0  0  0
  -27.4715  -15.8071   19.1354 N   0  0  0  0  0  0  0  0  0  0  0  0
  -23.2694  -29.9567   20.7845 N   0  0  0  0  0  0  0  0  0  0  0  0
  -27.1152  -19.5830   19.6086 N   0  0  0  0  0  0  0  0  0  0  0  0
  -25.4796  -15.1936   20.2608 N   0  0  0  0  0  0  0  0  0  0  0  0
  -27.9557  -11.4189   20.3926 N   0  0  0  0  0  0  0  0  0  0  0  0
  -24.1781  -31.1014   24.1252 N   0  0  0  0  0  0  0  0  0  0  0  0
  -21.0797  -29.7132   18.2147 N   0  0  0  0  0  0  0  0  0  0  0  0
  -25.6986  -19.8745   21.4799 N   0  0  0  0  0  0  0  0  0  0  0  0
  -22.5148  -29.9828   14.9078 N   0  3  0  0  0  0  0  0  0  0  0  0
  -27.2609  -22.8882   24.1969 N   0  3  1  0  0  0  0  0  0  0  0  0
  -25.9453  -12.3487   20.9864 O   0  0  0  0  0  0  0  0  0  0  0  0
  -23.0928  -29.2442   23.2334 O   0  0  0  0  0  0  0  0  0  0  0  0
  -21.3725  -31.2974   20.5839 O   0  0  0  0  0  0  0  0  0  0  0  0
  -22.5167  -28.2537   17.1274 O   0  0  0  0  0  0  0  0  0  0  0  0
  -25.9953  -21.5801   19.9767 O   0  0  0  0  0  0  0  0  0  0  0  0
  -33.0619  -10.7539   18.2666 O   0  0  0  0  0  0  0  0  0  0  0  0
  -28.2163  -26.3034   20.2996 O   0  0  0  0  0  0  0  0  0  1  0  0
  -34.8516   -7.6588   22.4643 F   0  0  0  0  0  0  0  0  0  0  0  0
  -31.4071   -8.8879   19.4593 F   0  0  0  0  0  0  0  0  0  0  0  0
  1  2  1  0  0  0  0
  1  5  2  0  0  0  0
  2  6  2  0  0  0  0
  3  8  2  0  0  0  0
  3 16  1  0  0  0  0
  4  9  1  0  0  0  0
  4 16  2  0  0  0  0
  5 18  1  0  0  0  0
  6 20  1  0  0  0  0
  7 10  2  0  0  0  0
  7 19  1  0  0  0  0
  8 22  1  0  0  0  0
  9 22  2  0  0  0  0
 10 23  1  0  0  0  0
 11 12  2  0  0  0  0
 11 24  1  0  0  0  0
 12 25  1  0  0  0  0
 13 21  1  0  0  0  0
 13 23  2  0  0  0  0
 14 25  2  0  0  0  0
 14 26  1  0  0  0  0
 15 28  1  0  0  0  0
 15 66  2  0  0  0  0
 16 27  1  0  0  0  0
 17 27  1  0  0  0  0
 17 31  2  0  0  0  0
 17 32  1  0  0  0  0
 18 20  2  0  0  0  0
 18 37  1  0  0  0  0
 19 21  2  0  0  0  0
 19 38  1  0  0  0  0
 20 46  1  0  0  0  0
 21 39  1  0  0  0  0
 22 84  1  0  0  0  0
 23 85  1  0  0  0  0
 24 26  2  0  0  0  0
 24 84  1  0  0  0  0
 25 86  1  0  0  0  0
 26 87  1  0  0  0  0
 27 67  2  0  0  0  0
 28 49  1  0  0  0  0
 28 68  2  0  0  0  0
 29 30  2  0  0  0  0
 29 56  1  0  0  0  0
 29 68  1  0  0  0  0
 30 57  1  0  0  0  0
 30 66  1  0  0  0  0
 31 69  1  0  0  0  0
 31 72  1  0  0  0  0
 32 73  1  0  0  0  0
 32 79  2  0  0  0  0
 33 47  1  0  0  0  0
 33 74  1  0  0  0  0
 33 80  2  0  0  0  0
 34 63  1  0  0  0  0
 34 70  1  0  0  0  0
 34 81  2  0  0  0  0
 35 64  1  0  0  0  0
 35 75  1  0  0  0  0
 35 82  2  0  0  0  0
 36 71  1  0  0  0  0
 36 76  1  0  0  0  0
 36 83  2  0  0  0  0
 37 40  1  0  0  0  0
 38 47  1  0  0  0  0
 39 70  1  0  0  0  0
 40 42  1  0  0  0  0
 41 43  1  0  0  0  0
 41 44  1  0  0  0  0
 42 46  1  0  0  0  0
 43 48  1  0  0  0  0
 44 71  1  0  0  0  0
 45 48  1  0  0  0  0
 45 71  1  0  0  0  0
 46 74  1  0  0  0  0
 47 70  1  0  0  0  0
 48 69  1  0  0  0  0
 50 64  1  0  0  0  0
 51 65  1  0  0  0  0
 52 65  1  0  0  0  0
 53 65  1  0  0  0  0
 54 77  1  0  0  0  0
 55 78  1  0  0  0  0
 56 58  1  0  0  0  0
 57 85  1  0  0  0  0
 58 61  1  0  0  0  0
 59 60  1  0  0  0  0
 59 62  1  0  0  0  0
 60 76  1  0  0  0  0
 61 78  1  0  0  0  0
 62 78  1  0  0  0  0
 63 65  1  0  0  0  0
 63 75  1  0  0  0  0
 64 77  1  0  0  0  0
 67 69  1  0  0  0  0
M  CHG  2  77   1  78   1
M  ISO  4  36 100  57 101  76 100  85 101
M  END
> <Batch ID>
0048

> <Smiles>
CNC(C)C(=O)NC(C(=O)N1Cc2cc([101O:1][101CH2:1]c3ncc(C)nc3CCCN(C)CCC[100NH:0][100C:0](=O)N3CCCC(n4nc(-c5ccc(Oc6ccc(F)cc6F)cc5)c(C(N)=O)c4N)C3)ccc2CC1C(=O)NC1CCCc2ccccc21)C(C)(C)C

> <Shape>
0.238

> <Color>
0.112

> <Negative vol penalty>
0.000

$$$$

  -OEChem-04052317263D

 90 98  0     1  0  0  0  0  0999 V2000
  -25.7809  -35.9048   15.8007 C   0  0  0  0  0  0  0  0  0  0  0  0
  -25.8254  -34.5173   15.7087 C   0  0  0  0  0  0  0  0  0  0  0  0
  -26.3299  -12.1153   20.9610 C   0  0  0  0  0  0  0  0  0  0  0  0
  -25.8163  -14.2374   19.9268 C   0  0  0  0  0  0  0  0  0  0  0  0
  -26.1259  -36.5343   16.9959 C   0  0  0  0  0  0  0  0  0  0  0  0
  -26.2161  -33.7587   16.8115 C   0  0  0  0  0  0  0  0  0  0  0  0
  -24.1067  -28.2375   18.4156 C   0  0  0  0  0  0  0  0  0  0  0  0
  -24.9715  -11.8990   21.1921 C   0  0  0  0  0  0  0  0  0  0  0  0
  -24.4578  -14.0212   20.1579 C   0  0  0  0  0  0  0  0  0  0  0  0
  -24.6057  -26.9502   18.2220 C   0  0  0  0  0  0  0  0  0  0  0  0
  -21.6102  -10.6235   21.7306 C   0  0  0  0  0  0  0  0  0  0  0  0
  -21.0955   -9.3607   21.4375 C   0  0  0  0  0  0  0  0  0  0  0  0
  -25.5960  -27.0098   20.4208 C   0  0  0  0  0  0  0  0  0  0  0  0
  -26.6754  -20.8384   19.2925 C   0  0  0  0  0  0  0  0  0  0  0  0
  -21.7573   -9.6266   19.1292 C   0  0  0  0  0  0  0  0  0  0  0  0
  -28.8185  -21.8286   19.0040 C   0  0  0  0  0  0  0  0  0  0  0  0
  -26.7524  -13.2845   20.3284 C   0  0  0  0  0  0  0  0  0  0  0  0
  -28.8950  -13.1335   18.9523 C   0  0  0  0  0  0  0  0  0  0  0  0
  -26.5117  -35.7826   18.1169 C   0  0  0  0  0  0  0  0  0  0  0  0
  -24.3583  -28.9261   19.6111 C   0  0  0  0  0  0  0  0  0  0  0  0
  -26.5678  -34.3789   18.0224 C   0  0  0  0  0  0  0  0  0  0  0  0
  -25.0969  -28.3048   20.6282 C   0  0  0  0  0  0  0  0  0  0  0  0
  -28.0156  -20.7008   18.9487 C   0  0  0  0  0  0  0  0  0  0  0  0
  -26.1860  -22.0822   19.6756 C   0  0  0  0  0  0  0  0  0  0  0  0
  -24.0354  -12.8520   20.7905 C   0  0  0  0  0  0  0  0  0  0  0  0
  -25.3529  -26.3372   19.2235 C   0  0  0  0  0  0  0  0  0  0  0  0
  -22.1984  -11.3880   20.7230 C   0  0  0  0  0  0  0  0  0  0  0  0
  -21.1690   -8.8622   20.1369 C   0  0  0  0  0  0  0  0  0  0  0  0
  -22.2720  -10.8895   19.4223 C   0  0  0  0  0  0  0  0  0  0  0  0
  -28.1555  -13.5087   20.0899 C   0  0  0  0  0  0  0  0  0  0  0  0
  -27.0708  -23.1482   19.6986 C   0  0  0  0  0  0  0  0  0  0  0  0
  -30.1709  -13.5702   19.2127 C   0  0  0  0  0  0  0  0  0  0  0  0
  -28.4669  -12.4513   17.7661 C   0  0  0  0  0  0  0  0  0  0  0  0
  -25.8685  -31.6167   20.3749 C   0  0  0  0  0  0  0  0  0  0  0  0
  -24.6881  -30.9820   23.3289 C   0  0  0  0  0  0  0  0  0  0  0  0
  -23.5160  -28.6658   25.5443 C   0  0  0  0  0  0  0  0  0  0  0  0
  -31.9759  -17.9613   23.0855 C   0  0  0  0  0  0  0  0  0  0  0  0
  -26.9211  -36.5101   19.3730 C   0  0  0  0  0  0  0  0  0  0  0  0
  -23.7903  -30.3038   19.8150 C   0  0  0  0  0  0  0  0  0  0  0  0
  -25.3778  -28.9933   21.9380 C   0  0  0  0  0  0  0  0  0  0  0  0
  -26.9636  -35.6152   20.6089 C   0  0  0  0  0  0  0  0  0  0  0  0
  -33.1704  -14.4676   22.8228 C   0  0  0  0  0  0  0  0  0  0  0  0
  -27.6905  -34.3105   20.2986 C   0  0  0  0  0  0  0  0  0  0  0  0
  -32.0395  -13.7859   22.0546 C   0  0  0  0  0  0  0  0  0  0  0  0
  -32.6675  -15.6568   23.6356 C   0  0  0  0  0  0  0  0  0  0  0  0
  -30.7848  -15.9781   22.0652 C   0  0  0  0  0  0  0  0  0  0  0  0
  -26.9627  -33.5202   19.2044 C   0  0  1  0  0  0  0  0  0  0  0  0
  -24.5429  -31.1104   20.8688 C   0  0  1  0  0  0  0  0  0  0  0  0
  -31.2656  -14.8041   21.1992 C   0  0  2  0  0  0  0  0  0  0  0  0
  -24.7507  -22.2370   20.0435 C   0  0  0  0  0  0  0  0  0  0  0  0
  -27.9224  -18.8892   17.2220 C   0  0  0  0  0  0  0  0  0  0  0  0
  -22.6633  -28.4421   27.8938 C   0  0  0  0  0  0  0  0  0  0  0  0
  -31.2082  -23.1785   21.4629 C   0  0  0  0  0  0  0  0  0  0  0  0
  -33.6820  -23.0230   21.1199 C   0  0  0  0  0  0  0  0  0  0  0  0
  -28.4359  -17.7533   22.0763 C   0  0  0  0  0  0  0  0  0  0  0  0
  -27.5399  -31.2311   24.3850 C   0  0  0  0  0  0  0  0  0  0  0  0
  -26.7887  -30.0884   26.4822 C   0  0  0  0  0  0  0  0  0  0  0  0
  -25.7948  -32.2829   25.8351 C   0  0  0  0  0  0  0  0  0  0  0  0
  -20.8891  -27.6648   24.6191 C   0  0  0  0  0  0  0  0  0  0  0  0
  -26.5991  -24.5134   20.1047 C   0  0  0  0  0  0  0  0  0  1  0  0
  -32.4098  -20.9415   21.7224 C   0  0  0  0  0  0  0  0  0  0  0  0
  -28.4428  -18.2644   19.6122 C   0  0  0  0  0  0  0  0  0  0  0  0
  -31.2905  -20.2575   22.5045 C   0  0  0  0  0  0  0  0  0  0  0  0
  -30.6205  -18.4217   20.9990 C   0  0  0  0  0  0  0  0  0  0  0  0
  -28.5704  -19.3841   18.5354 C   0  0  2  0  0  0  0  0  0  0  0  0
  -25.1738  -30.2081   24.5306 C   0  0  1  0  0  0  0  0  0  0  0  0
  -22.2874  -28.6561   26.4359 C   0  0  2  0  0  0  0  0  0  0  0  0
  -32.4894  -22.4703   21.9053 C   0  0  0  0  0  0  0  0  0  0  0  0
  -29.0941  -18.5947   20.9754 C   0  0  2  0  0  0  0  0  0  0  0  0
  -26.3208  -30.9401   25.2829 C   0  0  0  0  0  0  0  0  0  0  0  0
  -28.3791  -23.0532   19.3714 N   0  0  0  0  0  0  0  0  0  0  0  0
  -28.8997  -14.1354   21.0050 N   0  0  0  0  0  0  0  0  0  0  0  0
  -30.1202  -14.1573   20.4427 N   0  0  0  0  0  0  0  0  0  0  0  0
  -24.8064  -30.3419   22.0871 N   0  0  0  0  0  0  0  0  0  0  0  0
  -31.8989  -16.5867   22.8075 N   0  0  0  0  0  0  0  0  0  0  0  0
  -31.3201  -13.5054   18.5073 N   0  0  0  0  0  0  0  0  0  0  0  0
  -27.1213  -12.0736   17.6614 N   0  0  0  0  0  0  0  0  0  0  0  0
  -25.8037  -32.8485   19.7521 N   0  0  0  0  0  0  0  0  0  0  0  0
  -23.9955  -29.9438   25.3493 N   0  0  0  0  0  0  0  0  0  0  0  0
  -31.2340  -18.8227   22.2632 N   0  0  0  0  0  0  0  0  0  0  0  0
  -21.3580  -27.5659   26.0252 N   0  3  0  0  0  0  0  0  0  0  0  0
  -29.2578  -12.1699   16.8340 O   0  0  0  0  0  0  0  0  0  0  0  0
  -26.8759  -30.9405   20.5474 O   0  0  0  0  0  0  0  0  0  0  0  0
  -24.2145  -32.1100   23.4870 O   0  0  0  0  0  0  0  0  0  0  0  0
  -24.0040  -27.6417   25.0714 O   0  0  0  0  0  0  0  0  0  0  0  0
  -32.6759  -18.3947   24.0097 O   0  0  0  0  0  0  0  0  0  0  0  0
  -22.7097  -12.6412   21.0157 O   0  0  0  0  0  0  0  0  0  0  0  0
  -25.8417  -25.0810   19.0368 O   0  0  0  0  0  0  0  0  0  1  0  0
  -20.6761   -7.6489   19.8559 F   0  0  0  0  0  0  0  0  0  0  0  0
  -22.8370  -11.6188   18.4503 F   0  0  0  0  0  0  0  0  0  0  0  0
  1  2  1  0  0  0  0
  1  5  2  0  0  0  0
  2  6  2  0  0  0  0
  3  8  2  0  0  0  0
  3 17  1  0  0  0  0
  4  9  1  0  0  0  0
  4 17  2  0  0  0  0
  5 19  1  0  0  0  0
  6 21  1  0  0  0  0
  7 10  2  0  0  0  0
  7 20  1  0  0  0  0
  8 25  1  0  0  0  0
  9 25  2  0  0  0  0
 10 26  1  0  0  0  0
 11 12  2  0  0  0  0
 11 27  1  0  0  0  0
 12 28  1  0  0  0  0
 13 22  1  0  0  0  0
 13 26  2  0  0  0  0
 14 23  2  0  0  0  0
 14 24  1  0  0  0  0
 15 28  2  0  0  0  0
 15 29  1  0  0  0  0
 16 23  1  0  0  0  0
 16 71  2  0  0  0  0
 17 30  1  0  0  0  0
 18 30  1  0  0  0  0
 18 32  2  0  0  0  0
 18 33  1  0  0  0  0
 19 21  2  0  0  0  0
 19 38  1  0  0  0  0
 20 22  2  0  0  0  0
 20 39  1  0  0  0  0
 21 47  1  0  0  0  0
 22 40  1  0  0  0  0
 23 65  1  0  0  0  0
 24 31  2  0  0  0  0
 24 50  1  0  0  0  0
 25 87  1  0  0  0  0
 26 88  1  0  0  0  0
 27 29  2  0  0  0  0
 27 87  1  0  0  0  0
 28 89  1  0  0  0  0
 29 90  1  0  0  0  0
 30 72  2  0  0  0  0
 31 60  1  0  0  0  0
 31 71  1  0  0  0  0
 32 73  1  0  0  0  0
 32 76  1  0  0  0  0
 33 77  1  0  0  0  0
 33 82  2  0  0  0  0
 34 48  1  0  0  0  0
 34 78  1  0  0  0  0
 34 83  2  0  0  0  0
 35 66  1  0  0  0  0
 35 74  1  0  0  0  0
 35 84  2  0  0  0  0
 36 67  1  0  0  0  0
 36 79  1  0  0  0  0
 36 85  2  0  0  0  0
 37 75  1  0  0  0  0
 37 80  1  0  0  0  0
 37 86  2  0  0  0  0
 38 41  1  0  0  0  0
 39 48  1  0  0  0  0
 40 74  1  0  0  0  0
 41 43  1  0  0  0  0
 42 44  1  0  0  0  0
 42 45  1  0  0  0  0
 43 47  1  0  0  0  0
 44 49  1  0  0  0  0
 45 75  1  0  0  0  0
 46 49  1  0  0  0  0
 46 75  1  0  0  0  0
 47 78  1  0  0  0  0
 48 74  1  0  0  0  0
 49 73  1  0  0  0  0
 51 65  1  0  0  0  0
 52 67  1  0  0  0  0
 53 68  1  0  0  0  0
 54 68  1  0  0  0  0
 55 69  1  0  0  0  0
 56 70  1  0  0  0  0
 57 70  1  0  0  0  0
 58 70  1  0  0  0  0
 59 81  1  0  0  0  0
 60 88  1  0  0  0  0
 61 63  1  0  0  0  0
 61 68  1  0  0  0  0
 62 65  1  0  0  0  0
 62 69  1  0  0  0  0
 63 80  1  0  0  0  0
 64 69  1  0  0  0  0
 64 80  1  0  0  0  0
 66 70  1  0  0  0  0
 66 79  1  0  0  0  0
 67 81  1  0  0  0  0
 72 73  1  0  0  0  0
M  CHG  1  81   1
M  ISO  4  37 100  60 101  80 100  88 101
M  END
> <Batch ID>
0048

> <Smiles>
CNC(C)C(=O)NC(C(=O)N1Cc2cc([101O:1][101CH2:1]c3ncc(C(C)CC(C)C[100N:0](CCC(C)C)[100C:0](=O)N4CCCC(n5nc(-c6ccc(Oc7ccc(F)cc7F)cc6)c(C(N)=O)c5N)C4)cc3C)ccc2CC1C(=O)NC1CCCc2ccccc21)C(C)(C)C

> <Shape>
0.285

> <Color>
0.078

> <Negative vol penalty>
0.000

$$$$

  -OEChem-04052317263D

 82 90  0     1  0  0  0  0  0999 V2000
  -30.9104  -23.3363   22.8817 C   0  0  0  0  0  0  0  0  0  0  0  0
  -29.5516  -23.2948   22.5861 C   0  0  0  0  0  0  0  0  0  0  0  0
  -28.4437  -28.2968   21.0018 C   0  0  0  0  0  0  0  0  0  0  0  0
  -27.1540  -27.0704   19.3679 C   0  0  0  0  0  0  0  0  0  0  0  0
  -31.7734  -22.3948   22.3224 C   0  0  0  0  0  0  0  0  0  0  0  0
  -29.0551  -22.3123   21.7301 C   0  0  0  0  0  0  0  0  0  0  0  0
  -24.8000  -20.1888   23.4707 C   0  0  0  0  0  0  0  0  0  0  0  0
  -17.6598  -22.8212   22.4525 C   0  0  0  0  0  0  0  0  0  0  0  0
  -29.5481  -27.4866   20.7383 C   0  0  0  0  0  0  0  0  0  0  0  0
  -28.2584  -26.2601   19.1044 C   0  0  0  0  0  0  0  0  0  0  0  0
  -23.6179  -20.9115   23.3151 C   0  0  0  0  0  0  0  0  0  0  0  0
  -31.1328  -26.4670   17.3392 C   0  0  0  0  0  0  0  0  0  0  0  0
  -31.4382  -26.2046   16.0038 C   0  0  0  0  0  0  0  0  0  0  0  0
  -18.8687  -22.2042   22.7542 C   0  0  0  0  0  0  0  0  0  0  0  0
  -23.0597  -19.5721   21.3881 C   0  0  0  0  0  0  0  0  0  0  0  0
  -31.1515  -23.8391   16.4029 C   0  0  0  0  0  0  0  0  0  0  0  0
  -27.2466  -28.0887   20.3166 C   0  0  0  0  0  0  0  0  0  0  0  0
  -25.7648  -30.1327   19.9507 C   0  0  0  0  0  0  0  0  0  0  0  0
  -31.2857  -21.3944   21.4667 C   0  0  0  0  0  0  0  0  0  0  0  0
  -25.1266  -19.1578   22.5781 C   0  0  0  0  0  0  0  0  0  0  0  0
  -29.9126  -21.3574   21.1578 C   0  0  0  0  0  0  0  0  0  0  0  0
  -24.2453  -18.8361   21.5361 C   0  0  0  0  0  0  0  0  0  0  0  0
  -17.6343  -24.1785   22.1516 C   0  0  0  0  0  0  0  0  0  0  0  0
  -29.4555  -26.4683   19.7895 C   0  0  0  0  0  0  0  0  0  0  0  0
  -22.7490  -20.6051   22.2720 C   0  0  0  0  0  0  0  0  0  0  0  0
  -30.8368  -25.4154   18.2066 C   0  0  0  0  0  0  0  0  0  0  0  0
  -31.4475  -24.8907   15.5356 C   0  0  0  0  0  0  0  0  0  0  0  0
  -30.8461  -24.1015   17.7384 C   0  0  0  0  0  0  0  0  0  0  0  0
  -26.1053  -28.9249   20.5888 C   0  0  0  0  0  0  0  0  0  0  0  0
  -20.0150  -22.9825   22.7414 C   0  0  0  0  0  0  0  0  0  0  0  0
  -18.8358  -24.8684   22.1661 C   0  0  0  0  0  0  0  0  0  0  0  0
  -24.6037  -30.5312   20.5668 C   0  0  0  0  0  0  0  0  0  0  0  0
  -26.4379  -30.8318   18.8952 C   0  0  0  0  0  0  0  0  0  0  0  0
  -27.4954  -18.6355   20.5240 C   0  0  0  0  0  0  0  0  0  0  0  0
  -26.0605  -15.7438   20.2053 C   0  0  0  0  0  0  0  0  0  0  0  0
  -23.2177  -13.8748   20.4740 C   0  0  0  0  0  0  0  0  0  0  0  0
  -20.2970  -27.5504   23.4681 C   0  0  0  0  0  0  0  0  0  0  0  0
  -32.2643  -20.4273   20.8488 C   0  0  0  0  0  0  0  0  0  0  0  0
  -26.3926  -18.3700   22.7755 C   0  0  0  0  0  0  0  0  0  0  0  0
  -24.5398  -17.7250   20.5629 C   0  0  0  0  0  0  0  0  0  0  0  0
  -31.6012  -19.1905   20.2479 C   0  0  0  0  0  0  0  0  0  0  0  0
  -22.2810  -30.2201   24.7380 C   0  0  0  0  0  0  0  0  0  0  0  0
  -30.3961  -19.5887   19.4018 C   0  0  0  0  0  0  0  0  0  0  0  0
  -23.4554  -30.2999   23.7611 C   0  0  0  0  0  0  0  0  0  0  0  0
  -21.8374  -28.7775   24.9707 C   0  0  0  0  0  0  0  0  0  0  0  0
  -22.7063  -28.0978   22.7668 C   0  0  0  0  0  0  0  0  0  0  0  0
  -29.3323  -20.2919   20.2533 C   0  0  1  0  0  0  0  0  0  0  0  0
  -26.8719  -17.6803   21.5020 C   0  0  1  0  0  0  0  0  0  0  0  0
  -23.1530  -29.5369   22.4573 C   0  0  2  0  0  0  0  0  0  0  0  0
  -15.3457  -24.8025   23.0039 C   0  0  0  0  0  0  0  0  0  0  0  0
  -15.6792  -24.2679   20.5630 C   0  0  0  0  0  0  0  0  0  0  0  0
  -22.3463  -11.5504   20.1064 C   0  0  0  0  0  0  0  0  0  0  0  0
  -26.0029  -16.2440   17.1959 C   0  0  0  0  0  0  0  0  0  0  0  0
  -24.3196  -14.4019   16.9923 C   0  0  0  0  0  0  0  0  0  0  0  0
  -26.6080  -13.9083   17.8538 C   0  0  0  0  0  0  0  0  0  0  0  0
  -22.5168  -13.5608   23.3321 C   0  0  0  0  0  0  0  0  0  0  0  0
  -18.8695  -26.3273   21.8477 C   0  0  0  0  0  0  0  0  0  0  0  0
  -21.3372  -22.3490   23.0605 C   0  0  0  0  0  0  0  0  0  1  0  0
  -16.3420  -24.8453   21.8289 C   0  0  0  0  0  0  0  0  0  0  0  0
  -24.9812  -15.1784   19.3141 C   0  0  1  0  0  0  0  0  0  0  0  0
  -22.9597  -12.5188   21.1057 C   0  0  2  0  0  0  0  0  0  0  0  0
  -25.4730  -14.9554   17.8560 C   0  0  0  0  0  0  0  0  0  0  0  0
  -25.2313  -28.5789   21.5377 N   0  0  0  0  0  0  0  0  0  0  0  0
  -20.0297  -24.3035   22.4541 N   0  0  0  0  0  0  0  0  0  0  0  0
  -24.3302  -29.5753   21.5004 N   0  0  0  0  0  0  0  0  0  0  0  0
  -25.7932  -16.9879   20.7939 N   0  0  0  0  0  0  0  0  0  0  0  0
  -21.5649  -28.1107   23.6951 N   0  0  0  0  0  0  0  0  0  0  0  0
  -23.8004  -31.6025   20.3957 N   0  0  0  0  0  0  0  0  0  0  0  0
  -27.6185  -30.2826   18.3767 N   0  0  0  0  0  0  0  0  0  0  0  0
  -28.5829  -19.3246   21.0261 N   0  0  0  0  0  0  0  0  0  0  0  0
  -24.4990  -13.9696   19.9734 N   0  0  0  0  0  0  0  0  0  0  0  0
  -20.1205  -26.9429   22.2310 N   0  0  0  0  0  0  0  0  0  0  0  0
  -22.0283  -12.6545   22.2611 N   0  3  0  0  0  0  0  0  0  0  0  0
  -26.0140  -31.9199   18.4371 O   0  0  0  0  0  0  0  0  0  0  0  0
  -27.0257  -18.7386   19.3969 O   0  0  0  0  0  0  0  0  0  0  0  0
  -27.0995  -15.1019   20.3786 O   0  0  0  0  0  0  0  0  0  0  0  0
  -22.3665  -14.7600   20.4258 O   0  0  0  0  0  0  0  0  0  0  0  0
  -19.3878  -27.5933   24.3039 O   0  0  0  0  0  0  0  0  0  0  0  0
  -30.5330  -25.6776   19.5320 O   0  0  0  0  0  0  0  0  0  0  0  0
  -21.5948  -21.3094   22.1175 O   0  0  0  0  0  0  0  0  0  1  0  0
  -31.7393  -24.6390   14.2528 F   0  0  0  0  0  0  0  0  0  0  0  0
  -30.5614  -23.0872   18.5667 F   0  0  0  0  0  0  0  0  0  0  0  0
  1  2  1  0  0  0  0
  1  5  2  0  0  0  0
  2  6  2  0  0  0  0
  3  9  2  0  0  0  0
  3 17  1  0  0  0  0
  4 10  1  0  0  0  0
  4 17  2  0  0  0  0
  5 19  1  0  0  0  0
  6 21  1  0  0  0  0
  7 11  2  0  0  0  0
  7 20  1  0  0  0  0
  8 14  2  0  0  0  0
  8 23  1  0  0  0  0
  9 24  1  0  0  0  0
 10 24  2  0  0  0  0
 11 25  1  0  0  0  0
 12 13  2  0  0  0  0
 12 26  1  0  0  0  0
 13 27  1  0  0  0  0
 14 30  1  0  0  0  0
 15 22  1  0  0  0  0
 15 25  2  0  0  0  0
 16 27  2  0  0  0  0
 16 28  1  0  0  0  0
 17 29  1  0  0  0  0
 18 29  1  0  0  0  0
 18 32  2  0  0  0  0
 18 33  1  0  0  0  0
 19 21  2  0  0  0  0
 19 38  1  0  0  0  0
 20 22  2  0  0  0  0
 20 39  1  0  0  0  0
 21 47  1  0  0  0  0
 22 40  1  0  0  0  0
 23 31  2  0  0  0  0
 23 59  1  0  0  0  0
 24 79  1  0  0  0  0
 25 80  1  0  0  0  0
 26 28  2  0  0  0  0
 26 79  1  0  0  0  0
 27 81  1  0  0  0  0
 28 82  1  0  0  0  0
 29 63  2  0  0  0  0
 30 58  1  0  0  0  0
 30 64  2  0  0  0  0
 31 57  1  0  0  0  0
 31 64  1  0  0  0  0
 32 65  1  0  0  0  0
 32 68  1  0  0  0  0
 33 69  1  0  0  0  0
 33 74  2  0  0  0  0
 34 48  1  0  0  0  0
 34 70  1  0  0  0  0
 34 75  2  0  0  0  0
 35 60  1  0  0  0  0
 35 66  1  0  0  0  0
 35 76  2  0  0  0  0
 36 61  1  0  0  0  0
 36 71  1  0  0  0  0
 36 77  2  0  0  0  0
 37 67  1  0  0  0  0
 37 72  1  0  0  0  0
 37 78  2  0  0  0  0
 38 41  1  0  0  0  0
 39 48  1  0  0  0  0
 40 66  1  0  0  0  0
 41 43  1  0  0  0  0
 42 44  1  0  0  0  0
 42 45  1  0  0  0  0
 43 47  1  0  0  0  0
 44 49  1  0  0  0  0
 45 67  1  0  0  0  0
 46 49  1  0  0  0  0
 46 67  1  0  0  0  0
 47 70  1  0  0  0  0
 48 66  1  0  0  0  0
 49 65  1  0  0  0  0
 50 59  1  0  0  0  0
 51 59  1  0  0  0  0
 52 61  1  0  0  0  0
 53 62  1  0  0  0  0
 54 62  1  0  0  0  0
 55 62  1  0  0  0  0
 56 73  1  0  0  0  0
 57 72  1  0  0  0  0
 58 80  1  0  0  0  0
 60 62  1  0  0  0  0
 60 71  1  0  0  0  0
 61 73  1  0  0  0  0
 63 65  1  0  0  0  0
M  CHG  1  73   1
M  ISO  4  37 100  58 101  72 100  80 101
M  END
> <Batch ID>
0048

> <Smiles>
CNC(C)C(=O)NC(C(=O)N1Cc2cc([101O:1][101CH2:1]c3ccc(C(C)C)c(C[100NH:0][100C:0](=O)N4CCCC(n5nc(-c6ccc(Oc7ccc(F)cc7F)cc6)c(C(N)=O)c5N)C4)n3)ccc2CC1C(=O)NC1CCCc2ccccc21)C(C)(C)C

> <Shape>
0.221

> <Color>
0.065

> <Negative vol penalty>
0.000

$$$$

  -OEChem-04052317263D

 82 90  0     1  0  0  0  0  0999 V2000
  -18.0727  -25.6051   20.1762 C   0  0  0  0  0  0  0  0  0  0  0  0
  -19.2722  -25.9820   19.5807 C   0  0  0  0  0  0  0  0  0  0  0  0
  -27.0250  -15.5774   21.0208 C   0  0  0  0  0  0  0  0  0  0  0  0
  -27.2044  -16.0289   18.6541 C   0  0  0  0  0  0  0  0  0  0  0  0
  -17.7474  -26.0786   21.4466 C   0  0  0  0  0  0  0  0  0  0  0  0
  -20.1467  -26.8336   20.2549 C   0  0  0  0  0  0  0  0  0  0  0  0
  -24.9612  -25.2877   19.9808 C   0  0  0  0  0  0  0  0  0  0  0  0
  -25.9037  -14.7822   20.7841 C   0  0  0  0  0  0  0  0  0  0  0  0
  -26.0831  -15.2337   18.4174 C   0  0  0  0  0  0  0  0  0  0  0  0
  -25.6441  -25.5396   18.7917 C   0  0  0  0  0  0  0  0  0  0  0  0
  -25.2577  -11.6521   19.6806 C   0  0  0  0  0  0  0  0  0  0  0  0
  -25.1882  -10.4197   20.3302 C   0  0  0  0  0  0  0  0  0  0  0  0
  -26.7036  -27.4514   19.8123 C   0  0  0  0  0  0  0  0  0  0  0  0
  -23.1406  -11.1062   21.4133 C   0  0  0  0  0  0  0  0  0  0  0  0
  -27.6753  -16.2008   19.9558 C   0  0  0  0  0  0  0  0  0  0  0  0
  -30.1791  -16.6102   20.2227 C   0  0  0  0  0  0  0  0  0  0  0  0
  -18.6228  -26.9287   22.1407 C   0  0  0  0  0  0  0  0  0  0  0  0
  -25.1364  -26.1235   21.0930 C   0  0  0  0  0  0  0  0  0  0  0  0
  -19.8322  -27.3200   21.5352 C   0  0  0  0  0  0  0  0  0  0  0  0
  -26.0237  -27.2064   21.0151 C   0  0  0  0  0  0  0  0  0  0  0  0
  -25.4328  -14.6104   19.4825 C   0  0  0  0  0  0  0  0  0  0  0  0
  -26.5133  -26.6233   18.7064 C   0  0  0  0  0  0  0  0  0  0  0  0
  -24.2687  -12.6116   19.8974 C   0  0  0  0  0  0  0  0  0  0  0  0
  -24.1296  -10.1467   21.1966 C   0  0  0  0  0  0  0  0  0  0  0  0
  -23.2102  -12.3386   20.7638 C   0  0  0  0  0  0  0  0  0  0  0  0
  -28.8333  -17.0228   20.1996 C   0  0  0  0  0  0  0  0  0  0  0  0
  -30.8851  -17.7567   20.4941 C   0  0  0  0  0  0  0  0  0  0  0  0
  -28.3661  -22.8211   14.3503 C   0  0  0  0  0  0  0  0  0  0  0  0
  -29.2699  -23.7740   15.9726 C   0  0  0  0  0  0  0  0  0  0  0  0
  -30.7407  -15.3072   20.0172 C   0  0  0  0  0  0  0  0  0  0  0  0
  -23.2335  -28.0097   22.8033 C   0  0  0  0  0  0  0  0  0  0  0  0
  -25.8676  -28.3192   24.6710 C   0  0  0  0  0  0  0  0  0  0  0  0
  -29.2665  -28.1633   24.9351 C   0  0  0  0  0  0  0  0  0  0  0  0
  -29.7193  -23.5650   19.6251 C   0  0  0  0  0  0  0  0  0  0  0  0
  -18.2063  -27.4527   23.4922 C   0  0  0  0  0  0  0  0  0  0  0  0
  -24.4127  -25.8226   22.3768 C   0  0  0  0  0  0  0  0  0  0  0  0
  -26.2623  -28.1220   22.1869 C   0  0  0  0  0  0  0  0  0  0  0  0
  -19.3585  -28.0515   24.2948 C   0  0  0  0  0  0  0  0  0  0  0  0
  -30.4696  -21.9717   22.7195 C   0  0  0  0  0  0  0  0  0  0  0  0
  -20.1913  -28.9829   23.4197 C   0  0  0  0  0  0  0  0  0  0  0  0
  -30.2567  -20.4854   22.4266 C   0  0  0  0  0  0  0  0  0  0  0  0
  -29.4567  -22.8432   21.9802 C   0  0  0  0  0  0  0  0  0  0  0  0
  -29.1764  -21.1291   20.2318 C   0  0  0  0  0  0  0  0  0  0  0  0
  -20.8182  -28.2223   22.2450 C   0  0  1  0  0  0  0  0  0  0  0  0
  -24.2757  -27.0405   23.2852 C   0  0  1  0  0  0  0  0  0  0  0  0
  -30.2094  -20.2137   20.9110 C   0  0  2  0  0  0  0  0  0  0  0  0
  -27.8828  -21.7468   13.4750 C   0  0  0  0  0  0  0  0  0  0  0  0
  -31.4889  -24.3049   17.0477 C   0  0  0  0  0  0  0  0  0  0  0  0
  -31.5201  -28.1951   26.0385 C   0  0  0  0  0  0  0  0  0  0  0  0
  -25.5639  -31.3415   24.3819 C   0  0  0  0  0  0  0  0  0  0  0  0
  -27.9160  -31.5864   25.2043 C   0  0  0  0  0  0  0  0  0  0  0  0
  -26.1802  -30.5700   26.6796 C   0  0  0  0  0  0  0  0  0  0  0  0
  -29.1453  -25.2665   25.5291 C   0  0  0  0  0  0  0  0  0  0  0  0
  -27.4379  -26.8641   15.1613 C   0  0  0  0  0  0  0  0  0  0  0  0
  -28.8160  -26.2011   15.2158 C   0  0  0  0  0  0  0  0  0  0  0  0
  -26.5386  -26.4854   16.3323 C   0  0  0  0  0  0  0  0  0  1  0  0
  -29.9661  -24.1317   17.2216 C   0  0  2  0  0  0  0  0  0  0  0  0
  -27.0512  -29.2556   24.7033 C   0  0  1  0  0  0  0  0  0  0  0  0
  -30.1677  -27.5037   25.9633 C   0  0  2  0  0  0  0  0  0  0  0  0
  -26.6721  -30.6724   25.2194 C   0  0  0  0  0  0  0  0  0  0  0  0
  -28.6904  -18.3293   20.4376 N   0  0  0  0  0  0  0  0  0  0  0  0
  -29.0277  -22.5668   15.5174 N   0  0  0  0  0  0  0  0  0  0  0  0
  -28.1836  -24.1098   14.0547 N   0  0  0  0  0  0  0  0  0  0  0  0
  -29.9555  -18.7476   20.6128 N   0  0  0  0  0  0  0  0  0  0  0  0
  -28.7709  -24.6978   15.1081 N   0  0  0  0  0  0  0  0  0  0  0  0
  -25.5267  -27.7899   23.4182 N   0  0  0  0  0  0  0  0  0  0  0  0
  -29.4629  -22.5373   20.5476 N   0  0  0  0  0  0  0  0  0  0  0  0
  -32.2041  -18.0037   20.6405 N   0  0  0  0  0  0  0  0  0  0  0  0
  -29.8726  -14.2402   19.7486 N   0  0  0  0  0  0  0  0  0  0  0  0
  -21.9686  -27.4651   22.6894 N   0  0  0  0  0  0  0  0  0  0  0  0
  -28.0792  -28.5871   25.4937 N   0  0  0  0  0  0  0  0  0  0  0  0
  -29.7129  -23.1883   18.2877 N   0  0  0  0  0  0  0  0  0  0  0  0
  -30.3906  -26.0721   25.6142 N   0  3  0  0  0  0  0  0  0  0  0  0
  -31.9746  -15.0922   20.0863 O   0  0  0  0  0  0  0  0  0  0  0  0
  -23.5530  -29.1663   22.5548 O   0  0  0  0  0  0  0  0  0  0  0  0
  -25.2719  -28.0610   25.7199 O   0  0  0  0  0  0  0  0  0  0  0  0
  -29.5855  -28.2932   23.7554 O   0  0  0  0  0  0  0  0  0  0  0  0
  -29.9431  -24.7309   19.9683 O   0  0  0  0  0  0  0  0  0  0  0  0
  -24.3388  -13.8343   19.2511 O   0  0  0  0  0  0  0  0  0  0  0  0
  -27.1806  -26.8718   17.5467 O   0  0  0  0  0  0  0  0  0  1  0  0
  -24.0621   -8.9627   21.8191 F   0  0  0  0  0  0  0  0  0  0  0  0
  -22.2564  -13.2560   20.9751 F   0  0  0  0  0  0  0  0  0  0  0  0
  1  2  1  0  0  0  0
  1  5  2  0  0  0  0
  2  6  2  0  0  0  0
  3  8  2  0  0  0  0
  3 15  1  0  0  0  0
  4  9  1  0  0  0  0
  4 15  2  0  0  0  0
  5 17  1  0  0  0  0
  6 19  1  0  0  0  0
  7 10  2  0  0  0  0
  7 18  1  0  0  0  0
  8 21  1  0  0  0  0
  9 21  2  0  0  0  0
 10 22  1  0  0  0  0
 11 12  2  0  0  0  0
 11 23  1  0  0  0  0
 12 24  1  0  0  0  0
 13 20  1  0  0  0  0
 13 22  2  0  0  0  0
 14 24  2  0  0  0  0
 14 25  1  0  0  0  0
 15 26  1  0  0  0  0
 16 26  1  0  0  0  0
 16 27  2  0  0  0  0
 16 30  1  0  0  0  0
 17 19  2  0  0  0  0
 17 35  1  0  0  0  0
 18 20  2  0  0  0  0
 18 36  1  0  0  0  0
 19 44  1  0  0  0  0
 20 37  1  0  0  0  0
 21 79  1  0  0  0  0
 22 80  1  0  0  0  0
 23 25  2  0  0  0  0
 23 79  1  0  0  0  0
 24 81  1  0  0  0  0
 25 82  1  0  0  0  0
 26 61  2  0  0  0  0
 27 64  1  0  0  0  0
 27 68  1  0  0  0  0
 28 47  1  0  0  0  0
 28 62  1  0  0  0  0
 28 63  2  0  0  0  0
 29 57  1  0  0  0  0
 29 62  2  0  0  0  0
 29 65  1  0  0  0  0
 30 69  1  0  0  0  0
 30 74  2  0  0  0  0
 31 45  1  0  0  0  0
 31 70  1  0  0  0  0
 31 75  2  0  0  0  0
 32 58  1  0  0  0  0
 32 66  1  0  0  0  0
 32 76  2  0  0  0  0
 33 59  1  0  0  0  0
 33 71  1  0  0  0  0
 33 77  2  0  0  0  0
 34 67  1  0  0  0  0
 34 72  1  0  0  0  0
 34 78  2  0  0  0  0
 35 38  1  0  0  0  0
 36 45  1  0  0  0  0
 37 66  1  0  0  0  0
 38 40  1  0  0  0  0
 39 41  1  0  0  0  0
 39 42  1  0  0  0  0
 40 44  1  0  0  0  0
 41 46  1  0  0  0  0
 42 67  1  0  0  0  0
 43 46  1  0  0  0  0
 43 67  1  0  0  0  0
 44 70  1  0  0  0  0
 45 66  1  0  0  0  0
 46 64  1  0  0  0  0
 48 57  1  0  0  0  0
 49 59  1  0  0  0  0
 50 60  1  0  0  0  0
 51 60  1  0  0  0  0
 52 60  1  0  0  0  0
 53 73  1  0  0  0  0
 54 55  1  0  0  0  0
 54 56  1  0  0  0  0
 55 65  1  0  0  0  0
 56 80  1  0  0  0  0
 57 72  1  0  0  0  0
 58 60  1  0  0  0  0
 58 71  1  0  0  0  0
 59 73  1  0  0  0  0
 61 64  1  0  0  0  0
 63 65  1  0  0  0  0
M  CHG  1  73   1
M  ISO  4  34 100  56 101  72 100  80 101
M  END
> <Batch ID>
0048

> <Smiles>
CNC(C)C(=O)NC(C(=O)N1Cc2cc([101O:1][101CH2:1]CCn3nc(C)nc3C(C)[100NH:0][100C:0](=O)N3CCCC(n4nc(-c5ccc(Oc6ccc(F)cc6F)cc5)c(C(N)=O)c4N)C3)ccc2CC1C(=O)NC1CCCc2ccccc21)C(C)(C)C

> <Shape>
0.268

> <Color>
0.067

> <Negative vol penalty>
0.000

$$$$

  -OEChem-04052317263D

 81 88  0     1  0  0  0  0  0999 V2000
  -25.1361  -35.1898   23.4076 C   0  0  0  0  0  0  0  0  0  0  0  0
  -25.8492  -34.0409   23.0808 C   0  0  0  0  0  0  0  0  0  0  0  0
  -24.9393  -13.2478   19.3721 C   0  0  0  0  0  0  0  0  0  0  0  0
  -25.0900  -14.3100   21.5368 C   0  0  0  0  0  0  0  0  0  0  0  0
  -23.8784  -35.0834   23.9999 C   0  0  0  0  0  0  0  0  0  0  0  0
  -25.3055  -32.7848   23.3473 C   0  0  0  0  0  0  0  0  0  0  0  0
  -25.8582  -29.5675   19.4757 C   0  0  0  0  0  0  0  0  0  0  0  0
  -24.9538  -11.9953   19.9857 C   0  0  0  0  0  0  0  0  0  0  0  0
  -25.1044  -13.0575   22.1504 C   0  0  0  0  0  0  0  0  0  0  0  0
  -27.1122  -28.9814   19.3090 C   0  0  0  0  0  0  0  0  0  0  0  0
  -22.7698   -9.9961   21.6187 C   0  0  0  0  0  0  0  0  0  0  0  0
  -21.8491   -9.0466   21.1757 C   0  0  0  0  0  0  0  0  0  0  0  0
  -26.3098  -26.9745   20.3803 C   0  0  0  0  0  0  0  0  0  0  0  0
  -23.6633   -7.5740   20.5613 C   0  0  0  0  0  0  0  0  0  0  0  0
  -25.0075  -14.4052   20.1477 C   0  0  0  0  0  0  0  0  0  0  0  0
  -23.8648  -16.4836   19.2084 C   0  0  0  0  0  0  0  0  0  0  0  0
  -23.3149  -33.8253   24.2650 C   0  0  0  0  0  0  0  0  0  0  0  0
  -24.8221  -28.8643   20.1068 C   0  0  0  0  0  0  0  0  0  0  0  0
  -24.0397  -32.6614   23.9450 C   0  0  0  0  0  0  0  0  0  0  0  0
  -25.0429  -27.5530   20.5515 C   0  0  0  0  0  0  0  0  0  0  0  0
  -25.0363  -11.9001   21.3748 C   0  0  0  0  0  0  0  0  0  0  0  0
  -27.3390  -27.6857   19.7639 C   0  0  0  0  0  0  0  0  0  0  0  0
  -24.1373   -9.7346   21.5329 C   0  0  0  0  0  0  0  0  0  0  0  0
  -22.2958   -7.8356   20.6470 C   0  0  0  0  0  0  0  0  0  0  0  0
  -24.5840   -8.5236   21.0043 C   0  0  0  0  0  0  0  0  0  0  0  0
  -24.9931  -15.6994   19.5144 C   0  0  0  0  0  0  0  0  0  0  0  0
  -24.3806  -17.6123   18.6196 C   0  0  0  0  0  0  0  0  0  0  0  0
  -22.4748  -16.2159   19.4360 C   0  0  0  0  0  0  0  0  0  0  0  0
  -23.0959  -29.2983   22.7404 C   0  0  0  0  0  0  0  0  0  0  0  0
  -21.4691  -26.7208   21.6302 C   0  0  0  0  0  0  0  0  0  0  0  0
  -21.4669  -23.9091   19.6960 C   0  0  0  0  0  0  0  0  0  0  0  0
  -29.6339  -20.2594   19.1201 C   0  0  0  0  0  0  0  0  0  0  0  0
  -21.9727  -33.7608   24.9498 C   0  0  0  0  0  0  0  0  0  0  0  0
  -23.4674  -29.5009   20.2551 C   0  0  0  0  0  0  0  0  0  0  0  0
  -23.9579  -26.7481   21.2173 C   0  0  0  0  0  0  0  0  0  0  0  0
  -21.3064  -32.3905   24.8564 C   0  0  0  0  0  0  0  0  0  0  0  0
  -28.1210  -19.1138   16.0385 C   0  0  0  0  0  0  0  0  0  0  0  0
  -22.3056  -31.2873   25.1901 C   0  0  0  0  0  0  0  0  0  0  0  0
  -27.0325  -18.1762   16.5643 C   0  0  0  0  0  0  0  0  0  0  0  0
  -29.3872  -19.0203   16.8848 C   0  0  0  0  0  0  0  0  0  0  0  0
  -28.0895  -18.3378   18.8657 C   0  0  0  0  0  0  0  0  0  0  0  0
  -23.4729  -31.2809   24.1957 C   0  0  1  0  0  0  0  0  0  0  0  0
  -22.6347  -28.8806   21.3727 C   0  0  1  0  0  0  0  0  0  0  0  0
  -26.7756  -18.4023   18.0660 C   0  0  2  0  0  0  0  0  0  0  0  0
  -20.0049  -21.9852   19.0186 C   0  0  0  0  0  0  0  0  0  0  0  0
  -26.4409  -24.9970   17.4122 C   0  0  0  0  0  0  0  0  0  0  0  0
  -26.7526  -24.6559   14.9434 C   0  0  0  0  0  0  0  0  0  0  0  0
  -21.9351  -25.4131   24.3473 C   0  0  0  0  0  0  0  0  0  0  0  0
  -21.3212  -23.2155   23.3170 C   0  0  0  0  0  0  0  0  0  0  0  0
  -19.6473  -25.0631   23.3998 C   0  0  0  0  0  0  0  0  0  0  0  0
  -21.5738  -24.6822   16.8412 C   0  0  0  0  0  0  0  0  0  0  0  0
  -30.4502  -23.4770   19.1311 C   0  0  0  0  0  0  0  0  0  0  0  0
  -31.2206  -22.1643   19.2233 C   0  0  0  0  0  0  0  0  0  0  0  0
  -30.2641  -23.9371   17.6908 C   0  0  0  0  0  0  0  0  0  0  0  0
  -30.2591  -26.4005   18.0545 C   0  0  0  0  0  0  0  0  0  0  0  0
  -28.7307  -25.3878   16.3695 C   0  0  0  0  0  0  0  0  0  0  0  0
  -29.3289  -27.5225   18.4718 C   0  0  0  0  0  0  0  0  0  1  0  0
  -21.5941  -25.2254   21.7949 C   0  0  1  0  0  0  0  0  0  0  0  0
  -20.4719  -23.3907   18.6733 C   0  0  2  0  0  0  0  0  0  0  0  0
  -27.4249  -24.5868   16.3155 C   0  0  0  0  0  0  0  0  0  0  0  0
  -21.1456  -24.7449   23.2040 C   0  0  0  0  0  0  0  0  0  0  0  0
  -26.1392  -16.2806   19.1500 N   0  0  0  0  0  0  0  0  0  0  0  0
  -25.7337  -17.4419   18.6089 N   0  0  0  0  0  0  0  0  0  0  0  0
  -22.6524  -27.4166   21.3448 N   0  0  0  0  0  0  0  0  0  0  0  0
  -29.0767  -19.2637   18.3006 N   0  0  0  0  0  0  0  0  0  0  0  0
  -23.8041  -18.7238   18.1151 N   0  0  0  0  0  0  0  0  0  0  0  0
  -22.1192  -15.0084   20.0524 N   0  0  0  0  0  0  0  0  0  0  0  0
  -23.0718  -30.6640   22.9495 N   0  0  0  0  0  0  0  0  0  0  0  0
  -20.8451  -24.6294   20.6939 N   0  0  0  0  0  0  0  0  0  0  0  0
  -30.5659  -21.0902   18.5102 N   0  0  0  0  0  0  0  0  0  0  0  0
  -21.0905  -23.3607   17.3178 N   0  3  0  0  0  0  0  0  0  0  0  0
  -29.4543  -25.2100   17.6813 N   0  3  1  0  0  0  0  0  0  0  0  0
  -21.5737  -17.0161   19.0878 O   0  0  0  0  0  0  0  0  0  0  0  0
  -23.4461  -28.4446   23.5468 O   0  0  0  0  0  0  0  0  0  0  0  0
  -20.3611  -27.2511   21.7432 O   0  0  0  0  0  0  0  0  0  0  0  0
  -22.6744  -23.6932   19.6194 O   0  0  0  0  0  0  0  0  0  0  0  0
  -29.3200  -20.4012   20.3069 O   0  0  0  0  0  0  0  0  0  0  0  0
  -25.0501  -10.6780   21.9739 O   0  0  0  0  0  0  0  0  0  0  0  0
  -28.5622  -27.1115   19.6030 O   0  0  0  0  0  0  0  0  0  1  0  0
  -21.4115   -6.9232   20.2231 F   0  0  0  0  0  0  0  0  0  0  0  0
  -25.8965   -8.2662   20.9205 F   0  0  0  0  0  0  0  0  0  0  0  0
  1  2  1  0  0  0  0
  1  5  2  0  0  0  0
  2  6  2  0  0  0  0
  3  8  2  0  0  0  0
  3 15  1  0  0  0  0
  4  9  1  0  0  0  0
  4 15  2  0  0  0  0
  5 17  1  0  0  0  0
  6 19  1  0  0  0  0
  7 10  2  0  0  0  0
  7 18  1  0  0  0  0
  8 21  1  0  0  0  0
  9 21  2  0  0  0  0
 10 22  1  0  0  0  0
 11 12  2  0  0  0  0
 11 23  1  0  0  0  0
 12 24  1  0  0  0  0
 13 20  1  0  0  0  0
 13 22  2  0  0  0  0
 14 24  2  0  0  0  0
 14 25  1  0  0  0  0
 15 26  1  0  0  0  0
 16 26  1  0  0  0  0
 16 27  2  0  0  0  0
 16 28  1  0  0  0  0
 17 19  2  0  0  0  0
 17 33  1  0  0  0  0
 18 20  2  0  0  0  0
 18 34  1  0  0  0  0
 19 42  1  0  0  0  0
 20 35  1  0  0  0  0
 21 78  1  0  0  0  0
 22 79  1  0  0  0  0
 23 25  2  0  0  0  0
 23 78  1  0  0  0  0
 24 80  1  0  0  0  0
 25 81  1  0  0  0  0
 26 62  2  0  0  0  0
 27 63  1  0  0  0  0
 27 66  1  0  0  0  0
 28 67  1  0  0  0  0
 28 73  2  0  0  0  0
 29 43  1  0  0  0  0
 29 68  1  0  0  0  0
 29 74  2  0  0  0  0
 30 58  1  0  0  0  0
 30 64  1  0  0  0  0
 30 75  2  0  0  0  0
 31 59  1  0  0  0  0
 31 69  1  0  0  0  0
 31 76  2  0  0  0  0
 32 65  1  0  0  0  0
 32 70  1  0  0  0  0
 32 77  2  0  0  0  0
 33 36  1  0  0  0  0
 34 43  1  0  0  0  0
 35 64  1  0  0  0  0
 36 38  1  0  0  0  0
 37 39  1  0  0  0  0
 37 40  1  0  0  0  0
 38 42  1  0  0  0  0
 39 44  1  0  0  0  0
 40 65  1  0  0  0  0
 41 44  1  0  0  0  0
 41 65  1  0  0  0  0
 42 68  1  0  0  0  0
 43 64  1  0  0  0  0
 44 63  1  0  0  0  0
 45 59  1  0  0  0  0
 46 60  1  0  0  0  0
 47 60  1  0  0  0  0
 48 61  1  0  0  0  0
 49 61  1  0  0  0  0
 50 61  1  0  0  0  0
 51 71  1  0  0  0  0
 52 53  1  0  0  0  0
 52 54  1  0  0  0  0
 53 70  1  0  0  0  0
 54 72  1  0  0  0  0
 55 57  1  0  0  0  0
 55 72  1  0  0  0  0
 56 60  1  0  0  0  0
 56 72  1  0  0  0  0
 57 79  1  0  0  0  0
 58 61  1  0  0  0  0
 58 69  1  0  0  0  0
 59 71  1  0  0  0  0
 62 63  1  0  0  0  0
M  CHG  2  71   1  72   1
M  ISO  4  32 100  57 101  70 100  79 101
M  END
> <Batch ID>
0048

> <Smiles>
CNC(C)C(=O)NC(C(=O)N1Cc2cc([101O:1][101CH2:1]CN(CCC[100NH:0][100C:0](=O)N3CCCC(n4nc(-c5ccc(Oc6ccc(F)cc6F)cc5)c(C(N)=O)c4N)C3)CC(C)C)ccc2CC1C(=O)NC1CCCc2ccccc21)C(C)(C)C

> <Shape>
0.234

> <Color>
0.098

> <Negative vol penalty>
0.000

$$$$

  -OEChem-04052317263D

 82 90  0     1  0  0  0  0  0999 V2000
  -27.8497  -24.6978   16.6077 C   0  0  0  0  0  0  0  0  0  0  0  0
  -26.6715  -24.9233   17.3122 C   0  0  0  0  0  0  0  0  0  0  0  0
  -23.8342  -15.3562   18.9853 C   0  0  0  0  0  0  0  0  0  0  0  0
  -25.7508  -16.6359   19.7104 C   0  0  0  0  0  0  0  0  0  0  0  0
  -29.0641  -25.1545   17.1181 C   0  0  0  0  0  0  0  0  0  0  0  0
  -26.7072  -25.6047   18.5283 C   0  0  0  0  0  0  0  0  0  0  0  0
  -23.0564  -29.0936   18.9079 C   0  0  0  0  0  0  0  0  0  0  0  0
  -24.6832  -14.3864   18.4523 C   0  0  0  0  0  0  0  0  0  0  0  0
  -26.6000  -15.6661   19.1774 C   0  0  0  0  0  0  0  0  0  0  0  0
  -21.7721  -28.6413   19.2073 C   0  0  0  0  0  0  0  0  0  0  0  0
  -29.2704  -13.3504   18.3261 C   0  0  0  0  0  0  0  0  0  0  0  0
  -30.3534  -12.9382   19.1025 C   0  0  0  0  0  0  0  0  0  0  0  0
  -22.0969  -29.2649   21.5149 C   0  0  0  0  0  0  0  0  0  0  0  0
  -28.8339  -12.1967   20.8283 C   0  0  0  0  0  0  0  0  0  0  0  0
  -17.1576  -26.0290   22.3115 C   0  0  0  0  0  0  0  0  0  0  0  0
  -24.3679  -16.4810   19.6143 C   0  0  0  0  0  0  0  0  0  0  0  0
  -22.9667  -17.5299   21.4701 C   0  0  0  0  0  0  0  0  0  0  0  0
  -29.1135  -25.8504   18.3363 C   0  0  0  0  0  0  0  0  0  0  0  0
  -23.8760  -29.6259   19.9136 C   0  0  0  0  0  0  0  0  0  0  0  0
  -27.9236  -26.0700   19.0561 C   0  0  0  0  0  0  0  0  0  0  0  0
  -23.3903  -29.7256   21.2251 C   0  0  0  0  0  0  0  0  0  0  0  0
  -26.0661  -14.5413   18.5484 C   0  0  0  0  0  0  0  0  0  0  0  0
  -21.2932  -28.7242   20.5115 C   0  0  0  0  0  0  0  0  0  0  0  0
  -27.9692  -13.1859   18.8009 C   0  0  0  0  0  0  0  0  0  0  0  0
  -30.1352  -12.3613   20.3536 C   0  0  0  0  0  0  0  0  0  0  0  0
  -27.7509  -12.6090   20.0520 C   0  0  0  0  0  0  0  0  0  0  0  0
  -23.4914  -17.4834   20.1646 C   0  0  0  0  0  0  0  0  0  0  0  0
  -18.0954  -26.1744   21.3130 C   0  0  0  0  0  0  0  0  0  0  0  0
  -18.3631  -24.2964   23.1915 C   0  0  0  0  0  0  0  0  0  0  0  0
  -19.3005  -24.4412   22.1926 C   0  0  0  0  0  0  0  0  0  0  0  0
  -22.1993  -18.6688   21.4914 C   0  0  0  0  0  0  0  0  0  0  0  0
  -23.1562  -16.6245   22.5656 C   0  0  0  0  0  0  0  0  0  0  0  0
  -26.6789  -28.8249   21.1809 C   0  0  0  0  0  0  0  0  0  0  0  0
  -26.3261  -31.6346   22.7631 C   0  0  0  0  0  0  0  0  0  0  0  0
  -24.2237  -34.0435   23.9564 C   0  0  0  0  0  0  0  0  0  0  0  0
  -21.9779  -24.1922   20.1649 C   0  0  0  0  0  0  0  0  0  0  0  0
  -30.4556  -26.2834   18.8711 C   0  0  0  0  0  0  0  0  0  0  0  0
  -25.2492  -30.1340   19.5691 C   0  0  0  0  0  0  0  0  0  0  0  0
  -24.2230  -30.3076   22.3371 C   0  0  0  0  0  0  0  0  0  0  0  0
  -30.3609  -27.3251   19.9830 C   0  0  0  0  0  0  0  0  0  0  0  0
  -20.6747  -21.7033   17.7548 C   0  0  0  0  0  0  0  0  0  0  0  0
  -29.3080  -26.9170   21.0085 C   0  0  0  0  0  0  0  0  0  0  0  0
  -21.3119  -20.4029   18.2416 C   0  0  0  0  0  0  0  0  0  0  0  0
  -21.5311  -22.9181   18.0989 C   0  0  0  0  0  0  0  0  0  0  0  0
  -22.5102  -21.7241   20.0302 C   0  0  0  0  0  0  0  0  0  0  0  0
  -27.9183  -26.8270   20.3665 C   0  0  1  0  0  0  0  0  0  0  0  0
  -26.1868  -30.1842   20.7715 C   0  0  1  0  0  0  0  0  0  0  0  0
  -21.6498  -20.4851   19.7404 C   0  0  2  0  0  0  0  0  0  0  0  0
  -18.5042  -23.2507   24.2443 C   0  0  0  0  0  0  0  0  0  0  0  0
  -24.2252  -36.1994   25.2406 C   0  0  0  0  0  0  0  0  0  0  0  0
  -26.7759  -30.0878   25.3545 C   0  0  0  0  0  0  0  0  0  0  0  0
  -25.8403  -32.0455   26.6037 C   0  0  0  0  0  0  0  0  0  0  0  0
  -27.9210  -32.3088   25.2531 C   0  0  0  0  0  0  0  0  0  0  0  0
  -22.3073  -25.2161   22.3836 C   0  0  0  0  0  0  0  0  0  0  0  0
  -23.0476  -35.5320   21.6848 C   0  0  0  0  0  0  0  0  0  0  0  0
  -17.9316  -27.2412   20.2579 C   0  0  0  0  0  0  0  0  0  0  0  0
  -20.4995  -23.5587   22.1183 C   0  0  0  0  0  0  0  0  0  0  0  0
  -19.2706  -27.7463   19.7314 C   0  0  0  0  0  0  0  0  0  1  0  0
  -25.7005  -32.0534   24.0716 C   0  0  1  0  0  0  0  0  0  0  0  0
  -24.2705  -35.5579   23.8625 C   0  0  2  0  0  0  0  0  0  0  0  0
  -26.5442  -31.6111   25.3004 C   0  0  0  0  0  0  0  0  0  0  0  0
  -17.2747  -25.0875   23.2687 N   0  0  0  0  0  0  0  0  0  0  0  0
  -23.0909  -18.5110   19.4111 N   0  0  0  0  0  0  0  0  0  0  0  0
  -19.1837  -25.3830   21.2356 N   0  0  0  0  0  0  0  0  0  0  0  0
  -22.3065  -19.2138   20.2458 N   0  0  0  0  0  0  0  0  0  0  0  0
  -25.5612  -30.7850   21.9513 N   0  0  0  0  0  0  0  0  0  0  0  0
  -21.8737  -22.9482   19.5212 N   0  0  0  0  0  0  0  0  0  0  0  0
  -21.4500  -19.2471   22.4540 N   0  0  0  0  0  0  0  0  0  0  0  0
  -23.9762  -15.5044   22.3726 N   0  0  0  0  0  0  0  0  0  0  0  0
  -27.3587  -28.1493   20.1854 N   0  0  0  0  0  0  0  0  0  0  0  0
  -25.4881  -33.4939   23.9799 N   0  0  0  0  0  0  0  0  0  0  0  0
  -21.6528  -24.2356   21.5291 N   0  0  0  0  0  0  0  0  0  0  0  0
  -23.1141  -36.0638   23.0703 N   0  3  0  0  0  0  0  0  0  0  0  0
  -22.6013  -16.7948   23.6777 O   0  0  0  0  0  0  0  0  0  0  0  0
  -26.4595  -28.4196   22.3164 O   0  0  0  0  0  0  0  0  0  0  0  0
  -27.4491  -32.0517   22.4689 O   0  0  0  0  0  0  0  0  0  0  0  0
  -23.1708  -33.4115   24.0077 O   0  0  0  0  0  0  0  0  0  0  0  0
  -22.3316  -25.2082   19.5528 O   0  0  0  0  0  0  0  0  0  0  0  0
  -26.8950  -13.5950   18.0286 O   0  0  0  0  0  0  0  0  0  0  0  0
  -20.0402  -28.2828   20.8066 O   0  0  0  0  0  0  0  0  0  1  0  0
  -31.1752  -11.9640   21.0984 F   0  0  0  0  0  0  0  0  0  0  0  0
  -26.5030  -12.4473   20.5129 F   0  0  0  0  0  0  0  0  0  0  0  0
  1  2  1  0  0  0  0
  1  5  2  0  0  0  0
  2  6  2  0  0  0  0
  3  8  2  0  0  0  0
  3 16  1  0  0  0  0
  4  9  1  0  0  0  0
  4 16  2  0  0  0  0
  5 18  1  0  0  0  0
  6 20  1  0  0  0  0
  7 10  2  0  0  0  0
  7 19  1  0  0  0  0
  8 22  1  0  0  0  0
  9 22  2  0  0  0  0
 10 23  1  0  0  0  0
 11 12  2  0  0  0  0
 11 24  1  0  0  0  0
 12 25  1  0  0  0  0
 13 21  1  0  0  0  0
 13 23  2  0  0  0  0
 14 25  2  0  0  0  0
 14 26  1  0  0  0  0
 15 28  1  0  0  0  0
 15 62  2  0  0  0  0
 16 27  1  0  0  0  0
 17 27  1  0  0  0  0
 17 31  2  0  0  0  0
 17 32  1  0  0  0  0
 18 20  2  0  0  0  0
 18 37  1  0  0  0  0
 19 21  2  0  0  0  0
 19 38  1  0  0  0  0
 20 46  1  0  0  0  0
 21 39  1  0  0  0  0
 22 79  1  0  0  0  0
 23 80  1  0  0  0  0
 24 26  2  0  0  0  0
 24 79  1  0  0  0  0
 25 81  1  0  0  0  0
 26 82  1  0  0  0  0
 27 63  2  0  0  0  0
 28 56  1  0  0  0  0
 28 64  2  0  0  0  0
 29 30  2  0  0  0  0
 29 49  1  0  0  0  0
 29 62  1  0  0  0  0
 30 57  1  0  0  0  0
 30 64  1  0  0  0  0
 31 65  1  0  0  0  0
 31 68  1  0  0  0  0
 32 69  1  0  0  0  0
 32 74  2  0  0  0  0
 33 47  1  0  0  0  0
 33 70  1  0  0  0  0
 33 75  2  0  0  0  0
 34 59  1  0  0  0  0
 34 66  1  0  0  0  0
 34 76  2  0  0  0  0
 35 60  1  0  0  0  0
 35 71  1  0  0  0  0
 35 77  2  0  0  0  0
 36 67  1  0  0  0  0
 36 72  1  0  0  0  0
 36 78  2  0  0  0  0
 37 40  1  0  0  0  0
 38 47  1  0  0  0  0
 39 66  1  0  0  0  0
 40 42  1  0  0  0  0
 41 43  1  0  0  0  0
 41 44  1  0  0  0  0
 42 46  1  0  0  0  0
 43 48  1  0  0  0  0
 44 67  1  0  0  0  0
 45 48  1  0  0  0  0
 45 67  1  0  0  0  0
 46 70  1  0  0  0  0
 47 66  1  0  0  0  0
 48 65  1  0  0  0  0
 50 60  1  0  0  0  0
 51 61  1  0  0  0  0
 52 61  1  0  0  0  0
 53 61  1  0  0  0  0
 54 72  1  0  0  0  0
 55 73  1  0  0  0  0
 56 58  1  0  0  0  0
 57 72  1  0  0  0  0
 58 80  1  0  0  0  0
 59 61  1  0  0  0  0
 59 71  1  0  0  0  0
 60 73  1  0  0  0  0
 63 65  1  0  0  0  0
M  CHG  1  73   1
M  ISO  4  36 100  58 101  72 100  80 101
M  END
> <Batch ID>
0048

> <Smiles>
CNC(C)C(=O)NC(C(=O)N1Cc2cc([101O:1][101CH2:1]Cc3cnc(C)c(C[100N:0](C)[100C:0](=O)N4CCCC(n5nc(-c6ccc(Oc7ccc(F)cc7F)cc6)c(C(N)=O)c5N)C4)n3)ccc2CC1C(=O)NC1CCCc2ccccc21)C(C)(C)C

> <Shape>
0.266

> <Color>
0.076

> <Negative vol penalty>
0.000

$$$$

  -OEChem-04052317263D

 86 94  0     1  0  0  0  0  0999 V2000
  -25.9121  -32.5760   25.9830 C   0  0  0  0  0  0  0  0  0  0  0  0
  -25.2500  -31.5318   25.3453 C   0  0  0  0  0  0  0  0  0  0  0  0
  -27.8185  -12.8159   22.6556 C   0  0  0  0  0  0  0  0  0  0  0  0
  -26.9027  -12.9411   20.4234 C   0  0  0  0  0  0  0  0  0  0  0  0
  -27.0360  -33.1516   25.3917 C   0  0  0  0  0  0  0  0  0  0  0  0
  -25.7108  -31.0633   24.1154 C   0  0  0  0  0  0  0  0  0  0  0  0
  -25.8234  -26.0058   23.8817 C   0  0  0  0  0  0  0  0  0  0  0  0
  -27.2411  -11.5571   22.8219 C   0  0  0  0  0  0  0  0  0  0  0  0
  -26.3254  -11.6822   20.5897 C   0  0  0  0  0  0  0  0  0  0  0  0
  -24.6110  -25.3511   23.6688 C   0  0  0  0  0  0  0  0  0  0  0  0
  -24.3095   -8.6581   20.5569 C   0  0  0  0  0  0  0  0  0  0  0  0
  -22.9880   -8.4911   20.1431 C   0  0  0  0  0  0  0  0  0  0  0  0
  -20.5884  -21.7617   17.0663 C   0  0  0  0  0  0  0  0  0  0  0  0
  -25.1625  -25.1024   21.3335 C   0  0  0  0  0  0  0  0  0  0  0  0
  -22.2849  -10.2012   21.6981 C   0  0  0  0  0  0  0  0  0  0  0  0
  -19.8117  -22.5150   17.9122 C   0  0  0  0  0  0  0  0  0  0  0  0
  -27.6492  -13.5079   21.4564 C   0  0  0  0  0  0  0  0  0  0  0  0
  -29.5252  -15.0965   20.7749 C   0  0  0  0  0  0  0  0  0  0  0  0
  -27.5165  -32.6835   24.1586 C   0  0  0  0  0  0  0  0  0  0  0  0
  -26.7110  -26.2238   22.8182 C   0  0  0  0  0  0  0  0  0  0  0  0
  -26.8413  -31.6340   23.5065 C   0  0  0  0  0  0  0  0  0  0  0  0
  -26.3866  -25.7578   21.5361 C   0  0  0  0  0  0  0  0  0  0  0  0
  -26.4946  -10.9902   21.7890 C   0  0  0  0  0  0  0  0  0  0  0  0
  -24.2791  -24.9018   22.3940 C   0  0  0  0  0  0  0  0  0  0  0  0
  -24.6187   -9.5966   21.5415 C   0  0  0  0  0  0  0  0  0  0  0  0
  -21.9757   -9.2627   20.7136 C   0  0  0  0  0  0  0  0  0  0  0  0
  -23.6064  -10.3682   22.1120 C   0  0  0  0  0  0  0  0  0  0  0  0
  -28.2448  -14.8086   21.2842 C   0  0  0  0  0  0  0  0  0  0  0  0
  -21.8893  -22.2730   17.2340 C   0  0  0  0  0  0  0  0  0  0  0  0
  -29.6108  -16.4668   20.8157 C   0  0  0  0  0  0  0  0  0  0  0  0
  -30.5459  -14.2051   20.3066 C   0  0  0  0  0  0  0  0  0  0  0  0
  -27.9274  -28.7970   21.4031 C   0  0  0  0  0  0  0  0  0  0  0  0
  -25.3989  -20.7529   20.7876 C   0  0  0  0  0  0  0  0  0  0  0  0
  -29.6821  -26.5990   19.7868 C   0  0  0  0  0  0  0  0  0  0  0  0
  -29.9888  -23.3884   18.6713 C   0  0  0  0  0  0  0  0  0  0  0  0
  -28.7071  -33.3687   23.5360 C   0  0  0  0  0  0  0  0  0  0  0  0
  -28.0267  -26.9079   23.0697 C   0  0  0  0  0  0  0  0  0  0  0  0
  -27.3139  -25.9489   20.3648 C   0  0  0  0  0  0  0  0  0  0  0  0
  -29.3527  -32.5647   22.4104 C   0  0  0  0  0  0  0  0  0  0  0  0
  -27.9815  -20.2581   23.2218 C   0  0  0  0  0  0  0  0  0  0  0  0
  -28.2881  -32.0295   21.4581 C   0  0  0  0  0  0  0  0  0  0  0  0
  -28.4385  -18.8212   22.9733 C   0  0  0  0  0  0  0  0  0  0  0  0
  -26.4829  -20.4164   22.9844 C   0  0  0  0  0  0  0  0  0  0  0  0
  -26.4872  -18.5316   21.3815 C   0  0  0  0  0  0  0  0  0  0  0  0
  -27.3253  -31.0816   22.1834 C   0  0  1  0  0  0  0  0  0  0  0  0
  -28.6259  -27.5313   21.8128 C   0  0  1  0  0  0  0  0  0  0  0  0
  -28.0006  -18.3349   21.5804 C   0  0  2  0  0  0  0  0  0  0  0  0
  -18.9406  -25.3237   22.2840 C   0  0  0  0  0  0  0  0  0  0  0  0
  -31.0634  -21.3856   17.6076 C   0  0  0  0  0  0  0  0  0  0  0  0
  -20.4558  -25.8739   18.9546 C   0  0  0  0  0  0  0  0  0  0  0  0
  -28.6958  -27.8935   17.2058 C   0  0  0  0  0  0  0  0  0  0  0  0
  -29.4479  -25.8476   15.9743 C   0  0  0  0  0  0  0  0  0  0  0  0
  -31.1125  -27.2500   17.1928 C   0  0  0  0  0  0  0  0  0  0  0  0
  -20.6187  -22.8678   21.5302 C   0  0  0  0  0  0  0  0  0  0  0  0
  -31.2407  -22.5605   21.2220 C   0  0  0  0  0  0  0  0  0  0  0  0
  -23.1214  -21.8277   16.5613 C   0  0  0  0  0  0  0  0  0  0  0  0
  -25.0471  -20.1755   19.4396 C   0  0  0  0  0  0  0  0  0  0  0  0
  -20.4377  -25.3387   21.9929 C   0  0  0  0  0  0  0  0  0  0  0  0
  -23.8902  -20.7157   17.2929 C   0  0  0  0  0  0  0  0  0  0  0  0
  -22.5028  -24.4039   20.8931 C   0  0  0  0  0  0  0  0  0  1  0  0
  -29.5001  -25.8152   18.5095 C   0  0  1  0  0  0  0  0  0  0  0  0
  -31.1459  -22.4075   18.7308 C   0  0  2  0  0  0  0  0  0  0  0  0
  -20.2846  -24.4609   19.5447 C   0  0  2  0  0  0  0  0  0  0  0  0
  -29.6705  -26.6995   17.2421 C   0  0  0  0  0  0  0  0  0  0  0  0
  -20.9547  -24.2726   20.9672 C   0  0  1  0  0  0  0  0  0  0  0  0
  -27.5659  -15.9075   21.6239 N   0  0  0  0  0  0  0  0  0  0  0  0
  -21.9400  -23.2739   18.1170 N   0  0  0  0  0  0  0  0  0  0  0  0
  -20.6613  -23.3977   18.5116 N   0  0  0  0  0  0  0  0  0  0  0  0
  -28.4229  -16.8994   21.3274 N   0  0  0  0  0  0  0  0  0  0  0  0
  -28.5857  -26.6291   20.6602 N   0  0  0  0  0  0  0  0  0  0  0  0
  -26.1036  -19.9226   21.6594 N   0  0  0  0  0  0  0  0  0  0  0  0
  -30.5856  -17.3317   20.4635 N   0  0  0  0  0  0  0  0  0  0  0  0
  -30.2932  -12.8268   20.3338 N   0  0  0  0  0  0  0  0  0  0  0  0
  -27.9385  -29.7840   22.3701 N   0  0  0  0  0  0  0  0  0  0  0  0
  -30.4286  -24.6923   18.5839 N   0  0  0  0  0  0  0  0  0  0  0  0
  -31.1408  -21.6787   20.0307 N   0  3  0  0  0  0  0  0  0  0  0  0
  -24.3387  -21.1980   18.6225 N   0  3  0  0  0  0  0  0  0  0  0  0
  -31.6556  -14.6178   19.8921 O   0  0  0  0  0  0  0  0  0  0  0  0
  -27.4176  -28.8730   20.2914 O   0  0  0  0  0  0  0  0  0  0  0  0
  -25.0592  -21.9085   21.0547 O   0  0  0  0  0  0  0  0  0  0  0  0
  -30.7599  -27.1579   20.0050 O   0  0  0  0  0  0  0  0  0  0  0  0
  -28.8125  -23.0331   18.6958 O   0  0  0  0  0  0  0  0  0  0  0  0
  -25.9313   -9.7618   21.9508 O   0  0  0  0  0  0  0  0  0  0  0  0
  -23.0961  -24.2631   22.1832 O   0  0  0  0  0  0  0  0  0  1  0  0
  -20.7069   -9.1033   20.3150 F   0  0  0  0  0  0  0  0  0  0  0  0
  -23.8975  -11.2722   23.0574 F   0  0  0  0  0  0  0  0  0  0  0  0
  1  2  1  0  0  0  0
  1  5  2  0  0  0  0
  2  6  2  0  0  0  0
  3  8  2  0  0  0  0
  3 17  1  0  0  0  0
  4  9  1  0  0  0  0
  4 17  2  0  0  0  0
  5 19  1  0  0  0  0
  6 21  1  0  0  0  0
  7 10  2  0  0  0  0
  7 20  1  0  0  0  0
  8 23  1  0  0  0  0
  9 23  2  0  0  0  0
 10 24  1  0  0  0  0
 11 12  2  0  0  0  0
 11 25  1  0  0  0  0
 12 26  1  0  0  0  0
 13 16  2  0  0  0  0
 13 29  1  0  0  0  0
 14 22  1  0  0  0  0
 14 24  2  0  0  0  0
 15 26  2  0  0  0  0
 15 27  1  0  0  0  0
 16 68  1  0  0  0  0
 17 28  1  0  0  0  0
 18 28  1  0  0  0  0
 18 30  2  0  0  0  0
 18 31  1  0  0  0  0
 19 21  2  0  0  0  0
 19 36  1  0  0  0  0
 20 22  2  0  0  0  0
 20 37  1  0  0  0  0
 21 45  1  0  0  0  0
 22 38  1  0  0  0  0
 23 83  1  0  0  0  0
 24 84  1  0  0  0  0
 25 27  2  0  0  0  0
 25 83  1  0  0  0  0
 26 85  1  0  0  0  0
 27 86  1  0  0  0  0
 28 66  2  0  0  0  0
 29 56  1  0  0  0  0
 29 67  2  0  0  0  0
 30 69  1  0  0  0  0
 30 72  1  0  0  0  0
 31 73  1  0  0  0  0
 31 78  2  0  0  0  0
 32 46  1  0  0  0  0
 32 74  1  0  0  0  0
 32 79  2  0  0  0  0
 33 57  1  0  0  0  0
 33 71  1  0  0  0  0
 33 80  2  0  0  0  0
 34 61  1  0  0  0  0
 34 70  1  0  0  0  0
 34 81  2  0  0  0  0
 35 62  1  0  0  0  0
 35 75  1  0  0  0  0
 35 82  2  0  0  0  0
 36 39  1  0  0  0  0
 37 46  1  0  0  0  0
 38 70  1  0  0  0  0
 39 41  1  0  0  0  0
 40 42  1  0  0  0  0
 40 43  1  0  0  0  0
 41 45  1  0  0  0  0
 42 47  1  0  0  0  0
 43 71  1  0  0  0  0
 44 47  1  0  0  0  0
 44 71  1  0  0  0  0
 45 74  1  0  0  0  0
 46 70  1  0  0  0  0
 47 69  1  0  0  0  0
 48 58  1  0  0  0  0
 49 62  1  0  0  0  0
 50 63  1  0  0  0  0
 51 64  1  0  0  0  0
 52 64  1  0  0  0  0
 53 64  1  0  0  0  0
 54 65  1  0  0  0  0
 55 76  1  0  0  0  0
 56 59  1  0  0  0  0
 57 77  1  0  0  0  0
 58 65  1  0  0  0  0
 59 77  1  0  0  0  0
 60 65  1  0  0  0  0
 60 84  1  0  0  0  0
 61 64  1  0  0  0  0
 61 75  1  0  0  0  0
 62 76  1  0  0  0  0
 63 65  1  0  0  0  0
 63 68  1  0  0  0  0
 66 69  1  0  0  0  0
 67 68  1  0  0  0  0
M  CHG  2  76   1  77   1
M  ISO  4  33 100  57 100  60 101  84 101
M  END
> <Batch ID>
0048

> <Smiles>
CCC(C)(C(C)n1ccc(CCN[100CH2:0][100C:0](=O)N2CCCC(n3nc(-c4ccc(Oc5ccc(F)cc5F)cc4)c(C(N)=O)c3N)C2)n1)[101CH2:1][101O:1]c1ccc2c(c1)CN(C(=O)C(NC(=O)C(C)NC)C(C)(C)C)C(C(=O)NC1CCCc3ccccc31)C2

> <Shape>
0.227

> <Color>
0.065

> <Negative vol penalty>
0.000

$$$$

  -OEChem-04052317263D

 85 93  0     1  0  0  0  0  0999 V2000
  -30.1742  -25.6696   17.0356 C   0  0  0  0  0  0  0  0  0  0  0  0
  -28.7865  -25.7614   17.0709 C   0  0  0  0  0  0  0  0  0  0  0  0
  -26.2190  -13.2698   21.4725 C   0  0  0  0  0  0  0  0  0  0  0  0
  -25.4531  -14.1696   19.3652 C   0  0  0  0  0  0  0  0  0  0  0  0
  -30.9223  -25.9969   18.1658 C   0  0  0  0  0  0  0  0  0  0  0  0
  -28.1459  -26.1796   18.2368 C   0  0  0  0  0  0  0  0  0  0  0  0
  -23.0314  -29.5251   18.6300 C   0  0  0  0  0  0  0  0  0  0  0  0
  -25.7020  -12.0212   21.1274 C   0  0  0  0  0  0  0  0  0  0  0  0
  -24.9361  -12.9209   19.0200 C   0  0  0  0  0  0  0  0  0  0  0  0
  -21.6979  -29.1785   18.8434 C   0  0  0  0  0  0  0  0  0  0  0  0
  -24.2659   -8.6849   20.9530 C   0  0  0  0  0  0  0  0  0  0  0  0
  -23.5407   -7.9912   21.9218 C   0  0  0  0  0  0  0  0  0  0  0  0
  -21.9617  -29.6367   21.1970 C   0  0  0  0  0  0  0  0  0  0  0  0
  -21.9547   -9.8101   22.0370 C   0  0  0  0  0  0  0  0  0  0  0  0
  -20.6714  -23.4533   20.5599 C   0  0  0  0  0  0  0  0  0  0  0  0
  -26.0945  -14.3441   20.5915 C   0  0  0  0  0  0  0  0  0  0  0  0
  -27.9224  -16.1211   20.6848 C   0  0  0  0  0  0  0  0  0  0  0  0
  -30.2911  -26.4286   19.3430 C   0  0  0  0  0  0  0  0  0  0  0  0
  -23.8444  -29.9203   19.7021 C   0  0  0  0  0  0  0  0  0  0  0  0
  -28.8862  -26.5117   19.3841 C   0  0  0  0  0  0  0  0  0  0  0  0
  -23.3045  -29.9902   20.9942 C   0  0  0  0  0  0  0  0  0  0  0  0
  -25.0605  -11.8467   19.9011 C   0  0  0  0  0  0  0  0  0  0  0  0
  -21.1637  -29.2314   20.1275 C   0  0  0  0  0  0  0  0  0  0  0  0
  -23.8355   -9.9412   20.5263 C   0  0  0  0  0  0  0  0  0  0  0  0
  -22.3851   -8.5538   22.4637 C   0  0  0  0  0  0  0  0  0  0  0  0
  -22.6799  -10.5038   21.0682 C   0  0  0  0  0  0  0  0  0  0  0  0
  -26.6279  -15.6343   20.9477 C   0  0  0  0  0  0  0  0  0  0  0  0
  -21.6639  -24.2919   20.9823 C   0  0  0  0  0  0  0  0  0  0  0  0
  -27.9292  -17.3855   21.2212 C   0  0  0  0  0  0  0  0  0  0  0  0
  -19.7366  -25.3644   21.1715 C   0  0  0  0  0  0  0  0  0  0  0  0
  -29.0204  -15.4871   20.0155 C   0  0  0  0  0  0  0  0  0  0  0  0
  -26.4959  -28.7900   21.0420 C   0  0  0  0  0  0  0  0  0  0  0  0
  -26.3203  -31.5258   22.7761 C   0  0  0  0  0  0  0  0  0  0  0  0
  -24.3877  -34.0488   24.0195 C   0  0  0  0  0  0  0  0  0  0  0  0
  -25.7410  -22.2319   22.0489 C   0  0  0  0  0  0  0  0  0  0  0  0
  -31.1392  -26.7261   20.5542 C   0  0  0  0  0  0  0  0  0  0  0  0
  -25.2735  -30.3167   19.4512 C   0  0  0  0  0  0  0  0  0  0  0  0
  -24.1296  -30.4276   22.1759 C   0  0  0  0  0  0  0  0  0  0  0  0
  -30.4049  -27.5197   21.6318 C   0  0  0  0  0  0  0  0  0  0  0  0
  -24.6252  -19.7072   24.2518 C   0  0  0  0  0  0  0  0  0  0  0  0
  -29.0237  -26.9242   21.8855 C   0  0  0  0  0  0  0  0  0  0  0  0
  -25.1476  -18.4491   23.5596 C   0  0  0  0  0  0  0  0  0  0  0  0
  -24.0850  -20.7310   23.2517 C   0  0  0  0  0  0  0  0  0  0  0  0
  -25.5664  -19.8261   21.4884 C   0  0  0  0  0  0  0  0  0  0  0  0
  -28.1562  -26.9850   20.6224 C   0  0  1  0  0  0  0  0  0  0  0  0
  -26.1502  -30.2105   20.6951 C   0  0  1  0  0  0  0  0  0  0  0  0
  -26.1697  -18.8066   22.4667 C   0  0  2  0  0  0  0  0  0  0  0  0
  -26.2444  -24.1721   25.1066 C   0  0  0  0  0  0  0  0  0  0  0  0
  -24.5202  -36.1186   25.4322 C   0  0  0  0  0  0  0  0  0  0  0  0
  -26.4974  -29.7988   25.2854 C   0  0  0  0  0  0  0  0  0  0  0  0
  -25.6816  -31.7611   26.6091 C   0  0  0  0  0  0  0  0  0  0  0  0
  -27.8428  -31.9053   25.3716 C   0  0  0  0  0  0  0  0  0  0  0  0
  -18.1798  -23.6212   20.3511 C   0  0  0  0  0  0  0  0  0  0  0  0
  -23.4669  -35.7676   21.7931 C   0  0  0  0  0  0  0  0  0  0  0  0
  -23.1145  -24.1069   21.0724 C   0  0  0  0  0  0  0  0  0  0  0  0
  -18.7259  -26.4443   21.4644 C   0  0  0  0  0  0  0  0  0  0  0  0
  -25.6961  -25.1479   24.0747 C   0  0  0  0  0  0  0  0  0  0  0  0
  -18.2088  -27.1594   20.2142 C   0  0  0  0  0  0  0  0  0  0  0  0
  -23.6049  -23.5370   22.4211 C   0  0  0  0  0  0  0  0  0  0  0  0
  -25.8086  -24.6223   22.6487 C   0  0  0  0  0  0  0  0  0  0  0  0
  -19.2938  -27.9212   19.4621 C   0  0  0  0  0  0  0  0  0  1  0  0
  -25.6703  -31.9262   24.0785 C   0  0  1  0  0  0  0  0  0  0  0  0
  -24.5763  -35.5551   24.0208 C   0  0  2  0  0  0  0  0  0  0  0  0
  -26.4077  -31.3377   25.3144 C   0  0  0  0  0  0  0  0  0  0  0  0
  -25.8676  -16.5174   21.6005 N   0  0  0  0  0  0  0  0  0  0  0  0
  -19.4896  -24.1425   20.6883 N   0  0  0  0  0  0  0  0  0  0  0  0
  -26.6869  -17.5718   21.7524 N   0  0  0  0  0  0  0  0  0  0  0  0
  -21.0569  -25.4671   21.3545 N   0  3  0  0  0  0  0  0  0  0  0  0
  -25.5233  -30.7990   21.8804 N   0  0  0  0  0  0  0  0  0  0  0  0
  -25.0732  -21.0077   22.2002 N   0  0  0  0  0  0  0  0  0  0  0  0
  -28.8767  -18.3450   21.2856 N   0  0  0  0  0  0  0  0  0  0  0  0
  -28.8429  -14.1860   19.5254 N   0  0  0  0  0  0  0  0  0  0  0  0
  -27.6418  -28.3235   20.4266 N   0  0  0  0  0  0  0  0  0  0  0  0
  -25.5942  -33.3830   24.0658 N   0  0  0  0  0  0  0  0  0  0  0  0
  -25.0587  -23.3897   22.4517 N   0  0  0  0  0  0  0  0  0  0  0  0
  -23.5117  -36.2112   23.2102 N   0  3  0  0  0  0  0  0  0  0  0  0
  -30.1315  -16.0511   19.8712 O   0  0  0  0  0  0  0  0  0  0  0  0
  -25.7772  -28.1641   21.8123 O   0  0  0  0  0  0  0  0  0  0  0  0
  -27.4898  -31.8522   22.5585 O   0  0  0  0  0  0  0  0  0  0  0  0
  -23.2806  -33.5162   23.9849 O   0  0  0  0  0  0  0  0  0  0  0  0
  -26.8819  -22.2896   21.5724 O   0  0  0  0  0  0  0  0  0  0  0  0
  -24.5561  -10.6283   19.5638 O   0  0  0  0  0  0  0  0  0  0  0  0
  -19.8626  -28.8930   20.3386 O   0  0  0  0  0  0  0  0  0  1  0  0
  -21.6880   -7.8868   23.3929 F   0  0  0  0  0  0  0  0  0  0  0  0
  -22.2608  -11.7099   20.6614 F   0  0  0  0  0  0  0  0  0  0  0  0
  1  2  1  0  0  0  0
  1  5  2  0  0  0  0
  2  6  2  0  0  0  0
  3  8  2  0  0  0  0
  3 16  1  0  0  0  0
  4  9  1  0  0  0  0
  4 16  2  0  0  0  0
  5 18  1  0  0  0  0
  6 20  1  0  0  0  0
  7 10  2  0  0  0  0
  7 19  1  0  0  0  0
  8 22  1  0  0  0  0
  9 22  2  0  0  0  0
 10 23  1  0  0  0  0
 11 12  2  0  0  0  0
 11 24  1  0  0  0  0
 12 25  1  0  0  0  0
 13 21  1  0  0  0  0
 13 23  2  0  0  0  0
 14 25  2  0  0  0  0
 14 26  1  0  0  0  0
 15 28  2  0  0  0  0
 15 66  1  0  0  0  0
 16 27  1  0  0  0  0
 17 27  1  0  0  0  0
 17 29  2  0  0  0  0
 17 31  1  0  0  0  0
 18 20  2  0  0  0  0
 18 36  1  0  0  0  0
 19 21  2  0  0  0  0
 19 37  1  0  0  0  0
 20 45  1  0  0  0  0
 21 38  1  0  0  0  0
 22 82  1  0  0  0  0
 23 83  1  0  0  0  0
 24 26  2  0  0  0  0
 24 82  1  0  0  0  0
 25 84  1  0  0  0  0
 26 85  1  0  0  0  0
 27 65  2  0  0  0  0
 28 55  1  0  0  0  0
 28 68  1  0  0  0  0
 29 67  1  0  0  0  0
 29 71  1  0  0  0  0
 30 56  1  0  0  0  0
 30 66  1  0  0  0  0
 30 68  2  0  0  0  0
 31 72  1  0  0  0  0
 31 77  2  0  0  0  0
 32 46  1  0  0  0  0
 32 73  1  0  0  0  0
 32 78  2  0  0  0  0
 33 62  1  0  0  0  0
 33 69  1  0  0  0  0
 33 79  2  0  0  0  0
 34 63  1  0  0  0  0
 34 74  1  0  0  0  0
 34 80  2  0  0  0  0
 35 70  1  0  0  0  0
 35 75  1  0  0  0  0
 35 81  2  0  0  0  0
 36 39  1  0  0  0  0
 37 46  1  0  0  0  0
 38 69  1  0  0  0  0
 39 41  1  0  0  0  0
 40 42  1  0  0  0  0
 40 43  1  0  0  0  0
 41 45  1  0  0  0  0
 42 47  1  0  0  0  0
 43 70  1  0  0  0  0
 44 47  1  0  0  0  0
 44 70  1  0  0  0  0
 45 73  1  0  0  0  0
 46 69  1  0  0  0  0
 47 67  1  0  0  0  0
 48 57  1  0  0  0  0
 49 63  1  0  0  0  0
 50 64  1  0  0  0  0
 51 64  1  0  0  0  0
 52 64  1  0  0  0  0
 53 66  1  0  0  0  0
 54 76  1  0  0  0  0
 55 59  1  0  0  0  0
 56 58  1  0  0  0  0
 57 60  1  0  0  0  0
 58 61  1  0  0  0  0
 59 75  1  0  0  0  0
 60 75  1  0  0  0  0
 61 83  1  0  0  0  0
 62 64  1  0  0  0  0
 62 74  1  0  0  0  0
 63 76  1  0  0  0  0
 65 67  1  0  0  0  0
M  CHG  2  68   1  76   1
M  ISO  4  35 100  61 101  75 100  83 101
M  END
> <Batch ID>
0048

> <Smiles>
CCC[100N:0](CCc1cn(C)c(CC[101CH2:1][101O:1]c2ccc3c(c2)CN(C(=O)C(NC(=O)C(C)NC)C(C)(C)C)C(C(=O)NC2CCCc4ccccc42)C3)n1)[100C:0](=O)N1CCCC(n2nc(-c3ccc(Oc4ccc(F)cc4F)cc3)c(C(N)=O)c2N)C1

> <Shape>
0.302

> <Color>
0.085

> <Negative vol penalty>
0.000

$$$$

  -OEChem-04052317263D

 83 91  0     1  0  0  0  0  0999 V2000
  -18.7131  -33.4381   23.5623 C   0  0  0  0  0  0  0  0  0  0  0  0
  -19.9380  -33.4460   22.9027 C   0  0  0  0  0  0  0  0  0  0  0  0
  -26.1665  -14.9191   22.7610 C   0  0  0  0  0  0  0  0  0  0  0  0
  -25.5797  -14.5949   20.4399 C   0  0  0  0  0  0  0  0  0  0  0  0
  -18.3501  -32.3414   24.3428 C   0  0  0  0  0  0  0  0  0  0  0  0
  -20.8010  -32.3575   23.0241 C   0  0  0  0  0  0  0  0  0  0  0  0
  -25.6978  -28.6741   19.3132 C   0  0  0  0  0  0  0  0  0  0  0  0
  -25.2650  -13.9203   23.1285 C   0  0  0  0  0  0  0  0  0  0  0  0
  -24.6782  -13.5960   20.8074 C   0  0  0  0  0  0  0  0  0  0  0  0
  -27.0103  -28.2163   19.4204 C   0  0  0  0  0  0  0  0  0  0  0  0
  -24.7994  -10.3377   21.6958 C   0  0  0  0  0  0  0  0  0  0  0  0
  -24.8021   -9.1584   20.9509 C   0  0  0  0  0  0  0  0  0  0  0  0
  -26.2433  -26.3426   20.7319 C   0  0  0  0  0  0  0  0  0  0  0  0
  -22.4902   -9.5294   20.3552 C   0  0  0  0  0  0  0  0  0  0  0  0
  -31.2505  -25.0120   18.0400 C   0  0  0  0  0  0  0  0  0  0  0  0
  -26.3239  -15.2565   21.4167 C   0  0  0  0  0  0  0  0  0  0  0  0
  -28.6157  -16.1294   20.7145 C   0  0  0  0  0  0  0  0  0  0  0  0
  -19.2049  -31.2347   24.4661 C   0  0  0  0  0  0  0  0  0  0  0  0
  -24.6477  -27.9743   19.9248 C   0  0  0  0  0  0  0  0  0  0  0  0
  -20.4496  -31.2455   23.8081 C   0  0  0  0  0  0  0  0  0  0  0  0
  -24.9180  -26.7922   20.6288 C   0  0  0  0  0  0  0  0  0  0  0  0
  -24.5209  -13.2587   22.1517 C   0  0  0  0  0  0  0  0  0  0  0  0
  -27.2836  -27.0520   20.1323 C   0  0  0  0  0  0  0  0  0  0  0  0
  -23.6421  -11.1128   21.7705 C   0  0  0  0  0  0  0  0  0  0  0  0
  -23.6475   -8.7543   20.2806 C   0  0  0  0  0  0  0  0  0  0  0  0
  -22.4875  -10.7087   21.1002 C   0  0  0  0  0  0  0  0  0  0  0  0
  -27.2546  -16.2887   21.0366 C   0  0  0  0  0  0  0  0  0  0  0  0
  -31.3041  -23.6476   17.9910 C   0  0  0  0  0  0  0  0  0  0  0  0
  -29.0512  -17.3997   20.4261 C   0  0  0  0  0  0  0  0  0  0  0  0
  -31.0065  -24.2443   20.1019 C   0  0  0  0  0  0  0  0  0  0  0  0
  -29.4149  -14.9396   20.6791 C   0  0  0  0  0  0  0  0  0  0  0  0
  -22.5208  -28.6493   22.1885 C   0  0  0  0  0  0  0  0  0  0  0  0
  -21.3141  -25.7506   21.3739 C   0  0  0  0  0  0  0  0  0  0  0  0
  -21.8500  -22.6690   20.0088 C   0  0  0  0  0  0  0  0  0  0  0  0
  -28.3360  -22.3408   17.9323 C   0  0  0  0  0  0  0  0  0  0  0  0
  -18.7895  -30.0925   25.3591 C   0  0  0  0  0  0  0  0  0  0  0  0
  -23.2341  -28.4668   19.7773 C   0  0  0  0  0  0  0  0  0  0  0  0
  -23.8239  -25.9932   21.2867 C   0  0  0  0  0  0  0  0  0  0  0  0
  -19.5989  -28.8180   25.1340 C   0  0  0  0  0  0  0  0  0  0  0  0
  -26.8146  -21.8835   21.1186 C   0  0  0  0  0  0  0  0  0  0  0  0
  -21.0892  -29.1366   25.0687 C   0  0  0  0  0  0  0  0  0  0  0  0
  -26.9001  -20.3741   21.3515 C   0  0  0  0  0  0  0  0  0  0  0  0
  -26.5559  -22.2142   19.6503 C   0  0  0  0  0  0  0  0  0  0  0  0
  -27.5926  -20.0960   18.9345 C   0  0  0  0  0  0  0  0  0  0  0  0
  -21.4023  -30.0729   23.8953 C   0  0  1  0  0  0  0  0  0  0  0  0
  -22.3054  -27.9544   20.8738 C   0  0  1  0  0  0  0  0  0  0  0  0
  -27.9081  -19.7147   20.3910 C   0  0  2  0  0  0  0  0  0  0  0  0
  -30.8162  -24.1651   21.5717 C   0  0  0  0  0  0  0  0  0  0  0  0
  -20.6831  -20.5026   19.5164 C   0  0  0  0  0  0  0  0  0  0  0  0
  -21.4912  -24.9876   24.3229 C   0  0  0  0  0  0  0  0  0  0  0  0
  -21.2362  -22.5907   23.6462 C   0  0  0  0  0  0  0  0  0  0  0  0
  -19.4087  -24.2204   23.1701 C   0  0  0  0  0  0  0  0  0  0  0  0
  -22.3058  -22.9512   17.0982 C   0  0  0  0  0  0  0  0  0  0  0  0
  -30.9466  -26.7648   19.8803 C   0  0  0  0  0  0  0  0  0  0  0  0
  -30.1419  -22.3070   16.2303 C   0  0  0  0  0  0  0  0  0  0  0  0
  -29.5782  -27.3748   19.5968 C   0  0  0  0  0  0  0  0  0  1  0  0
  -21.5478  -24.3296   21.8269 C   0  0  1  0  0  0  0  0  0  0  0  0
  -21.0672  -21.8729   18.9803 C   0  0  2  0  0  0  0  0  0  0  0  0
  -31.4835  -22.7256   16.8665 C   0  0  0  0  0  0  0  0  0  0  0  0
  -20.9421  -24.0480   23.2309 C   0  0  0  0  0  0  0  0  0  0  0  0
  -26.8520  -17.5600   20.9602 N   0  0  0  0  0  0  0  0  0  0  0  0
  -31.0653  -25.3536   19.3579 N   0  0  0  0  0  0  0  0  0  0  0  0
  -27.9668  -18.2111   20.5870 N   0  0  0  0  0  0  0  0  0  0  0  0
  -31.1507  -23.1992   19.2807 N   0  3  0  0  0  0  0  0  0  0  0  0
  -22.4589  -26.5190   21.1195 N   0  0  0  0  0  0  0  0  0  0  0  0
  -27.5472  -21.5598   18.7929 N   0  0  0  0  0  0  0  0  0  0  0  0
  -30.2522  -17.8907   20.0532 N   0  0  0  0  0  0  0  0  0  0  0  0
  -28.8093  -13.7180   21.0036 N   0  0  0  0  0  0  0  0  0  0  0  0
  -21.4139  -29.3360   22.6498 N   0  0  0  0  0  0  0  0  0  0  0  0
  -21.0259  -23.4725   20.7680 N   0  0  0  0  0  0  0  0  0  0  0  0
  -29.2550  -21.6423   17.1589 N   0  0  0  0  0  0  0  0  0  0  0  0
  -21.8787  -21.6837   17.7447 N   0  3  0  0  0  0  0  0  0  0  0  0
  -30.6341  -14.9614   20.3849 O   0  0  0  0  0  0  0  0  0  0  0  0
  -23.6100  -28.5674   22.7439 O   0  0  0  0  0  0  0  0  0  0  0  0
  -20.1583  -26.1614   21.2435 O   0  0  0  0  0  0  0  0  0  0  0  0
  -23.0702  -22.5836   20.1294 O   0  0  0  0  0  0  0  0  0  0  0  0
  -28.2329  -23.5702   17.8624 O   0  0  0  0  0  0  0  0  0  0  0  0
  -23.6412  -12.2837   22.5099 O   0  0  0  0  0  0  0  0  0  0  0  0
  -28.5639  -26.6033   20.2390 O   0  0  0  0  0  0  0  0  0  1  0  0
  -23.6507   -7.6226   19.5640 F   0  0  0  0  0  0  0  0  0  0  0  0
  -21.3730  -11.4498   21.1673 F   0  0  0  0  0  0  0  0  0  0  0  0
  -32.2586  -23.2396   15.8433 F   0  0  0  0  0  0  0  0  0  0  0  0
  -32.1380  -21.5556   17.2053 F   0  0  0  0  0  0  0  0  0  0  0  0
  1  2  1  0  0  0  0
  1  5  2  0  0  0  0
  2  6  2  0  0  0  0
  3  8  2  0  0  0  0
  3 16  1  0  0  0  0
  4  9  1  0  0  0  0
  4 16  2  0  0  0  0
  5 18  1  0  0  0  0
  6 20  1  0  0  0  0
  7 10  2  0  0  0  0
  7 19  1  0  0  0  0
  8 22  1  0  0  0  0
  9 22  2  0  0  0  0
 10 23  1  0  0  0  0
 11 12  2  0  0  0  0
 11 24  1  0  0  0  0
 12 25  1  0  0  0  0
 13 21  1  0  0  0  0
 13 23  2  0  0  0  0
 14 25  2  0  0  0  0
 14 26  1  0  0  0  0
 15 28  2  0  0  0  0
 15 62  1  0  0  0  0
 16 27  1  0  0  0  0
 17 27  1  0  0  0  0
 17 29  2  0  0  0  0
 17 31  1  0  0  0  0
 18 20  2  0  0  0  0
 18 36  1  0  0  0  0
 19 21  2  0  0  0  0
 19 37  1  0  0  0  0
 20 45  1  0  0  0  0
 21 38  1  0  0  0  0
 22 78  1  0  0  0  0
 23 79  1  0  0  0  0
 24 26  2  0  0  0  0
 24 78  1  0  0  0  0
 25 80  1  0  0  0  0
 26 81  1  0  0  0  0
 27 61  2  0  0  0  0
 28 59  1  0  0  0  0
 28 64  1  0  0  0  0
 29 63  1  0  0  0  0
 29 67  1  0  0  0  0
 30 48  1  0  0  0  0
 30 62  1  0  0  0  0
 30 64  2  0  0  0  0
 31 68  1  0  0  0  0
 31 73  2  0  0  0  0
 32 46  1  0  0  0  0
 32 69  1  0  0  0  0
 32 74  2  0  0  0  0
 33 57  1  0  0  0  0
 33 65  1  0  0  0  0
 33 75  2  0  0  0  0
 34 58  1  0  0  0  0
 34 70  1  0  0  0  0
 34 76  2  0  0  0  0
 35 66  1  0  0  0  0
 35 71  1  0  0  0  0
 35 77  2  0  0  0  0
 36 39  1  0  0  0  0
 37 46  1  0  0  0  0
 38 65  1  0  0  0  0
 39 41  1  0  0  0  0
 40 42  1  0  0  0  0
 40 43  1  0  0  0  0
 41 45  1  0  0  0  0
 42 47  1  0  0  0  0
 43 66  1  0  0  0  0
 44 47  1  0  0  0  0
 44 66  1  0  0  0  0
 45 69  1  0  0  0  0
 46 65  1  0  0  0  0
 47 63  1  0  0  0  0
 49 58  1  0  0  0  0
 50 60  1  0  0  0  0
 51 60  1  0  0  0  0
 52 60  1  0  0  0  0
 53 72  1  0  0  0  0
 54 56  1  0  0  0  0
 54 62  1  0  0  0  0
 55 59  1  0  0  0  0
 55 71  1  0  0  0  0
 56 79  1  0  0  0  0
 57 60  1  0  0  0  0
 57 70  1  0  0  0  0
 58 72  1  0  0  0  0
 59 82  1  0  0  0  0
 59 83  1  0  0  0  0
 61 63  1  0  0  0  0
M  CHG  2  64   1  72   1
M  ISO  4  35 100  56 101  71 100  79 101
M  END
> <Batch ID>
0048

> <Smiles>
CNC(C)C(=O)NC(C(=O)N1Cc2cc([101O:1][101CH2:1]Cn3cc(C(F)(F)C[100NH:0][100C:0](=O)N4CCCC(n5nc(-c6ccc(Oc7ccc(F)cc7F)cc6)c(C(N)=O)c5N)C4)nc3C)ccc2CC1C(=O)NC1CCCc2ccccc21)C(C)(C)C

> <Shape>
0.241

> <Color>
0.095

> <Negative vol penalty>
0.000

$$$$

  -OEChem-04052317263D

 86 94  0     1  0  0  0  0  0999 V2000
  -17.7424  -11.0228   22.4913 C   0  0  0  0  0  0  0  0  0  0  0  0
  -18.0036  -12.2268   21.8450 C   0  0  0  0  0  0  0  0  0  0  0  0
  -25.1611  -31.2902   25.8937 C   0  0  0  0  0  0  0  0  0  0  0  0
  -27.5147  -31.6681   25.4999 C   0  0  0  0  0  0  0  0  0  0  0  0
  -18.7041  -10.4597   23.3291 C   0  0  0  0  0  0  0  0  0  0  0  0
  -19.2264  -12.8690   22.0372 C   0  0  0  0  0  0  0  0  0  0  0  0
  -23.9747  -16.9807   18.5929 C   0  0  0  0  0  0  0  0  0  0  0  0
  -25.3740  -31.3962   27.2681 C   0  0  0  0  0  0  0  0  0  0  0  0
  -27.7276  -31.7742   26.8744 C   0  0  0  0  0  0  0  0  0  0  0  0
  -24.6647  -18.1833   18.7395 C   0  0  0  0  0  0  0  0  0  0  0  0
  -27.3000  -34.1015   29.2871 C   0  0  0  0  0  0  0  0  0  0  0  0
  -28.1037  -35.1485   29.7380 C   0  0  0  0  0  0  0  0  0  0  0  0
  -26.2813  -17.0772   20.1475 C   0  0  0  0  0  0  0  0  0  0  0  0
  -29.6354  -33.5536   30.7114 C   0  0  0  0  0  0  0  0  0  0  0  0
  -28.9507  -21.4885   19.6182 C   0  0  0  0  0  0  0  0  0  0  0  0
  -26.2315  -31.4261   25.0096 C   0  0  0  0  0  0  0  0  0  0  0  0
  -25.6959  -32.3561   22.6953 C   0  0  0  0  0  0  0  0  0  0  0  0
  -19.9430  -11.0905   23.5240 C   0  0  0  0  0  0  0  0  0  0  0  0
  -24.4276  -15.8178   19.2323 C   0  0  0  0  0  0  0  0  0  0  0  0
  -20.2050  -12.3145   22.8795 C   0  0  0  0  0  0  0  0  0  0  0  0
  -25.5968  -15.8605   20.0052 C   0  0  0  0  0  0  0  0  0  0  0  0
  -26.6572  -31.6383   27.7584 C   0  0  0  0  0  0  0  0  0  0  0  0
  -25.8165  -18.2324   19.5193 C   0  0  0  0  0  0  0  0  0  0  0  0
  -27.6639  -32.7805   29.5485 C   0  0  0  0  0  0  0  0  0  0  0  0
  -29.2714  -34.8746   30.4501 C   0  0  0  0  0  0  0  0  0  0  0  0
  -28.8316  -32.5066   30.2606 C   0  0  0  0  0  0  0  0  0  0  0  0
  -26.0123  -31.3161   23.5897 C   0  0  0  0  0  0  0  0  0  0  0  0
  -28.2441  -20.7656   20.5375 C   0  0  0  0  0  0  0  0  0  0  0  0
  -25.5915  -31.7381   21.4732 C   0  0  0  0  0  0  0  0  0  0  0  0
  -28.7235  -22.7311   21.4361 C   0  0  0  0  0  0  0  0  0  0  0  0
  -25.5127  -33.7557   22.9467 C   0  0  0  0  0  0  0  0  0  0  0  0
  -23.2342  -13.8576   21.4317 C   0  0  0  0  0  0  0  0  0  0  0  0
  -25.8958  -12.1252   20.7709 C   0  0  0  0  0  0  0  0  0  0  0  0
  -29.0969  -12.0693   19.5890 C   0  0  0  0  0  0  0  0  0  0  0  0
  -28.0537  -26.4568   19.7514 C   0  0  0  0  0  0  0  0  0  0  0  0
  -20.9329  -10.4675   24.4762 C   0  0  0  0  0  0  0  0  0  0  0  0
  -23.6870  -14.5225   19.0424 C   0  0  0  0  0  0  0  0  0  0  0  0
  -26.1359  -14.6356   20.6961 C   0  0  0  0  0  0  0  0  0  0  0  0
  -22.3480  -11.0217   24.3324 C   0  0  0  0  0  0  0  0  0  0  0  0
  -24.4877  -27.5495   19.4647 C   0  0  0  0  0  0  0  0  0  0  0  0
  -22.3202  -12.5453   24.2645 C   0  0  0  0  0  0  0  0  0  0  0  0
  -24.4507  -28.6926   20.4778 C   0  0  0  0  0  0  0  0  0  0  0  0
  -25.5300  -26.5058   19.8480 C   0  0  0  0  0  0  0  0  0  0  0  0
  -26.8766  -28.2056   21.0371 C   0  0  0  0  0  0  0  0  0  0  0  0
  -21.5291  -13.0288   23.0431 C   0  0  1  0  0  0  0  0  0  0  0  0
  -23.9510  -13.5143   20.1566 C   0  0  1  0  0  0  0  0  0  0  0  0
  -25.8517  -29.2948   20.6793 C   0  0  2  0  0  0  0  0  0  0  0  0
  -28.8024  -23.8517   22.4061 C   0  0  0  0  0  0  0  0  0  0  0  0
  -31.0294  -10.5142   19.2085 C   0  0  0  0  0  0  0  0  0  0  0  0
  -24.9942  -22.5571   17.1576 C   0  0  0  0  0  0  0  0  0  0  0  0
  -23.7055  -24.4776   18.1253 C   0  0  0  0  0  0  0  0  0  0  0  0
  -24.4473  -24.5410   15.7403 C   0  0  0  0  0  0  0  0  0  0  0  0
  -26.5067  -12.1568   23.7602 C   0  0  0  0  0  0  0  0  0  0  0  0
  -28.8477  -11.4537   23.2184 C   0  0  0  0  0  0  0  0  0  0  0  0
  -26.9331   -9.9662   22.6313 C   0  0  0  0  0  0  0  0  0  0  0  0
  -29.0743  -12.5685   16.6719 C   0  0  0  0  0  0  0  0  0  0  0  0
  -27.6639  -19.3832   20.4778 C   0  0  0  0  0  0  0  0  0  1  0  0
  -26.1671  -24.7854   17.5448 C   0  0  0  0  0  0  0  0  0  0  0  0
  -29.9714  -23.7766   19.5692 C   0  0  0  0  0  0  0  0  0  0  0  0
  -26.6923  -24.4822   18.9471 C   0  0  0  0  0  0  0  0  0  0  0  0
  -29.1297  -24.5748   18.5769 C   0  0  0  0  0  0  0  0  0  0  0  0
  -27.3067  -12.0868   21.3064 C   0  0  1  0  0  0  0  0  0  0  0  0
  -29.7893  -11.1497   18.5993 C   0  0  2  0  0  0  0  0  0  0  0  0
  -24.8369  -24.0866   17.1605 C   0  0  0  0  0  0  0  0  0  0  0  0
  -27.3876  -11.4396   22.7178 C   0  0  0  0  0  0  0  0  0  0  0  0
  -26.1029  -30.1275   22.9872 N   0  0  0  0  0  0  0  0  0  0  0  0
  -29.2337  -22.7004   20.2007 N   0  0  0  0  0  0  0  0  0  0  0  0
  -25.8417  -30.4169   21.7010 N   0  0  0  0  0  0  0  0  0  0  0  0
  -28.1185  -21.5586   21.6525 N   0  3  0  0  0  0  0  0  0  0  0  0
  -25.3729  -13.3943   20.4850 N   0  0  0  0  0  0  0  0  0  0  0  0
  -26.8508  -27.1117   20.0633 N   0  0  0  0  0  0  0  0  0  0  0  0
  -25.3110  -32.2014   20.2366 N   0  0  0  0  0  0  0  0  0  0  0  0
  -25.6567  -34.2231   24.2602 N   0  0  0  0  0  0  0  0  0  0  0  0
  -22.3258  -12.9005   21.8418 N   0  0  0  0  0  0  0  0  0  0  0  0
  -28.1099  -11.4119   20.2926 N   0  0  0  0  0  0  0  0  0  0  0  0
  -27.9561  -25.1706   19.1996 N   0  0  0  0  0  0  0  0  0  0  0  0
  -30.1992  -11.9102   17.3849 N   0  3  0  0  0  0  0  0  0  0  0  0
  -25.2137  -34.5653   22.0364 O   0  0  0  0  0  0  0  0  0  0  0  0
  -23.4877  -14.9121   22.0022 O   0  0  0  0  0  0  0  0  0  0  0  0
  -25.2829  -11.0676   20.6053 O   0  0  0  0  0  0  0  0  0  0  0  0
  -29.4035  -13.2514   19.7269 O   0  0  0  0  0  0  0  0  0  0  0  0
  -29.1511  -26.9953   19.9450 O   0  0  0  0  0  0  0  0  0  0  0  0
  -26.8653  -31.7421   29.0995 O   0  0  0  0  0  0  0  0  0  0  0  0
  -26.4914  -19.4050   19.6646 O   0  0  0  0  0  0  0  0  0  1  0  0
  -30.0440  -35.8802   30.8817 F   0  0  0  0  0  0  0  0  0  0  0  0
  -29.1870  -31.2395   30.5137 F   0  0  0  0  0  0  0  0  0  0  0  0
  1  2  1  0  0  0  0
  1  5  2  0  0  0  0
  2  6  2  0  0  0  0
  3  8  2  0  0  0  0
  3 16  1  0  0  0  0
  4  9  1  0  0  0  0
  4 16  2  0  0  0  0
  5 18  1  0  0  0  0
  6 20  1  0  0  0  0
  7 10  2  0  0  0  0
  7 19  1  0  0  0  0
  8 22  1  0  0  0  0
  9 22  2  0  0  0  0
 10 23  1  0  0  0  0
 11 12  2  0  0  0  0
 11 24  1  0  0  0  0
 12 25  1  0  0  0  0
 13 21  1  0  0  0  0
 13 23  2  0  0  0  0
 14 25  2  0  0  0  0
 14 26  1  0  0  0  0
 15 28  2  0  0  0  0
 15 67  1  0  0  0  0
 16 27  1  0  0  0  0
 17 27  1  0  0  0  0
 17 29  2  0  0  0  0
 17 31  1  0  0  0  0
 18 20  2  0  0  0  0
 18 36  1  0  0  0  0
 19 21  2  0  0  0  0
 19 37  1  0  0  0  0
 20 45  1  0  0  0  0
 21 38  1  0  0  0  0
 22 83  1  0  0  0  0
 23 84  1  0  0  0  0
 24 26  2  0  0  0  0
 24 83  1  0  0  0  0
 25 85  1  0  0  0  0
 26 86  1  0  0  0  0
 27 66  2  0  0  0  0
 28 57  1  0  0  0  0
 28 69  1  0  0  0  0
 29 68  1  0  0  0  0
 29 72  1  0  0  0  0
 30 48  1  0  0  0  0
 30 67  1  0  0  0  0
 30 69  2  0  0  0  0
 31 73  1  0  0  0  0
 31 78  2  0  0  0  0
 32 46  1  0  0  0  0
 32 74  1  0  0  0  0
 32 79  2  0  0  0  0
 33 62  1  0  0  0  0
 33 70  1  0  0  0  0
 33 80  2  0  0  0  0
 34 63  1  0  0  0  0
 34 75  1  0  0  0  0
 34 81  2  0  0  0  0
 35 71  1  0  0  0  0
 35 76  1  0  0  0  0
 35 82  2  0  0  0  0
 36 39  1  0  0  0  0
 37 46  1  0  0  0  0
 38 70  1  0  0  0  0
 39 41  1  0  0  0  0
 40 42  1  0  0  0  0
 40 43  1  0  0  0  0
 41 45  1  0  0  0  0
 42 47  1  0  0  0  0
 43 71  1  0  0  0  0
 44 47  1  0  0  0  0
 44 71  1  0  0  0  0
 45 74  1  0  0  0  0
 46 70  1  0  0  0  0
 47 68  1  0  0  0  0
 49 63  1  0  0  0  0
 50 64  1  0  0  0  0
 51 64  1  0  0  0  0
 52 64  1  0  0  0  0
 53 65  1  0  0  0  0
 54 65  1  0  0  0  0
 55 65  1  0  0  0  0
 56 77  1  0  0  0  0
 57 84  1  0  0  0  0
 58 60  1  0  0  0  0
 58 64  1  0  0  0  0
 59 61  1  0  0  0  0
 59 67  1  0  0  0  0
 60 76  1  0  0  0  0
 61 76  1  0  0  0  0
 62 65  1  0  0  0  0
 62 75  1  0  0  0  0
 63 77  1  0  0  0  0
 66 68  1  0  0  0  0
M  CHG  2  69   1  77   1
M  ISO  4  35 100  57 101  76 100  84 101
M  END
> <Batch ID>
0048

> <Smiles>
CNC(C)C(=O)NC(C(=O)N1Cc2cc([101O:1][101CH2:1]c3cn(CC[100N:0](CCC(C)(C)C)[100C:0](=O)N4CCCC(n5nc(-c6ccc(Oc7ccc(F)cc7F)cc6)c(C(N)=O)c5N)C4)c(C)n3)ccc2CC1C(=O)NC1CCCc2ccccc21)C(C)(C)C

> <Shape>
0.272

> <Color>
0.071

> <Negative vol penalty>
0.000

$$$$

  -OEChem-04052317263D

 83 91  0     1  0  0  0  0  0999 V2000
  -16.4201  -29.4179   23.5165 C   0  0  0  0  0  0  0  0  0  0  0  0
  -17.2507  -28.3698   23.9002 C   0  0  0  0  0  0  0  0  0  0  0  0
  -22.3748  -19.7670   21.0072 C   0  0  0  0  0  0  0  0  0  0  0  0
  -22.9898  -19.5820   23.3363 C   0  0  0  0  0  0  0  0  0  0  0  0
  -16.8870  -30.3870   22.6295 C   0  0  0  0  0  0  0  0  0  0  0  0
  -18.5484  -28.2897   23.3961 C   0  0  0  0  0  0  0  0  0  0  0  0
  -25.1318  -26.1515   25.2407 C   0  0  0  0  0  0  0  0  0  0  0  0
  -21.4557  -20.7656   21.3292 C   0  0  0  0  0  0  0  0  0  0  0  0
  -22.0706  -20.5806   23.6583 C   0  0  0  0  0  0  0  0  0  0  0  0
  -26.1701  -25.3428   24.7805 C   0  0  0  0  0  0  0  0  0  0  0  0
  -21.5153  -24.0706   22.0407 C   0  0  0  0  0  0  0  0  0  0  0  0
  -21.4855  -25.2085   21.2346 C   0  0  0  0  0  0  0  0  0  0  0  0
  -26.8953  -27.1174   23.3162 C   0  0  0  0  0  0  0  0  0  0  0  0
  -19.1769  -24.7574   20.6832 C   0  0  0  0  0  0  0  0  0  0  0  0
  -29.9164  -22.1867   19.8627 C   0  0  0  0  0  0  0  0  0  0  0  0
  -23.1418  -19.1752   22.0107 C   0  0  0  0  0  0  0  0  0  0  0  0
  -23.8203  -16.9030   21.0704 C   0  0  0  0  0  0  0  0  0  0  0  0
  -18.1943  -30.3240   22.1219 C   0  0  0  0  0  0  0  0  0  0  0  0
  -24.9607  -27.4475   24.7333 C   0  0  0  0  0  0  0  0  0  0  0  0
  -19.0327  -29.2581   22.5005 C   0  0  0  0  0  0  0  0  0  0  0  0
  -25.8556  -27.9415   23.7735 C   0  0  0  0  0  0  0  0  0  0  0  0
  -21.3036  -21.1724   22.6547 C   0  0  0  0  0  0  0  0  0  0  0  0
  -27.0503  -25.8246   23.8160 C   0  0  0  0  0  0  0  0  0  0  0  0
  -20.3760  -23.2759   22.1680 C   0  0  0  0  0  0  0  0  0  0  0  0
  -20.3163  -25.5520   20.5559 C   0  0  0  0  0  0  0  0  0  0  0  0
  -19.2068  -23.6194   21.4892 C   0  0  0  0  0  0  0  0  0  0  0  0
  -24.0910  -18.1433   21.6788 C   0  0  0  0  0  0  0  0  0  0  0  0
  -30.4897  -21.8302   18.6591 C   0  0  0  0  0  0  0  0  0  0  0  0
  -28.9113  -23.1294   19.7893 C   0  0  0  0  0  0  0  0  0  0  0  0
  -25.0472  -16.2932   20.9730 C   0  0  0  0  0  0  0  0  0  0  0  0
  -29.1275  -23.2574   17.5301 C   0  0  0  0  0  0  0  0  0  0  0  0
  -22.5715  -16.3514   20.6323 C   0  0  0  0  0  0  0  0  0  0  0  0
  -22.6604  -28.9422   23.1276 C   0  0  0  0  0  0  0  0  0  0  0  0
  -24.5546  -31.5337   23.5947 C   0  0  0  0  0  0  0  0  0  0  0  0
  -27.6787  -32.7679   24.1978 C   0  0  0  0  0  0  0  0  0  0  0  0
  -30.6431  -18.4084   20.7214 C   0  0  0  0  0  0  0  0  0  0  0  0
  -18.6386  -31.3687   21.1289 C   0  0  0  0  0  0  0  0  0  0  0  0
  -23.8518  -28.3169   25.2596 C   0  0  0  0  0  0  0  0  0  0  0  0
  -25.7274  -29.3330   23.2115 C   0  0  0  0  0  0  0  0  0  0  0  0
  -20.1516  -31.4177   20.9322 C   0  0  0  0  0  0  0  0  0  0  0  0
  -29.3239  -16.1223   23.1110 C   0  0  0  0  0  0  0  0  0  0  0  0
  -20.7123  -30.0106   20.7516 C   0  0  0  0  0  0  0  0  0  0  0  0
  -27.8088  -16.2691   22.9601 C   0  0  0  0  0  0  0  0  0  0  0  0
  -30.0413  -17.4580   22.9284 C   0  0  0  0  0  0  0  0  0  0  0  0
  -28.2054  -18.3139   21.5246 C   0  0  0  0  0  0  0  0  0  0  0  0
  -20.4549  -29.1504   21.9946 C   0  0  1  0  0  0  0  0  0  0  0  0
  -23.4623  -29.4358   24.2984 C   0  0  1  0  0  0  0  0  0  0  0  0
  -27.4429  -16.9833   21.6450 C   0  0  2  0  0  0  0  0  0  0  0  0
  -28.6893  -23.8518   16.2348 C   0  0  0  0  0  0  0  0  0  0  0  0
  -28.9205  -34.9289   24.4896 C   0  0  0  0  0  0  0  0  0  0  0  0
  -24.4467  -31.9997   20.5812 C   0  0  0  0  0  0  0  0  0  0  0  0
  -26.4112  -33.5336   20.8184 C   0  0  0  0  0  0  0  0  0  0  0  0
  -24.2630  -34.0748   21.9650 C   0  0  0  0  0  0  0  0  0  0  0  0
  -28.4986  -32.0592   26.9518 C   0  0  0  0  0  0  0  0  0  0  0  0
  -31.5853  -20.8178   18.6376 C   0  0  0  0  0  0  0  0  0  0  0  0
  -31.0862  -19.3767   18.4797 C   0  0  0  0  0  0  0  0  0  0  0  0
  -28.6780  -22.9844   22.2692 C   0  0  0  0  0  0  0  0  0  0  0  0
  -27.8397  -23.6279   23.3611 C   0  0  0  0  0  0  0  0  0  1  0  0
  -25.6899  -32.1786   22.8370 C   0  0  1  0  0  0  0  0  0  0  0  0
  -28.1791  -33.8014   25.1908 C   0  0  2  0  0  0  0  0  0  0  0  0
  -25.2042  -32.9197   21.5594 C   0  0  0  0  0  0  0  0  0  0  0  0
  -25.3881  -18.3128   21.9491 N   0  0  0  0  0  0  0  0  0  0  0  0
  -30.1184  -22.3475   17.4696 N   0  0  0  0  0  0  0  0  0  0  0  0
  -28.4902  -23.6879   18.6356 N   0  0  0  0  0  0  0  0  0  0  0  0
  -25.9432  -17.1710   21.5085 N   0  0  0  0  0  0  0  0  0  0  0  0
  -24.6233  -30.1423   23.7533 N   0  0  0  0  0  0  0  0  0  0  0  0
  -29.6519  -18.0826   21.6619 N   0  0  0  0  0  0  0  0  0  0  0  0
  -25.4361  -15.0972   20.4825 N   0  0  0  0  0  0  0  0  0  0  0  0
  -21.8248  -15.5858   21.5382 N   0  0  0  0  0  0  0  0  0  0  0  0
  -28.3100  -23.5141   20.9762 N   0  0  0  0  0  0  0  0  0  0  0  0
  -21.3928  -29.4860   23.0445 N   0  0  0  0  0  0  0  0  0  0  0  0
  -26.3869  -33.0313   23.7938 N   0  0  0  0  0  0  0  0  0  0  0  0
  -30.1878  -18.9913   19.5451 N   0  0  0  0  0  0  0  0  0  0  0  0
  -29.1046  -33.1700   26.1735 N   0  3  0  0  0  0  0  0  0  0  0  0
  -22.1386  -16.5184   19.4669 O   0  0  0  0  0  0  0  0  0  0  0  0
  -23.1555  -28.1293   22.3558 O   0  0  0  0  0  0  0  0  0  0  0  0
  -23.6442  -32.2393   24.0360 O   0  0  0  0  0  0  0  0  0  0  0  0
  -28.3664  -31.8236   23.8158 O   0  0  0  0  0  0  0  0  0  0  0  0
  -31.8442  -18.1906   20.9134 O   0  0  0  0  0  0  0  0  0  0  0  0
  -20.4070  -22.1469   22.9692 O   0  0  0  0  0  0  0  0  0  0  0  0
  -28.0641  -25.0371   23.3646 O   0  0  0  0  0  0  0  0  0  1  0  0
  -20.2873  -26.6456   19.7831 F   0  0  0  0  0  0  0  0  0  0  0  0
  -18.1087  -22.8605   21.6085 F   0  0  0  0  0  0  0  0  0  0  0  0
  1  2  1  0  0  0  0
  1  5  2  0  0  0  0
  2  6  2  0  0  0  0
  3  8  2  0  0  0  0
  3 16  1  0  0  0  0
  4  9  1  0  0  0  0
  4 16  2  0  0  0  0
  5 18  1  0  0  0  0
  6 20  1  0  0  0  0
  7 10  2  0  0  0  0
  7 19  1  0  0  0  0
  8 22  1  0  0  0  0
  9 22  2  0  0  0  0
 10 23  1  0  0  0  0
 11 12  2  0  0  0  0
 11 24  1  0  0  0  0
 12 25  1  0  0  0  0
 13 21  1  0  0  0  0
 13 23  2  0  0  0  0
 14 25  2  0  0  0  0
 14 26  1  0  0  0  0
 15 28  2  0  0  0  0
 15 29  1  0  0  0  0
 16 27  1  0  0  0  0
 17 27  1  0  0  0  0
 17 30  2  0  0  0  0
 17 32  1  0  0  0  0
 18 20  2  0  0  0  0
 18 37  1  0  0  0  0
 19 21  2  0  0  0  0
 19 38  1  0  0  0  0
 20 46  1  0  0  0  0
 21 39  1  0  0  0  0
 22 80  1  0  0  0  0
 23 81  1  0  0  0  0
 24 26  2  0  0  0  0
 24 80  1  0  0  0  0
 25 82  1  0  0  0  0
 26 83  1  0  0  0  0
 27 62  2  0  0  0  0
 28 55  1  0  0  0  0
 28 63  1  0  0  0  0
 29 64  2  0  0  0  0
 29 70  1  0  0  0  0
 30 65  1  0  0  0  0
 30 68  1  0  0  0  0
 31 49  1  0  0  0  0
 31 63  2  0  0  0  0
 31 64  1  0  0  0  0
 32 69  1  0  0  0  0
 32 75  2  0  0  0  0
 33 47  1  0  0  0  0
 33 71  1  0  0  0  0
 33 76  2  0  0  0  0
 34 59  1  0  0  0  0
 34 66  1  0  0  0  0
 34 77  2  0  0  0  0
 35 60  1  0  0  0  0
 35 72  1  0  0  0  0
 35 78  2  0  0  0  0
 36 67  1  0  0  0  0
 36 73  1  0  0  0  0
 36 79  2  0  0  0  0
 37 40  1  0  0  0  0
 38 47  1  0  0  0  0
 39 66  1  0  0  0  0
 40 42  1  0  0  0  0
 41 43  1  0  0  0  0
 41 44  1  0  0  0  0
 42 46  1  0  0  0  0
 43 48  1  0  0  0  0
 44 67  1  0  0  0  0
 45 48  1  0  0  0  0
 45 67  1  0  0  0  0
 46 71  1  0  0  0  0
 47 66  1  0  0  0  0
 48 65  1  0  0  0  0
 50 60  1  0  0  0  0
 51 61  1  0  0  0  0
 52 61  1  0  0  0  0
 53 61  1  0  0  0  0
 54 74  1  0  0  0  0
 55 56  1  0  0  0  0
 56 73  1  0  0  0  0
 57 58  1  0  0  0  0
 57 70  1  0  0  0  0
 58 81  1  0  0  0  0
 59 61  1  0  0  0  0
 59 72  1  0  0  0  0
 60 74  1  0  0  0  0
 62 65  1  0  0  0  0
M  CHG  1  74   1
M  ISO  4  36 100  58 101  73 100  81 101
M  END
> <Batch ID>
0048

> <Smiles>
CNC(C)C(=O)NC(C(=O)N1Cc2cc([101O:1][101CH2:1]CNc3cc(CC[100NH:0][100C:0](=O)N4CCCC(n5nc(-c6ccc(Oc7ccc(F)cc7F)cc6)c(C(N)=O)c5N)C4)nc(C)n3)ccc2CC1C(=O)NC1CCCc2ccccc21)C(C)(C)C

> <Shape>
0.191

> <Color>
0.102

> <Negative vol penalty>
0.000

$$$$

  -OEChem-04052317263D

 81 89  0     1  0  0  0  0  0999 V2000
  -22.2432   -7.8438   21.2206 C   0  0  0  0  0  0  0  0  0  0  0  0
  -23.2620   -8.2836   20.3816 C   0  0  0  0  0  0  0  0  0  0  0  0
  -24.0208  -24.3576   19.1896 C   0  0  0  0  0  0  0  0  0  0  0  0
  -24.2275  -24.4209   21.5959 C   0  0  0  0  0  0  0  0  0  0  0  0
  -21.6361   -8.7350   22.1044 C   0  0  0  0  0  0  0  0  0  0  0  0
  -23.6736   -9.6152   20.4252 C   0  0  0  0  0  0  0  0  0  0  0  0
  -29.3575  -11.7407   19.5994 C   0  0  0  0  0  0  0  0  0  0  0  0
  -22.6590  -24.6388   19.2992 C   0  0  0  0  0  0  0  0  0  0  0  0
  -22.8657  -24.7022   21.7055 C   0  0  0  0  0  0  0  0  0  0  0  0
  -29.9992  -12.2980   18.4943 C   0  0  0  0  0  0  0  0  0  0  0  0
  -19.5160  -25.7935   22.6037 C   0  0  0  0  0  0  0  0  0  0  0  0
  -19.1302  -26.8011   23.4876 C   0  0  0  0  0  0  0  0  0  0  0  0
  -29.4882  -14.5067   19.3188 C   0  0  0  0  0  0  0  0  0  0  0  0
  -20.4547  -28.3962   22.2472 C   0  0  0  0  0  0  0  0  0  0  0  0
  -33.6055  -18.2916   18.7797 C   0  0  0  0  0  0  0  0  0  0  0  0
  -34.7405  -16.4086   18.6296 C   0  0  0  0  0  0  0  0  0  0  0  0
  -24.8051  -24.2486   20.3380 C   0  0  0  0  0  0  0  0  0  0  0  0
  -27.2651  -24.8844   20.1108 C   0  0  0  0  0  0  0  0  0  0  0  0
  -22.0470  -10.0759   22.1657 C   0  0  0  0  0  0  0  0  0  0  0  0
  -28.7658  -12.5635   20.5687 C   0  0  0  0  0  0  0  0  0  0  0  0
  -23.0705  -10.5255   21.3097 C   0  0  0  0  0  0  0  0  0  0  0  0
  -28.8418  -13.9574   20.4366 C   0  0  0  0  0  0  0  0  0  0  0  0
  -22.0815  -24.8111   20.5571 C   0  0  0  0  0  0  0  0  0  0  0  0
  -30.0621  -13.6811   18.3523 C   0  0  0  0  0  0  0  0  0  0  0  0
  -20.3712  -26.0871   21.5415 C   0  0  0  0  0  0  0  0  0  0  0  0
  -19.5995  -28.1025   23.3093 C   0  0  0  0  0  0  0  0  0  0  0  0
  -20.8405  -27.3885   21.3633 C   0  0  0  0  0  0  0  0  0  0  0  0
  -26.2118  -23.9576   20.2255 C   0  0  0  0  0  0  0  0  0  0  0  0
  -34.3821  -18.0822   19.8949 C   0  0  0  0  0  0  0  0  0  0  0  0
  -28.3970  -24.1102   20.0348 C   0  0  0  0  0  0  0  0  0  0  0  0
  -27.2241  -26.3172   20.0762 C   0  0  0  0  0  0  0  0  0  0  0  0
  -25.8064  -12.9856   21.6492 C   0  0  0  0  0  0  0  0  0  0  0  0
  -27.2824  -14.9211   23.7934 C   0  0  0  0  0  0  0  0  0  0  0  0
  -29.9733  -16.8749   24.5604 C   0  0  0  0  0  0  0  0  0  0  0  0
  -31.4496  -19.9549   21.8683 C   0  0  0  0  0  0  0  0  0  0  0  0
  -21.3286  -11.0131   23.1038 C   0  0  0  0  0  0  0  0  0  0  0  0
  -28.1006  -11.9472   21.7687 C   0  0  0  0  0  0  0  0  0  0  0  0
  -28.2402  -14.8848   21.4596 C   0  0  0  0  0  0  0  0  0  0  0  0
  -22.0788  -12.3191   23.3528 C   0  0  0  0  0  0  0  0  0  0  0  0
  -28.9392  -19.1210   19.3985 C   0  0  0  0  0  0  0  0  0  0  0  0
  -22.5775  -12.9075   22.0368 C   0  0  0  0  0  0  0  0  0  0  0  0
  -28.0894  -20.3929   19.3871 C   0  0  0  0  0  0  0  0  0  0  0  0
  -29.4214  -18.7909   20.8080 C   0  0  0  0  0  0  0  0  0  0  0  0
  -29.3239  -21.1639   21.4660 C   0  0  0  0  0  0  0  0  0  0  0  0
  -23.5616  -11.9564   21.3451 C   0  0  1  0  0  0  0  0  0  0  0  0
  -27.0850  -12.8735   22.4304 C   0  0  1  0  0  0  0  0  0  0  0  0
  -28.8245  -21.5640   20.0658 C   0  0  2  0  0  0  0  0  0  0  0  0
  -30.8780  -18.3592   26.3704 C   0  0  0  0  0  0  0  0  0  0  0  0
  -25.3371  -17.1191   22.9598 C   0  0  0  0  0  0  0  0  0  0  0  0
  -26.8552  -18.7817   24.0551 C   0  0  0  0  0  0  0  0  0  0  0  0
  -25.7768  -16.9925   25.4185 C   0  0  0  0  0  0  0  0  0  0  0  0
  -32.3555  -15.1596   24.9367 C   0  0  0  0  0  0  0  0  0  0  0  0
  -34.5142  -18.9356   21.0855 C   0  0  0  0  0  0  0  0  0  0  0  0
  -32.5054  -15.6052   16.5305 C   0  0  0  0  0  0  0  0  0  0  0  0
  -33.2323  -16.9484   16.6261 C   0  0  0  0  0  0  0  0  0  0  0  0
  -33.5100  -18.6152   22.2107 C   0  0  0  0  0  0  0  0  0  0  0  0
  -31.2985  -15.5042   17.4559 C   0  0  0  0  0  0  0  0  0  1  0  0
  -27.6520  -16.3842   23.8356 C   0  0  1  0  0  0  0  0  0  0  0  0
  -30.8430  -16.9489   25.8024 C   0  0  2  0  0  0  0  0  0  0  0  0
  -26.4150  -17.3021   24.0468 C   0  0  0  0  0  0  0  0  0  0  0  0
  -35.0864  -16.9084   19.7951 N   0  0  0  0  0  0  0  0  0  0  0  0
  -26.6366  -22.6913   20.2229 N   0  0  0  0  0  0  0  0  0  0  0  0
  -33.8460  -17.2115   17.9780 N   0  0  0  0  0  0  0  0  0  0  0  0
  -27.9695  -22.8170   20.1055 N   0  0  0  0  0  0  0  0  0  0  0  0
  -27.5951  -14.2340   22.6119 N   0  0  0  0  0  0  0  0  0  0  0  0
  -30.1288  -19.9401   21.3902 N   0  0  0  0  0  0  0  0  0  0  0  0
  -29.7064  -24.4162   19.9150 N   0  0  0  0  0  0  0  0  0  0  0  0
  -25.9779  -26.9523   20.1658 N   0  0  0  0  0  0  0  0  0  0  0  0
  -24.8627  -12.0300   21.9744 N   0  0  0  0  0  0  0  0  0  0  0  0
  -28.6771  -16.5166   24.8652 N   0  0  0  0  0  0  0  0  0  0  0  0
  -32.1409  -18.7538   21.7665 N   0  0  0  0  0  0  0  0  0  0  0  0
  -32.2389  -16.5363   25.4826 N   0  3  0  0  0  0  0  0  0  0  0  0
  -28.2603  -27.0132   19.9524 O   0  0  0  0  0  0  0  0  0  0  0  0
  -25.6845  -13.8743   20.8142 O   0  0  0  0  0  0  0  0  0  0  0  0
  -26.7426  -14.4052   24.7753 O   0  0  0  0  0  0  0  0  0  0  0  0
  -30.4001  -17.1149   23.4331 O   0  0  0  0  0  0  0  0  0  0  0  0
  -31.9762  -20.9656   22.3460 O   0  0  0  0  0  0  0  0  0  0  0  0
  -20.7527  -25.0857   20.6644 O   0  0  0  0  0  0  0  0  0  0  0  0
  -30.6873  -14.2276   17.2742 O   0  0  0  0  0  0  0  0  0  1  0  0
  -19.2277  -29.0704   24.1573 F   0  0  0  0  0  0  0  0  0  0  0  0
  -21.6614  -27.6769   20.3441 F   0  0  0  0  0  0  0  0  0  0  0  0
  1  2  1  0  0  0  0
  1  5  2  0  0  0  0
  2  6  2  0  0  0  0
  3  8  2  0  0  0  0
  3 17  1  0  0  0  0
  4  9  1  0  0  0  0
  4 17  2  0  0  0  0
  5 19  1  0  0  0  0
  6 21  1  0  0  0  0
  7 10  2  0  0  0  0
  7 20  1  0  0  0  0
  8 23  1  0  0  0  0
  9 23  2  0  0  0  0
 10 24  1  0  0  0  0
 11 12  2  0  0  0  0
 11 25  1  0  0  0  0
 12 26  1  0  0  0  0
 13 22  1  0  0  0  0
 13 24  2  0  0  0  0
 14 26  2  0  0  0  0
 14 27  1  0  0  0  0
 15 29  2  0  0  0  0
 15 63  1  0  0  0  0
 16 61  2  0  0  0  0
 16 63  1  0  0  0  0
 17 28  1  0  0  0  0
 18 28  1  0  0  0  0
 18 30  2  0  0  0  0
 18 31  1  0  0  0  0
 19 21  2  0  0  0  0
 19 36  1  0  0  0  0
 20 22  2  0  0  0  0
 20 37  1  0  0  0  0
 21 45  1  0  0  0  0
 22 38  1  0  0  0  0
 23 78  1  0  0  0  0
 24 79  1  0  0  0  0
 25 27  2  0  0  0  0
 25 78  1  0  0  0  0
 26 80  1  0  0  0  0
 27 81  1  0  0  0  0
 28 62  2  0  0  0  0
 29 53  1  0  0  0  0
 29 61  1  0  0  0  0
 30 64  1  0  0  0  0
 30 67  1  0  0  0  0
 31 68  1  0  0  0  0
 31 73  2  0  0  0  0
 32 46  1  0  0  0  0
 32 69  1  0  0  0  0
 32 74  2  0  0  0  0
 33 58  1  0  0  0  0
 33 65  1  0  0  0  0
 33 75  2  0  0  0  0
 34 59  1  0  0  0  0
 34 70  1  0  0  0  0
 34 76  2  0  0  0  0
 35 66  1  0  0  0  0
 35 71  1  0  0  0  0
 35 77  2  0  0  0  0
 36 39  1  0  0  0  0
 37 46  1  0  0  0  0
 38 65  1  0  0  0  0
 39 41  1  0  0  0  0
 40 42  1  0  0  0  0
 40 43  1  0  0  0  0
 41 45  1  0  0  0  0
 42 47  1  0  0  0  0
 43 66  1  0  0  0  0
 44 47  1  0  0  0  0
 44 66  1  0  0  0  0
 45 69  1  0  0  0  0
 46 65  1  0  0  0  0
 47 64  1  0  0  0  0
 48 59  1  0  0  0  0
 49 60  1  0  0  0  0
 50 60  1  0  0  0  0
 51 60  1  0  0  0  0
 52 72  1  0  0  0  0
 53 56  1  0  0  0  0
 54 55  1  0  0  0  0
 54 57  1  0  0  0  0
 55 63  1  0  0  0  0
 56 71  1  0  0  0  0
 57 79  1  0  0  0  0
 58 60  1  0  0  0  0
 58 70  1  0  0  0  0
 59 72  1  0  0  0  0
 62 64  1  0  0  0  0
M  CHG  1  72   1
M  ISO  4  35 100  57 101  71 100  79 101
M  END
> <Batch ID>
0048

> <Smiles>
CNC(C)C(=O)NC(C(=O)N1Cc2cc([101O:1][101CH2:1]CCn3cnc(CC[100NH:0][100C:0](=O)N4CCCC(n5nc(-c6ccc(Oc7ccc(F)cc7F)cc6)c(C(N)=O)c5N)C4)c3)ccc2CC1C(=O)NC1CCCc2ccccc21)C(C)(C)C

> <Shape>
0.208

> <Color>
0.061

> <Negative vol penalty>
0.000

$$$$

  -OEChem-04052317263D

 84 92  0     1  0  0  0  0  0999 V2000
  -32.0823  -33.0149   22.9484 C   0  0  0  0  0  0  0  0  0  0  0  0
  -31.7093  -31.8039   22.3742 C   0  0  0  0  0  0  0  0  0  0  0  0
  -24.4639   -9.4169   21.6385 C   0  0  0  0  0  0  0  0  0  0  0  0
  -22.6850  -10.3555   20.3001 C   0  0  0  0  0  0  0  0  0  0  0  0
  -31.3378  -33.5445   24.0015 C   0  0  0  0  0  0  0  0  0  0  0  0
  -30.5920  -31.1211   22.8537 C   0  0  0  0  0  0  0  0  0  0  0  0
  -26.6516  -27.7573   19.5882 C   0  0  0  0  0  0  0  0  0  0  0  0
  -23.7280   -8.2421   21.7929 C   0  0  0  0  0  0  0  0  0  0  0  0
  -21.9490   -9.1807   20.4544 C   0  0  0  0  0  0  0  0  0  0  0  0
  -26.5424  -26.3837   19.3757 C   0  0  0  0  0  0  0  0  0  0  0  0
  -21.1358   -7.1558   23.6704 C   0  0  0  0  0  0  0  0  0  0  0  0
  -21.0666   -6.5984   24.9471 C   0  0  0  0  0  0  0  0  0  0  0  0
  -24.9109  -26.2455   21.1472 C   0  0  0  0  0  0  0  0  0  0  0  0
  -22.0931   -4.5742   24.1188 C   0  0  0  0  0  0  0  0  0  0  0  0
  -24.8111  -21.8165   18.5496 C   0  0  0  0  0  0  0  0  0  0  0  0
  -23.9424  -10.4736   20.8922 C   0  0  0  0  0  0  0  0  0  0  0  0
  -25.6257  -11.9848   19.7130 C   0  0  0  0  0  0  0  0  0  0  0  0
  -30.2052  -32.8726   24.4878 C   0  0  0  0  0  0  0  0  0  0  0  0
  -25.8980  -28.3846   20.5908 C   0  0  0  0  0  0  0  0  0  0  0  0
  -29.8324  -31.6415   23.9153 C   0  0  0  0  0  0  0  0  0  0  0  0
  -25.0104  -27.6275   21.3687 C   0  0  0  0  0  0  0  0  0  0  0  0
  -22.4705   -8.1240   21.2008 C   0  0  0  0  0  0  0  0  0  0  0  0
  -25.6741  -25.6271   20.1572 C   0  0  0  0  0  0  0  0  0  0  0  0
  -21.6835   -6.4225   22.6178 C   0  0  0  0  0  0  0  0  0  0  0  0
  -21.5453   -5.3075   25.1713 C   0  0  0  0  0  0  0  0  0  0  0  0
  -22.1623   -5.1317   22.8421 C   0  0  0  0  0  0  0  0  0  0  0  0
  -24.7019  -11.6877   20.7328 C   0  0  0  0  0  0  0  0  0  0  0  0
  -26.0911  -22.2486   18.8309 C   0  0  0  0  0  0  0  0  0  0  0  0
  -24.6430  -20.4482   18.4875 C   0  0  0  0  0  0  0  0  0  0  0  0
  -26.0692  -13.2505   20.0095 C   0  0  0  0  0  0  0  0  0  0  0  0
  -26.8421  -20.1065   18.9502 C   0  0  0  0  0  0  0  0  0  0  0  0
  -26.0453  -11.1881   18.5973 C   0  0  0  0  0  0  0  0  0  0  0  0
  -26.5917  -30.0006   23.2386 C   0  0  0  0  0  0  0  0  0  0  0  0
  -23.3865  -30.4947   23.3106 C   0  0  0  0  0  0  0  0  0  0  0  0
  -20.2729  -29.4536   22.3786 C   0  0  0  0  0  0  0  0  0  0  0  0
  -23.6615  -17.8036   23.0628 C   0  0  0  0  0  0  0  0  0  0  0  0
  -29.4595  -33.4608   25.6593 C   0  0  0  0  0  0  0  0  0  0  0  0
  -26.0074  -29.8715   20.7895 C   0  0  0  0  0  0  0  0  0  0  0  0
  -24.1641  -28.2563   22.4443 C   0  0  0  0  0  0  0  0  0  0  0  0
  -28.0707  -32.8600   25.8611 C   0  0  0  0  0  0  0  0  0  0  0  0
  -26.7737  -16.2000   23.7102 C   0  0  0  0  0  0  0  0  0  0  0  0
  -28.1296  -31.3383   25.7738 C   0  0  0  0  0  0  0  0  0  0  0  0
  -26.6790  -14.8885   22.9285 C   0  0  0  0  0  0  0  0  0  0  0  0
  -25.4275  -16.5967   24.3122 C   0  0  0  0  0  0  0  0  0  0  0  0
  -24.2174  -15.3456   22.5674 C   0  0  0  0  0  0  0  0  0  0  0  0
  -28.6123  -30.8833   24.3913 C   0  0  1  0  0  0  0  0  0  0  0  0
  -25.5737  -30.3218   22.1811 C   0  0  1  0  0  0  0  0  0  0  0  0
  -25.5378  -14.9332   21.8946 C   0  0  2  0  0  0  0  0  0  0  0  0
  -27.9690  -19.1562   19.1762 C   0  0  0  0  0  0  0  0  0  0  0  0
  -23.2902  -19.1022   16.8615 C   0  0  0  0  0  0  0  0  0  0  0  0
  -17.8451  -30.0406   22.6204 C   0  0  0  0  0  0  0  0  0  0  0  0
  -23.4077  -29.3988   26.1582 C   0  0  0  0  0  0  0  0  0  0  0  0
  -20.9252  -29.1190   25.9947 C   0  0  0  0  0  0  0  0  0  0  0  0
  -21.9366  -31.3925   25.8186 C   0  0  0  0  0  0  0  0  0  0  0  0
  -19.9504  -29.8166   19.4591 C   0  0  0  0  0  0  0  0  0  0  0  0
  -26.3720  -23.7199   18.9197 C   0  0  0  0  0  0  0  0  0  1  0  0
  -22.5028  -19.7507   20.6314 C   0  0  0  0  0  0  0  0  0  0  0  0
  -22.7192  -18.9835   19.3191 C   0  0  0  0  0  0  0  0  0  0  0  0
  -21.8758  -18.8803   21.7169 C   0  0  0  0  0  0  0  0  0  0  0  0
  -23.2930  -19.8863   18.1907 C   0  0  1  0  0  0  0  0  0  0  0  0
  -22.2053  -29.7646   23.9029 C   0  0  1  0  0  0  0  0  0  0  0  0
  -19.0988  -30.2033   21.7752 C   0  0  2  0  0  0  0  0  0  0  0  0
  -22.1359  -29.9063   25.4497 C   0  0  0  0  0  0  0  0  0  0  0  0
  -24.5658  -12.6842   21.6117 N   0  0  0  0  0  0  0  0  0  0  0  0
  -27.1341  -21.4182   19.0375 N   0  0  0  0  0  0  0  0  0  0  0  0
  -25.6403  -19.5608   18.6831 N   0  0  0  0  0  0  0  0  0  0  0  0
  -25.4100  -13.6199   21.1449 N   0  0  0  0  0  0  0  0  0  0  0  0
  -24.3113  -29.7124   22.6045 N   0  0  0  0  0  0  0  0  0  0  0  0
  -24.3890  -16.6217   23.2793 N   0  0  0  0  0  0  0  0  0  0  0  0
  -26.9549  -14.0722   19.4073 N   0  0  0  0  0  0  0  0  0  0  0  0
  -25.4896   -9.9109   18.4417 N   0  0  0  0  0  0  0  0  0  0  0  0
  -27.5418  -30.9868   23.4229 N   0  0  0  0  0  0  0  0  0  0  0  0
  -21.0255  -30.2623   23.2038 N   0  0  0  0  0  0  0  0  0  0  0  0
  -22.7004  -17.7435   22.0611 N   0  0  0  0  0  0  0  0  0  0  0  0
  -18.8102  -29.6963   20.4039 N   0  3  0  0  0  0  0  0  0  0  0  0
  -26.9004  -11.5901   17.7723 O   0  0  0  0  0  0  0  0  0  0  0  0
  -26.5195  -28.9374   23.8436 O   0  0  0  0  0  0  0  0  0  0  0  0
  -23.4813  -31.7151   23.4626 O   0  0  0  0  0  0  0  0  0  0  0  0
  -20.4977  -28.2682   22.1444 O   0  0  0  0  0  0  0  0  0  0  0  0
  -23.8577  -18.8375   23.7105 O   0  0  0  0  0  0  0  0  0  0  0  0
  -21.7522   -6.9777   21.3510 O   0  0  0  0  0  0  0  0  0  0  0  0
  -25.5661  -24.2861   19.9523 O   0  0  0  0  0  0  0  0  0  1  0  0
  -21.4802   -4.7729   26.3977 F   0  0  0  0  0  0  0  0  0  0  0  0
  -22.6907   -4.4227   21.8351 F   0  0  0  0  0  0  0  0  0  0  0  0
  1  2  1  0  0  0  0
  1  5  2  0  0  0  0
  2  6  2  0  0  0  0
  3  8  2  0  0  0  0
  3 16  1  0  0  0  0
  4  9  1  0  0  0  0
  4 16  2  0  0  0  0
  5 18  1  0  0  0  0
  6 20  1  0  0  0  0
  7 10  2  0  0  0  0
  7 19  1  0  0  0  0
  8 22  1  0  0  0  0
  9 22  2  0  0  0  0
 10 23  1  0  0  0  0
 11 12  2  0  0  0  0
 11 24  1  0  0  0  0
 12 25  1  0  0  0  0
 13 21  1  0  0  0  0
 13 23  2  0  0  0  0
 14 25  2  0  0  0  0
 14 26  1  0  0  0  0
 15 28  1  0  0  0  0
 15 29  2  0  0  0  0
 16 27  1  0  0  0  0
 17 27  1  0  0  0  0
 17 30  2  0  0  0  0
 17 32  1  0  0  0  0
 18 20  2  0  0  0  0
 18 37  1  0  0  0  0
 19 21  2  0  0  0  0
 19 38  1  0  0  0  0
 20 46  1  0  0  0  0
 21 39  1  0  0  0  0
 22 81  1  0  0  0  0
 23 82  1  0  0  0  0
 24 26  2  0  0  0  0
 24 81  1  0  0  0  0
 25 83  1  0  0  0  0
 26 84  1  0  0  0  0
 27 64  2  0  0  0  0
 28 56  1  0  0  0  0
 28 65  2  0  0  0  0
 29 60  1  0  0  0  0
 29 66  1  0  0  0  0
 30 67  1  0  0  0  0
 30 70  1  0  0  0  0
 31 49  1  0  0  0  0
 31 65  1  0  0  0  0
 31 66  2  0  0  0  0
 32 71  1  0  0  0  0
 32 76  2  0  0  0  0
 33 47  1  0  0  0  0
 33 72  1  0  0  0  0
 33 77  2  0  0  0  0
 34 61  1  0  0  0  0
 34 68  1  0  0  0  0
 34 78  2  0  0  0  0
 35 62  1  0  0  0  0
 35 73  1  0  0  0  0
 35 79  2  0  0  0  0
 36 69  1  0  0  0  0
 36 74  1  0  0  0  0
 36 80  2  0  0  0  0
 37 40  1  0  0  0  0
 38 47  1  0  0  0  0
 39 68  1  0  0  0  0
 40 42  1  0  0  0  0
 41 43  1  0  0  0  0
 41 44  1  0  0  0  0
 42 46  1  0  0  0  0
 43 48  1  0  0  0  0
 44 69  1  0  0  0  0
 45 48  1  0  0  0  0
 45 69  1  0  0  0  0
 46 72  1  0  0  0  0
 47 68  1  0  0  0  0
 48 67  1  0  0  0  0
 50 60  1  0  0  0  0
 51 62  1  0  0  0  0
 52 63  1  0  0  0  0
 53 63  1  0  0  0  0
 54 63  1  0  0  0  0
 55 75  1  0  0  0  0
 56 82  1  0  0  0  0
 57 58  1  0  0  0  0
 57 59  1  0  0  0  0
 58 60  1  0  0  0  0
 59 74  1  0  0  0  0
 61 63  1  0  0  0  0
 61 73  1  0  0  0  0
 62 75  1  0  0  0  0
 64 67  1  0  0  0  0
M  CHG  1  75   1
M  ISO  4  36 100  56 101  74 100  82 101
M  END
> <Batch ID>
0048

> <Smiles>
CNC(C)C(=O)NC(C(=O)N1Cc2cc([101O:1][101CH2:1]c3cc(C(C)CCC[100NH:0][100C:0](=O)N4CCCC(n5nc(-c6ccc(Oc7ccc(F)cc7F)cc6)c(C(N)=O)c5N)C4)nc(C)n3)ccc2CC1C(=O)NC1CCCc2ccccc21)C(C)(C)C

> <Shape>
0.234

> <Color>
0.094

> <Negative vol penalty>
0.000

$$$$

  -OEChem-04052317263D

 87 95  0     1  0  0  0  0  0999 V2000
  -29.9787  -31.4810   20.8712 C   0  0  0  0  0  0  0  0  0  0  0  0
  -29.3398  -30.2540   21.0182 C   0  0  0  0  0  0  0  0  0  0  0  0
  -23.2272   -9.8321   19.9095 C   0  0  0  0  0  0  0  0  0  0  0  0
  -23.7894   -9.9241   22.2574 C   0  0  0  0  0  0  0  0  0  0  0  0
  -30.3315  -31.9342   19.6007 C   0  0  0  0  0  0  0  0  0  0  0  0
  -29.0522  -29.4800   19.8945 C   0  0  0  0  0  0  0  0  0  0  0  0
  -30.2059  -24.5935   20.5548 C   0  0  0  0  0  0  0  0  0  0  0  0
  -22.4998   -8.6624   20.1295 C   0  0  0  0  0  0  0  0  0  0  0  0
  -23.0620   -8.7544   22.4774 C   0  0  0  0  0  0  0  0  0  0  0  0
  -29.3158  -23.8246   21.3033 C   0  0  0  0  0  0  0  0  0  0  0  0
  -19.8199   -7.8685   22.8298 C   0  0  0  0  0  0  0  0  0  0  0  0
  -18.9680   -7.8348   23.9338 C   0  0  0  0  0  0  0  0  0  0  0  0
  -28.3716  -22.9445   19.2654 C   0  0  0  0  0  0  0  0  0  0  0  0
  -20.2003   -5.9587   24.8275 C   0  0  0  0  0  0  0  0  0  0  0  0
  -28.6189  -18.5695   22.3079 C   0  0  0  0  0  0  0  0  0  0  0  0
  -23.8720  -10.4629   20.9734 C   0  0  0  0  0  0  0  0  0  0  0  0
  -24.1467  -12.9938   20.8094 C   0  0  0  0  0  0  0  0  0  0  0  0
  -30.0568  -31.1609   18.4618 C   0  0  0  0  0  0  0  0  0  0  0  0
  -30.1782  -24.5518   19.1534 C   0  0  0  0  0  0  0  0  0  0  0  0
  -29.4004  -29.9238   18.6075 C   0  0  0  0  0  0  0  0  0  0  0  0
  -29.2641  -23.7118   18.5014 C   0  0  0  0  0  0  0  0  0  0  0  0
  -22.4172   -8.1236   21.4134 C   0  0  0  0  0  0  0  0  0  0  0  0
  -28.3965  -23.0021   20.6586 C   0  0  0  0  0  0  0  0  0  0  0  0
  -20.8620   -6.9472   22.7247 C   0  0  0  0  0  0  0  0  0  0  0  0
  -19.1582   -6.8800   24.9326 C   0  0  0  0  0  0  0  0  0  0  0  0
  -21.0522   -5.9923   23.7235 C   0  0  0  0  0  0  0  0  0  0  0  0
  -24.6240  -11.6709   20.7467 C   0  0  0  0  0  0  0  0  0  0  0  0
  -28.8117  -17.5733   21.3726 C   0  0  0  0  0  0  0  0  0  0  0  0
  -27.5427  -19.4025   22.0797 C   0  0  0  0  0  0  0  0  0  0  0  0
  -25.2427  -13.7685   20.5175 C   0  0  0  0  0  0  0  0  0  0  0  0
  -27.0049  -18.2712   20.1828 C   0  0  0  0  0  0  0  0  0  0  0  0
  -22.8303  -13.4790   21.1052 C   0  0  0  0  0  0  0  0  0  0  0  0
  -29.6214  -26.6775   16.8566 C   0  0  0  0  0  0  0  0  0  0  0  0
  -30.4917  -24.2282   14.9161 C   0  0  0  0  0  0  0  0  0  0  0  0
  -30.8135  -20.8603   14.4683 C   0  0  0  0  0  0  0  0  0  0  0  0
  -31.0541  -13.4405   21.6142 C   0  0  0  0  0  0  0  0  0  0  0  0
  -30.4148  -31.7140   17.1051 C   0  0  0  0  0  0  0  0  0  0  0  0
  -31.1629  -25.3670   18.3608 C   0  0  0  0  0  0  0  0  0  0  0  0
  -29.2072  -23.6158   16.9994 C   0  0  0  0  0  0  0  0  0  0  0  0
  -30.4108  -30.6627   15.9983 C   0  0  0  0  0  0  0  0  0  0  0  0
  -29.5625  -13.0101   18.2539 C   0  0  0  0  0  0  0  0  0  0  0  0
  -29.1540  -29.8026   16.0836 C   0  0  0  0  0  0  0  0  0  0  0  0
  -28.1077  -12.6729   18.5759 C   0  0  0  0  0  0  0  0  0  0  0  0
  -30.5066  -12.5723   19.3696 C   0  0  0  0  0  0  0  0  0  0  0  0
  -28.6872  -12.7677   21.0327 C   0  0  0  0  0  0  0  0  0  0  0  0
  -29.0938  -29.0441   17.4150 C   0  0  1  0  0  0  0  0  0  0  0  0
  -30.7022  -25.6364   16.9316 C   0  0  1  0  0  0  0  0  0  0  0  0
  -27.7048  -13.2374   19.9493 C   0  0  2  0  0  0  0  0  0  0  0  0
  -31.5163  -19.1579   12.7638 C   0  0  0  0  0  0  0  0  0  0  0  0
  -25.8776  -20.0701   15.6282 C   0  0  0  0  0  0  0  0  0  0  0  0
  -25.6387  -17.6094   16.0134 C   0  0  0  0  0  0  0  0  0  0  0  0
  -27.8651  -24.6451   13.4203 C   0  0  0  0  0  0  0  0  0  0  0  0
  -28.1745  -22.3849   12.3887 C   0  0  0  0  0  0  0  0  0  0  0  0
  -29.8397  -24.1908   11.9544 C   0  0  0  0  0  0  0  0  0  0  0  0
  -31.7224  -14.8855   23.4969 C   0  0  0  0  0  0  0  0  0  0  0  0
  -32.9801  -19.8420   16.2084 C   0  0  0  0  0  0  0  0  0  0  0  0
  -29.9501  -16.6226   21.5350 C   0  0  0  0  0  0  0  0  0  0  0  0
  -27.2498  -20.5215   23.0494 C   0  0  0  0  0  0  0  0  0  0  0  0
  -26.1060  -18.1038   19.0048 C   0  0  0  0  0  0  0  0  0  0  0  0
  -26.3940  -19.1442   17.9062 C   0  0  0  0  0  0  0  0  0  0  0  0
  -29.5943  -15.3725   22.3482 C   0  0  0  0  0  0  0  0  0  0  0  0
  -27.9630  -21.8158   22.6737 C   0  0  0  0  0  0  0  0  0  1  0  0
  -29.7644  -23.0959   14.2320 C   0  0  1  0  0  0  0  0  0  0  0  0
  -31.9600  -20.0200   13.9355 C   0  0  2  0  0  0  0  0  0  0  0  0
  -25.5122  -18.9929   16.6527 C   0  0  0  0  0  0  0  0  0  0  0  0
  -28.9104  -23.5822   13.0271 C   0  0  0  0  0  0  0  0  0  0  0  0
  -25.9221  -11.6051   20.4390 N   0  0  0  0  0  0  0  0  0  0  0  0
  -28.0210  -17.3945   20.2940 N   0  0  0  0  0  0  0  0  0  0  0  0
  -26.7120  -19.2817   21.0234 N   0  0  0  0  0  0  0  0  0  0  0  0
  -26.2697  -12.8964   20.3056 N   0  0  0  0  0  0  0  0  0  0  0  0
  -30.1864  -24.4370   16.2685 N   0  0  0  0  0  0  0  0  0  0  0  0
  -30.0762  -13.0870   20.6700 N   0  0  0  0  0  0  0  0  0  0  0  0
  -25.4183  -15.1037   20.4239 N   0  0  0  0  0  0  0  0  0  0  0  0
  -21.8213  -12.5467   21.3826 N   0  0  0  0  0  0  0  0  0  0  0  0
  -29.9819  -27.9018   17.3865 N   0  0  0  0  0  0  0  0  0  0  0  0
  -30.7809  -22.1089   13.8842 N   0  0  0  0  0  0  0  0  0  0  0  0
  -30.7367  -14.4752   22.5070 N   0  0  0  0  0  0  0  0  0  0  0  0
  -32.4868  -19.1251   15.0044 N   0  3  0  0  0  0  0  0  0  0  0  0
  -22.5532  -14.7024   21.1069 O   0  0  0  0  0  0  0  0  0  0  0  0
  -28.5410  -26.3918   16.3540 O   0  0  0  0  0  0  0  0  0  0  0  0
  -31.3061  -24.8980   14.2760 O   0  0  0  0  0  0  0  0  0  0  0  0
  -30.0235  -20.4488   15.3151 O   0  0  0  0  0  0  0  0  0  0  0  0
  -32.1522  -12.8706   21.6504 O   0  0  0  0  0  0  0  0  0  0  0  0
  -21.7074   -6.9823   21.6284 O   0  0  0  0  0  0  0  0  0  0  0  0
  -27.5261  -22.2511   21.3869 O   0  0  0  0  0  0  0  0  0  1  0  0
  -18.3410   -6.8488   25.9935 F   0  0  0  0  0  0  0  0  0  0  0  0
  -22.0522   -5.1054   23.6286 F   0  0  0  0  0  0  0  0  0  0  0  0
  1  2  1  0  0  0  0
  1  5  2  0  0  0  0
  2  6  2  0  0  0  0
  3  8  2  0  0  0  0
  3 16  1  0  0  0  0
  4  9  1  0  0  0  0
  4 16  2  0  0  0  0
  5 18  1  0  0  0  0
  6 20  1  0  0  0  0
  7 10  2  0  0  0  0
  7 19  1  0  0  0  0
  8 22  1  0  0  0  0
  9 22  2  0  0  0  0
 10 23  1  0  0  0  0
 11 12  2  0  0  0  0
 11 24  1  0  0  0  0
 12 25  1  0  0  0  0
 13 21  1  0  0  0  0
 13 23  2  0  0  0  0
 14 25  2  0  0  0  0
 14 26  1  0  0  0  0
 15 28  2  0  0  0  0
 15 29  1  0  0  0  0
 16 27  1  0  0  0  0
 17 27  1  0  0  0  0
 17 30  2  0  0  0  0
 17 32  1  0  0  0  0
 18 20  2  0  0  0  0
 18 37  1  0  0  0  0
 19 21  2  0  0  0  0
 19 38  1  0  0  0  0
 20 46  1  0  0  0  0
 21 39  1  0  0  0  0
 22 84  1  0  0  0  0
 23 85  1  0  0  0  0
 24 26  2  0  0  0  0
 24 84  1  0  0  0  0
 25 86  1  0  0  0  0
 26 87  1  0  0  0  0
 27 67  2  0  0  0  0
 28 57  1  0  0  0  0
 28 68  1  0  0  0  0
 29 58  1  0  0  0  0
 29 69  2  0  0  0  0
 30 70  1  0  0  0  0
 30 73  1  0  0  0  0
 31 59  1  0  0  0  0
 31 68  2  0  0  0  0
 31 69  1  0  0  0  0
 32 74  1  0  0  0  0
 32 79  2  0  0  0  0
 33 47  1  0  0  0  0
 33 75  1  0  0  0  0
 33 80  2  0  0  0  0
 34 63  1  0  0  0  0
 34 71  1  0  0  0  0
 34 81  2  0  0  0  0
 35 64  1  0  0  0  0
 35 76  1  0  0  0  0
 35 82  2  0  0  0  0
 36 72  1  0  0  0  0
 36 77  1  0  0  0  0
 36 83  2  0  0  0  0
 37 40  1  0  0  0  0
 38 47  1  0  0  0  0
 39 71  1  0  0  0  0
 40 42  1  0  0  0  0
 41 43  1  0  0  0  0
 41 44  1  0  0  0  0
 42 46  1  0  0  0  0
 43 48  1  0  0  0  0
 44 72  1  0  0  0  0
 45 48  1  0  0  0  0
 45 72  1  0  0  0  0
 46 75  1  0  0  0  0
 47 71  1  0  0  0  0
 48 70  1  0  0  0  0
 49 64  1  0  0  0  0
 50 65  1  0  0  0  0
 51 65  1  0  0  0  0
 52 66  1  0  0  0  0
 53 66  1  0  0  0  0
 54 66  1  0  0  0  0
 55 77  1  0  0  0  0
 56 78  1  0  0  0  0
 57 61  1  0  0  0  0
 58 62  1  0  0  0  0
 59 60  1  0  0  0  0
 60 65  1  0  0  0  0
 61 77  1  0  0  0  0
 62 85  1  0  0  0  0
 63 66  1  0  0  0  0
 63 76  1  0  0  0  0
 64 78  1  0  0  0  0
 67 70  1  0  0  0  0
M  CHG  1  78   1
M  ISO  4  36 100  62 101  77 100  85 101
M  END
> <Batch ID>
0048

> <Smiles>
CNC(C)C(=O)NC(C(=O)N1Cc2cc([101O:1][101CH2:1]Cc3cc(CC[100N:0](C)[100C:0](=O)N4CCCC(n5nc(-c6ccc(Oc7ccc(F)cc7F)cc6)c(C(N)=O)c5N)C4)nc(CCC(C)C)n3)ccc2CC1C(=O)NC1CCCc2ccccc21)C(C)(C)C

> <Shape>
0.234

> <Color>
0.173

> <Negative vol penalty>
0.000

$$$$

  -OEChem-04052317263D

 83 91  0     1  0  0  0  0  0999 V2000
  -32.8542  -24.4936   13.4439 C   0  0  0  0  0  0  0  0  0  0  0  0
  -32.0459  -23.6423   14.1904 C   0  0  0  0  0  0  0  0  0  0  0  0
  -22.9101   -9.9773   20.0645 C   0  0  0  0  0  0  0  0  0  0  0  0
  -23.6300  -10.0910   22.3679 C   0  0  0  0  0  0  0  0  0  0  0  0
  -33.3523  -25.6621   14.0188 C   0  0  0  0  0  0  0  0  0  0  0  0
  -31.7360  -23.9585   15.5127 C   0  0  0  0  0  0  0  0  0  0  0  0
  -26.8358  -23.2571   16.5808 C   0  0  0  0  0  0  0  0  0  0  0  0
  -22.0959   -8.8874   20.3727 C   0  0  0  0  0  0  0  0  0  0  0  0
  -22.8158   -9.0011   22.6762 C   0  0  0  0  0  0  0  0  0  0  0  0
  -26.4137  -21.9470   16.8028 C   0  0  0  0  0  0  0  0  0  0  0  0
  -22.9214   -5.6386   22.3401 C   0  0  0  0  0  0  0  0  0  0  0  0
  -23.4637   -4.6290   23.1353 C   0  0  0  0  0  0  0  0  0  0  0  0
  -26.4970  -22.3299   19.1831 C   0  0  0  0  0  0  0  0  0  0  0  0
  -21.7466   -5.0111   24.7914 C   0  0  0  0  0  0  0  0  0  0  0  0
  -28.8818  -17.7147   18.9187 C   0  0  0  0  0  0  0  0  0  0  0  0
  -23.6772  -10.5790   21.0621 C   0  0  0  0  0  0  0  0  0  0  0  0
  -24.1680  -13.0672   20.7867 C   0  0  0  0  0  0  0  0  0  0  0  0
  -33.0405  -25.9976   15.3457 C   0  0  0  0  0  0  0  0  0  0  0  0
  -27.1026  -24.1115   17.6603 C   0  0  0  0  0  0  0  0  0  0  0  0
  -32.2315  -25.1319   16.1063 C   0  0  0  0  0  0  0  0  0  0  0  0
  -26.9199  -23.6511   18.9721 C   0  0  0  0  0  0  0  0  0  0  0  0
  -22.0488   -8.3994   21.6785 C   0  0  0  0  0  0  0  0  0  0  0  0
  -26.2470  -21.4823   18.1041 C   0  0  0  0  0  0  0  0  0  0  0  0
  -21.7918   -6.3345   22.7706 C   0  0  0  0  0  0  0  0  0  0  0  0
  -22.8762   -4.3152   24.3609 C   0  0  0  0  0  0  0  0  0  0  0  0
  -21.2044   -6.0208   23.9962 C   0  0  0  0  0  0  0  0  0  0  0  0
  -24.5188  -11.7045   20.7442 C   0  0  0  0  0  0  0  0  0  0  0  0
  -27.5024  -17.9402   19.0868 C   0  0  0  0  0  0  0  0  0  0  0  0
  -29.4141  -17.8929   20.1723 C   0  0  0  0  0  0  0  0  0  0  0  0
  -25.3082  -13.7275   20.3987 C   0  0  0  0  0  0  0  0  0  0  0  0
  -22.9230  -13.6812   21.1451 C   0  0  0  0  0  0  0  0  0  0  0  0
  -29.6756  -25.6444   18.7250 C   0  0  0  0  0  0  0  0  0  0  0  0
  -27.5588  -26.9427   20.8121 C   0  0  0  0  0  0  0  0  0  0  0  0
  -24.5818  -26.6790   22.4597 C   0  0  0  0  0  0  0  0  0  0  0  0
  -30.8381  -14.4411   20.6348 C   0  0  0  0  0  0  0  0  0  0  0  0
  -33.6410  -27.2476   15.9387 C   0  0  0  0  0  0  0  0  0  0  0  0
  -27.5315  -25.5302   17.4037 C   0  0  0  0  0  0  0  0  0  0  0  0
  -27.1734  -24.5347   20.1652 C   0  0  0  0  0  0  0  0  0  0  0  0
  -32.9592  -27.6984   17.2280 C   0  0  0  0  0  0  0  0  0  0  0  0
  -29.6038  -11.9744   18.3835 C   0  0  0  0  0  0  0  0  0  0  0  0
  -32.7604  -26.5144   18.1690 C   0  0  0  0  0  0  0  0  0  0  0  0
  -28.1445  -11.7924   18.8045 C   0  0  0  0  0  0  0  0  0  0  0  0
  -30.5117  -12.2206   19.5864 C   0  0  0  0  0  0  0  0  0  0  0  0
  -28.6327  -13.1486   20.8833 C   0  0  0  0  0  0  0  0  0  0  0  0
  -31.8528  -25.4529   17.5359 C   0  0  1  0  0  0  0  0  0  0  0  0
  -28.2692  -26.1542   18.5843 C   0  0  1  0  0  0  0  0  0  0  0  0
  -27.6701  -12.9533   19.6994 C   0  0  2  0  0  0  0  0  0  0  0  0
  -23.1402  -27.8783   24.1273 C   0  0  0  0  0  0  0  0  0  0  0  0
  -31.4028  -19.1062   21.2991 C   0  0  0  0  0  0  0  0  0  0  0  0
  -31.7878  -17.4622   19.4812 C   0  0  0  0  0  0  0  0  0  0  0  0
  -29.4137  -26.0407   23.0607 C   0  0  0  0  0  0  0  0  0  0  0  0
  -27.5253  -26.3944   24.6661 C   0  0  0  0  0  0  0  0  0  0  0  0
  -28.4339  -28.3211   23.3680 C   0  0  0  0  0  0  0  0  0  0  0  0
  -28.4109  -18.4795   22.4002 C   0  0  0  0  0  0  0  0  0  0  0  0
  -22.3611  -26.9463   20.5217 C   0  0  0  0  0  0  0  0  0  0  0  0
  -26.4253  -17.8802   18.0312 C   0  0  0  0  0  0  0  0  0  0  0  0
  -31.0085  -16.6608   21.7317 C   0  0  0  0  0  0  0  0  0  0  0  0
  -26.2045  -19.2269   17.3509 C   0  0  0  0  0  0  0  0  0  1  0  0
  -27.0448  -26.5727   22.1825 C   0  0  1  0  0  0  0  0  0  0  0  0
  -23.4462  -27.6678   22.6526 C   0  0  2  0  0  0  0  0  0  0  0  0
  -30.8032  -17.7976   20.6570 C   0  0  0  0  0  0  0  0  0  0  0  0
  -28.1014  -26.8147   23.2971 C   0  0  0  0  0  0  0  0  0  0  0  0
  -25.7828  -11.5092   20.3593 N   0  0  0  0  0  0  0  0  0  0  0  0
  -27.1787  -18.2388   20.3478 N   0  0  0  0  0  0  0  0  0  0  0  0
  -28.3622  -18.2020   20.9835 N   0  0  0  0  0  0  0  0  0  0  0  0
  -26.2363  -12.7579   20.1564 N   0  0  0  0  0  0  0  0  0  0  0  0
  -27.5973  -25.9118   19.8626 N   0  0  0  0  0  0  0  0  0  0  0  0
  -30.0072  -13.3348   20.3927 N   0  0  0  0  0  0  0  0  0  0  0  0
  -25.5973  -15.0371   20.2444 N   0  0  0  0  0  0  0  0  0  0  0  0
  -21.8540  -12.8555   21.5192 N   0  0  0  0  0  0  0  0  0  0  0  0
  -30.4667  -25.8619   17.6131 N   0  0  0  0  0  0  0  0  0  0  0  0
  -25.8019  -27.3144   22.3662 N   0  0  0  0  0  0  0  0  0  0  0  0
  -30.2801  -15.4559   21.4026 N   0  0  0  0  0  0  0  0  0  0  0  0
  -22.2102  -27.1744   21.9819 N   0  3  0  0  0  0  0  0  0  0  0  0
  -22.7581  -14.9244   21.1181 O   0  0  0  0  0  0  0  0  0  0  0  0
  -30.0181  -25.0959   19.7659 O   0  0  0  0  0  0  0  0  0  0  0  0
  -27.9065  -28.1052   20.5902 O   0  0  0  0  0  0  0  0  0  0  0  0
  -24.4046  -25.4641   22.4018 O   0  0  0  0  0  0  0  0  0  0  0  0
  -31.9899  -14.5212   20.1945 O   0  0  0  0  0  0  0  0  0  0  0  0
  -21.2542   -7.3361   21.9797 O   0  0  0  0  0  0  0  0  0  0  0  0
  -25.8357  -20.2038   18.3235 O   0  0  0  0  0  0  0  0  0  1  0  0
  -23.3961   -3.3446   25.1236 F   0  0  0  0  0  0  0  0  0  0  0  0
  -20.1183   -6.6851   24.4146 F   0  0  0  0  0  0  0  0  0  0  0  0
  1  2  1  0  0  0  0
  1  5  2  0  0  0  0
  2  6  2  0  0  0  0
  3  8  2  0  0  0  0
  3 16  1  0  0  0  0
  4  9  1  0  0  0  0
  4 16  2  0  0  0  0
  5 18  1  0  0  0  0
  6 20  1  0  0  0  0
  7 10  2  0  0  0  0
  7 19  1  0  0  0  0
  8 22  1  0  0  0  0
  9 22  2  0  0  0  0
 10 23  1  0  0  0  0
 11 12  2  0  0  0  0
 11 24  1  0  0  0  0
 12 25  1  0  0  0  0
 13 21  1  0  0  0  0
 13 23  2  0  0  0  0
 14 25  2  0  0  0  0
 14 26  1  0  0  0  0
 15 28  1  0  0  0  0
 15 29  2  0  0  0  0
 16 27  1  0  0  0  0
 17 27  1  0  0  0  0
 17 30  2  0  0  0  0
 17 31  1  0  0  0  0
 18 20  2  0  0  0  0
 18 36  1  0  0  0  0
 19 21  2  0  0  0  0
 19 37  1  0  0  0  0
 20 45  1  0  0  0  0
 21 38  1  0  0  0  0
 22 80  1  0  0  0  0
 23 81  1  0  0  0  0
 24 26  2  0  0  0  0
 24 80  1  0  0  0  0
 25 82  1  0  0  0  0
 26 83  1  0  0  0  0
 27 63  2  0  0  0  0
 28 56  1  0  0  0  0
 28 64  2  0  0  0  0
 29 61  1  0  0  0  0
 29 65  1  0  0  0  0
 30 66  1  0  0  0  0
 30 69  1  0  0  0  0
 31 70  1  0  0  0  0
 31 75  2  0  0  0  0
 32 46  1  0  0  0  0
 32 71  1  0  0  0  0
 32 76  2  0  0  0  0
 33 59  1  0  0  0  0
 33 67  1  0  0  0  0
 33 77  2  0  0  0  0
 34 60  1  0  0  0  0
 34 72  1  0  0  0  0
 34 78  2  0  0  0  0
 35 68  1  0  0  0  0
 35 73  1  0  0  0  0
 35 79  2  0  0  0  0
 36 39  1  0  0  0  0
 37 46  1  0  0  0  0
 38 67  1  0  0  0  0
 39 41  1  0  0  0  0
 40 42  1  0  0  0  0
 40 43  1  0  0  0  0
 41 45  1  0  0  0  0
 42 47  1  0  0  0  0
 43 68  1  0  0  0  0
 44 47  1  0  0  0  0
 44 68  1  0  0  0  0
 45 71  1  0  0  0  0
 46 67  1  0  0  0  0
 47 66  1  0  0  0  0
 48 60  1  0  0  0  0
 49 61  1  0  0  0  0
 50 61  1  0  0  0  0
 51 62  1  0  0  0  0
 52 62  1  0  0  0  0
 53 62  1  0  0  0  0
 54 65  1  0  0  0  0
 55 74  1  0  0  0  0
 56 58  1  0  0  0  0
 57 61  1  0  0  0  0
 57 73  1  0  0  0  0
 58 81  1  0  0  0  0
 59 62  1  0  0  0  0
 59 72  1  0  0  0  0
 60 74  1  0  0  0  0
 63 66  1  0  0  0  0
 64 65  1  0  0  0  0
M  CHG  1  74   1
M  ISO  4  35 100  58 101  73 100  81 101
M  END
> <Batch ID>
0048

> <Smiles>
CNC(C)C(=O)NC(C(=O)N1Cc2cc([101O:1][101CH2:1]Cc3cc(C(C)(C)C[100NH:0][100C:0](=O)N4CCCC(n5nc(-c6ccc(Oc7ccc(F)cc7F)cc6)c(C(N)=O)c5N)C4)n(C)n3)ccc2CC1C(=O)NC1CCCc2ccccc21)C(C)(C)C

> <Shape>
0.270

> <Color>
0.204

> <Negative vol penalty>
0.000

$$$$

  -OEChem-04052317263D

 85 93  0     1  0  0  0  0  0999 V2000
  -18.2967  -17.3136   25.8802 C   0  0  0  0  0  0  0  0  0  0  0  0
  -19.1577  -16.2883   25.5024 C   0  0  0  0  0  0  0  0  0  0  0  0
  -23.1455   -9.8474   19.9326 C   0  0  0  0  0  0  0  0  0  0  0  0
  -23.6423   -9.9824   22.2931 C   0  0  0  0  0  0  0  0  0  0  0  0
  -18.8148  -18.5202   26.3490 C   0  0  0  0  0  0  0  0  0  0  0  0
  -20.5374  -16.4693   25.5920 C   0  0  0  0  0  0  0  0  0  0  0  0
  -24.7229  -12.2278   27.0054 C   0  0  0  0  0  0  0  0  0  0  0  0
  -22.3867   -8.6989   20.1579 C   0  0  0  0  0  0  0  0  0  0  0  0
  -22.8834   -8.8339   22.5184 C   0  0  0  0  0  0  0  0  0  0  0  0
  -25.5706  -11.4482   26.2197 C   0  0  0  0  0  0  0  0  0  0  0  0
  -23.2597   -5.4918   22.1728 C   0  0  0  0  0  0  0  0  0  0  0  0
  -23.7979   -4.5130   23.0081 C   0  0  0  0  0  0  0  0  0  0  0  0
  -27.3440  -13.0486   26.5556 C   0  0  0  0  0  0  0  0  0  0  0  0
  -21.9139   -4.7517   24.5017 C   0  0  0  0  0  0  0  0  0  0  0  0
  -33.1954  -12.5041   24.3024 C   0  0  0  0  0  0  0  0  0  0  0  0
  -23.7734  -10.4892   21.0002 C   0  0  0  0  0  0  0  0  0  0  0  0
  -24.1080  -13.0091   20.7865 C   0  0  0  0  0  0  0  0  0  0  0  0
  -20.2014  -18.7126   26.4535 C   0  0  0  0  0  0  0  0  0  0  0  0
  -25.1769  -13.4313   27.5641 C   0  0  0  0  0  0  0  0  0  0  0  0
  -21.0746  -17.6801   26.0613 C   0  0  0  0  0  0  0  0  0  0  0  0
  -26.5009  -13.8404   27.3501 C   0  0  0  0  0  0  0  0  0  0  0  0
  -22.2557   -8.1922   21.4508 C   0  0  0  0  0  0  0  0  0  0  0  0
  -26.8805  -11.8599   25.9923 C   0  0  0  0  0  0  0  0  0  0  0  0
  -22.0486   -6.1006   22.5019 C   0  0  0  0  0  0  0  0  0  0  0  0
  -23.1250   -4.1429   24.1726 C   0  0  0  0  0  0  0  0  0  0  0  0
  -21.3757   -5.7305   23.6663 C   0  0  0  0  0  0  0  0  0  0  0  0
  -24.5578  -11.6753   20.7679 C   0  0  0  0  0  0  0  0  0  0  0  0
  -32.0576  -10.7406   24.6575 C   0  0  0  0  0  0  0  0  0  0  0  0
  -32.4337  -10.6756   23.3366 C   0  0  0  0  0  0  0  0  0  0  0  0
  -25.2285  -13.7532   20.5090 C   0  0  0  0  0  0  0  0  0  0  0  0
  -22.7946  -13.5289   21.0327 C   0  0  0  0  0  0  0  0  0  0  0  0
  -24.3530  -16.4880   27.2795 C   0  0  0  0  0  0  0  0  0  0  0  0
  -26.5217  -16.8903   29.6580 C   0  0  0  0  0  0  0  0  0  0  0  0
  -29.2815  -15.7218   31.2905 C   0  0  0  0  0  0  0  0  0  0  0  0
  -30.7187  -13.9736   21.5327 C   0  0  0  0  0  0  0  0  0  0  0  0
  -20.7153  -20.0512   26.9212 C   0  0  0  0  0  0  0  0  0  0  0  0
  -24.2581  -14.2474   28.4313 C   0  0  0  0  0  0  0  0  0  0  0  0
  -27.0431  -15.1139   27.9439 C   0  0  0  0  0  0  0  0  0  0  0  0
  -22.1832  -20.0278   27.3395 C   0  0  0  0  0  0  0  0  0  0  0  0
  -29.5879  -12.8487   18.3819 C   0  0  0  0  0  0  0  0  0  0  0  0
  -23.0225  -19.2906   26.3008 C   0  0  0  0  0  0  0  0  0  0  0  0
  -28.1186  -12.5500   18.6766 C   0  0  0  0  0  0  0  0  0  0  0  0
  -30.5024  -12.4258   19.5330 C   0  0  0  0  0  0  0  0  0  0  0  0
  -28.6397  -12.6867   21.1407 C   0  0  0  0  0  0  0  0  0  0  0  0
  -22.5768  -17.8294   26.1675 C   0  0  1  0  0  0  0  0  0  0  0  0
  -24.6716  -15.7128   28.5265 C   0  0  1  0  0  0  0  0  0  0  0  0
  -27.6936  -13.1569   20.0251 C   0  0  2  0  0  0  0  0  0  0  0  0
  -32.1782   -9.6700   22.2899 C   0  0  0  0  0  0  0  0  0  0  0  0
  -34.0193  -17.1380   20.3305 C   0  0  0  0  0  0  0  0  0  0  0  0
  -30.8447  -16.2871   33.1704 C   0  0  0  0  0  0  0  0  0  0  0  0
  -27.8760  -18.9837   27.8992 C   0  0  0  0  0  0  0  0  0  0  0  0
  -29.8950  -18.8118   29.3697 C   0  0  0  0  0  0  0  0  0  0  0  0
  -27.7252  -19.5943   30.3196 C   0  0  0  0  0  0  0  0  0  0  0  0
  -28.5753  -13.2593   32.7724 C   0  0  0  0  0  0  0  0  0  0  0  0
  -31.2361   -9.7543   25.4486 C   0  0  0  0  0  0  0  0  0  0  0  0
  -33.1496  -15.8940   20.2141 C   0  0  0  0  0  0  0  0  0  0  0  0
  -29.7371   -9.8203   25.1483 C   0  0  0  0  0  0  0  0  0  0  0  0
  -33.7891  -12.2221   21.8896 C   0  0  0  0  0  0  0  0  0  0  0  0
  -32.9327  -15.1995   21.5532 C   0  0  0  0  0  0  0  0  0  0  0  0
  -32.8046  -12.8263   20.8917 C   0  0  0  0  0  0  0  0  0  0  0  0
  -29.1034  -11.1537   25.5277 C   0  0  0  0  0  0  0  0  0  1  0  0
  -28.0067  -17.1551   29.7172 C   0  0  1  0  0  0  0  0  0  0  0  0
  -29.5785  -15.5468   32.7688 C   0  0  2  0  0  0  0  0  0  0  0  0
  -28.3652  -18.6132   29.3135 C   0  0  0  0  0  0  0  0  0  0  0  0
  -32.5346  -11.8814   25.2530 N   0  0  0  0  0  0  0  0  0  0  0  0
  -25.8624  -11.5748   20.4997 N   0  0  0  0  0  0  0  0  0  0  0  0
  -33.1616  -11.8123   23.1237 N   0  0  0  0  0  0  0  0  0  0  0  0
  -26.2419  -12.8549   20.3470 N   0  0  0  0  0  0  0  0  0  0  0  0
  -26.1041  -15.8806   28.7794 N   0  0  0  0  0  0  0  0  0  0  0  0
  -30.0341  -12.9874   20.8074 N   0  0  0  0  0  0  0  0  0  0  0  0
  -25.4360  -15.0819   20.3901 N   0  0  0  0  0  0  0  0  0  0  0  0
  -21.7579  -12.6250   21.3018 N   0  0  0  0  0  0  0  0  0  0  0  0
  -23.0874  -17.0426   27.2696 N   0  0  0  0  0  0  0  0  0  0  0  0
  -28.4340  -16.7853   31.0622 N   0  0  0  0  0  0  0  0  0  0  0  0
  -32.1177  -13.9927   21.4284 N   0  0  0  0  0  0  0  0  0  0  0  0
  -29.7548  -14.1032   33.0943 N   0  3  0  0  0  0  0  0  0  0  0  0
  -22.5444  -14.7576   20.9984 O   0  0  0  0  0  0  0  0  0  0  0  0
  -25.1938  -16.5777   26.3925 O   0  0  0  0  0  0  0  0  0  0  0  0
  -25.7609  -17.5499   30.3705 O   0  0  0  0  0  0  0  0  0  0  0  0
  -29.7570  -14.9908   30.4244 O   0  0  0  0  0  0  0  0  0  0  0  0
  -30.1146  -14.7886   22.2420 O   0  0  0  0  0  0  0  0  0  0  0  0
  -21.5151   -7.0717   21.6711 O   0  0  0  0  0  0  0  0  0  0  0  0
  -27.7098  -11.1011   25.2253 O   0  0  0  0  0  0  0  0  0  1  0  0
  -23.6413   -3.2019   24.9739 F   0  0  0  0  0  0  0  0  0  0  0  0
  -20.2113   -6.3110   23.9872 F   0  0  0  0  0  0  0  0  0  0  0  0
  1  2  1  0  0  0  0
  1  5  2  0  0  0  0
  2  6  2  0  0  0  0
  3  8  2  0  0  0  0
  3 16  1  0  0  0  0
  4  9  1  0  0  0  0
  4 16  2  0  0  0  0
  5 18  1  0  0  0  0
  6 20  1  0  0  0  0
  7 10  2  0  0  0  0
  7 19  1  0  0  0  0
  8 22  1  0  0  0  0
  9 22  2  0  0  0  0
 10 23  1  0  0  0  0
 11 12  2  0  0  0  0
 11 24  1  0  0  0  0
 12 25  1  0  0  0  0
 13 21  1  0  0  0  0
 13 23  2  0  0  0  0
 14 25  2  0  0  0  0
 14 26  1  0  0  0  0
 15 65  2  0  0  0  0
 15 67  1  0  0  0  0
 16 27  1  0  0  0  0
 17 27  1  0  0  0  0
 17 30  2  0  0  0  0
 17 31  1  0  0  0  0
 18 20  2  0  0  0  0
 18 36  1  0  0  0  0
 19 21  2  0  0  0  0
 19 37  1  0  0  0  0
 20 45  1  0  0  0  0
 21 38  1  0  0  0  0
 22 82  1  0  0  0  0
 23 83  1  0  0  0  0
 24 26  2  0  0  0  0
 24 82  1  0  0  0  0
 25 84  1  0  0  0  0
 26 85  1  0  0  0  0
 27 66  2  0  0  0  0
 28 29  2  0  0  0  0
 28 55  1  0  0  0  0
 28 65  1  0  0  0  0
 29 48  1  0  0  0  0
 29 67  1  0  0  0  0
 30 68  1  0  0  0  0
 30 71  1  0  0  0  0
 31 72  1  0  0  0  0
 31 77  2  0  0  0  0
 32 46  1  0  0  0  0
 32 73  1  0  0  0  0
 32 78  2  0  0  0  0
 33 62  1  0  0  0  0
 33 69  1  0  0  0  0
 33 79  2  0  0  0  0
 34 63  1  0  0  0  0
 34 74  1  0  0  0  0
 34 80  2  0  0  0  0
 35 70  1  0  0  0  0
 35 75  1  0  0  0  0
 35 81  2  0  0  0  0
 36 39  1  0  0  0  0
 37 46  1  0  0  0  0
 38 69  1  0  0  0  0
 39 41  1  0  0  0  0
 40 42  1  0  0  0  0
 40 43  1  0  0  0  0
 41 45  1  0  0  0  0
 42 47  1  0  0  0  0
 43 70  1  0  0  0  0
 44 47  1  0  0  0  0
 44 70  1  0  0  0  0
 45 73  1  0  0  0  0
 46 69  1  0  0  0  0
 47 68  1  0  0  0  0
 49 56  1  0  0  0  0
 50 63  1  0  0  0  0
 51 64  1  0  0  0  0
 52 64  1  0  0  0  0
 53 64  1  0  0  0  0
 54 76  1  0  0  0  0
 55 57  1  0  0  0  0
 56 59  1  0  0  0  0
 57 61  1  0  0  0  0
 58 60  1  0  0  0  0
 58 67  1  0  0  0  0
 59 75  1  0  0  0  0
 60 75  1  0  0  0  0
 61 83  1  0  0  0  0
 62 64  1  0  0  0  0
 62 74  1  0  0  0  0
 63 76  1  0  0  0  0
 66 68  1  0  0  0  0
M  CHG  1  76   1
M  ISO  4  35 100  61 101  75 100  83 101
M  END
> <Batch ID>
0048

> <Smiles>
CCC[100N:0](CCn1cnc(CC[101CH2:1][101O:1]c2ccc3c(c2)CN(C(=O)C(NC(=O)C(C)NC)C(C)(C)C)C(C(=O)NC2CCCc4ccccc42)C3)c1C)[100C:0](=O)N1CCCC(n2nc(-c3ccc(Oc4ccc(F)cc4F)cc3)c(C(N)=O)c2N)C1

> <Shape>
0.152

> <Color>
0.180

> <Negative vol penalty>
0.000

$$$$

  -OEChem-04052317263D

 84 92  0     1  0  0  0  0  0999 V2000
  -28.4889  -34.6004   25.3721 C   0  0  0  0  0  0  0  0  0  0  0  0
  -29.1497  -33.4867   24.8637 C   0  0  0  0  0  0  0  0  0  0  0  0
  -24.1114   -9.0910   21.7079 C   0  0  0  0  0  0  0  0  0  0  0  0
  -23.9067  -10.9824   23.1971 C   0  0  0  0  0  0  0  0  0  0  0  0
  -27.1050  -34.5724   25.5391 C   0  0  0  0  0  0  0  0  0  0  0  0
  -28.4270  -32.3439   24.5229 C   0  0  0  0  0  0  0  0  0  0  0  0
  -28.4291  -26.9291   19.8329 C   0  0  0  0  0  0  0  0  0  0  0  0
  -23.5890   -8.2565   22.6959 C   0  0  0  0  0  0  0  0  0  0  0  0
  -23.3843  -10.1479   24.1852 C   0  0  0  0  0  0  0  0  0  0  0  0
  -28.3739  -25.5365   19.7956 C   0  0  0  0  0  0  0  0  0  0  0  0
  -21.9729   -5.6905   24.7006 C   0  0  0  0  0  0  0  0  0  0  0  0
  -20.9988   -4.7670   24.3211 C   0  0  0  0  0  0  0  0  0  0  0  0
  -25.9771  -25.6307   20.0527 C   0  0  0  0  0  0  0  0  0  0  0  0
  -19.5732   -6.5733   23.5850 C   0  0  0  0  0  0  0  0  0  0  0  0
  -27.2988  -20.6028   18.8175 C   0  0  0  0  0  0  0  0  0  0  0  0
  -24.2703  -10.4540   21.9585 C   0  0  0  0  0  0  0  0  0  0  0  0
  -24.0931  -12.0172   19.9503 C   0  0  0  0  0  0  0  0  0  0  0  0
  -26.3638  -33.4322   25.1911 C   0  0  0  0  0  0  0  0  0  0  0  0
  -27.2580  -27.6839   19.9916 C   0  0  0  0  0  0  0  0  0  0  0  0
  -27.0320  -32.3002   24.6866 C   0  0  0  0  0  0  0  0  0  0  0  0
  -26.0199  -27.0328   20.0891 C   0  0  0  0  0  0  0  0  0  0  0  0
  -23.2254   -8.7849   23.9345 C   0  0  0  0  0  0  0  0  0  0  0  0
  -27.1481  -24.8870   19.9084 C   0  0  0  0  0  0  0  0  0  0  0  0
  -21.7471   -7.0554   24.5223 C   0  0  0  0  0  0  0  0  0  0  0  0
  -19.7990   -5.2084   23.7633 C   0  0  0  0  0  0  0  0  0  0  0  0
  -20.5472   -7.4968   23.9645 C   0  0  0  0  0  0  0  0  0  0  0  0
  -24.8104  -11.3165   20.9384 C   0  0  0  0  0  0  0  0  0  0  0  0
  -28.0532  -21.3554   19.6727 C   0  0  0  0  0  0  0  0  0  0  0  0
  -25.0569  -12.6854   19.2354 C   0  0  0  0  0  0  0  0  0  0  0  0
  -28.1886  -19.2429   20.3206 C   0  0  0  0  0  0  0  0  0  0  0  0
  -22.6819  -12.0602   19.7010 C   0  0  0  0  0  0  0  0  0  0  0  0
  -26.1813  -29.7202   22.1820 C   0  0  0  0  0  0  0  0  0  0  0  0
  -23.7626  -30.1202   20.0578 C   0  0  0  0  0  0  0  0  0  0  0  0
  -21.9439  -28.8488   17.4650 C   0  0  0  0  0  0  0  0  0  0  0  0
  -30.5735  -14.5705   20.6009 C   0  0  0  0  0  0  0  0  0  0  0  0
  -24.8752  -33.4320   25.4338 C   0  0  0  0  0  0  0  0  0  0  0  0
  -27.3316  -29.1862   20.0031 C   0  0  0  0  0  0  0  0  0  0  0  0
  -24.7314  -27.7978   20.2407 C   0  0  0  0  0  0  0  0  0  0  0  0
  -24.1381  -32.3165   24.6972 C   0  0  0  0  0  0  0  0  0  0  0  0
  -29.6555  -12.3760   17.9517 C   0  0  0  0  0  0  0  0  0  0  0  0
  -24.8666  -30.9880   24.8739 C   0  0  0  0  0  0  0  0  0  0  0  0
  -28.2450  -11.9189   18.3276 C   0  0  0  0  0  0  0  0  0  0  0  0
  -30.5430  -12.5390   19.1837 C   0  0  0  0  0  0  0  0  0  0  0  0
  -28.5776  -12.9541   20.6115 C   0  0  0  0  0  0  0  0  0  0  0  0
  -26.2799  -31.0508   24.2821 C   0  0  1  0  0  0  0  0  0  0  0  0
  -26.1326  -29.8380   20.6848 C   0  0  1  0  0  0  0  0  0  0  0  0
  -27.6293  -12.8297   19.4068 C   0  0  2  0  0  0  0  0  0  0  0  0
  -20.0067  -29.3914   15.9650 C   0  0  0  0  0  0  0  0  0  0  0  0
  -21.8283  -29.4913   22.3322 C   0  0  0  0  0  0  0  0  0  0  0  0
  -20.0442  -29.1125   20.6171 C   0  0  0  0  0  0  0  0  0  0  0  0
  -21.1057  -31.3594   20.8347 C   0  0  0  0  0  0  0  0  0  0  0  0
  -25.9321  -18.6433   17.3951 C   0  0  0  0  0  0  0  0  0  0  0  0
  -25.8207  -17.4684   19.6283 C   0  0  0  0  0  0  0  0  0  0  0  0
  -27.7377  -17.0872   18.0956 C   0  0  0  0  0  0  0  0  0  0  0  0
  -23.6386  -28.7337   15.0415 C   0  0  0  0  0  0  0  0  0  0  0  0
  -28.3265  -22.8300   19.7179 C   0  0  0  0  0  0  0  0  0  1  0  0
  -28.5605  -18.0296   21.0903 C   0  0  0  0  0  0  0  0  0  0  0  0
  -30.0807  -17.7959   21.2317 C   0  0  0  0  0  0  0  0  0  0  0  0
  -30.4507  -16.5707   22.0649 C   0  0  0  0  0  0  0  0  0  0  0  0
  -22.4272  -29.4572   19.8210 C   0  0  1  0  0  0  0  0  0  0  0  0
  -21.5158  -29.4565   16.1415 C   0  0  2  0  0  0  0  0  0  0  0  0
  -21.3757  -29.8403   20.9004 C   0  0  0  0  0  0  0  0  0  0  0  0
  -26.7537  -18.1655   18.6131 C   0  0  0  0  0  0  0  0  0  0  0  0
  -26.1281  -11.5205   20.8612 N   0  0  0  0  0  0  0  0  0  0  0  0
  -27.4011  -19.2999   19.2417 N   0  0  0  0  0  0  0  0  0  0  0  0
  -26.2465  -12.3569   19.8159 N   0  0  0  0  0  0  0  0  0  0  0  0
  -28.5918  -20.4883   20.5926 N   0  3  0  0  0  0  0  0  0  0  0  0
  -24.8562  -29.2647   20.2528 N   0  0  0  0  0  0  0  0  0  0  0  0
  -29.9024  -13.4153   20.1674 N   0  0  0  0  0  0  0  0  0  0  0  0
  -24.9943  -13.5161   18.1730 N   0  0  0  0  0  0  0  0  0  0  0  0
  -21.8338  -11.3142   20.5307 N   0  0  0  0  0  0  0  0  0  0  0  0
  -26.2298  -30.9341   22.8405 N   0  0  0  0  0  0  0  0  0  0  0  0
  -22.0368  -29.8010   18.4580 N   0  0  0  0  0  0  0  0  0  0  0  0
  -29.8931  -15.3488   21.5293 N   0  0  0  0  0  0  0  0  0  0  0  0
  -22.1534  -28.7296   15.0074 N   0  3  0  0  0  0  0  0  0  0  0  0
  -22.1890  -12.7271   18.7598 O   0  0  0  0  0  0  0  0  0  0  0  0
  -26.1739  -28.6103   22.7013 O   0  0  0  0  0  0  0  0  0  0  0  0
  -23.8341  -31.3517   20.0622 O   0  0  0  0  0  0  0  0  0  0  0  0
  -22.1694  -27.6487   17.6051 O   0  0  0  0  0  0  0  0  0  0  0  0
  -31.6937  -14.8879   20.1868 O   0  0  0  0  0  0  0  0  0  0  0  0
  -22.7154   -7.9709   24.8988 O   0  0  0  0  0  0  0  0  0  0  0  0
  -27.0914  -23.5278   19.8729 O   0  0  0  0  0  0  0  0  0  1  0  0
  -18.8643   -4.3214   23.3975 F   0  0  0  0  0  0  0  0  0  0  0  0
  -20.3251   -8.8067   23.7897 F   0  0  0  0  0  0  0  0  0  0  0  0
  1  2  1  0  0  0  0
  1  5  2  0  0  0  0
  2  6  2  0  0  0  0
  3  8  2  0  0  0  0
  3 16  1  0  0  0  0
  4  9  1  0  0  0  0
  4 16  2  0  0  0  0
  5 18  1  0  0  0  0
  6 20  1  0  0  0  0
  7 10  2  0  0  0  0
  7 19  1  0  0  0  0
  8 22  1  0  0  0  0
  9 22  2  0  0  0  0
 10 23  1  0  0  0  0
 11 12  2  0  0  0  0
 11 24  1  0  0  0  0
 12 25  1  0  0  0  0
 13 21  1  0  0  0  0
 13 23  2  0  0  0  0
 14 25  2  0  0  0  0
 14 26  1  0  0  0  0
 15 28  2  0  0  0  0
 15 65  1  0  0  0  0
 16 27  1  0  0  0  0
 17 27  1  0  0  0  0
 17 29  2  0  0  0  0
 17 31  1  0  0  0  0
 18 20  2  0  0  0  0
 18 36  1  0  0  0  0
 19 21  2  0  0  0  0
 19 37  1  0  0  0  0
 20 45  1  0  0  0  0
 21 38  1  0  0  0  0
 22 81  1  0  0  0  0
 23 82  1  0  0  0  0
 24 26  2  0  0  0  0
 24 81  1  0  0  0  0
 25 83  1  0  0  0  0
 26 84  1  0  0  0  0
 27 64  2  0  0  0  0
 28 56  1  0  0  0  0
 28 67  1  0  0  0  0
 29 66  1  0  0  0  0
 29 70  1  0  0  0  0
 30 57  1  0  0  0  0
 30 65  1  0  0  0  0
 30 67  2  0  0  0  0
 31 71  1  0  0  0  0
 31 76  2  0  0  0  0
 32 46  1  0  0  0  0
 32 72  1  0  0  0  0
 32 77  2  0  0  0  0
 33 60  1  0  0  0  0
 33 68  1  0  0  0  0
 33 78  2  0  0  0  0
 34 61  1  0  0  0  0
 34 73  1  0  0  0  0
 34 79  2  0  0  0  0
 35 69  1  0  0  0  0
 35 74  1  0  0  0  0
 35 80  2  0  0  0  0
 36 39  1  0  0  0  0
 37 46  1  0  0  0  0
 38 68  1  0  0  0  0
 39 41  1  0  0  0  0
 40 42  1  0  0  0  0
 40 43  1  0  0  0  0
 41 45  1  0  0  0  0
 42 47  1  0  0  0  0
 43 69  1  0  0  0  0
 44 47  1  0  0  0  0
 44 69  1  0  0  0  0
 45 72  1  0  0  0  0
 46 68  1  0  0  0  0
 47 66  1  0  0  0  0
 48 61  1  0  0  0  0
 49 62  1  0  0  0  0
 50 62  1  0  0  0  0
 51 62  1  0  0  0  0
 52 63  1  0  0  0  0
 53 63  1  0  0  0  0
 54 63  1  0  0  0  0
 55 75  1  0  0  0  0
 56 82  1  0  0  0  0
 57 58  1  0  0  0  0
 58 59  1  0  0  0  0
 59 74  1  0  0  0  0
 60 62  1  0  0  0  0
 60 73  1  0  0  0  0
 61 75  1  0  0  0  0
 63 65  1  0  0  0  0
 64 66  1  0  0  0  0
M  CHG  2  67   1  75   1
M  ISO  4  35 100  56 101  74 100  82 101
M  END
> <Batch ID>
0048

> <Smiles>
CNC(C)C(=O)NC(C(=O)N1Cc2cc([101O:1][101CH2:1]c3cn(C(C)(C)C)c(CCC[100NH:0][100C:0](=O)N4CCCC(n5nc(-c6ccc(Oc7ccc(F)cc7F)cc6)c(C(N)=O)c5N)C4)n3)ccc2CC1C(=O)NC1CCCc2ccccc21)C(C)(C)C

> <Shape>
0.338

> <Color>
0.083

> <Negative vol penalty>
0.000

$$$$

  -OEChem-04052317263D

 86 94  0     1  0  0  0  0  0999 V2000
  -27.2473  -32.1882   14.2734 C   0  0  0  0  0  0  0  0  0  0  0  0
  -27.5116  -31.1890   15.2046 C   0  0  0  0  0  0  0  0  0  0  0  0
  -22.8352  -10.1599   20.0475 C   0  0  0  0  0  0  0  0  0  0  0  0
  -23.6704  -10.0560   22.3122 C   0  0  0  0  0  0  0  0  0  0  0  0
  -26.8931  -33.4658   14.7052 C   0  0  0  0  0  0  0  0  0  0  0  0
  -27.4229  -31.4669   16.5681 C   0  0  0  0  0  0  0  0  0  0  0  0
  -24.9761  -27.8504   19.1330 C   0  0  0  0  0  0  0  0  0  0  0  0
  -22.0052   -9.0685   20.3035 C   0  0  0  0  0  0  0  0  0  0  0  0
  -22.8404   -8.9646   22.5682 C   0  0  0  0  0  0  0  0  0  0  0  0
  -25.6849  -26.6856   19.4239 C   0  0  0  0  0  0  0  0  0  0  0  0
  -22.8297   -5.6420   21.9426 C   0  0  0  0  0  0  0  0  0  0  0  0
  -23.3801   -4.5541   22.6201 C   0  0  0  0  0  0  0  0  0  0  0  0
  -27.4529  -22.3952   21.5396 C   0  0  0  0  0  0  0  0  0  0  0  0
  -26.0784  -27.4916   21.6633 C   0  0  0  0  0  0  0  0  0  0  0  0
  -21.7585   -4.8352   24.3889 C   0  0  0  0  0  0  0  0  0  0  0  0
  -28.4308  -21.4344   21.6734 C   0  0  0  0  0  0  0  0  0  0  0  0
  -29.0086  -22.7410   19.9490 C   0  0  0  0  0  0  0  0  0  0  0  0
  -23.6679  -10.6537   21.0518 C   0  0  0  0  0  0  0  0  0  0  0  0
  -24.2182  -13.1431   20.9641 C   0  0  0  0  0  0  0  0  0  0  0  0
  -26.7906  -33.7570   16.0746 C   0  0  0  0  0  0  0  0  0  0  0  0
  -24.8221  -28.8510   20.1032 C   0  0  0  0  0  0  0  0  0  0  0  0
  -27.0683  -32.7499   17.0186 C   0  0  0  0  0  0  0  0  0  0  0  0
  -25.3650  -28.6670   21.3829 C   0  0  0  0  0  0  0  0  0  0  0  0
  -27.8185  -23.2219   20.4488 C   0  0  0  0  0  0  0  0  0  0  0  0
  -22.0078   -8.4709   21.5638 C   0  0  0  0  0  0  0  0  0  0  0  0
  -26.2387  -26.5073   20.6883 C   0  0  0  0  0  0  0  0  0  0  0  0
  -21.7437   -6.3266   22.4883 C   0  0  0  0  0  0  0  0  0  0  0  0
  -22.8445   -4.1506   23.8432 C   0  0  0  0  0  0  0  0  0  0  0  0
  -21.2081   -5.9231   23.7114 C   0  0  0  0  0  0  0  0  0  0  0  0
  -24.5259  -11.7807   20.7878 C   0  0  0  0  0  0  0  0  0  0  0  0
  -25.3569  -13.8053   20.5754 C   0  0  0  0  0  0  0  0  0  0  0  0
  -23.0109  -13.7552   21.4369 C   0  0  0  0  0  0  0  0  0  0  0  0
  -25.6977  -31.8973   20.3424 C   0  0  0  0  0  0  0  0  0  0  0  0
  -23.9220  -31.7896   23.0549 C   0  0  0  0  0  0  0  0  0  0  0  0
  -22.5764  -29.9080   25.5640 C   0  0  0  0  0  0  0  0  0  0  0  0
  -30.9105  -14.3557   20.5864 C   0  0  0  0  0  0  0  0  0  0  0  0
  -26.4504  -35.1652   16.4938 C   0  0  0  0  0  0  0  0  0  0  0  0
  -24.0319  -30.0898   19.7820 C   0  0  0  0  0  0  0  0  0  0  0  0
  -25.2107  -29.7021   22.4661 C   0  0  0  0  0  0  0  0  0  0  0  0
  -26.0135  -35.2779   17.9521 C   0  0  0  0  0  0  0  0  0  0  0  0
  -29.4946  -12.1247   18.2001 C   0  0  0  0  0  0  0  0  0  0  0  0
  -26.9640  -34.4990   18.8559 C   0  0  0  0  0  0  0  0  0  0  0  0
  -28.0529  -11.9440   18.6787 C   0  0  0  0  0  0  0  0  0  0  0  0
  -30.4674  -12.2429   19.3713 C   0  0  0  0  0  0  0  0  0  0  0  0
  -28.6826  -13.1027   20.8373 C   0  0  0  0  0  0  0  0  0  0  0  0
  -26.9584  -33.0060   18.5061 C   0  0  1  0  0  0  0  0  0  0  0  0
  -24.3765  -31.2695   20.6858 C   0  0  1  0  0  0  0  0  0  0  0  0
  -27.6577  -13.0348   19.6922 C   0  0  2  0  0  0  0  0  0  0  0  0
  -21.2066  -30.1061   27.6573 C   0  0  0  0  0  0  0  0  0  0  0  0
  -29.1563  -19.0471   21.9873 C   0  0  0  0  0  0  0  0  0  0  0  0
  -31.7474  -19.0977   19.1350 C   0  0  0  0  0  0  0  0  0  0  0  0
  -26.3563  -32.8718   24.5424 C   0  0  0  0  0  0  0  0  0  0  0  0
  -25.2770  -32.1579   26.6857 C   0  0  0  0  0  0  0  0  0  0  0  0
  -24.1745  -33.8711   25.2462 C   0  0  0  0  0  0  0  0  0  0  0  0
  -20.4315  -28.1925   24.4615 C   0  0  0  0  0  0  0  0  0  0  0  0
  -29.1207  -18.0244   18.3677 C   0  0  0  0  0  0  0  0  0  0  0  0
  -27.0524  -24.4043   19.9326 C   0  0  0  0  0  0  0  0  0  1  0  0
  -30.9883  -17.6628   20.9301 C   0  0  0  0  0  0  0  0  0  0  0  0
  -30.5619  -20.8608   20.4991 C   0  0  0  0  0  0  0  0  0  0  0  0
  -31.2004  -16.4673   21.8577 C   0  0  0  0  0  0  0  0  0  0  0  0
  -24.1981  -31.4553   24.5009 C   0  0  1  0  0  0  0  0  0  0  0  0
  -21.1788  -29.8691   26.1554 C   0  0  2  0  0  0  0  0  0  0  0  0
  -29.5358  -18.1446   20.8201 C   0  0  2  0  0  0  0  0  0  0  0  0
  -30.4636  -19.8965   19.3132 C   0  0  2  0  0  0  0  0  0  0  0  0
  -25.0062  -32.5702   25.2230 C   0  0  0  0  0  0  0  0  0  0  0  0
  -25.7632  -11.5874   20.3232 N   0  0  0  0  0  0  0  0  0  0  0  0
  -29.3712  -21.6542   20.7010 N   0  0  0  0  0  0  0  0  0  0  0  0
  -26.2429  -12.8371   20.2041 N   0  0  0  0  0  0  0  0  0  0  0  0
  -24.4349  -30.8989   22.1012 N   0  0  0  0  0  0  0  0  0  0  0  0
  -30.0364  -13.2957   20.2942 N   0  0  0  0  0  0  0  0  0  0  0  0
  -25.6768  -15.1156   20.5183 N   0  0  0  0  0  0  0  0  0  0  0  0
  -21.9377  -12.9276   21.7940 N   0  0  0  0  0  0  0  0  0  0  0  0
  -25.7779  -32.3651   19.0446 N   0  0  0  0  0  0  0  0  0  0  0  0
  -22.9030  -31.1676   25.1078 N   0  0  0  0  0  0  0  0  0  0  0  0
  -30.4212  -15.3141   21.4654 N   0  0  0  0  0  0  0  0  0  0  0  0
  -20.5450  -28.5446   25.9002 N   0  3  0  0  0  0  0  0  0  0  0  0
  -29.3521  -18.9307   19.5484 N   0  3  1  0  0  0  0  0  0  0  0  0
  -22.8819  -14.9999   21.5242 O   0  0  0  0  0  0  0  0  0  0  0  0
  -26.5786  -31.9545   21.1924 O   0  0  0  0  0  0  0  0  0  0  0  0
  -23.2689  -32.7999   22.7818 O   0  0  0  0  0  0  0  0  0  0  0  0
  -23.3067  -28.9207   25.5152 O   0  0  0  0  0  0  0  0  0  0  0  0
  -32.0412  -14.4443   20.0958 O   0  0  0  0  0  0  0  0  0  0  0  0
  -21.1978   -7.4060   21.8140 O   0  0  0  0  0  0  0  0  0  0  0  0
  -26.9316  -25.3717   20.9747 O   0  0  0  0  0  0  0  0  0  1  0  0
  -23.3722   -3.1049   24.4930 F   0  0  0  0  0  0  0  0  0  0  0  0
  -20.1640   -6.5761   24.2400 F   0  0  0  0  0  0  0  0  0  0  0  0
  1  2  1  0  0  0  0
  1  5  2  0  0  0  0
  2  6  2  0  0  0  0
  3  8  2  0  0  0  0
  3 18  1  0  0  0  0
  4  9  1  0  0  0  0
  4 18  2  0  0  0  0
  5 20  1  0  0  0  0
  6 22  1  0  0  0  0
  7 10  2  0  0  0  0
  7 21  1  0  0  0  0
  8 25  1  0  0  0  0
  9 25  2  0  0  0  0
 10 26  1  0  0  0  0
 11 12  2  0  0  0  0
 11 27  1  0  0  0  0
 12 28  1  0  0  0  0
 13 16  2  0  0  0  0
 13 24  1  0  0  0  0
 14 23  1  0  0  0  0
 14 26  2  0  0  0  0
 15 28  2  0  0  0  0
 15 29  1  0  0  0  0
 16 67  1  0  0  0  0
 17 24  2  0  0  0  0
 17 67  1  0  0  0  0
 18 30  1  0  0  0  0
 19 30  1  0  0  0  0
 19 31  2  0  0  0  0
 19 32  1  0  0  0  0
 20 22  2  0  0  0  0
 20 37  1  0  0  0  0
 21 23  2  0  0  0  0
 21 38  1  0  0  0  0
 22 46  1  0  0  0  0
 23 39  1  0  0  0  0
 24 57  1  0  0  0  0
 25 83  1  0  0  0  0
 26 84  1  0  0  0  0
 27 29  2  0  0  0  0
 27 83  1  0  0  0  0
 28 85  1  0  0  0  0
 29 86  1  0  0  0  0
 30 66  2  0  0  0  0
 31 68  1  0  0  0  0
 31 71  1  0  0  0  0
 32 72  1  0  0  0  0
 32 78  2  0  0  0  0
 33 47  1  0  0  0  0
 33 73  1  0  0  0  0
 33 79  2  0  0  0  0
 34 61  1  0  0  0  0
 34 69  1  0  0  0  0
 34 80  2  0  0  0  0
 35 62  1  0  0  0  0
 35 74  1  0  0  0  0
 35 81  2  0  0  0  0
 36 70  1  0  0  0  0
 36 75  1  0  0  0  0
 36 82  2  0  0  0  0
 37 40  1  0  0  0  0
 38 47  1  0  0  0  0
 39 69  1  0  0  0  0
 40 42  1  0  0  0  0
 41 43  1  0  0  0  0
 41 44  1  0  0  0  0
 42 46  1  0  0  0  0
 43 48  1  0  0  0  0
 44 70  1  0  0  0  0
 45 48  1  0  0  0  0
 45 70  1  0  0  0  0
 46 73  1  0  0  0  0
 47 69  1  0  0  0  0
 48 68  1  0  0  0  0
 49 62  1  0  0  0  0
 50 63  1  0  0  0  0
 51 64  1  0  0  0  0
 52 65  1  0  0  0  0
 53 65  1  0  0  0  0
 54 65  1  0  0  0  0
 55 76  1  0  0  0  0
 56 77  1  0  0  0  0
 57 84  1  0  0  0  0
 58 60  1  0  0  0  0
 58 63  1  0  0  0  0
 59 64  1  0  0  0  0
 59 67  1  0  0  0  0
 60 75  1  0  0  0  0
 61 65  1  0  0  0  0
 61 74  1  0  0  0  0
 62 76  1  0  0  0  0
 63 77  1  0  0  0  0
 64 77  1  0  0  0  0
 66 68  1  0  0  0  0
M  CHG  2  76   1  77   1
M  ISO  4  36 100  57 101  75 100  84 101
M  END
> <Batch ID>
0048

> <Smiles>
CNC(C)C(=O)NC(C(=O)N1Cc2cc([101O:1][101CH2:1]c3ccn(CC(C)N(C)C(C)CC[100NH:0][100C:0](=O)N4CCCC(n5nc(-c6ccc(Oc7ccc(F)cc7F)cc6)c(C(N)=O)c5N)C4)c3)ccc2CC1C(=O)NC1CCCc2ccccc21)C(C)(C)C

> <Shape>
0.359

> <Color>
0.228

> <Negative vol penalty>
0.000

$$$$

  -OEChem-04052317263D

 94103  0     1  0  0  0  0  0999 V2000
  -33.5967  -23.8638    5.1694 C   0  0  0  0  0  0  0  0  0  0  0  0
  -34.3228  -22.7804    5.6535 C   0  0  0  0  0  0  0  0  0  0  0  0
  -23.2710   -9.7975   19.9082 C   0  0  0  0  0  0  0  0  0  0  0  0
  -23.7157   -9.9301   22.2792 C   0  0  0  0  0  0  0  0  0  0  0  0
  -33.4779  -25.0212    5.9377 C   0  0  0  0  0  0  0  0  0  0  0  0
  -34.9317  -22.8542    6.9059 C   0  0  0  0  0  0  0  0  0  0  0  0
  -34.1699  -18.1828   13.1207 C   0  0  0  0  0  0  0  0  0  0  0  0
  -35.1709  -16.9032   19.8060 C   0  0  0  0  0  0  0  0  0  0  0  0
  -22.5358   -8.6297   20.1114 C   0  0  0  0  0  0  0  0  0  0  0  0
  -22.9804   -8.7623   22.4824 C   0  0  0  0  0  0  0  0  0  0  0  0
  -33.9986  -17.5207   14.3366 C   0  0  0  0  0  0  0  0  0  0  0  0
  -19.7265   -7.8736   22.6882 C   0  0  0  0  0  0  0  0  0  0  0  0
  -18.8208   -7.8561   23.7489 C   0  0  0  0  0  0  0  0  0  0  0  0
  -34.9675  -16.0771   20.9058 C   0  0  0  0  0  0  0  0  0  0  0  0
  -34.6163  -19.5309   15.5305 C   0  0  0  0  0  0  0  0  0  0  0  0
  -20.0106   -5.9984   24.7341 C   0  0  0  0  0  0  0  0  0  0  0  0
  -23.8610  -10.4477   20.9922 C   0  0  0  0  0  0  0  0  0  0  0  0
  -24.1387  -12.9762   20.7996 C   0  0  0  0  0  0  0  0  0  0  0  0
  -34.0775  -25.1057    7.2042 C   0  0  0  0  0  0  0  0  0  0  0  0
  -34.5506  -19.5275   13.1054 C   0  0  0  0  0  0  0  0  0  0  0  0
  -34.8220  -24.0143    7.6912 C   0  0  0  0  0  0  0  0  0  0  0  0
  -34.7773  -20.2028   14.3159 C   0  0  0  0  0  0  0  0  0  0  0  0
  -34.0779  -17.3954   19.1015 C   0  0  0  0  0  0  0  0  0  0  0  0
  -22.3905   -8.1121   21.3984 C   0  0  0  0  0  0  0  0  0  0  0  0
  -34.2215  -18.1930   15.5385 C   0  0  0  0  0  0  0  0  0  0  0  0
  -20.7742   -6.9535   22.6504 C   0  0  0  0  0  0  0  0  0  0  0  0
  -18.9628   -6.9185   24.7718 C   0  0  0  0  0  0  0  0  0  0  0  0
  -20.9162   -6.0159   23.6734 C   0  0  0  0  0  0  0  0  0  0  0  0
  -24.6211  -11.6538   20.7829 C   0  0  0  0  0  0  0  0  0  0  0  0
  -32.8119  -17.0348   19.5340 C   0  0  0  0  0  0  0  0  0  0  0  0
  -33.6616  -15.7758   21.2576 C   0  0  0  0  0  0  0  0  0  0  0  0
  -25.2464  -13.7489   20.5495 C   0  0  0  0  0  0  0  0  0  0  0  0
  -22.8084  -13.4627   21.0214 C   0  0  0  0  0  0  0  0  0  0  0  0
  -31.6176  -17.5081   18.8497 C   0  0  0  0  0  0  0  0  0  0  0  0
  -35.3515  -22.5598   11.0463 C   0  0  0  0  0  0  0  0  0  0  0  0
  -33.7125  -23.5246   13.4532 C   0  0  0  0  0  0  0  0  0  0  0  0
  -31.5346  -24.1174   16.0110 C   0  0  0  0  0  0  0  0  0  0  0  0
  -30.9963  -12.8057   21.5006 C   0  0  0  0  0  0  0  0  0  0  0  0
  -33.9611  -26.3950    7.9779 C   0  0  0  0  0  0  0  0  0  0  0  0
  -34.8066  -20.2632   11.8182 C   0  0  0  0  0  0  0  0  0  0  0  0
  -35.2193  -21.6393   14.2504 C   0  0  0  0  0  0  0  0  0  0  0  0
  -34.3225  -26.2542    9.4543 C   0  0  0  0  0  0  0  0  0  0  0  0
  -27.7205  -19.0961   16.5666 C   0  0  0  0  0  0  0  0  0  0  0  0
  -28.8921  -20.0621   16.4147 C   0  0  0  0  0  0  0  0  0  0  0  0
  -27.4267  -18.7932   18.0332 C   0  0  0  0  0  0  0  0  0  0  0  0
  -29.4780  -13.6168   18.3172 C   0  0  0  0  0  0  0  0  0  0  0  0
  -35.6200  -25.4680    9.6137 C   0  0  0  0  0  0  0  0  0  0  0  0
  -28.0031  -13.3264   18.6008 C   0  0  0  0  0  0  0  0  0  0  0  0
  -30.1365  -19.5577   17.1435 C   0  0  0  0  0  0  0  0  0  0  0  0
  -28.6694  -18.2868   18.7635 C   0  0  0  0  0  0  0  0  0  0  0  0
  -30.3844  -12.6069   19.0149 C   0  0  0  0  0  0  0  0  0  0  0  0
  -28.7020  -12.2152   20.7726 C   0  0  0  0  0  0  0  0  0  0  0  0
  -35.4761  -24.0470    9.0555 C   0  0  1  0  0  0  0  0  0  0  0  0
  -34.4057  -21.7480   11.8817 C   0  0  1  0  0  0  0  0  0  0  0  0
  -27.7348  -13.2151   20.1134 C   0  0  2  0  0  0  0  0  0  0  0  0
  -29.8397  -19.2656   18.6185 C   0  0  0  0  0  0  0  0  0  0  0  0
  -31.4244  -22.0365   22.1445 C   0  0  0  0  0  0  0  0  0  0  0  0
  -29.9520  -25.4077   17.4699 C   0  0  0  0  0  0  0  0  0  0  0  0
  -30.1742  -18.3483   22.1345 C   0  0  0  0  0  0  0  0  0  0  0  0
  -36.2858  -24.4390   14.8118 C   0  0  0  0  0  0  0  0  0  0  0  0
  -34.8826  -25.5719   16.5485 C   0  0  0  0  0  0  0  0  0  0  0  0
  -34.7332  -26.2895   14.1641 C   0  0  0  0  0  0  0  0  0  0  0  0
  -29.2267  -23.4774   14.2724 C   0  0  0  0  0  0  0  0  0  0  0  0
  -34.2925  -18.2872   17.9141 C   0  0  0  0  0  0  0  0  0  1  0  0
  -33.4061  -14.8928   22.4329 C   0  0  0  0  0  0  0  0  0  0  0  0
  -31.0849  -20.6373   22.6379 C   0  0  0  0  0  0  0  0  0  0  0  0
  -33.3346  -13.4032   22.0772 C   0  0  0  0  0  0  0  0  0  0  0  0
  -31.5694  -19.5039   20.3716 C   0  0  0  0  0  0  0  0  0  0  0  0
  -33.7302  -24.0746   14.8570 C   0  0  1  0  0  0  0  0  0  0  0  0
  -30.2324  -24.8958   16.0656 C   0  0  2  0  0  0  0  0  0  0  0  0
  -30.5766  -19.6971   21.5279 C   0  0  1  0  0  0  0  0  0  0  0  0
  -34.9051  -25.0659   15.0903 C   0  0  0  0  0  0  0  0  0  0  0  0
  -25.9330  -11.5864   20.5411 N   0  0  0  0  0  0  0  0  0  0  0  0
  -32.5747  -16.2349   20.5977 N   0  0  0  0  0  0  0  0  0  0  0  0
  -26.2844  -12.8762   20.4036 N   0  0  0  0  0  0  0  0  0  0  0  0
  -34.4481  -22.3558   13.2225 N   0  0  0  0  0  0  0  0  0  0  0  0
  -30.0908  -12.5633   20.4543 N   0  0  0  0  0  0  0  0  0  0  0  0
  -25.4240  -15.0828   20.4423 N   0  0  0  0  0  0  0  0  0  0  0  0
  -21.7886  -12.5325   21.2639 N   0  0  0  0  0  0  0  0  0  0  0  0
  -34.7496  -23.2097    9.9858 N   0  0  0  0  0  0  0  0  0  0  0  0
  -32.4090  -24.6491   15.0870 N   0  0  0  0  0  0  0  0  0  0  0  0
  -32.2930  -13.1221   21.1143 N   0  0  0  0  0  0  0  0  0  0  0  0
  -31.0298  -18.7163   19.2652 N   0  0  0  0  0  0  0  0  0  0  0  0
  -29.0940  -24.0310   15.6446 N   0  3  0  0  0  0  0  0  0  0  0  0
  -22.5292  -14.6852   20.9888 O   0  0  0  0  0  0  0  0  0  0  0  0
  -31.1923  -16.8123   17.9187 O   0  0  0  0  0  0  0  0  0  0  0  0
  -36.5402  -22.5960   11.3421 O   0  0  0  0  0  0  0  0  0  0  0  0
  -33.0694  -24.1163   12.5817 O   0  0  0  0  0  0  0  0  0  0  0  0
  -31.7555  -23.1382   16.7201 O   0  0  0  0  0  0  0  0  0  0  0  0
  -30.6719  -12.7496   22.6917 O   0  0  0  0  0  0  0  0  0  0  0  0
  -21.6730   -6.9727   21.5971 O   0  0  0  0  0  0  0  0  0  0  0  0
  -34.0480  -17.5419   16.7220 O   0  0  0  0  0  0  0  0  0  1  0  0
  -18.0940   -6.9028   25.7911 F   0  0  0  0  0  0  0  0  0  0  0  0
  -21.9215   -5.1303   23.6431 F   0  0  0  0  0  0  0  0  0  0  0  0
  1  2  1  0  0  0  0
  1  5  2  0  0  0  0
  2  6  2  0  0  0  0
  3  9  2  0  0  0  0
  3 17  1  0  0  0  0
  4 10  1  0  0  0  0
  4 17  2  0  0  0  0
  5 19  1  0  0  0  0
  6 21  1  0  0  0  0
  7 11  2  0  0  0  0
  7 20  1  0  0  0  0
  8 14  2  0  0  0  0
  8 23  1  0  0  0  0
  9 24  1  0  0  0  0
 10 24  2  0  0  0  0
 11 25  1  0  0  0  0
 12 13  2  0  0  0  0
 12 26  1  0  0  0  0
 13 27  1  0  0  0  0
 14 31  1  0  0  0  0
 15 22  1  0  0  0  0
 15 25  2  0  0  0  0
 16 27  2  0  0  0  0
 16 28  1  0  0  0  0
 17 29  1  0  0  0  0
 18 29  1  0  0  0  0
 18 32  2  0  0  0  0
 18 33  1  0  0  0  0
 19 21  2  0  0  0  0
 19 39  1  0  0  0  0
 20 22  2  0  0  0  0
 20 40  1  0  0  0  0
 21 53  1  0  0  0  0
 22 41  1  0  0  0  0
 23 30  2  0  0  0  0
 23 64  1  0  0  0  0
 24 91  1  0  0  0  0
 25 92  1  0  0  0  0
 26 28  2  0  0  0  0
 26 91  1  0  0  0  0
 27 93  1  0  0  0  0
 28 94  1  0  0  0  0
 29 73  2  0  0  0  0
 30 34  1  0  0  0  0
 30 74  1  0  0  0  0
 31 65  1  0  0  0  0
 31 74  2  0  0  0  0
 32 75  1  0  0  0  0
 32 78  1  0  0  0  0
 33 79  1  0  0  0  0
 33 85  2  0  0  0  0
 34 83  1  0  0  0  0
 34 86  2  0  0  0  0
 35 54  1  0  0  0  0
 35 80  1  0  0  0  0
 35 87  2  0  0  0  0
 36 69  1  0  0  0  0
 36 76  1  0  0  0  0
 36 88  2  0  0  0  0
 37 70  1  0  0  0  0
 37 81  1  0  0  0  0
 37 89  2  0  0  0  0
 38 77  1  0  0  0  0
 38 82  1  0  0  0  0
 38 90  2  0  0  0  0
 39 42  1  0  0  0  0
 40 54  1  0  0  0  0
 41 76  1  0  0  0  0
 42 47  1  0  0  0  0
 43 44  1  0  0  0  0
 43 45  1  0  0  0  0
 44 49  1  0  0  0  0
 45 50  1  0  0  0  0
 46 48  1  0  0  0  0
 46 51  1  0  0  0  0
 47 53  1  0  0  0  0
 48 55  1  0  0  0  0
 49 56  1  0  0  0  0
 50 56  1  0  0  0  0
 51 77  1  0  0  0  0
 52 55  1  0  0  0  0
 52 77  1  0  0  0  0
 53 80  1  0  0  0  0
 54 76  1  0  0  0  0
 55 75  1  0  0  0  0
 56 83  1  0  0  0  0
 57 66  1  0  0  0  0
 58 70  1  0  0  0  0
 59 71  1  0  0  0  0
 60 72  1  0  0  0  0
 61 72  1  0  0  0  0
 62 72  1  0  0  0  0
 63 84  1  0  0  0  0
 64 92  1  0  0  0  0
 65 67  1  0  0  0  0
 66 71  1  0  0  0  0
 67 82  1  0  0  0  0
 68 71  1  0  0  0  0
 68 83  1  0  0  0  0
 69 72  1  0  0  0  0
 69 81  1  0  0  0  0
 70 84  1  0  0  0  0
 73 75  1  0  0  0  0
M  CHG  1  84   1
M  ISO  4  38 100  64 101  82 100  92 101
M  END
> <Batch ID>
0048

> <Smiles>
CCC(C)CN(C(=O)c1nc(CC[100NH:0][100C:0](=O)N2CCCC(n3nc(-c4ccc(Oc5ccc(F)cc5F)cc4)c(C(N)=O)c3N)C2)ccc1[101CH2:1][101O:1]c1ccc2c(c1)CN(C(=O)C(NC(=O)C(C)NC)C(C)(C)C)C(C(=O)NC1CCCc3ccccc31)C2)C1CCCCC1

> <Shape>
0.171

> <Color>
0.164

> <Negative vol penalty>
0.000

$$$$

  -OEChem-04052317263D

 86 94  0     1  0  0  0  0  0999 V2000
  -20.6646  -23.1049   18.8575 C   0  0  0  0  0  0  0  0  0  0  0  0
  -22.0267  -22.8236   18.8277 C   0  0  0  0  0  0  0  0  0  0  0  0
  -21.8850  -26.2813   23.6803 C   0  0  0  0  0  0  0  0  0  0  0  0
  -21.5813  -25.3305   21.4801 C   0  0  0  0  0  0  0  0  0  0  0  0
  -19.8168  -22.3559   19.6724 C   0  0  0  0  0  0  0  0  0  0  0  0
  -22.5420  -21.7936   19.6139 C   0  0  0  0  0  0  0  0  0  0  0  0
  -27.1860  -18.0579   18.2052 C   0  0  0  0  0  0  0  0  0  0  0  0
  -33.7589  -23.8472   21.6657 C   0  0  0  0  0  0  0  0  0  0  0  0
  -20.5436  -26.6630   23.7005 C   0  0  0  0  0  0  0  0  0  0  0  0
  -20.2398  -25.7121   21.5003 C   0  0  0  0  0  0  0  0  0  0  0  0
  -28.5363  -18.0681   18.5519 C   0  0  0  0  0  0  0  0  0  0  0  0
  -18.6381  -29.1356   22.4046 C   0  0  0  0  0  0  0  0  0  0  0  0
  -18.3382  -30.4236   22.8479 C   0  0  0  0  0  0  0  0  0  0  0  0
  -33.9407  -22.4763   21.8107 C   0  0  0  0  0  0  0  0  0  0  0  0
  -28.0801  -16.5260   20.3500 C   0  0  0  0  0  0  0  0  0  0  0  0
  -16.9873  -29.4977   24.6242 C   0  0  0  0  0  0  0  0  0  0  0  0
  -22.4040  -25.6151   22.5700 C   0  0  0  0  0  0  0  0  0  0  0  0
  -24.3346  -24.0037   22.9989 C   0  0  0  0  0  0  0  0  0  0  0  0
  -20.3205  -21.3099   20.4616 C   0  0  0  0  0  0  0  0  0  0  0  0
  -26.2692  -17.2888   18.9363 C   0  0  0  0  0  0  0  0  0  0  0  0
  -21.7004  -21.0307   20.4411 C   0  0  0  0  0  0  0  0  0  0  0  0
  -26.7190  -16.5058   20.0089 C   0  0  0  0  0  0  0  0  0  0  0  0
  -32.5130  -24.3425   21.2976 C   0  0  0  0  0  0  0  0  0  0  0  0
  -19.7210  -26.3783   22.6106 C   0  0  0  0  0  0  0  0  0  0  0  0
  -28.9831  -17.3043   19.6263 C   0  0  0  0  0  0  0  0  0  0  0  0
  -18.1126  -28.0286   23.0710 C   0  0  0  0  0  0  0  0  0  0  0  0
  -17.5128  -30.6047   23.9577 C   0  0  0  0  0  0  0  0  0  0  0  0
  -17.2872  -28.2096   24.1808 C   0  0  0  0  0  0  0  0  0  0  0  0
  -23.7897  -25.2211   22.5483 C   0  0  0  0  0  0  0  0  0  0  0  0
  -32.8533  -21.6497   21.5781 C   0  0  0  0  0  0  0  0  0  0  0  0
  -31.4895  -23.4324   21.0878 C   0  0  0  0  0  0  0  0  0  0  0  0
  -25.6822  -24.1217   22.7610 C   0  0  0  0  0  0  0  0  0  0  0  0
  -23.6810  -22.8678   23.5805 C   0  0  0  0  0  0  0  0  0  0  0  0
  -23.6974  -17.9319   20.6902 C   0  0  0  0  0  0  0  0  0  0  0  0
  -23.4403  -14.6999   20.7944 C   0  0  0  0  0  0  0  0  0  0  0  0
  -24.9790  -11.6623   20.5666 C   0  0  0  0  0  0  0  0  0  0  0  0
  -29.6572  -25.6186   18.9827 C   0  0  0  0  0  0  0  0  0  0  0  0
  -19.3725  -20.5587   21.3625 C   0  0  0  0  0  0  0  0  0  0  0  0
  -24.8203  -17.2679   18.5329 C   0  0  0  0  0  0  0  0  0  0  0  0
  -25.7786  -15.6471   20.8131 C   0  0  0  0  0  0  0  0  0  0  0  0
  -19.9409  -19.2403   21.8811 C   0  0  0  0  0  0  0  0  0  0  0  0
  -28.4734  -28.1177   21.4433 C   0  0  0  0  0  0  0  0  0  0  0  0
  -21.3661  -19.4362   22.3884 C   0  0  0  0  0  0  0  0  0  0  0  0
  -27.1579  -27.5106   21.9281 C   0  0  0  0  0  0  0  0  0  0  0  0
  -28.8032  -27.6908   20.0162 C   0  0  0  0  0  0  0  0  0  0  0  0
  -27.4996  -25.6090   20.3009 C   0  0  0  0  0  0  0  0  0  0  0  0
  -22.2934  -19.9052   21.2607 C   0  0  1  0  0  0  0  0  0  0  0  0
  -23.8903  -16.8485   19.6671 C   0  0  1  0  0  0  0  0  0  0  0  0
  -27.1614  -25.9821   21.7521 C   0  0  2  0  0  0  0  0  0  0  0  0
  -32.3125  -25.8100   21.1395 C   0  0  0  0  0  0  0  0  0  0  0  0
  -24.5155   -9.2018   20.7348 C   0  0  0  0  0  0  0  0  0  0  0  0
  -28.8255  -22.9317   17.6988 C   0  0  0  0  0  0  0  0  0  0  0  0
  -31.2126  -23.5868   17.2559 C   0  0  0  0  0  0  0  0  0  0  0  0
  -23.3228  -14.9324   23.8345 C   0  0  0  0  0  0  0  0  0  0  0  0
  -23.8172  -12.4819   23.9713 C   0  0  0  0  0  0  0  0  0  0  0  0
  -21.7318  -13.2711   22.8530 C   0  0  0  0  0  0  0  0  0  0  0  0
  -25.8176  -11.1950   17.7671 C   0  0  0  0  0  0  0  0  0  0  0  0
  -33.0140  -20.1579   21.7278 C   0  0  0  0  0  0  0  0  0  0  0  0
  -30.1293  -23.9073   20.6939 C   0  0  0  0  0  0  0  0  0  0  0  0
  -31.7334  -19.3655   21.4426 C   0  0  0  0  0  0  0  0  0  0  0  0
  -31.8953  -17.8625   21.6743 C   0  0  0  0  0  0  0  0  0  0  0  0
  -30.6166  -17.1049   21.3431 C   0  0  0  0  0  0  0  0  0  1  0  0
  -23.9590  -13.6151   21.7071 C   0  0  1  0  0  0  0  0  0  0  0  0
  -24.6114  -10.4015   19.8052 C   0  0  2  0  0  0  0  0  0  0  0  0
  -30.1829  -23.2335   18.3214 C   0  0  0  0  0  0  0  0  0  0  0  0
  -23.2253  -13.5927   23.0777 C   0  0  0  0  0  0  0  0  0  0  0  0
  -24.7156  -26.0514   22.0611 N   0  0  0  0  0  0  0  0  0  0  0  0
  -31.6280  -22.0940   21.2191 N   0  0  0  0  0  0  0  0  0  0  0  0
  -25.8558  -25.3547   22.2043 N   0  0  0  0  0  0  0  0  0  0  0  0
  -24.3705  -15.6652   20.3836 N   0  0  0  0  0  0  0  0  0  0  0  0
  -28.7570  -26.2359   19.8667 N   0  0  0  0  0  0  0  0  0  0  0  0
  -26.7236  -23.2901   22.9758 N   0  0  0  0  0  0  0  0  0  0  0  0
  -22.2909  -22.9130   23.7537 N   0  0  0  0  0  0  0  0  0  0  0  0
  -22.6544  -18.7932   20.4078 N   0  0  0  0  0  0  0  0  0  0  0  0
  -23.8604  -12.3682   20.9561 N   0  0  0  0  0  0  0  0  0  0  0  0
  -30.0703  -24.3152   19.2974 N   0  0  0  0  0  0  0  0  0  0  0  0
  -25.6359  -10.1082   18.7634 N   0  3  0  0  0  0  0  0  0  0  0  0
  -24.3131  -21.8497   23.9512 O   0  0  0  0  0  0  0  0  0  0  0  0
  -24.4390  -17.9817   21.6645 O   0  0  0  0  0  0  0  0  0  0  0  0
  -22.2551  -14.6872   20.4526 O   0  0  0  0  0  0  0  0  0  0  0  0
  -26.1420  -11.9865   20.7963 O   0  0  0  0  0  0  0  0  0  0  0  0
  -30.0756  -26.2030   17.9751 O   0  0  0  0  0  0  0  0  0  0  0  0
  -18.4119  -26.7504   22.6301 O   0  0  0  0  0  0  0  0  0  0  0  0
  -30.3005  -17.3130   19.9672 O   0  0  0  0  0  0  0  0  0  1  0  0
  -17.2261  -31.8417   24.3843 F   0  0  0  0  0  0  0  0  0  0  0  0
  -16.7804  -27.1500   24.8258 F   0  0  0  0  0  0  0  0  0  0  0  0
  1  2  1  0  0  0  0
  1  5  2  0  0  0  0
  2  6  2  0  0  0  0
  3  9  2  0  0  0  0
  3 17  1  0  0  0  0
  4 10  1  0  0  0  0
  4 17  2  0  0  0  0
  5 19  1  0  0  0  0
  6 21  1  0  0  0  0
  7 11  2  0  0  0  0
  7 20  1  0  0  0  0
  8 14  2  0  0  0  0
  8 23  1  0  0  0  0
  9 24  1  0  0  0  0
 10 24  2  0  0  0  0
 11 25  1  0  0  0  0
 12 13  2  0  0  0  0
 12 26  1  0  0  0  0
 13 27  1  0  0  0  0
 14 30  1  0  0  0  0
 15 22  1  0  0  0  0
 15 25  2  0  0  0  0
 16 27  2  0  0  0  0
 16 28  1  0  0  0  0
 17 29  1  0  0  0  0
 18 29  1  0  0  0  0
 18 32  2  0  0  0  0
 18 33  1  0  0  0  0
 19 21  2  0  0  0  0
 19 38  1  0  0  0  0
 20 22  2  0  0  0  0
 20 39  1  0  0  0  0
 21 47  1  0  0  0  0
 22 40  1  0  0  0  0
 23 31  2  0  0  0  0
 23 50  1  0  0  0  0
 24 83  1  0  0  0  0
 25 84  1  0  0  0  0
 26 28  2  0  0  0  0
 26 83  1  0  0  0  0
 27 85  1  0  0  0  0
 28 86  1  0  0  0  0
 29 67  2  0  0  0  0
 30 58  1  0  0  0  0
 30 68  2  0  0  0  0
 31 59  1  0  0  0  0
 31 68  1  0  0  0  0
 32 69  1  0  0  0  0
 32 72  1  0  0  0  0
 33 73  1  0  0  0  0
 33 78  2  0  0  0  0
 34 48  1  0  0  0  0
 34 74  1  0  0  0  0
 34 79  2  0  0  0  0
 35 63  1  0  0  0  0
 35 70  1  0  0  0  0
 35 80  2  0  0  0  0
 36 64  1  0  0  0  0
 36 75  1  0  0  0  0
 36 81  2  0  0  0  0
 37 71  1  0  0  0  0
 37 76  1  0  0  0  0
 37 82  2  0  0  0  0
 38 41  1  0  0  0  0
 39 48  1  0  0  0  0
 40 70  1  0  0  0  0
 41 43  1  0  0  0  0
 42 44  1  0  0  0  0
 42 45  1  0  0  0  0
 43 47  1  0  0  0  0
 44 49  1  0  0  0  0
 45 71  1  0  0  0  0
 46 49  1  0  0  0  0
 46 71  1  0  0  0  0
 47 74  1  0  0  0  0
 48 70  1  0  0  0  0
 49 69  1  0  0  0  0
 51 64  1  0  0  0  0
 52 65  1  0  0  0  0
 53 65  1  0  0  0  0
 54 66  1  0  0  0  0
 55 66  1  0  0  0  0
 56 66  1  0  0  0  0
 57 77  1  0  0  0  0
 58 60  1  0  0  0  0
 59 76  1  0  0  0  0
 60 61  1  0  0  0  0
 61 62  1  0  0  0  0
 62 84  1  0  0  0  0
 63 66  1  0  0  0  0
 63 75  1  0  0  0  0
 64 77  1  0  0  0  0
 65 76  1  0  0  0  0
 67 69  1  0  0  0  0
M  CHG  1  77   1
M  ISO  4  37 100  62 101  76 100  84 101
M  END
> <Batch ID>
0048

> <Smiles>
CNC(C)C(=O)NC(C(=O)N1Cc2cc([101O:1][101CH2:1]CCCc3ccc(C)c(C[100N:0](C(C)C)[100C:0](=O)N4CCCC(n5nc(-c6ccc(Oc7ccc(F)cc7F)cc6)c(C(N)=O)c5N)C4)n3)ccc2CC1C(=O)NC1CCCc2ccccc21)C(C)(C)C

> <Shape>
0.198

> <Color>
0.071

> <Negative vol penalty>
0.000

$$$$

  -OEChem-04052317263D

 85 93  0     1  0  0  0  0  0999 V2000
  -30.1010  -34.1705   25.6608 C   0  0  0  0  0  0  0  0  0  0  0  0
  -30.4270  -33.8334   24.3520 C   0  0  0  0  0  0  0  0  0  0  0  0
  -24.5808   -8.7196   21.4435 C   0  0  0  0  0  0  0  0  0  0  0  0
  -23.1357  -10.6506   21.5856 C   0  0  0  0  0  0  0  0  0  0  0  0
  -29.5613  -33.2074   26.5107 C   0  0  0  0  0  0  0  0  0  0  0  0
  -30.2025  -32.5364   23.8891 C   0  0  0  0  0  0  0  0  0  0  0  0
  -30.1019  -26.4580   18.6900 C   0  0  0  0  0  0  0  0  0  0  0  0
  -23.8325   -8.0865   22.4359 C   0  0  0  0  0  0  0  0  0  0  0  0
  -22.3874  -10.0175   22.5780 C   0  0  0  0  0  0  0  0  0  0  0  0
  -30.0068  -25.0712   18.5826 C   0  0  0  0  0  0  0  0  0  0  0  0
  -22.0859   -5.8184   24.6764 C   0  0  0  0  0  0  0  0  0  0  0  0
  -21.7418   -4.4817   24.4757 C   0  0  0  0  0  0  0  0  0  0  0  0
  -27.9808  -25.1149   19.8908 C   0  0  0  0  0  0  0  0  0  0  0  0
  -20.5501   -5.0906   22.4641 C   0  0  0  0  0  0  0  0  0  0  0  0
  -29.0459  -18.2748   18.2741 C   0  0  0  0  0  0  0  0  0  0  0  0
  -24.2325  -10.0017   21.0184 C   0  0  0  0  0  0  0  0  0  0  0  0
  -24.7938  -10.6006   18.6031 C   0  0  0  0  0  0  0  0  0  0  0  0
  -29.3420  -31.8949   26.0609 C   0  0  0  0  0  0  0  0  0  0  0  0
  -29.1413  -27.1844   19.4086 C   0  0  0  0  0  0  0  0  0  0  0  0
  -29.6365  -31.5565   24.7245 C   0  0  0  0  0  0  0  0  0  0  0  0
  -28.0634  -26.5113   20.0017 C   0  0  0  0  0  0  0  0  0  0  0  0
  -22.7358   -8.7354   23.0031 C   0  0  0  0  0  0  0  0  0  0  0  0
  -28.9474  -24.3993   19.1850 C   0  0  0  0  0  0  0  0  0  0  0  0
  -21.6621   -6.7913   23.7710 C   0  0  0  0  0  0  0  0  0  0  0  0
  -20.9739   -4.1178   23.3695 C   0  0  0  0  0  0  0  0  0  0  0  0
  -20.8942   -6.4274   22.6649 C   0  0  0  0  0  0  0  0  0  0  0  0
  -25.0054  -10.6564   19.9937 C   0  0  0  0  0  0  0  0  0  0  0  0
  -28.8394  -19.0839   17.1755 C   0  0  0  0  0  0  0  0  0  0  0  0
  -29.5427  -18.9065   19.3959 C   0  0  0  0  0  0  0  0  0  0  0  0
  -25.7885  -11.3852   18.0726 C   0  0  0  0  0  0  0  0  0  0  0  0
  -29.5760  -20.9067   18.3166 C   0  0  0  0  0  0  0  0  0  0  0  0
  -23.7879   -9.9022   17.8574 C   0  0  0  0  0  0  0  0  0  0  0  0
  -29.1243  -29.1061   21.9684 C   0  0  0  0  0  0  0  0  0  0  0  0
  -28.8440  -15.9086   20.4132 C   0  0  0  0  0  0  0  0  0  0  0  0
  -25.9492  -29.4470   21.0432 C   0  0  0  0  0  0  0  0  0  0  0  0
  -25.7632  -32.7420   21.9081 C   0  0  0  0  0  0  0  0  0  0  0  0
  -28.7483  -30.8943   27.0208 C   0  0  0  0  0  0  0  0  0  0  0  0
  -29.2459  -28.6835   19.4868 C   0  0  0  0  0  0  0  0  0  0  0  0
  -27.0051  -27.2453   20.7801 C   0  0  0  0  0  0  0  0  0  0  0  0
  -28.9602  -29.4496   26.5801 C   0  0  0  0  0  0  0  0  0  0  0  0
  -30.2391  -12.8934   18.9337 C   0  0  0  0  0  0  0  0  0  0  0  0
  -28.5495  -29.2847   25.1245 C   0  0  0  0  0  0  0  0  0  0  0  0
  -29.0283  -11.9612   18.9403 C   0  0  0  0  0  0  0  0  0  0  0  0
  -30.2508  -13.8070   20.1565 C   0  0  0  0  0  0  0  0  0  0  0  0
  -27.7859  -13.6736   20.3321 C   0  0  0  0  0  0  0  0  0  0  0  0
  -29.4295  -30.1441   24.2081 C   0  0  1  0  0  0  0  0  0  0  0  0
  -28.4488  -29.2914   20.6391 C   0  0  1  0  0  0  0  0  0  0  0  0
  -27.7206  -12.7563   19.0995 C   0  0  2  0  0  0  0  0  0  0  0  0
  -28.3045  -18.4908   15.9154 C   0  0  0  0  0  0  0  0  0  0  0  0
  -24.7020  -34.9452   22.4714 C   0  0  0  0  0  0  0  0  0  0  0  0
  -32.3754  -20.4069   24.1197 C   0  0  0  0  0  0  0  0  0  0  0  0
  -30.5236  -18.8782   24.8236 C   0  0  0  0  0  0  0  0  0  0  0  0
  -25.8377  -29.7558   18.0104 C   0  0  0  0  0  0  0  0  0  0  0  0
  -25.0291  -32.1008   18.3496 C   0  0  0  0  0  0  0  0  0  0  0  0
  -23.6703  -30.1820   19.1830 C   0  0  0  0  0  0  0  0  0  0  0  0
  -25.5493  -32.0379   24.7747 C   0  0  0  0  0  0  0  0  0  0  0  0
  -29.8720  -22.3775   18.3404 C   0  0  0  0  0  0  0  0  0  1  0  0
  -30.1186  -16.7145   20.4075 C   0  0  0  0  0  0  0  0  0  0  0  0
  -31.0094  -19.2641   22.3472 C   0  0  0  0  0  0  0  0  0  0  0  0
  -29.6764  -18.6962   21.8655 C   0  0  0  0  0  0  0  0  0  0  0  0
  -25.8148  -30.7925   20.3749 C   0  0  1  0  0  0  0  0  0  0  0  0
  -24.8445  -33.4827   22.8631 C   0  0  2  0  0  0  0  0  0  0  0  0
  -30.9840  -19.8775   23.7615 C   0  0  0  0  0  0  0  0  0  0  0  0
  -25.1126  -30.6992   18.9908 C   0  0  0  0  0  0  0  0  0  0  0  0
  -26.0525  -11.4162   20.3259 N   0  0  0  0  0  0  0  0  0  0  0  0
  -29.0945  -20.4087   17.1617 N   0  0  0  0  0  0  0  0  0  0  0  0
  -29.8203  -20.2256   19.4524 N   0  0  0  0  0  0  0  0  0  0  0  0
  -26.5077  -11.8450   19.1363 N   0  0  0  0  0  0  0  0  0  0  0  0
  -27.1053  -28.7103   20.7556 N   0  0  0  0  0  0  0  0  0  0  0  0
  -28.9778  -14.5256   20.2881 N   0  0  0  0  0  0  0  0  0  0  0  0
  -26.1095  -11.7196   16.8047 N   0  0  0  0  0  0  0  0  0  0  0  0
  -22.8426   -9.1422   18.5598 N   0  0  0  0  0  0  0  0  0  0  0  0
  -28.8794  -30.1237   22.8706 N   0  0  0  0  0  0  0  0  0  0  0  0
  -25.1350  -31.6579   21.3326 N   0  0  0  0  0  0  0  0  0  0  0  0
  -29.7688  -18.1110   20.5459 N   0  0  3  0  0  0  0  0  0  0  0  0
  -25.3804  -33.4182   24.2521 N   0  3  0  0  0  0  0  0  0  0  0  0
  -23.7389   -9.9373   16.6045 O   0  0  0  0  0  0  0  0  0  0  0  0
  -29.8151  -28.1126   22.1617 O   0  0  0  0  0  0  0  0  0  0  0  0
  -27.7629  -16.4928   20.5228 O   0  0  0  0  0  0  0  0  0  0  0  0
  -25.0517  -29.0544   21.7939 O   0  0  0  0  0  0  0  0  0  0  0  0
  -26.9211  -33.0925   21.6914 O   0  0  0  0  0  0  0  0  0  0  0  0
  -22.0052   -8.1179   23.9713 O   0  0  0  0  0  0  0  0  0  0  0  0
  -28.8518  -23.0457   19.0812 O   0  0  0  0  0  0  0  0  0  1  0  0
  -20.6448   -2.8339   23.1760 F   0  0  0  0  0  0  0  0  0  0  0  0
  -20.4852   -7.3573   21.7910 F   0  0  0  0  0  0  0  0  0  0  0  0
  1  2  1  0  0  0  0
  1  5  2  0  0  0  0
  2  6  2  0  0  0  0
  3  8  2  0  0  0  0
  3 16  1  0  0  0  0
  4  9  1  0  0  0  0
  4 16  2  0  0  0  0
  5 18  1  0  0  0  0
  6 20  1  0  0  0  0
  7 10  2  0  0  0  0
  7 19  1  0  0  0  0
  8 22  1  0  0  0  0
  9 22  2  0  0  0  0
 10 23  1  0  0  0  0
 11 12  2  0  0  0  0
 11 24  1  0  0  0  0
 12 25  1  0  0  0  0
 13 21  1  0  0  0  0
 13 23  2  0  0  0  0
 14 25  2  0  0  0  0
 14 26  1  0  0  0  0
 15 28  1  0  0  0  0
 15 29  2  0  0  0  0
 16 27  1  0  0  0  0
 17 27  1  0  0  0  0
 17 30  2  0  0  0  0
 17 32  1  0  0  0  0
 18 20  2  0  0  0  0
 18 37  1  0  0  0  0
 19 21  2  0  0  0  0
 19 38  1  0  0  0  0
 20 46  1  0  0  0  0
 21 39  1  0  0  0  0
 22 82  1  0  0  0  0
 23 83  1  0  0  0  0
 24 26  2  0  0  0  0
 24 82  1  0  0  0  0
 25 84  1  0  0  0  0
 26 85  1  0  0  0  0
 27 65  2  0  0  0  0
 28 49  1  0  0  0  0
 28 66  2  0  0  0  0
 29 67  1  0  0  0  0
 29 75  1  0  0  0  0
 30 68  1  0  0  0  0
 30 71  1  0  0  0  0
 31 57  1  0  0  0  0
 31 66  1  0  0  0  0
 31 67  2  0  0  0  0
 32 72  1  0  0  0  0
 32 77  2  0  0  0  0
 33 47  1  0  0  0  0
 33 73  1  0  0  0  0
 33 78  2  0  0  0  0
 34 58  1  0  0  0  0
 34 70  1  0  0  0  0
 34 79  2  0  0  0  0
 35 61  1  0  0  0  0
 35 69  1  0  0  0  0
 35 80  2  0  0  0  0
 36 62  1  0  0  0  0
 36 74  1  0  0  0  0
 36 81  2  0  0  0  0
 37 40  1  0  0  0  0
 38 47  1  0  0  0  0
 39 69  1  0  0  0  0
 40 42  1  0  0  0  0
 41 43  1  0  0  0  0
 41 44  1  0  0  0  0
 42 46  1  0  0  0  0
 43 48  1  0  0  0  0
 44 70  1  0  0  0  0
 45 48  1  0  0  0  0
 45 70  1  0  0  0  0
 46 73  1  0  0  0  0
 47 69  1  0  0  0  0
 48 68  1  0  0  0  0
 50 62  1  0  0  0  0
 51 63  1  0  0  0  0
 52 63  1  0  0  0  0
 53 64  1  0  0  0  0
 54 64  1  0  0  0  0
 55 64  1  0  0  0  0
 56 76  1  0  0  0  0
 57 83  1  0  0  0  0
 58 75  1  0  0  0  0
 59 60  1  0  0  0  0
 59 63  1  0  0  0  0
 60 75  1  0  0  0  0
 61 64  1  0  0  0  0
 61 74  1  0  0  0  0
 62 76  1  0  0  0  0
 65 68  1  0  0  0  0
M  CHG  1  76   1
M  ISO  4  34 100  57 101  58 100  83 101
M  END
> <Batch ID>
0048

> <Smiles>
CNC(C)C(=O)NC(C(=O)N1Cc2cc([101O:1][101CH2:1]c3nc(C)cc(N(CCC(C)C)[100CH2:0][100C:0](=O)N4CCCC(n5nc(-c6ccc(Oc7ccc(F)cc7F)cc6)c(C(N)=O)c5N)C4)n3)ccc2CC1C(=O)NC1CCCc2ccccc21)C(C)(C)C

> <Shape>
0.299

> <Color>
0.104

> <Negative vol penalty>
0.000

$$$$

  -OEChem-04052317263D

 84 92  0     1  0  0  0  0  0999 V2000
  -17.5865  -29.1256   19.1674 C   0  0  0  0  0  0  0  0  0  0  0  0
  -18.9120  -29.0479   18.7520 C   0  0  0  0  0  0  0  0  0  0  0  0
  -24.9480  -13.4971   20.9256 C   0  0  0  0  0  0  0  0  0  0  0  0
  -26.9052  -12.7260   19.7375 C   0  0  0  0  0  0  0  0  0  0  0  0
  -17.2737  -29.7212   20.3886 C   0  0  0  0  0  0  0  0  0  0  0  0
  -19.9254  -29.5668   19.5572 C   0  0  0  0  0  0  0  0  0  0  0  0
  -23.8996  -26.4502   19.9284 C   0  0  0  0  0  0  0  0  0  0  0  0
  -24.2922  -12.3048   20.6192 C   0  0  0  0  0  0  0  0  0  0  0  0
  -26.2495  -11.5337   19.4311 C   0  0  0  0  0  0  0  0  0  0  0  0
  -24.7837  -26.4147   18.8510 C   0  0  0  0  0  0  0  0  0  0  0  0
  -24.2695   -9.1150   21.7407 C   0  0  0  0  0  0  0  0  0  0  0  0
  -23.5649   -8.4812   22.7641 C   0  0  0  0  0  0  0  0  0  0  0  0
  -26.2873  -27.8755   20.0444 C   0  0  0  0  0  0  0  0  0  0  0  0
  -21.5261   -8.6789   21.4829 C   0  0  0  0  0  0  0  0  0  0  0  0
  -30.2622  -23.6193   18.6236 C   0  0  0  0  0  0  0  0  0  0  0  0
  -26.2545  -13.7078   20.4848 C   0  0  0  0  0  0  0  0  0  0  0  0
  -27.7251  -15.2074   21.9324 C   0  0  0  0  0  0  0  0  0  0  0  0
  -18.2846  -30.2390   21.2136 C   0  0  0  0  0  0  0  0  0  0  0  0
  -24.1981  -27.2087   21.0694 C   0  0  0  0  0  0  0  0  0  0  0  0
  -19.6257  -30.1711   20.7899 C   0  0  0  0  0  0  0  0  0  0  0  0
  -25.4065  -27.9170   21.1360 C   0  0  0  0  0  0  0  0  0  0  0  0
  -24.9430  -11.3230   19.8720 C   0  0  0  0  0  0  0  0  0  0  0  0
  -25.9764  -27.1297   18.9077 C   0  0  0  0  0  0  0  0  0  0  0  0
  -23.6024   -9.5309   20.5884 C   0  0  0  0  0  0  0  0  0  0  0  0
  -22.1932   -8.2631   22.6352 C   0  0  0  0  0  0  0  0  0  0  0  0
  -22.2307   -9.3128   20.4595 C   0  0  0  0  0  0  0  0  0  0  0  0
  -26.9322  -14.9395   20.8005 C   0  0  0  0  0  0  0  0  0  0  0  0
  -29.0466  -24.2514   18.2999 C   0  0  0  0  0  0  0  0  0  0  0  0
  -30.0524  -23.0917   19.8742 C   0  0  0  0  0  0  0  0  0  0  0  0
  -28.1359  -16.5072   21.7640 C   0  0  0  0  0  0  0  0  0  0  0  0
  -28.0604  -14.3575   23.0373 C   0  0  0  0  0  0  0  0  0  0  0  0
  -22.8478  -29.6866   22.5323 C   0  0  0  0  0  0  0  0  0  0  0  0
  -25.1441  -29.1281   24.7544 C   0  0  0  0  0  0  0  0  0  0  0  0
  -28.2098  -27.8199   25.4868 C   0  0  0  0  0  0  0  0  0  0  0  0
  -30.3262  -20.2932   18.1327 C   0  0  0  0  0  0  0  0  0  0  0  0
  -17.8935  -30.9160   22.5033 C   0  0  0  0  0  0  0  0  0  0  0  0
  -23.2462  -27.2151   22.2340 C   0  0  0  0  0  0  0  0  0  0  0  0
  -25.7833  -28.7302   22.3464 C   0  0  0  0  0  0  0  0  0  0  0  0
  -19.0598  -31.1060   23.4696 C   0  0  0  0  0  0  0  0  0  0  0  0
  -26.6497  -20.0502   18.4877 C   0  0  0  0  0  0  0  0  0  0  0  0
  -20.2746  -31.6663   22.7365 C   0  0  0  0  0  0  0  0  0  0  0  0
  -26.4686  -18.6856   19.1505 C   0  0  0  0  0  0  0  0  0  0  0  0
  -27.9156  -20.1043   17.6379 C   0  0  0  0  0  0  0  0  0  0  0  0
  -28.9708  -18.3595   19.0365 C   0  0  0  0  0  0  0  0  0  0  0  0
  -20.7552  -30.7003   21.6468 C   0  0  1  0  0  0  0  0  0  0  0  0
  -23.4149  -28.4333   23.1368 C   0  0  1  0  0  0  0  0  0  0  0  0
  -27.7289  -18.2863   19.9375 C   0  0  2  0  0  0  0  0  0  0  0  0
  -33.2320  -18.9937   18.9335 C   0  0  0  0  0  0  0  0  0  0  0  0
  -29.8353  -27.5498   27.3795 C   0  0  0  0  0  0  0  0  0  0  0  0
  -25.9450  -32.0597   24.4816 C   0  0  0  0  0  0  0  0  0  0  0  0
  -28.1005  -31.5052   25.6282 C   0  0  0  0  0  0  0  0  0  0  0  0
  -25.9357  -31.1947   26.8282 C   0  0  0  0  0  0  0  0  0  0  0  0
  -28.0839  -23.0973   21.4361 C   0  0  0  0  0  0  0  0  0  0  0  0
  -28.0791  -24.8673   25.3311 C   0  0  0  0  0  0  0  0  0  0  0  0
  -28.7093  -25.0018   17.0363 C   0  0  0  0  0  0  0  0  0  0  0  0
  -30.9398  -22.3147   20.7588 C   0  0  0  0  0  0  0  0  0  0  0  0
  -29.0367  -26.4952   17.1009 C   0  0  0  0  0  0  0  0  0  0  0  0
  -32.6600  -20.3969   18.9217 C   0  0  0  0  0  0  0  0  0  0  0  0
  -30.8550  -20.7900   20.5568 C   0  0  0  0  0  0  0  0  0  0  0  0
  -28.2289  -27.2455   18.1534 C   0  0  0  0  0  0  0  0  0  1  0  0
  -26.5618  -29.6003   24.9686 C   0  0  1  0  0  0  0  0  0  0  0  0
  -28.6779  -26.9224   26.6182 C   0  0  2  0  0  0  0  0  0  0  0  0
  -26.6281  -31.0763   25.4529 C   0  0  0  0  0  0  0  0  0  0  0  0
  -26.8431  -15.9850   19.9741 N   0  0  0  0  0  0  0  0  0  0  0  0
  -28.1323  -24.1367   19.2668 N   0  0  0  0  0  0  0  0  0  0  0  0
  -28.7737  -23.4264   20.2103 N   0  0  0  0  0  0  0  0  0  0  0  0
  -27.5852  -16.9226   20.5874 N   0  0  0  0  0  0  0  0  0  0  0  0
  -24.8167  -28.7100   23.4567 N   0  0  0  0  0  0  0  0  0  0  0  0
  -29.0913  -19.6787   18.3979 N   0  0  0  0  0  0  0  0  0  0  0  0
  -28.9108  -17.3238   22.5090 N   0  0  0  0  0  0  0  0  0  0  0  0
  -27.5541  -13.0507   23.0527 N   0  0  0  0  0  0  0  0  0  0  0  0
  -21.5011  -29.6075   22.2332 N   0  0  0  0  0  0  0  0  0  0  0  0
  -27.1771  -28.6436   25.8821 N   0  0  0  0  0  0  0  0  0  0  0  0
  -31.2308  -20.3980   19.2001 N   0  0  0  0  0  0  0  0  0  0  0  0
  -29.1260  -25.6056   26.0833 N   0  3  0  0  0  0  0  0  0  0  0  0
  -28.7741  -14.7506   23.9911 O   0  0  0  0  0  0  0  0  0  0  0  0
  -23.5777  -30.6543   22.3521 O   0  0  0  0  0  0  0  0  0  0  0  0
  -24.3581  -29.1234   25.7050 O   0  0  0  0  0  0  0  0  0  0  0  0
  -28.7127  -27.7954   24.3656 O   0  0  0  0  0  0  0  0  0  0  0  0
  -30.6006  -20.7320   17.0084 O   0  0  0  0  0  0  0  0  0  0  0  0
  -24.3035  -10.1593   19.5729 O   0  0  0  0  0  0  0  0  0  0  0  0
  -26.8408  -27.0973   17.8572 O   0  0  0  0  0  0  0  0  0  1  0  0
  -21.5170   -7.6530   23.6174 F   0  0  0  0  0  0  0  0  0  0  0  0
  -21.5846   -9.7090   19.3544 F   0  0  0  0  0  0  0  0  0  0  0  0
  1  2  1  0  0  0  0
  1  5  2  0  0  0  0
  2  6  2  0  0  0  0
  3  8  2  0  0  0  0
  3 16  1  0  0  0  0
  4  9  1  0  0  0  0
  4 16  2  0  0  0  0
  5 18  1  0  0  0  0
  6 20  1  0  0  0  0
  7 10  2  0  0  0  0
  7 19  1  0  0  0  0
  8 22  1  0  0  0  0
  9 22  2  0  0  0  0
 10 23  1  0  0  0  0
 11 12  2  0  0  0  0
 11 24  1  0  0  0  0
 12 25  1  0  0  0  0
 13 21  1  0  0  0  0
 13 23  2  0  0  0  0
 14 25  2  0  0  0  0
 14 26  1  0  0  0  0
 15 28  1  0  0  0  0
 15 29  2  0  0  0  0
 16 27  1  0  0  0  0
 17 27  1  0  0  0  0
 17 30  2  0  0  0  0
 17 31  1  0  0  0  0
 18 20  2  0  0  0  0
 18 36  1  0  0  0  0
 19 21  2  0  0  0  0
 19 37  1  0  0  0  0
 20 45  1  0  0  0  0
 21 38  1  0  0  0  0
 22 81  1  0  0  0  0
 23 82  1  0  0  0  0
 24 26  2  0  0  0  0
 24 81  1  0  0  0  0
 25 83  1  0  0  0  0
 26 84  1  0  0  0  0
 27 64  2  0  0  0  0
 28 55  1  0  0  0  0
 28 65  2  0  0  0  0
 29 56  1  0  0  0  0
 29 66  1  0  0  0  0
 30 67  1  0  0  0  0
 30 70  1  0  0  0  0
 31 71  1  0  0  0  0
 31 76  2  0  0  0  0
 32 46  1  0  0  0  0
 32 72  1  0  0  0  0
 32 77  2  0  0  0  0
 33 61  1  0  0  0  0
 33 68  1  0  0  0  0
 33 78  2  0  0  0  0
 34 62  1  0  0  0  0
 34 73  1  0  0  0  0
 34 79  2  0  0  0  0
 35 69  1  0  0  0  0
 35 74  1  0  0  0  0
 35 80  2  0  0  0  0
 36 39  1  0  0  0  0
 37 46  1  0  0  0  0
 38 68  1  0  0  0  0
 39 41  1  0  0  0  0
 40 42  1  0  0  0  0
 40 43  1  0  0  0  0
 41 45  1  0  0  0  0
 42 47  1  0  0  0  0
 43 69  1  0  0  0  0
 44 47  1  0  0  0  0
 44 69  1  0  0  0  0
 45 72  1  0  0  0  0
 46 68  1  0  0  0  0
 47 67  1  0  0  0  0
 48 58  1  0  0  0  0
 49 62  1  0  0  0  0
 50 63  1  0  0  0  0
 51 63  1  0  0  0  0
 52 63  1  0  0  0  0
 53 66  1  0  0  0  0
 54 75  1  0  0  0  0
 55 57  1  0  0  0  0
 56 59  1  0  0  0  0
 57 60  1  0  0  0  0
 58 74  1  0  0  0  0
 59 74  1  0  0  0  0
 60 82  1  0  0  0  0
 61 63  1  0  0  0  0
 61 73  1  0  0  0  0
 62 75  1  0  0  0  0
 64 67  1  0  0  0  0
 65 66  1  0  0  0  0
M  CHG  1  75   1
M  ISO  4  35 100  60 101  74 100  82 101
M  END
> <Batch ID>
0048

> <Smiles>
CC[100N:0](CCc1cc(CC[101CH2:1][101O:1]c2ccc3c(c2)CN(C(=O)C(NC(=O)C(C)NC)C(C)(C)C)C(C(=O)NC2CCCc4ccccc42)C3)nn1C)[100C:0](=O)N1CCCC(n2nc(-c3ccc(Oc4ccc(F)cc4F)cc3)c(C(N)=O)c2N)C1

> <Shape>
0.259

> <Color>
0.071

> <Negative vol penalty>
0.000

$$$$

  -OEChem-04052317263D

 83 91  0     1  0  0  0  0  0999 V2000
  -17.2094  -15.5768   21.1800 C   0  0  0  0  0  0  0  0  0  0  0  0
  -18.4667  -15.8394   21.7144 C   0  0  0  0  0  0  0  0  0  0  0  0
  -23.1908   -9.8191   19.9318 C   0  0  0  0  0  0  0  0  0  0  0  0
  -23.5689   -9.9995   22.3112 C   0  0  0  0  0  0  0  0  0  0  0  0
  -16.0633  -15.9180   21.8969 C   0  0  0  0  0  0  0  0  0  0  0  0
  -18.5786  -16.4445   22.9657 C   0  0  0  0  0  0  0  0  0  0  0  0
  -22.0577  -14.2183   25.8958 C   0  0  0  0  0  0  0  0  0  0  0  0
  -22.4247   -8.6723   20.1405 C   0  0  0  0  0  0  0  0  0  0  0  0
  -22.8027   -8.8527   22.5199 C   0  0  0  0  0  0  0  0  0  0  0  0
  -23.3943  -14.5199   25.6383 C   0  0  0  0  0  0  0  0  0  0  0  0
  -23.2042   -5.5061   22.2558 C   0  0  0  0  0  0  0  0  0  0  0  0
  -23.7026   -4.5448   23.1351 C   0  0  0  0  0  0  0  0  0  0  0  0
  -23.3879  -16.0863   27.4729 C   0  0  0  0  0  0  0  0  0  0  0  0
  -21.7458   -4.8046   24.5282 C   0  0  0  0  0  0  0  0  0  0  0  0
  -29.2818  -15.6098   23.9961 C   0  0  0  0  0  0  0  0  0  0  0  0
  -28.7125  -15.5841   26.1249 C   0  0  0  0  0  0  0  0  0  0  0  0
  -23.7630  -10.4827   21.0172 C   0  0  0  0  0  0  0  0  0  0  0  0
  -24.1014  -12.9993   20.7735 C   0  0  0  0  0  0  0  0  0  0  0  0
  -16.1613  -16.5188   23.1619 C   0  0  0  0  0  0  0  0  0  0  0  0
  -21.3719  -14.8575   26.9386 C   0  0  0  0  0  0  0  0  0  0  0  0
  -17.4328  -16.7953   23.6997 C   0  0  0  0  0  0  0  0  0  0  0  0
  -22.0434  -15.7891   27.7431 C   0  0  0  0  0  0  0  0  0  0  0  0
  -22.2306   -8.1892   21.4345 C   0  0  0  0  0  0  0  0  0  0  0  0
  -24.0588  -15.4562   26.4251 C   0  0  0  0  0  0  0  0  0  0  0  0
  -21.9766   -6.1167   22.5128 C   0  0  0  0  0  0  0  0  0  0  0  0
  -22.9734   -4.1940   24.2712 C   0  0  0  0  0  0  0  0  0  0  0  0
  -21.2475   -5.7659   23.6490 C   0  0  0  0  0  0  0  0  0  0  0  0
  -24.5550  -11.6670   20.8023 C   0  0  0  0  0  0  0  0  0  0  0  0
  -30.2669  -15.0477   24.7734 C   0  0  0  0  0  0  0  0  0  0  0  0
  -25.2326  -13.7421   20.5383 C   0  0  0  0  0  0  0  0  0  0  0  0
  -22.7761  -13.5191   20.9442 C   0  0  0  0  0  0  0  0  0  0  0  0
  -18.8371  -16.7670   27.1173 C   0  0  0  0  0  0  0  0  0  0  0  0
  -19.2764  -16.4050   30.3108 C   0  0  0  0  0  0  0  0  0  0  0  0
  -21.4055  -15.6863   32.8793 C   0  0  0  0  0  0  0  0  0  0  0  0
  -31.0474  -12.7528   21.5680 C   0  0  0  0  0  0  0  0  0  0  0  0
  -14.8941  -16.9127   23.8786 C   0  0  0  0  0  0  0  0  0  0  0  0
  -19.9379  -14.5013   27.2202 C   0  0  0  0  0  0  0  0  0  0  0  0
  -21.3580  -16.4883   28.8876 C   0  0  0  0  0  0  0  0  0  0  0  0
  -15.1003  -17.2096   25.3617 C   0  0  0  0  0  0  0  0  0  0  0  0
  -29.5202  -13.4701   18.4328 C   0  0  0  0  0  0  0  0  0  0  0  0
  -16.3152  -18.1099   25.5621 C   0  0  0  0  0  0  0  0  0  0  0  0
  -28.0336  -13.2095   18.6819 C   0  0  0  0  0  0  0  0  0  0  0  0
  -30.4015  -12.4808   19.1920 C   0  0  0  0  0  0  0  0  0  0  0  0
  -28.6479  -12.1378   20.8894 C   0  0  0  0  0  0  0  0  0  0  0  0
  -17.5954  -17.4277   25.0649 C   0  0  1  0  0  0  0  0  0  0  0  0
  -19.1904  -15.5907   27.9829 C   0  0  1  0  0  0  0  0  0  0  0  0
  -27.7204  -13.1455   20.1889 C   0  0  2  0  0  0  0  0  0  0  0  0
  -21.4844  -15.5071   35.3811 C   0  0  0  0  0  0  0  0  0  0  0  0
  -25.4826  -18.6948   24.7748 C   0  0  0  0  0  0  0  0  0  0  0  0
  -27.9603  -18.9546   24.8216 C   0  0  0  0  0  0  0  0  0  0  0  0
  -19.3026  -19.4485   30.5256 C   0  0  0  0  0  0  0  0  0  0  0  0
  -20.3118  -19.2094   32.8044 C   0  0  0  0  0  0  0  0  0  0  0  0
  -18.0408  -18.2851   32.3447 C   0  0  0  0  0  0  0  0  0  0  0  0
  -22.1474  -12.8235   32.7667 C   0  0  0  0  0  0  0  0  0  0  0  0
  -31.5645  -14.5035   24.3454 C   0  0  0  0  0  0  0  0  0  0  0  0
  -31.5373  -13.0040   23.9880 C   0  0  0  0  0  0  0  0  0  0  0  0
  -25.8080  -15.6402   24.8244 C   0  0  0  0  0  0  0  0  0  1  0  0
  -20.0689  -17.1321   31.3702 C   0  0  1  0  0  0  0  0  0  0  0  0
  -21.2661  -14.7606   34.0743 C   0  0  2  0  0  0  0  0  0  0  0  0
  -26.7971  -18.0205   25.1887 C   0  0  0  0  0  0  0  0  0  0  0  0
  -26.9644  -16.6169   24.5295 C   0  0  1  0  0  0  0  0  0  0  0  0
  -19.4437  -18.5072   31.7385 C   0  0  0  0  0  0  0  0  0  0  0  0
  -29.9062  -15.0344   26.0975 N   0  0  0  0  0  0  0  0  0  0  0  0
  -25.8716  -11.5660   20.6012 N   0  0  0  0  0  0  0  0  0  0  0  0
  -28.2924  -15.9481   24.8758 N   0  0  0  0  0  0  0  0  0  0  0  0
  -26.2550  -12.8444   20.4438 N   0  0  0  0  0  0  0  0  0  0  0  0
  -19.9539  -16.1107   29.1191 N   0  0  0  0  0  0  0  0  0  0  0  0
  -30.0549  -12.4696   20.6153 N   0  0  0  0  0  0  0  0  0  0  0  0
  -25.4424  -15.0690   20.4051 N   0  0  0  0  0  0  0  0  0  0  0  0
  -21.7296  -12.6167   21.1782 N   0  0  0  0  0  0  0  0  0  0  0  0
  -18.0516  -16.4470   26.0264 N   0  0  0  0  0  0  0  0  0  0  0  0
  -20.1895  -16.2102   32.4944 N   0  0  0  0  0  0  0  0  0  0  0  0
  -30.6330  -12.7274   22.8941 N   0  0  0  0  0  0  0  0  0  0  0  0
  -22.2623  -13.6553   33.9923 N   0  3  0  0  0  0  0  0  0  0  0  0
  -22.5248  -14.7461   20.8746 O   0  0  0  0  0  0  0  0  0  0  0  0
  -19.2455  -17.8826   27.4178 O   0  0  0  0  0  0  0  0  0  0  0  0
  -18.1017  -16.1027   30.5352 O   0  0  0  0  0  0  0  0  0  0  0  0
  -22.4857  -15.9241   32.3434 O   0  0  0  0  0  0  0  0  0  0  0  0
  -32.2150  -13.0146   21.2595 O   0  0  0  0  0  0  0  0  0  0  0  0
  -21.4828   -7.0703   21.6385 O   0  0  0  0  0  0  0  0  0  0  0  0
  -25.3632  -15.7529   26.1756 O   0  0  0  0  0  0  0  0  0  1  0  0
  -23.4514   -3.2698   25.1147 F   0  0  0  0  0  0  0  0  0  0  0  0
  -20.0670   -6.3482   23.9005 F   0  0  0  0  0  0  0  0  0  0  0  0
  1  2  1  0  0  0  0
  1  5  2  0  0  0  0
  2  6  2  0  0  0  0
  3  8  2  0  0  0  0
  3 17  1  0  0  0  0
  4  9  1  0  0  0  0
  4 17  2  0  0  0  0
  5 19  1  0  0  0  0
  6 21  1  0  0  0  0
  7 10  2  0  0  0  0
  7 20  1  0  0  0  0
  8 23  1  0  0  0  0
  9 23  2  0  0  0  0
 10 24  1  0  0  0  0
 11 12  2  0  0  0  0
 11 25  1  0  0  0  0
 12 26  1  0  0  0  0
 13 22  1  0  0  0  0
 13 24  2  0  0  0  0
 14 26  2  0  0  0  0
 14 27  1  0  0  0  0
 15 29  2  0  0  0  0
 15 65  1  0  0  0  0
 16 63  2  0  0  0  0
 16 65  1  0  0  0  0
 17 28  1  0  0  0  0
 18 28  1  0  0  0  0
 18 30  2  0  0  0  0
 18 31  1  0  0  0  0
 19 21  2  0  0  0  0
 19 36  1  0  0  0  0
 20 22  2  0  0  0  0
 20 37  1  0  0  0  0
 21 45  1  0  0  0  0
 22 38  1  0  0  0  0
 23 80  1  0  0  0  0
 24 81  1  0  0  0  0
 25 27  2  0  0  0  0
 25 80  1  0  0  0  0
 26 82  1  0  0  0  0
 27 83  1  0  0  0  0
 28 64  2  0  0  0  0
 29 55  1  0  0  0  0
 29 63  1  0  0  0  0
 30 66  1  0  0  0  0
 30 69  1  0  0  0  0
 31 70  1  0  0  0  0
 31 75  2  0  0  0  0
 32 46  1  0  0  0  0
 32 71  1  0  0  0  0
 32 76  2  0  0  0  0
 33 58  1  0  0  0  0
 33 67  1  0  0  0  0
 33 77  2  0  0  0  0
 34 59  1  0  0  0  0
 34 72  1  0  0  0  0
 34 78  2  0  0  0  0
 35 68  1  0  0  0  0
 35 73  1  0  0  0  0
 35 79  2  0  0  0  0
 36 39  1  0  0  0  0
 37 46  1  0  0  0  0
 38 67  1  0  0  0  0
 39 41  1  0  0  0  0
 40 42  1  0  0  0  0
 40 43  1  0  0  0  0
 41 45  1  0  0  0  0
 42 47  1  0  0  0  0
 43 68  1  0  0  0  0
 44 47  1  0  0  0  0
 44 68  1  0  0  0  0
 45 71  1  0  0  0  0
 46 67  1  0  0  0  0
 47 66  1  0  0  0  0
 48 59  1  0  0  0  0
 49 60  1  0  0  0  0
 50 60  1  0  0  0  0
 51 62  1  0  0  0  0
 52 62  1  0  0  0  0
 53 62  1  0  0  0  0
 54 74  1  0  0  0  0
 55 56  1  0  0  0  0
 56 73  1  0  0  0  0
 57 61  1  0  0  0  0
 57 81  1  0  0  0  0
 58 62  1  0  0  0  0
 58 72  1  0  0  0  0
 59 74  1  0  0  0  0
 60 61  1  0  0  0  0
 61 65  1  0  0  0  0
 64 66  1  0  0  0  0
M  CHG  1  74   1
M  ISO  4  35 100  57 101  73 100  81 101
M  END
> <Batch ID>
0048

> <Smiles>
CNC(C)C(=O)NC(C(=O)N1Cc2cc([101O:1][101CH2:1]C(C(C)C)n3cnc(CC[100NH:0][100C:0](=O)N4CCCC(n5nc(-c6ccc(Oc7ccc(F)cc7F)cc6)c(C(N)=O)c5N)C4)c3)ccc2CC1C(=O)NC1CCCc2ccccc21)C(C)(C)C

> <Shape>
0.142

> <Color>
0.178

> <Negative vol penalty>
0.000

$$$$

  -OEChem-04052317263D

 83 91  0     1  0  0  0  0  0999 V2000
  -28.6730  -25.1388   16.1718 C   0  0  0  0  0  0  0  0  0  0  0  0
  -27.4982  -25.1637   16.9165 C   0  0  0  0  0  0  0  0  0  0  0  0
  -28.4761  -18.8875   20.4284 C   0  0  0  0  0  0  0  0  0  0  0  0
  -26.5076  -17.4870   20.3991 C   0  0  0  0  0  0  0  0  0  0  0  0
  -29.8252  -25.7462   16.6691 C   0  0  0  0  0  0  0  0  0  0  0  0
  -27.4753  -25.7951   18.1596 C   0  0  0  0  0  0  0  0  0  0  0  0
  -23.3759  -28.7013   18.7871 C   0  0  0  0  0  0  0  0  0  0  0  0
  -29.2654  -17.7723   20.7087 C   0  0  0  0  0  0  0  0  0  0  0  0
  -27.2970  -16.3717   20.6793 C   0  0  0  0  0  0  0  0  0  0  0  0
  -22.1802  -28.0565   19.1007 C   0  0  0  0  0  0  0  0  0  0  0  0
  -28.8396  -13.0982   21.0304 C   0  0  0  0  0  0  0  0  0  0  0  0
  -28.6052  -11.9358   20.2960 C   0  0  0  0  0  0  0  0  0  0  0  0
  -22.4872  -28.6299   21.4237 C   0  0  0  0  0  0  0  0  0  0  0  0
  -29.1174  -13.1221   18.2546 C   0  0  0  0  0  0  0  0  0  0  0  0
  -18.5765  -24.9387   20.4835 C   0  0  0  0  0  0  0  0  0  0  0  0
  -27.0971  -18.7449   20.2736 C   0  0  0  0  0  0  0  0  0  0  0  0
  -25.9412  -20.4008   18.7149 C   0  0  0  0  0  0  0  0  0  0  0  0
  -29.8139  -26.3938   17.9145 C   0  0  0  0  0  0  0  0  0  0  0  0
  -24.1430  -29.3069   19.7928 C   0  0  0  0  0  0  0  0  0  0  0  0
  -28.6288  -26.4106   18.6746 C   0  0  0  0  0  0  0  0  0  0  0  0
  -23.6909  -29.2840   21.1199 C   0  0  0  0  0  0  0  0  0  0  0  0
  -28.6759  -16.5143   20.8342 C   0  0  0  0  0  0  0  0  0  0  0  0
  -21.7371  -28.0182   20.4195 C   0  0  0  0  0  0  0  0  0  0  0  0
  -29.2128  -14.2727   20.3769 C   0  0  0  0  0  0  0  0  0  0  0  0
  -28.7441  -11.9477   18.9081 C   0  0  0  0  0  0  0  0  0  0  0  0
  -29.3518  -14.2846   18.9890 C   0  0  0  0  0  0  0  0  0  0  0  0
  -26.2811  -19.8968   19.9846 C   0  0  0  0  0  0  0  0  0  0  0  0
  -18.8527  -25.2652   21.7929 C   0  0  0  0  0  0  0  0  0  0  0  0
  -18.8996  -22.7271   20.9667 C   0  0  0  0  0  0  0  0  0  0  0  0
  -19.1766  -23.0535   22.2760 C   0  0  0  0  0  0  0  0  0  0  0  0
  -25.1565  -21.4966   18.9792 C   0  0  0  0  0  0  0  0  0  0  0  0
  -26.3023  -19.9212   17.4128 C   0  0  0  0  0  0  0  0  0  0  0  0
  -27.0715  -28.8711   20.9492 C   0  0  0  0  0  0  0  0  0  0  0  0
  -21.7792  -22.9617   23.7289 C   0  0  0  0  0  0  0  0  0  0  0  0
  -26.3709  -31.5362   22.6606 C   0  0  0  0  0  0  0  0  0  0  0  0
  -23.9845  -33.5669   24.0126 C   0  0  0  0  0  0  0  0  0  0  0  0
  -31.0966  -26.9953   18.4317 C   0  0  0  0  0  0  0  0  0  0  0  0
  -25.4170  -30.0215   19.4342 C   0  0  0  0  0  0  0  0  0  0  0  0
  -24.4673  -29.9364   22.2335 C   0  0  0  0  0  0  0  0  0  0  0  0
  -30.8897  -27.9680   19.5898 C   0  0  0  0  0  0  0  0  0  0  0  0
  -24.4269  -24.8838   22.2676 C   0  0  0  0  0  0  0  0  0  0  0  0
  -29.9403  -27.3721   20.6243 C   0  0  0  0  0  0  0  0  0  0  0  0
  -25.1884  -23.8624   21.4236 C   0  0  0  0  0  0  0  0  0  0  0  0
  -23.8786  -24.2551   23.5448 C   0  0  0  0  0  0  0  0  0  0  0  0
  -23.7822  -22.0299   22.4674 C   0  0  0  0  0  0  0  0  0  0  0  0
  -28.5577  -27.1071   20.0163 C   0  0  1  0  0  0  0  0  0  0  0  0
  -26.3763  -30.1599   20.6123 C   0  0  1  0  0  0  0  0  0  0  0  0
  -24.3265  -22.6165   21.1529 C   0  0  2  0  0  0  0  0  0  0  0  0
  -18.9036  -21.2059   18.9736 C   0  0  0  0  0  0  0  0  0  0  0  0
  -21.3194  -20.6509   24.4388 C   0  0  0  0  0  0  0  0  0  0  0  0
  -23.7185  -35.6486   25.3887 C   0  0  0  0  0  0  0  0  0  0  0  0
  -27.1222  -29.9708   25.1696 C   0  0  0  0  0  0  0  0  0  0  0  0
  -25.9565  -31.7221   26.5269 C   0  0  0  0  0  0  0  0  0  0  0  0
  -27.9328  -32.3364   25.1341 C   0  0  0  0  0  0  0  0  0  0  0  0
  -22.5337  -34.9572   21.8398 C   0  0  0  0  0  0  0  0  0  0  0  0
  -18.8215  -26.7046   22.2463 C   0  0  0  0  0  0  0  0  0  0  0  0
  -18.9237  -21.3128   20.4965 C   0  0  0  0  0  0  0  0  0  0  0  0
  -19.5132  -22.0076   23.2832 C   0  0  0  0  0  0  0  0  0  0  0  0
  -20.1767  -27.3881   22.1000 C   0  0  0  0  0  0  0  0  0  1  0  0
  -21.0229  -21.7053   23.3776 C   0  0  1  0  0  0  0  0  0  0  0  0
  -25.7346  -31.8086   24.0022 C   0  0  1  0  0  0  0  0  0  0  0  0
  -23.8105  -35.0747   23.9833 C   0  0  2  0  0  0  0  0  0  0  0  0
  -26.6726  -31.4454   25.1877 C   0  0  0  0  0  0  0  0  0  0  0  0
  -18.5949  -23.6638   20.0469 N   0  0  0  0  0  0  0  0  0  0  0  0
  -25.7555  -20.6136   20.9815 N   0  0  0  0  0  0  0  0  0  0  0  0
  -19.1578  -24.3285   22.7127 N   0  0  0  0  0  0  0  0  0  0  0  0
  -25.0775  -21.5794   20.3383 N   0  0  0  0  0  0  0  0  0  0  0  0
  -25.7098  -30.6173   21.8333 N   0  0  0  0  0  0  0  0  0  0  0  0
  -23.0844  -23.0620   23.2467 N   0  0  0  0  0  0  0  0  0  0  0  0
  -24.5334  -22.3879   18.1794 N   0  0  0  0  0  0  0  0  0  0  0  0
  -27.1147  -18.7827   17.3218 N   0  0  0  0  0  0  0  0  0  0  0  0
  -27.8085  -28.3405   19.9076 N   0  0  0  0  0  0  0  0  0  0  0  0
  -25.3148  -33.2056   23.9787 N   0  0  0  0  0  0  0  0  0  0  0  0
  -22.5682  -35.4384   23.2449 N   0  3  0  0  0  0  0  0  0  0  0  0
  -25.9297  -20.4952   16.3616 O   0  0  0  0  0  0  0  0  0  0  0  0
  -26.9497  -28.3943   22.0714 O   0  0  0  0  0  0  0  0  0  0  0  0
  -21.2239  -23.8283   24.4093 O   0  0  0  0  0  0  0  0  0  0  0  0
  -27.4122  -32.1226   22.3549 O   0  0  0  0  0  0  0  0  0  0  0  0
  -23.0355  -32.7877   24.0645 O   0  0  0  0  0  0  0  0  0  0  0  0
  -29.4459  -15.4258   21.1074 O   0  0  0  0  0  0  0  0  0  0  0  0
  -20.5707  -27.3890   20.7284 O   0  0  0  0  0  0  0  0  0  1  0  0
  -28.5205  -10.8309   18.2032 F   0  0  0  0  0  0  0  0  0  0  0  0
  -29.7113  -15.4096   18.3557 F   0  0  0  0  0  0  0  0  0  0  0  0
  1  2  1  0  0  0  0
  1  5  2  0  0  0  0
  2  6  2  0  0  0  0
  3  8  2  0  0  0  0
  3 16  1  0  0  0  0
  4  9  1  0  0  0  0
  4 16  2  0  0  0  0
  5 18  1  0  0  0  0
  6 20  1  0  0  0  0
  7 10  2  0  0  0  0
  7 19  1  0  0  0  0
  8 22  1  0  0  0  0
  9 22  2  0  0  0  0
 10 23  1  0  0  0  0
 11 12  2  0  0  0  0
 11 24  1  0  0  0  0
 12 25  1  0  0  0  0
 13 21  1  0  0  0  0
 13 23  2  0  0  0  0
 14 25  2  0  0  0  0
 14 26  1  0  0  0  0
 15 28  1  0  0  0  0
 15 64  2  0  0  0  0
 16 27  1  0  0  0  0
 17 27  1  0  0  0  0
 17 31  2  0  0  0  0
 17 32  1  0  0  0  0
 18 20  2  0  0  0  0
 18 37  1  0  0  0  0
 19 21  2  0  0  0  0
 19 38  1  0  0  0  0
 20 46  1  0  0  0  0
 21 39  1  0  0  0  0
 22 80  1  0  0  0  0
 23 81  1  0  0  0  0
 24 26  2  0  0  0  0
 24 80  1  0  0  0  0
 25 82  1  0  0  0  0
 26 83  1  0  0  0  0
 27 65  2  0  0  0  0
 28 56  1  0  0  0  0
 28 66  2  0  0  0  0
 29 30  2  0  0  0  0
 29 57  1  0  0  0  0
 29 64  1  0  0  0  0
 30 58  1  0  0  0  0
 30 66  1  0  0  0  0
 31 67  1  0  0  0  0
 31 70  1  0  0  0  0
 32 71  1  0  0  0  0
 32 75  2  0  0  0  0
 33 47  1  0  0  0  0
 33 72  1  0  0  0  0
 33 76  2  0  0  0  0
 34 60  1  0  0  0  0
 34 69  1  0  0  0  0
 34 77  2  0  0  0  0
 35 61  1  0  0  0  0
 35 68  1  0  0  0  0
 35 78  2  0  0  0  0
 36 62  1  0  0  0  0
 36 73  1  0  0  0  0
 36 79  2  0  0  0  0
 37 40  1  0  0  0  0
 38 47  1  0  0  0  0
 39 68  1  0  0  0  0
 40 42  1  0  0  0  0
 41 43  1  0  0  0  0
 41 44  1  0  0  0  0
 42 46  1  0  0  0  0
 43 48  1  0  0  0  0
 44 69  1  0  0  0  0
 45 48  1  0  0  0  0
 45 69  1  0  0  0  0
 46 72  1  0  0  0  0
 47 68  1  0  0  0  0
 48 67  1  0  0  0  0
 49 57  1  0  0  0  0
 50 60  1  0  0  0  0
 51 62  1  0  0  0  0
 52 63  1  0  0  0  0
 53 63  1  0  0  0  0
 54 63  1  0  0  0  0
 55 74  1  0  0  0  0
 56 59  1  0  0  0  0
 58 60  1  0  0  0  0
 59 81  1  0  0  0  0
 61 63  1  0  0  0  0
 61 73  1  0  0  0  0
 62 74  1  0  0  0  0
 65 67  1  0  0  0  0
M  CHG  1  74   1
M  ISO  4  34 100  59 101  60 100  81 101
M  END
> <Batch ID>
0048

> <Smiles>
CCc1ncc(C[101CH2:1][101O:1]c2ccc3c(c2)CN(C(=O)C(NC(=O)C(C)NC)C(C)(C)C)C(C(=O)NC2CCCc4ccccc42)C3)nc1C[100CH:0](C)[100C:0](=O)N1CCCC(n2nc(-c3ccc(Oc4ccc(F)cc4F)cc3)c(C(N)=O)c2N)C1

> <Shape>
0.255

> <Color>
0.069

> <Negative vol penalty>
0.000

$$$$

  -OEChem-04052317263D

 82 90  0     1  0  0  0  0  0999 V2000
  -30.6694  -27.0417   18.1646 C   0  0  0  0  0  0  0  0  0  0  0  0
  -29.8411  -26.0342   18.6487 C   0  0  0  0  0  0  0  0  0  0  0  0
  -23.1867   -9.8185   19.9320 C   0  0  0  0  0  0  0  0  0  0  0  0
  -23.5658   -9.9983   22.3113 C   0  0  0  0  0  0  0  0  0  0  0  0
  -31.9838  -27.1405   18.6191 C   0  0  0  0  0  0  0  0  0  0  0  0
  -30.3272  -25.1242   19.5869 C   0  0  0  0  0  0  0  0  0  0  0  0
  -28.1960  -21.2210   25.2029 C   0  0  0  0  0  0  0  0  0  0  0  0
  -22.4191   -8.6728   20.1409 C   0  0  0  0  0  0  0  0  0  0  0  0
  -22.7981   -8.8526   22.5202 C   0  0  0  0  0  0  0  0  0  0  0  0
  -28.2157  -19.9082   25.6718 C   0  0  0  0  0  0  0  0  0  0  0  0
  -23.1950   -5.5054   22.2558 C   0  0  0  0  0  0  0  0  0  0  0  0
  -23.6924   -4.5435   23.1349 C   0  0  0  0  0  0  0  0  0  0  0  0
  -30.4791  -20.2242   26.4439 C   0  0  0  0  0  0  0  0  0  0  0  0
  -21.7365   -4.8058   24.5287 C   0  0  0  0  0  0  0  0  0  0  0  0
  -31.1140  -17.1665   23.4905 C   0  0  0  0  0  0  0  0  0  0  0  0
  -23.7601  -10.4813   21.0172 C   0  0  0  0  0  0  0  0  0  0  0  0
  -24.1019  -12.9975   20.7735 C   0  0  0  0  0  0  0  0  0  0  0  0
  -32.4832  -26.2372   19.5705 C   0  0  0  0  0  0  0  0  0  0  0  0
  -29.3234  -22.0433   25.3415 C   0  0  0  0  0  0  0  0  0  0  0  0
  -31.6499  -25.2103   20.0536 C   0  0  0  0  0  0  0  0  0  0  0  0
  -30.4703  -21.5479   25.9783 C   0  0  0  0  0  0  0  0  0  0  0  0
  -30.7103  -16.0128   24.1170 C   0  0  0  0  0  0  0  0  0  0  0  0
  -22.2247   -8.1898   21.4349 C   0  0  0  0  0  0  0  0  0  0  0  0
  -29.3583  -19.4087   26.2898 C   0  0  0  0  0  0  0  0  0  0  0  0
  -21.9684   -6.1177   22.5133 C   0  0  0  0  0  0  0  0  0  0  0  0
  -22.9632   -4.1936   24.2713 C   0  0  0  0  0  0  0  0  0  0  0  0
  -21.2392   -5.7678   23.6497 C   0  0  0  0  0  0  0  0  0  0  0  0
  -24.5537  -11.6645   20.8020 C   0  0  0  0  0  0  0  0  0  0  0  0
  -30.3743  -15.1400   23.0648 C   0  0  0  0  0  0  0  0  0  0  0  0
  -25.2339  -13.7388   20.5379 C   0  0  0  0  0  0  0  0  0  0  0  0
  -22.7774  -13.5190   20.9447 C   0  0  0  0  0  0  0  0  0  0  0  0
  -31.2784  -23.5285   23.3226 C   0  0  0  0  0  0  0  0  0  0  0  0
  -32.5097  -24.7828   26.0490 C   0  0  0  0  0  0  0  0  0  0  0  0
  -32.9796  -24.4937   29.4168 C   0  0  0  0  0  0  0  0  0  0  0  0
  -31.0746  -12.2006   21.5669 C   0  0  0  0  0  0  0  0  0  0  0  0
  -33.9252  -26.3550   19.9965 C   0  0  0  0  0  0  0  0  0  0  0  0
  -29.2769  -23.4656   24.8543 C   0  0  0  0  0  0  0  0  0  0  0  0
  -31.6999  -22.3964   26.1699 C   0  0  0  0  0  0  0  0  0  0  0  0
  -34.2491  -25.5798   21.2710 C   0  0  0  0  0  0  0  0  0  0  0  0
  -29.5278  -13.4800   18.4569 C   0  0  0  0  0  0  0  0  0  0  0  0
  -33.6615  -24.1737   21.2045 C   0  0  0  0  0  0  0  0  0  0  0  0
  -28.0430  -13.2018   18.6845 C   0  0  0  0  0  0  0  0  0  0  0  0
  -30.4121  -12.4884   19.2069 C   0  0  0  0  0  0  0  0  0  0  0  0
  -28.6389  -12.1288   20.8922 C   0  0  0  0  0  0  0  0  0  0  0  0
  -32.1330  -24.2193   21.0903 C   0  0  1  0  0  0  0  0  0  0  0  0
  -30.6601  -24.0516   24.5882 C   0  0  1  0  0  0  0  0  0  0  0  0
  -27.7208  -13.1387   20.1877 C   0  0  2  0  0  0  0  0  0  0  0  0
  -34.0570  -25.6561   31.3624 C   0  0  0  0  0  0  0  0  0  0  0  0
  -35.2452  -23.8061   25.1145 C   0  0  0  0  0  0  0  0  0  0  0  0
  -36.0813  -24.1280   27.4523 C   0  0  0  0  0  0  0  0  0  0  0  0
  -35.2476  -26.0837   26.1475 C   0  0  0  0  0  0  0  0  0  0  0  0
  -31.3101  -17.8451   21.0863 C   0  0  0  0  0  0  0  0  0  0  0  0
  -31.9294  -12.5726   23.8496 C   0  0  0  0  0  0  0  0  0  0  0  0
  -30.3857  -24.8298   30.8016 C   0  0  0  0  0  0  0  0  0  0  0  0
  -30.6457  -15.7527   25.6008 C   0  0  0  0  0  0  0  0  0  0  0  0
  -29.8770  -13.7565   23.1630 C   0  0  0  0  0  0  0  0  0  0  0  0
  -29.2277  -15.8028   26.1739 C   0  0  0  0  0  0  0  0  0  0  0  0
  -28.5759  -17.1754   26.0530 C   0  0  0  0  0  0  0  0  0  1  0  0
  -33.5957  -24.3784   27.0165 C   0  0  1  0  0  0  0  0  0  0  0  0
  -32.7829  -25.4845   30.5500 C   0  0  2  0  0  0  0  0  0  0  0  0
  -35.0201  -24.5822   26.4275 C   0  0  0  0  0  0  0  0  0  0  0  0
  -25.8701  -11.5618   20.6005 N   0  0  0  0  0  0  0  0  0  0  0  0
  -30.5492  -15.6919   21.8612 N   0  0  0  0  0  0  0  0  0  0  0  0
  -30.9995  -16.9241   22.1532 N   0  0  0  0  0  0  0  0  0  0  0  0
  -26.2552  -12.8397   20.4431 N   0  0  0  0  0  0  0  0  0  0  0  0
  -31.6075  -23.7784   25.6708 N   0  0  0  0  0  0  0  0  0  0  0  0
  -30.0560  -12.4166   20.6243 N   0  0  0  0  0  0  0  0  0  0  0  0
  -25.4455  -15.0654   20.4047 N   0  0  0  0  0  0  0  0  0  0  0  0
  -21.7297  -12.6181   21.1790 N   0  0  0  0  0  0  0  0  0  0  0  0
  -31.5382  -24.5037   22.3786 N   0  0  0  0  0  0  0  0  0  0  0  0
  -33.3452  -25.1231   28.2457 N   0  0  0  0  0  0  0  0  0  0  0  0
  -30.8956  -12.7593   22.8415 N   0  0  0  0  0  0  0  0  0  0  0  0
  -31.7020  -25.0183   31.4639 N   0  3  0  0  0  0  0  0  0  0  0  0
  -22.5277  -14.7464   20.8751 O   0  0  0  0  0  0  0  0  0  0  0  0
  -31.5044  -22.3293   23.2113 O   0  0  0  0  0  0  0  0  0  0  0  0
  -32.4594  -25.9486   25.6491 O   0  0  0  0  0  0  0  0  0  0  0  0
  -32.8279  -23.2822   29.5574 O   0  0  0  0  0  0  0  0  0  0  0  0
  -32.0908  -11.5538   21.2824 O   0  0  0  0  0  0  0  0  0  0  0  0
  -21.4755   -7.0720   21.6392 O   0  0  0  0  0  0  0  0  0  0  0  0
  -29.3804  -18.1274   26.7478 O   0  0  0  0  0  0  0  0  0  1  0  0
  -23.4403   -3.2686   25.1145 F   0  0  0  0  0  0  0  0  0  0  0  0
  -20.0596   -6.3517   23.9017 F   0  0  0  0  0  0  0  0  0  0  0  0
  1  2  1  0  0  0  0
  1  5  2  0  0  0  0
  2  6  2  0  0  0  0
  3  8  2  0  0  0  0
  3 16  1  0  0  0  0
  4  9  1  0  0  0  0
  4 16  2  0  0  0  0
  5 18  1  0  0  0  0
  6 20  1  0  0  0  0
  7 10  2  0  0  0  0
  7 19  1  0  0  0  0
  8 23  1  0  0  0  0
  9 23  2  0  0  0  0
 10 24  1  0  0  0  0
 11 12  2  0  0  0  0
 11 25  1  0  0  0  0
 12 26  1  0  0  0  0
 13 21  1  0  0  0  0
 13 24  2  0  0  0  0
 14 26  2  0  0  0  0
 14 27  1  0  0  0  0
 15 22  2  0  0  0  0
 15 64  1  0  0  0  0
 16 28  1  0  0  0  0
 17 28  1  0  0  0  0
 17 30  2  0  0  0  0
 17 31  1  0  0  0  0
 18 20  2  0  0  0  0
 18 36  1  0  0  0  0
 19 21  2  0  0  0  0
 19 37  1  0  0  0  0
 20 45  1  0  0  0  0
 21 38  1  0  0  0  0
 22 29  1  0  0  0  0
 22 55  1  0  0  0  0
 23 79  1  0  0  0  0
 24 80  1  0  0  0  0
 25 27  2  0  0  0  0
 25 79  1  0  0  0  0
 26 81  1  0  0  0  0
 27 82  1  0  0  0  0
 28 62  2  0  0  0  0
 29 56  1  0  0  0  0
 29 63  2  0  0  0  0
 30 65  1  0  0  0  0
 30 68  1  0  0  0  0
 31 69  1  0  0  0  0
 31 74  2  0  0  0  0
 32 46  1  0  0  0  0
 32 70  1  0  0  0  0
 32 75  2  0  0  0  0
 33 59  1  0  0  0  0
 33 66  1  0  0  0  0
 33 76  2  0  0  0  0
 34 60  1  0  0  0  0
 34 71  1  0  0  0  0
 34 77  2  0  0  0  0
 35 67  1  0  0  0  0
 35 72  1  0  0  0  0
 35 78  2  0  0  0  0
 36 39  1  0  0  0  0
 37 46  1  0  0  0  0
 38 66  1  0  0  0  0
 39 41  1  0  0  0  0
 40 42  1  0  0  0  0
 40 43  1  0  0  0  0
 41 45  1  0  0  0  0
 42 47  1  0  0  0  0
 43 67  1  0  0  0  0
 44 47  1  0  0  0  0
 44 67  1  0  0  0  0
 45 70  1  0  0  0  0
 46 66  1  0  0  0  0
 47 65  1  0  0  0  0
 48 60  1  0  0  0  0
 49 61  1  0  0  0  0
 50 61  1  0  0  0  0
 51 61  1  0  0  0  0
 52 64  1  0  0  0  0
 53 72  1  0  0  0  0
 54 73  1  0  0  0  0
 55 57  1  0  0  0  0
 56 72  1  0  0  0  0
 57 58  1  0  0  0  0
 58 80  1  0  0  0  0
 59 61  1  0  0  0  0
 59 71  1  0  0  0  0
 60 73  1  0  0  0  0
 62 65  1  0  0  0  0
 63 64  1  0  0  0  0
M  CHG  1  73   1
M  ISO  4  35 100  58 101  72 100  80 101
M  END
> <Batch ID>
0048

> <Smiles>
CNC(C)C(=O)NC(C(=O)N1Cc2cc([101O:1][101CH2:1]CCc3cn(C)nc3C[100N:0](C)[100C:0](=O)N3CCCC(n4nc(-c5ccc(Oc6ccc(F)cc6F)cc5)c(C(N)=O)c4N)C3)ccc2CC1C(=O)NC1CCCc2ccccc21)C(C)(C)C

> <Shape>
0.194

> <Color>
0.190

> <Negative vol penalty>
0.000

$$$$

  -OEChem-04052317263D

 86 94  0     1  0  0  0  0  0999 V2000
  -20.6358  -10.4711   20.8089 C   0  0  0  0  0  0  0  0  0  0  0  0
  -20.7132  -11.6727   20.1121 C   0  0  0  0  0  0  0  0  0  0  0  0
  -22.7529  -30.2873   20.3530 C   0  0  0  0  0  0  0  0  0  0  0  0
  -22.7169  -28.6580   22.1366 C   0  0  0  0  0  0  0  0  0  0  0  0
  -21.5610  -10.1878   21.8127 C   0  0  0  0  0  0  0  0  0  0  0  0
  -21.7153  -12.5923   20.4197 C   0  0  0  0  0  0  0  0  0  0  0  0
  -25.8785  -17.5478   17.3492 C   0  0  0  0  0  0  0  0  0  0  0  0
  -21.3688  -30.1753   20.2226 C   0  0  0  0  0  0  0  0  0  0  0  0
  -21.3326  -28.5460   22.0062 C   0  0  0  0  0  0  0  0  0  0  0  0
  -26.2482  -18.8842   17.4945 C   0  0  0  0  0  0  0  0  0  0  0  0
  -18.5948  -30.2921   22.9422 C   0  0  0  0  0  0  0  0  0  0  0  0
  -17.8332  -30.2932   24.1107 C   0  0  0  0  0  0  0  0  0  0  0  0
  -27.8395  -18.2531   19.1940 C   0  0  0  0  0  0  0  0  0  0  0  0
  -16.9828  -28.1002   23.5585 C   0  0  0  0  0  0  0  0  0  0  0  0
  -23.4270  -29.5287   21.3100 C   0  0  0  0  0  0  0  0  0  0  0  0
  -25.5638  -30.5352   22.2738 C   0  0  0  0  0  0  0  0  0  0  0  0
  -22.5807  -11.1002   22.1261 C   0  0  0  0  0  0  0  0  0  0  0  0
  -26.4799  -16.5536   18.1343 C   0  0  0  0  0  0  0  0  0  0  0  0
  -22.6542  -12.3216   21.4296 C   0  0  0  0  0  0  0  0  0  0  0  0
  -27.4775  -16.9045   19.0550 C   0  0  0  0  0  0  0  0  0  0  0  0
  -27.7393  -22.1856   21.6019 C   0  0  0  0  0  0  0  0  0  0  0  0
  -20.6586  -29.3046   21.0492 C   0  0  0  0  0  0  0  0  0  0  0  0
  -27.2267  -19.2374   18.4190 C   0  0  0  0  0  0  0  0  0  0  0  0
  -18.5505  -29.1951   22.0817 C   0  0  0  0  0  0  0  0  0  0  0  0
  -17.0272  -29.1972   24.4189 C   0  0  0  0  0  0  0  0  0  0  0  0
  -17.7445  -28.0991   22.3899 C   0  0  0  0  0  0  0  0  0  0  0  0
  -24.8570  -29.6436   21.4448 C   0  0  0  0  0  0  0  0  0  0  0  0
  -27.0567  -21.8539   22.7876 C   0  0  0  0  0  0  0  0  0  0  0  0
  -26.7448  -22.3649   20.6718 C   0  0  0  0  0  0  0  0  0  0  0  0
  -26.8861  -30.2475   22.0389 C   0  0  0  0  0  0  0  0  0  0  0  0
  -25.0692  -31.5340   23.1757 C   0  0  0  0  0  0  0  0  0  0  0  0
  -25.4401  -14.4677   20.2958 C   0  0  0  0  0  0  0  0  0  0  0  0
  -28.4932  -13.3821   20.1457 C   0  0  0  0  0  0  0  0  0  0  0  0
  -31.7656  -14.0279   19.4237 C   0  0  0  0  0  0  0  0  0  0  0  0
  -29.7094  -25.3316   20.1116 C   0  0  0  0  0  0  0  0  0  0  0  0
  -23.5292  -10.7704   23.2515 C   0  0  0  0  0  0  0  0  0  0  0  0
  -26.0890  -15.1133   17.9467 C   0  0  0  0  0  0  0  0  0  0  0  0
  -28.1681  -15.8727   19.9076 C   0  0  0  0  0  0  0  0  0  0  0  0
  -24.7873  -11.6349   23.2607 C   0  0  0  0  0  0  0  0  0  0  0  0
  -29.8072  -28.5723   18.6401 C   0  0  0  0  0  0  0  0  0  0  0  0
  -24.4265  -13.1047   23.0701 C   0  0  0  0  0  0  0  0  0  0  0  0
  -28.6133  -29.2948   19.2668 C   0  0  0  0  0  0  0  0  0  0  0  0
  -29.5043  -27.0972   18.3861 C   0  0  0  0  0  0  0  0  0  0  0  0
  -27.8254  -27.0755   20.1902 C   0  0  0  0  0  0  0  0  0  0  0  0
  -23.7418  -13.3337   21.7172 C   0  0  1  0  0  0  0  0  0  0  0  0
  -26.4013  -14.2462   19.1623 C   0  0  1  0  0  0  0  0  0  0  0  0
  -28.1021  -28.5531   20.5165 C   0  0  2  0  0  0  0  0  0  0  0  0
  -27.6346  -21.5547   24.1096 C   0  0  0  0  0  0  0  0  0  0  0  0
  -34.0343  -12.9555   19.4362 C   0  0  0  0  0  0  0  0  0  0  0  0
  -23.2417  -23.5745   22.6174 C   0  0  0  0  0  0  0  0  0  0  0  0
  -24.1618  -24.7558   20.6201 C   0  0  0  0  0  0  0  0  0  0  0  0
  -22.0315  -23.4494   20.4378 C   0  0  0  0  0  0  0  0  0  0  0  0
  -28.6191  -13.6894   23.1788 C   0  0  0  0  0  0  0  0  0  0  0  0
  -31.1129  -13.5331   23.0213 C   0  0  0  0  0  0  0  0  0  0  0  0
  -29.6963  -11.6126   22.2951 C   0  0  0  0  0  0  0  0  0  0  0  0
  -32.0747  -14.3775   16.5012 C   0  0  0  0  0  0  0  0  0  0  0  0
  -29.1931  -22.3121   21.4003 C   0  0  0  0  0  0  0  0  0  0  0  0
  -26.8028  -22.7315   19.2087 C   0  0  0  0  0  0  0  0  0  0  0  0
  -24.2391  -22.2047   20.7794 C   0  0  0  0  0  0  0  0  0  0  0  0
  -29.7910  -23.6337   21.9198 C   0  0  0  0  0  0  0  0  0  0  0  0
  -26.5901  -21.5257   18.2999 C   0  0  0  0  0  0  0  0  0  1  0  0
  -29.7780  -13.7005   20.8717 C   0  0  1  0  0  0  0  0  0  0  0  0
  -32.7902  -13.2538   18.6141 C   0  0  2  0  0  0  0  0  0  0  0  0
  -23.4241  -23.4904   21.0886 C   0  0  0  0  0  0  0  0  0  0  0  0
  -29.7874  -13.1538   22.3272 C   0  0  0  0  0  0  0  0  0  0  0  0
  -25.6635  -28.8491   20.7360 N   0  0  0  0  0  0  0  0  0  0  0  0
  -25.7309  -21.8237   22.6280 N   0  0  0  0  0  0  0  0  0  0  0  0
  -25.5725  -22.1388   21.3312 N   0  0  0  0  0  0  0  0  0  0  0  0
  -26.8908  -29.2405   21.1190 N   0  0  0  0  0  0  0  0  0  0  0  0
  -27.7467  -14.4786   19.6918 N   0  0  0  0  0  0  0  0  0  0  0  0
  -29.0255  -26.4517   19.6109 N   0  0  0  0  0  0  0  0  0  0  0  0
  -28.0337  -30.7602   22.5314 N   0  0  0  0  0  0  0  0  0  0  0  0
  -23.6825  -31.6977   23.2961 N   0  0  0  0  0  0  0  0  0  0  0  0
  -24.7201  -13.3430   20.6508 N   0  0  0  0  0  0  0  0  0  0  0  0
  -30.8575  -13.1889   20.0343 N   0  0  0  0  0  0  0  0  0  0  0  0
  -29.1933  -24.7844   21.2799 N   0  0  0  0  0  0  0  0  0  0  0  0
  -33.1974  -14.0346   17.4117 N   0  3  0  0  0  0  0  0  0  0  0  0
  -25.8346  -32.2711   23.8423 O   0  0  0  0  0  0  0  0  0  0  0  0
  -25.3589  -15.5766   20.8111 O   0  0  0  0  0  0  0  0  0  0  0  0
  -28.1677  -12.2037   19.9810 O   0  0  0  0  0  0  0  0  0  0  0  0
  -31.7724  -15.2539   19.5092 O   0  0  0  0  0  0  0  0  0  0  0  0
  -30.7092  -24.8578   19.5613 O   0  0  0  0  0  0  0  0  0  0  0  0
  -19.3078  -29.1952   20.9224 O   0  0  0  0  0  0  0  0  0  0  0  0
  -27.5890  -20.5412   18.5633 O   0  0  0  0  0  0  0  0  0  1  0  0
  -16.2970  -29.1978   25.5418 F   0  0  0  0  0  0  0  0  0  0  0  0
  -17.6987  -27.0419   21.5678 F   0  0  0  0  0  0  0  0  0  0  0  0
  1  2  1  0  0  0  0
  1  5  2  0  0  0  0
  2  6  2  0  0  0  0
  3  8  2  0  0  0  0
  3 15  1  0  0  0  0
  4  9  1  0  0  0  0
  4 15  2  0  0  0  0
  5 17  1  0  0  0  0
  6 19  1  0  0  0  0
  7 10  2  0  0  0  0
  7 18  1  0  0  0  0
  8 22  1  0  0  0  0
  9 22  2  0  0  0  0
 10 23  1  0  0  0  0
 11 12  2  0  0  0  0
 11 24  1  0  0  0  0
 12 25  1  0  0  0  0
 13 20  1  0  0  0  0
 13 23  2  0  0  0  0
 14 25  2  0  0  0  0
 14 26  1  0  0  0  0
 15 27  1  0  0  0  0
 16 27  1  0  0  0  0
 16 30  2  0  0  0  0
 16 31  1  0  0  0  0
 17 19  2  0  0  0  0
 17 36  1  0  0  0  0
 18 20  2  0  0  0  0
 18 37  1  0  0  0  0
 19 45  1  0  0  0  0
 20 38  1  0  0  0  0
 21 28  1  0  0  0  0
 21 29  2  0  0  0  0
 21 57  1  0  0  0  0
 22 83  1  0  0  0  0
 23 84  1  0  0  0  0
 24 26  2  0  0  0  0
 24 83  1  0  0  0  0
 25 85  1  0  0  0  0
 26 86  1  0  0  0  0
 27 66  2  0  0  0  0
 28 48  1  0  0  0  0
 28 67  2  0  0  0  0
 29 58  1  0  0  0  0
 29 68  1  0  0  0  0
 30 69  1  0  0  0  0
 30 72  1  0  0  0  0
 31 73  1  0  0  0  0
 31 78  2  0  0  0  0
 32 46  1  0  0  0  0
 32 74  1  0  0  0  0
 32 79  2  0  0  0  0
 33 62  1  0  0  0  0
 33 70  1  0  0  0  0
 33 80  2  0  0  0  0
 34 63  1  0  0  0  0
 34 75  1  0  0  0  0
 34 81  2  0  0  0  0
 35 71  1  0  0  0  0
 35 76  1  0  0  0  0
 35 82  2  0  0  0  0
 36 39  1  0  0  0  0
 37 46  1  0  0  0  0
 38 70  1  0  0  0  0
 39 41  1  0  0  0  0
 40 42  1  0  0  0  0
 40 43  1  0  0  0  0
 41 45  1  0  0  0  0
 42 47  1  0  0  0  0
 43 71  1  0  0  0  0
 44 47  1  0  0  0  0
 44 71  1  0  0  0  0
 45 74  1  0  0  0  0
 46 70  1  0  0  0  0
 47 69  1  0  0  0  0
 49 63  1  0  0  0  0
 50 64  1  0  0  0  0
 51 64  1  0  0  0  0
 52 64  1  0  0  0  0
 53 65  1  0  0  0  0
 54 65  1  0  0  0  0
 55 65  1  0  0  0  0
 56 77  1  0  0  0  0
 57 60  1  0  0  0  0
 58 61  1  0  0  0  0
 59 64  1  0  0  0  0
 59 68  1  0  0  0  0
 60 76  1  0  0  0  0
 61 84  1  0  0  0  0
 62 65  1  0  0  0  0
 62 75  1  0  0  0  0
 63 77  1  0  0  0  0
 66 69  1  0  0  0  0
 67 68  1  0  0  0  0
M  CHG  1  77   1
M  ISO  4  35 100  61 101  76 100  84 101
M  END
> <Batch ID>
0048

> <Smiles>
CNC(C)C(=O)NC(C(=O)N1Cc2cc([101O:1][101CH2:1]Cc3c(CC[100NH:0][100C:0](=O)N4CCCC(n5nc(-c6ccc(Oc7ccc(F)cc7F)cc6)c(C(N)=O)c5N)C4)c(C)nn3CC(C)(C)C)ccc2CC1C(=O)NC1CCCc2ccccc21)C(C)(C)C

> <Shape>
0.276

> <Color>
0.060

> <Negative vol penalty>
0.000

$$$$

  -OEChem-04052317263D

 84 92  0     1  0  0  0  0  0999 V2000
  -36.2015  -26.2734   10.2989 C   0  0  0  0  0  0  0  0  0  0  0  0
  -36.1113  -25.3382   11.3249 C   0  0  0  0  0  0  0  0  0  0  0  0
  -22.9560   -9.9837   19.9895 C   0  0  0  0  0  0  0  0  0  0  0  0
  -23.6652  -10.0099   22.2989 C   0  0  0  0  0  0  0  0  0  0  0  0
  -35.6037  -27.5247   10.4434 C   0  0  0  0  0  0  0  0  0  0  0  0
  -35.4242  -25.6541   12.4964 C   0  0  0  0  0  0  0  0  0  0  0  0
  -32.3829  -21.9087   14.0350 C   0  0  0  0  0  0  0  0  0  0  0  0
  -22.1524   -8.8735   20.2488 C   0  0  0  0  0  0  0  0  0  0  0  0
  -22.8616   -8.8997   22.5583 C   0  0  0  0  0  0  0  0  0  0  0  0
  -32.9803  -20.8297   14.6849 C   0  0  0  0  0  0  0  0  0  0  0  0
  -23.0051   -5.5552   22.0844 C   0  0  0  0  0  0  0  0  0  0  0  0
  -23.5550   -4.5194   22.8396 C   0  0  0  0  0  0  0  0  0  0  0  0
  -32.3114  -21.7487   16.8126 C   0  0  0  0  0  0  0  0  0  0  0  0
  -21.8271   -4.8145   24.5023 C   0  0  0  0  0  0  0  0  0  0  0  0
  -23.7124  -10.5519   21.0145 C   0  0  0  0  0  0  0  0  0  0  0  0
  -24.1773  -13.0544   20.8443 C   0  0  0  0  0  0  0  0  0  0  0  0
  -34.9006  -27.8527   11.6134 C   0  0  0  0  0  0  0  0  0  0  0  0
  -31.7536  -22.9231   14.7708 C   0  0  0  0  0  0  0  0  0  0  0  0
  -34.8176  -26.9114   12.6572 C   0  0  0  0  0  0  0  0  0  0  0  0
  -31.7045  -22.8382   16.1695 C   0  0  0  0  0  0  0  0  0  0  0  0
  -22.1052   -8.3314   21.5332 C   0  0  0  0  0  0  0  0  0  0  0  0
  -32.9472  -20.7510   16.0741 C   0  0  0  0  0  0  0  0  0  0  0  0
  -21.8663   -6.2207   22.5381 C   0  0  0  0  0  0  0  0  0  0  0  0
  -22.9660   -4.1491   24.0486 C   0  0  0  0  0  0  0  0  0  0  0  0
  -21.2773   -5.8503   23.7470 C   0  0  0  0  0  0  0  0  0  0  0  0
  -24.5431  -11.6985   20.7471 C   0  0  0  0  0  0  0  0  0  0  0  0
  -25.3118  -13.7424   20.4889 C   0  0  0  0  0  0  0  0  0  0  0  0
  -31.1942  -17.5255   19.5745 C   0  0  0  0  0  0  0  0  0  0  0  0
  -31.1196  -16.8607   17.5972 C   0  0  0  0  0  0  0  0  0  0  0  0
  -22.9242  -13.6398   21.2220 C   0  0  0  0  0  0  0  0  0  0  0  0
  -32.2159  -26.0469   15.1344 C   0  0  0  0  0  0  0  0  0  0  0  0
  -29.4585  -25.8621   16.8330 C   0  0  0  0  0  0  0  0  0  0  0  0
  -27.3052  -23.9478   18.6620 C   0  0  0  0  0  0  0  0  0  0  0  0
  -30.8326  -14.5047   20.7793 C   0  0  0  0  0  0  0  0  0  0  0  0
  -34.3113  -29.2349   11.7428 C   0  0  0  0  0  0  0  0  0  0  0  0
  -31.0905  -24.0668   14.0533 C   0  0  0  0  0  0  0  0  0  0  0  0
  -31.0238  -23.8909   17.0044 C   0  0  0  0  0  0  0  0  0  0  0  0
  -33.2822  -29.3558   12.8638 C   0  0  0  0  0  0  0  0  0  0  0  0
  -29.6344  -12.1200   18.4227 C   0  0  0  0  0  0  0  0  0  0  0  0
  -33.8051  -28.7057   14.1408 C   0  0  0  0  0  0  0  0  0  0  0  0
  -28.1754  -11.9052   18.8292 C   0  0  0  0  0  0  0  0  0  0  0  0
  -30.5346  -12.3260   19.6388 C   0  0  0  0  0  0  0  0  0  0  0  0
  -28.6404  -13.1795   20.9643 C   0  0  0  0  0  0  0  0  0  0  0  0
  -34.0597  -27.2079   13.9331 C   0  0  1  0  0  0  0  0  0  0  0  0
  -30.9253  -25.3057   14.9281 C   0  0  1  0  0  0  0  0  0  0  0  0
  -27.6848  -13.0229   19.7690 C   0  0  2  0  0  0  0  0  0  0  0  0
  -29.6060  -17.1163   15.6147 C   0  0  0  0  0  0  0  0  0  0  0  0
  -25.1573  -24.0850   19.9524 C   0  0  0  0  0  0  0  0  0  0  0  0
  -29.2494  -18.2900   21.1010 C   0  0  0  0  0  0  0  0  0  0  0  0
  -31.5661  -19.0780   21.5107 C   0  0  0  0  0  0  0  0  0  0  0  0
  -30.9291  -27.2285   19.1309 C   0  0  0  0  0  0  0  0  0  0  0  0
  -29.0876  -26.4887   20.6572 C   0  0  0  0  0  0  0  0  0  0  0  0
  -28.5903  -28.0343   18.7633 C   0  0  0  0  0  0  0  0  0  0  0  0
  -25.9754  -21.9934   16.8813 C   0  0  0  0  0  0  0  0  0  0  0  0
  -30.7442  -16.3291   16.2747 C   0  0  0  0  0  0  0  0  0  0  0  0
  -33.5971  -17.3041   17.0125 C   0  0  0  0  0  0  0  0  0  0  0  0
  -30.9745  -16.6789   21.9676 C   0  0  0  0  0  0  0  0  0  0  0  0
  -33.5645  -18.4551   16.0129 C   0  0  0  0  0  0  0  0  0  1  0  0
  -29.1088  -25.6076   18.2793 C   0  0  1  0  0  0  0  0  0  0  0  0
  -25.7961  -23.7936   18.6034 C   0  0  2  0  0  0  0  0  0  0  0  0
  -30.7590  -17.8570   20.9363 C   0  0  0  0  0  0  0  0  0  0  0  0
  -29.4436  -26.8207   19.1923 C   0  0  0  0  0  0  0  0  0  0  0  0
  -25.8107  -11.5328   20.3602 N   0  0  0  0  0  0  0  0  0  0  0  0
  -30.3410  -17.0042   18.6444 N   0  0  0  0  0  0  0  0  0  0  0  0
  -32.4516  -17.7136   19.1685 N   0  0  0  0  0  0  0  0  0  0  0  0
  -26.2514  -12.7936   20.2111 N   0  0  0  0  0  0  0  0  0  0  0  0
  -32.3770  -17.2806   17.9008 N   0  0  0  0  0  0  0  0  0  0  0  0
  -30.3955  -24.9927   16.2569 N   0  0  0  0  0  0  0  0  0  0  0  0
  -30.0148  -13.4004   20.4881 N   0  0  0  0  0  0  0  0  0  0  0  0
  -25.5873  -15.0602   20.3901 N   0  0  0  0  0  0  0  0  0  0  0  0
  -21.8628  -12.7880   21.5568 N   0  0  0  0  0  0  0  0  0  0  0  0
  -32.8126  -26.4742   13.9636 N   0  0  0  0  0  0  0  0  0  0  0  0
  -27.7035  -25.2164   18.2967 N   0  0  0  0  0  0  0  0  0  0  0  0
  -30.2605  -15.4809   21.5858 N   0  0  0  0  0  0  0  0  0  0  0  0
  -25.4325  -22.4055   18.2013 N   0  3  0  0  0  0  0  0  0  0  0  0
  -22.7460  -14.8812   21.2456 O   0  0  0  0  0  0  0  0  0  0  0  0
  -32.6383  -26.2197   16.2717 O   0  0  0  0  0  0  0  0  0  0  0  0
  -28.9148  -26.7936   16.2343 O   0  0  0  0  0  0  0  0  0  0  0  0
  -28.0553  -23.0354   19.0016 O   0  0  0  0  0  0  0  0  0  0  0  0
  -31.9853  -14.6152   20.3479 O   0  0  0  0  0  0  0  0  0  0  0  0
  -21.3211   -7.2482   21.7867 O   0  0  0  0  0  0  0  0  0  0  0  0
  -33.5301  -19.6992   16.7111 O   0  0  0  0  0  0  0  0  0  1  0  0
  -23.4933   -3.1534   24.7730 F   0  0  0  0  0  0  0  0  0  0  0  0
  -20.1824   -6.4851   24.1875 F   0  0  0  0  0  0  0  0  0  0  0  0
  1  2  1  0  0  0  0
  1  5  2  0  0  0  0
  2  6  2  0  0  0  0
  3  8  2  0  0  0  0
  3 15  1  0  0  0  0
  4  9  1  0  0  0  0
  4 15  2  0  0  0  0
  5 17  1  0  0  0  0
  6 19  1  0  0  0  0
  7 10  2  0  0  0  0
  7 18  1  0  0  0  0
  8 21  1  0  0  0  0
  9 21  2  0  0  0  0
 10 22  1  0  0  0  0
 11 12  2  0  0  0  0
 11 23  1  0  0  0  0
 12 24  1  0  0  0  0
 13 20  1  0  0  0  0
 13 22  2  0  0  0  0
 14 24  2  0  0  0  0
 14 25  1  0  0  0  0
 15 26  1  0  0  0  0
 16 26  1  0  0  0  0
 16 27  2  0  0  0  0
 16 30  1  0  0  0  0
 17 19  2  0  0  0  0
 17 35  1  0  0  0  0
 18 20  2  0  0  0  0
 18 36  1  0  0  0  0
 19 44  1  0  0  0  0
 20 37  1  0  0  0  0
 21 81  1  0  0  0  0
 22 82  1  0  0  0  0
 23 25  2  0  0  0  0
 23 81  1  0  0  0  0
 24 83  1  0  0  0  0
 25 84  1  0  0  0  0
 26 63  2  0  0  0  0
 27 66  1  0  0  0  0
 27 70  1  0  0  0  0
 28 61  1  0  0  0  0
 28 64  1  0  0  0  0
 28 65  2  0  0  0  0
 29 55  1  0  0  0  0
 29 64  2  0  0  0  0
 29 67  1  0  0  0  0
 30 71  1  0  0  0  0
 30 76  2  0  0  0  0
 31 45  1  0  0  0  0
 31 72  1  0  0  0  0
 31 77  2  0  0  0  0
 32 59  1  0  0  0  0
 32 68  1  0  0  0  0
 32 78  2  0  0  0  0
 33 60  1  0  0  0  0
 33 73  1  0  0  0  0
 33 79  2  0  0  0  0
 34 69  1  0  0  0  0
 34 74  1  0  0  0  0
 34 80  2  0  0  0  0
 35 38  1  0  0  0  0
 36 45  1  0  0  0  0
 37 68  1  0  0  0  0
 38 40  1  0  0  0  0
 39 41  1  0  0  0  0
 39 42  1  0  0  0  0
 40 44  1  0  0  0  0
 41 46  1  0  0  0  0
 42 69  1  0  0  0  0
 43 46  1  0  0  0  0
 43 69  1  0  0  0  0
 44 72  1  0  0  0  0
 45 68  1  0  0  0  0
 46 66  1  0  0  0  0
 47 55  1  0  0  0  0
 48 60  1  0  0  0  0
 49 61  1  0  0  0  0
 50 61  1  0  0  0  0
 51 62  1  0  0  0  0
 52 62  1  0  0  0  0
 53 62  1  0  0  0  0
 54 75  1  0  0  0  0
 56 58  1  0  0  0  0
 56 67  1  0  0  0  0
 57 61  1  0  0  0  0
 57 74  1  0  0  0  0
 58 82  1  0  0  0  0
 59 62  1  0  0  0  0
 59 73  1  0  0  0  0
 60 75  1  0  0  0  0
 63 66  1  0  0  0  0
 65 67  1  0  0  0  0
M  CHG  1  75   1
M  ISO  4  34 100  58 101  74 100  82 101
M  END
> <Batch ID>
0048

> <Smiles>
CCc1nc(C(C)(C)C[100NH:0][100C:0](=O)N2CCCC(n3nc(-c4ccc(Oc5ccc(F)cc5F)cc4)c(C(N)=O)c3N)C2)nn1C[101CH2:1][101O:1]c1ccc2c(c1)CN(C(=O)C(NC(=O)C(C)NC)C(C)(C)C)C(C(=O)NC1CCCc3ccccc31)C2

> <Shape>
0.234

> <Color>
0.199

> <Negative vol penalty>
0.000

$$$$

  -OEChem-04052317263D

 84 92  0     1  0  0  0  0  0999 V2000
  -29.8859  -12.1203   19.3507 C   0  0  0  0  0  0  0  0  0  0  0  0
  -29.9166  -13.4997   19.5289 C   0  0  0  0  0  0  0  0  0  0  0  0
  -30.3635  -24.2591   18.9332 C   0  0  0  0  0  0  0  0  0  0  0  0
  -28.9697  -23.9330   20.8795 C   0  0  0  0  0  0  0  0  0  0  0  0
  -28.6630  -11.4605   19.2360 C   0  0  0  0  0  0  0  0  0  0  0  0
  -28.7244  -14.2202   19.5915 C   0  0  0  0  0  0  0  0  0  0  0  0
  -25.8408  -19.9813   22.7238 C   0  0  0  0  0  0  0  0  0  0  0  0
  -31.1338  -23.1556   19.3000 C   0  0  0  0  0  0  0  0  0  0  0  0
  -29.7400  -22.8296   21.2463 C   0  0  0  0  0  0  0  0  0  0  0  0
  -25.1511  -21.1497   22.4031 C   0  0  0  0  0  0  0  0  0  0  0  0
  -31.1202  -19.7093   22.5022 C   0  0  0  0  0  0  0  0  0  0  0  0
  -30.4498  -18.5574   22.9138 C   0  0  0  0  0  0  0  0  0  0  0  0
  -23.0959  -19.8935   22.2722 C   0  0  0  0  0  0  0  0  0  0  0  0
  -29.3524  -18.4283   20.7653 C   0  0  0  0  0  0  0  0  0  0  0  0
  -21.8977  -24.9050   22.2966 C   0  0  0  0  0  0  0  0  0  0  0  0
  -29.2814  -24.6478   19.7229 C   0  0  0  0  0  0  0  0  0  0  0  0
  -27.7547  -25.9571   18.1536 C   0  0  0  0  0  0  0  0  0  0  0  0
  -27.4550  -12.1720   19.3069 C   0  0  0  0  0  0  0  0  0  0  0  0
  -25.1639  -18.7563   22.8106 C   0  0  0  0  0  0  0  0  0  0  0  0
  -27.4843  -13.5695   19.4763 C   0  0  0  0  0  0  0  0  0  0  0  0
  -23.7789  -18.7114   22.5967 C   0  0  0  0  0  0  0  0  0  0  0  0
  -30.8221  -22.4409   20.4565 C   0  0  0  0  0  0  0  0  0  0  0  0
  -23.7789  -21.1055   22.1744 C   0  0  0  0  0  0  0  0  0  0  0  0
  -30.9066  -20.2207   21.2221 C   0  0  0  0  0  0  0  0  0  0  0  0
  -29.5660  -17.9169   22.0454 C   0  0  0  0  0  0  0  0  0  0  0  0
  -30.0227  -19.5802   20.3537 C   0  0  0  0  0  0  0  0  0  0  0  0
  -28.4856  -25.7879   19.3449 C   0  0  0  0  0  0  0  0  0  0  0  0
  -22.9425  -24.5886   21.4566 C   0  0  0  0  0  0  0  0  0  0  0  0
  -22.3345  -26.2933   20.0585 C   0  0  0  0  0  0  0  0  0  0  0  0
  -21.2893  -26.6091   20.8983 C   0  0  0  0  0  0  0  0  0  0  0  0
  -27.1779  -27.1974   18.2779 C   0  0  0  0  0  0  0  0  0  0  0  0
  -27.6101  -25.0722   17.0348 C   0  0  0  0  0  0  0  0  0  0  0  0
  -25.3334  -15.9853   21.2625 C   0  0  0  0  0  0  0  0  0  0  0  0
  -24.8598  -30.5907   22.3838 C   0  0  0  0  0  0  0  0  0  0  0  0
  -23.1924  -15.0440   23.5102 C   0  0  0  0  0  0  0  0  0  0  0  0
  -20.7764  -15.9186   25.7563 C   0  0  0  0  0  0  0  0  0  0  0  0
  -26.1589  -11.4213   19.1303 C   0  0  0  0  0  0  0  0  0  0  0  0
  -25.9179  -17.5094   23.1838 C   0  0  0  0  0  0  0  0  0  0  0  0
  -23.0022  -17.4249   22.6975 C   0  0  0  0  0  0  0  0  0  0  0  0
  -24.9321  -12.2092   19.5825 C   0  0  0  0  0  0  0  0  0  0  0  0
  -28.0966  -31.2225   20.9824 C   0  0  0  0  0  0  0  0  0  0  0  0
  -24.9838  -13.6345   19.0413 C   0  0  0  0  0  0  0  0  0  0  0  0
  -28.4705  -29.8928   20.3287 C   0  0  0  0  0  0  0  0  0  0  0  0
  -27.2938  -31.0094   22.2619 C   0  0  0  0  0  0  0  0  0  0  0  0
  -26.4403  -28.8432   21.4249 C   0  0  0  0  0  0  0  0  0  0  0  0
  -26.2118  -14.3827   19.5740 C   0  0  1  0  0  0  0  0  0  0  0  0
  -25.2144  -16.2305   22.7401 C   0  0  1  0  0  0  0  0  0  0  0  0
  -27.2259  -29.0138   20.1126 C   0  0  2  0  0  0  0  0  0  0  0  0
  -22.5862  -27.0634   18.8074 C   0  0  0  0  0  0  0  0  0  0  0  0
  -19.1808  -14.9261   27.4196 C   0  0  0  0  0  0  0  0  0  0  0  0
  -21.3900  -14.1218   21.2274 C   0  0  0  0  0  0  0  0  0  0  0  0
  -19.4894  -14.0373   22.8549 C   0  0  0  0  0  0  0  0  0  0  0  0
  -21.4762  -12.5649   23.1826 C   0  0  0  0  0  0  0  0  0  0  0  0
  -22.0132  -17.3991   28.0006 C   0  0  0  0  0  0  0  0  0  0  0  0
  -20.0600  -29.6147   23.1343 C   0  0  0  0  0  0  0  0  0  0  0  0
  -20.3614  -27.7356   20.5948 C   0  0  0  0  0  0  0  0  0  0  0  0
  -23.8633  -23.4496   21.7824 C   0  0  0  0  0  0  0  0  0  1  0  0
  -23.7134  -29.6534   22.0991 C   0  0  0  0  0  0  0  0  0  0  0  0
  -20.9498  -29.1222   20.8614 C   0  0  0  0  0  0  0  0  0  0  0  0
  -22.3931  -30.2557   22.5444 C   0  0  0  0  0  0  0  0  0  0  0  0
  -21.6867  -15.0461   23.6198 C   0  0  1  0  0  0  0  0  0  0  0  0
  -20.5611  -15.5280   27.2073 C   0  0  2  0  0  0  0  0  0  0  0  0
  -21.0253  -13.9666   22.7173 C   0  0  0  0  0  0  0  0  0  0  0  0
  -21.0523  -25.9209   22.0326 N   0  0  0  0  0  0  0  0  0  0  0  0
  -28.3842  -26.8369   20.1654 N   0  0  0  0  0  0  0  0  0  0  0  0
  -23.1797  -25.2771   20.3224 N   0  0  0  0  0  0  0  0  0  0  0  0
  -27.5829  -27.6772   19.4887 N   0  0  0  0  0  0  0  0  0  0  0  0
  -23.7852  -16.2317   23.0590 N   0  0  0  0  0  0  0  0  0  0  0  0
  -26.1327  -30.1513   22.0195 N   0  0  0  0  0  0  0  0  0  0  0  0
  -26.3690  -27.9135   17.4684 N   0  0  0  0  0  0  0  0  0  0  0  0
  -26.5565  -24.1479   17.0458 N   0  0  0  0  0  0  0  0  0  0  0  0
  -25.9891  -14.8131   20.9377 N   0  0  0  0  0  0  0  0  0  0  0  0
  -21.3806  -14.9074   25.0395 N   0  0  0  0  0  0  0  0  0  0  0  0
  -20.6943  -16.7213   28.0901 N   0  3  0  0  0  0  0  0  0  0  0  0
  -21.2719  -29.2753   22.3016 N   0  3  1  0  0  0  0  0  0  0  0  0
  -28.4018  -25.0891   16.0620 O   0  0  0  0  0  0  0  0  0  0  0  0
  -24.8637  -16.7986   20.4753 O   0  0  0  0  0  0  0  0  0  0  0  0
  -24.6286  -31.6816   22.9117 O   0  0  0  0  0  0  0  0  0  0  0  0
  -23.8198  -14.0283   23.8205 O   0  0  0  0  0  0  0  0  0  0  0  0
  -20.4386  -17.0099   25.3031 O   0  0  0  0  0  0  0  0  0  0  0  0
  -31.5735  -21.3639   20.8146 O   0  0  0  0  0  0  0  0  0  0  0  0
  -23.1034  -22.2443   21.8605 O   0  0  0  0  0  0  0  0  0  1  0  0
  -28.9235  -16.8099   22.4403 F   0  0  0  0  0  0  0  0  0  0  0  0
  -29.8144  -20.0661   19.1223 F   0  0  0  0  0  0  0  0  0  0  0  0
  1  2  1  0  0  0  0
  1  5  2  0  0  0  0
  2  6  2  0  0  0  0
  3  8  2  0  0  0  0
  3 16  1  0  0  0  0
  4  9  1  0  0  0  0
  4 16  2  0  0  0  0
  5 18  1  0  0  0  0
  6 20  1  0  0  0  0
  7 10  2  0  0  0  0
  7 19  1  0  0  0  0
  8 22  1  0  0  0  0
  9 22  2  0  0  0  0
 10 23  1  0  0  0  0
 11 12  2  0  0  0  0
 11 24  1  0  0  0  0
 12 25  1  0  0  0  0
 13 21  1  0  0  0  0
 13 23  2  0  0  0  0
 14 25  2  0  0  0  0
 14 26  1  0  0  0  0
 15 28  1  0  0  0  0
 15 64  2  0  0  0  0
 16 27  1  0  0  0  0
 17 27  1  0  0  0  0
 17 31  2  0  0  0  0
 17 32  1  0  0  0  0
 18 20  2  0  0  0  0
 18 37  1  0  0  0  0
 19 21  2  0  0  0  0
 19 38  1  0  0  0  0
 20 46  1  0  0  0  0
 21 39  1  0  0  0  0
 22 81  1  0  0  0  0
 23 82  1  0  0  0  0
 24 26  2  0  0  0  0
 24 81  1  0  0  0  0
 25 83  1  0  0  0  0
 26 84  1  0  0  0  0
 27 65  2  0  0  0  0
 28 57  1  0  0  0  0
 28 66  2  0  0  0  0
 29 30  2  0  0  0  0
 29 49  1  0  0  0  0
 29 66  1  0  0  0  0
 30 56  1  0  0  0  0
 30 64  1  0  0  0  0
 31 67  1  0  0  0  0
 31 70  1  0  0  0  0
 32 71  1  0  0  0  0
 32 76  2  0  0  0  0
 33 47  1  0  0  0  0
 33 72  1  0  0  0  0
 33 77  2  0  0  0  0
 34 58  1  0  0  0  0
 34 69  1  0  0  0  0
 34 78  2  0  0  0  0
 35 61  1  0  0  0  0
 35 68  1  0  0  0  0
 35 79  2  0  0  0  0
 36 62  1  0  0  0  0
 36 73  1  0  0  0  0
 36 80  2  0  0  0  0
 37 40  1  0  0  0  0
 38 47  1  0  0  0  0
 39 68  1  0  0  0  0
 40 42  1  0  0  0  0
 41 43  1  0  0  0  0
 41 44  1  0  0  0  0
 42 46  1  0  0  0  0
 43 48  1  0  0  0  0
 44 69  1  0  0  0  0
 45 48  1  0  0  0  0
 45 69  1  0  0  0  0
 46 72  1  0  0  0  0
 47 68  1  0  0  0  0
 48 67  1  0  0  0  0
 50 62  1  0  0  0  0
 51 63  1  0  0  0  0
 52 63  1  0  0  0  0
 53 63  1  0  0  0  0
 54 74  1  0  0  0  0
 55 75  1  0  0  0  0
 56 59  1  0  0  0  0
 57 82  1  0  0  0  0
 58 60  1  0  0  0  0
 59 75  1  0  0  0  0
 60 75  1  0  0  0  0
 61 63  1  0  0  0  0
 61 73  1  0  0  0  0
 62 74  1  0  0  0  0
 65 67  1  0  0  0  0
M  CHG  2  74   1  75   1
M  ISO  4  34 100  57 101  58 100  82 101
M  END
> <Batch ID>
0048

> <Smiles>
CNC(C)C(=O)NC(C(=O)N1Cc2cc([101O:1][101CH2:1]c3cnc(CCN(C)C[100CH2:0][100C:0](=O)N4CCCC(n5nc(-c6ccc(Oc7ccc(F)cc7F)cc6)c(C(N)=O)c5N)C4)c(C)n3)ccc2CC1C(=O)NC1CCCc2ccccc21)C(C)(C)C

> <Shape>
0.221

> <Color>
0.065

> <Negative vol penalty>
0.000

$$$$

  -OEChem-04052317263D

 86 94  0     1  0  0  0  0  0999 V2000
  -33.5361  -25.1819   17.3202 C   0  0  0  0  0  0  0  0  0  0  0  0
  -33.1908  -24.5769   18.5244 C   0  0  0  0  0  0  0  0  0  0  0  0
  -23.2276   -9.7952   19.9338 C   0  0  0  0  0  0  0  0  0  0  0  0
  -23.5539  -10.0225   22.3168 C   0  0  0  0  0  0  0  0  0  0  0  0
  -33.2696  -26.5357   17.1199 C   0  0  0  0  0  0  0  0  0  0  0  0
  -32.5798  -25.3258   19.5295 C   0  0  0  0  0  0  0  0  0  0  0  0
  -28.6602  -22.9119   21.6403 C   0  0  0  0  0  0  0  0  0  0  0  0
  -22.4707   -8.6432   20.1473 C   0  0  0  0  0  0  0  0  0  0  0  0
  -22.7969   -8.8705   22.5304 C   0  0  0  0  0  0  0  0  0  0  0  0
  -28.9522  -21.9152   22.5704 C   0  0  0  0  0  0  0  0  0  0  0  0
  -23.2428   -5.5248   22.3351 C   0  0  0  0  0  0  0  0  0  0  0  0
  -23.7339   -4.5854   23.2417 C   0  0  0  0  0  0  0  0  0  0  0  0
  -28.4896  -23.4613   24.3634 C   0  0  0  0  0  0  0  0  0  0  0  0
  -21.7457   -4.8464   24.5893 C   0  0  0  0  0  0  0  0  0  0  0  0
  -30.2241  -15.4249   25.1354 C   0  0  0  0  0  0  0  0  0  0  0  0
  -23.7693  -10.4848   21.0186 C   0  0  0  0  0  0  0  0  0  0  0  0
  -24.0834  -13.0006   20.7364 C   0  0  0  0  0  0  0  0  0  0  0  0
  -32.6463  -27.2992   18.1194 C   0  0  0  0  0  0  0  0  0  0  0  0
  -28.2906  -24.1961   22.0655 C   0  0  0  0  0  0  0  0  0  0  0  0
  -32.3059  -26.6914   19.3429 C   0  0  0  0  0  0  0  0  0  0  0  0
  -28.1909  -24.4718   23.4367 C   0  0  0  0  0  0  0  0  0  0  0  0
  -22.2553   -8.1809   21.4455 C   0  0  0  0  0  0  0  0  0  0  0  0
  -28.8698  -22.1906   23.9321 C   0  0  0  0  0  0  0  0  0  0  0  0
  -22.0031   -6.1251   22.5557 C   0  0  0  0  0  0  0  0  0  0  0  0
  -22.9854   -4.2461   24.3687 C   0  0  0  0  0  0  0  0  0  0  0  0
  -21.2546   -5.7858   23.6827 C   0  0  0  0  0  0  0  0  0  0  0  0
  -24.5518  -11.6745   20.7986 C   0  0  0  0  0  0  0  0  0  0  0  0
  -30.3510  -15.1415   23.7934 C   0  0  0  0  0  0  0  0  0  0  0  0
  -31.3358  -17.3989   24.8238 C   0  0  0  0  0  0  0  0  0  0  0  0
  -31.4634  -17.1152   23.4819 C   0  0  0  0  0  0  0  0  0  0  0  0
  -25.2104  -13.7526   20.5112 C   0  0  0  0  0  0  0  0  0  0  0  0
  -22.7489  -13.5074   20.8704 C   0  0  0  0  0  0  0  0  0  0  0  0
  -29.5165  -27.1095   21.7298 C   0  0  0  0  0  0  0  0  0  0  0  0
  -26.7647  -28.0121   23.1911 C   0  0  0  0  0  0  0  0  0  0  0  0
  -24.1590  -27.1777   25.2309 C   0  0  0  0  0  0  0  0  0  0  0  0
  -31.0475  -12.3114   21.6900 C   0  0  0  0  0  0  0  0  0  0  0  0
  -32.4213  -28.7704   17.8748 C   0  0  0  0  0  0  0  0  0  0  0  0
  -27.9529  -25.2526   21.0495 C   0  0  0  0  0  0  0  0  0  0  0  0
  -27.7790  -25.8284   23.9449 C   0  0  0  0  0  0  0  0  0  0  0  0
  -31.4314  -29.4052   18.8481 C   0  0  0  0  0  0  0  0  0  0  0  0
  -29.5504  -13.5142   18.5256 C   0  0  0  0  0  0  0  0  0  0  0  0
  -31.7455  -28.9834   20.2799 C   0  0  0  0  0  0  0  0  0  0  0  0
  -28.0648  -13.2202   18.7271 C   0  0  0  0  0  0  0  0  0  0  0  0
  -30.4314  -12.5481   19.3118 C   0  0  0  0  0  0  0  0  0  0  0  0
  -28.6278  -12.1949   20.9659 C   0  0  0  0  0  0  0  0  0  0  0  0
  -31.6192  -27.4645   20.4479 C   0  0  1  0  0  0  0  0  0  0  0  0
  -28.0857  -26.6708   21.5957 C   0  0  1  0  0  0  0  0  0  0  0  0
  -27.7117  -13.1798   20.2241 C   0  0  2  0  0  0  0  0  0  0  0  0
  -32.4173  -18.2567   18.6746 C   0  0  0  0  0  0  0  0  0  0  0  0
  -22.0870  -28.1369   26.2721 C   0  0  0  0  0  0  0  0  0  0  0  0
  -28.4811  -29.5091   25.2217 C   0  0  0  0  0  0  0  0  0  0  0  0
  -26.4794  -29.6292   26.7208 C   0  0  0  0  0  0  0  0  0  0  0  0
  -26.4292  -30.7345   24.4851 C   0  0  0  0  0  0  0  0  0  0  0  0
  -31.8489  -12.7355   23.9829 C   0  0  0  0  0  0  0  0  0  0  0  0
  -22.4195  -25.2218   23.8498 C   0  0  0  0  0  0  0  0  0  0  0  0
  -31.8889  -18.6711   25.4147 C   0  0  0  0  0  0  0  0  0  0  0  0
  -32.1542  -18.0529   22.5517 C   0  0  0  0  0  0  0  0  0  0  0  0
  -29.7962  -13.8794   23.2321 C   0  0  0  0  0  0  0  0  0  0  0  0
  -32.6427  -18.6391   20.1287 C   0  0  0  0  0  0  0  0  0  0  0  0
  -30.8224  -19.7282   25.7088 C   0  0  0  0  0  0  0  0  0  0  0  0
  -31.8995  -17.6984   21.0772 C   0  0  0  0  0  0  0  0  0  0  0  0
  -30.1091  -20.2303   24.4588 C   0  0  0  0  0  0  0  0  0  1  0  0
  -26.3305  -28.2120   24.6231 C   0  0  1  0  0  0  0  0  0  0  0  0
  -22.6614  -27.3790   25.0854 C   0  0  2  0  0  0  0  0  0  0  0  0
  -26.9397  -29.4961   25.2534 C   0  0  0  0  0  0  0  0  0  0  0  0
  -30.7141  -16.5587   25.6747 N   0  0  0  0  0  0  0  0  0  0  0  0
  -25.8733  -11.5859   20.6266 N   0  0  0  0  0  0  0  0  0  0  0  0
  -30.9730  -15.9816   22.9425 N   0  0  0  0  0  0  0  0  0  0  0  0
  -26.2450  -12.8658   20.4541 N   0  0  0  0  0  0  0  0  0  0  0  0
  -27.4651  -26.8299   22.9124 N   0  0  0  0  0  0  0  0  0  0  0  0
  -30.0463  -12.4969   20.7225 N   0  0  0  0  0  0  0  0  0  0  0  0
  -25.4075  -15.0794   20.3584 N   0  0  0  0  0  0  0  0  0  0  0  0
  -21.7082  -12.5968   21.0990 N   0  0  0  0  0  0  0  0  0  0  0  0
  -30.2272  -27.0807   20.5451 N   0  0  0  0  0  0  0  0  0  0  0  0
  -24.8718  -28.1845   24.6149 N   0  0  0  0  0  0  0  0  0  0  0  0
  -30.8343  -12.8903   22.9502 N   0  0  0  0  0  0  0  0  0  0  0  0
  -21.9689  -26.0629   24.9884 N   0  3  0  0  0  0  0  0  0  0  0  0
  -22.4847  -14.7298   20.7734 O   0  0  0  0  0  0  0  0  0  0  0  0
  -29.9436  -27.4504   22.8266 O   0  0  0  0  0  0  0  0  0  0  0  0
  -26.4864  -28.8699   22.3495 O   0  0  0  0  0  0  0  0  0  0  0  0
  -24.6475  -26.2249   25.8341 O   0  0  0  0  0  0  0  0  0  0  0  0
  -32.0778  -11.6733   21.4385 O   0  0  0  0  0  0  0  0  0  0  0  0
  -21.5165   -7.0569   21.6543 O   0  0  0  0  0  0  0  0  0  0  0  0
  -29.1549  -21.2198   24.8421 O   0  0  0  0  0  0  0  0  0  1  0  0
  -23.4565   -3.3429   25.2384 F   0  0  0  0  0  0  0  0  0  0  0  0
  -20.0624   -6.3583   23.8993 F   0  0  0  0  0  0  0  0  0  0  0  0
  1  2  1  0  0  0  0
  1  5  2  0  0  0  0
  2  6  2  0  0  0  0
  3  8  2  0  0  0  0
  3 16  1  0  0  0  0
  4  9  1  0  0  0  0
  4 16  2  0  0  0  0
  5 18  1  0  0  0  0
  6 20  1  0  0  0  0
  7 10  2  0  0  0  0
  7 19  1  0  0  0  0
  8 22  1  0  0  0  0
  9 22  2  0  0  0  0
 10 23  1  0  0  0  0
 11 12  2  0  0  0  0
 11 24  1  0  0  0  0
 12 25  1  0  0  0  0
 13 21  1  0  0  0  0
 13 23  2  0  0  0  0
 14 25  2  0  0  0  0
 14 26  1  0  0  0  0
 15 28  1  0  0  0  0
 15 66  2  0  0  0  0
 16 27  1  0  0  0  0
 17 27  1  0  0  0  0
 17 31  2  0  0  0  0
 17 32  1  0  0  0  0
 18 20  2  0  0  0  0
 18 37  1  0  0  0  0
 19 21  2  0  0  0  0
 19 38  1  0  0  0  0
 20 46  1  0  0  0  0
 21 39  1  0  0  0  0
 22 83  1  0  0  0  0
 23 84  1  0  0  0  0
 24 26  2  0  0  0  0
 24 83  1  0  0  0  0
 25 85  1  0  0  0  0
 26 86  1  0  0  0  0
 27 67  2  0  0  0  0
 28 58  1  0  0  0  0
 28 68  2  0  0  0  0
 29 30  2  0  0  0  0
 29 56  1  0  0  0  0
 29 66  1  0  0  0  0
 30 57  1  0  0  0  0
 30 68  1  0  0  0  0
 31 69  1  0  0  0  0
 31 72  1  0  0  0  0
 32 73  1  0  0  0  0
 32 78  2  0  0  0  0
 33 47  1  0  0  0  0
 33 74  1  0  0  0  0
 33 79  2  0  0  0  0
 34 63  1  0  0  0  0
 34 70  1  0  0  0  0
 34 80  2  0  0  0  0
 35 64  1  0  0  0  0
 35 75  1  0  0  0  0
 35 81  2  0  0  0  0
 36 71  1  0  0  0  0
 36 76  1  0  0  0  0
 36 82  2  0  0  0  0
 37 40  1  0  0  0  0
 38 47  1  0  0  0  0
 39 70  1  0  0  0  0
 40 42  1  0  0  0  0
 41 43  1  0  0  0  0
 41 44  1  0  0  0  0
 42 46  1  0  0  0  0
 43 48  1  0  0  0  0
 44 71  1  0  0  0  0
 45 48  1  0  0  0  0
 45 71  1  0  0  0  0
 46 74  1  0  0  0  0
 47 70  1  0  0  0  0
 48 69  1  0  0  0  0
 49 59  1  0  0  0  0
 50 64  1  0  0  0  0
 51 65  1  0  0  0  0
 52 65  1  0  0  0  0
 53 65  1  0  0  0  0
 54 76  1  0  0  0  0
 55 77  1  0  0  0  0
 56 60  1  0  0  0  0
 57 61  1  0  0  0  0
 58 76  1  0  0  0  0
 59 61  1  0  0  0  0
 60 62  1  0  0  0  0
 62 84  1  0  0  0  0
 63 65  1  0  0  0  0
 63 75  1  0  0  0  0
 64 77  1  0  0  0  0
 67 69  1  0  0  0  0
M  CHG  1  77   1
M  ISO  4  36 100  62 101  76 100  84 101
M  END
> <Batch ID>
0048

> <Smiles>
CCCCc1nc(C[100N:0](C)[100C:0](=O)N2CCCC(n3nc(-c4ccc(Oc5ccc(F)cc5F)cc4)c(C(N)=O)c3N)C2)cnc1CC[101CH2:1][101O:1]c1ccc2c(c1)CN(C(=O)C(NC(=O)C(C)NC)C(C)(C)C)C(C(=O)NC1CCCc3ccccc31)C2

> <Shape>
0.223

> <Color>
0.183

> <Negative vol penalty>
0.000

$$$$

  -OEChem-04052317263D

 80 88  0     1  0  0  0  0  0999 V2000
  -30.4170  -25.6312   17.6327 C   0  0  0  0  0  0  0  0  0  0  0  0
  -29.0274  -25.6367   17.7010 C   0  0  0  0  0  0  0  0  0  0  0  0
  -26.7410  -16.3951   20.9639 C   0  0  0  0  0  0  0  0  0  0  0  0
  -25.2190  -16.4815   19.0896 C   0  0  0  0  0  0  0  0  0  0  0  0
  -31.1681  -26.1217   18.7000 C   0  0  0  0  0  0  0  0  0  0  0  0
  -28.3883  -26.1318   18.8371 C   0  0  0  0  0  0  0  0  0  0  0  0
  -23.0714  -29.1641   19.0430 C   0  0  0  0  0  0  0  0  0  0  0  0
  -26.9616  -15.0392   20.7223 C   0  0  0  0  0  0  0  0  0  0  0  0
  -25.4397  -15.1255   18.8479 C   0  0  0  0  0  0  0  0  0  0  0  0
  -21.7697  -28.7565   19.3314 C   0  0  0  0  0  0  0  0  0  0  0  0
  -28.7782  -13.1535   18.5828 C   0  0  0  0  0  0  0  0  0  0  0  0
  -30.0951  -12.6950   18.6160 C   0  0  0  0  0  0  0  0  0  0  0  0
  -22.0582  -29.4731   21.6167 C   0  0  0  0  0  0  0  0  0  0  0  0
  -29.5225  -11.1807   20.4093 C   0  0  0  0  0  0  0  0  0  0  0  0
  -18.7920  -24.5432   19.7655 C   0  0  0  0  0  0  0  0  0  0  0  0
  -19.6662  -24.8045   21.7661 C   0  0  0  0  0  0  0  0  0  0  0  0
  -25.8697  -17.1163   20.1475 C   0  0  0  0  0  0  0  0  0  0  0  0
  -26.3592  -19.6037   19.8635 C   0  0  0  0  0  0  0  0  0  0  0  0
  -30.5377  -26.6320   19.8458 C   0  0  0  0  0  0  0  0  0  0  0  0
  -23.8814  -29.7201   20.0436 C   0  0  0  0  0  0  0  0  0  0  0  0
  -29.1317  -26.6284   19.9213 C   0  0  0  0  0  0  0  0  0  0  0  0
  -23.3690  -29.8893   21.3377 C   0  0  0  0  0  0  0  0  0  0  0  0
  -19.6363  -23.9280   20.7090 C   0  0  0  0  0  0  0  0  0  0  0  0
  -26.3110  -14.4044   19.6643 C   0  0  0  0  0  0  0  0  0  0  0  0
  -21.2639  -28.9083   20.6192 C   0  0  0  0  0  0  0  0  0  0  0  0
  -27.8334  -12.6257   19.4629 C   0  0  0  0  0  0  0  0  0  0  0  0
  -30.4673  -11.7086   19.5293 C   0  0  0  0  0  0  0  0  0  0  0  0
  -28.2056  -11.6392   20.3761 C   0  0  0  0  0  0  0  0  0  0  0  0
  -25.6409  -18.5168   20.3970 C   0  0  0  0  0  0  0  0  0  0  0  0
  -25.7554  -20.7127   20.4039 C   0  0  0  0  0  0  0  0  0  0  0  0
  -27.4727  -19.6103   18.9603 C   0  0  0  0  0  0  0  0  0  0  0  0
  -26.6341  -28.9083   21.4101 C   0  0  0  0  0  0  0  0  0  0  0  0
  -26.3166  -31.7926   22.8600 C   0  0  0  0  0  0  0  0  0  0  0  0
  -24.2491  -34.3018   23.8976 C   0  0  0  0  0  0  0  0  0  0  0  0
  -20.0932  -21.2333   22.6857 C   0  0  0  0  0  0  0  0  0  0  0  0
  -31.3925  -27.1079   20.9936 C   0  0  0  0  0  0  0  0  0  0  0  0
  -25.2743  -30.1794   19.7097 C   0  0  0  0  0  0  0  0  0  0  0  0
  -24.1909  -30.4993   22.4426 C   0  0  0  0  0  0  0  0  0  0  0  0
  -30.6325  -27.9604   22.0065 C   0  0  0  0  0  0  0  0  0  0  0  0
  -23.3169  -22.1637   24.2489 C   0  0  0  0  0  0  0  0  0  0  0  0
  -29.3008  -27.3069   22.3619 C   0  0  0  0  0  0  0  0  0  0  0  0
  -24.3278  -21.3634   23.4292 C   0  0  0  0  0  0  0  0  0  0  0  0
  -21.9527  -21.4818   24.2894 C   0  0  0  0  0  0  0  0  0  0  0  0
  -22.4040  -20.3733   22.1257 C   0  0  0  0  0  0  0  0  0  0  0  0
  -28.4014  -27.1800   21.1264 C   0  0  1  0  0  0  0  0  0  0  0  0
  -26.1856  -30.2598   20.9305 C   0  0  1  0  0  0  0  0  0  0  0  0
  -23.7762  -21.0565   22.0261 C   0  0  2  0  0  0  0  0  0  0  0  0
  -24.2760  -36.5115   25.0866 C   0  0  0  0  0  0  0  0  0  0  0  0
  -26.6691  -30.3511   25.5260 C   0  0  0  0  0  0  0  0  0  0  0  0
  -25.7552  -32.3839   26.6666 C   0  0  0  0  0  0  0  0  0  0  0  0
  -27.8716  -32.5372   25.3551 C   0  0  0  0  0  0  0  0  0  0  0  0
  -18.4428  -21.0692   20.8612 C   0  0  0  0  0  0  0  0  0  0  0  0
  -23.1622  -35.7168   21.5364 C   0  0  0  0  0  0  0  0  0  0  0  0
  -20.3298  -22.6354   20.5927 C   0  0  0  0  0  0  0  0  0  0  0  0
  -18.5743  -27.0785   22.2323 C   0  0  0  0  0  0  0  0  0  0  0  0
  -19.7349  -28.0675   22.2351 C   0  0  0  0  0  0  0  0  0  1  0  0
  -25.6724  -32.2837   24.1339 C   0  0  1  0  0  0  0  0  0  0  0  0
  -24.3361  -35.8090   23.7391 C   0  0  2  0  0  0  0  0  0  0  0  0
  -26.4770  -31.8757   25.4003 C   0  0  0  0  0  0  0  0  0  0  0  0
  -18.3194  -25.7196   20.1860 N   0  0  0  0  0  0  0  0  0  0  0  0
  -24.6562  -18.9006   21.2137 N   0  0  0  0  0  0  0  0  0  0  0  0
  -18.8687  -25.8505   21.4056 N   0  0  0  0  0  0  0  0  0  0  0  0
  -24.7514  -20.2410   21.1975 N   0  0  0  0  0  0  0  0  0  0  0  0
  -25.5490  -30.9269   22.0681 N   0  0  0  0  0  0  0  0  0  0  0  0
  -21.4718  -21.1624   22.9448 N   0  0  0  0  0  0  0  0  0  0  0  0
  -25.9906  -22.0355   20.2729 N   0  0  0  0  0  0  0  0  0  0  0  0
  -27.9685  -18.3821   18.5020 N   0  0  0  0  0  0  0  0  0  0  0  0
  -27.7936  -28.4549   20.8107 N   0  0  0  0  0  0  0  0  0  0  0  0
  -25.4984  -33.7234   23.9747 N   0  0  0  0  0  0  0  0  0  0  0  0
  -19.7042  -21.5767   21.3821 N   0  0  0  0  0  0  0  0  0  0  0  0
  -23.2108  -36.3073   22.8987 N   0  3  0  0  0  0  0  0  0  0  0  0
  -28.0223  -20.6731   18.5839 O   0  0  0  0  0  0  0  0  0  0  0  0
  -25.9776  -28.3210   22.2620 O   0  0  0  0  0  0  0  0  0  0  0  0
  -27.4560  -32.1692   22.5744 O   0  0  0  0  0  0  0  0  0  0  0  0
  -23.1798  -33.6983   23.9516 O   0  0  0  0  0  0  0  0  0  0  0  0
  -19.2577  -21.0121   23.5717 O   0  0  0  0  0  0  0  0  0  0  0  0
  -26.5262  -13.0813   19.4281 O   0  0  0  0  0  0  0  0  0  0  0  0
  -19.9939  -28.5107   20.9036 O   0  0  0  0  0  0  0  0  0  1  0  0
  -31.7316  -11.2673   19.5600 F   0  0  0  0  0  0  0  0  0  0  0  0
  -27.3022  -11.1274   21.2233 F   0  0  0  0  0  0  0  0  0  0  0  0
  1  2  1  0  0  0  0
  1  5  2  0  0  0  0
  2  6  2  0  0  0  0
  3  8  2  0  0  0  0
  3 17  1  0  0  0  0
  4  9  1  0  0  0  0
  4 17  2  0  0  0  0
  5 19  1  0  0  0  0
  6 21  1  0  0  0  0
  7 10  2  0  0  0  0
  7 20  1  0  0  0  0
  8 24  1  0  0  0  0
  9 24  2  0  0  0  0
 10 25  1  0  0  0  0
 11 12  2  0  0  0  0
 11 26  1  0  0  0  0
 12 27  1  0  0  0  0
 13 22  1  0  0  0  0
 13 25  2  0  0  0  0
 14 27  2  0  0  0  0
 14 28  1  0  0  0  0
 15 23  1  0  0  0  0
 15 60  2  0  0  0  0
 16 23  2  0  0  0  0
 16 62  1  0  0  0  0
 17 29  1  0  0  0  0
 18 29  1  0  0  0  0
 18 30  2  0  0  0  0
 18 31  1  0  0  0  0
 19 21  2  0  0  0  0
 19 36  1  0  0  0  0
 20 22  2  0  0  0  0
 20 37  1  0  0  0  0
 21 45  1  0  0  0  0
 22 38  1  0  0  0  0
 23 54  1  0  0  0  0
 24 77  1  0  0  0  0
 25 78  1  0  0  0  0
 26 28  2  0  0  0  0
 26 77  1  0  0  0  0
 27 79  1  0  0  0  0
 28 80  1  0  0  0  0
 29 61  2  0  0  0  0
 30 63  1  0  0  0  0
 30 66  1  0  0  0  0
 31 67  1  0  0  0  0
 31 72  2  0  0  0  0
 32 46  1  0  0  0  0
 32 68  1  0  0  0  0
 32 73  2  0  0  0  0
 33 57  1  0  0  0  0
 33 64  1  0  0  0  0
 33 74  2  0  0  0  0
 34 58  1  0  0  0  0
 34 69  1  0  0  0  0
 34 75  2  0  0  0  0
 35 65  1  0  0  0  0
 35 70  1  0  0  0  0
 35 76  2  0  0  0  0
 36 39  1  0  0  0  0
 37 46  1  0  0  0  0
 38 64  1  0  0  0  0
 39 41  1  0  0  0  0
 40 42  1  0  0  0  0
 40 43  1  0  0  0  0
 41 45  1  0  0  0  0
 42 47  1  0  0  0  0
 43 65  1  0  0  0  0
 44 47  1  0  0  0  0
 44 65  1  0  0  0  0
 45 68  1  0  0  0  0
 46 64  1  0  0  0  0
 47 63  1  0  0  0  0
 48 58  1  0  0  0  0
 49 59  1  0  0  0  0
 50 59  1  0  0  0  0
 51 59  1  0  0  0  0
 52 70  1  0  0  0  0
 53 71  1  0  0  0  0
 54 70  1  0  0  0  0
 55 56  1  0  0  0  0
 55 62  1  0  0  0  0
 56 78  1  0  0  0  0
 57 59  1  0  0  0  0
 57 69  1  0  0  0  0
 58 71  1  0  0  0  0
 60 62  1  0  0  0  0
 61 63  1  0  0  0  0
M  CHG  1  71   1
M  ISO  4  35 100  56 101  70 100  78 101
M  END
> <Batch ID>
0048

> <Smiles>
CNC(C)C(=O)NC(C(=O)N1Cc2cc([101O:1][101CH2:1]Cn3cc(C[100N:0](C)[100C:0](=O)N4CCCC(n5nc(-c6ccc(Oc7ccc(F)cc7F)cc6)c(C(N)=O)c5N)C4)cn3)ccc2CC1C(=O)NC1CCCc2ccccc21)C(C)(C)C

> <Shape>
0.300

> <Color>
0.069

> <Negative vol penalty>
0.000

$$$$

  -OEChem-04052317263D

 80 88  0     1  0  0  0  0  0999 V2000
  -16.5706  -25.0234   22.9651 C   0  0  0  0  0  0  0  0  0  0  0  0
  -17.1758  -24.6615   21.7658 C   0  0  0  0  0  0  0  0  0  0  0  0
  -24.9873  -14.4828   22.4935 C   0  0  0  0  0  0  0  0  0  0  0  0
  -25.3623  -13.6752   20.2476 C   0  0  0  0  0  0  0  0  0  0  0  0
  -17.0450  -26.1222   23.6803 C   0  0  0  0  0  0  0  0  0  0  0  0
  -18.2552  -25.3990   21.2805 C   0  0  0  0  0  0  0  0  0  0  0  0
  -23.0795  -23.2560   18.1758 C   0  0  0  0  0  0  0  0  0  0  0  0
  -24.0033  -13.5117   22.6784 C   0  0  0  0  0  0  0  0  0  0  0  0
  -24.3783  -12.7040   20.4325 C   0  0  0  0  0  0  0  0  0  0  0  0
  -23.3787  -23.2212   16.8145 C   0  0  0  0  0  0  0  0  0  0  0  0
  -22.2169   -9.7806   20.4381 C   0  0  0  0  0  0  0  0  0  0  0  0
  -22.4975   -8.4825   20.0118 C   0  0  0  0  0  0  0  0  0  0  0  0
  -24.6621  -25.2501   17.0510 C   0  0  0  0  0  0  0  0  0  0  0  0
  -24.3828   -8.3948   21.5202 C   0  0  0  0  0  0  0  0  0  0  0  0
  -28.5813  -24.5023   13.7564 C   0  0  0  0  0  0  0  0  0  0  0  0
  -25.6668  -14.5646   21.2780 C   0  0  0  0  0  0  0  0  0  0  0  0
  -28.0588  -15.4474   21.3590 C   0  0  0  0  0  0  0  0  0  0  0  0
  -18.1369  -26.8677   23.2084 C   0  0  0  0  0  0  0  0  0  0  0  0
  -23.5611  -24.2958   18.9841 C   0  0  0  0  0  0  0  0  0  0  0  0
  -18.7438  -26.5096   21.9894 C   0  0  0  0  0  0  0  0  0  0  0  0
  -24.3696  -25.2943   18.4227 C   0  0  0  0  0  0  0  0  0  0  0  0
  -23.6988  -12.6223   21.6480 C   0  0  0  0  0  0  0  0  0  0  0  0
  -24.1677  -24.2199   16.2513 C   0  0  0  0  0  0  0  0  0  0  0  0
  -23.0192  -10.3859   21.4054 C   0  0  0  0  0  0  0  0  0  0  0  0
  -23.5805   -7.7896   20.5528 C   0  0  0  0  0  0  0  0  0  0  0  0
  -24.1022   -9.6929   21.9465 C   0  0  0  0  0  0  0  0  0  0  0  0
  -26.6830  -15.5679   21.0862 C   0  0  0  0  0  0  0  0  0  0  0  0
  -28.8022  -23.2081   14.2479 C   0  0  0  0  0  0  0  0  0  0  0  0
  -28.5864  -16.6660   21.0080 C   0  0  0  0  0  0  0  0  0  0  0  0
  -28.7941  -14.3336   21.8827 C   0  0  0  0  0  0  0  0  0  0  0  0
  -22.2165  -26.5868   20.7296 C   0  0  0  0  0  0  0  0  0  0  0  0
  -25.2782  -27.1507   21.6409 C   0  0  0  0  0  0  0  0  0  0  0  0
  -28.6065  -26.8887   20.9336 C   0  0  0  0  0  0  0  0  0  0  0  0
  -29.0370  -20.8117   17.4644 C   0  0  0  0  0  0  0  0  0  0  0  0
  -18.5842  -28.0759   23.9925 C   0  0  0  0  0  0  0  0  0  0  0  0
  -23.2515  -24.3043   20.4560 C   0  0  0  0  0  0  0  0  0  0  0  0
  -24.9282  -26.4213   19.2512 C   0  0  0  0  0  0  0  0  0  0  0  0
  -19.9705  -28.5788   23.5983 C   0  0  0  0  0  0  0  0  0  0  0  0
  -26.3085  -21.0271   19.8321 C   0  0  0  0  0  0  0  0  0  0  0  0
  -20.0992  -28.6545   22.0802 C   0  0  0  0  0  0  0  0  0  0  0  0
  -26.2798  -19.6044   20.3934 C   0  0  0  0  0  0  0  0  0  0  0  0
  -26.6334  -21.0268   18.3413 C   0  0  0  0  0  0  0  0  0  0  0  0
  -27.8761  -18.9086   18.5474 C   0  0  0  0  0  0  0  0  0  0  0  0
  -19.9327  -27.2698   21.4427 C   0  0  1  0  0  0  0  0  0  0  0  0
  -23.3690  -25.6900   21.0832 C   0  0  1  0  0  0  0  0  0  0  0  0
  -27.5751  -18.8426   20.0558 C   0  0  2  0  0  0  0  0  0  0  0  0
  -30.8675  -27.4752   21.8510 C   0  0  0  0  0  0  0  0  0  0  0  0
  -24.8568  -30.0575   20.8145 C   0  0  0  0  0  0  0  0  0  0  0  0
  -27.3426  -30.3540   20.8464 C   0  0  0  0  0  0  0  0  0  0  0  0
  -26.1330  -29.7527   22.9435 C   0  0  0  0  0  0  0  0  0  0  0  0
  -29.4173  -24.0456   21.0691 C   0  0  0  0  0  0  0  0  0  0  0  0
  -30.0086  -22.6452   14.8686 C   0  0  0  0  0  0  0  0  0  0  0  0
  -25.4782  -22.9659   13.1058 C   0  0  0  0  0  0  0  0  0  0  0  0
  -30.0685  -22.8027   16.4019 C   0  0  0  0  0  0  0  0  0  0  0  0
  -24.5379  -22.9048   14.3047 C   0  0  0  0  0  0  0  0  0  1  0  0
  -26.4045  -28.0148   21.1275 C   0  0  1  0  0  0  0  0  0  0  0  0
  -29.7802  -26.4149   21.7718 C   0  0  2  0  0  0  0  0  0  0  0  0
  -26.1723  -29.5247   21.4167 C   0  0  0  0  0  0  0  0  0  0  0  0
  -27.3404  -24.5968   13.2706 N   0  0  0  0  0  0  0  0  0  0  0  0
  -26.3570  -16.7683   20.5996 N   0  0  0  0  0  0  0  0  0  0  0  0
  -27.7036  -22.4666   14.0809 N   0  0  0  0  0  0  0  0  0  0  0  0
  -27.5355  -17.4133   20.5639 N   0  0  0  0  0  0  0  0  0  0  0  0
  -26.8830  -23.3549   13.4974 N   0  0  0  0  0  0  0  0  0  0  0  0
  -24.5922  -26.3892   20.6842 N   0  0  0  0  0  0  0  0  0  0  0  0
  -27.8870  -20.3021   18.0899 N   0  0  0  0  0  0  0  0  0  0  0  0
  -29.8422  -17.1605   21.0391 N   0  0  0  0  0  0  0  0  0  0  0  0
  -28.0965  -13.1575   22.1900 N   0  0  0  0  0  0  0  0  0  0  0  0
  -21.1444  -26.4936   21.5964 N   0  0  0  0  0  0  0  0  0  0  0  0
  -27.6295  -27.4766   21.7090 N   0  0  0  0  0  0  0  0  0  0  0  0
  -28.9630  -22.1373   17.0547 N   0  0  0  0  0  0  0  0  0  0  0  0
  -30.3707  -25.1791   21.1844 N   0  3  0  0  0  0  0  0  0  0  0  0
  -30.0305  -14.3854   22.0881 O   0  0  0  0  0  0  0  0  0  0  0  0
  -22.2947  -27.3110   19.7441 O   0  0  0  0  0  0  0  0  0  0  0  0
  -25.0212  -27.1459   22.8474 O   0  0  0  0  0  0  0  0  0  0  0  0
  -28.5626  -26.7543   19.7128 O   0  0  0  0  0  0  0  0  0  0  0  0
  -30.0570  -20.1365   17.2886 O   0  0  0  0  0  0  0  0  0  0  0  0
  -22.7388  -11.6744   21.8282 O   0  0  0  0  0  0  0  0  0  0  0  0
  -24.4607  -24.1887   14.9228 O   0  0  0  0  0  0  0  0  0  1  0  0
  -23.8490   -6.5425   20.1445 F   0  0  0  0  0  0  0  0  0  0  0  0
  -24.8758  -10.2687   22.8769 F   0  0  0  0  0  0  0  0  0  0  0  0
  1  2  1  0  0  0  0
  1  5  2  0  0  0  0
  2  6  2  0  0  0  0
  3  8  2  0  0  0  0
  3 16  1  0  0  0  0
  4  9  1  0  0  0  0
  4 16  2  0  0  0  0
  5 18  1  0  0  0  0
  6 20  1  0  0  0  0
  7 10  2  0  0  0  0
  7 19  1  0  0  0  0
  8 22  1  0  0  0  0
  9 22  2  0  0  0  0
 10 23  1  0  0  0  0
 11 12  2  0  0  0  0
 11 24  1  0  0  0  0
 12 25  1  0  0  0  0
 13 21  1  0  0  0  0
 13 23  2  0  0  0  0
 14 25  2  0  0  0  0
 14 26  1  0  0  0  0
 15 28  1  0  0  0  0
 15 59  2  0  0  0  0
 16 27  1  0  0  0  0
 17 27  1  0  0  0  0
 17 29  2  0  0  0  0
 17 30  1  0  0  0  0
 18 20  2  0  0  0  0
 18 35  1  0  0  0  0
 19 21  2  0  0  0  0
 19 36  1  0  0  0  0
 20 44  1  0  0  0  0
 21 37  1  0  0  0  0
 22 77  1  0  0  0  0
 23 78  1  0  0  0  0
 24 26  2  0  0  0  0
 24 77  1  0  0  0  0
 25 79  1  0  0  0  0
 26 80  1  0  0  0  0
 27 60  2  0  0  0  0
 28 52  1  0  0  0  0
 28 61  2  0  0  0  0
 29 62  1  0  0  0  0
 29 66  1  0  0  0  0
 30 67  1  0  0  0  0
 30 72  2  0  0  0  0
 31 45  1  0  0  0  0
 31 68  1  0  0  0  0
 31 73  2  0  0  0  0
 32 56  1  0  0  0  0
 32 64  1  0  0  0  0
 32 74  2  0  0  0  0
 33 57  1  0  0  0  0
 33 69  1  0  0  0  0
 33 75  2  0  0  0  0
 34 65  1  0  0  0  0
 34 70  1  0  0  0  0
 34 76  2  0  0  0  0
 35 38  1  0  0  0  0
 36 45  1  0  0  0  0
 37 64  1  0  0  0  0
 38 40  1  0  0  0  0
 39 41  1  0  0  0  0
 39 42  1  0  0  0  0
 40 44  1  0  0  0  0
 41 46  1  0  0  0  0
 42 65  1  0  0  0  0
 43 46  1  0  0  0  0
 43 65  1  0  0  0  0
 44 68  1  0  0  0  0
 45 64  1  0  0  0  0
 46 62  1  0  0  0  0
 47 57  1  0  0  0  0
 48 58  1  0  0  0  0
 49 58  1  0  0  0  0
 50 58  1  0  0  0  0
 51 71  1  0  0  0  0
 52 54  1  0  0  0  0
 53 55  1  0  0  0  0
 53 63  1  0  0  0  0
 54 70  1  0  0  0  0
 55 78  1  0  0  0  0
 56 58  1  0  0  0  0
 56 69  1  0  0  0  0
 57 71  1  0  0  0  0
 59 63  1  0  0  0  0
 60 62  1  0  0  0  0
 61 63  1  0  0  0  0
M  CHG  1  71   1
M  ISO  4  34 100  55 101  70 100  78 101
M  END
> <Batch ID>
0048

> <Smiles>
CNC(C)C(=O)NC(C(=O)N1Cc2cc([101O:1][101CH2:1]Cn3ncc(CC[100NH:0][100C:0](=O)N4CCCC(n5nc(-c6ccc(Oc7ccc(F)cc7F)cc6)c(C(N)=O)c5N)C4)n3)ccc2CC1C(=O)NC1CCCc2ccccc21)C(C)(C)C

> <Shape>
0.226

> <Color>
0.060

> <Negative vol penalty>
0.000

$$$$

  -OEChem-04052317263D

 83 91  0     1  0  0  0  0  0999 V2000
  -30.0104  -31.2606   19.3414 C   0  0  0  0  0  0  0  0  0  0  0  0
  -30.1480  -30.4235   20.4440 C   0  0  0  0  0  0  0  0  0  0  0  0
  -23.3429   -9.7860   19.9802 C   0  0  0  0  0  0  0  0  0  0  0  0
  -23.8059  -10.0098   22.3409 C   0  0  0  0  0  0  0  0  0  0  0  0
  -29.8469  -30.7144   18.0690 C   0  0  0  0  0  0  0  0  0  0  0  0
  -30.1210  -29.0396   20.2750 C   0  0  0  0  0  0  0  0  0  0  0  0
  -32.9079  -23.0275   22.9960 C   0  0  0  0  0  0  0  0  0  0  0  0
  -22.6452   -8.6041   20.2291 C   0  0  0  0  0  0  0  0  0  0  0  0
  -23.1081   -8.8280   22.5898 C   0  0  0  0  0  0  0  0  0  0  0  0
  -32.5131  -21.7864   23.4937 C   0  0  0  0  0  0  0  0  0  0  0  0
  -19.8845   -7.8501   22.8587 C   0  0  0  0  0  0  0  0  0  0  0  0
  -18.9899   -7.8406   23.9288 C   0  0  0  0  0  0  0  0  0  0  0  0
  -32.3045  -20.9553   21.2387 C   0  0  0  0  0  0  0  0  0  0  0  0
  -20.2444   -6.0527   24.9616 C   0  0  0  0  0  0  0  0  0  0  0  0
  -29.9984  -17.1313   23.7345 C   0  0  0  0  0  0  0  0  0  0  0  0
  -23.9234  -10.4888   21.0361 C   0  0  0  0  0  0  0  0  0  0  0  0
  -24.1230  -13.0168   20.7581 C   0  0  0  0  0  0  0  0  0  0  0  0
  -29.8275  -29.3231   17.8831 C   0  0  0  0  0  0  0  0  0  0  0  0
  -32.9935  -23.2454   21.6134 C   0  0  0  0  0  0  0  0  0  0  0  0
  -29.9556  -28.4743   18.9991 C   0  0  0  0  0  0  0  0  0  0  0  0
  -32.7030  -22.1993   20.7261 C   0  0  0  0  0  0  0  0  0  0  0  0
  -22.5277   -8.1251   21.5339 C   0  0  0  0  0  0  0  0  0  0  0  0
  -32.2086  -20.7509   22.6150 C   0  0  0  0  0  0  0  0  0  0  0  0
  -20.9590   -6.9609   22.8399 C   0  0  0  0  0  0  0  0  0  0  0  0
  -19.1698   -6.9420   24.9803 C   0  0  0  0  0  0  0  0  0  0  0  0
  -21.1390   -6.0622   23.8914 C   0  0  0  0  0  0  0  0  0  0  0  0
  -24.6448  -11.7094   20.7795 C   0  0  0  0  0  0  0  0  0  0  0  0
  -31.0944  -17.2805   22.8636 C   0  0  0  0  0  0  0  0  0  0  0  0
  -30.0432  -15.8139   24.1202 C   0  0  0  0  0  0  0  0  0  0  0  0
  -25.2045  -13.8134   20.4713 C   0  0  0  0  0  0  0  0  0  0  0  0
  -22.7808  -13.4705   20.9779 C   0  0  0  0  0  0  0  0  0  0  0  0
  -31.5427  -25.1840   19.5541 C   0  0  0  0  0  0  0  0  0  0  0  0
  -31.1052  -13.0112   21.2778 C   0  0  0  0  0  0  0  0  0  0  0  0
  -33.6932  -23.9407   17.4680 C   0  0  0  0  0  0  0  0  0  0  0  0
  -35.7711  -21.3628   16.6414 C   0  0  0  0  0  0  0  0  0  0  0  0
  -29.6008  -28.7794   16.4947 C   0  0  0  0  0  0  0  0  0  0  0  0
  -33.4466  -24.5819   21.0931 C   0  0  0  0  0  0  0  0  0  0  0  0
  -32.7988  -22.3758   19.2334 C   0  0  0  0  0  0  0  0  0  0  0  0
  -29.9585  -27.3021   16.3532 C   0  0  0  0  0  0  0  0  0  0  0  0
  -29.4115  -13.7570   18.2094 C   0  0  0  0  0  0  0  0  0  0  0  0
  -29.3780  -26.4988   17.5127 C   0  0  0  0  0  0  0  0  0  0  0  0
  -27.9544  -13.4083   18.5098 C   0  0  0  0  0  0  0  0  0  0  0  0
  -30.3709  -12.8113   18.9252 C   0  0  0  0  0  0  0  0  0  0  0  0
  -28.7057  -12.3895   20.7058 C   0  0  0  0  0  0  0  0  0  0  0  0
  -29.9563  -26.9680   18.8531 C   0  0  1  0  0  0  0  0  0  0  0  0
  -33.0030  -24.8458   19.6575 C   0  0  1  0  0  0  0  0  0  0  0  0
  -27.7037  -13.3399   20.0266 C   0  0  2  0  0  0  0  0  0  0  0  0
  -29.1714  -15.0385   25.0216 C   0  0  0  0  0  0  0  0  0  0  0  0
  -33.6647   -9.0287   24.2335 C   0  0  0  0  0  0  0  0  0  0  0  0
  -37.3708  -20.6163   14.8579 C   0  0  0  0  0  0  0  0  0  0  0  0
  -31.3411  -23.2386   15.6556 C   0  0  0  0  0  0  0  0  0  0  0  0
  -32.8601  -21.6955   14.3988 C   0  0  0  0  0  0  0  0  0  0  0  0
  -33.3446  -24.1417   14.4619 C   0  0  0  0  0  0  0  0  0  0  0  0
  -38.0357  -21.2793   18.5449 C   0  0  0  0  0  0  0  0  0  0  0  0
  -31.5254  -18.5228   22.1410 C   0  0  0  0  0  0  0  0  0  1  0  0
  -32.2599   -9.5174   23.9178 C   0  0  0  0  0  0  0  0  0  0  0  0
  -32.2598  -10.9873   23.4933 C   0  0  0  0  0  0  0  0  0  0  0  0
  -30.8347  -11.4818   23.2165 C   0  0  0  0  0  0  0  0  0  0  0  0
  -31.5879  -13.9107   23.5671 C   0  0  0  0  0  0  0  0  0  0  0  0
  -30.7342  -12.9406   22.7378 C   0  0  1  0  0  0  0  0  0  0  0  0
  -33.7172  -22.7504   16.5397 C   0  0  1  0  0  0  0  0  0  0  0  0
  -37.2189  -21.3425   16.1854 C   0  0  2  0  0  0  0  0  0  0  0  0
  -32.8120  -22.9535   15.2920 C   0  0  0  0  0  0  0  0  0  0  0  0
  -25.9557  -11.6732   20.5263 N   0  0  0  0  0  0  0  0  0  0  0  0
  -31.7851  -16.1483   22.7054 N   0  0  0  0  0  0  0  0  0  0  0  0
  -31.1215  -15.2751   23.4822 N   0  0  0  0  0  0  0  0  0  0  0  0
  -26.2668  -12.9677   20.3430 N   0  0  0  0  0  0  0  0  0  0  0  0
  -33.2403  -23.7029   18.7734 N   0  0  0  0  0  0  0  0  0  0  0  0
  -30.0858  -12.7571   20.3601 N   0  0  0  0  0  0  0  0  0  0  0  0
  -25.3409  -15.1477   20.3187 N   0  0  0  0  0  0  0  0  0  0  0  0
  -21.7918  -12.5188   21.2614 N   0  0  0  0  0  0  0  0  0  0  0  0
  -31.2914  -26.4416   19.0396 N   0  0  0  0  0  0  0  0  0  0  0  0
  -35.1208  -22.5056   16.2262 N   0  0  0  0  0  0  0  0  0  0  0  0
  -38.0710  -20.6558   17.1969 N   0  3  0  0  0  0  0  0  0  0  0  0
  -22.4647  -14.6824   20.9083 O   0  0  0  0  0  0  0  0  0  0  0  0
  -30.7057  -24.3640   19.9131 O   0  0  0  0  0  0  0  0  0  0  0  0
  -32.2662  -13.2871   20.9644 O   0  0  0  0  0  0  0  0  0  0  0  0
  -34.0693  -25.0395   17.0522 O   0  0  0  0  0  0  0  0  0  0  0  0
  -35.2664  -20.4539   17.2970 O   0  0  0  0  0  0  0  0  0  0  0  0
  -21.8467   -6.9721   21.7772 O   0  0  0  0  0  0  0  0  0  0  0  0
  -31.8224  -19.5388   23.0980 O   0  0  0  0  0  0  0  0  0  1  0  0
  -18.3116   -6.9340   26.0086 F   0  0  0  0  0  0  0  0  0  0  0  0
  -22.1700   -5.2063   23.8796 F   0  0  0  0  0  0  0  0  0  0  0  0
  1  2  1  0  0  0  0
  1  5  2  0  0  0  0
  2  6  2  0  0  0  0
  3  8  2  0  0  0  0
  3 16  1  0  0  0  0
  4  9  1  0  0  0  0
  4 16  2  0  0  0  0
  5 18  1  0  0  0  0
  6 20  1  0  0  0  0
  7 10  2  0  0  0  0
  7 19  1  0  0  0  0
  8 22  1  0  0  0  0
  9 22  2  0  0  0  0
 10 23  1  0  0  0  0
 11 12  2  0  0  0  0
 11 24  1  0  0  0  0
 12 25  1  0  0  0  0
 13 21  1  0  0  0  0
 13 23  2  0  0  0  0
 14 25  2  0  0  0  0
 14 26  1  0  0  0  0
 15 28  1  0  0  0  0
 15 29  2  0  0  0  0
 16 27  1  0  0  0  0
 17 27  1  0  0  0  0
 17 30  2  0  0  0  0
 17 31  1  0  0  0  0
 18 20  2  0  0  0  0
 18 36  1  0  0  0  0
 19 21  2  0  0  0  0
 19 37  1  0  0  0  0
 20 45  1  0  0  0  0
 21 38  1  0  0  0  0
 22 80  1  0  0  0  0
 23 81  1  0  0  0  0
 24 26  2  0  0  0  0
 24 80  1  0  0  0  0
 25 82  1  0  0  0  0
 26 83  1  0  0  0  0
 27 64  2  0  0  0  0
 28 55  1  0  0  0  0
 28 65  2  0  0  0  0
 29 48  1  0  0  0  0
 29 66  1  0  0  0  0
 30 67  1  0  0  0  0
 30 70  1  0  0  0  0
 31 71  1  0  0  0  0
 31 75  2  0  0  0  0
 32 46  1  0  0  0  0
 32 72  1  0  0  0  0
 32 76  2  0  0  0  0
 33 60  1  0  0  0  0
 33 69  1  0  0  0  0
 33 77  2  0  0  0  0
 34 61  1  0  0  0  0
 34 68  1  0  0  0  0
 34 78  2  0  0  0  0
 35 62  1  0  0  0  0
 35 73  1  0  0  0  0
 35 79  2  0  0  0  0
 36 39  1  0  0  0  0
 37 46  1  0  0  0  0
 38 68  1  0  0  0  0
 39 41  1  0  0  0  0
 40 42  1  0  0  0  0
 40 43  1  0  0  0  0
 41 45  1  0  0  0  0
 42 47  1  0  0  0  0
 43 69  1  0  0  0  0
 44 47  1  0  0  0  0
 44 69  1  0  0  0  0
 45 72  1  0  0  0  0
 46 68  1  0  0  0  0
 47 67  1  0  0  0  0
 49 56  1  0  0  0  0
 50 62  1  0  0  0  0
 51 63  1  0  0  0  0
 52 63  1  0  0  0  0
 53 63  1  0  0  0  0
 54 74  1  0  0  0  0
 55 81  1  0  0  0  0
 56 57  1  0  0  0  0
 57 58  1  0  0  0  0
 58 60  1  0  0  0  0
 59 60  1  0  0  0  0
 59 66  1  0  0  0  0
 61 63  1  0  0  0  0
 61 73  1  0  0  0  0
 62 74  1  0  0  0  0
 64 67  1  0  0  0  0
 65 66  1  0  0  0  0
M  CHG  1  74   1
M  ISO  4  33 100  55 101  60 100  81 101
M  END
> <Batch ID>
0048

> <Smiles>
CCCC[100CH:0](Cn1nc([101CH2:1][101O:1]c2ccc3c(c2)CN(C(=O)C(NC(=O)C(C)NC)C(C)(C)C)C(C(=O)NC2CCCc4ccccc42)C3)cc1C)[100C:0](=O)N1CCCC(n2nc(-c3ccc(Oc4ccc(F)cc4F)cc3)c(C(N)=O)c2N)C1

> <Shape>
0.185

> <Color>
0.179

> <Negative vol penalty>
0.000

$$$$

  -OEChem-04052317263D

 87 95  0     1  0  0  0  0  0999 V2000
  -29.9883  -31.7005   25.2858 C   0  0  0  0  0  0  0  0  0  0  0  0
  -29.5883  -30.5346   24.6407 C   0  0  0  0  0  0  0  0  0  0  0  0
  -22.5254  -10.6120   22.2328 C   0  0  0  0  0  0  0  0  0  0  0  0
  -24.2141   -9.1986   23.2265 C   0  0  0  0  0  0  0  0  0  0  0  0
  -29.0329  -32.5563   25.8323 C   0  0  0  0  0  0  0  0  0  0  0  0
  -28.2326  -30.2233   24.5428 C   0  0  0  0  0  0  0  0  0  0  0  0
  -26.9329  -28.6377   19.9123 C   0  0  0  0  0  0  0  0  0  0  0  0
  -21.8667   -9.4830   21.7460 C   0  0  0  0  0  0  0  0  0  0  0  0
  -23.5554   -8.0695   22.7397 C   0  0  0  0  0  0  0  0  0  0  0  0
  -27.2517  -27.3226   19.5768 C   0  0  0  0  0  0  0  0  0  0  0  0
  -22.1232   -4.7965   22.0657 C   0  0  0  0  0  0  0  0  0  0  0  0
  -21.9590   -3.7164   22.9328 C   0  0  0  0  0  0  0  0  0  0  0  0
  -24.9786  -26.6601   20.0387 C   0  0  0  0  0  0  0  0  0  0  0  0
  -20.6999   -5.1203   24.4430 C   0  0  0  0  0  0  0  0  0  0  0  0
  -30.9178  -17.1879   21.9396 C   0  0  0  0  0  0  0  0  0  0  0  0
  -23.6991  -10.4699   22.9730 C   0  0  0  0  0  0  0  0  0  0  0  0
  -24.1795  -12.2685   24.7171 C   0  0  0  0  0  0  0  0  0  0  0  0
  -27.6643  -32.2602   25.7326 C   0  0  0  0  0  0  0  0  0  0  0  0
  -25.6351  -28.9724   20.3247 C   0  0  0  0  0  0  0  0  0  0  0  0
  -27.2580  -31.0753   25.0897 C   0  0  0  0  0  0  0  0  0  0  0  0
  -24.6452  -27.9806   20.3764 C   0  0  0  0  0  0  0  0  0  0  0  0
  -22.3817   -8.2117   21.9995 C   0  0  0  0  0  0  0  0  0  0  0  0
  -26.2753  -26.3330   19.6427 C   0  0  0  0  0  0  0  0  0  0  0  0
  -21.5759   -6.0386   22.3872 C   0  0  0  0  0  0  0  0  0  0  0  0
  -21.2473   -3.8783   24.1215 C   0  0  0  0  0  0  0  0  0  0  0  0
  -20.8642   -6.2005   23.5759 C   0  0  0  0  0  0  0  0  0  0  0  0
  -24.3803  -11.6358   23.4756 C   0  0  0  0  0  0  0  0  0  0  0  0
  -30.6893  -17.0492   20.5575 C   0  0  0  0  0  0  0  0  0  0  0  0
  -30.9901  -18.5446   22.1412 C   0  0  0  0  0  0  0  0  0  0  0  0
  -25.0631  -13.3200   24.7134 C   0  0  0  0  0  0  0  0  0  0  0  0
  -23.2753  -11.9353   25.7787 C   0  0  0  0  0  0  0  0  0  0  0  0
  -24.3627  -30.1585   22.9851 C   0  0  0  0  0  0  0  0  0  0  0  0
  -21.6554  -30.2194   21.1993 C   0  0  0  0  0  0  0  0  0  0  0  0
  -19.9067  -28.9762   18.5454 C   0  0  0  0  0  0  0  0  0  0  0  0
  -30.1386  -13.9047   21.4248 C   0  0  0  0  0  0  0  0  0  0  0  0
  -26.6709  -33.1920   26.3804 C   0  0  0  0  0  0  0  0  0  0  0  0
  -25.3005  -30.4006   20.6575 C   0  0  0  0  0  0  0  0  0  0  0  0
  -23.2319  -28.2918   20.7935 C   0  0  0  0  0  0  0  0  0  0  0  0
  -25.2359  -32.9778   25.9059 C   0  0  0  0  0  0  0  0  0  0  0  0
  -27.3093  -16.3280   21.7632 C   0  0  0  0  0  0  0  0  0  0  0  0
  -24.8900  -31.4921   25.9049 C   0  0  0  0  0  0  0  0  0  0  0  0
  -26.2033  -15.4135   22.2876 C   0  0  0  0  0  0  0  0  0  0  0  0
  -28.3007  -15.5564   20.9006 C   0  0  0  0  0  0  0  0  0  0  0  0
  -27.8102  -13.4582   22.1145 C   0  0  0  0  0  0  0  0  0  0  0  0
  -25.7956  -30.7155   24.9415 C   0  0  1  0  0  0  0  0  0  0  0  0
  -24.0765  -30.5332   21.5584 C   0  0  1  0  0  0  0  0  0  0  0  0
  -26.7960  -14.1909   23.0087 C   0  0  2  0  0  0  0  0  0  0  0  0
  -32.6957  -19.6091   23.6394 C   0  0  0  0  0  0  0  0  0  0  0  0
  -34.2941  -12.9773   19.6037 C   0  0  0  0  0  0  0  0  0  0  0  0
  -17.7062  -29.1959   17.3593 C   0  0  0  0  0  0  0  0  0  0  0  0
  -20.2985  -28.6390   23.4289 C   0  0  0  0  0  0  0  0  0  0  0  0
  -18.4632  -28.0796   21.8205 C   0  0  0  0  0  0  0  0  0  0  0  0
  -18.8969  -30.4575   22.4373 C   0  0  0  0  0  0  0  0  0  0  0  0
  -21.2159  -29.8164   16.0277 C   0  0  0  0  0  0  0  0  0  0  0  0
  -30.5316  -15.7992   19.7951 C   0  0  0  0  0  0  0  0  0  0  0  0
  -31.2126  -19.3309   23.3684 C   0  0  0  0  0  0  0  0  0  0  0  0
  -32.7987  -13.2614   19.5824 C   0  0  0  0  0  0  0  0  0  0  0  0
  -29.3718  -22.6142   20.1064 C   0  0  0  0  0  0  0  0  0  0  0  0
  -29.3738  -21.1108   20.3906 C   0  0  0  0  0  0  0  0  0  0  0  0
  -27.9508  -23.1314   19.8637 C   0  0  0  0  0  0  0  0  0  0  0  0
  -30.7971  -20.5862   20.5929 C   0  0  0  0  0  0  0  0  0  0  0  0
  -32.3958  -14.3695   20.5481 C   0  0  0  0  0  0  0  0  0  0  0  0
  -27.9254  -24.6228   19.5523 C   0  0  0  0  0  0  0  0  0  1  0  0
  -20.5296  -29.2501   20.9311 C   0  0  1  0  0  0  0  0  0  0  0  0
  -19.1507  -29.6668   17.4247 C   0  0  2  0  0  0  0  0  0  0  0  0
  -19.5741  -29.1000   22.1484 C   0  0  0  0  0  0  0  0  0  0  0  0
  -25.3176  -12.2356   22.7369 N   0  0  0  0  0  0  0  0  0  0  0  0
  -30.6208  -18.2240   19.9257 N   0  0  0  0  0  0  0  0  0  0  0  0
  -30.8073  -19.1139   20.9154 N   0  0  0  0  0  0  0  0  0  0  0  0
  -25.7137  -13.2561   23.5164 N   0  0  0  0  0  0  0  0  0  0  0  0
  -22.9557  -29.7017   21.1152 N   0  0  0  0  0  0  0  0  0  0  0  0
  -28.8282  -14.3784   21.6020 N   0  0  0  0  0  0  0  0  0  0  0  0
  -25.3390  -14.2840   25.6173 N   0  0  0  0  0  0  0  0  0  0  0  0
  -22.4376  -10.8231   25.6185 N   0  0  0  0  0  0  0  0  0  0  0  0
  -25.3625  -30.9088   23.5742 N   0  0  0  0  0  0  0  0  0  0  0  0
  -19.8755  -29.7115   19.7114 N   0  0  0  0  0  0  0  0  0  0  0  0
  -30.9611  -14.6175   20.5394 N   0  0  0  0  0  0  0  0  0  0  0  0
  -19.7973  -29.3833   16.1122 N   0  3  0  0  0  0  0  0  0  0  0  0
  -23.2005  -12.6137   26.8312 O   0  0  0  0  0  0  0  0  0  0  0  0
  -23.7227  -29.2565   23.5129 O   0  0  0  0  0  0  0  0  0  0  0  0
  -21.3910  -31.3943   21.4664 O   0  0  0  0  0  0  0  0  0  0  0  0
  -20.4655  -27.8910   18.4020 O   0  0  0  0  0  0  0  0  0  0  0  0
  -30.5528  -12.9084   22.0313 O   0  0  0  0  0  0  0  0  0  0  0  0
  -21.7391   -7.1097   21.5249 O   0  0  0  0  0  0  0  0  0  0  0  0
  -26.5839  -25.0484   19.3164 O   0  0  0  0  0  0  0  0  0  1  0  0
  -21.0883   -2.8406   24.9534 F   0  0  0  0  0  0  0  0  0  0  0  0
  -20.3350   -7.3910   23.8896 F   0  0  0  0  0  0  0  0  0  0  0  0
  1  2  1  0  0  0  0
  1  5  2  0  0  0  0
  2  6  2  0  0  0  0
  3  8  2  0  0  0  0
  3 16  1  0  0  0  0
  4  9  1  0  0  0  0
  4 16  2  0  0  0  0
  5 18  1  0  0  0  0
  6 20  1  0  0  0  0
  7 10  2  0  0  0  0
  7 19  1  0  0  0  0
  8 22  1  0  0  0  0
  9 22  2  0  0  0  0
 10 23  1  0  0  0  0
 11 12  2  0  0  0  0
 11 24  1  0  0  0  0
 12 25  1  0  0  0  0
 13 21  1  0  0  0  0
 13 23  2  0  0  0  0
 14 25  2  0  0  0  0
 14 26  1  0  0  0  0
 15 28  1  0  0  0  0
 15 29  2  0  0  0  0
 16 27  1  0  0  0  0
 17 27  1  0  0  0  0
 17 30  2  0  0  0  0
 17 31  1  0  0  0  0
 18 20  2  0  0  0  0
 18 36  1  0  0  0  0
 19 21  2  0  0  0  0
 19 37  1  0  0  0  0
 20 45  1  0  0  0  0
 21 38  1  0  0  0  0
 22 84  1  0  0  0  0
 23 85  1  0  0  0  0
 24 26  2  0  0  0  0
 24 84  1  0  0  0  0
 25 86  1  0  0  0  0
 26 87  1  0  0  0  0
 27 67  2  0  0  0  0
 28 55  1  0  0  0  0
 28 68  2  0  0  0  0
 29 56  1  0  0  0  0
 29 69  1  0  0  0  0
 30 70  1  0  0  0  0
 30 73  1  0  0  0  0
 31 74  1  0  0  0  0
 31 79  2  0  0  0  0
 32 46  1  0  0  0  0
 32 75  1  0  0  0  0
 32 80  2  0  0  0  0
 33 64  1  0  0  0  0
 33 71  1  0  0  0  0
 33 81  2  0  0  0  0
 34 65  1  0  0  0  0
 34 76  1  0  0  0  0
 34 82  2  0  0  0  0
 35 72  1  0  0  0  0
 35 77  1  0  0  0  0
 35 83  2  0  0  0  0
 36 39  1  0  0  0  0
 37 46  1  0  0  0  0
 38 71  1  0  0  0  0
 39 41  1  0  0  0  0
 40 42  1  0  0  0  0
 40 43  1  0  0  0  0
 41 45  1  0  0  0  0
 42 47  1  0  0  0  0
 43 72  1  0  0  0  0
 44 47  1  0  0  0  0
 44 72  1  0  0  0  0
 45 75  1  0  0  0  0
 46 71  1  0  0  0  0
 47 70  1  0  0  0  0
 48 56  1  0  0  0  0
 49 57  1  0  0  0  0
 50 65  1  0  0  0  0
 51 66  1  0  0  0  0
 52 66  1  0  0  0  0
 53 66  1  0  0  0  0
 54 78  1  0  0  0  0
 55 77  1  0  0  0  0
 57 62  1  0  0  0  0
 58 59  1  0  0  0  0
 58 60  1  0  0  0  0
 59 61  1  0  0  0  0
 60 63  1  0  0  0  0
 61 69  1  0  0  0  0
 62 77  1  0  0  0  0
 63 85  1  0  0  0  0
 64 66  1  0  0  0  0
 64 76  1  0  0  0  0
 65 78  1  0  0  0  0
 67 70  1  0  0  0  0
 68 69  1  0  0  0  0
M  CHG  1  78   1
M  ISO  4  35 100  63 101  77 100  85 101
M  END
> <Batch ID>
0048

> <Smiles>
CCC[100N:0](Cc1cc(CC)n(CCCC[101CH2:1][101O:1]c2ccc3c(c2)CN(C(=O)C(NC(=O)C(C)NC)C(C)(C)C)C(C(=O)NC2CCCc4ccccc42)C3)n1)[100C:0](=O)N1CCCC(n2nc(-c3ccc(Oc4ccc(F)cc4F)cc3)c(C(N)=O)c2N)C1

> <Shape>
0.298

> <Color>
0.086

> <Negative vol penalty>
0.000

$$$$

  -OEChem-04052317263D

 86 94  0     1  0  0  0  0  0999 V2000
  -16.8865  -26.2695   23.0540 C   0  0  0  0  0  0  0  0  0  0  0  0
  -18.0941  -26.0933   22.3862 C   0  0  0  0  0  0  0  0  0  0  0  0
  -24.5838   -8.8517   21.5925 C   0  0  0  0  0  0  0  0  0  0  0  0
  -23.8712  -10.2850   23.4023 C   0  0  0  0  0  0  0  0  0  0  0  0
  -16.4797  -27.5487   23.4307 C   0  0  0  0  0  0  0  0  0  0  0  0
  -18.8952  -27.1966   22.0937 C   0  0  0  0  0  0  0  0  0  0  0  0
  -23.7838  -26.3774   23.1305 C   0  0  0  0  0  0  0  0  0  0  0  0
  -24.2604   -7.7290   22.3543 C   0  0  0  0  0  0  0  0  0  0  0  0
  -23.5477   -9.1622   24.1641 C   0  0  0  0  0  0  0  0  0  0  0  0
  -24.5100  -25.6166   22.2154 C   0  0  0  0  0  0  0  0  0  0  0  0
  -21.4722   -6.0179   23.2096 C   0  0  0  0  0  0  0  0  0  0  0  0
  -20.7681   -4.9900   22.5826 C   0  0  0  0  0  0  0  0  0  0  0  0
  -25.4300  -27.6381   21.2740 C   0  0  0  0  0  0  0  0  0  0  0  0
  -22.5773   -3.4609   23.0579 C   0  0  0  0  0  0  0  0  0  0  0  0
  -26.9898  -22.1381   17.5641 C   0  0  0  0  0  0  0  0  0  0  0  0
  -28.1356  -23.6543   19.4391 C   0  0  0  0  0  0  0  0  0  0  0  0
  -24.3892  -10.1298   22.1165 C   0  0  0  0  0  0  0  0  0  0  0  0
  -23.8810  -11.9889   20.4453 C   0  0  0  0  0  0  0  0  0  0  0  0
  -17.2807  -28.6672   23.1512 C   0  0  0  0  0  0  0  0  0  0  0  0
  -23.8670  -27.7772   23.1172 C   0  0  0  0  0  0  0  0  0  0  0  0
  -18.4980  -28.4922   22.4657 C   0  0  0  0  0  0  0  0  0  0  0  0
  -24.7059  -28.4143   22.1917 C   0  0  0  0  0  0  0  0  0  0  0  0
  -23.7423   -7.8842   23.6401 C   0  0  0  0  0  0  0  0  0  0  0  0
  -25.3310  -26.2470   21.2850 C   0  0  0  0  0  0  0  0  0  0  0  0
  -22.7289   -5.7674   23.7608 C   0  0  0  0  0  0  0  0  0  0  0  0
  -21.3206   -3.7115   22.5067 C   0  0  0  0  0  0  0  0  0  0  0  0
  -23.2814   -4.4888   23.6849 C   0  0  0  0  0  0  0  0  0  0  0  0
  -24.7237  -11.2900   21.3303 C   0  0  0  0  0  0  0  0  0  0  0  0
  -28.3526  -22.3380   17.5818 C   0  0  0  0  0  0  0  0  0  0  0  0
  -26.7727  -23.4551   19.4211 C   0  0  0  0  0  0  0  0  0  0  0  0
  -24.6658  -13.0027   19.9525 C   0  0  0  0  0  0  0  0  0  0  0  0
  -22.5113  -11.7436   20.0996 C   0  0  0  0  0  0  0  0  0  0  0  0
  -21.7997  -30.1427   22.6331 C   0  0  0  0  0  0  0  0  0  0  0  0
  -24.3249  -31.9990   23.4695 C   0  0  0  0  0  0  0  0  0  0  0  0
  -27.7110  -32.3423   23.7208 C   0  0  0  0  0  0  0  0  0  0  0  0
  -28.2016  -17.0173   20.5372 C   0  0  0  0  0  0  0  0  0  0  0  0
  -16.7767  -30.0355   23.5361 C   0  0  0  0  0  0  0  0  0  0  0  0
  -23.0979  -28.5824   24.1284 C   0  0  0  0  0  0  0  0  0  0  0  0
  -24.8459  -29.9133   22.1490 C   0  0  0  0  0  0  0  0  0  0  0  0
  -17.8605  -31.1104   23.5207 C   0  0  0  0  0  0  0  0  0  0  0  0
  -29.6390  -13.8001   20.3029 C   0  0  0  0  0  0  0  0  0  0  0  0
  -18.6898  -31.0140   22.2441 C   0  0  0  0  0  0  0  0  0  0  0  0
  -28.4131  -12.9068   20.4871 C   0  0  0  0  0  0  0  0  0  0  0  0
  -29.6059  -15.0189   21.2269 C   0  0  0  0  0  0  0  0  0  0  0  0
  -27.1348  -14.9199   21.3087 C   0  0  0  0  0  0  0  0  0  0  0  0
  -19.4063  -29.6614   22.1525 C   0  0  1  0  0  0  0  0  0  0  0  0
  -22.8616  -30.0242   23.6894 C   0  0  1  0  0  0  0  0  0  0  0  0
  -27.1142  -13.7198   20.3495 C   0  0  2  0  0  0  0  0  0  0  0  0
  -29.4789  -33.9870   24.4038 C   0  0  0  0  0  0  0  0  0  0  0  0
  -30.7010  -17.9521   17.9659 C   0  0  0  0  0  0  0  0  0  0  0  0
  -23.8955  -33.5368   20.8693 C   0  0  0  0  0  0  0  0  0  0  0  0
  -26.1919  -34.4969   21.1393 C   0  0  0  0  0  0  0  0  0  0  0  0
  -24.4370  -34.9657   22.8491 C   0  0  0  0  0  0  0  0  0  0  0  0
  -30.2332  -17.8625   21.7873 C   0  0  0  0  0  0  0  0  0  0  0  0
  -28.7239  -30.5477   25.8450 C   0  0  0  0  0  0  0  0  0  0  0  0
  -31.9994  -20.8604   17.8324 C   0  0  0  0  0  0  0  0  0  0  0  0
  -29.2223  -21.7089   16.5502 C   0  0  0  0  0  0  0  0  0  0  0  0
  -25.8962  -24.0889   20.4611 C   0  0  0  0  0  0  0  0  0  1  0  0
  -29.3584  -19.0746   19.8249 C   0  0  0  0  0  0  0  0  0  0  0  0
  -29.7431  -20.3202   16.9281 C   0  0  0  0  0  0  0  0  0  0  0  0
  -25.4609  -32.6574   22.7246 C   0  0  1  0  0  0  0  0  0  0  0  0
  -28.5920  -32.8366   24.8539 C   0  0  2  0  0  0  0  0  0  0  0  0
  -30.5991  -19.1215   18.9358 C   0  0  2  0  0  0  0  0  0  0  0  0
  -24.9924  -33.8860   21.8948 C   0  0  0  0  0  0  0  0  0  0  0  0
  -28.9500  -23.0994   18.5197 N   0  0  0  0  0  0  0  0  0  0  0  0
  -26.1753  -22.6934   18.4833 N   0  0  0  0  0  0  0  0  0  0  0  0
  -25.9499  -11.8153   21.3978 N   0  0  0  0  0  0  0  0  0  0  0  0
  -25.8835  -12.8550   20.5489 N   0  0  0  0  0  0  0  0  0  0  0  0
  -24.0688  -30.6571   23.1542 N   0  0  0  0  0  0  0  0  0  0  0  0
  -28.3314  -15.7386   21.0988 N   0  0  0  0  0  0  0  0  0  0  0  0
  -24.4262  -13.9971   19.0716 N   0  0  0  0  0  0  0  0  0  0  0  0
  -21.8549  -10.6598   20.6984 N   0  0  0  0  0  0  0  0  0  0  0  0
  -20.5682  -29.6455   23.0151 N   0  0  0  0  0  0  0  0  0  0  0  0
  -26.4801  -32.9638   23.7225 N   0  0  0  0  0  0  0  0  0  0  0  0
  -29.2914  -17.8908   20.6700 N   0  0  0  0  0  0  0  0  0  0  0  0
  -29.4657  -31.7354   25.3489 N   0  3  0  0  0  0  0  0  0  0  0  0
  -30.5944  -20.4039   18.1404 N   0  3  1  0  0  0  0  0  0  0  0  0
  -21.8930  -12.4544   19.2714 O   0  0  0  0  0  0  0  0  0  0  0  0
  -22.0766  -30.6490   21.5521 O   0  0  0  0  0  0  0  0  0  0  0  0
  -23.6927  -32.6493   24.3056 O   0  0  0  0  0  0  0  0  0  0  0  0
  -28.0793  -31.4928   22.9126 O   0  0  0  0  0  0  0  0  0  0  0  0
  -27.1656  -17.3641   19.9553 O   0  0  0  0  0  0  0  0  0  0  0  0
  -23.4263   -6.7888   24.3836 O   0  0  0  0  0  0  0  0  0  0  0  0
  -26.0404  -25.5068   20.3902 O   0  0  0  0  0  0  0  0  0  1  0  0
  -20.6437   -2.7241   21.9059 F   0  0  0  0  0  0  0  0  0  0  0  0
  -24.4878   -4.2418   24.2135 F   0  0  0  0  0  0  0  0  0  0  0  0
  1  2  1  0  0  0  0
  1  5  2  0  0  0  0
  2  6  2  0  0  0  0
  3  8  2  0  0  0  0
  3 17  1  0  0  0  0
  4  9  1  0  0  0  0
  4 17  2  0  0  0  0
  5 19  1  0  0  0  0
  6 21  1  0  0  0  0
  7 10  2  0  0  0  0
  7 20  1  0  0  0  0
  8 23  1  0  0  0  0
  9 23  2  0  0  0  0
 10 24  1  0  0  0  0
 11 12  2  0  0  0  0
 11 25  1  0  0  0  0
 12 26  1  0  0  0  0
 13 22  1  0  0  0  0
 13 24  2  0  0  0  0
 14 26  2  0  0  0  0
 14 27  1  0  0  0  0
 15 29  2  0  0  0  0
 15 66  1  0  0  0  0
 16 30  1  0  0  0  0
 16 65  2  0  0  0  0
 17 28  1  0  0  0  0
 18 28  1  0  0  0  0
 18 31  2  0  0  0  0
 18 32  1  0  0  0  0
 19 21  2  0  0  0  0
 19 37  1  0  0  0  0
 20 22  2  0  0  0  0
 20 38  1  0  0  0  0
 21 46  1  0  0  0  0
 22 39  1  0  0  0  0
 23 83  1  0  0  0  0
 24 84  1  0  0  0  0
 25 27  2  0  0  0  0
 25 83  1  0  0  0  0
 26 85  1  0  0  0  0
 27 86  1  0  0  0  0
 28 67  2  0  0  0  0
 29 57  1  0  0  0  0
 29 65  1  0  0  0  0
 30 58  1  0  0  0  0
 30 66  2  0  0  0  0
 31 68  1  0  0  0  0
 31 71  1  0  0  0  0
 32 72  1  0  0  0  0
 32 78  2  0  0  0  0
 33 47  1  0  0  0  0
 33 73  1  0  0  0  0
 33 79  2  0  0  0  0
 34 61  1  0  0  0  0
 34 69  1  0  0  0  0
 34 80  2  0  0  0  0
 35 62  1  0  0  0  0
 35 74  1  0  0  0  0
 35 81  2  0  0  0  0
 36 70  1  0  0  0  0
 36 75  1  0  0  0  0
 36 82  2  0  0  0  0
 37 40  1  0  0  0  0
 38 47  1  0  0  0  0
 39 69  1  0  0  0  0
 40 42  1  0  0  0  0
 41 43  1  0  0  0  0
 41 44  1  0  0  0  0
 42 46  1  0  0  0  0
 43 48  1  0  0  0  0
 44 70  1  0  0  0  0
 45 48  1  0  0  0  0
 45 70  1  0  0  0  0
 46 73  1  0  0  0  0
 47 69  1  0  0  0  0
 48 68  1  0  0  0  0
 49 62  1  0  0  0  0
 50 63  1  0  0  0  0
 51 64  1  0  0  0  0
 52 64  1  0  0  0  0
 53 64  1  0  0  0  0
 54 75  1  0  0  0  0
 55 76  1  0  0  0  0
 56 77  1  0  0  0  0
 57 60  1  0  0  0  0
 58 84  1  0  0  0  0
 59 63  1  0  0  0  0
 59 75  1  0  0  0  0
 60 77  1  0  0  0  0
 61 64  1  0  0  0  0
 61 74  1  0  0  0  0
 62 76  1  0  0  0  0
 63 77  1  0  0  0  0
 67 68  1  0  0  0  0
M  CHG  2  76   1  77   1
M  ISO  4  36 100  58 101  75 100  84 101
M  END
> <Batch ID>
0048

> <Smiles>
CNC(C)C(=O)NC(C(=O)N1Cc2cc([101O:1][101CH2:1]c3cnc(CCN(C)C(C)C[100N:0](C)[100C:0](=O)N4CCCC(n5nc(-c6ccc(Oc7ccc(F)cc7F)cc6)c(C(N)=O)c5N)C4)cn3)ccc2CC1C(=O)NC1CCCc2ccccc21)C(C)(C)C

> <Shape>
0.302

> <Color>
0.084

> <Negative vol penalty>
0.000

$$$$

  -OEChem-04052317263D

 82 90  0     1  0  0  0  0  0999 V2000
  -34.1529  -30.8676   17.8893 C   0  0  0  0  0  0  0  0  0  0  0  0
  -34.0379  -29.5313   18.2588 C   0  0  0  0  0  0  0  0  0  0  0  0
  -24.1158   -9.3730   21.4357 C   0  0  0  0  0  0  0  0  0  0  0  0
  -24.6998  -10.4362   23.5251 C   0  0  0  0  0  0  0  0  0  0  0  0
  -33.0624  -31.7249   18.0298 C   0  0  0  0  0  0  0  0  0  0  0  0
  -32.8324  -29.0518   18.7702 C   0  0  0  0  0  0  0  0  0  0  0  0
  -30.4389  -23.4763   17.9389 C   0  0  0  0  0  0  0  0  0  0  0  0
  -23.7173   -8.2300   22.1287 C   0  0  0  0  0  0  0  0  0  0  0  0
  -24.3013   -9.2932   24.2181 C   0  0  0  0  0  0  0  0  0  0  0  0
  -30.4366  -22.3289   18.7309 C   0  0  0  0  0  0  0  0  0  0  0  0
  -22.2082   -5.1661   23.3740 C   0  0  0  0  0  0  0  0  0  0  0  0
  -21.0029   -4.5702   23.0032 C   0  0  0  0  0  0  0  0  0  0  0  0
  -28.2653  -22.9340   19.5904 C   0  0  0  0  0  0  0  0  0  0  0  0
  -19.8278   -6.6109   23.5433 C   0  0  0  0  0  0  0  0  0  0  0  0
  -30.3693  -18.8659   22.5515 C   0  0  0  0  0  0  0  0  0  0  0  0
  -24.6071  -10.4761   22.1339 C   0  0  0  0  0  0  0  0  0  0  0  0
  -24.2223  -12.7659   21.0772 C   0  0  0  0  0  0  0  0  0  0  0  0
  -31.8401  -31.2534   18.5341 C   0  0  0  0  0  0  0  0  0  0  0  0
  -29.3574  -24.3683   17.9750 C   0  0  0  0  0  0  0  0  0  0  0  0
  -31.7250  -29.9039   18.9188 C   0  0  0  0  0  0  0  0  0  0  0  0
  -28.2552  -24.0906   18.7960 C   0  0  0  0  0  0  0  0  0  0  0  0
  -30.2804  -18.9029   21.1470 C   0  0  0  0  0  0  0  0  0  0  0  0
  -23.8100   -8.1901   23.5199 C   0  0  0  0  0  0  0  0  0  0  0  0
  -29.3510  -22.0591   19.5590 C   0  0  0  0  0  0  0  0  0  0  0  0
  -22.2234   -6.4845   23.8295 C   0  0  0  0  0  0  0  0  0  0  0  0
  -19.8126   -5.2926   23.0878 C   0  0  0  0  0  0  0  0  0  0  0  0
  -21.0332   -7.2069   23.9141 C   0  0  0  0  0  0  0  0  0  0  0  0
  -25.0195  -11.6569   21.4185 C   0  0  0  0  0  0  0  0  0  0  0  0
  -29.9634  -17.6154   20.7890 C   0  0  0  0  0  0  0  0  0  0  0  0
  -25.0759  -13.6101   20.4100 C   0  0  0  0  0  0  0  0  0  0  0  0
  -22.8343  -13.0111   21.3399 C   0  0  0  0  0  0  0  0  0  0  0  0
  -28.9927  -27.4199   18.7862 C   0  0  0  0  0  0  0  0  0  0  0  0
  -25.9840  -26.9534   17.6671 C   0  0  0  0  0  0  0  0  0  0  0  0
  -31.0525  -14.2166   20.5637 C   0  0  0  0  0  0  0  0  0  0  0  0
  -23.4562  -24.7670   16.9769 C   0  0  0  0  0  0  0  0  0  0  0  0
  -30.7036  -32.2288   18.7120 C   0  0  0  0  0  0  0  0  0  0  0  0
  -29.3634  -25.5878   17.0945 C   0  0  0  0  0  0  0  0  0  0  0  0
  -27.0605  -25.0058   18.8559 C   0  0  0  0  0  0  0  0  0  0  0  0
  -29.3483  -31.5551   18.9113 C   0  0  0  0  0  0  0  0  0  0  0  0
  -29.0032  -13.5946   17.6908 C   0  0  0  0  0  0  0  0  0  0  0  0
  -29.4575  -30.4282   19.9335 C   0  0  0  0  0  0  0  0  0  0  0  0
  -27.6866  -13.1009   18.2891 C   0  0  0  0  0  0  0  0  0  0  0  0
  -30.2001  -13.1281   18.5136 C   0  0  0  0  0  0  0  0  0  0  0  0
  -28.8122  -13.0115   20.5585 C   0  0  0  0  0  0  0  0  0  0  0  0
  -30.4265  -29.3406   19.4543 C   0  0  1  0  0  0  0  0  0  0  0  0
  -28.4367  -26.6911   17.5957 C   0  0  1  0  0  0  0  0  0  0  0  0
  -27.5757  -13.4863   19.7749 C   0  0  2  0  0  0  0  0  0  0  0  0
  -29.7332  -17.0007   19.4678 C   0  0  0  0  0  0  0  0  0  0  0  0
  -21.1044  -24.6866   16.1051 C   0  0  0  0  0  0  0  0  0  0  0  0
  -28.7106  -15.2683   23.3561 C   0  0  0  0  0  0  0  0  0  0  0  0
  -30.6648  -13.2395   22.7832 C   0  0  0  0  0  0  0  0  0  0  0  0
  -32.1107  -15.2603   22.4761 C   0  0  0  0  0  0  0  0  0  0  0  0
  -24.9603  -28.0164   20.3377 C   0  0  0  0  0  0  0  0  0  0  0  0
  -22.7211  -27.0404   19.7885 C   0  0  0  0  0  0  0  0  0  0  0  0
  -23.6923  -28.8230   18.3386 C   0  0  0  0  0  0  0  0  0  0  0  0
  -24.2376  -23.0530   14.6943 C   0  0  0  0  0  0  0  0  0  0  0  0
  -30.4867  -20.0865   20.2483 C   0  0  0  0  0  0  0  0  0  1  0  0
  -24.6780  -26.4958   18.2703 C   0  0  1  0  0  0  0  0  0  0  0  0
  -22.5801  -24.5953   15.7491 C   0  0  2  0  0  0  0  0  0  0  0  0
  -29.5766  -15.5094   22.1045 C   0  0  2  0  0  0  0  0  0  0  0  0
  -30.8207  -14.5592   22.0138 C   0  0  0  0  0  0  0  0  0  0  0  0
  -24.0361  -27.5775   19.1843 C   0  0  0  0  0  0  0  0  0  0  0  0
  -30.1280  -17.6511   23.0516 N   0  0  0  0  0  0  0  0  0  0  0  0
  -26.2824  -11.7822   21.0023 N   0  0  0  0  0  0  0  0  0  0  0  0
  -29.8844  -16.9129   21.9554 N   0  0  0  0  0  0  0  0  0  0  0  0
  -26.2853  -12.9798   20.3925 N   0  0  0  0  0  0  0  0  0  0  0  0
  -27.1164  -26.1886   17.9811 N   0  0  0  0  0  0  0  0  0  0  0  0
  -30.0462  -13.4937   19.9228 N   0  0  0  0  0  0  0  0  0  0  0  0
  -24.9024  -14.8225   19.8423 N   0  0  0  0  0  0  0  0  0  0  0  0
  -22.1045  -12.0390   22.0377 N   0  0  0  0  0  0  0  0  0  0  0  0
  -29.7918  -28.4997   18.4620 N   0  0  0  0  0  0  0  0  0  0  0  0
  -23.8359  -26.0808   17.1536 N   0  0  0  0  0  0  0  0  0  0  0  0
  -22.8297  -23.2694   15.1160 N   0  3  0  0  0  0  0  0  0  0  0  0
  -22.2542  -14.0537   20.9526 O   0  0  0  0  0  0  0  0  0  0  0  0
  -28.7161  -27.0322   19.9153 O   0  0  0  0  0  0  0  0  0  0  0  0
  -25.9977  -27.9485   16.9382 O   0  0  0  0  0  0  0  0  0  0  0  0
  -32.0962  -14.5840   20.0177 O   0  0  0  0  0  0  0  0  0  0  0  0
  -23.7691  -23.8302   17.7083 O   0  0  0  0  0  0  0  0  0  0  0  0
  -23.4210   -7.0750   24.1965 O   0  0  0  0  0  0  0  0  0  0  0  0
  -29.3464  -20.9402   20.3336 O   0  0  0  0  0  0  0  0  0  1  0  0
  -18.6554   -4.7206   22.7302 F   0  0  0  0  0  0  0  0  0  0  0  0
  -21.0416   -8.4741   24.3498 F   0  0  0  0  0  0  0  0  0  0  0  0
  1  2  1  0  0  0  0
  1  5  2  0  0  0  0
  2  6  2  0  0  0  0
  3  8  2  0  0  0  0
  3 16  1  0  0  0  0
  4  9  1  0  0  0  0
  4 16  2  0  0  0  0
  5 18  1  0  0  0  0
  6 20  1  0  0  0  0
  7 10  2  0  0  0  0
  7 19  1  0  0  0  0
  8 23  1  0  0  0  0
  9 23  2  0  0  0  0
 10 24  1  0  0  0  0
 11 12  2  0  0  0  0
 11 25  1  0  0  0  0
 12 26  1  0  0  0  0
 13 21  1  0  0  0  0
 13 24  2  0  0  0  0
 14 26  2  0  0  0  0
 14 27  1  0  0  0  0
 15 22  1  0  0  0  0
 15 63  2  0  0  0  0
 16 28  1  0  0  0  0
 17 28  1  0  0  0  0
 17 30  2  0  0  0  0
 17 31  1  0  0  0  0
 18 20  2  0  0  0  0
 18 36  1  0  0  0  0
 19 21  2  0  0  0  0
 19 37  1  0  0  0  0
 20 45  1  0  0  0  0
 21 38  1  0  0  0  0
 22 29  2  0  0  0  0
 22 57  1  0  0  0  0
 23 79  1  0  0  0  0
 24 80  1  0  0  0  0
 25 27  2  0  0  0  0
 25 79  1  0  0  0  0
 26 81  1  0  0  0  0
 27 82  1  0  0  0  0
 28 64  2  0  0  0  0
 29 48  1  0  0  0  0
 29 65  1  0  0  0  0
 30 66  1  0  0  0  0
 30 69  1  0  0  0  0
 31 70  1  0  0  0  0
 31 74  2  0  0  0  0
 32 46  1  0  0  0  0
 32 71  1  0  0  0  0
 32 75  2  0  0  0  0
 33 58  1  0  0  0  0
 33 67  1  0  0  0  0
 33 76  2  0  0  0  0
 34 61  1  0  0  0  0
 34 68  1  0  0  0  0
 34 77  2  0  0  0  0
 35 59  1  0  0  0  0
 35 72  1  0  0  0  0
 35 78  2  0  0  0  0
 36 39  1  0  0  0  0
 37 46  1  0  0  0  0
 38 67  1  0  0  0  0
 39 41  1  0  0  0  0
 40 42  1  0  0  0  0
 40 43  1  0  0  0  0
 41 45  1  0  0  0  0
 42 47  1  0  0  0  0
 43 68  1  0  0  0  0
 44 47  1  0  0  0  0
 44 68  1  0  0  0  0
 45 71  1  0  0  0  0
 46 67  1  0  0  0  0
 47 66  1  0  0  0  0
 49 59  1  0  0  0  0
 50 60  1  0  0  0  0
 51 61  1  0  0  0  0
 52 61  1  0  0  0  0
 53 62  1  0  0  0  0
 54 62  1  0  0  0  0
 55 62  1  0  0  0  0
 56 73  1  0  0  0  0
 57 80  1  0  0  0  0
 58 62  1  0  0  0  0
 58 72  1  0  0  0  0
 59 73  1  0  0  0  0
 60 61  1  0  0  0  0
 60 65  1  0  0  0  0
 63 65  1  0  0  0  0
 64 66  1  0  0  0  0
M  CHG  1  73   1
M  ISO  4  34 100  57 101  61 100  80 101
M  END
> <Batch ID>
0048

> <Smiles>
CNC(C)C(=O)NC(C(=O)N1Cc2cc([101O:1][101CH2:1]c3cnn(C(C)[100C:0](C)(C)[100C:0](=O)N4CCCC(n5nc(-c6ccc(Oc7ccc(F)cc7F)cc6)c(C(N)=O)c5N)C4)c3C)ccc2CC1C(=O)NC1CCCc2ccccc21)C(C)(C)C

> <Shape>
0.265

> <Color>
0.153

> <Negative vol penalty>
0.000

$$$$

  -OEChem-04052317263D

 81 89  0     1  0  0  0  0  0999 V2000
  -29.7280  -13.4100   20.9563 C   0  0  0  0  0  0  0  0  0  0  0  0
  -29.7414  -14.6842   20.3981 C   0  0  0  0  0  0  0  0  0  0  0  0
  -22.8896  -28.7425   20.7082 C   0  0  0  0  0  0  0  0  0  0  0  0
  -23.9422  -29.9338   22.5275 C   0  0  0  0  0  0  0  0  0  0  0  0
  -28.5316  -12.6986   21.0381 C   0  0  0  0  0  0  0  0  0  0  0  0
  -28.5586  -15.2474   19.9204 C   0  0  0  0  0  0  0  0  0  0  0  0
  -27.9959  -20.0767   21.3368 C   0  0  0  0  0  0  0  0  0  0  0  0
  -21.6382  -29.1684   21.1533 C   0  0  0  0  0  0  0  0  0  0  0  0
  -22.6908  -30.3598   22.9726 C   0  0  0  0  0  0  0  0  0  0  0  0
  -28.7268  -21.0351   20.6360 C   0  0  0  0  0  0  0  0  0  0  0  0
  -19.4357  -28.3235   23.5739 C   0  0  0  0  0  0  0  0  0  0  0  0
  -18.4111  -27.3785   23.6263 C   0  0  0  0  0  0  0  0  0  0  0  0
  -26.7656  -21.5734   19.3387 C   0  0  0  0  0  0  0  0  0  0  0  0
  -17.1140  -28.6989   22.0735 C   0  0  0  0  0  0  0  0  0  0  0  0
  -31.5394  -26.1257   18.3039 C   0  0  0  0  0  0  0  0  0  0  0  0
  -24.0417  -29.1251   21.3953 C   0  0  0  0  0  0  0  0  0  0  0  0
  -25.7824  -27.3570   20.8026 C   0  0  0  0  0  0  0  0  0  0  0  0
  -27.3319  -13.2573   20.5700 C   0  0  0  0  0  0  0  0  0  0  0  0
  -26.6449  -19.8515   21.0358 C   0  0  0  0  0  0  0  0  0  0  0  0
  -27.3453  -14.5423   19.9948 C   0  0  0  0  0  0  0  0  0  0  0  0
  -26.0191  -20.6134   20.0388 C   0  0  0  0  0  0  0  0  0  0  0  0
  -21.5388  -29.9771   22.2854 C   0  0  0  0  0  0  0  0  0  0  0  0
  -28.1124  -21.7816   19.6348 C   0  0  0  0  0  0  0  0  0  0  0  0
  -19.2994  -29.4563   22.7714 C   0  0  0  0  0  0  0  0  0  0  0  0
  -17.2503  -27.5662   22.8761 C   0  0  0  0  0  0  0  0  0  0  0  0
  -18.1386  -29.6439   22.0212 C   0  0  0  0  0  0  0  0  0  0  0  0
  -25.3346  -28.6849   20.9364 C   0  0  0  0  0  0  0  0  0  0  0  0
  -31.8579  -25.9168   16.9801 C   0  0  0  0  0  0  0  0  0  0  0  0
  -31.1114  -23.7611   17.1408 C   0  0  0  0  0  0  0  0  0  0  0  0
  -30.7937  -23.9699   18.4648 C   0  0  0  0  0  0  0  0  0  0  0  0
  -27.0682  -27.4737   20.3342 C   0  0  0  0  0  0  0  0  0  0  0  0
  -25.0972  -26.1278   21.0771 C   0  0  0  0  0  0  0  0  0  0  0  0
  -24.9673  -17.3703   19.9713 C   0  0  0  0  0  0  0  0  0  0  0  0
  -22.4464  -19.3361   20.5214 C   0  0  0  0  0  0  0  0  0  0  0  0
  -21.2784  -22.5252   20.8564 C   0  0  0  0  0  0  0  0  0  0  0  0
  -30.8061  -29.8006   16.9049 C   0  0  0  0  0  0  0  0  0  0  0  0
  -26.0718  -12.4312   20.6367 C   0  0  0  0  0  0  0  0  0  0  0  0
  -25.8633  -18.8327   21.8191 C   0  0  0  0  0  0  0  0  0  0  0  0
  -24.5658  -20.4243   19.6912 C   0  0  0  0  0  0  0  0  0  0  0  0
  -24.7966  -13.2491   20.4491 C   0  0  0  0  0  0  0  0  0  0  0  0
  -30.0704  -31.5249   19.9319 C   0  0  0  0  0  0  0  0  0  0  0  0
  -24.9395  -14.1958   19.2616 C   0  0  0  0  0  0  0  0  0  0  0  0
  -28.8068  -30.8345   20.4482 C   0  0  0  0  0  0  0  0  0  0  0  0
  -30.0744  -31.6284   18.4083 C   0  0  0  0  0  0  0  0  0  0  0  0
  -28.6023  -29.6611   18.2166 C   0  0  0  0  0  0  0  0  0  0  0  0
  -26.0786  -15.1971   19.4883 C   0  0  1  0  0  0  0  0  0  0  0  0
  -24.6288  -18.3281   21.0784 C   0  0  1  0  0  0  0  0  0  0  0  0
  -28.5786  -29.4833   19.7444 C   0  0  2  0  0  0  0  0  0  0  0  0
  -30.8753  -22.4444   16.4833 C   0  0  0  0  0  0  0  0  0  0  0  0
  -19.1658  -23.8167   21.2649 C   0  0  0  0  0  0  0  0  0  0  0  0
  -21.5807  -18.8265   17.6403 C   0  0  0  0  0  0  0  0  0  0  0  0
  -20.0763  -20.8203   17.8131 C   0  0  0  0  0  0  0  0  0  0  0  0
  -19.7119  -18.8523   19.3021 C   0  0  0  0  0  0  0  0  0  0  0  0
  -22.3437  -23.7028   23.3539 C   0  0  0  0  0  0  0  0  0  0  0  0
  -32.4516  -27.0112   16.1642 C   0  0  0  0  0  0  0  0  0  0  0  0
  -30.1952  -22.8818   19.3069 C   0  0  0  0  0  0  0  0  0  1  0  0
  -31.4102  -27.8830   15.4499 C   0  0  0  0  0  0  0  0  0  0  0  0
  -21.6961  -20.3650   19.7105 C   0  0  1  0  0  0  0  0  0  0  0  0
  -20.3835  -23.1655   21.9022 C   0  0  2  0  0  0  0  0  0  0  0  0
  -20.7941  -19.7185   18.6215 C   0  0  0  0  0  0  0  0  0  0  0  0
  -31.0017  -25.1560   19.0701 N   0  0  0  0  0  0  0  0  0  0  0  0
  -26.2608  -29.5796   20.5818 N   0  0  0  0  0  0  0  0  0  0  0  0
  -31.6495  -24.7307   16.3748 N   0  0  0  0  0  0  0  0  0  0  0  0
  -27.3034  -28.8124   20.2206 N   0  0  0  0  0  0  0  0  0  0  0  0
  -23.8458  -19.4117   20.4810 N   0  0  0  0  0  0  0  0  0  0  0  0
  -29.8547  -30.3129   17.8023 N   0  0  0  0  0  0  0  0  0  0  0  0
  -28.0093  -26.5609   20.0125 N   0  0  0  0  0  0  0  0  0  0  0  0
  -24.3583  -25.5302   20.0468 N   0  0  0  0  0  0  0  0  0  0  0  0
  -25.6560  -16.2477   20.3895 N   0  0  0  0  0  0  0  0  0  0  0  0
  -20.9739  -21.1934   20.6699 N   0  0  0  0  0  0  0  0  0  0  0  0
  -30.5239  -28.5449   16.3812 N   0  0  0  0  0  0  0  0  0  0  0  0
  -21.1334  -24.2090   22.6570 N   0  3  0  0  0  0  0  0  0  0  0  0
  -25.1255  -25.5842   22.2072 O   0  0  0  0  0  0  0  0  0  0  0  0
  -24.6275  -17.6299   18.8229 O   0  0  0  0  0  0  0  0  0  0  0  0
  -21.8140  -18.5008   21.1725 O   0  0  0  0  0  0  0  0  0  0  0  0
  -22.1570  -23.1455   20.2616 O   0  0  0  0  0  0  0  0  0  0  0  0
  -31.8337  -30.4142   16.5976 O   0  0  0  0  0  0  0  0  0  0  0  0
  -20.3179  -30.3932   22.7199 O   0  0  0  0  0  0  0  0  0  0  0  0
  -28.8237  -22.7172   18.9488 O   0  0  0  0  0  0  0  0  0  1  0  0
  -16.2671  -26.6578   22.9253 F   0  0  0  0  0  0  0  0  0  0  0  0
  -18.0024  -30.7296   21.2475 F   0  0  0  0  0  0  0  0  0  0  0  0
  1  2  1  0  0  0  0
  1  5  2  0  0  0  0
  2  6  2  0  0  0  0
  3  8  2  0  0  0  0
  3 16  1  0  0  0  0
  4  9  1  0  0  0  0
  4 16  2  0  0  0  0
  5 18  1  0  0  0  0
  6 20  1  0  0  0  0
  7 10  2  0  0  0  0
  7 19  1  0  0  0  0
  8 22  1  0  0  0  0
  9 22  2  0  0  0  0
 10 23  1  0  0  0  0
 11 12  2  0  0  0  0
 11 24  1  0  0  0  0
 12 25  1  0  0  0  0
 13 21  1  0  0  0  0
 13 23  2  0  0  0  0
 14 25  2  0  0  0  0
 14 26  1  0  0  0  0
 15 28  1  0  0  0  0
 15 61  2  0  0  0  0
 16 27  1  0  0  0  0
 17 27  1  0  0  0  0
 17 31  2  0  0  0  0
 17 32  1  0  0  0  0
 18 20  2  0  0  0  0
 18 37  1  0  0  0  0
 19 21  2  0  0  0  0
 19 38  1  0  0  0  0
 20 46  1  0  0  0  0
 21 39  1  0  0  0  0
 22 78  1  0  0  0  0
 23 79  1  0  0  0  0
 24 26  2  0  0  0  0
 24 78  1  0  0  0  0
 25 80  1  0  0  0  0
 26 81  1  0  0  0  0
 27 62  2  0  0  0  0
 28 55  1  0  0  0  0
 28 63  2  0  0  0  0
 29 30  2  0  0  0  0
 29 49  1  0  0  0  0
 29 63  1  0  0  0  0
 30 56  1  0  0  0  0
 30 61  1  0  0  0  0
 31 64  1  0  0  0  0
 31 67  1  0  0  0  0
 32 68  1  0  0  0  0
 32 73  2  0  0  0  0
 33 47  1  0  0  0  0
 33 69  1  0  0  0  0
 33 74  2  0  0  0  0
 34 58  1  0  0  0  0
 34 65  1  0  0  0  0
 34 75  2  0  0  0  0
 35 59  1  0  0  0  0
 35 70  1  0  0  0  0
 35 76  2  0  0  0  0
 36 66  1  0  0  0  0
 36 71  1  0  0  0  0
 36 77  2  0  0  0  0
 37 40  1  0  0  0  0
 38 47  1  0  0  0  0
 39 65  1  0  0  0  0
 40 42  1  0  0  0  0
 41 43  1  0  0  0  0
 41 44  1  0  0  0  0
 42 46  1  0  0  0  0
 43 48  1  0  0  0  0
 44 66  1  0  0  0  0
 45 48  1  0  0  0  0
 45 66  1  0  0  0  0
 46 69  1  0  0  0  0
 47 65  1  0  0  0  0
 48 64  1  0  0  0  0
 50 59  1  0  0  0  0
 51 60  1  0  0  0  0
 52 60  1  0  0  0  0
 53 60  1  0  0  0  0
 54 72  1  0  0  0  0
 55 57  1  0  0  0  0
 56 79  1  0  0  0  0
 57 71  1  0  0  0  0
 58 60  1  0  0  0  0
 58 70  1  0  0  0  0
 59 72  1  0  0  0  0
 62 64  1  0  0  0  0
M  CHG  1  72   1
M  ISO  4  36 100  56 101  71 100  79 101
M  END
> <Batch ID>
0048

> <Smiles>
CNC(C)C(=O)NC(C(=O)N1Cc2cc([101O:1][101CH2:1]c3ncc(CC[100NH:0][100C:0](=O)N4CCCC(n5nc(-c6ccc(Oc7ccc(F)cc7F)cc6)c(C(N)=O)c5N)C4)nc3C)ccc2CC1C(=O)NC1CCCc2ccccc21)C(C)(C)C

> <Shape>
0.208

> <Color>
0.080

> <Negative vol penalty>
0.000

$$$$

  -OEChem-04052317263D

 82 90  0     1  0  0  0  0  0999 V2000
  -28.7815  -23.0960   18.2654 C   0  0  0  0  0  0  0  0  0  0  0  0
  -27.6558  -23.2921   19.0590 C   0  0  0  0  0  0  0  0  0  0  0  0
  -26.4571  -13.4123   20.2133 C   0  0  0  0  0  0  0  0  0  0  0  0
  -24.3592  -13.5881   21.3985 C   0  0  0  0  0  0  0  0  0  0  0  0
  -29.9169  -23.8810   18.4619 C   0  0  0  0  0  0  0  0  0  0  0  0
  -27.6653  -24.2727   20.0503 C   0  0  0  0  0  0  0  0  0  0  0  0
  -23.4192  -27.0320   20.0941 C   0  0  0  0  0  0  0  0  0  0  0  0
  -26.4293  -12.0265   20.3694 C   0  0  0  0  0  0  0  0  0  0  0  0
  -24.3313  -12.2023   21.5546 C   0  0  0  0  0  0  0  0  0  0  0  0
  -22.2930  -26.4582   20.6825 C   0  0  0  0  0  0  0  0  0  0  0  0
  -23.5576   -9.5009   19.6771 C   0  0  0  0  0  0  0  0  0  0  0  0
  -22.3530   -8.8457   19.4221 C   0  0  0  0  0  0  0  0  0  0  0  0
  -22.7013  -27.7309   22.6907 C   0  0  0  0  0  0  0  0  0  0  0  0
  -22.3192   -8.0236   21.6937 C   0  0  0  0  0  0  0  0  0  0  0  0
  -22.0451  -21.9037   24.5767 C   0  0  0  0  0  0  0  0  0  0  0  0
  -25.4221  -14.1931   20.7279 C   0  0  0  0  0  0  0  0  0  0  0  0
  -24.9116  -16.3718   19.5029 C   0  0  0  0  0  0  0  0  0  0  0  0
  -29.9368  -24.8782   19.4497 C   0  0  0  0  0  0  0  0  0  0  0  0
  -24.2024  -27.9529   20.8046 C   0  0  0  0  0  0  0  0  0  0  0  0
  -28.8024  -25.0709   20.2611 C   0  0  0  0  0  0  0  0  0  0  0  0
  -23.8355  -28.3168   22.1081 C   0  0  0  0  0  0  0  0  0  0  0  0
  -25.3663  -11.4215   21.0400 C   0  0  0  0  0  0  0  0  0  0  0  0
  -21.9355  -26.8054   21.9820 C   0  0  0  0  0  0  0  0  0  0  0  0
  -24.1431   -9.4175   20.9404 C   0  0  0  0  0  0  0  0  0  0  0  0
  -21.7337   -8.1071   20.4303 C   0  0  0  0  0  0  0  0  0  0  0  0
  -23.5239   -8.6789   21.9487 C   0  0  0  0  0  0  0  0  0  0  0  0
  -25.4506  -15.6248   20.5674 C   0  0  0  0  0  0  0  0  0  0  0  0
  -21.8983  -23.2888   24.3721 C   0  0  0  0  0  0  0  0  0  0  0  0
  -23.3593  -21.6487   24.2698 C   0  0  0  0  0  0  0  0  0  0  0  0
  -25.1987  -17.6771   19.8194 C   0  0  0  0  0  0  0  0  0  0  0  0
  -24.2136  -15.9256   18.3326 C   0  0  0  0  0  0  0  0  0  0  0  0
  -27.2198  -28.0334   21.8010 C   0  0  0  0  0  0  0  0  0  0  0  0
  -26.4411  -31.0585   22.6758 C   0  0  0  0  0  0  0  0  0  0  0  0
  -24.0063  -33.2898   23.5358 C   0  0  0  0  0  0  0  0  0  0  0  0
  -26.4179  -20.0810   25.3215 C   0  0  0  0  0  0  0  0  0  0  0  0
  -31.2038  -25.6700   19.6564 C   0  0  0  0  0  0  0  0  0  0  0  0
  -25.3990  -28.5830   20.1461 C   0  0  0  0  0  0  0  0  0  0  0  0
  -24.6313  -29.3159   22.9063 C   0  0  0  0  0  0  0  0  0  0  0  0
  -31.0010  -26.9401   20.4785 C   0  0  0  0  0  0  0  0  0  0  0  0
  -28.3673  -20.3584   22.1871 C   0  0  0  0  0  0  0  0  0  0  0  0
  -30.1608  -26.6458   21.7172 C   0  0  0  0  0  0  0  0  0  0  0  0
  -27.8360  -19.1890   21.3598 C   0  0  0  0  0  0  0  0  0  0  0  0
  -28.2652  -20.0862   23.6848 C   0  0  0  0  0  0  0  0  0  0  0  0
  -26.3651  -18.5486   23.3110 C   0  0  0  0  0  0  0  0  0  0  0  0
  -28.7654  -26.1413   21.3302 C   0  0  1  0  0  0  0  0  0  0  0  0
  -26.4169  -29.1219   21.1466 C   0  0  1  0  0  0  0  0  0  0  0  0
  -26.4107  -18.8099   21.7980 C   0  0  2  0  0  0  0  0  0  0  0  0
  -23.6805  -35.6781   24.2339 C   0  0  0  0  0  0  0  0  0  0  0  0
  -27.4527  -30.3764   25.4725 C   0  0  0  0  0  0  0  0  0  0  0  0
  -26.2531  -32.4021   26.3246 C   0  0  0  0  0  0  0  0  0  0  0  0
  -28.0923  -32.6529   24.6582 C   0  0  0  0  0  0  0  0  0  0  0  0
  -25.2612  -23.1024   23.5058 C   0  0  0  0  0  0  0  0  0  0  0  0
  -24.4776  -20.7129   26.7056 C   0  0  0  0  0  0  0  0  0  0  0  0
  -22.3312  -33.8751   21.1672 C   0  0  0  0  0  0  0  0  0  0  0  0
  -20.6525  -24.1179   24.5568 C   0  0  0  0  0  0  0  0  0  0  0  0
  -24.1310  -20.3925   24.2843 C   0  0  0  0  0  0  0  0  0  0  0  0
  -19.7879  -24.2193   23.2983 C   0  0  0  0  0  0  0  0  0  0  0  0
  -20.4848  -24.9278   22.1425 C   0  0  0  0  0  0  0  0  0  1  0  0
  -25.8710  -31.6988   23.9183 C   0  0  1  0  0  0  0  0  0  0  0  0
  -23.7259  -34.7057   23.0655 C   0  0  2  0  0  0  0  0  0  0  0  0
  -26.9032  -31.7622   25.0793 C   0  0  0  0  0  0  0  0  0  0  0  0
  -26.0361  -16.3917   21.4910 N   0  0  0  0  0  0  0  0  0  0  0  0
  -23.0291  -23.8728   23.9667 N   0  0  0  0  0  0  0  0  0  0  0  0
  -23.8989  -22.8497   23.9142 N   0  0  0  0  0  0  0  0  0  0  0  0
  -25.8666  -17.6342   21.0078 N   0  0  0  0  0  0  0  0  0  0  0  0
  -25.7963  -29.8995   22.2210 N   0  0  0  0  0  0  0  0  0  0  0  0
  -26.9105  -19.6861   24.0668 N   0  0  0  0  0  0  0  0  0  0  0  0
  -24.9427  -18.8459   19.1942 N   0  0  0  0  0  0  0  0  0  0  0  0
  -24.0037  -14.5503   18.1635 N   0  0  0  0  0  0  0  0  0  0  0  0
  -27.9266  -27.2446   20.9136 N   0  0  0  0  0  0  0  0  0  0  0  0
  -25.3539  -32.9995   23.5067 N   0  0  0  0  0  0  0  0  0  0  0  0
  -25.0347  -20.2915   25.4281 N   0  0  0  0  0  0  0  0  0  0  0  0
  -22.4182  -34.7654   22.3533 N   0  3  0  0  0  0  0  0  0  0  0  0
  -23.8030  -16.7218   17.4545 O   0  0  0  0  0  0  0  0  0  0  0  0
  -27.2007  -27.9188   23.0209 O   0  0  0  0  0  0  0  0  0  0  0  0
  -27.4182  -31.5718   22.1248 O   0  0  0  0  0  0  0  0  0  0  0  0
  -23.1190  -32.5197   23.8967 O   0  0  0  0  0  0  0  0  0  0  0  0
  -27.1725  -20.2459   26.2886 O   0  0  0  0  0  0  0  0  0  0  0  0
  -25.3387  -10.0692   21.1923 O   0  0  0  0  0  0  0  0  0  0  0  0
  -20.8371  -26.2464   22.5589 O   0  0  0  0  0  0  0  0  0  1  0  0
  -20.5761   -7.4791   20.1857 F   0  0  0  0  0  0  0  0  0  0  0  0
  -24.0809   -8.5960   23.1647 F   0  0  0  0  0  0  0  0  0  0  0  0
  1  2  1  0  0  0  0
  1  5  2  0  0  0  0
  2  6  2  0  0  0  0
  3  8  2  0  0  0  0
  3 16  1  0  0  0  0
  4  9  1  0  0  0  0
  4 16  2  0  0  0  0
  5 18  1  0  0  0  0
  6 20  1  0  0  0  0
  7 10  2  0  0  0  0
  7 19  1  0  0  0  0
  8 22  1  0  0  0  0
  9 22  2  0  0  0  0
 10 23  1  0  0  0  0
 11 12  2  0  0  0  0
 11 24  1  0  0  0  0
 12 25  1  0  0  0  0
 13 21  1  0  0  0  0
 13 23  2  0  0  0  0
 14 25  2  0  0  0  0
 14 26  1  0  0  0  0
 15 28  1  0  0  0  0
 15 29  2  0  0  0  0
 16 27  1  0  0  0  0
 17 27  1  0  0  0  0
 17 30  2  0  0  0  0
 17 31  1  0  0  0  0
 18 20  2  0  0  0  0
 18 36  1  0  0  0  0
 19 21  2  0  0  0  0
 19 37  1  0  0  0  0
 20 45  1  0  0  0  0
 21 38  1  0  0  0  0
 22 79  1  0  0  0  0
 23 80  1  0  0  0  0
 24 26  2  0  0  0  0
 24 79  1  0  0  0  0
 25 81  1  0  0  0  0
 26 82  1  0  0  0  0
 27 62  2  0  0  0  0
 28 55  1  0  0  0  0
 28 63  2  0  0  0  0
 29 56  1  0  0  0  0
 29 64  1  0  0  0  0
 30 65  1  0  0  0  0
 30 68  1  0  0  0  0
 31 69  1  0  0  0  0
 31 74  2  0  0  0  0
 32 46  1  0  0  0  0
 32 70  1  0  0  0  0
 32 75  2  0  0  0  0
 33 59  1  0  0  0  0
 33 66  1  0  0  0  0
 33 76  2  0  0  0  0
 34 60  1  0  0  0  0
 34 71  1  0  0  0  0
 34 77  2  0  0  0  0
 35 67  1  0  0  0  0
 35 72  1  0  0  0  0
 35 78  2  0  0  0  0
 36 39  1  0  0  0  0
 37 46  1  0  0  0  0
 38 66  1  0  0  0  0
 39 41  1  0  0  0  0
 40 42  1  0  0  0  0
 40 43  1  0  0  0  0
 41 45  1  0  0  0  0
 42 47  1  0  0  0  0
 43 67  1  0  0  0  0
 44 47  1  0  0  0  0
 44 67  1  0  0  0  0
 45 70  1  0  0  0  0
 46 66  1  0  0  0  0
 47 65  1  0  0  0  0
 48 60  1  0  0  0  0
 49 61  1  0  0  0  0
 50 61  1  0  0  0  0
 51 61  1  0  0  0  0
 52 64  1  0  0  0  0
 53 72  1  0  0  0  0
 54 73  1  0  0  0  0
 55 57  1  0  0  0  0
 56 72  1  0  0  0  0
 57 58  1  0  0  0  0
 58 80  1  0  0  0  0
 59 61  1  0  0  0  0
 59 71  1  0  0  0  0
 60 73  1  0  0  0  0
 62 65  1  0  0  0  0
 63 64  1  0  0  0  0
M  CHG  1  73   1
M  ISO  4  35 100  58 101  72 100  80 101
M  END
> <Batch ID>
0048

> <Smiles>
CNC(C)C(=O)NC(C(=O)N1Cc2cc([101O:1][101CH2:1]CCc3cc(C[100N:0](C)[100C:0](=O)N4CCCC(n5nc(-c6ccc(Oc7ccc(F)cc7F)cc6)c(C(N)=O)c5N)C4)n(C)n3)ccc2CC1C(=O)NC1CCCc2ccccc21)C(C)(C)C

> <Shape>
0.252

> <Color>
0.067

> <Negative vol penalty>
0.000

$$$$

  -OEChem-04052317263D

 80 88  0     1  0  0  0  0  0999 V2000
  -16.6318  -28.3794   23.3163 C   0  0  0  0  0  0  0  0  0  0  0  0
  -17.3487  -27.9608   22.2000 C   0  0  0  0  0  0  0  0  0  0  0  0
  -24.1748   -9.7574   21.7312 C   0  0  0  0  0  0  0  0  0  0  0  0
  -22.4811  -10.0876   20.0403 C   0  0  0  0  0  0  0  0  0  0  0  0
  -17.1573  -29.3642   24.1517 C   0  0  0  0  0  0  0  0  0  0  0  0
  -18.5912  -28.5275   21.9179 C   0  0  0  0  0  0  0  0  0  0  0  0
  -22.0622  -25.0658   20.6478 C   0  0  0  0  0  0  0  0  0  0  0  0
  -22.7515  -21.3522   16.1921 C   0  0  0  0  0  0  0  0  0  0  0  0
  -23.6055   -8.5275   22.0613 C   0  0  0  0  0  0  0  0  0  0  0  0
  -21.9118   -8.8577   20.3703 C   0  0  0  0  0  0  0  0  0  0  0  0
  -22.0084  -24.5561   19.3512 C   0  0  0  0  0  0  0  0  0  0  0  0
  -20.9655   -7.4047   23.8484 C   0  0  0  0  0  0  0  0  0  0  0  0
  -20.8019   -7.1094   25.2017 C   0  0  0  0  0  0  0  0  0  0  0  0
  -22.6579  -20.1474   16.8797 C   0  0  0  0  0  0  0  0  0  0  0  0
  -23.7913  -26.0442   18.6986 C   0  0  0  0  0  0  0  0  0  0  0  0
  -22.2205   -5.1699   24.9500 C   0  0  0  0  0  0  0  0  0  0  0  0
  -23.6125  -10.5375   20.7208 C   0  0  0  0  0  0  0  0  0  0  0  0
  -25.2028  -12.0517   19.4224 C   0  0  0  0  0  0  0  0  0  0  0  0
  -18.4111  -29.9364   23.8851 C   0  0  0  0  0  0  0  0  0  0  0  0
  -22.9751  -26.0779   20.9773 C   0  0  0  0  0  0  0  0  0  0  0  0
  -19.1333  -29.5218   22.7498 C   0  0  0  0  0  0  0  0  0  0  0  0
  -23.8565  -26.5633   20.0007 C   0  0  0  0  0  0  0  0  0  0  0  0
  -23.9590  -22.0413   16.1693 C   0  0  0  0  0  0  0  0  0  0  0  0
  -22.4741   -8.0776   21.3808 C   0  0  0  0  0  0  0  0  0  0  0  0
  -22.8711  -25.0473   18.3757 C   0  0  0  0  0  0  0  0  0  0  0  0
  -21.7565   -6.5825   23.0457 C   0  0  0  0  0  0  0  0  0  0  0  0
  -21.4294   -5.9921   25.7526 C   0  0  0  0  0  0  0  0  0  0  0  0
  -22.3840   -5.4652   23.5966 C   0  0  0  0  0  0  0  0  0  0  0  0
  -24.1998  -11.8083   20.3797 C   0  0  0  0  0  0  0  0  0  0  0  0
  -23.7917  -19.6781   17.5232 C   0  0  0  0  0  0  0  0  0  0  0  0
  -25.0345  -21.4873   16.8447 C   0  0  0  0  0  0  0  0  0  0  0  0
  -25.4095  -13.4084   19.4791 C   0  0  0  0  0  0  0  0  0  0  0  0
  -25.8864  -11.1337   18.5590 C   0  0  0  0  0  0  0  0  0  0  0  0
  -22.7265  -29.0721   22.0149 C   0  0  0  0  0  0  0  0  0  0  0  0
  -23.3313  -18.5967   19.7093 C   0  0  0  0  0  0  0  0  0  0  0  0
  -25.9555  -28.8527   22.2325 C   0  0  0  0  0  0  0  0  0  0  0  0
  -28.8341  -27.3466   21.1874 C   0  0  0  0  0  0  0  0  0  0  0  0
  -18.9167  -31.0314   24.7907 C   0  0  0  0  0  0  0  0  0  0  0  0
  -23.0389  -26.5983   22.3871 C   0  0  0  0  0  0  0  0  0  0  0  0
  -24.8688  -27.6352   20.3084 C   0  0  0  0  0  0  0  0  0  0  0  0
  -20.4083  -31.3142   24.6305 C   0  0  0  0  0  0  0  0  0  0  0  0
  -23.8075  -16.8555   22.8047 C   0  0  0  0  0  0  0  0  0  0  0  0
  -20.7770  -31.4141   23.1537 C   0  0  0  0  0  0  0  0  0  0  0  0
  -24.0042  -15.4029   22.3729 C   0  0  0  0  0  0  0  0  0  0  0  0
  -22.8122  -17.5767   21.9012 C   0  0  0  0  0  0  0  0  0  0  0  0
  -23.3575  -16.0713   20.0149 C   0  0  0  0  0  0  0  0  0  0  0  0
  -20.4955  -30.0950   22.4242 C   0  0  1  0  0  0  0  0  0  0  0  0
  -23.6573  -27.9896   22.4831 C   0  0  1  0  0  0  0  0  0  0  0  0
  -24.3789  -15.3150   20.8828 C   0  0  2  0  0  0  0  0  0  0  0  0
  -26.3569  -22.1815   16.8518 C   0  0  0  0  0  0  0  0  0  0  0  0
  -31.3210  -27.4069   21.5175 C   0  0  0  0  0  0  0  0  0  0  0  0
  -26.1165  -31.3850   20.5379 C   0  0  0  0  0  0  0  0  0  0  0  0
  -28.5275  -30.8624   20.1110 C   0  0  0  0  0  0  0  0  0  0  0  0
  -27.7402  -31.2963   22.4379 C   0  0  0  0  0  0  0  0  0  0  0  0
  -28.8891  -24.5527   22.1623 C   0  0  0  0  0  0  0  0  0  0  0  0
  -24.0665  -23.3503   15.4256 C   0  0  0  0  0  0  0  0  0  0  0  0
  -23.7273  -18.3873   18.2693 C   0  0  0  0  0  0  0  0  0  0  0  0
  -24.0359  -24.5534   16.3620 C   0  0  0  0  0  0  0  0  0  1  0  0
  -27.1110  -29.1277   21.3006 C   0  0  1  0  0  0  0  0  0  0  0  0
  -30.0099  -26.7757   21.9594 C   0  0  2  0  0  0  0  0  0  0  0  0
  -27.3535  -30.6490   21.0902 C   0  0  0  0  0  0  0  0  0  0  0  0
  -23.7974  -12.9210   20.9994 N   0  0  0  0  0  0  0  0  0  0  0  0
  -24.9818  -20.3193   17.5234 N   0  0  0  0  0  0  0  0  0  0  0  0
  -24.5514  -13.8768   20.4302 N   0  0  0  0  0  0  0  0  0  0  0  0
  -24.8880  -28.1163   21.6997 N   0  0  0  0  0  0  0  0  0  0  0  0
  -23.1911  -17.4510   20.4927 N   0  0  0  0  0  0  0  0  0  0  0  0
  -26.2398  -14.2345   18.8077 N   0  0  0  0  0  0  0  0  0  0  0  0
  -25.5518   -9.7745   18.6298 N   0  0  0  0  0  0  0  0  0  0  0  0
  -21.5335  -29.1279   22.7101 N   0  0  0  0  0  0  0  0  0  0  0  0
  -28.2569  -28.4101   21.8485 N   0  0  0  0  0  0  0  0  0  0  0  0
  -30.1024  -25.3033   21.7482 N   0  3  0  0  0  0  0  0  0  0  0  0
  -26.7795  -11.5053   17.7603 O   0  0  0  0  0  0  0  0  0  0  0  0
  -23.0660  -29.8037   21.0923 O   0  0  0  0  0  0  0  0  0  0  0  0
  -23.1553  -19.7451   20.1243 O   0  0  0  0  0  0  0  0  0  0  0  0
  -26.0017  -29.2697   23.3925 O   0  0  0  0  0  0  0  0  0  0  0  0
  -28.4668  -26.8966   20.1042 O   0  0  0  0  0  0  0  0  0  0  0  0
  -21.9185   -6.8775   21.7024 O   0  0  0  0  0  0  0  0  0  0  0  0
  -22.8202  -24.5520   17.1092 O   0  0  0  0  0  0  0  0  0  1  0  0
  -21.2736   -5.7095   27.0526 F   0  0  0  0  0  0  0  0  0  0  0  0
  -23.1460   -4.6723   22.8308 F   0  0  0  0  0  0  0  0  0  0  0  0
  1  2  1  0  0  0  0
  1  5  2  0  0  0  0
  2  6  2  0  0  0  0
  3  9  2  0  0  0  0
  3 17  1  0  0  0  0
  4 10  1  0  0  0  0
  4 17  2  0  0  0  0
  5 19  1  0  0  0  0
  6 21  1  0  0  0  0
  7 11  2  0  0  0  0
  7 20  1  0  0  0  0
  8 14  2  0  0  0  0
  8 23  1  0  0  0  0
  9 24  1  0  0  0  0
 10 24  2  0  0  0  0
 11 25  1  0  0  0  0
 12 13  2  0  0  0  0
 12 26  1  0  0  0  0
 13 27  1  0  0  0  0
 14 30  1  0  0  0  0
 15 22  1  0  0  0  0
 15 25  2  0  0  0  0
 16 27  2  0  0  0  0
 16 28  1  0  0  0  0
 17 29  1  0  0  0  0
 18 29  1  0  0  0  0
 18 32  2  0  0  0  0
 18 33  1  0  0  0  0
 19 21  2  0  0  0  0
 19 38  1  0  0  0  0
 20 22  2  0  0  0  0
 20 39  1  0  0  0  0
 21 47  1  0  0  0  0
 22 40  1  0  0  0  0
 23 31  2  0  0  0  0
 23 56  1  0  0  0  0
 24 77  1  0  0  0  0
 25 78  1  0  0  0  0
 26 28  2  0  0  0  0
 26 77  1  0  0  0  0
 27 79  1  0  0  0  0
 28 80  1  0  0  0  0
 29 62  2  0  0  0  0
 30 57  1  0  0  0  0
 30 63  2  0  0  0  0
 31 50  1  0  0  0  0
 31 63  1  0  0  0  0
 32 64  1  0  0  0  0
 32 67  1  0  0  0  0
 33 68  1  0  0  0  0
 33 72  2  0  0  0  0
 34 48  1  0  0  0  0
 34 69  1  0  0  0  0
 34 73  2  0  0  0  0
 35 57  1  0  0  0  0
 35 66  1  0  0  0  0
 35 74  2  0  0  0  0
 36 59  1  0  0  0  0
 36 65  1  0  0  0  0
 36 75  2  0  0  0  0
 37 60  1  0  0  0  0
 37 70  1  0  0  0  0
 37 76  2  0  0  0  0
 38 41  1  0  0  0  0
 39 48  1  0  0  0  0
 40 65  1  0  0  0  0
 41 43  1  0  0  0  0
 42 44  1  0  0  0  0
 42 45  1  0  0  0  0
 43 47  1  0  0  0  0
 44 49  1  0  0  0  0
 45 66  1  0  0  0  0
 46 49  1  0  0  0  0
 46 66  1  0  0  0  0
 47 69  1  0  0  0  0
 48 65  1  0  0  0  0
 49 64  1  0  0  0  0
 51 60  1  0  0  0  0
 52 61  1  0  0  0  0
 53 61  1  0  0  0  0
 54 61  1  0  0  0  0
 55 71  1  0  0  0  0
 56 58  1  0  0  0  0
 58 78  1  0  0  0  0
 59 61  1  0  0  0  0
 59 70  1  0  0  0  0
 60 71  1  0  0  0  0
 62 64  1  0  0  0  0
M  CHG  1  71   1
M  ISO  4  35 100  57 100  58 101  78 101
M  END
> <Batch ID>
0048

> <Smiles>
CNC(C)C(=O)NC(C(=O)N1Cc2cc([101O:1][101CH2:1]Cc3ccc([100CH2:0][100C:0](=O)N4CCCC(n5nc(-c6ccc(Oc7ccc(F)cc7F)cc6)c(C(N)=O)c5N)C4)nc3C)ccc2CC1C(=O)NC1CCCc2ccccc21)C(C)(C)C

> <Shape>
0.238

> <Color>
0.103

> <Negative vol penalty>
0.000

$$$$

  -OEChem-04052317263D

 84 92  0     1  0  0  0  0  0999 V2000
  -30.0348  -35.4599   21.9729 C   0  0  0  0  0  0  0  0  0  0  0  0
  -29.9488  -34.0719   21.9345 C   0  0  0  0  0  0  0  0  0  0  0  0
  -23.0319  -14.7320   22.3439 C   0  0  0  0  0  0  0  0  0  0  0  0
  -23.5557  -16.9223   21.4691 C   0  0  0  0  0  0  0  0  0  0  0  0
  -29.0030  -36.2057   22.5414 C   0  0  0  0  0  0  0  0  0  0  0  0
  -28.8313  -33.4288   22.4656 C   0  0  0  0  0  0  0  0  0  0  0  0
  -27.0806  -29.7624   19.4427 C   0  0  0  0  0  0  0  0  0  0  0  0
  -22.3200  -15.3198   23.3895 C   0  0  0  0  0  0  0  0  0  0  0  0
  -22.8438  -17.5101   22.5146 C   0  0  0  0  0  0  0  0  0  0  0  0
  -27.7704  -28.5509   19.4460 C   0  0  0  0  0  0  0  0  0  0  0  0
  -19.6111  -18.1052   23.2997 C   0  0  0  0  0  0  0  0  0  0  0  0
  -18.7426  -19.1499   22.9835 C   0  0  0  0  0  0  0  0  0  0  0  0
  -26.1095  -27.6160   20.9246 C   0  0  0  0  0  0  0  0  0  0  0  0
  -19.9906  -20.6260   24.4329 C   0  0  0  0  0  0  0  0  0  0  0  0
  -28.6520  -18.1451   18.8130 C   0  0  0  0  0  0  0  0  0  0  0  0
  -23.6498  -15.5332   21.3837 C   0  0  0  0  0  0  0  0  0  0  0  0
  -23.8865  -14.5433   19.0445 C   0  0  0  0  0  0  0  0  0  0  0  0
  -27.8679  -35.5719   23.0710 C   0  0  0  0  0  0  0  0  0  0  0  0
  -25.9038  -29.9135   20.1904 C   0  0  0  0  0  0  0  0  0  0  0  0
  -27.7840  -34.1667   23.0429 C   0  0  0  0  0  0  0  0  0  0  0  0
  -25.4052  -28.8297   20.9272 C   0  0  0  0  0  0  0  0  0  0  0  0
  -22.2259  -16.7089   23.4748 C   0  0  0  0  0  0  0  0  0  0  0  0
  -27.2865  -27.4783   20.1893 C   0  0  0  0  0  0  0  0  0  0  0  0
  -20.6693  -18.3208   24.1825 C   0  0  0  0  0  0  0  0  0  0  0  0
  -18.9324  -20.4103   23.5501 C   0  0  0  0  0  0  0  0  0  0  0  0
  -20.8591  -19.5812   24.7491 C   0  0  0  0  0  0  0  0  0  0  0  0
  -24.3858  -14.9266   20.3037 C   0  0  0  0  0  0  0  0  0  0  0  0
  -27.6610  -19.0509   18.3897 C   0  0  0  0  0  0  0  0  0  0  0  0
  -28.8605  -17.3317   17.7261 C   0  0  0  0  0  0  0  0  0  0  0  0
  -24.9743  -14.0218   18.3880 C   0  0  0  0  0  0  0  0  0  0  0  0
  -22.5580  -14.6492   18.5156 C   0  0  0  0  0  0  0  0  0  0  0  0
  -25.0067  -31.7681   22.6109 C   0  0  0  0  0  0  0  0  0  0  0  0
  -22.1134  -30.4032   22.0745 C   0  0  0  0  0  0  0  0  0  0  0  0
  -20.3399  -27.7658   20.8312 C   0  0  0  0  0  0  0  0  0  0  0  0
  -30.9194  -15.0344   19.4693 C   0  0  0  0  0  0  0  0  0  0  0  0
  -26.7997  -36.4176   23.7178 C   0  0  0  0  0  0  0  0  0  0  0  0
  -25.1570  -31.2186   20.1550 C   0  0  0  0  0  0  0  0  0  0  0  0
  -24.1354  -28.9340   21.7304 C   0  0  0  0  0  0  0  0  0  0  0  0
  -25.4789  -35.6798   23.9214 C   0  0  0  0  0  0  0  0  0  0  0  0
  -29.1329  -11.8053   19.1809 C   0  0  0  0  0  0  0  0  0  0  0  0
  -25.7254  -34.2999   24.5229 C   0  0  0  0  0  0  0  0  0  0  0  0
  -27.6763  -12.2095   19.4024 C   0  0  0  0  0  0  0  0  0  0  0  0
  -30.0977  -12.7465   19.8958 C   0  0  0  0  0  0  0  0  0  0  0  0
  -28.4496  -14.5856   19.7722 C   0  0  0  0  0  0  0  0  0  0  0  0
  -26.5766  -33.4339   23.5864 C   0  0  1  0  0  0  0  0  0  0  0  0
  -24.2466  -31.4190   21.3627 C   0  0  1  0  0  0  0  0  0  0  0  0
  -27.4533  -13.6849   19.0270 C   0  0  2  0  0  0  0  0  0  0  0  0
  -17.9925  -26.9175   20.5717 C   0  0  0  0  0  0  0  0  0  0  0  0
  -22.0644  -29.6421   25.0289 C   0  0  0  0  0  0  0  0  0  0  0  0
  -20.2256  -28.0241   24.5100 C   0  0  0  0  0  0  0  0  0  0  0  0
  -19.8817  -30.4650   24.1273 C   0  0  0  0  0  0  0  0  0  0  0  0
  -27.8628  -17.2502   15.4213 C   0  0  0  0  0  0  0  0  0  0  0  0
  -31.9047  -17.0425   18.4320 C   0  0  0  0  0  0  0  0  0  0  0  0
  -20.5492  -27.7475   17.8791 C   0  0  0  0  0  0  0  0  0  0  0  0
  -27.0420  -20.1732   19.1844 C   0  0  0  0  0  0  0  0  0  0  0  0
  -29.7721  -16.1892   17.5322 C   0  0  0  0  0  0  0  0  0  0  0  0
  -27.7813  -21.5092   19.0489 C   0  0  0  0  0  0  0  0  0  0  0  0
  -27.0942  -22.6534   19.8009 C   0  0  0  0  0  0  0  0  0  0  0  0
  -27.8803  -23.9562   19.6638 C   0  0  0  0  0  0  0  0  0  0  0  0
  -27.1841  -25.1094   20.3725 C   0  0  0  0  0  0  0  0  0  1  0  0
  -21.4032  -29.1699   22.5783 C   0  0  1  0  0  0  0  0  0  0  0  0
  -19.1212  -27.7077   19.9280 C   0  0  2  0  0  0  0  0  0  0  0  0
  -20.9187  -29.3236   24.0476 C   0  0  0  0  0  0  0  0  0  0  0  0
  -25.6894  -14.6703   20.4412 N   0  0  0  0  0  0  0  0  0  0  0  0
  -27.2673  -18.8338   17.1320 N   0  0  0  0  0  0  0  0  0  0  0  0
  -28.0149  -17.7823   16.7555 N   0  0  0  0  0  0  0  0  0  0  0  0
  -26.0184  -14.1203   19.2600 N   0  0  0  0  0  0  0  0  0  0  0  0
  -23.4446  -30.2327   21.6689 N   0  0  0  0  0  0  0  0  0  0  0  0
  -29.8356  -14.1450   19.5543 N   0  0  0  0  0  0  0  0  0  0  0  0
  -25.1301  -13.4931   17.1556 N   0  0  0  0  0  0  0  0  0  0  0  0
  -21.5598  -15.2100   19.3240 N   0  0  0  0  0  0  0  0  0  0  0  0
  -25.7684  -32.9160   22.5033 N   0  0  0  0  0  0  0  0  0  0  0  0
  -20.3356  -28.8947   21.6228 N   0  0  0  0  0  0  0  0  0  0  0  0
  -30.8026  -16.1003   18.5644 N   0  0  0  0  0  0  0  0  0  0  0  0
  -19.4679  -27.0603   18.6312 N   0  3  0  0  0  0  0  0  0  0  0  0
  -22.2613  -14.2432   17.3664 O   0  0  0  0  0  0  0  0  0  0  0  0
  -24.9082  -31.0501   23.5991 O   0  0  0  0  0  0  0  0  0  0  0  0
  -21.5070  -31.4767   22.0355 O   0  0  0  0  0  0  0  0  0  0  0  0
  -21.2070  -26.8948   20.8368 O   0  0  0  0  0  0  0  0  0  0  0  0
  -31.9375  -14.8788   20.1558 O   0  0  0  0  0  0  0  0  0  0  0  0
  -21.5311  -17.2829   24.4948 O   0  0  0  0  0  0  0  0  0  0  0  0
  -27.9583  -26.2949   20.1947 O   0  0  0  0  0  0  0  0  0  1  0  0
  -18.0992  -21.4138   23.2452 F   0  0  0  0  0  0  0  0  0  0  0  0
  -21.8746  -19.7948   25.5970 F   0  0  0  0  0  0  0  0  0  0  0  0
  1  2  1  0  0  0  0
  1  5  2  0  0  0  0
  2  6  2  0  0  0  0
  3  8  2  0  0  0  0
  3 16  1  0  0  0  0
  4  9  1  0  0  0  0
  4 16  2  0  0  0  0
  5 18  1  0  0  0  0
  6 20  1  0  0  0  0
  7 10  2  0  0  0  0
  7 19  1  0  0  0  0
  8 22  1  0  0  0  0
  9 22  2  0  0  0  0
 10 23  1  0  0  0  0
 11 12  2  0  0  0  0
 11 24  1  0  0  0  0
 12 25  1  0  0  0  0
 13 21  1  0  0  0  0
 13 23  2  0  0  0  0
 14 25  2  0  0  0  0
 14 26  1  0  0  0  0
 15 28  1  0  0  0  0
 15 29  2  0  0  0  0
 16 27  1  0  0  0  0
 17 27  1  0  0  0  0
 17 30  2  0  0  0  0
 17 31  1  0  0  0  0
 18 20  2  0  0  0  0
 18 36  1  0  0  0  0
 19 21  2  0  0  0  0
 19 37  1  0  0  0  0
 20 45  1  0  0  0  0
 21 38  1  0  0  0  0
 22 81  1  0  0  0  0
 23 82  1  0  0  0  0
 24 26  2  0  0  0  0
 24 81  1  0  0  0  0
 25 83  1  0  0  0  0
 26 84  1  0  0  0  0
 27 64  2  0  0  0  0
 28 55  1  0  0  0  0
 28 65  2  0  0  0  0
 29 56  1  0  0  0  0
 29 66  1  0  0  0  0
 30 67  1  0  0  0  0
 30 70  1  0  0  0  0
 31 71  1  0  0  0  0
 31 76  2  0  0  0  0
 32 46  1  0  0  0  0
 32 72  1  0  0  0  0
 32 77  2  0  0  0  0
 33 61  1  0  0  0  0
 33 68  1  0  0  0  0
 33 78  2  0  0  0  0
 34 62  1  0  0  0  0
 34 73  1  0  0  0  0
 34 79  2  0  0  0  0
 35 69  1  0  0  0  0
 35 74  1  0  0  0  0
 35 80  2  0  0  0  0
 36 39  1  0  0  0  0
 37 46  1  0  0  0  0
 38 68  1  0  0  0  0
 39 41  1  0  0  0  0
 40 42  1  0  0  0  0
 40 43  1  0  0  0  0
 41 45  1  0  0  0  0
 42 47  1  0  0  0  0
 43 69  1  0  0  0  0
 44 47  1  0  0  0  0
 44 69  1  0  0  0  0
 45 72  1  0  0  0  0
 46 68  1  0  0  0  0
 47 67  1  0  0  0  0
 48 62  1  0  0  0  0
 49 63  1  0  0  0  0
 50 63  1  0  0  0  0
 51 63  1  0  0  0  0
 52 66  1  0  0  0  0
 53 74  1  0  0  0  0
 54 75  1  0  0  0  0
 55 57  1  0  0  0  0
 56 74  1  0  0  0  0
 57 58  1  0  0  0  0
 58 59  1  0  0  0  0
 59 60  1  0  0  0  0
 60 82  1  0  0  0  0
 61 63  1  0  0  0  0
 61 73  1  0  0  0  0
 62 75  1  0  0  0  0
 64 67  1  0  0  0  0
 65 66  1  0  0  0  0
M  CHG  1  75   1
M  ISO  4  35 100  60 101  74 100  82 101
M  END
> <Batch ID>
0048

> <Smiles>
CNC(C)C(=O)NC(C(=O)N1Cc2cc([101O:1][101CH2:1]CCCCc3cc(C[100N:0](C)[100C:0](=O)N4CCCC(n5nc(-c6ccc(Oc7ccc(F)cc7F)cc6)c(C(N)=O)c5N)C4)n(C)n3)ccc2CC1C(=O)NC1CCCc2ccccc21)C(C)(C)C

> <Shape>
0.236

> <Color>
0.097

> <Negative vol penalty>
0.000

$$$$

  -OEChem-04052317263D

 83 91  0     1  0  0  0  0  0999 V2000
  -23.9527   -8.1004   21.9443 C   0  0  0  0  0  0  0  0  0  0  0  0
  -24.4063   -8.9928   20.9781 C   0  0  0  0  0  0  0  0  0  0  0  0
  -27.8142  -26.8090   18.4403 C   0  0  0  0  0  0  0  0  0  0  0  0
  -29.4736  -26.4758   20.1645 C   0  0  0  0  0  0  0  0  0  0  0  0
  -22.7938   -8.3851   22.6652 C   0  0  0  0  0  0  0  0  0  0  0  0
  -23.7006  -10.1699   20.7317 C   0  0  0  0  0  0  0  0  0  0  0  0
  -26.7325  -14.2072   20.3409 C   0  0  0  0  0  0  0  0  0  0  0  0
  -27.3935  -27.9796   19.0713 C   0  0  0  0  0  0  0  0  0  0  0  0
  -29.0529  -27.6465   20.7955 C   0  0  0  0  0  0  0  0  0  0  0  0
  -27.4178  -14.3748   19.1383 C   0  0  0  0  0  0  0  0  0  0  0  0
  -25.4670  -28.8294   21.7153 C   0  0  0  0  0  0  0  0  0  0  0  0
  -24.0940  -29.0332   21.8529 C   0  0  0  0  0  0  0  0  0  0  0  0
  -25.7786  -16.0001   18.4377 C   0  0  0  0  0  0  0  0  0  0  0  0
  -24.2667  -31.0680   20.5618 C   0  0  0  0  0  0  0  0  0  0  0  0
  -28.1949  -15.7806   12.6582 C   0  0  0  0  0  0  0  0  0  0  0  0
  -28.8542  -26.0570   18.9869 C   0  0  0  0  0  0  0  0  0  0  0  0
  -30.2873  -24.7235   17.3512 C   0  0  0  0  0  0  0  0  0  0  0  0
  -22.0788   -9.5709   22.4343 C   0  0  0  0  0  0  0  0  0  0  0  0
  -25.5571  -14.9279   20.5967 C   0  0  0  0  0  0  0  0  0  0  0  0
  -22.5303  -10.4701   21.4493 C   0  0  0  0  0  0  0  0  0  0  0  0
  -25.0817  -15.8417   19.6454 C   0  0  0  0  0  0  0  0  0  0  0  0
  -28.0129  -28.3984   20.2489 C   0  0  0  0  0  0  0  0  0  0  0  0
  -26.9393  -15.2692   18.1853 C   0  0  0  0  0  0  0  0  0  0  0  0
  -26.2399  -29.7449   21.0011 C   0  0  0  0  0  0  0  0  0  0  0  0
  -23.4939  -30.1524   21.2761 C   0  0  0  0  0  0  0  0  0  0  0  0
  -25.6398  -30.8642   20.4243 C   0  0  0  0  0  0  0  0  0  0  0  0
  -29.2888  -24.8473   18.3359 C   0  0  0  0  0  0  0  0  0  0  0  0
  -29.4216  -16.4071   12.6429 C   0  0  0  0  0  0  0  0  0  0  0  0
  -29.1406  -17.0108   14.8307 C   0  0  0  0  0  0  0  0  0  0  0  0
  -27.9136  -16.3849   14.8457 C   0  0  0  0  0  0  0  0  0  0  0  0
  -30.3197  -23.3812   17.0620 C   0  0  0  0  0  0  0  0  0  0  0  0
  -31.1120  -25.7316   16.7518 C   0  0  0  0  0  0  0  0  0  0  0  0
  -22.5222  -14.1517   21.1358 C   0  0  0  0  0  0  0  0  0  0  0  0
  -22.2135  -17.3330   21.6894 C   0  0  0  0  0  0  0  0  0  0  0  0
  -23.3913  -20.4928   21.1646 C   0  0  0  0  0  0  0  0  0  0  0  0
  -30.4405  -18.1257   19.2259 C   0  0  0  0  0  0  0  0  0  0  0  0
  -20.8055   -9.8127   23.2055 C   0  0  0  0  0  0  0  0  0  0  0  0
  -24.8443  -14.7555   21.9100 C   0  0  0  0  0  0  0  0  0  0  0  0
  -23.8357  -16.6546   19.8800 C   0  0  0  0  0  0  0  0  0  0  0  0
  -20.3229  -11.2597   23.1460 C   0  0  0  0  0  0  0  0  0  0  0  0
  -27.1798  -19.6416   18.3473 C   0  0  0  0  0  0  0  0  0  0  0  0
  -20.3716  -11.7802   21.7130 C   0  0  0  0  0  0  0  0  0  0  0  0
  -27.5173  -21.1289   18.2578 C   0  0  0  0  0  0  0  0  0  0  0  0
  -28.1015  -18.9082   19.3171 C   0  0  0  0  0  0  0  0  0  0  0  0
  -29.8870  -20.5756   18.9352 C   0  0  0  0  0  0  0  0  0  0  0  0
  -21.8059  -11.7692   21.1705 C   0  0  1  0  0  0  0  0  0  0  0  0
  -23.3750  -15.1617   21.8502 C   0  0  1  0  0  0  0  0  0  0  0  0
  -29.0066  -21.3348   17.9311 C   0  0  2  0  0  0  0  0  0  0  0  0
  -30.2516  -16.4124   11.4072 C   0  0  0  0  0  0  0  0  0  0  0  0
  -22.9068  -22.8925   21.7157 C   0  0  0  0  0  0  0  0  0  0  0  0
  -19.9437  -17.3405   19.6503 C   0  0  0  0  0  0  0  0  0  0  0  0
  -20.1454  -19.8335   19.5389 C   0  0  0  0  0  0  0  0  0  0  0  0
  -19.5212  -18.7292   21.6868 C   0  0  0  0  0  0  0  0  0  0  0  0
  -32.5488  -17.0338   18.5610 C   0  0  0  0  0  0  0  0  0  0  0  0
  -25.9831  -20.8173   22.5562 C   0  0  0  0  0  0  0  0  0  0  0  0
  -29.6766  -17.6994   16.0391 C   0  0  0  0  0  0  0  0  0  0  0  0
  -27.0594  -16.3672   16.0792 C   0  0  0  0  0  0  0  0  0  1  0  0
  -31.1569  -18.1173   15.9325 C   0  0  0  0  0  0  0  0  0  0  0  0
  -31.6874  -18.8669   17.1527 C   0  0  0  0  0  0  0  0  0  0  0  0
  -21.8960  -18.5401   20.8402 C   0  0  1  0  0  0  0  0  0  0  0  0
  -23.6642  -21.6381   22.1227 C   0  0  2  0  0  0  0  0  0  0  0  0
  -20.3990  -18.5942   20.4235 C   0  0  0  0  0  0  0  0  0  0  0  0
  -27.4188  -15.7583   13.7599 N   0  0  0  0  0  0  0  0  0  0  0  0
  -28.7273  -23.6771   18.6509 N   0  0  0  0  0  0  0  0  0  0  0  0
  -29.9165  -17.0334   13.7289 N   0  0  0  0  0  0  0  0  0  0  0  0
  -29.3751  -22.8051   17.8596 N   0  0  0  0  0  0  0  0  0  0  0  0
  -23.1706  -16.4458   21.1768 N   0  0  0  0  0  0  0  0  0  0  0  0
  -29.5106  -19.1560   19.0101 N   0  0  0  0  0  0  0  0  0  0  0  0
  -31.0635  -22.6492   16.2056 N   0  0  0  0  0  0  0  0  0  0  0  0
  -30.9487  -27.0609   17.1647 N   0  0  0  0  0  0  0  0  0  0  0  0
  -22.5544  -12.8898   21.6980 N   0  0  0  0  0  0  0  0  0  0  0  0
  -22.3478  -19.7022   21.5975 N   0  0  0  0  0  0  0  0  0  0  0  0
  -31.5622  -18.0898   18.3839 N   0  0  0  0  0  0  0  0  0  0  0  0
  -25.1200  -21.9559   22.1490 N   0  3  0  0  0  0  0  0  0  0  0  0
  -31.9569  -25.4638   15.8641 O   0  0  0  0  0  0  0  0  0  0  0  0
  -21.8813  -14.4924   20.1485 O   0  0  0  0  0  0  0  0  0  0  0  0
  -21.6390  -17.1865   22.7711 O   0  0  0  0  0  0  0  0  0  0  0  0
  -24.0367  -20.3190   20.1331 O   0  0  0  0  0  0  0  0  0  0  0  0
  -30.2725  -17.2802   20.1141 O   0  0  0  0  0  0  0  0  0  0  0  0
  -27.6028  -29.5408   20.8648 O   0  0  0  0  0  0  0  0  0  0  0  0
  -27.6059  -15.4342   17.0105 O   0  0  0  0  0  0  0  0  0  1  0  0
  -22.1751  -30.3472   21.4069 F   0  0  0  0  0  0  0  0  0  0  0  0
  -26.3769  -31.7466   19.7359 F   0  0  0  0  0  0  0  0  0  0  0  0
  1  2  1  0  0  0  0
  1  5  2  0  0  0  0
  2  6  2  0  0  0  0
  3  8  2  0  0  0  0
  3 16  1  0  0  0  0
  4  9  1  0  0  0  0
  4 16  2  0  0  0  0
  5 18  1  0  0  0  0
  6 20  1  0  0  0  0
  7 10  2  0  0  0  0
  7 19  1  0  0  0  0
  8 22  1  0  0  0  0
  9 22  2  0  0  0  0
 10 23  1  0  0  0  0
 11 12  2  0  0  0  0
 11 24  1  0  0  0  0
 12 25  1  0  0  0  0
 13 21  1  0  0  0  0
 13 23  2  0  0  0  0
 14 25  2  0  0  0  0
 14 26  1  0  0  0  0
 15 28  1  0  0  0  0
 15 63  2  0  0  0  0
 16 27  1  0  0  0  0
 17 27  1  0  0  0  0
 17 31  2  0  0  0  0
 17 32  1  0  0  0  0
 18 20  2  0  0  0  0
 18 37  1  0  0  0  0
 19 21  2  0  0  0  0
 19 38  1  0  0  0  0
 20 46  1  0  0  0  0
 21 39  1  0  0  0  0
 22 80  1  0  0  0  0
 23 81  1  0  0  0  0
 24 26  2  0  0  0  0
 24 80  1  0  0  0  0
 25 82  1  0  0  0  0
 26 83  1  0  0  0  0
 27 64  2  0  0  0  0
 28 49  1  0  0  0  0
 28 65  2  0  0  0  0
 29 30  2  0  0  0  0
 29 56  1  0  0  0  0
 29 65  1  0  0  0  0
 30 57  1  0  0  0  0
 30 63  1  0  0  0  0
 31 66  1  0  0  0  0
 31 69  1  0  0  0  0
 32 70  1  0  0  0  0
 32 75  2  0  0  0  0
 33 47  1  0  0  0  0
 33 71  1  0  0  0  0
 33 76  2  0  0  0  0
 34 60  1  0  0  0  0
 34 67  1  0  0  0  0
 34 77  2  0  0  0  0
 35 61  1  0  0  0  0
 35 72  1  0  0  0  0
 35 78  2  0  0  0  0
 36 68  1  0  0  0  0
 36 73  1  0  0  0  0
 36 79  2  0  0  0  0
 37 40  1  0  0  0  0
 38 47  1  0  0  0  0
 39 67  1  0  0  0  0
 40 42  1  0  0  0  0
 41 43  1  0  0  0  0
 41 44  1  0  0  0  0
 42 46  1  0  0  0  0
 43 48  1  0  0  0  0
 44 68  1  0  0  0  0
 45 48  1  0  0  0  0
 45 68  1  0  0  0  0
 46 71  1  0  0  0  0
 47 67  1  0  0  0  0
 48 66  1  0  0  0  0
 50 61  1  0  0  0  0
 51 62  1  0  0  0  0
 52 62  1  0  0  0  0
 53 62  1  0  0  0  0
 54 73  1  0  0  0  0
 55 74  1  0  0  0  0
 56 58  1  0  0  0  0
 57 81  1  0  0  0  0
 58 59  1  0  0  0  0
 59 73  1  0  0  0  0
 60 62  1  0  0  0  0
 60 72  1  0  0  0  0
 61 74  1  0  0  0  0
 64 66  1  0  0  0  0
M  CHG  1  74   1
M  ISO  4  36 100  57 101  73 100  81 101
M  END
> <Batch ID>
0048

> <Smiles>
CNC(C)C(=O)NC(C(=O)N1Cc2cc([101O:1][101CH2:1]c3ncc(C)nc3CCC[100N:0](C)[100C:0](=O)N3CCCC(n4nc(-c5ccc(Oc6ccc(F)cc6F)cc5)c(C(N)=O)c4N)C3)ccc2CC1C(=O)NC1CCCc2ccccc21)C(C)(C)C

> <Shape>
0.208

> <Color>
0.087

> <Negative vol penalty>
0.000

$$$$

  -OEChem-04052317263D

 84 92  0     1  0  0  0  0  0999 V2000
  -37.3391  -13.6939   23.7033 C   0  0  0  0  0  0  0  0  0  0  0  0
  -36.5996  -14.8595   23.5300 C   0  0  0  0  0  0  0  0  0  0  0  0
  -20.0507  -28.7563   23.0964 C   0  0  0  0  0  0  0  0  0  0  0  0
  -21.0813  -26.5841   22.8588 C   0  0  0  0  0  0  0  0  0  0  0  0
  -37.0379  -12.5602   22.9498 C   0  0  0  0  0  0  0  0  0  0  0  0
  -35.5592  -14.8923   22.6022 C   0  0  0  0  0  0  0  0  0  0  0  0
  -30.2977  -17.9900   23.0789 C   0  0  0  0  0  0  0  0  0  0  0  0
  -18.8807  -28.2645   22.5179 C   0  0  0  0  0  0  0  0  0  0  0  0
  -19.9112  -26.0923   22.2803 C   0  0  0  0  0  0  0  0  0  0  0  0
  -29.8794  -19.2140   22.5587 C   0  0  0  0  0  0  0  0  0  0  0  0
  -16.2239  -26.4018   23.4690 C   0  0  0  0  0  0  0  0  0  0  0  0
  -15.0124  -26.7301   24.0773 C   0  0  0  0  0  0  0  0  0  0  0  0
  -28.8253  -18.0648   20.7182 C   0  0  0  0  0  0  0  0  0  0  0  0
  -14.2854  -27.8141   22.0442 C   0  0  0  0  0  0  0  0  0  0  0  0
  -29.2413  -23.9155   20.3634 C   0  0  0  0  0  0  0  0  0  0  0  0
  -21.1511  -27.9161   23.2668 C   0  0  0  0  0  0  0  0  0  0  0  0
  -22.6944  -28.4324   25.2313 C   0  0  0  0  0  0  0  0  0  0  0  0
  -35.9870  -12.5761   22.0192 C   0  0  0  0  0  0  0  0  0  0  0  0
  -29.9917  -16.7929   22.4157 C   0  0  0  0  0  0  0  0  0  0  0  0
  -35.2445  -13.7581   21.8345 C   0  0  0  0  0  0  0  0  0  0  0  0
  -29.2386  -16.8267   21.2334 C   0  0  0  0  0  0  0  0  0  0  0  0
  -18.8109  -26.9325   22.1099 C   0  0  0  0  0  0  0  0  0  0  0  0
  -29.1456  -19.2517   21.3767 C   0  0  0  0  0  0  0  0  0  0  0  0
  -16.4662  -26.7796   22.1483 C   0  0  0  0  0  0  0  0  0  0  0  0
  -14.0431  -27.4362   23.3649 C   0  0  0  0  0  0  0  0  0  0  0  0
  -15.4969  -27.4857   21.4359 C   0  0  0  0  0  0  0  0  0  0  0  0
  -22.3603  -28.4237   23.8638 C   0  0  0  0  0  0  0  0  0  0  0  0
  -28.5319  -22.8205   20.8922 C   0  0  0  0  0  0  0  0  0  0  0  0
  -28.2707  -24.7287   19.8314 C   0  0  0  0  0  0  0  0  0  0  0  0
  -23.9370  -29.0159   25.2774 C   0  0  0  0  0  0  0  0  0  0  0  0
  -21.9484  -27.9556   26.3590 C   0  0  0  0  0  0  0  0  0  0  0  0
  -31.6996  -14.4716   21.0746 C   0  0  0  0  0  0  0  0  0  0  0  0
  -28.7983  -13.0590   20.7450 C   0  0  0  0  0  0  0  0  0  0  0  0
  -25.4114  -13.4144   20.5218 C   0  0  0  0  0  0  0  0  0  0  0  0
  -28.3666  -29.4971   21.2776 C   0  0  0  0  0  0  0  0  0  0  0  0
  -35.7294  -11.3404   21.1939 C   0  0  0  0  0  0  0  0  0  0  0  0
  -30.4274  -15.4789   23.0040 C   0  0  0  0  0  0  0  0  0  0  0  0
  -28.8666  -15.5685   20.4939 C   0  0  0  0  0  0  0  0  0  0  0  0
  -34.3696  -11.3439   20.5000 C   0  0  0  0  0  0  0  0  0  0  0  0
  -26.6868  -32.1586   22.9424 C   0  0  0  0  0  0  0  0  0  0  0  0
  -34.1176  -12.6890   19.8264 C   0  0  0  0  0  0  0  0  0  0  0  0
  -25.4177  -31.5040   23.4907 C   0  0  0  0  0  0  0  0  0  0  0  0
  -27.0727  -31.5879   21.5796 C   0  0  0  0  0  0  0  0  0  0  0  0
  -25.9285  -29.4643   22.0845 C   0  0  0  0  0  0  0  0  0  0  0  0
  -34.0924  -13.8254   20.8557 C   0  0  1  0  0  0  0  0  0  0  0  0
  -30.5003  -14.3573   21.9725 C   0  0  1  0  0  0  0  0  0  0  0  0
  -25.5308  -29.9677   23.4827 C   0  0  2  0  0  0  0  0  0  0  0  0
  -23.3066  -12.0820   20.2184 C   0  0  0  0  0  0  0  0  0  0  0  0
  -29.4275  -12.7457   17.7759 C   0  0  0  0  0  0  0  0  0  0  0  0
  -26.9946  -12.3089   17.3777 C   0  0  0  0  0  0  0  0  0  0  0  0
  -28.3174  -10.7637   18.8218 C   0  0  0  0  0  0  0  0  0  0  0  0
  -25.6863  -24.7202   18.1592 C   0  0  0  0  0  0  0  0  0  0  0  0
  -25.4760  -25.9115   20.3764 C   0  0  0  0  0  0  0  0  0  0  0  0
  -24.6259  -23.5938   20.1032 C   0  0  0  0  0  0  0  0  0  0  0  0
  -24.3423  -14.2896   23.1390 C   0  0  0  0  0  0  0  0  0  0  0  0
  -29.0946  -21.6195   21.5939 C   0  0  0  0  0  0  0  0  0  1  0  0
  -28.3676  -26.0251   19.1359 C   0  0  0  0  0  0  0  0  0  0  0  0
  -29.5623  -26.9116   19.5662 C   0  0  0  0  0  0  0  0  0  0  0  0
  -29.5354  -27.3211   21.0372 C   0  0  0  0  0  0  0  0  0  0  0  0
  -27.7211  -13.0631   19.6873 C   0  0  1  0  0  0  0  0  0  0  0  0
  -24.2744  -12.6912   21.2209 C   0  0  2  0  0  0  0  0  0  0  0  0
  -28.1236  -12.2444   18.4283 C   0  0  0  0  0  0  0  0  0  0  0  0
  -25.7675  -24.5568   19.6932 C   0  0  0  0  0  0  0  0  0  0  0  0
  -23.3135  -28.9593   23.0966 N   0  0  0  0  0  0  0  0  0  0  0  0
  -27.2126  -22.9255   20.7127 N   0  0  0  0  0  0  0  0  0  0  0  0
  -27.0851  -24.0962   20.0651 N   0  0  0  0  0  0  0  0  0  0  0  0
  -24.2588  -29.3101   23.9851 N   0  0  0  0  0  0  0  0  0  0  0  0
  -29.3211  -14.3089   21.1058 N   0  0  0  0  0  0  0  0  0  0  0  0
  -27.1647  -30.1271   21.6406 N   0  0  0  0  0  0  0  0  0  0  0  0
  -24.7747  -29.3010   26.2969 N   0  0  0  0  0  0  0  0  0  0  0  0
  -20.6889  -27.3836   26.1335 N   0  0  0  0  0  0  0  0  0  0  0  0
  -32.8288  -13.8407   21.5609 N   0  0  0  0  0  0  0  0  0  0  0  0
  -26.5047  -12.5936   20.3417 N   0  0  0  0  0  0  0  0  0  0  0  0
  -28.3708  -28.1107   21.3702 N   0  0  0  0  0  0  0  0  0  0  0  0
  -23.5175  -13.6351   22.0910 N   0  3  0  0  0  0  0  0  0  0  0  0
  -22.3786  -28.0494   27.5336 O   0  0  0  0  0  0  0  0  0  0  0  0
  -31.6071  -15.0855   20.0181 O   0  0  0  0  0  0  0  0  0  0  0  0
  -29.1573  -11.9868   21.2382 O   0  0  0  0  0  0  0  0  0  0  0  0
  -25.3358  -14.5888   20.1673 O   0  0  0  0  0  0  0  0  0  0  0  0
  -29.3637  -30.1241   20.9042 O   0  0  0  0  0  0  0  0  0  0  0  0
  -17.6692  -26.4522   21.5456 O   0  0  0  0  0  0  0  0  0  0  0  0
  -28.7366  -20.4452   20.8664 O   0  0  0  0  0  0  0  0  0  1  0  0
  -12.8791  -27.7501   23.9487 F   0  0  0  0  0  0  0  0  0  0  0  0
  -15.7235  -27.8504   20.1665 F   0  0  0  0  0  0  0  0  0  0  0  0
  1  2  1  0  0  0  0
  1  5  2  0  0  0  0
  2  6  2  0  0  0  0
  3  8  2  0  0  0  0
  3 16  1  0  0  0  0
  4  9  1  0  0  0  0
  4 16  2  0  0  0  0
  5 18  1  0  0  0  0
  6 20  1  0  0  0  0
  7 10  2  0  0  0  0
  7 19  1  0  0  0  0
  8 22  1  0  0  0  0
  9 22  2  0  0  0  0
 10 23  1  0  0  0  0
 11 12  2  0  0  0  0
 11 24  1  0  0  0  0
 12 25  1  0  0  0  0
 13 21  1  0  0  0  0
 13 23  2  0  0  0  0
 14 25  2  0  0  0  0
 14 26  1  0  0  0  0
 15 28  1  0  0  0  0
 15 29  2  0  0  0  0
 16 27  1  0  0  0  0
 17 27  1  0  0  0  0
 17 30  2  0  0  0  0
 17 31  1  0  0  0  0
 18 20  2  0  0  0  0
 18 36  1  0  0  0  0
 19 21  2  0  0  0  0
 19 37  1  0  0  0  0
 20 45  1  0  0  0  0
 21 38  1  0  0  0  0
 22 81  1  0  0  0  0
 23 82  1  0  0  0  0
 24 26  2  0  0  0  0
 24 81  1  0  0  0  0
 25 83  1  0  0  0  0
 26 84  1  0  0  0  0
 27 64  2  0  0  0  0
 28 56  1  0  0  0  0
 28 65  2  0  0  0  0
 29 57  1  0  0  0  0
 29 66  1  0  0  0  0
 30 67  1  0  0  0  0
 30 70  1  0  0  0  0
 31 71  1  0  0  0  0
 31 76  2  0  0  0  0
 32 46  1  0  0  0  0
 32 72  1  0  0  0  0
 32 77  2  0  0  0  0
 33 60  1  0  0  0  0
 33 68  1  0  0  0  0
 33 78  2  0  0  0  0
 34 61  1  0  0  0  0
 34 73  1  0  0  0  0
 34 79  2  0  0  0  0
 35 69  1  0  0  0  0
 35 74  1  0  0  0  0
 35 80  2  0  0  0  0
 36 39  1  0  0  0  0
 37 46  1  0  0  0  0
 38 68  1  0  0  0  0
 39 41  1  0  0  0  0
 40 42  1  0  0  0  0
 40 43  1  0  0  0  0
 41 45  1  0  0  0  0
 42 47  1  0  0  0  0
 43 69  1  0  0  0  0
 44 47  1  0  0  0  0
 44 69  1  0  0  0  0
 45 72  1  0  0  0  0
 46 68  1  0  0  0  0
 47 67  1  0  0  0  0
 48 61  1  0  0  0  0
 49 62  1  0  0  0  0
 50 62  1  0  0  0  0
 51 62  1  0  0  0  0
 52 63  1  0  0  0  0
 53 63  1  0  0  0  0
 54 63  1  0  0  0  0
 55 75  1  0  0  0  0
 56 82  1  0  0  0  0
 57 58  1  0  0  0  0
 58 59  1  0  0  0  0
 59 74  1  0  0  0  0
 60 62  1  0  0  0  0
 60 73  1  0  0  0  0
 61 75  1  0  0  0  0
 63 66  1  0  0  0  0
 64 67  1  0  0  0  0
 65 66  1  0  0  0  0
M  CHG  1  75   1
M  ISO  4  35 100  56 101  74 100  82 101
M  END
> <Batch ID>
0048

> <Smiles>
CNC(C)C(=O)NC(C(=O)N1Cc2cc([101O:1][101CH2:1]c3cc(CCC[100NH:0][100C:0](=O)N4CCCC(n5nc(-c6ccc(Oc7ccc(F)cc7F)cc6)c(C(N)=O)c5N)C4)n(C(C)(C)C)n3)ccc2CC1C(=O)NC1CCCc2ccccc21)C(C)(C)C

> <Shape>
0.284

> <Color>
0.065

> <Negative vol penalty>
0.000

$$$$
