
  -OEChem-04052317293D

 82 90  0     1  0  0  0  0  0999 V2000
  -23.4846  -15.8485   22.5871 C   0  0  0  0  0  0  0  0  0  0  0  0
  -24.5071  -16.6786   23.0354 C   0  0  0  0  0  0  0  0  0  0  0  0
  -26.3512  -13.0658   21.4047 C   0  0  0  0  0  0  0  0  0  0  0  0
  -26.1828  -13.5432   19.0424 C   0  0  0  0  0  0  0  0  0  0  0  0
  -22.4952  -16.3553   21.7456 C   0  0  0  0  0  0  0  0  0  0  0  0
  -24.5413  -18.0158   22.6415 C   0  0  0  0  0  0  0  0  0  0  0  0
  -26.4728  -24.4897   25.0235 C   0  0  0  0  0  0  0  0  0  0  0  0
  -25.1292  -12.3951   21.3564 C   0  0  0  0  0  0  0  0  0  0  0  0
  -24.9607  -12.8725   18.9940 C   0  0  0  0  0  0  0  0  0  0  0  0
  -27.2440  -25.5891   24.6491 C   0  0  0  0  0  0  0  0  0  0  0  0
  -23.9851   -9.3705   20.3685 C   0  0  0  0  0  0  0  0  0  0  0  0
  -23.8952   -8.1392   21.0176 C   0  0  0  0  0  0  0  0  0  0  0  0
  -25.4374  -26.3746   23.2568 C   0  0  0  0  0  0  0  0  0  0  0  0
  -22.1385   -9.0112   22.4285 C   0  0  0  0  0  0  0  0  0  0  0  0
  -28.5909  -24.6122   19.8753 C   0  0  0  0  0  0  0  0  0  0  0  0
  -26.8780  -13.6399   20.2477 C   0  0  0  0  0  0  0  0  0  0  0  0
  -29.4204  -13.7840   20.0947 C   0  0  0  0  0  0  0  0  0  0  0  0
  -22.5119  -17.7018   21.3490 C   0  0  0  0  0  0  0  0  0  0  0  0
  -25.1800  -24.3184   24.5080 C   0  0  0  0  0  0  0  0  0  0  0  0
  -23.5519  -18.5407   21.7928 C   0  0  0  0  0  0  0  0  0  0  0  0
  -24.6509  -25.2734   23.6282 C   0  0  0  0  0  0  0  0  0  0  0  0
  -24.4339  -12.2984   20.1510 C   0  0  0  0  0  0  0  0  0  0  0  0
  -26.7275  -26.5303   23.7634 C   0  0  0  0  0  0  0  0  0  0  0  0
  -23.1517  -10.4222   20.7494 C   0  0  0  0  0  0  0  0  0  0  0  0
  -22.9719   -7.9596   22.0476 C   0  0  0  0  0  0  0  0  0  0  0  0
  -22.2284  -10.2426   21.7794 C   0  0  0  0  0  0  0  0  0  0  0  0
  -28.1401  -14.3333   20.2972 C   0  0  0  0  0  0  0  0  0  0  0  0
  -29.8491  -24.3201   19.3967 C   0  0  0  0  0  0  0  0  0  0  0  0
  -30.5284  -26.4489   19.8837 C   0  0  0  0  0  0  0  0  0  0  0  0
  -29.2699  -26.7410   20.3615 C   0  0  0  0  0  0  0  0  0  0  0  0
  -30.2777  -14.8462   20.2473 C   0  0  0  0  0  0  0  0  0  0  0  0
  -29.8006  -12.4344   19.7952 C   0  0  0  0  0  0  0  0  0  0  0  0
  -23.7521  -22.1118   22.7204 C   0  0  0  0  0  0  0  0  0  0  0  0
  -21.1025  -23.8729   23.3533 C   0  0  0  0  0  0  0  0  0  0  0  0
  -19.7698  -26.8927   24.2201 C   0  0  0  0  0  0  0  0  0  0  0  0
  -29.5210  -20.6522   19.4908 C   0  0  0  0  0  0  0  0  0  0  0  0
  -21.4471  -18.1924   20.4003 C   0  0  0  0  0  0  0  0  0  0  0  0
  -24.3509  -23.1410   24.9425 C   0  0  0  0  0  0  0  0  0  0  0  0
  -23.2610  -25.1463   23.0622 C   0  0  0  0  0  0  0  0  0  0  0  0
  -21.3470  -19.7140   20.3312 C   0  0  0  0  0  0  0  0  0  0  0  0
  -30.6766  -19.0405   22.5180 C   0  0  0  0  0  0  0  0  0  0  0  0
  -22.7337  -20.3345   20.1933 C   0  0  0  0  0  0  0  0  0  0  0  0
  -30.2722  -17.5875   22.2624 C   0  0  0  0  0  0  0  0  0  0  0  0
  -29.6307  -20.0093   21.9741 C   0  0  0  0  0  0  0  0  0  0  0  0
  -28.9140  -18.3793   20.2703 C   0  0  0  0  0  0  0  0  0  0  0  0
  -23.6096  -20.0030   21.4075 C   0  0  1  0  0  0  0  0  0  0  0  0
  -23.2396  -22.7962   23.9559 C   0  0  1  0  0  0  0  0  0  0  0  0
  -29.9416  -17.3509   20.7768 C   0  0  2  0  0  0  0  0  0  0  0  0
  -31.6161  -27.4679   19.8852 C   0  0  0  0  0  0  0  0  0  0  0  0
  -17.5708  -28.0330   24.6222 C   0  0  0  0  0  0  0  0  0  0  0  0
  -20.6216  -24.0017   20.3430 C   0  0  0  0  0  0  0  0  0  0  0  0
  -19.0254  -25.8872   20.7490 C   0  0  0  0  0  0  0  0  0  0  0  0
  -18.5623  -23.6338   21.7136 C   0  0  0  0  0  0  0  0  0  0  0  0
  -20.4681  -27.5027   27.0307 C   0  0  0  0  0  0  0  0  0  0  0  0
  -28.9336  -28.1053   20.9085 C   0  0  0  0  0  0  0  0  0  0  0  0
  -30.1579  -22.9662   18.8607 C   0  0  0  0  0  0  0  0  0  0  0  0
  -29.4829  -28.3579   22.3142 C   0  0  0  0  0  0  0  0  0  0  0  0
  -28.8942  -27.4278   23.3686 C   0  0  0  0  0  0  0  0  0  1  0  0
  -20.4158  -25.0454   22.6955 C   0  0  1  0  0  0  0  0  0  0  0  0
  -18.7265  -27.2736   25.2550 C   0  0  2  0  0  0  0  0  0  0  0  0
  -19.6832  -24.6437   21.3843 C   0  0  0  0  0  0  0  0  0  0  0  0
  -28.2786  -25.8279   20.3662 N   0  0  0  0  0  0  0  0  0  0  0  0
  -28.1762  -15.6426   20.5587 N   0  0  0  0  0  0  0  0  0  0  0  0
  -30.8405  -25.2332   19.3924 N   0  0  0  0  0  0  0  0  0  0  0  0
  -29.4896  -15.9250   20.5216 N   0  0  0  0  0  0  0  0  0  0  0  0
  -22.4918  -23.9744   23.5124 N   0  0  0  0  0  0  0  0  0  0  0  0
  -29.3757  -19.7427   20.5515 N   0  0  0  0  0  0  0  0  0  0  0  0
  -31.6214  -14.9532   20.1724 N   0  0  0  0  0  0  0  0  0  0  0  0
  -28.7930  -11.4680   19.6725 N   0  0  0  0  0  0  0  0  0  0  0  0
  -23.2498  -20.8381   22.5334 N   0  0  0  0  0  0  0  0  0  0  0  0
  -19.5466  -25.6312   23.7102 N   0  0  0  0  0  0  0  0  0  0  0  0
  -29.9557  -21.9242   19.8427 N   0  0  0  0  0  0  0  0  0  0  0  0
  -19.3331  -28.1343   26.3096 N   0  3  0  0  0  0  0  0  0  0  0  0
  -30.9995  -12.0923   19.6573 O   0  0  0  0  0  0  0  0  0  0  0  0
  -24.5434  -22.6965   21.9900 O   0  0  0  0  0  0  0  0  0  0  0  0
  -20.4300  -22.9057   23.7192 O   0  0  0  0  0  0  0  0  0  0  0  0
  -20.6885  -27.6410   23.8938 O   0  0  0  0  0  0  0  0  0  0  0  0
  -29.2859  -20.3514   18.3155 O   0  0  0  0  0  0  0  0  0  0  0  0
  -23.2415  -11.6438   20.1034 O   0  0  0  0  0  0  0  0  0  0  0  0
  -27.4783  -27.6040   23.3958 O   0  0  0  0  0  0  0  0  0  1  0  0
  -22.8847   -6.7766   22.6699 F   0  0  0  0  0  0  0  0  0  0  0  0
  -21.4242  -11.2489   22.1489 F   0  0  0  0  0  0  0  0  0  0  0  0
  1  2  1  0  0  0  0
  1  5  2  0  0  0  0
  2  6  2  0  0  0  0
  3  8  2  0  0  0  0
  3 16  1  0  0  0  0
  4  9  1  0  0  0  0
  4 16  2  0  0  0  0
  5 18  1  0  0  0  0
  6 20  1  0  0  0  0
  7 10  2  0  0  0  0
  7 19  1  0  0  0  0
  8 22  1  0  0  0  0
  9 22  2  0  0  0  0
 10 23  1  0  0  0  0
 11 12  2  0  0  0  0
 11 24  1  0  0  0  0
 12 25  1  0  0  0  0
 13 21  1  0  0  0  0
 13 23  2  0  0  0  0
 14 25  2  0  0  0  0
 14 26  1  0  0  0  0
 15 28  1  0  0  0  0
 15 62  2  0  0  0  0
 16 27  1  0  0  0  0
 17 27  1  0  0  0  0
 17 31  2  0  0  0  0
 17 32  1  0  0  0  0
 18 20  2  0  0  0  0
 18 37  1  0  0  0  0
 19 21  2  0  0  0  0
 19 38  1  0  0  0  0
 20 46  1  0  0  0  0
 21 39  1  0  0  0  0
 22 79  1  0  0  0  0
 23 80  1  0  0  0  0
 24 26  2  0  0  0  0
 24 79  1  0  0  0  0
 25 81  1  0  0  0  0
 26 82  1  0  0  0  0
 27 63  2  0  0  0  0
 28 56  1  0  0  0  0
 28 64  2  0  0  0  0
 29 30  2  0  0  0  0
 29 49  1  0  0  0  0
 29 64  1  0  0  0  0
 30 55  1  0  0  0  0
 30 62  1  0  0  0  0
 31 65  1  0  0  0  0
 31 68  1  0  0  0  0
 32 69  1  0  0  0  0
 32 74  2  0  0  0  0
 33 47  1  0  0  0  0
 33 70  1  0  0  0  0
 33 75  2  0  0  0  0
 34 59  1  0  0  0  0
 34 66  1  0  0  0  0
 34 76  2  0  0  0  0
 35 60  1  0  0  0  0
 35 71  1  0  0  0  0
 35 77  2  0  0  0  0
 36 67  1  0  0  0  0
 36 72  1  0  0  0  0
 36 78  2  0  0  0  0
 37 40  1  0  0  0  0
 38 47  1  0  0  0  0
 39 66  1  0  0  0  0
 40 42  1  0  0  0  0
 41 43  1  0  0  0  0
 41 44  1  0  0  0  0
 42 46  1  0  0  0  0
 43 48  1  0  0  0  0
 44 67  1  0  0  0  0
 45 48  1  0  0  0  0
 45 67  1  0  0  0  0
 46 70  1  0  0  0  0
 47 66  1  0  0  0  0
 48 65  1  0  0  0  0
 50 60  1  0  0  0  0
 51 61  1  0  0  0  0
 52 61  1  0  0  0  0
 53 61  1  0  0  0  0
 54 73  1  0  0  0  0
 55 57  1  0  0  0  0
 56 72  1  0  0  0  0
 57 58  1  0  0  0  0
 58 80  1  0  0  0  0
 59 61  1  0  0  0  0
 59 71  1  0  0  0  0
 60 73  1  0  0  0  0
 63 65  1  0  0  0  0
M  CHG  1  73   1
M  ISO  4  36 100  58 101  72 100  80 101
M  END
> <Batch ID>
0049

> <Smiles>
CNC(C)C(=O)NC(C(=O)N1Cc2cc([101O:1][101CH2:1]CCc3ncc(C[100NH:0][100C:0](=O)N4CCCC(n5nc(-c6ccc(Oc7ccc(F)cc7F)cc6)c(C(N)=O)c5N)C4)nc3C)ccc2CC1C(=O)NC1CCCc2ccccc21)C(C)(C)C

> <Shape>
0.224

> <Color>
0.075

> <Negative vol penalty>
0.000

$$$$

  -OEChem-04052317293D

 84 92  0     1  0  0  0  0  0999 V2000
  -27.7038  -24.1940   17.2498 C   0  0  0  0  0  0  0  0  0  0  0  0
  -26.4957  -24.5829   17.8196 C   0  0  0  0  0  0  0  0  0  0  0  0
  -28.0018  -12.1772   21.3937 C   0  0  0  0  0  0  0  0  0  0  0  0
  -27.5233  -12.4414   19.0404 C   0  0  0  0  0  0  0  0  0  0  0  0
  -28.9068  -24.5520   17.8569 C   0  0  0  0  0  0  0  0  0  0  0  0
  -26.4898  -25.3292   18.9975 C   0  0  0  0  0  0  0  0  0  0  0  0
  -23.2232  -29.1952   18.8316 C   0  0  0  0  0  0  0  0  0  0  0  0
  -27.6531  -10.8290   21.3133 C   0  0  0  0  0  0  0  0  0  0  0  0
  -27.1747  -11.0932   18.9599 C   0  0  0  0  0  0  0  0  0  0  0  0
  -21.8744  -28.8978   19.0219 C   0  0  0  0  0  0  0  0  0  0  0  0
  -24.8180   -8.9909   21.2248 C   0  0  0  0  0  0  0  0  0  0  0  0
  -24.0003   -8.4727   22.2290 C   0  0  0  0  0  0  0  0  0  0  0  0
  -22.0445  -29.6226   21.3164 C   0  0  0  0  0  0  0  0  0  0  0  0
  -25.7240   -6.8834   22.8123 C   0  0  0  0  0  0  0  0  0  0  0  0
  -21.4217  -24.1082   22.2232 C   0  0  0  0  0  0  0  0  0  0  0  0
  -27.9368  -12.9834   20.2573 C   0  0  0  0  0  0  0  0  0  0  0  0
  -29.5721  -14.9381   20.1434 C   0  0  0  0  0  0  0  0  0  0  0  0
  -28.9159  -25.3113   19.0376 C   0  0  0  0  0  0  0  0  0  0  0  0
  -23.9967  -29.6992   19.8871 C   0  0  0  0  0  0  0  0  0  0  0  0
  -27.6940  -25.6966   19.6217 C   0  0  0  0  0  0  0  0  0  0  0  0
  -23.4022  -29.9280   21.1362 C   0  0  0  0  0  0  0  0  0  0  0  0
  -27.2396  -10.2870   20.0963 C   0  0  0  0  0  0  0  0  0  0  0  0
  -21.2856  -29.1087   20.2652 C   0  0  0  0  0  0  0  0  0  0  0  0
  -26.0887   -8.4553   21.0143 C   0  0  0  0  0  0  0  0  0  0  0  0
  -24.4533   -7.4189   23.0228 C   0  0  0  0  0  0  0  0  0  0  0  0
  -26.5417   -7.4016   21.8080 C   0  0  0  0  0  0  0  0  0  0  0  0
  -28.2963  -14.3763   20.3399 C   0  0  0  0  0  0  0  0  0  0  0  0
  -20.8555  -23.7288   21.0291 C   0  0  0  0  0  0  0  0  0  0  0  0
  -29.3864  -16.2859   20.3316 C   0  0  0  0  0  0  0  0  0  0  0  0
  -19.7306  -25.4136   21.6824 C   0  0  0  0  0  0  0  0  0  0  0  0
  -30.8139  -14.2987   19.8196 C   0  0  0  0  0  0  0  0  0  0  0  0
  -26.5618  -28.6893   21.4696 C   0  0  0  0  0  0  0  0  0  0  0  0
  -24.5452  -19.6716   19.7194 C   0  0  0  0  0  0  0  0  0  0  0  0
  -26.3696  -31.6109   22.8658 C   0  0  0  0  0  0  0  0  0  0  0  0
  -24.4394  -34.2930   23.7187 C   0  0  0  0  0  0  0  0  0  0  0  0
  -30.2403  -25.6340   19.6830 C   0  0  0  0  0  0  0  0  0  0  0  0
  -25.4437  -30.0401   19.6582 C   0  0  0  0  0  0  0  0  0  0  0  0
  -24.1841  -30.4864   22.2962 C   0  0  0  0  0  0  0  0  0  0  0  0
  -30.1548  -26.7452   20.7262 C   0  0  0  0  0  0  0  0  0  0  0  0
  -26.6337  -19.4020   22.6846 C   0  0  0  0  0  0  0  0  0  0  0  0
  -28.9708  -26.5115   21.6592 C   0  0  0  0  0  0  0  0  0  0  0  0
  -27.3954  -18.1070   22.4053 C   0  0  0  0  0  0  0  0  0  0  0  0
  -25.2047  -19.3388   22.1517 C   0  0  0  0  0  0  0  0  0  0  0  0
  -25.8790  -17.7079   20.4167 C   0  0  0  0  0  0  0  0  0  0  0  0
  -27.6470  -26.5278   20.8854 C   0  0  1  0  0  0  0  0  0  0  0  0
  -26.2625  -30.0652   20.9452 C   0  0  1  0  0  0  0  0  0  0  0  0
  -27.3346  -17.7422   20.9116 C   0  0  2  0  0  0  0  0  0  0  0  0
  -24.5546  -36.5108   24.8873 C   0  0  0  0  0  0  0  0  0  0  0  0
  -26.3989  -30.1852   25.5634 C   0  0  0  0  0  0  0  0  0  0  0  0
  -25.5685  -32.3015   26.6123 C   0  0  0  0  0  0  0  0  0  0  0  0
  -27.7845  -32.2650   25.4674 C   0  0  0  0  0  0  0  0  0  0  0  0
  -20.9069  -25.9429   23.8417 C   0  0  0  0  0  0  0  0  0  0  0  0
  -23.6547  -35.7556   21.2684 C   0  0  0  0  0  0  0  0  0  0  0  0
  -22.2516  -23.7914   18.1960 C   0  0  0  0  0  0  0  0  0  0  0  0
  -21.2468  -22.6172   20.1485 C   0  0  0  0  0  0  0  0  0  0  0  0
  -18.7316  -26.5367   21.8015 C   0  0  0  0  0  0  0  0  0  0  0  0
  -23.8158  -20.9258   20.1303 C   0  0  0  0  0  0  0  0  0  0  0  0
  -18.2855  -27.1097   20.4545 C   0  0  0  0  0  0  0  0  0  0  0  0
  -23.1648  -21.5949   18.9333 C   0  0  0  0  0  0  0  0  0  0  0  0
  -19.4188  -27.7608   19.6702 C   0  0  0  0  0  0  0  0  0  1  0  0
  -25.6719  -32.1708   24.0818 C   0  0  1  0  0  0  0  0  0  0  0  0
  -24.6603  -35.7859   23.5546 C   0  0  2  0  0  0  0  0  0  0  0  0
  -26.3414  -31.7183   25.4101 C   0  0  0  0  0  0  0  0  0  0  0  0
  -27.3688  -15.2923   20.6308 N   0  0  0  0  0  0  0  0  0  0  0  0
  -19.8035  -24.5456   20.6979 N   0  0  0  0  0  0  0  0  0  0  0  0
  -20.6908  -25.1889   22.6294 N   0  0  0  0  0  0  0  0  0  0  0  0
  -28.0624  -16.4433   20.6186 N   0  0  0  0  0  0  0  0  0  0  0  0
  -25.5970  -30.7980   22.0243 N   0  0  0  0  0  0  0  0  0  0  0  0
  -25.1886  -18.9615   20.7333 N   0  0  0  0  0  0  0  0  0  0  0  0
  -30.2282  -17.3399   20.2781 N   0  0  0  0  0  0  0  0  0  0  0  0
  -30.8271  -12.9062   19.6613 N   0  0  0  0  0  0  0  0  0  0  0  0
  -27.2552  -27.8878   20.5829 N   0  0  0  0  0  0  0  0  0  0  0  0
  -25.6280  -33.6174   23.8973 N   0  0  0  0  0  0  0  0  0  0  0  0
  -23.6468  -36.3604   22.6253 N   0  3  0  0  0  0  0  0  0  0  0  0
  -22.4944  -22.8715   19.3608 N   0  3  1  0  0  0  0  0  0  0  0  0
  -31.8834  -14.9414   19.6911 O   0  0  0  0  0  0  0  0  0  0  0  0
  -26.1923  -28.3783   22.5959 O   0  0  0  0  0  0  0  0  0  0  0  0
  -24.5443  -19.3363   18.5321 O   0  0  0  0  0  0  0  0  0  0  0  0
  -27.5543  -31.8904   22.6661 O   0  0  0  0  0  0  0  0  0  0  0  0
  -23.3236  -33.7782   23.6949 O   0  0  0  0  0  0  0  0  0  0  0  0
  -26.8995   -8.9714   20.0174 O   0  0  0  0  0  0  0  0  0  0  0  0
  -19.9695  -28.8187   20.4538 O   0  0  0  0  0  0  0  0  0  1  0  0
  -23.6686   -6.9224   23.9881 F   0  0  0  0  0  0  0  0  0  0  0  0
  -27.7619   -6.8838   21.6113 F   0  0  0  0  0  0  0  0  0  0  0  0
  1  2  1  0  0  0  0
  1  5  2  0  0  0  0
  2  6  2  0  0  0  0
  3  8  2  0  0  0  0
  3 16  1  0  0  0  0
  4  9  1  0  0  0  0
  4 16  2  0  0  0  0
  5 18  1  0  0  0  0
  6 20  1  0  0  0  0
  7 10  2  0  0  0  0
  7 19  1  0  0  0  0
  8 22  1  0  0  0  0
  9 22  2  0  0  0  0
 10 23  1  0  0  0  0
 11 12  2  0  0  0  0
 11 24  1  0  0  0  0
 12 25  1  0  0  0  0
 13 21  1  0  0  0  0
 13 23  2  0  0  0  0
 14 25  2  0  0  0  0
 14 26  1  0  0  0  0
 15 28  2  0  0  0  0
 15 66  1  0  0  0  0
 16 27  1  0  0  0  0
 17 27  1  0  0  0  0
 17 29  2  0  0  0  0
 17 31  1  0  0  0  0
 18 20  2  0  0  0  0
 18 36  1  0  0  0  0
 19 21  2  0  0  0  0
 19 37  1  0  0  0  0
 20 45  1  0  0  0  0
 21 38  1  0  0  0  0
 22 81  1  0  0  0  0
 23 82  1  0  0  0  0
 24 26  2  0  0  0  0
 24 81  1  0  0  0  0
 25 83  1  0  0  0  0
 26 84  1  0  0  0  0
 27 64  2  0  0  0  0
 28 55  1  0  0  0  0
 28 65  1  0  0  0  0
 29 67  1  0  0  0  0
 29 70  1  0  0  0  0
 30 56  1  0  0  0  0
 30 65  2  0  0  0  0
 30 66  1  0  0  0  0
 31 71  1  0  0  0  0
 31 76  2  0  0  0  0
 32 46  1  0  0  0  0
 32 72  1  0  0  0  0
 32 77  2  0  0  0  0
 33 57  1  0  0  0  0
 33 69  1  0  0  0  0
 33 78  2  0  0  0  0
 34 61  1  0  0  0  0
 34 68  1  0  0  0  0
 34 79  2  0  0  0  0
 35 62  1  0  0  0  0
 35 73  1  0  0  0  0
 35 80  2  0  0  0  0
 36 39  1  0  0  0  0
 37 46  1  0  0  0  0
 38 68  1  0  0  0  0
 39 41  1  0  0  0  0
 40 42  1  0  0  0  0
 40 43  1  0  0  0  0
 41 45  1  0  0  0  0
 42 47  1  0  0  0  0
 43 69  1  0  0  0  0
 44 47  1  0  0  0  0
 44 69  1  0  0  0  0
 45 72  1  0  0  0  0
 46 68  1  0  0  0  0
 47 67  1  0  0  0  0
 48 62  1  0  0  0  0
 49 63  1  0  0  0  0
 50 63  1  0  0  0  0
 51 63  1  0  0  0  0
 52 66  1  0  0  0  0
 53 74  1  0  0  0  0
 54 75  1  0  0  0  0
 55 75  1  0  0  0  0
 56 58  1  0  0  0  0
 57 59  1  0  0  0  0
 58 60  1  0  0  0  0
 59 75  1  0  0  0  0
 60 82  1  0  0  0  0
 61 63  1  0  0  0  0
 61 73  1  0  0  0  0
 62 74  1  0  0  0  0
 64 67  1  0  0  0  0
M  CHG  2  74   1  75   1
M  ISO  4  33 100  57 100  60 101  82 101
M  END
> <Batch ID>
0049

> <Smiles>
CNC(C)C(=O)NC(C(=O)N1Cc2cc([101O:1][101CH2:1]CCc3nc(CN(C)C[100CH2:0][100C:0](=O)N4CCCC(n5nc(-c6ccc(Oc7ccc(F)cc7F)cc6)c(C(N)=O)c5N)C4)cn3C)ccc2CC1C(=O)NC1CCCc2ccccc21)C(C)(C)C

> <Shape>
0.293

> <Color>
0.083

> <Negative vol penalty>
0.000

$$$$

  -OEChem-04052317293D

 87 95  0     1  0  0  0  0  0999 V2000
  -23.7360   -8.0373   21.6497 C   0  0  0  0  0  0  0  0  0  0  0  0
  -24.3033   -8.9962   20.8165 C   0  0  0  0  0  0  0  0  0  0  0  0
  -24.1439  -28.5949   19.7635 C   0  0  0  0  0  0  0  0  0  0  0  0
  -24.1722  -28.0984   22.1277 C   0  0  0  0  0  0  0  0  0  0  0  0
  -22.5440   -8.3135   22.3180 C   0  0  0  0  0  0  0  0  0  0  0  0
  -23.6782  -10.2315   20.6503 C   0  0  0  0  0  0  0  0  0  0  0  0
  -26.9325  -14.1039   20.8946 C   0  0  0  0  0  0  0  0  0  0  0  0
  -22.8064  -28.9786   19.8600 C   0  0  0  0  0  0  0  0  0  0  0  0
  -22.8347  -28.4821   22.2243 C   0  0  0  0  0  0  0  0  0  0  0  0
  -27.7107  -14.3538   19.7652 C   0  0  0  0  0  0  0  0  0  0  0  0
  -19.8051  -27.1541   21.5248 C   0  0  0  0  0  0  0  0  0  0  0  0
  -18.9460  -26.3318   22.2536 C   0  0  0  0  0  0  0  0  0  0  0  0
  -26.2116  -16.1353   19.1339 C   0  0  0  0  0  0  0  0  0  0  0  0
  -18.4644  -28.1639   23.7532 C   0  0  0  0  0  0  0  0  0  0  0  0
  -24.8269  -28.1547   20.8973 C   0  0  0  0  0  0  0  0  0  0  0  0
  -27.3419  -28.5772   20.9568 C   0  0  0  0  0  0  0  0  0  0  0  0
  -21.9090   -9.5564   22.1674 C   0  0  0  0  0  0  0  0  0  0  0  0
  -25.7800  -14.8619   21.1469 C   0  0  0  0  0  0  0  0  0  0  0  0
  -22.4759  -10.5241   21.3162 C   0  0  0  0  0  0  0  0  0  0  0  0
  -25.4219  -15.8946   20.2686 C   0  0  0  0  0  0  0  0  0  0  0  0
  -22.1518  -28.9222   21.0905 C   0  0  0  0  0  0  0  0  0  0  0  0
  -27.3487  -15.3677   18.8831 C   0  0  0  0  0  0  0  0  0  0  0  0
  -19.9940  -28.4814   21.9102 C   0  0  0  0  0  0  0  0  0  0  0  0
  -18.2756  -26.8366   23.3678 C   0  0  0  0  0  0  0  0  0  0  0  0
  -19.3236  -28.9862   23.0243 C   0  0  0  0  0  0  0  0  0  0  0  0
  -26.2084  -27.7577   20.7981 C   0  0  0  0  0  0  0  0  0  0  0  0
  -31.1136  -19.2678   18.5365 C   0  0  0  0  0  0  0  0  0  0  0  0
  -30.7146  -17.9598   18.7022 C   0  0  0  0  0  0  0  0  0  0  0  0
  -30.3835  -18.3433   20.9322 C   0  0  0  0  0  0  0  0  0  0  0  0
  -30.7833  -19.6511   20.7667 C   0  0  0  0  0  0  0  0  0  0  0  0
  -28.4069  -27.7308   20.7672 C   0  0  0  0  0  0  0  0  0  0  0  0
  -27.4248  -29.9783   21.2496 C   0  0  0  0  0  0  0  0  0  0  0  0
  -22.6784  -14.2127   21.3966 C   0  0  0  0  0  0  0  0  0  0  0  0
  -22.4931  -17.3329   22.2640 C   0  0  0  0  0  0  0  0  0  0  0  0
  -23.8654  -20.4558   22.1584 C   0  0  0  0  0  0  0  0  0  0  0  0
  -31.0298  -23.1024   21.5792 C   0  0  0  0  0  0  0  0  0  0  0  0
  -20.5972   -9.7917   22.8734 C   0  0  0  0  0  0  0  0  0  0  0  0
  -24.9661  -14.5973   22.3838 C   0  0  0  0  0  0  0  0  0  0  0  0
  -24.2052  -16.7504   20.5049 C   0  0  0  0  0  0  0  0  0  0  0  0
  -20.1946  -11.2628   22.9362 C   0  0  0  0  0  0  0  0  0  0  0  0
  -28.5951  -22.9964   19.0233 C   0  0  0  0  0  0  0  0  0  0  0  0
  -20.3735  -11.9240   21.5733 C   0  0  0  0  0  0  0  0  0  0  0  0
  -27.8355  -24.2981   19.2747 C   0  0  0  0  0  0  0  0  0  0  0  0
  -28.9762  -22.2924   20.3269 C   0  0  0  0  0  0  0  0  0  0  0  0
  -28.9562  -24.4552   21.5288 C   0  0  0  0  0  0  0  0  0  0  0  0
  -21.8408  -11.8850   21.1296 C   0  0  1  0  0  0  0  0  0  0  0  0
  -23.5276  -15.0925   22.2697 C   0  0  1  0  0  0  0  0  0  0  0  0
  -28.6140  -25.2125   20.2365 C   0  0  2  0  0  0  0  0  0  0  0  0
  -32.2186  -21.1478   17.2991 C   0  0  0  0  0  0  0  0  0  0  0  0
  -28.9007  -16.7378   22.1611 C   0  0  0  0  0  0  0  0  0  0  0  0
  -33.5899  -21.6335   23.0145 C   0  0  0  0  0  0  0  0  0  0  0  0
  -23.4652  -22.8104   22.9284 C   0  0  0  0  0  0  0  0  0  0  0  0
  -20.3802  -17.6820   20.0906 C   0  0  0  0  0  0  0  0  0  0  0  0
  -20.7163  -20.1573   20.2589 C   0  0  0  0  0  0  0  0  0  0  0  0
  -19.8827  -18.8766   22.2306 C   0  0  0  0  0  0  0  0  0  0  0  0
  -26.3627  -20.4840   23.7463 C   0  0  0  0  0  0  0  0  0  0  0  0
  -31.5217  -19.7927   17.2025 C   0  0  0  0  0  0  0  0  0  0  0  0
  -29.9741  -17.8186   22.2659 C   0  0  0  0  0  0  0  0  0  0  0  0
  -30.6721  -16.9973   17.5423 C   0  0  0  0  0  0  0  0  0  0  0  0
  -30.8254  -20.6022   21.9135 C   0  0  0  0  0  0  0  0  0  0  0  0
  -29.4732  -17.2038   16.6141 C   0  0  0  0  0  0  0  0  0  0  0  0
  -33.0312  -21.6631   21.6062 C   0  0  0  0  0  0  0  0  0  0  0  0
  -28.1324  -16.9554   17.2954 C   0  0  0  0  0  0  0  0  0  1  0  0
  -22.2998  -18.6372   21.5289 C   0  0  1  0  0  0  0  0  0  0  0  0
  -24.1262  -21.4788   23.2491 C   0  0  2  0  0  0  0  0  0  0  0  0
  -20.8416  -18.8211   21.0215 C   0  0  0  0  0  0  0  0  0  0  0  0
  -26.5237  -26.4881   20.5282 N   0  0  0  0  0  0  0  0  0  0  0  0
  -30.3423  -17.4741   19.9030 N   0  0  0  0  0  0  0  0  0  0  0  0
  -31.1551  -20.1369   19.5658 N   0  0  0  0  0  0  0  0  0  0  0  0
  -27.8675  -26.5036   20.5158 N   0  0  0  0  0  0  0  0  0  0  0  0
  -23.4382  -16.4487   21.7248 N   0  0  0  0  0  0  0  0  0  0  0  0
  -29.6747  -23.2130   21.2343 N   0  0  0  0  0  0  0  0  0  0  0  0
  -29.7427  -27.9240   20.7925 N   0  0  0  0  0  0  0  0  0  0  0  0
  -26.2336  -30.6981   21.4143 N   0  0  0  0  0  0  0  0  0  0  0  0
  -22.6054  -12.9000   21.8222 N   0  0  0  0  0  0  0  0  0  0  0  0
  -22.7543  -19.6872   22.4341 N   0  0  0  0  0  0  0  0  0  0  0  0
  -31.5829  -21.8133   21.6046 N   0  0  0  0  0  0  0  0  0  0  0  0
  -25.5905  -21.7068   23.4061 N   0  3  0  0  0  0  0  0  0  0  0  0
  -28.5226  -30.5777   21.3457 O   0  0  0  0  0  0  0  0  0  0  0  0
  -22.1288  -14.6898   20.4107 O   0  0  0  0  0  0  0  0  0  0  0  0
  -21.8350  -17.1098   23.2832 O   0  0  0  0  0  0  0  0  0  0  0  0
  -24.5740  -20.3515   21.1596 O   0  0  0  0  0  0  0  0  0  0  0  0
  -31.7079  -24.0998   21.8576 O   0  0  0  0  0  0  0  0  0  0  0  0
  -20.8467  -29.2968   21.1851 O   0  0  0  0  0  0  0  0  0  0  0  0
  -28.1062  -15.6133   17.7795 O   0  0  0  0  0  0  0  0  0  1  0  0
  -17.4495  -26.0472   24.0666 F   0  0  0  0  0  0  0  0  0  0  0  0
  -19.5001  -30.2608   23.3987 F   0  0  0  0  0  0  0  0  0  0  0  0
  1  2  1  0  0  0  0
  1  5  2  0  0  0  0
  2  6  2  0  0  0  0
  3  8  2  0  0  0  0
  3 15  1  0  0  0  0
  4  9  1  0  0  0  0
  4 15  2  0  0  0  0
  5 17  1  0  0  0  0
  6 19  1  0  0  0  0
  7 10  2  0  0  0  0
  7 18  1  0  0  0  0
  8 21  1  0  0  0  0
  9 21  2  0  0  0  0
 10 22  1  0  0  0  0
 11 12  2  0  0  0  0
 11 23  1  0  0  0  0
 12 24  1  0  0  0  0
 13 20  1  0  0  0  0
 13 22  2  0  0  0  0
 14 24  2  0  0  0  0
 14 25  1  0  0  0  0
 15 26  1  0  0  0  0
 16 26  1  0  0  0  0
 16 31  2  0  0  0  0
 16 32  1  0  0  0  0
 17 19  2  0  0  0  0
 17 37  1  0  0  0  0
 18 20  2  0  0  0  0
 18 38  1  0  0  0  0
 19 46  1  0  0  0  0
 20 39  1  0  0  0  0
 21 84  1  0  0  0  0
 22 85  1  0  0  0  0
 23 25  2  0  0  0  0
 23 84  1  0  0  0  0
 24 86  1  0  0  0  0
 25 87  1  0  0  0  0
 26 67  2  0  0  0  0
 27 28  2  0  0  0  0
 27 57  1  0  0  0  0
 27 69  1  0  0  0  0
 28 59  1  0  0  0  0
 28 68  1  0  0  0  0
 29 30  1  0  0  0  0
 29 58  1  0  0  0  0
 29 68  2  0  0  0  0
 30 60  1  0  0  0  0
 30 69  2  0  0  0  0
 31 70  1  0  0  0  0
 31 73  1  0  0  0  0
 32 74  1  0  0  0  0
 32 79  2  0  0  0  0
 33 47  1  0  0  0  0
 33 75  1  0  0  0  0
 33 80  2  0  0  0  0
 34 64  1  0  0  0  0
 34 71  1  0  0  0  0
 34 81  2  0  0  0  0
 35 65  1  0  0  0  0
 35 76  1  0  0  0  0
 35 82  2  0  0  0  0
 36 72  1  0  0  0  0
 36 77  1  0  0  0  0
 36 83  2  0  0  0  0
 37 40  1  0  0  0  0
 38 47  1  0  0  0  0
 39 71  1  0  0  0  0
 40 42  1  0  0  0  0
 41 43  1  0  0  0  0
 41 44  1  0  0  0  0
 42 46  1  0  0  0  0
 43 48  1  0  0  0  0
 44 72  1  0  0  0  0
 45 48  1  0  0  0  0
 45 72  1  0  0  0  0
 46 75  1  0  0  0  0
 47 71  1  0  0  0  0
 48 70  1  0  0  0  0
 49 57  1  0  0  0  0
 50 58  1  0  0  0  0
 51 62  1  0  0  0  0
 52 65  1  0  0  0  0
 53 66  1  0  0  0  0
 54 66  1  0  0  0  0
 55 66  1  0  0  0  0
 56 78  1  0  0  0  0
 59 61  1  0  0  0  0
 60 77  1  0  0  0  0
 61 63  1  0  0  0  0
 62 77  1  0  0  0  0
 63 85  1  0  0  0  0
 64 66  1  0  0  0  0
 64 76  1  0  0  0  0
 65 78  1  0  0  0  0
 67 70  1  0  0  0  0
M  CHG  1  78   1
M  ISO  4  36 100  63 101  77 100  85 101
M  END
> <Batch ID>
0049

> <Smiles>
CCc1nc(C[100N:0](CC)[100C:0](=O)N2CCCC(n3nc(-c4ccc(Oc5ccc(F)cc5F)cc4)c(C(N)=O)c3N)C2)c(CC)nc1CC[101CH2:1][101O:1]c1ccc2c(c1)CN(C(=O)C(NC(=O)C(C)NC)C(C)(C)C)C(C(=O)NC1CCCc3ccccc31)C2

> <Shape>
0.247

> <Color>
0.087

> <Negative vol penalty>
0.000

$$$$

  -OEChem-04052317293D

 81 89  0     1  0  0  0  0  0999 V2000
  -19.3758  -33.8963   21.3427 C   0  0  0  0  0  0  0  0  0  0  0  0
  -20.6637  -33.5207   20.9741 C   0  0  0  0  0  0  0  0  0  0  0  0
  -25.9205  -14.8582   22.4147 C   0  0  0  0  0  0  0  0  0  0  0  0
  -25.6068  -14.1985   20.1118 C   0  0  0  0  0  0  0  0  0  0  0  0
  -18.7171  -33.2132   22.3641 C   0  0  0  0  0  0  0  0  0  0  0  0
  -21.2940  -32.4624   21.6276 C   0  0  0  0  0  0  0  0  0  0  0  0
  -25.1685  -28.4038   19.1736 C   0  0  0  0  0  0  0  0  0  0  0  0
  -24.9415  -13.9464   22.8093 C   0  0  0  0  0  0  0  0  0  0  0  0
  -24.6278  -13.2866   20.5063 C   0  0  0  0  0  0  0  0  0  0  0  0
  -26.5602  -28.3223   19.1650 C   0  0  0  0  0  0  0  0  0  0  0  0
  -22.3009  -10.5279   20.9457 C   0  0  0  0  0  0  0  0  0  0  0  0
  -22.3426   -9.2494   20.3896 C   0  0  0  0  0  0  0  0  0  0  0  0
  -26.4782  -26.8271   21.0563 C   0  0  0  0  0  0  0  0  0  0  0  0
  -24.5485   -8.9176   21.3175 C   0  0  0  0  0  0  0  0  0  0  0  0
  -28.1786  -24.7127   17.6344 C   0  0  0  0  0  0  0  0  0  0  0  0
  -29.1526  -22.7845   17.1984 C   0  0  0  0  0  0  0  0  0  0  0  0
  -26.2532  -14.9843   21.0659 C   0  0  0  0  0  0  0  0  0  0  0  0
  -28.6466  -15.6907   20.5366 C   0  0  0  0  0  0  0  0  0  0  0  0
  -19.3360  -32.1398   23.0239 C   0  0  0  0  0  0  0  0  0  0  0  0
  -24.4204  -27.7051   20.1320 C   0  0  0  0  0  0  0  0  0  0  0  0
  -20.6434  -31.7652   22.6598 C   0  0  0  0  0  0  0  0  0  0  0  0
  -25.0769  -26.8994   21.0733 C   0  0  0  0  0  0  0  0  0  0  0  0
  -24.2952  -13.1606   21.8551 C   0  0  0  0  0  0  0  0  0  0  0  0
  -27.2155  -27.5361   20.1083 C   0  0  0  0  0  0  0  0  0  0  0  0
  -23.3831  -11.0013   21.6877 C   0  0  0  0  0  0  0  0  0  0  0  0
  -23.4663   -8.4442   20.5755 C   0  0  0  0  0  0  0  0  0  0  0  0
  -24.5069  -10.1961   21.8736 C   0  0  0  0  0  0  0  0  0  0  0  0
  -27.2640  -15.9264   20.6576 C   0  0  0  0  0  0  0  0  0  0  0  0
  -29.5340  -24.7721   17.8577 C   0  0  0  0  0  0  0  0  0  0  0  0
  -29.1648  -16.8928   20.1208 C   0  0  0  0  0  0  0  0  0  0  0  0
  -29.3955  -14.4922   20.7784 C   0  0  0  0  0  0  0  0  0  0  0  0
  -22.4299  -28.5366   22.4666 C   0  0  0  0  0  0  0  0  0  0  0  0
  -21.9964  -25.3311   22.7100 C   0  0  0  0  0  0  0  0  0  0  0  0
  -26.6676  -21.3905   17.1527 C   0  0  0  0  0  0  0  0  0  0  0  0
  -23.2230  -22.1924   22.1708 C   0  0  0  0  0  0  0  0  0  0  0  0
  -18.6023  -31.4621   24.1540 C   0  0  0  0  0  0  0  0  0  0  0  0
  -22.9184  -27.7824   20.1111 C   0  0  0  0  0  0  0  0  0  0  0  0
  -24.3189  -26.1134   22.1106 C   0  0  0  0  0  0  0  0  0  0  0  0
  -19.1965  -30.1107   24.5424 C   0  0  0  0  0  0  0  0  0  0  0  0
  -28.3796  -21.5994   20.3546 C   0  0  0  0  0  0  0  0  0  0  0  0
  -20.7137  -30.2102   24.6656 C   0  0  0  0  0  0  0  0  0  0  0  0
  -28.3849  -20.1360   20.7944 C   0  0  0  0  0  0  0  0  0  0  0  0
  -27.1045  -21.9520   19.5931 C   0  0  0  0  0  0  0  0  0  0  0  0
  -26.8457  -19.6041   18.8552 C   0  0  0  0  0  0  0  0  0  0  0  0
  -21.3509  -30.6064   23.3282 C   0  0  1  0  0  0  0  0  0  0  0  0
  -22.2835  -27.4359   21.4543 C   0  0  1  0  0  0  0  0  0  0  0  0
  -28.1288  -19.1999   19.6004 C   0  0  2  0  0  0  0  0  0  0  0  0
  -23.2444  -19.6847   22.0793 C   0  0  0  0  0  0  0  0  0  0  0  0
  -26.4203  -23.0645   15.3474 C   0  0  0  0  0  0  0  0  0  0  0  0
  -25.4711  -23.4532   17.6218 C   0  0  0  0  0  0  0  0  0  0  0  0
  -22.6749  -25.5904   25.6735 C   0  0  0  0  0  0  0  0  0  0  0  0
  -23.0259  -23.1124   25.7385 C   0  0  0  0  0  0  0  0  0  0  0  0
  -20.7804  -24.0377   25.1690 C   0  0  0  0  0  0  0  0  0  0  0  0
  -22.1134  -22.1674   19.4273 C   0  0  0  0  0  0  0  0  0  0  0  0
  -30.3504  -25.9463   18.3355 C   0  0  0  0  0  0  0  0  0  0  0  0
  -30.4843  -26.0246   19.8579 C   0  0  0  0  0  0  0  0  0  0  0  0
  -29.1541  -26.2385   20.5707 C   0  0  0  0  0  0  0  0  0  1  0  0
  -22.6587  -24.2186   23.4863 C   0  0  1  0  0  0  0  0  0  0  0  0
  -22.5912  -20.9554   21.5584 C   0  0  2  0  0  0  0  0  0  0  0  0
  -26.6715  -22.8684   16.8532 C   0  0  0  0  0  0  0  0  0  0  0  0
  -22.2996  -24.2560   24.9986 C   0  0  0  0  0  0  0  0  0  0  0  0
  -30.1345  -23.5687   17.5842 N   0  0  0  0  0  0  0  0  0  0  0  0
  -26.9253  -17.1798   20.3442 N   0  0  0  0  0  0  0  0  0  0  0  0
  -27.9493  -23.4336   17.2120 N   0  0  0  0  0  0  0  0  0  0  0  0
  -28.1025  -17.7425   20.0222 N   0  0  0  0  0  0  0  0  0  0  0  0
  -22.8521  -26.2266   22.0531 N   0  0  0  0  0  0  0  0  0  0  0  0
  -26.8818  -21.0207   18.4807 N   0  0  0  0  0  0  0  0  0  0  0  0
  -30.4209  -17.2953   19.8337 N   0  0  0  0  0  0  0  0  0  0  0  0
  -28.7062  -13.3474   21.2010 N   0  0  0  0  0  0  0  0  0  0  0  0
  -21.4083  -29.4665   22.4384 N   0  0  0  0  0  0  0  0  0  0  0  0
  -22.2899  -22.9768   22.8152 N   0  0  0  0  0  0  0  0  0  0  0  0
  -22.7321  -20.9822   20.0750 N   0  3  0  0  0  0  0  0  0  0  0  0
  -30.6413  -14.4426   20.6401 O   0  0  0  0  0  0  0  0  0  0  0  0
  -23.3974  -28.5409   23.2187 O   0  0  0  0  0  0  0  0  0  0  0  0
  -20.7650  -25.3987   22.6814 O   0  0  0  0  0  0  0  0  0  0  0  0
  -26.4823  -20.5902   16.2321 O   0  0  0  0  0  0  0  0  0  0  0  0
  -24.4249  -22.4363   22.0893 O   0  0  0  0  0  0  0  0  0  0  0  0
  -23.3400  -12.2705   22.2398 O   0  0  0  0  0  0  0  0  0  0  0  0
  -28.5739  -27.4553   20.1026 O   0  0  0  0  0  0  0  0  0  1  0  0
  -23.5055   -7.2159   20.0427 F   0  0  0  0  0  0  0  0  0  0  0  0
  -25.5491  -10.6450   22.5864 F   0  0  0  0  0  0  0  0  0  0  0  0
  1  2  1  0  0  0  0
  1  5  2  0  0  0  0
  2  6  2  0  0  0  0
  3  8  2  0  0  0  0
  3 17  1  0  0  0  0
  4  9  1  0  0  0  0
  4 17  2  0  0  0  0
  5 19  1  0  0  0  0
  6 21  1  0  0  0  0
  7 10  2  0  0  0  0
  7 20  1  0  0  0  0
  8 23  1  0  0  0  0
  9 23  2  0  0  0  0
 10 24  1  0  0  0  0
 11 12  2  0  0  0  0
 11 25  1  0  0  0  0
 12 26  1  0  0  0  0
 13 22  1  0  0  0  0
 13 24  2  0  0  0  0
 14 26  2  0  0  0  0
 14 27  1  0  0  0  0
 15 29  2  0  0  0  0
 15 64  1  0  0  0  0
 16 62  2  0  0  0  0
 16 64  1  0  0  0  0
 17 28  1  0  0  0  0
 18 28  1  0  0  0  0
 18 30  2  0  0  0  0
 18 31  1  0  0  0  0
 19 21  2  0  0  0  0
 19 36  1  0  0  0  0
 20 22  2  0  0  0  0
 20 37  1  0  0  0  0
 21 45  1  0  0  0  0
 22 38  1  0  0  0  0
 23 78  1  0  0  0  0
 24 79  1  0  0  0  0
 25 27  2  0  0  0  0
 25 78  1  0  0  0  0
 26 80  1  0  0  0  0
 27 81  1  0  0  0  0
 28 63  2  0  0  0  0
 29 55  1  0  0  0  0
 29 62  1  0  0  0  0
 30 65  1  0  0  0  0
 30 68  1  0  0  0  0
 31 69  1  0  0  0  0
 31 73  2  0  0  0  0
 32 46  1  0  0  0  0
 32 70  1  0  0  0  0
 32 74  2  0  0  0  0
 33 58  1  0  0  0  0
 33 66  1  0  0  0  0
 33 75  2  0  0  0  0
 34 60  1  0  0  0  0
 34 67  1  0  0  0  0
 34 76  2  0  0  0  0
 35 59  1  0  0  0  0
 35 71  1  0  0  0  0
 35 77  2  0  0  0  0
 36 39  1  0  0  0  0
 37 46  1  0  0  0  0
 38 66  1  0  0  0  0
 39 41  1  0  0  0  0
 40 42  1  0  0  0  0
 40 43  1  0  0  0  0
 41 45  1  0  0  0  0
 42 47  1  0  0  0  0
 43 67  1  0  0  0  0
 44 47  1  0  0  0  0
 44 67  1  0  0  0  0
 45 70  1  0  0  0  0
 46 66  1  0  0  0  0
 47 65  1  0  0  0  0
 48 59  1  0  0  0  0
 49 60  1  0  0  0  0
 50 60  1  0  0  0  0
 51 61  1  0  0  0  0
 52 61  1  0  0  0  0
 53 61  1  0  0  0  0
 54 72  1  0  0  0  0
 55 56  1  0  0  0  0
 56 57  1  0  0  0  0
 57 79  1  0  0  0  0
 58 61  1  0  0  0  0
 58 71  1  0  0  0  0
 59 72  1  0  0  0  0
 60 64  1  0  0  0  0
 63 65  1  0  0  0  0
M  CHG  1  72   1
M  ISO  4  34 100  57 101  60 100  79 101
M  END
> <Batch ID>
0049

> <Smiles>
CNC(C)C(=O)NC(C(=O)N1Cc2cc([101O:1][101CH2:1]CCc3cn([100C:0](C)(C)[100C:0](=O)N4CCCC(n5nc(-c6ccc(Oc7ccc(F)cc7F)cc6)c(C(N)=O)c5N)C4)cn3)ccc2CC1C(=O)NC1CCCc2ccccc21)C(C)(C)C

> <Shape>
0.237

> <Color>
0.098

> <Negative vol penalty>
0.000

$$$$

  -OEChem-04052317293D

 82 90  0     1  0  0  0  0  0999 V2000
  -28.8829  -24.5450   17.0356 C   0  0  0  0  0  0  0  0  0  0  0  0
  -27.7019  -25.2282   17.3030 C   0  0  0  0  0  0  0  0  0  0  0  0
  -28.8763  -18.0953   21.6876 C   0  0  0  0  0  0  0  0  0  0  0  0
  -27.6275  -17.5069   19.7049 C   0  0  0  0  0  0  0  0  0  0  0  0
  -29.9497  -24.6292   17.9279 C   0  0  0  0  0  0  0  0  0  0  0  0
  -27.5915  -26.0053   18.4566 C   0  0  0  0  0  0  0  0  0  0  0  0
  -23.5295  -28.7404   18.9284 C   0  0  0  0  0  0  0  0  0  0  0  0
  -29.7487  -17.0324   21.4536 C   0  0  0  0  0  0  0  0  0  0  0  0
  -28.4999  -16.4440   19.4708 C   0  0  0  0  0  0  0  0  0  0  0  0
  -22.2783  -28.1904   19.2037 C   0  0  0  0  0  0  0  0  0  0  0  0
  -28.9791  -13.3095   20.6440 C   0  0  0  0  0  0  0  0  0  0  0  0
  -28.4224  -12.0785   20.2972 C   0  0  0  0  0  0  0  0  0  0  0  0
  -22.4697  -28.9174   21.4958 C   0  0  0  0  0  0  0  0  0  0  0  0
  -29.6263  -12.1241   18.2030 C   0  0  0  0  0  0  0  0  0  0  0  0
  -20.3995  -23.8561   21.6375 C   0  0  0  0  0  0  0  0  0  0  0  0
  -19.9128  -23.7696   19.4899 C   0  0  0  0  0  0  0  0  0  0  0  0
  -27.8156  -18.3325   20.8133 C   0  0  0  0  0  0  0  0  0  0  0  0
  -27.0374  -20.7511   20.5847 C   0  0  0  0  0  0  0  0  0  0  0  0
  -29.8470  -25.3980   19.0990 C   0  0  0  0  0  0  0  0  0  0  0  0
  -24.2662  -29.3745   19.9391 C   0  0  0  0  0  0  0  0  0  0  0  0
  -28.6654  -26.1222   19.3575 C   0  0  0  0  0  0  0  0  0  0  0  0
  -23.7289  -29.4769   21.2302 C   0  0  0  0  0  0  0  0  0  0  0  0
  -29.5605  -16.2068   20.3452 C   0  0  0  0  0  0  0  0  0  0  0  0
  -21.7495  -28.2763   20.4882 C   0  0  0  0  0  0  0  0  0  0  0  0
  -29.8593  -13.9479   19.7702 C   0  0  0  0  0  0  0  0  0  0  0  0
  -28.7460  -11.4858   19.0767 C   0  0  0  0  0  0  0  0  0  0  0  0
  -30.1829  -13.3552   18.5498 C   0  0  0  0  0  0  0  0  0  0  0  0
  -26.9138  -19.4300   21.0548 C   0  0  0  0  0  0  0  0  0  0  0  0
  -19.6986  -24.9685   21.2355 C   0  0  0  0  0  0  0  0  0  0  0  0
  -25.9347  -21.3986   21.0861 C   0  0  0  0  0  0  0  0  0  0  0  0
  -28.0577  -21.3404   19.7677 C   0  0  0  0  0  0  0  0  0  0  0  0
  -27.0813  -28.8594   21.3224 C   0  0  0  0  0  0  0  0  0  0  0  0
  -26.4387  -31.6807   22.7885 C   0  0  0  0  0  0  0  0  0  0  0  0
  -20.3361  -20.3401   22.2186 C   0  0  0  0  0  0  0  0  0  0  0  0
  -24.1010  -33.9403   23.8258 C   0  0  0  0  0  0  0  0  0  0  0  0
  -31.0352  -25.4604   20.0262 C   0  0  0  0  0  0  0  0  0  0  0  0
  -25.6027  -29.9862   19.6195 C   0  0  0  0  0  0  0  0  0  0  0  0
  -24.4709  -30.1652   22.3456 C   0  0  0  0  0  0  0  0  0  0  0  0
  -30.6715  -25.9417   21.4270 C   0  0  0  0  0  0  0  0  0  0  0  0
  -22.7989  -20.5857   24.8098 C   0  0  0  0  0  0  0  0  0  0  0  0
  -29.8405  -27.2131   21.3403 C   0  0  0  0  0  0  0  0  0  0  0  0
  -24.1219  -20.4093   24.0656 C   0  0  0  0  0  0  0  0  0  0  0  0
  -21.6939  -19.7331   24.1941 C   0  0  0  0  0  0  0  0  0  0  0  0
  -22.8095  -19.7927   21.9865 C   0  0  0  0  0  0  0  0  0  0  0  0
  -28.5116  -26.9490   20.6212 C   0  0  1  0  0  0  0  0  0  0  0  0
  -26.4907  -30.1570   20.8481 C   0  0  1  0  0  0  0  0  0  0  0  0
  -23.9454  -20.6600   22.5574 C   0  0  2  0  0  0  0  0  0  0  0  0
  -23.8766  -36.1308   25.0294 C   0  0  0  0  0  0  0  0  0  0  0  0
  -21.9444  -21.7018   19.0646 C   0  0  0  0  0  0  0  0  0  0  0  0
  -20.7207  -19.2878   20.0332 C   0  0  0  0  0  0  0  0  0  0  0  0
  -18.8110  -20.8623   20.4109 C   0  0  0  0  0  0  0  0  0  0  0  0
  -26.9278  -30.2669   25.4478 C   0  0  0  0  0  0  0  0  0  0  0  0
  -25.7881  -32.1787   26.5942 C   0  0  0  0  0  0  0  0  0  0  0  0
  -27.8844  -32.5729   25.3009 C   0  0  0  0  0  0  0  0  0  0  0  0
  -22.8826  -35.2450   21.4652 C   0  0  0  0  0  0  0  0  0  0  0  0
  -19.2652  -26.1508   22.0678 C   0  0  0  0  0  0  0  0  0  0  0  0
  -20.3102  -27.2611   22.0863 C   0  0  0  0  0  0  0  0  0  1  0  0
  -25.7353  -32.0888   24.0604 C   0  0  1  0  0  0  0  0  0  0  0  0
  -24.0232  -35.4491   23.6779 C   0  0  2  0  0  0  0  0  0  0  0  0
  -21.1981  -21.8233   20.4074 C   0  0  2  0  0  0  0  0  0  0  0  0
  -20.2910  -20.5860   20.7315 C   0  0  0  0  0  0  0  0  0  0  0  0
  -26.5705  -31.7621   25.3305 C   0  0  0  0  0  0  0  0  0  0  0  0
  -19.3984  -24.9085   19.8976 N   0  0  0  0  0  0  0  0  0  0  0  0
  -25.8190  -19.2474   21.7979 N   0  0  0  0  0  0  0  0  0  0  0  0
  -20.5287  -23.0971   20.5086 N   0  0  0  0  0  0  0  0  0  0  0  0
  -25.2447  -20.4624   21.7986 N   0  0  0  0  0  0  0  0  0  0  0  0
  -25.7765  -30.7419   21.9848 N   0  0  0  0  0  0  0  0  0  0  0  0
  -21.5729  -19.9840   22.7568 N   0  0  0  0  0  0  0  0  0  0  0  0
  -25.4977  -22.6717   20.9826 N   0  0  0  0  0  0  0  0  0  0  0  0
  -29.1199  -20.5327   19.3392 N   0  0  0  0  0  0  0  0  0  0  0  0
  -27.8495  -28.2110   20.3743 N   0  0  0  0  0  0  0  0  0  0  0  0
  -25.4056  -33.5018   23.9092 N   0  0  0  0  0  0  0  0  0  0  0  0
  -22.8562  -35.8272   22.8317 N   0  3  0  0  0  0  0  0  0  0  0  0
  -28.0368  -22.5514   19.4414 O   0  0  0  0  0  0  0  0  0  0  0  0
  -26.8578  -28.4756   22.4645 O   0  0  0  0  0  0  0  0  0  0  0  0
  -27.5320  -32.1820   22.5145 O   0  0  0  0  0  0  0  0  0  0  0  0
  -19.3026  -20.4641   22.8809 O   0  0  0  0  0  0  0  0  0  0  0  0
  -23.1039  -33.2228   23.8672 O   0  0  0  0  0  0  0  0  0  0  0  0
  -30.4118  -15.1697   20.1163 O   0  0  0  0  0  0  0  0  0  0  0  0
  -20.5287  -27.7398   20.7598 O   0  0  0  0  0  0  0  0  0  1  0  0
  -28.2126  -10.3029   18.7445 F   0  0  0  0  0  0  0  0  0  0  0  0
  -31.0289  -13.9631   17.7068 F   0  0  0  0  0  0  0  0  0  0  0  0
  1  2  1  0  0  0  0
  1  5  2  0  0  0  0
  2  6  2  0  0  0  0
  3  8  2  0  0  0  0
  3 17  1  0  0  0  0
  4  9  1  0  0  0  0
  4 17  2  0  0  0  0
  5 19  1  0  0  0  0
  6 21  1  0  0  0  0
  7 10  2  0  0  0  0
  7 20  1  0  0  0  0
  8 23  1  0  0  0  0
  9 23  2  0  0  0  0
 10 24  1  0  0  0  0
 11 12  2  0  0  0  0
 11 25  1  0  0  0  0
 12 26  1  0  0  0  0
 13 22  1  0  0  0  0
 13 24  2  0  0  0  0
 14 26  2  0  0  0  0
 14 27  1  0  0  0  0
 15 29  2  0  0  0  0
 15 65  1  0  0  0  0
 16 63  2  0  0  0  0
 16 65  1  0  0  0  0
 17 28  1  0  0  0  0
 18 28  1  0  0  0  0
 18 30  2  0  0  0  0
 18 31  1  0  0  0  0
 19 21  2  0  0  0  0
 19 36  1  0  0  0  0
 20 22  2  0  0  0  0
 20 37  1  0  0  0  0
 21 45  1  0  0  0  0
 22 38  1  0  0  0  0
 23 79  1  0  0  0  0
 24 80  1  0  0  0  0
 25 27  2  0  0  0  0
 25 79  1  0  0  0  0
 26 81  1  0  0  0  0
 27 82  1  0  0  0  0
 28 64  2  0  0  0  0
 29 56  1  0  0  0  0
 29 63  1  0  0  0  0
 30 66  1  0  0  0  0
 30 69  1  0  0  0  0
 31 70  1  0  0  0  0
 31 74  2  0  0  0  0
 32 46  1  0  0  0  0
 32 71  1  0  0  0  0
 32 75  2  0  0  0  0
 33 58  1  0  0  0  0
 33 67  1  0  0  0  0
 33 76  2  0  0  0  0
 34 61  1  0  0  0  0
 34 68  1  0  0  0  0
 34 77  2  0  0  0  0
 35 59  1  0  0  0  0
 35 72  1  0  0  0  0
 35 78  2  0  0  0  0
 36 39  1  0  0  0  0
 37 46  1  0  0  0  0
 38 67  1  0  0  0  0
 39 41  1  0  0  0  0
 40 42  1  0  0  0  0
 40 43  1  0  0  0  0
 41 45  1  0  0  0  0
 42 47  1  0  0  0  0
 43 68  1  0  0  0  0
 44 47  1  0  0  0  0
 44 68  1  0  0  0  0
 45 71  1  0  0  0  0
 46 67  1  0  0  0  0
 47 66  1  0  0  0  0
 48 59  1  0  0  0  0
 49 60  1  0  0  0  0
 50 61  1  0  0  0  0
 51 61  1  0  0  0  0
 52 62  1  0  0  0  0
 53 62  1  0  0  0  0
 54 62  1  0  0  0  0
 55 73  1  0  0  0  0
 56 57  1  0  0  0  0
 57 80  1  0  0  0  0
 58 62  1  0  0  0  0
 58 72  1  0  0  0  0
 59 73  1  0  0  0  0
 60 61  1  0  0  0  0
 60 65  1  0  0  0  0
 64 66  1  0  0  0  0
M  CHG  1  73   1
M  ISO  4  34 100  57 101  61 100  80 101
M  END
> <Batch ID>
0049

> <Smiles>
CNC(C)C(=O)NC(C(=O)N1Cc2cc([101O:1][101CH2:1]Cc3cn(C(C)[100C:0](C)(C)[100C:0](=O)N4CCCC(n5nc(-c6ccc(Oc7ccc(F)cc7F)cc6)c(C(N)=O)c5N)C4)cn3)ccc2CC1C(=O)NC1CCCc2ccccc21)C(C)(C)C

> <Shape>
0.295

> <Color>
0.077

> <Negative vol penalty>
0.000

$$$$

  -OEChem-04052317293D

 86 94  0     1  0  0  0  0  0999 V2000
  -41.6862  -24.9723   27.8457 C   0  0  0  0  0  0  0  0  0  0  0  0
  -40.7778  -24.8209   26.8029 C   0  0  0  0  0  0  0  0  0  0  0  0
  -23.2746   -9.7929   19.9247 C   0  0  0  0  0  0  0  0  0  0  0  0
  -23.7345   -9.9430   22.2918 C   0  0  0  0  0  0  0  0  0  0  0  0
  -41.9234  -23.9136   28.7213 C   0  0  0  0  0  0  0  0  0  0  0  0
  -40.1068  -23.6101   26.6346 C   0  0  0  0  0  0  0  0  0  0  0  0
  -34.3740  -22.8261   24.6282 C   0  0  0  0  0  0  0  0  0  0  0  0
  -28.2451  -19.9265   22.1514 C   0  0  0  0  0  0  0  0  0  0  0  0
  -22.5448   -8.6240   20.1405 C   0  0  0  0  0  0  0  0  0  0  0  0
  -23.0047   -8.7740   22.5076 C   0  0  0  0  0  0  0  0  0  0  0  0
  -33.8550  -22.4965   23.3769 C   0  0  0  0  0  0  0  0  0  0  0  0
  -19.4644   -7.7796   21.2498 C   0  0  0  0  0  0  0  0  0  0  0  0
  -18.2326   -7.6564   20.6071 C   0  0  0  0  0  0  0  0  0  0  0  0
  -29.1058  -20.7845   21.4758 C   0  0  0  0  0  0  0  0  0  0  0  0
  -33.7467  -20.1793   24.0389 C   0  0  0  0  0  0  0  0  0  0  0  0
  -19.0229   -5.6755   19.4720 C   0  0  0  0  0  0  0  0  0  0  0  0
  -23.8695  -10.4524   21.0003 C   0  0  0  0  0  0  0  0  0  0  0  0
  -24.1371  -12.9805   20.7890 C   0  0  0  0  0  0  0  0  0  0  0  0
  -41.2478  -22.6925   28.5694 C   0  0  0  0  0  0  0  0  0  0  0  0
  -34.5938  -21.8315   25.5921 C   0  0  0  0  0  0  0  0  0  0  0  0
  -40.3362  -22.5336   27.5082 C   0  0  0  0  0  0  0  0  0  0  0  0
  -34.2662  -20.4993   25.3026 C   0  0  0  0  0  0  0  0  0  0  0  0
  -28.5974  -18.5928   22.3259 C   0  0  0  0  0  0  0  0  0  0  0  0
  -22.4099   -8.1145   21.4320 C   0  0  0  0  0  0  0  0  0  0  0  0
  -33.5440  -21.1725   23.0811 C   0  0  0  0  0  0  0  0  0  0  0  0
  -20.4755   -6.8508   21.0036 C   0  0  0  0  0  0  0  0  0  0  0  0
  -18.0118   -6.6044   19.7183 C   0  0  0  0  0  0  0  0  0  0  0  0
  -20.2548   -5.7987   20.1147 C   0  0  0  0  0  0  0  0  0  0  0  0
  -24.6239  -11.6597   20.7779 C   0  0  0  0  0  0  0  0  0  0  0  0
  -30.2974  -20.2637   20.9978 C   0  0  0  0  0  0  0  0  0  0  0  0
  -29.8117  -18.1701   21.8096 C   0  0  0  0  0  0  0  0  0  0  0  0
  -25.2403  -13.7553   20.5264 C   0  0  0  0  0  0  0  0  0  0  0  0
  -22.8065  -13.4639   21.0164 C   0  0  0  0  0  0  0  0  0  0  0  0
  -37.1487  -20.7071   27.1126 C   0  0  0  0  0  0  0  0  0  0  0  0
  -34.9353  -18.9977   28.7560 C   0  0  0  0  0  0  0  0  0  0  0  0
  -31.1146  -12.7760   21.3299 C   0  0  0  0  0  0  0  0  0  0  0  0
  -31.8115  -17.6259   28.8404 C   0  0  0  0  0  0  0  0  0  0  0  0
  -41.5724  -21.5611   29.5124 C   0  0  0  0  0  0  0  0  0  0  0  0
  -35.1293  -22.2072   26.9465 C   0  0  0  0  0  0  0  0  0  0  0  0
  -34.4644  -19.3971   26.3097 C   0  0  0  0  0  0  0  0  0  0  0  0
  -40.5422  -20.4349   29.4900 C   0  0  0  0  0  0  0  0  0  0  0  0
  -29.4529  -13.6460   18.2768 C   0  0  0  0  0  0  0  0  0  0  0  0
  -40.1943  -20.0581   28.0534 C   0  0  0  0  0  0  0  0  0  0  0  0
  -27.9859  -13.3284   18.5634 C   0  0  0  0  0  0  0  0  0  0  0  0
  -30.3842  -12.6568   18.9706 C   0  0  0  0  0  0  0  0  0  0  0  0
  -28.7017  -12.2333   20.7345 C   0  0  0  0  0  0  0  0  0  0  0  0
  -39.5704  -21.2439   27.3077 C   0  0  1  0  0  0  0  0  0  0  0  0
  -35.7942  -21.0407   27.6708 C   0  0  1  0  0  0  0  0  0  0  0  0
  -27.7278  -13.2273   20.0772 C   0  0  2  0  0  0  0  0  0  0  0  0
  -27.6789  -17.6686   23.0477 C   0  0  0  0  0  0  0  0  0  0  0  0
  -31.9265  -12.2731   23.6356 C   0  0  0  0  0  0  0  0  0  0  0  0
  -30.3010  -16.2546   30.3017 C   0  0  0  0  0  0  0  0  0  0  0  0
  -36.5221  -16.4917   28.0404 C   0  0  0  0  0  0  0  0  0  0  0  0
  -34.5218  -15.1276   28.6779 C   0  0  0  0  0  0  0  0  0  0  0  0
  -35.6587  -16.5451   30.3869 C   0  0  0  0  0  0  0  0  0  0  0  0
  -29.7946  -19.7871   28.9822 C   0  0  0  0  0  0  0  0  0  0  0  0
  -29.2972  -13.8637   24.4363 C   0  0  0  0  0  0  0  0  0  0  0  0
  -31.2565  -21.1670   20.2612 C   0  0  0  0  0  0  0  0  0  0  0  0
  -30.2438  -16.7493   21.9698 C   0  0  0  0  0  0  0  0  0  0  0  0
  -30.8338  -16.4167   23.3530 C   0  0  0  0  0  0  0  0  0  0  0  0
  -31.3255  -14.9823   23.5215 C   0  0  0  0  0  0  0  0  0  0  0  0
  -32.2546  -21.8396   21.1974 C   0  0  0  0  0  0  0  0  0  1  0  0
  -34.2784  -17.6499   28.5796 C   0  0  1  0  0  0  0  0  0  0  0  0
  -30.7363  -12.6773   22.7864 C   0  0  1  0  0  0  0  0  0  0  0  0
  -30.7252  -17.6587   29.9002 C   0  0  2  0  0  0  0  0  0  0  0  0
  -35.2432  -16.4738   28.9013 C   0  0  0  0  0  0  0  0  0  0  0  0
  -25.9344  -11.5952   20.5279 N   0  0  0  0  0  0  0  0  0  0  0  0
  -30.6740  -18.9740   21.1478 N   0  0  0  0  0  0  0  0  0  0  0  0
  -26.2804  -12.8853   20.3794 N   0  0  0  0  0  0  0  0  0  0  0  0
  -34.9965  -19.8139   27.6176 N   0  0  0  0  0  0  0  0  0  0  0  0
  -30.0923  -12.5729   20.4027 N   0  0  0  0  0  0  0  0  0  0  0  0
  -25.4126  -15.0891   20.4091 N   0  0  0  0  0  0  0  0  0  0  0  0
  -21.7916  -12.5318   21.2719 N   0  0  0  0  0  0  0  0  0  0  0  0
  -38.1857  -21.4117   27.6937 N   0  0  0  0  0  0  0  0  0  0  0  0
  -33.0714  -17.6737   29.3986 N   0  0  0  0  0  0  0  0  0  0  0  0
  -29.5270  -18.3843   29.3916 N   0  3  0  0  0  0  0  0  0  0  0  0
  -30.2308  -14.0191   23.2598 N   0  3  1  0  0  0  0  0  0  0  0  0
  -22.5228  -14.6852   20.9775 O   0  0  0  0  0  0  0  0  0  0  0  0
  -37.2460  -19.8713   26.2218 O   0  0  0  0  0  0  0  0  0  0  0  0
  -35.3713  -19.3174   29.8647 O   0  0  0  0  0  0  0  0  0  0  0  0
  -32.2837  -13.0290   21.0274 O   0  0  0  0  0  0  0  0  0  0  0  0
  -31.5669  -17.5602   27.6377 O   0  0  0  0  0  0  0  0  0  0  0  0
  -21.6976   -6.9740   21.6430 O   0  0  0  0  0  0  0  0  0  0  0  0
  -33.0378  -20.8480   21.8603 O   0  0  0  0  0  0  0  0  0  1  0  0
  -16.8283   -6.4853   19.1023 F   0  0  0  0  0  0  0  0  0  0  0  0
  -21.2219   -4.9027   19.8750 F   0  0  0  0  0  0  0  0  0  0  0  0
  1  2  1  0  0  0  0
  1  5  2  0  0  0  0
  2  6  2  0  0  0  0
  3  9  2  0  0  0  0
  3 17  1  0  0  0  0
  4 10  1  0  0  0  0
  4 17  2  0  0  0  0
  5 19  1  0  0  0  0
  6 21  1  0  0  0  0
  7 11  2  0  0  0  0
  7 20  1  0  0  0  0
  8 14  2  0  0  0  0
  8 23  1  0  0  0  0
  9 24  1  0  0  0  0
 10 24  2  0  0  0  0
 11 25  1  0  0  0  0
 12 13  2  0  0  0  0
 12 26  1  0  0  0  0
 13 27  1  0  0  0  0
 14 30  1  0  0  0  0
 15 22  1  0  0  0  0
 15 25  2  0  0  0  0
 16 27  2  0  0  0  0
 16 28  1  0  0  0  0
 17 29  1  0  0  0  0
 18 29  1  0  0  0  0
 18 32  2  0  0  0  0
 18 33  1  0  0  0  0
 19 21  2  0  0  0  0
 19 38  1  0  0  0  0
 20 22  2  0  0  0  0
 20 39  1  0  0  0  0
 21 47  1  0  0  0  0
 22 40  1  0  0  0  0
 23 31  2  0  0  0  0
 23 50  1  0  0  0  0
 24 83  1  0  0  0  0
 25 84  1  0  0  0  0
 26 28  2  0  0  0  0
 26 83  1  0  0  0  0
 27 85  1  0  0  0  0
 28 86  1  0  0  0  0
 29 67  2  0  0  0  0
 30 58  1  0  0  0  0
 30 68  2  0  0  0  0
 31 59  1  0  0  0  0
 31 68  1  0  0  0  0
 32 69  1  0  0  0  0
 32 72  1  0  0  0  0
 33 73  1  0  0  0  0
 33 78  2  0  0  0  0
 34 48  1  0  0  0  0
 34 74  1  0  0  0  0
 34 79  2  0  0  0  0
 35 63  1  0  0  0  0
 35 70  1  0  0  0  0
 35 80  2  0  0  0  0
 36 64  1  0  0  0  0
 36 71  1  0  0  0  0
 36 81  2  0  0  0  0
 37 65  1  0  0  0  0
 37 75  1  0  0  0  0
 37 82  2  0  0  0  0
 38 41  1  0  0  0  0
 39 48  1  0  0  0  0
 40 70  1  0  0  0  0
 41 43  1  0  0  0  0
 42 44  1  0  0  0  0
 42 45  1  0  0  0  0
 43 47  1  0  0  0  0
 44 49  1  0  0  0  0
 45 71  1  0  0  0  0
 46 49  1  0  0  0  0
 46 71  1  0  0  0  0
 47 74  1  0  0  0  0
 48 70  1  0  0  0  0
 49 69  1  0  0  0  0
 51 64  1  0  0  0  0
 52 65  1  0  0  0  0
 53 66  1  0  0  0  0
 54 66  1  0  0  0  0
 55 66  1  0  0  0  0
 56 76  1  0  0  0  0
 57 77  1  0  0  0  0
 58 62  1  0  0  0  0
 59 60  1  0  0  0  0
 60 61  1  0  0  0  0
 61 77  1  0  0  0  0
 62 84  1  0  0  0  0
 63 66  1  0  0  0  0
 63 75  1  0  0  0  0
 64 77  1  0  0  0  0
 65 76  1  0  0  0  0
 67 69  1  0  0  0  0
M  CHG  2  76   1  77   1
M  ISO  4  36 100  62 101  64 100  84 101
M  END
> <Batch ID>
0049

> <Smiles>
CNC(C)C(=O)NC(C(=O)N1Cc2cc([101O:1][101CH2:1]Cc3ccc(C)c(CCCN(C)[100CH:0](C)[100C:0](=O)N4CCCC(n5nc(-c6ccc(Oc7ccc(F)cc7F)cc6)c(C(N)=O)c5N)C4)n3)ccc2CC1C(=O)NC1CCCc2ccccc21)C(C)(C)C

> <Shape>
0.154

> <Color>
0.175

> <Negative vol penalty>
0.000

$$$$

  -OEChem-04052317293D

 84 92  0     1  0  0  0  0  0999 V2000
  -28.8702  -37.0850   19.9658 C   0  0  0  0  0  0  0  0  0  0  0  0
  -29.3261  -35.7786   20.1107 C   0  0  0  0  0  0  0  0  0  0  0  0
  -24.1157   -9.9425   22.3569 C   0  0  0  0  0  0  0  0  0  0  0  0
  -22.2851  -10.7259   20.9886 C   0  0  0  0  0  0  0  0  0  0  0  0
  -27.7210  -37.4996   20.6376 C   0  0  0  0  0  0  0  0  0  0  0  0
  -28.6335  -34.8863   20.9284 C   0  0  0  0  0  0  0  0  0  0  0  0
  -27.9357  -28.8663   20.0463 C   0  0  0  0  0  0  0  0  0  0  0  0
  -23.2604   -9.0348   22.9815 C   0  0  0  0  0  0  0  0  0  0  0  0
  -21.4297   -9.8182   21.6132 C   0  0  0  0  0  0  0  0  0  0  0  0
  -28.5996  -27.7582   20.5710 C   0  0  0  0  0  0  0  0  0  0  0  0
  -21.6406   -6.2613   24.6841 C   0  0  0  0  0  0  0  0  0  0  0  0
  -22.1001   -4.9570   24.8662 C   0  0  0  0  0  0  0  0  0  0  0  0
  -26.8788  -27.5280   22.2459 C   0  0  0  0  0  0  0  0  0  0  0  0
  -22.3555   -4.7132   22.4761 C   0  0  0  0  0  0  0  0  0  0  0  0
  -28.1792  -20.6031   22.5377 C   0  0  0  0  0  0  0  0  0  0  0  0
  -23.6280  -10.7881   21.3605 C   0  0  0  0  0  0  0  0  0  0  0  0
  -25.2828  -11.5097   19.5581 C   0  0  0  0  0  0  0  0  0  0  0  0
  -27.0085  -36.6092   21.4563 C   0  0  0  0  0  0  0  0  0  0  0  0
  -26.7421  -29.3209   20.6252 C   0  0  0  0  0  0  0  0  0  0  0  0
  -27.4744  -35.2898   21.6128 C   0  0  0  0  0  0  0  0  0  0  0  0
  -26.2004  -28.6405   21.7251 C   0  0  0  0  0  0  0  0  0  0  0  0
  -21.9174   -8.9726   22.6097 C   0  0  0  0  0  0  0  0  0  0  0  0
  -28.0727  -27.0907   21.6728 C   0  0  0  0  0  0  0  0  0  0  0  0
  -21.5383   -6.7915   23.3979 C   0  0  0  0  0  0  0  0  0  0  0  0
  -22.4576   -4.1830   23.7623 C   0  0  0  0  0  0  0  0  0  0  0  0
  -21.8958   -6.0175   22.2940 C   0  0  0  0  0  0  0  0  0  0  0  0
  -24.5109  -11.7263   20.7152 C   0  0  0  0  0  0  0  0  0  0  0  0
  -27.0025  -20.0603   22.0863 C   0  0  0  0  0  0  0  0  0  0  0  0
  -25.9408  -12.6984   19.3568 C   0  0  0  0  0  0  0  0  0  0  0  0
  -25.3949  -10.3387   18.7384 C   0  0  0  0  0  0  0  0  0  0  0  0
  -25.8172  -32.0146   22.0367 C   0  0  0  0  0  0  0  0  0  0  0  0
  -22.9118  -30.5723   22.0111 C   0  0  0  0  0  0  0  0  0  0  0  0
  -21.1185  -27.6707   21.9029 C   0  0  0  0  0  0  0  0  0  0  0  0
  -24.3592  -18.2129   21.3585 C   0  0  0  0  0  0  0  0  0  0  0  0
  -25.7983  -37.1166   22.1997 C   0  0  0  0  0  0  0  0  0  0  0  0
  -26.0242  -30.5014   20.0308 C   0  0  0  0  0  0  0  0  0  0  0  0
  -24.9113  -29.0762   22.3706 C   0  0  0  0  0  0  0  0  0  0  0  0
  -24.9112  -36.0033   22.7511 C   0  0  0  0  0  0  0  0  0  0  0  0
  -27.6586  -16.4847   21.7042 C   0  0  0  0  0  0  0  0  0  0  0  0
  -25.7569  -34.9438   23.4503 C   0  0  0  0  0  0  0  0  0  0  0  0
  -27.2549  -15.0328   21.4523 C   0  0  0  0  0  0  0  0  0  0  0  0
  -26.5072  -17.2810   22.3064 C   0  0  0  0  0  0  0  0  0  0  0  0
  -24.8452  -15.7952   21.2355 C   0  0  0  0  0  0  0  0  0  0  0  0
  -26.7365  -34.2854   22.4713 C   0  0  1  0  0  0  0  0  0  0  0  0
  -25.0850  -31.1883   21.0175 C   0  0  1  0  0  0  0  0  0  0  0  0
  -25.9715  -14.9570   20.6079 C   0  0  2  0  0  0  0  0  0  0  0  0
  -21.8374  -22.0162   22.1459 C   0  0  0  0  0  0  0  0  0  0  0  0
  -18.7618  -26.8091   21.9356 C   0  0  0  0  0  0  0  0  0  0  0  0
  -22.7647  -31.0956   25.0135 C   0  0  0  0  0  0  0  0  0  0  0  0
  -20.9074  -29.4218   25.1437 C   0  0  0  0  0  0  0  0  0  0  0  0
  -20.6257  -31.4912   23.7795 C   0  0  0  0  0  0  0  0  0  0  0  0
  -21.4094  -26.4368   19.2286 C   0  0  0  0  0  0  0  0  0  0  0  0
  -25.8295  -19.6256   22.8557 C   0  0  0  0  0  0  0  0  0  0  0  0
  -22.6377  -20.7764   22.5199 C   0  0  0  0  0  0  0  0  0  0  0  0
  -30.2908  -22.8668   20.8367 C   0  0  0  0  0  0  0  0  0  0  0  0
  -29.4740  -23.7715   21.7607 C   0  0  0  0  0  0  0  0  0  0  0  0
  -30.2766  -21.3966   21.2703 C   0  0  0  0  0  0  0  0  0  0  0  0
  -23.8989  -20.6138   21.6800 C   0  0  0  0  0  0  0  0  0  0  0  0
  -29.4823  -25.2161   21.2793 C   0  0  0  0  0  0  0  0  0  1  0  0
  -22.1621  -29.6613   22.9529 C   0  0  1  0  0  0  0  0  0  0  0  0
  -19.9244  -27.2553   21.0626 C   0  0  2  0  0  0  0  0  0  0  0  0
  -21.6403  -30.4102   24.2117 C   0  0  0  0  0  0  0  0  0  0  0  0
  -24.6635  -12.9559   21.2142 N   0  0  0  0  0  0  0  0  0  0  0  0
  -27.0358  -19.9601   20.7231 N   0  0  0  0  0  0  0  0  0  0  0  0
  -28.2083  -20.4271   20.3080 N   0  0  0  0  0  0  0  0  0  0  0  0
  -28.8924  -20.8119   21.3976 N   0  0  0  0  0  0  0  0  0  0  0  0
  -25.5390  -13.5225   20.3665 N   0  0  0  0  0  0  0  0  0  0  0  0
  -24.2500  -30.2396   21.7570 N   0  0  0  0  0  0  0  0  0  0  0  0
  -25.2868  -17.1672   21.4966 N   0  0  0  0  0  0  0  0  0  0  0  0
  -26.8183  -13.1085   18.4164 N   0  0  0  0  0  0  0  0  0  0  0  0
  -24.6493   -9.2046   19.0879 N   0  0  0  0  0  0  0  0  0  0  0  0
  -26.0494  -33.3184   21.6423 N   0  0  0  0  0  0  0  0  0  0  0  0
  -21.1159  -29.0255   22.1595 N   0  0  0  0  0  0  0  0  0  0  0  0
  -24.6449  -19.4127   22.0274 N   0  0  0  0  0  0  0  0  0  0  0  0
  -20.2934  -26.1287   20.1595 N   0  3  0  0  0  0  0  0  0  0  0  0
  -26.1470  -10.2939   17.7354 O   0  0  0  0  0  0  0  0  0  0  0  0
  -26.1459  -31.5071   23.1026 O   0  0  0  0  0  0  0  0  0  0  0  0
  -22.3295  -31.5391   21.5133 O   0  0  0  0  0  0  0  0  0  0  0  0
  -21.9666  -26.8725   22.2957 O   0  0  0  0  0  0  0  0  0  0  0  0
  -23.3398  -18.0849   20.6682 O   0  0  0  0  0  0  0  0  0  0  0  0
  -21.0826   -8.0869   23.2188 O   0  0  0  0  0  0  0  0  0  0  0  0
  -28.7189  -26.0093   22.1873 O   0  0  0  0  0  0  0  0  0  1  0  0
  -22.9004   -2.9310   23.9374 F   0  0  0  0  0  0  0  0  0  0  0  0
  -21.8009   -6.5219   21.0561 F   0  0  0  0  0  0  0  0  0  0  0  0
  1  2  1  0  0  0  0
  1  5  2  0  0  0  0
  2  6  2  0  0  0  0
  3  8  2  0  0  0  0
  3 16  1  0  0  0  0
  4  9  1  0  0  0  0
  4 16  2  0  0  0  0
  5 18  1  0  0  0  0
  6 20  1  0  0  0  0
  7 10  2  0  0  0  0
  7 19  1  0  0  0  0
  8 22  1  0  0  0  0
  9 22  2  0  0  0  0
 10 23  1  0  0  0  0
 11 12  2  0  0  0  0
 11 24  1  0  0  0  0
 12 25  1  0  0  0  0
 13 21  1  0  0  0  0
 13 23  2  0  0  0  0
 14 25  2  0  0  0  0
 14 26  1  0  0  0  0
 15 28  2  0  0  0  0
 15 66  1  0  0  0  0
 16 27  1  0  0  0  0
 17 27  1  0  0  0  0
 17 29  2  0  0  0  0
 17 30  1  0  0  0  0
 18 20  2  0  0  0  0
 18 35  1  0  0  0  0
 19 21  2  0  0  0  0
 19 36  1  0  0  0  0
 20 44  1  0  0  0  0
 21 37  1  0  0  0  0
 22 81  1  0  0  0  0
 23 82  1  0  0  0  0
 24 26  2  0  0  0  0
 24 81  1  0  0  0  0
 25 83  1  0  0  0  0
 26 84  1  0  0  0  0
 27 63  2  0  0  0  0
 28 53  1  0  0  0  0
 28 64  1  0  0  0  0
 29 67  1  0  0  0  0
 29 70  1  0  0  0  0
 30 71  1  0  0  0  0
 30 76  2  0  0  0  0
 31 45  1  0  0  0  0
 31 72  1  0  0  0  0
 31 77  2  0  0  0  0
 32 60  1  0  0  0  0
 32 68  1  0  0  0  0
 32 78  2  0  0  0  0
 33 61  1  0  0  0  0
 33 73  1  0  0  0  0
 33 79  2  0  0  0  0
 34 69  1  0  0  0  0
 34 74  1  0  0  0  0
 34 80  2  0  0  0  0
 35 38  1  0  0  0  0
 36 45  1  0  0  0  0
 37 68  1  0  0  0  0
 38 40  1  0  0  0  0
 39 41  1  0  0  0  0
 39 42  1  0  0  0  0
 40 44  1  0  0  0  0
 41 46  1  0  0  0  0
 42 69  1  0  0  0  0
 43 46  1  0  0  0  0
 43 69  1  0  0  0  0
 44 72  1  0  0  0  0
 45 68  1  0  0  0  0
 46 67  1  0  0  0  0
 47 54  1  0  0  0  0
 48 61  1  0  0  0  0
 49 62  1  0  0  0  0
 50 62  1  0  0  0  0
 51 62  1  0  0  0  0
 52 75  1  0  0  0  0
 53 74  1  0  0  0  0
 54 58  1  0  0  0  0
 55 56  1  0  0  0  0
 55 57  1  0  0  0  0
 56 59  1  0  0  0  0
 57 66  1  0  0  0  0
 58 74  1  0  0  0  0
 59 82  1  0  0  0  0
 60 62  1  0  0  0  0
 60 73  1  0  0  0  0
 61 75  1  0  0  0  0
 63 67  1  0  0  0  0
 64 65  2  0  0  0  0
 65 66  1  0  0  0  0
M  CHG  1  75   1
M  ISO  4  34 100  59 101  74 100  82 101
M  END
> <Batch ID>
0049

> <Smiles>
CCC[100N:0](Cc1cn(CCC[101CH2:1][101O:1]c2ccc3c(c2)CN(C(=O)C(NC(=O)C(C)NC)C(C)(C)C)C(C(=O)NC2CCCc4ccccc42)C3)nn1)[100C:0](=O)N1CCCC(n2nc(-c3ccc(Oc4ccc(F)cc4F)cc3)c(C(N)=O)c2N)C1

> <Shape>
0.286

> <Color>
0.066

> <Negative vol penalty>
0.000

$$$$

  -OEChem-04052317293D

 84 92  0     1  0  0  0  0  0999 V2000
  -21.8590  -26.3970   28.3321 C   0  0  0  0  0  0  0  0  0  0  0  0
  -22.4475  -25.2696   27.7683 C   0  0  0  0  0  0  0  0  0  0  0  0
  -22.8524  -10.1093   20.1205 C   0  0  0  0  0  0  0  0  0  0  0  0
  -24.3431   -9.5506   21.9379 C   0  0  0  0  0  0  0  0  0  0  0  0
  -22.6138  -27.2450   29.1414 C   0  0  0  0  0  0  0  0  0  0  0  0
  -23.7916  -24.9900   28.0126 C   0  0  0  0  0  0  0  0  0  0  0  0
  -26.3551  -19.4585   28.5922 C   0  0  0  0  0  0  0  0  0  0  0  0
  -22.1650   -8.9115   20.3160 C   0  0  0  0  0  0  0  0  0  0  0  0
  -23.6556   -8.3528   22.1334 C   0  0  0  0  0  0  0  0  0  0  0  0
  -27.0629  -18.6545   27.6997 C   0  0  0  0  0  0  0  0  0  0  0  0
  -20.7784   -7.3433   23.5905 C   0  0  0  0  0  0  0  0  0  0  0  0
  -20.4619   -6.9860   24.9011 C   0  0  0  0  0  0  0  0  0  0  0  0
  -29.1379  -19.5084   28.5854 C   0  0  0  0  0  0  0  0  0  0  0  0
  -21.7526   -4.9580   24.6599 C   0  0  0  0  0  0  0  0  0  0  0  0
  -23.9415  -10.4289   20.9314 C   0  0  0  0  0  0  0  0  0  0  0  0
  -24.1297  -12.9702   20.8137 C   0  0  0  0  0  0  0  0  0  0  0  0
  -23.9653  -26.9705   29.4036 C   0  0  0  0  0  0  0  0  0  0  0  0
  -27.0344  -20.3030   29.4820 C   0  0  0  0  0  0  0  0  0  0  0  0
  -24.5656  -25.8359   28.8251 C   0  0  0  0  0  0  0  0  0  0  0  0
  -28.4364  -20.3202   29.4899 C   0  0  0  0  0  0  0  0  0  0  0  0
  -22.5666   -8.0332   21.3225 C   0  0  0  0  0  0  0  0  0  0  0  0
  -28.4544  -18.6815   27.6943 C   0  0  0  0  0  0  0  0  0  0  0  0
  -21.5819   -6.5079   22.8145 C   0  0  0  0  0  0  0  0  0  0  0  0
  -20.9490   -5.7934   25.4358 C   0  0  0  0  0  0  0  0  0  0  0  0
  -22.0690   -5.3153   23.3492 C   0  0  0  0  0  0  0  0  0  0  0  0
  -24.6524  -11.6658   20.7295 C   0  0  0  0  0  0  0  0  0  0  0  0
  -25.1994  -13.7871   20.5404 C   0  0  0  0  0  0  0  0  0  0  0  0
  -22.7963  -13.4046   21.1124 C   0  0  0  0  0  0  0  0  0  0  0  0
  -27.1507  -23.4454   29.9457 C   0  0  0  0  0  0  0  0  0  0  0  0
  -28.9488  -22.6074   32.5122 C   0  0  0  0  0  0  0  0  0  0  0  0
  -30.9848  -20.3051   33.9959 C   0  0  0  0  0  0  0  0  0  0  0  0
  -31.0382  -13.2316   21.0672 C   0  0  0  0  0  0  0  0  0  0  0  0
  -24.7532  -27.9420   30.2464 C   0  0  0  0  0  0  0  0  0  0  0  0
  -26.2568  -21.1442   30.4567 C   0  0  0  0  0  0  0  0  0  0  0  0
  -29.2135  -21.1942   30.4390 C   0  0  0  0  0  0  0  0  0  0  0  0
  -26.0728  -27.3719   30.7600 C   0  0  0  0  0  0  0  0  0  0  0  0
  -29.3202  -13.8959   18.1289 C   0  0  0  0  0  0  0  0  0  0  0  0
  -26.8238  -26.6670   29.6348 C   0  0  0  0  0  0  0  0  0  0  0  0
  -32.1920  -15.0922   25.3417 C   0  0  0  0  0  0  0  0  0  0  0  0
  -30.5626  -15.7532   23.5293 C   0  0  0  0  0  0  0  0  0  0  0  0
  -31.6162  -16.1740   26.2538 C   0  0  0  0  0  0  0  0  0  0  0  0
  -29.9870  -16.8350   24.4414 C   0  0  0  0  0  0  0  0  0  0  0  0
  -27.8743  -13.5265   18.4571 C   0  0  0  0  0  0  0  0  0  0  0  0
  -30.2902  -12.8874   18.7329 C   0  0  0  0  0  0  0  0  0  0  0  0
  -28.7077  -12.3611   20.5604 C   0  0  0  0  0  0  0  0  0  0  0  0
  -26.0143  -25.4855   29.0868 C   0  0  1  0  0  0  0  0  0  0  0  0
  -27.0427  -22.3482   30.9666 C   0  0  1  0  0  0  0  0  0  0  0  0
  -31.1514  -14.5876   24.3340 C   0  0  0  0  0  0  0  0  0  0  0  0
  -31.0276  -17.3396   25.4490 C   0  0  0  0  0  0  0  0  0  0  0  0
  -27.6808  -13.3512   19.9735 C   0  0  2  0  0  0  0  0  0  0  0  0
  -26.0376  -12.7349   23.9715 C   0  0  0  0  0  0  0  0  0  0  0  0
  -32.3320  -19.9178   36.0773 C   0  0  0  0  0  0  0  0  0  0  0  0
  -30.2243  -19.7185   25.6774 C   0  0  0  0  0  0  0  0  0  0  0  0
  -31.0894  -24.5211   31.4798 C   0  0  0  0  0  0  0  0  0  0  0  0
  -32.7265  -23.4049   33.0103 C   0  0  0  0  0  0  0  0  0  0  0  0
  -30.7411  -24.5829   33.9555 C   0  0  0  0  0  0  0  0  0  0  0  0
  -29.3984  -17.9130   34.7170 C   0  0  0  0  0  0  0  0  0  0  0  0
  -31.7646  -13.5440   23.4022 C   0  0  0  0  0  0  0  0  0  0  0  0
  -27.3396  -11.9815   23.7477 C   0  0  0  0  0  0  0  0  0  0  0  0
  -28.4178  -12.8926   23.1568 C   0  0  0  0  0  0  0  0  0  0  0  0
  -29.7537  -12.1793   22.9771 C   0  0  0  0  0  0  0  0  0  0  0  0
  -30.4208  -22.3796   32.7578 C   0  0  1  0  0  0  0  0  0  0  0  0
  -30.9878  -19.7165   35.3951 C   0  0  2  0  0  0  0  0  0  0  0  0
  -30.4145  -18.3833   26.3808 C   0  0  1  0  0  0  0  0  0  1  0  0
  -31.2301  -23.7070   32.7815 C   0  0  0  0  0  0  0  0  0  0  0  0
  -25.9531  -11.6501   20.4263 N   0  0  0  0  0  0  0  0  0  0  0  0
  -26.2566  -12.9548   20.3174 N   0  0  0  0  0  0  0  0  0  0  0  0
  -28.4078  -22.0031   31.3686 N   0  0  0  0  0  0  0  0  0  0  0  0
  -30.0746  -12.7422   20.1728 N   0  0  0  0  0  0  0  0  0  0  0  0
  -25.3295  -15.1290   20.4714 N   0  0  0  0  0  0  0  0  0  0  0  0
  -21.8189  -12.4334   21.3688 N   0  0  0  0  0  0  0  0  0  0  0  0
  -26.1076  -24.3511   29.9807 N   0  0  0  0  0  0  0  0  0  0  0  0
  -30.5138  -21.6010   33.9880 N   0  0  0  0  0  0  0  0  0  0  0  0
  -30.7880  -13.0598   22.4370 N   0  0  0  0  0  0  0  0  0  0  0  0
  -30.7017  -18.2548   35.3428 N   0  3  0  0  0  0  0  0  0  0  0  0
  -22.4773  -14.6176   21.1347 O   0  0  0  0  0  0  0  0  0  0  0  0
  -28.1102  -23.4695   29.1838 O   0  0  0  0  0  0  0  0  0  0  0  0
  -28.3013  -23.2903   33.3097 O   0  0  0  0  0  0  0  0  0  0  0  0
  -31.3658  -19.6794   33.0091 O   0  0  0  0  0  0  0  0  0  0  0  0
  -32.0697  -13.7850   20.6650 O   0  0  0  0  0  0  0  0  0  0  0  0
  -21.8958   -6.8644   21.5137 O   0  0  0  0  0  0  0  0  0  0  0  0
  -29.1476  -17.8982   26.8238 O   0  0  0  0  0  0  0  0  0  1  0  0
  -20.6463   -5.4511   26.6950 F   0  0  0  0  0  0  0  0  0  0  0  0
  -22.8424   -4.5092   22.6090 F   0  0  0  0  0  0  0  0  0  0  0  0
  1  2  1  0  0  0  0
  1  5  2  0  0  0  0
  2  6  2  0  0  0  0
  3  8  2  0  0  0  0
  3 15  1  0  0  0  0
  4  9  1  0  0  0  0
  4 15  2  0  0  0  0
  5 17  1  0  0  0  0
  6 19  1  0  0  0  0
  7 10  2  0  0  0  0
  7 18  1  0  0  0  0
  8 21  1  0  0  0  0
  9 21  2  0  0  0  0
 10 22  1  0  0  0  0
 11 12  2  0  0  0  0
 11 23  1  0  0  0  0
 12 24  1  0  0  0  0
 13 20  1  0  0  0  0
 13 22  2  0  0  0  0
 14 24  2  0  0  0  0
 14 25  1  0  0  0  0
 15 26  1  0  0  0  0
 16 26  1  0  0  0  0
 16 27  2  0  0  0  0
 16 28  1  0  0  0  0
 17 19  2  0  0  0  0
 17 33  1  0  0  0  0
 18 20  2  0  0  0  0
 18 34  1  0  0  0  0
 19 46  1  0  0  0  0
 20 35  1  0  0  0  0
 21 81  1  0  0  0  0
 22 82  1  0  0  0  0
 23 25  2  0  0  0  0
 23 81  1  0  0  0  0
 24 83  1  0  0  0  0
 25 84  1  0  0  0  0
 26 66  2  0  0  0  0
 27 67  1  0  0  0  0
 27 70  1  0  0  0  0
 28 71  1  0  0  0  0
 28 76  2  0  0  0  0
 29 47  1  0  0  0  0
 29 72  1  0  0  0  0
 29 77  2  0  0  0  0
 30 62  1  0  0  0  0
 30 68  1  0  0  0  0
 30 78  2  0  0  0  0
 31 63  1  0  0  0  0
 31 73  1  0  0  0  0
 31 79  2  0  0  0  0
 32 69  1  0  0  0  0
 32 74  1  0  0  0  0
 32 80  2  0  0  0  0
 33 36  1  0  0  0  0
 34 47  1  0  0  0  0
 35 68  1  0  0  0  0
 36 38  1  0  0  0  0
 37 43  1  0  0  0  0
 37 44  1  0  0  0  0
 38 46  1  0  0  0  0
 39 41  1  0  0  0  0
 39 48  1  0  0  0  0
 40 42  1  0  0  0  0
 40 48  1  0  0  0  0
 41 49  1  0  0  0  0
 42 49  1  0  0  0  0
 43 50  1  0  0  0  0
 44 69  1  0  0  0  0
 45 50  1  0  0  0  0
 45 69  1  0  0  0  0
 46 72  1  0  0  0  0
 47 68  1  0  0  0  0
 48 58  1  0  0  0  0
 49 64  1  0  0  0  0
 50 67  1  0  0  0  0
 51 59  1  0  0  0  0
 52 63  1  0  0  0  0
 53 64  1  0  0  0  0
 54 65  1  0  0  0  0
 55 65  1  0  0  0  0
 56 65  1  0  0  0  0
 57 75  1  0  0  0  0
 58 74  1  0  0  0  0
 59 60  1  0  0  0  0
 60 61  1  0  0  0  0
 61 74  1  0  0  0  0
 62 65  1  0  0  0  0
 62 73  1  0  0  0  0
 63 75  1  0  0  0  0
 64 82  1  0  0  0  0
 66 67  1  0  0  0  0
M  CHG  1  75   1
M  ISO  4  32 100  64 101  74 100  82 101
M  END
> <Batch ID>
0049

> <Smiles>
CCCC[100N:0](CC1CCC([101CH:1](C)[101O:1]c2ccc3c(c2)CN(C(=O)C(NC(=O)C(C)NC)C(C)(C)C)C(C(=O)NC2CCCc4ccccc42)C3)CC1)[100C:0](=O)N1CCCC(n2nc(-c3ccc(Oc4ccc(F)cc4F)cc3)c(C(N)=O)c2N)C1

> <Shape>
0.163

> <Color>
0.189

> <Negative vol penalty>
0.000

$$$$

  -OEChem-04052317292D

  0  0  0     0  0  0  0  0  0999 V2000
M  END
$$$$

  -OEChem-04052317293D

 81 89  0     1  0  0  0  0  0999 V2000
  -23.1093  -29.8244   21.8733 C   0  0  0  0  0  0  0  0  0  0  0  0
  -22.5645  -28.5718   21.6095 C   0  0  0  0  0  0  0  0  0  0  0  0
  -23.2624  -16.1162   21.4621 C   0  0  0  0  0  0  0  0  0  0  0  0
  -22.5782  -15.1350   19.3631 C   0  0  0  0  0  0  0  0  0  0  0  0
  -24.4165  -30.1112   21.4821 C   0  0  0  0  0  0  0  0  0  0  0  0
  -23.3263  -27.6055   20.9533 C   0  0  0  0  0  0  0  0  0  0  0  0
  -24.6659  -21.2270   24.0211 C   0  0  0  0  0  0  0  0  0  0  0  0
  -22.2934  -17.1085   21.3142 C   0  0  0  0  0  0  0  0  0  0  0  0
  -21.6091  -16.1272   19.2151 C   0  0  0  0  0  0  0  0  0  0  0  0
  -24.7892  -19.9058   24.4518 C   0  0  0  0  0  0  0  0  0  0  0  0
  -20.2386  -20.1087   21.3124 C   0  0  0  0  0  0  0  0  0  0  0  0
  -20.6108  -21.4260   21.5806 C   0  0  0  0  0  0  0  0  0  0  0  0
  -26.1424  -19.3896   22.5152 C   0  0  0  0  0  0  0  0  0  0  0  0
  -22.2896  -21.3046   19.8474 C   0  0  0  0  0  0  0  0  0  0  0  0
  -30.6553  -14.4725   22.9951 C   0  0  0  0  0  0  0  0  0  0  0  0
  -23.4049  -15.1295   20.4865 C   0  0  0  0  0  0  0  0  0  0  0  0
  -24.2554  -12.8560   21.2711 C   0  0  0  0  0  0  0  0  0  0  0  0
  -25.1980  -29.1447   20.8295 C   0  0  0  0  0  0  0  0  0  0  0  0
  -25.2940  -21.6387   22.8424 C   0  0  0  0  0  0  0  0  0  0  0  0
  -24.6447  -27.8801   20.5519 C   0  0  0  0  0  0  0  0  0  0  0  0
  -26.0329  -20.7147   22.0853 C   0  0  0  0  0  0  0  0  0  0  0  0
  -21.4667  -17.1140   20.1907 C   0  0  0  0  0  0  0  0  0  0  0  0
  -25.5254  -18.9894   23.7006 C   0  0  0  0  0  0  0  0  0  0  0  0
  -20.8919  -19.3894   20.3117 C   0  0  0  0  0  0  0  0  0  0  0  0
  -21.6362  -22.0239   20.8481 C   0  0  0  0  0  0  0  0  0  0  0  0
  -21.9174  -19.9873   19.5792 C   0  0  0  0  0  0  0  0  0  0  0  0
  -24.4061  -14.1045   20.6385 C   0  0  0  0  0  0  0  0  0  0  0  0
  -30.7690  -15.0914   21.7742 C   0  0  0  0  0  0  0  0  0  0  0  0
  -30.4470  -15.5258   23.9055 C   0  0  0  0  0  0  0  0  0  0  0  0
  -25.4858  -12.2581   21.1485 C   0  0  0  0  0  0  0  0  0  0  0  0
  -23.1058  -12.2874   21.9121 C   0  0  0  0  0  0  0  0  0  0  0  0
  -30.9956  -14.4858   20.4555 C   0  0  0  0  0  0  0  0  0  0  0  0
  -26.0058  -24.4462   20.4576 C   0  0  0  0  0  0  0  0  0  0  0  0
  -28.6016  -22.8358   20.7382 C   0  0  0  0  0  0  0  0  0  0  0  0
  -31.1422  -21.4822   22.0094 C   0  0  0  0  0  0  0  0  0  0  0  0
  -26.5899  -29.5168   20.3837 C   0  0  0  0  0  0  0  0  0  0  0  0
  -25.1373  -23.0366   22.3084 C   0  0  0  0  0  0  0  0  0  0  0  0
  -26.6625  -21.1939   20.8059 C   0  0  0  0  0  0  0  0  0  0  0  0
  -27.4576  -28.3126   20.0271 C   0  0  0  0  0  0  0  0  0  0  0  0
  -29.3434  -12.1535   18.3174 C   0  0  0  0  0  0  0  0  0  0  0  0
  -26.6848  -27.3418   19.1398 C   0  0  0  0  0  0  0  0  0  0  0  0
  -27.8720  -12.2849   18.7146 C   0  0  0  0  0  0  0  0  0  0  0  0
  -30.0686  -13.4949   18.3895 C   0  0  0  0  0  0  0  0  0  0  0  0
  -28.4783  -14.3188   20.0915 C   0  0  0  0  0  0  0  0  0  0  0  0
  -25.4479  -26.7973   19.8644 C   0  0  1  0  0  0  0  0  0  0  0  0
  -26.4008  -23.5572   21.6000 C   0  0  1  0  0  0  0  0  0  0  0  0
  -27.7231  -12.9796   20.0812 C   0  0  1  0  0  0  0  0  0  0  0  0
  -33.5215  -20.6850   21.9866 C   0  0  0  0  0  0  0  0  0  0  0  0
  -28.0076  -21.4565   18.0833 C   0  0  0  0  0  0  0  0  0  0  0  0
  -30.3129  -20.4824   18.1548 C   0  0  0  0  0  0  0  0  0  0  0  0
  -30.0087  -22.9563   18.0554 C   0  0  0  0  0  0  0  0  0  0  0  0
  -30.6708  -17.4946   21.0472 C   0  0  0  0  0  0  0  0  0  0  0  0
  -31.8608  -23.1971   24.3120 C   0  0  0  0  0  0  0  0  0  0  0  0
  -30.2546  -15.4251   25.3979 C   0  0  0  0  0  0  0  0  0  0  0  0
  -28.7904  -15.2707   25.8247 C   0  0  0  0  0  0  0  0  0  0  0  0
  -27.9266  -16.4795   25.4512 C   0  0  0  0  0  0  0  0  0  0  0  0
  -26.4717  -16.2695   25.8674 C   0  0  0  0  0  0  0  0  0  0  0  0
  -25.6129  -17.4824   25.5387 C   0  0  0  0  0  0  0  0  0  1  0  0
  -29.4664  -21.7259   20.1964 C   0  0  1  0  0  0  0  0  0  0  0  0
  -32.5808  -21.8215   22.3554 C   0  0  2  0  0  0  0  0  0  0  0  0
  -29.4307  -21.6509   18.6438 C   0  0  0  0  0  0  0  0  0  0  0  0
  -25.6355  -14.2901   20.1504 N   0  0  0  0  0  0  0  0  0  0  0  0
  -30.4289  -16.7230   23.3137 N   0  0  0  0  0  0  0  0  0  0  0  0
  -30.6273  -16.4258   22.0181 N   0  0  0  0  0  0  0  0  0  0  0  0
  -26.2684  -13.1503   20.4765 N   0  0  0  0  0  0  0  0  0  0  0  0
  -29.8804  -14.1150   19.7005 N   0  0  0  0  0  0  0  0  0  0  0  0
  -27.2643  -22.5211   21.0085 N   0  0  0  0  0  0  0  0  0  0  0  0
  -25.9639  -11.0616   21.5512 N   0  0  0  0  0  0  0  0  0  0  0  0
  -21.9220  -13.0369   21.9485 N   0  0  0  0  0  0  0  0  0  0  0  0
  -25.8277  -25.7703   20.8106 N   0  0  0  0  0  0  0  0  0  0  0  0
  -30.7980  -21.9368   20.7540 N   0  0  0  0  0  0  0  0  0  0  0  0
  -32.7136  -22.0864   23.8159 N   0  3  0  0  0  0  0  0  0  0  0  0
  -23.1324  -11.1552   22.4515 O   0  0  0  0  0  0  0  0  0  0  0  0
  -32.1698  -14.3395   20.1193 O   0  0  0  0  0  0  0  0  0  0  0  0
  -25.8735  -23.9676   19.3373 O   0  0  0  0  0  0  0  0  0  0  0  0
  -29.0942  -23.9539   20.9127 O   0  0  0  0  0  0  0  0  0  0  0  0
  -30.3993  -20.8715   22.7746 O   0  0  0  0  0  0  0  0  0  0  0  0
  -20.5208  -18.0819   20.0461 O   0  0  0  0  0  0  0  0  0  0  0  0
  -25.6454  -17.7023   24.1291 O   0  0  0  0  0  0  0  0  0  1  0  0
  -21.9925  -23.2894   21.1048 F   0  0  0  0  0  0  0  0  0  0  0  0
  -22.5480  -19.3016   18.6159 F   0  0  0  0  0  0  0  0  0  0  0  0
  1  2  1  0  0  0  0
  1  5  2  0  0  0  0
  2  6  2  0  0  0  0
  3  8  2  0  0  0  0
  3 16  1  0  0  0  0
  4  9  1  0  0  0  0
  4 16  2  0  0  0  0
  5 18  1  0  0  0  0
  6 20  1  0  0  0  0
  7 10  2  0  0  0  0
  7 19  1  0  0  0  0
  8 22  1  0  0  0  0
  9 22  2  0  0  0  0
 10 23  1  0  0  0  0
 11 12  2  0  0  0  0
 11 24  1  0  0  0  0
 12 25  1  0  0  0  0
 13 21  1  0  0  0  0
 13 23  2  0  0  0  0
 14 25  2  0  0  0  0
 14 26  1  0  0  0  0
 15 28  2  0  0  0  0
 15 29  1  0  0  0  0
 16 27  1  0  0  0  0
 17 27  1  0  0  0  0
 17 30  2  0  0  0  0
 17 31  1  0  0  0  0
 18 20  2  0  0  0  0
 18 36  1  0  0  0  0
 19 21  2  0  0  0  0
 19 37  1  0  0  0  0
 20 45  1  0  0  0  0
 21 38  1  0  0  0  0
 22 78  1  0  0  0  0
 23 79  1  0  0  0  0
 24 26  2  0  0  0  0
 24 78  1  0  0  0  0
 25 80  1  0  0  0  0
 26 81  1  0  0  0  0
 27 62  2  0  0  0  0
 28 32  1  0  0  0  0
 28 64  1  0  0  0  0
 29 54  1  0  0  0  0
 29 63  2  0  0  0  0
 30 65  1  0  0  0  0
 30 68  1  0  0  0  0
 31 69  1  0  0  0  0
 31 73  2  0  0  0  0
 32 66  1  0  0  0  0
 32 74  2  0  0  0  0
 33 46  1  0  0  0  0
 33 70  1  0  0  0  0
 33 75  2  0  0  0  0
 34 59  1  0  0  0  0
 34 67  1  0  0  0  0
 34 76  2  0  0  0  0
 35 60  1  0  0  0  0
 35 71  1  0  0  0  0
 35 77  2  0  0  0  0
 36 39  1  0  0  0  0
 37 46  1  0  0  0  0
 38 67  1  0  0  0  0
 39 41  1  0  0  0  0
 40 42  1  0  0  0  0
 40 43  1  0  0  0  0
 41 45  1  0  0  0  0
 42 47  1  0  0  0  0
 43 66  1  0  0  0  0
 44 47  1  0  0  0  0
 44 66  1  0  0  0  0
 45 70  1  0  0  0  0
 46 67  1  0  0  0  0
 47 65  1  0  0  0  0
 48 60  1  0  0  0  0
 49 61  1  0  0  0  0
 50 61  1  0  0  0  0
 51 61  1  0  0  0  0
 52 64  1  0  0  0  0
 53 72  1  0  0  0  0
 54 55  1  0  0  0  0
 55 56  1  0  0  0  0
 56 57  1  0  0  0  0
 57 58  1  0  0  0  0
 58 79  1  0  0  0  0
 59 61  1  0  0  0  0
 59 71  1  0  0  0  0
 60 72  1  0  0  0  0
 62 65  1  0  0  0  0
 63 64  1  0  0  0  0
M  CHG  1  72   1
M  ISO  4  28 100  32 100  58 101  79 101
M  END
> <Batch ID>
0049

> <Smiles>
CNC(C)C(=O)NC(C(=O)N1Cc2cc([101O:1][101CH2:1]CCCCc3c[100c:0]([100C:0](=O)N4CCCC(n5nc(-c6ccc(Oc7ccc(F)cc7F)cc6)c(C(N)=O)c5N)C4)n(C)n3)ccc2CC1C(=O)NC1CCCc2ccccc21)C(C)(C)C

> <Shape>
0.210

> <Color>
0.095

> <Negative vol penalty>
0.000

$$$$

  -OEChem-04052317293D

 86 94  0     1  0  0  0  0  0999 V2000
  -18.9809  -33.4719   22.2020 C   0  0  0  0  0  0  0  0  0  0  0  0
  -20.3229  -33.3244   21.8662 C   0  0  0  0  0  0  0  0  0  0  0  0
  -27.0187  -17.8099   20.2288 C   0  0  0  0  0  0  0  0  0  0  0  0
  -29.2966  -17.3166   20.8650 C   0  0  0  0  0  0  0  0  0  0  0  0
  -18.3467  -32.5017   22.9768 C   0  0  0  0  0  0  0  0  0  0  0  0
  -21.0317  -32.2070   22.3061 C   0  0  0  0  0  0  0  0  0  0  0  0
  -25.4863  -29.2595   19.3103 C   0  0  0  0  0  0  0  0  0  0  0  0
  -32.2227  -24.7668   23.8461 C   0  0  0  0  0  0  0  0  0  0  0  0
  -26.8087  -16.4625   19.9357 C   0  0  0  0  0  0  0  0  0  0  0  0
  -29.0866  -15.9691   20.5720 C   0  0  0  0  0  0  0  0  0  0  0  0
  -26.8763  -29.3195   19.4006 C   0  0  0  0  0  0  0  0  0  0  0  0
  -26.1895  -13.6094   21.6413 C   0  0  0  0  0  0  0  0  0  0  0  0
  -25.0098  -13.0226   22.0992 C   0  0  0  0  0  0  0  0  0  0  0  0
  -31.7393  -26.0668   23.9437 C   0  0  0  0  0  0  0  0  0  0  0  0
  -26.8566  -27.4123   20.8776 C   0  0  0  0  0  0  0  0  0  0  0  0
  -24.3832  -12.5067   19.8237 C   0  0  0  0  0  0  0  0  0  0  0  0
  -28.2626  -18.2370   20.6934 C   0  0  0  0  0  0  0  0  0  0  0  0
  -28.2751  -20.2727   22.2308 C   0  0  0  0  0  0  0  0  0  0  0  0
  -19.0455  -31.3671   23.4183 C   0  0  0  0  0  0  0  0  0  0  0  0
  -24.7690  -28.2805   20.0129 C   0  0  0  0  0  0  0  0  0  0  0  0
  -20.4066  -31.2214   23.0886 C   0  0  0  0  0  0  0  0  0  0  0  0
  -25.4578  -27.3404   20.7925 C   0  0  0  0  0  0  0  0  0  0  0  0
  -33.0334  -24.4111   22.7740 C   0  0  0  0  0  0  0  0  0  0  0  0
  -27.8426  -15.5421   20.1073 C   0  0  0  0  0  0  0  0  0  0  0  0
  -27.5615  -28.3976   20.1866 C   0  0  0  0  0  0  0  0  0  0  0  0
  -26.4660  -13.6449   20.2746 C   0  0  0  0  0  0  0  0  0  0  0  0
  -24.1067  -12.4712   21.1904 C   0  0  0  0  0  0  0  0  0  0  0  0
  -25.5629  -13.0935   19.3658 C   0  0  0  0  0  0  0  0  0  0  0  0
  -28.4804  -19.6289   20.9958 C   0  0  0  0  0  0  0  0  0  0  0  0
  -32.0929  -26.9664   22.9510 C   0  0  0  0  0  0  0  0  0  0  0  0
  -33.3289  -25.3847   21.8335 C   0  0  0  0  0  0  0  0  0  0  0  0
  -28.6242  -21.5806   21.9983 C   0  0  0  0  0  0  0  0  0  0  0  0
  -27.8104  -19.7364   23.4767 C   0  0  0  0  0  0  0  0  0  0  0  0
  -22.5623  -28.3258   22.3002 C   0  0  0  0  0  0  0  0  0  0  0  0
  -22.4883  -25.1294   21.7525 C   0  0  0  0  0  0  0  0  0  0  0  0
  -24.0987  -22.3490   20.6026 C   0  0  0  0  0  0  0  0  0  0  0  0
  -32.3165  -24.7950   19.0911 C   0  0  0  0  0  0  0  0  0  0  0  0
  -18.3300  -30.3686   24.2932 C   0  0  0  0  0  0  0  0  0  0  0  0
  -23.2720  -28.2127   19.8837 C   0  0  0  0  0  0  0  0  0  0  0  0
  -24.7360  -26.2573   21.5503 C   0  0  0  0  0  0  0  0  0  0  0  0
  -19.0525  -29.0285   24.4048 C   0  0  0  0  0  0  0  0  0  0  0  0
  -29.0490  -24.4261   17.9895 C   0  0  0  0  0  0  0  0  0  0  0  0
  -20.5381  -29.2439   24.6755 C   0  0  0  0  0  0  0  0  0  0  0  0
  -28.5346  -23.2137   18.7645 C   0  0  0  0  0  0  0  0  0  0  0  0
  -30.4862  -24.2093   17.5311 C   0  0  0  0  0  0  0  0  0  0  0  0
  -30.9340  -22.6934   19.4344 C   0  0  0  0  0  0  0  0  0  0  0  0
  -21.2028  -30.0110   23.5260 C   0  0  1  0  0  0  0  0  0  0  0  0
  -22.6036  -27.4924   21.0507 C   0  0  1  0  0  0  0  0  0  0  0  0
  -29.4810  -22.8592   19.9248 C   0  0  2  0  0  0  0  0  0  0  0  0
  -33.5533  -23.0195   22.6633 C   0  0  0  0  0  0  0  0  0  0  0  0
  -35.2825  -23.5904   18.1047 C   0  0  0  0  0  0  0  0  0  0  0  0
  -23.7976  -19.8738   20.3195 C   0  0  0  0  0  0  0  0  0  0  0  0
  -30.6873  -28.6976   24.2615 C   0  0  0  0  0  0  0  0  0  0  0  0
  -32.7981  -29.3616   23.1441 C   0  0  0  0  0  0  0  0  0  0  0  0
  -22.9572  -24.7330   24.7413 C   0  0  0  0  0  0  0  0  0  0  0  0
  -23.5876  -22.3590   24.2567 C   0  0  0  0  0  0  0  0  0  0  0  0
  -21.2876  -23.1691   23.7308 C   0  0  0  0  0  0  0  0  0  0  0  0
  -24.3947  -22.5319   17.6636 C   0  0  0  0  0  0  0  0  0  0  0  0
  -34.1975  -25.0607   20.6624 C   0  0  0  0  0  0  0  0  0  0  0  0
  -30.7865  -28.8010   21.7413 C   0  0  0  0  0  0  0  0  0  0  0  0
  -34.2364  -23.1461   19.1070 C   0  0  0  0  0  0  0  0  0  0  0  0
  -29.5073  -28.0021   21.4955 C   0  0  0  0  0  0  0  0  0  1  0  0
  -23.2279  -23.9333   22.3014 C   0  0  1  0  0  0  0  0  0  0  0  0
  -23.6510  -21.2400   19.6677 C   0  0  2  0  0  0  0  0  0  0  0  0
  -31.5774  -28.4150   23.0275 C   0  0  0  0  0  0  0  0  0  0  0  0
  -22.7788  -23.5701   23.7450 C   0  0  0  0  0  0  0  0  0  0  0  0
  -28.9252  -20.4593   20.0490 N   0  0  0  0  0  0  0  0  0  0  0  0
  -32.8780  -26.6578   21.8946 N   0  0  0  0  0  0  0  0  0  0  0  0
  -29.0023  -21.6385   20.6892 N   0  0  0  0  0  0  0  0  0  0  0  0
  -23.2719  -26.2364   21.3971 N   0  0  0  0  0  0  0  0  0  0  0  0
  -31.3558  -23.8693   18.6576 N   0  0  0  0  0  0  0  0  0  0  0  0
  -28.6414  -22.6753   22.7881 N   0  0  0  0  0  0  0  0  0  0  0  0
  -27.4961  -18.3721   23.5411 N   0  0  0  0  0  0  0  0  0  0  0  0
  -21.4435  -29.1303   22.4032 N   0  0  0  0  0  0  0  0  0  0  0  0
  -23.0450  -22.8596   21.3308 N   0  0  0  0  0  0  0  0  0  0  0  0
  -33.4948  -24.2811   19.6533 N   0  0  0  0  0  0  0  0  0  0  0  0
  -24.4648  -21.2548   18.4193 N   0  3  0  0  0  0  0  0  0  0  0  0
  -27.6623  -20.4495   24.4980 O   0  0  0  0  0  0  0  0  0  0  0  0
  -23.4770  -28.2439   23.1116 O   0  0  0  0  0  0  0  0  0  0  0  0
  -21.2612  -25.0807   21.6366 O   0  0  0  0  0  0  0  0  0  0  0  0
  -25.2670  -22.7222   20.6819 O   0  0  0  0  0  0  0  0  0  0  0  0
  -32.1360  -26.0141   18.9757 O   0  0  0  0  0  0  0  0  0  0  0  0
  -27.6379  -14.2271   19.8216 O   0  0  0  0  0  0  0  0  0  0  0  0
  -28.9181  -28.4543   20.2770 O   0  0  0  0  0  0  0  0  0  1  0  0
  -22.9746  -11.9064   21.6304 F   0  0  0  0  0  0  0  0  0  0  0  0
  -25.8236  -13.1235   18.0516 F   0  0  0  0  0  0  0  0  0  0  0  0
  1  2  1  0  0  0  0
  1  5  2  0  0  0  0
  2  6  2  0  0  0  0
  3  9  2  0  0  0  0
  3 17  1  0  0  0  0
  4 10  1  0  0  0  0
  4 17  2  0  0  0  0
  5 19  1  0  0  0  0
  6 21  1  0  0  0  0
  7 11  2  0  0  0  0
  7 20  1  0  0  0  0
  8 14  2  0  0  0  0
  8 23  1  0  0  0  0
  9 24  1  0  0  0  0
 10 24  2  0  0  0  0
 11 25  1  0  0  0  0
 12 13  2  0  0  0  0
 12 26  1  0  0  0  0
 13 27  1  0  0  0  0
 14 30  1  0  0  0  0
 15 22  1  0  0  0  0
 15 25  2  0  0  0  0
 16 27  2  0  0  0  0
 16 28  1  0  0  0  0
 17 29  1  0  0  0  0
 18 29  1  0  0  0  0
 18 32  2  0  0  0  0
 18 33  1  0  0  0  0
 19 21  2  0  0  0  0
 19 38  1  0  0  0  0
 20 22  2  0  0  0  0
 20 39  1  0  0  0  0
 21 47  1  0  0  0  0
 22 40  1  0  0  0  0
 23 31  2  0  0  0  0
 23 50  1  0  0  0  0
 24 83  1  0  0  0  0
 25 84  1  0  0  0  0
 26 28  2  0  0  0  0
 26 83  1  0  0  0  0
 27 85  1  0  0  0  0
 28 86  1  0  0  0  0
 29 67  2  0  0  0  0
 30 65  1  0  0  0  0
 30 68  2  0  0  0  0
 31 59  1  0  0  0  0
 31 68  1  0  0  0  0
 32 69  1  0  0  0  0
 32 72  1  0  0  0  0
 33 73  1  0  0  0  0
 33 78  2  0  0  0  0
 34 48  1  0  0  0  0
 34 74  1  0  0  0  0
 34 79  2  0  0  0  0
 35 63  1  0  0  0  0
 35 70  1  0  0  0  0
 35 80  2  0  0  0  0
 36 64  1  0  0  0  0
 36 75  1  0  0  0  0
 36 81  2  0  0  0  0
 37 71  1  0  0  0  0
 37 76  1  0  0  0  0
 37 82  2  0  0  0  0
 38 41  1  0  0  0  0
 39 48  1  0  0  0  0
 40 70  1  0  0  0  0
 41 43  1  0  0  0  0
 42 44  1  0  0  0  0
 42 45  1  0  0  0  0
 43 47  1  0  0  0  0
 44 49  1  0  0  0  0
 45 71  1  0  0  0  0
 46 49  1  0  0  0  0
 46 71  1  0  0  0  0
 47 74  1  0  0  0  0
 48 70  1  0  0  0  0
 49 69  1  0  0  0  0
 51 61  1  0  0  0  0
 52 64  1  0  0  0  0
 53 65  1  0  0  0  0
 54 65  1  0  0  0  0
 55 66  1  0  0  0  0
 56 66  1  0  0  0  0
 57 66  1  0  0  0  0
 58 77  1  0  0  0  0
 59 76  1  0  0  0  0
 60 62  1  0  0  0  0
 60 65  1  0  0  0  0
 61 76  1  0  0  0  0
 62 84  1  0  0  0  0
 63 66  1  0  0  0  0
 63 75  1  0  0  0  0
 64 77  1  0  0  0  0
 67 69  1  0  0  0  0
M  CHG  1  77   1
M  ISO  4  37 100  62 101  76 100  84 101
M  END
> <Batch ID>
0049

> <Smiles>
CC[100N:0](Cc1nc(C(C)(C)C[101CH2:1][101O:1]c2ccc3c(c2)CN(C(=O)C(NC(=O)C(C)NC)C(C)(C)C)C(C(=O)NC2CCCc4ccccc42)C3)ccc1C)[100C:0](=O)N1CCCC(n2nc(-c3ccc(Oc4ccc(F)cc4F)cc3)c(C(N)=O)c2N)C1

> <Shape>
0.199

> <Color>
0.087

> <Negative vol penalty>
0.000

$$$$

  -OEChem-04052317293D

 87 95  0     1  0  0  0  0  0999 V2000
  -40.1000  -30.1395   19.6176 C   0  0  0  0  0  0  0  0  0  0  0  0
  -39.7289  -28.8039   19.7351 C   0  0  0  0  0  0  0  0  0  0  0  0
  -23.0558   -9.8529   19.9775 C   0  0  0  0  0  0  0  0  0  0  0  0
  -23.8590   -9.8892   22.2558 C   0  0  0  0  0  0  0  0  0  0  0  0
  -39.1347  -31.1410   19.7136 C   0  0  0  0  0  0  0  0  0  0  0  0
  -38.3924  -28.4690   19.9499 C   0  0  0  0  0  0  0  0  0  0  0  0
  -36.8582  -24.6283   17.0275 C   0  0  0  0  0  0  0  0  0  0  0  0
  -22.3213   -8.7000   20.2547 C   0  0  0  0  0  0  0  0  0  0  0  0
  -23.1244   -8.7362   22.5331 C   0  0  0  0  0  0  0  0  0  0  0  0
  -37.2350  -23.3432   17.4153 C   0  0  0  0  0  0  0  0  0  0  0  0
  -19.4042   -7.9093   21.7707 C   0  0  0  0  0  0  0  0  0  0  0  0
  -18.0886   -7.8527   21.3109 C   0  0  0  0  0  0  0  0  0  0  0  0
  -35.0494  -22.9990   18.3766 C   0  0  0  0  0  0  0  0  0  0  0  0
  -18.6308   -5.8966   20.0006 C   0  0  0  0  0  0  0  0  0  0  0  0
  -32.1285  -16.7833   22.5951 C   0  0  0  0  0  0  0  0  0  0  0  0
  -23.8247  -10.4475   20.9781 C   0  0  0  0  0  0  0  0  0  0  0  0
  -24.1543  -12.9723   20.8227 C   0  0  0  0  0  0  0  0  0  0  0  0
  -37.7843  -30.8178   19.9200 C   0  0  0  0  0  0  0  0  0  0  0  0
  -35.5757  -25.1132   17.3215 C   0  0  0  0  0  0  0  0  0  0  0  0
  -37.4084  -29.4672   20.0501 C   0  0  0  0  0  0  0  0  0  0  0  0
  -34.6580  -24.2897   17.9892 C   0  0  0  0  0  0  0  0  0  0  0  0
  -32.6656  -18.0455   22.5255 C   0  0  0  0  0  0  0  0  0  0  0  0
  -22.3556   -8.1417   21.5325 C   0  0  0  0  0  0  0  0  0  0  0  0
  -36.3316  -22.5294   18.0925 C   0  0  0  0  0  0  0  0  0  0  0  0
  -20.3332   -6.9596   21.3454 C   0  0  0  0  0  0  0  0  0  0  0  0
  -17.7018   -6.8463   20.4259 C   0  0  0  0  0  0  0  0  0  0  0  0
  -19.9465   -5.9533   20.4604 C   0  0  0  0  0  0  0  0  0  0  0  0
  -24.5841  -11.6382   20.6921 C   0  0  0  0  0  0  0  0  0  0  0  0
  -31.8085  -18.7452   21.6551 C   0  0  0  0  0  0  0  0  0  0  0  0
  -25.2365  -13.7216   20.4302 C   0  0  0  0  0  0  0  0  0  0  0  0
  -22.8900  -13.4883   21.2597 C   0  0  0  0  0  0  0  0  0  0  0  0
  -34.4301  -27.5227   19.0494 C   0  0  0  0  0  0  0  0  0  0  0  0
  -30.7417  -14.6978   20.6000 C   0  0  0  0  0  0  0  0  0  0  0  0
  -31.5998  -26.5769   17.7776 C   0  0  0  0  0  0  0  0  0  0  0  0
  -29.7430  -24.0788   16.3780 C   0  0  0  0  0  0  0  0  0  0  0  0
  -36.7839  -31.9371   20.0643 C   0  0  0  0  0  0  0  0  0  0  0  0
  -35.1758  -26.4920   16.8728 C   0  0  0  0  0  0  0  0  0  0  0  0
  -33.2623  -24.7555   18.3108 C   0  0  0  0  0  0  0  0  0  0  0  0
  -35.3344  -31.4811   19.9183 C   0  0  0  0  0  0  0  0  0  0  0  0
  -29.5389  -12.3683   18.1573 C   0  0  0  0  0  0  0  0  0  0  0  0
  -35.0853  -30.2219   20.7425 C   0  0  0  0  0  0  0  0  0  0  0  0
  -28.1183  -12.0573   18.6268 C   0  0  0  0  0  0  0  0  0  0  0  0
  -30.4812  -12.5882   19.3367 C   0  0  0  0  0  0  0  0  0  0  0  0
  -28.6018  -13.3320   20.7637 C   0  0  0  0  0  0  0  0  0  0  0  0
  -35.9651  -29.0629   20.2587 C   0  0  1  0  0  0  0  0  0  0  0  0
  -34.0158  -27.0694   17.6780 C   0  0  1  0  0  0  0  0  0  0  0  0
  -27.6109  -13.1332   19.6032 C   0  0  2  0  0  0  0  0  0  0  0  0
  -30.7019  -21.0099   21.6576 C   0  0  0  0  0  0  0  0  0  0  0  0
  -32.1160  -20.3001   19.6950 C   0  0  0  0  0  0  0  0  0  0  0  0
  -27.4513  -23.5961   15.4767 C   0  0  0  0  0  0  0  0  0  0  0  0
  -30.5156  -26.4196   20.6253 C   0  0  0  0  0  0  0  0  0  0  0  0
  -28.6060  -25.0583   19.7487 C   0  0  0  0  0  0  0  0  0  0  0  0
  -28.9309  -27.4019   18.9585 C   0  0  0  0  0  0  0  0  0  0  0  0
  -30.8059  -23.4563   13.6870 C   0  0  0  0  0  0  0  0  0  0  0  0
  -38.9032  -19.0796   22.7611 C   0  0  0  0  0  0  0  0  0  0  0  0
  -33.8983  -18.5547   23.2290 C   0  0  0  0  0  0  0  0  0  0  0  0
  -30.1278  -15.7003   21.5445 C   0  0  0  0  0  0  0  0  0  0  0  0
  -35.1469  -18.6013   22.3385 C   0  0  0  0  0  0  0  0  0  0  0  0
  -38.1886  -19.9530   19.8072 C   0  0  0  0  0  0  0  0  0  0  0  0
  -36.4277  -19.0581   23.0301 C   0  0  0  0  0  0  0  0  0  0  0  0
  -37.4606  -20.2576   21.1079 C   0  0  0  0  0  0  0  0  0  0  0  0
  -38.0767  -21.0617   18.7679 C   0  0  0  0  0  0  0  0  0  1  0  0
  -31.9119  -20.1496   21.2215 C   0  0  0  0  0  0  0  0  0  0  0  0
  -30.5217  -25.5987   18.1775 C   0  0  1  0  0  0  0  0  0  0  0  0
  -28.8635  -24.0495   15.1410 C   0  0  2  0  0  0  0  0  0  0  0  0
  -29.6704  -26.1112   19.3733 C   0  0  0  0  0  0  0  0  0  0  0  0
  -25.8412  -11.5422   20.2511 N   0  0  0  0  0  0  0  0  0  0  0  0
  -30.8034  -17.9901   21.2038 N   0  0  0  0  0  0  0  0  0  0  0  0
  -31.0255  -16.8028   21.7930 N   0  0  0  0  0  0  0  0  0  0  0  0
  -26.2106  -12.8256   20.1009 N   0  0  0  0  0  0  0  0  0  0  0  0
  -32.9209  -26.1138   17.8568 N   0  0  0  0  0  0  0  0  0  0  0  0
  -29.9529  -13.6010   20.2523 N   0  0  0  0  0  0  0  0  0  0  0  0
  -25.4403  -15.0529   20.3379 N   0  0  0  0  0  0  0  0  0  0  0  0
  -21.8882  -12.5793   21.6265 N   0  0  0  0  0  0  0  0  0  0  0  0
  -35.4205  -28.4862   19.0481 N   0  0  0  0  0  0  0  0  0  0  0  0
  -29.7510  -25.3244   16.9695 N   0  0  0  0  0  0  0  0  0  0  0  0
  -29.4282  -23.1156   14.1261 N   0  3  0  0  0  0  0  0  0  0  0  0
  -37.5729  -19.1178   22.0480 N   0  3  1  0  0  0  0  0  0  0  0  0
  -22.6501  -14.7186   21.3074 O   0  0  0  0  0  0  0  0  0  0  0  0
  -33.8900  -27.0354   20.0356 O   0  0  0  0  0  0  0  0  0  0  0  0
  -31.8872  -14.8870   20.1825 O   0  0  0  0  0  0  0  0  0  0  0  0
  -31.2812  -27.7077   17.4017 O   0  0  0  0  0  0  0  0  0  0  0  0
  -30.3581  -23.0943   16.7815 O   0  0  0  0  0  0  0  0  0  0  0  0
  -21.6388   -7.0168   21.8035 O   0  0  0  0  0  0  0  0  0  0  0  0
  -36.6970  -21.2749   18.4727 O   0  0  0  0  0  0  0  0  0  1  0  0
  -16.4380   -6.7911   19.9857 F   0  0  0  0  0  0  0  0  0  0  0  0
  -20.8341   -5.0374   20.0493 F   0  0  0  0  0  0  0  0  0  0  0  0
  1  2  1  0  0  0  0
  1  5  2  0  0  0  0
  2  6  2  0  0  0  0
  3  8  2  0  0  0  0
  3 16  1  0  0  0  0
  4  9  1  0  0  0  0
  4 16  2  0  0  0  0
  5 18  1  0  0  0  0
  6 20  1  0  0  0  0
  7 10  2  0  0  0  0
  7 19  1  0  0  0  0
  8 23  1  0  0  0  0
  9 23  2  0  0  0  0
 10 24  1  0  0  0  0
 11 12  2  0  0  0  0
 11 25  1  0  0  0  0
 12 26  1  0  0  0  0
 13 21  1  0  0  0  0
 13 24  2  0  0  0  0
 14 26  2  0  0  0  0
 14 27  1  0  0  0  0
 15 22  2  0  0  0  0
 15 69  1  0  0  0  0
 16 28  1  0  0  0  0
 17 28  1  0  0  0  0
 17 30  2  0  0  0  0
 17 31  1  0  0  0  0
 18 20  2  0  0  0  0
 18 36  1  0  0  0  0
 19 21  2  0  0  0  0
 19 37  1  0  0  0  0
 20 45  1  0  0  0  0
 21 38  1  0  0  0  0
 22 29  1  0  0  0  0
 22 56  1  0  0  0  0
 23 84  1  0  0  0  0
 24 85  1  0  0  0  0
 25 27  2  0  0  0  0
 25 84  1  0  0  0  0
 26 86  1  0  0  0  0
 27 87  1  0  0  0  0
 28 67  2  0  0  0  0
 29 63  1  0  0  0  0
 29 68  2  0  0  0  0
 30 70  1  0  0  0  0
 30 73  1  0  0  0  0
 31 74  1  0  0  0  0
 31 79  2  0  0  0  0
 32 46  1  0  0  0  0
 32 75  1  0  0  0  0
 32 80  2  0  0  0  0
 33 57  1  0  0  0  0
 33 72  1  0  0  0  0
 33 81  2  0  0  0  0
 34 64  1  0  0  0  0
 34 71  1  0  0  0  0
 34 82  2  0  0  0  0
 35 65  1  0  0  0  0
 35 76  1  0  0  0  0
 35 83  2  0  0  0  0
 36 39  1  0  0  0  0
 37 46  1  0  0  0  0
 38 71  1  0  0  0  0
 39 41  1  0  0  0  0
 40 42  1  0  0  0  0
 40 43  1  0  0  0  0
 41 45  1  0  0  0  0
 42 47  1  0  0  0  0
 43 72  1  0  0  0  0
 44 47  1  0  0  0  0
 44 72  1  0  0  0  0
 45 75  1  0  0  0  0
 46 71  1  0  0  0  0
 47 70  1  0  0  0  0
 48 63  1  0  0  0  0
 49 63  1  0  0  0  0
 50 65  1  0  0  0  0
 51 66  1  0  0  0  0
 52 66  1  0  0  0  0
 53 66  1  0  0  0  0
 54 77  1  0  0  0  0
 55 78  1  0  0  0  0
 56 58  1  0  0  0  0
 57 69  1  0  0  0  0
 58 60  1  0  0  0  0
 59 61  1  0  0  0  0
 59 62  1  0  0  0  0
 60 78  1  0  0  0  0
 61 78  1  0  0  0  0
 62 85  1  0  0  0  0
 64 66  1  0  0  0  0
 64 76  1  0  0  0  0
 65 77  1  0  0  0  0
 67 70  1  0  0  0  0
 68 69  1  0  0  0  0
M  CHG  2  77   1  78   1
M  ISO  4  33 100  57 100  62 101  85 101
M  END
> <Batch ID>
0049

> <Smiles>
CNC(C)C(=O)NC(C(=O)N1Cc2cc([101O:1][101CH2:1]CCN(C)CCCc3cn([100CH2:0][100C:0](=O)N4CCCC(n5nc(-c6ccc(Oc7ccc(F)cc7F)cc6)c(C(N)=O)c5N)C4)nc3C(C)C)ccc2CC1C(=O)NC1CCCc2ccccc21)C(C)(C)C

> <Shape>
0.195

> <Color>
0.190

> <Negative vol penalty>
0.000

$$$$

  -OEChem-04052317293D

 85 93  0     1  0  0  0  0  0999 V2000
  -19.6384  -18.6216   23.3351 C   0  0  0  0  0  0  0  0  0  0  0  0
  -21.0091  -18.8418   23.2461 C   0  0  0  0  0  0  0  0  0  0  0  0
  -26.9549  -13.1329   21.0783 C   0  0  0  0  0  0  0  0  0  0  0  0
  -26.8540  -13.5569   18.7019 C   0  0  0  0  0  0  0  0  0  0  0  0
  -18.7529  -19.4673   22.6683 C   0  0  0  0  0  0  0  0  0  0  0  0
  -21.4953  -19.9072   22.4891 C   0  0  0  0  0  0  0  0  0  0  0  0
  -26.8632  -24.6480   22.3251 C   0  0  0  0  0  0  0  0  0  0  0  0
  -26.2683  -11.9330   20.8934 C   0  0  0  0  0  0  0  0  0  0  0  0
  -26.1673  -12.3569   18.5170 C   0  0  0  0  0  0  0  0  0  0  0  0
  -27.8484  -25.1301   21.4645 C   0  0  0  0  0  0  0  0  0  0  0  0
  -24.2254   -8.9311   21.0903 C   0  0  0  0  0  0  0  0  0  0  0  0
  -23.1838   -8.6360   21.9699 C   0  0  0  0  0  0  0  0  0  0  0  0
  -26.2216  -26.5730   20.4201 C   0  0  0  0  0  0  0  0  0  0  0  0
  -22.0317  -10.6442   21.2794 C   0  0  0  0  0  0  0  0  0  0  0  0
  -28.2191  -22.4233   16.0503 C   0  0  0  0  0  0  0  0  0  0  0  0
  -27.2478  -13.9449   19.9826 C   0  0  0  0  0  0  0  0  0  0  0  0
  -29.3506  -15.3796   20.1483 C   0  0  0  0  0  0  0  0  0  0  0  0
  -19.2280  -20.5494   21.9107 C   0  0  0  0  0  0  0  0  0  0  0  0
  -25.5451  -25.1176   22.2322 C   0  0  0  0  0  0  0  0  0  0  0  0
  -20.6154  -20.7674   21.8104 C   0  0  0  0  0  0  0  0  0  0  0  0
  -25.2221  -26.0971   21.2824 C   0  0  0  0  0  0  0  0  0  0  0  0
  -25.8745  -11.5450   19.6128 C   0  0  0  0  0  0  0  0  0  0  0  0
  -27.5271  -26.0907   20.5099 C   0  0  0  0  0  0  0  0  0  0  0  0
  -24.1701  -10.0828   20.3053 C   0  0  0  0  0  0  0  0  0  0  0  0
  -22.0870   -9.4925   22.0644 C   0  0  0  0  0  0  0  0  0  0  0  0
  -23.0733  -10.9393   20.3998 C   0  0  0  0  0  0  0  0  0  0  0  0
  -27.9566  -15.1849   20.1730 C   0  0  0  0  0  0  0  0  0  0  0  0
  -27.0924  -22.7845   16.7337 C   0  0  0  0  0  0  0  0  0  0  0  0
  -29.5137  -16.7235   20.3803 C   0  0  0  0  0  0  0  0  0  0  0  0
  -28.4371  -24.5413   16.6561 C   0  0  0  0  0  0  0  0  0  0  0  0
  -30.4039  -14.4306   19.9347 C   0  0  0  0  0  0  0  0  0  0  0  0
  -22.7307  -23.7887   21.5867 C   0  0  0  0  0  0  0  0  0  0  0  0
  -21.6041  -26.7341   22.3469 C   0  0  0  0  0  0  0  0  0  0  0  0
  -22.2021  -30.0828   22.6209 C   0  0  0  0  0  0  0  0  0  0  0  0
  -25.9757  -21.4726   19.4969 C   0  0  0  0  0  0  0  0  0  0  0  0
  -18.2345  -21.4082   21.1690 C   0  0  0  0  0  0  0  0  0  0  0  0
  -24.4998  -24.6070   23.1856 C   0  0  0  0  0  0  0  0  0  0  0  0
  -23.8264  -26.6487   21.1553 C   0  0  0  0  0  0  0  0  0  0  0  0
  -18.8142  -22.7377   20.6932 C   0  0  0  0  0  0  0  0  0  0  0  0
  -27.4237  -20.4250   22.5763 C   0  0  0  0  0  0  0  0  0  0  0  0
  -20.1708  -22.5217   20.0299 C   0  0  0  0  0  0  0  0  0  0  0  0
  -27.8503  -18.9808   22.3073 C   0  0  0  0  0  0  0  0  0  0  0  0
  -26.1152  -20.7682   21.8678 C   0  0  0  0  0  0  0  0  0  0  0  0
  -26.5324  -19.0516   20.1493 C   0  0  0  0  0  0  0  0  0  0  0  0
  -21.1803  -21.9272   21.0193 C   0  0  1  0  0  0  0  0  0  0  0  0
  -23.0776  -24.7797   22.6615 C   0  0  1  0  0  0  0  0  0  0  0  0
  -27.8758  -18.6756   20.7975 C   0  0  2  0  0  0  0  0  0  0  0  0
  -29.3881  -25.1072   11.8931 C   0  0  0  0  0  0  0  0  0  0  0  0
  -21.0769  -32.2414   23.2306 C   0  0  0  0  0  0  0  0  0  0  0  0
  -31.7219  -23.7421   13.3076 C   0  0  0  0  0  0  0  0  0  0  0  0
  -20.1633  -26.7398   19.6573 C   0  0  0  0  0  0  0  0  0  0  0  0
  -19.8657  -29.2138   19.9007 C   0  0  0  0  0  0  0  0  0  0  0  0
  -18.8276  -27.6654   21.5583 C   0  0  0  0  0  0  0  0  0  0  0  0
  -24.0796  -30.5642   24.8576 C   0  0  0  0  0  0  0  0  0  0  0  0
  -25.8861  -22.0284   17.0799 C   0  0  0  0  0  0  0  0  0  0  0  0
  -28.9806  -25.9337   16.8546 C   0  0  0  0  0  0  0  0  0  0  0  0
  -29.4789  -24.9414   13.4041 C   0  0  0  0  0  0  0  0  0  0  0  0
  -30.0585  -26.0256   17.9369 C   0  0  0  0  0  0  0  0  0  0  0  0
  -30.3366  -23.5865   15.3850 C   0  0  0  0  0  0  0  0  0  0  0  0
  -29.5483  -25.6713   19.3288 C   0  0  0  0  0  0  0  0  0  1  0  0
  -21.3327  -28.0057   21.5798 C   0  0  1  0  0  0  0  0  0  0  0  0
  -21.9067  -31.0710   23.7348 C   0  0  2  0  0  0  0  0  0  0  0  0
  -30.2878  -23.7050   13.8468 C   0  0  2  0  0  0  0  0  0  0  0  0
  -20.0733  -27.8946   20.6749 C   0  0  0  0  0  0  0  0  0  0  0  0
  -27.2821  -16.3146   20.4027 N   0  0  0  0  0  0  0  0  0  0  0  0
  -29.0334  -23.5296   16.0170 N   0  0  0  0  0  0  0  0  0  0  0  0
  -28.2565  -17.2322   20.5246 N   0  0  0  0  0  0  0  0  0  0  0  0
  -27.2547  -24.0997   17.0968 N   0  3  0  0  0  0  0  0  0  0  0  0
  -22.8380  -26.1133   22.1061 N   0  0  0  0  0  0  0  0  0  0  0  0
  -26.2062  -20.4567   20.4393 N   0  0  0  0  0  0  0  0  0  0  0  0
  -30.6085  -17.5079   20.4731 N   0  0  0  0  0  0  0  0  0  0  0  0
  -30.0604  -13.0904   19.7110 N   0  0  0  0  0  0  0  0  0  0  0  0
  -21.6789  -22.9530   21.9102 N   0  0  0  0  0  0  0  0  0  0  0  0
  -21.2638  -29.0737   22.5713 N   0  0  0  0  0  0  0  0  0  0  0  0
  -26.0882  -21.0940   18.1647 N   0  0  0  0  0  0  0  0  0  0  0  0
  -23.1763  -31.6054   24.3034 N   0  3  0  0  0  0  0  0  0  0  0  0
  -31.6145  -14.7584   19.9584 O   0  0  0  0  0  0  0  0  0  0  0  0
  -23.3691  -23.7836   20.5407 O   0  0  0  0  0  0  0  0  0  0  0  0
  -20.7557  -26.3112   23.1361 O   0  0  0  0  0  0  0  0  0  0  0  0
  -23.1666  -30.1970   21.8677 O   0  0  0  0  0  0  0  0  0  0  0  0
  -25.6961  -22.6323   19.8191 O   0  0  0  0  0  0  0  0  0  0  0  0
  -25.2046  -10.3740   19.4319 O   0  0  0  0  0  0  0  0  0  0  0  0
  -28.4867  -26.5625   19.6682 O   0  0  0  0  0  0  0  0  0  1  0  0
  -21.0861   -9.2081   22.9080 F   0  0  0  0  0  0  0  0  0  0  0  0
  -23.0140  -12.0466   19.6474 F   0  0  0  0  0  0  0  0  0  0  0  0
  1  2  1  0  0  0  0
  1  5  2  0  0  0  0
  2  6  2  0  0  0  0
  3  8  2  0  0  0  0
  3 16  1  0  0  0  0
  4  9  1  0  0  0  0
  4 16  2  0  0  0  0
  5 18  1  0  0  0  0
  6 20  1  0  0  0  0
  7 10  2  0  0  0  0
  7 19  1  0  0  0  0
  8 22  1  0  0  0  0
  9 22  2  0  0  0  0
 10 23  1  0  0  0  0
 11 12  2  0  0  0  0
 11 24  1  0  0  0  0
 12 25  1  0  0  0  0
 13 21  1  0  0  0  0
 13 23  2  0  0  0  0
 14 25  2  0  0  0  0
 14 26  1  0  0  0  0
 15 28  2  0  0  0  0
 15 66  1  0  0  0  0
 16 27  1  0  0  0  0
 17 27  1  0  0  0  0
 17 29  2  0  0  0  0
 17 31  1  0  0  0  0
 18 20  2  0  0  0  0
 18 36  1  0  0  0  0
 19 21  2  0  0  0  0
 19 37  1  0  0  0  0
 20 45  1  0  0  0  0
 21 38  1  0  0  0  0
 22 82  1  0  0  0  0
 23 83  1  0  0  0  0
 24 26  2  0  0  0  0
 24 82  1  0  0  0  0
 25 84  1  0  0  0  0
 26 85  1  0  0  0  0
 27 65  2  0  0  0  0
 28 55  1  0  0  0  0
 28 68  1  0  0  0  0
 29 67  1  0  0  0  0
 29 71  1  0  0  0  0
 30 56  1  0  0  0  0
 30 66  1  0  0  0  0
 30 68  2  0  0  0  0
 31 72  1  0  0  0  0
 31 77  2  0  0  0  0
 32 46  1  0  0  0  0
 32 73  1  0  0  0  0
 32 78  2  0  0  0  0
 33 61  1  0  0  0  0
 33 69  1  0  0  0  0
 33 79  2  0  0  0  0
 34 62  1  0  0  0  0
 34 74  1  0  0  0  0
 34 80  2  0  0  0  0
 35 70  1  0  0  0  0
 35 75  1  0  0  0  0
 35 81  2  0  0  0  0
 36 39  1  0  0  0  0
 37 46  1  0  0  0  0
 38 69  1  0  0  0  0
 39 41  1  0  0  0  0
 40 42  1  0  0  0  0
 40 43  1  0  0  0  0
 41 45  1  0  0  0  0
 42 47  1  0  0  0  0
 43 70  1  0  0  0  0
 44 47  1  0  0  0  0
 44 70  1  0  0  0  0
 45 73  1  0  0  0  0
 46 69  1  0  0  0  0
 47 67  1  0  0  0  0
 48 57  1  0  0  0  0
 49 62  1  0  0  0  0
 50 63  1  0  0  0  0
 51 64  1  0  0  0  0
 52 64  1  0  0  0  0
 53 64  1  0  0  0  0
 54 76  1  0  0  0  0
 55 75  1  0  0  0  0
 56 58  1  0  0  0  0
 57 63  1  0  0  0  0
 58 60  1  0  0  0  0
 59 63  1  0  0  0  0
 59 66  1  0  0  0  0
 60 83  1  0  0  0  0
 61 64  1  0  0  0  0
 61 74  1  0  0  0  0
 62 76  1  0  0  0  0
 65 67  1  0  0  0  0
M  CHG  2  68   1  76   1
M  ISO  4  35 100  60 101  75 100  83 101
M  END
> <Batch ID>
0049

> <Smiles>
CCC(C)Cn1cc(C[100NH:0][100C:0](=O)N2CCCC(n3nc(-c4ccc(Oc5ccc(F)cc5F)cc4)c(C(N)=O)c3N)C2)nc1CC[101CH2:1][101O:1]c1ccc2c(c1)CN(C(=O)C(NC(=O)C(C)NC)C(C)(C)C)C(C(=O)NC1CCCc3ccccc31)C2

> <Shape>
0.191

> <Color>
0.079

> <Negative vol penalty>
0.000

$$$$

  -OEChem-04052317293D

 83 91  0     1  0  0  0  0  0999 V2000
  -16.6888  -28.6215   23.7203 C   0  0  0  0  0  0  0  0  0  0  0  0
  -17.3502  -28.0972   22.6144 C   0  0  0  0  0  0  0  0  0  0  0  0
  -27.4474  -12.1653   20.5320 C   0  0  0  0  0  0  0  0  0  0  0  0
  -25.2879  -13.1821   20.9062 C   0  0  0  0  0  0  0  0  0  0  0  0
  -17.2089  -29.7350   24.3788 C   0  0  0  0  0  0  0  0  0  0  0  0
  -18.5314  -28.6867   22.1656 C   0  0  0  0  0  0  0  0  0  0  0  0
  -22.1153  -25.2767   21.0829 C   0  0  0  0  0  0  0  0  0  0  0  0
  -26.9680  -10.9591   21.0428 C   0  0  0  0  0  0  0  0  0  0  0  0
  -24.8085  -11.9758   21.4170 C   0  0  0  0  0  0  0  0  0  0  0  0
  -22.0024  -24.5973   19.8707 C   0  0  0  0  0  0  0  0  0  0  0  0
  -23.7056   -9.0214   20.2024 C   0  0  0  0  0  0  0  0  0  0  0  0
  -22.4509   -8.5901   19.7719 C   0  0  0  0  0  0  0  0  0  0  0  0
  -23.6376  -26.0784   18.8952 C   0  0  0  0  0  0  0  0  0  0  0  0
  -21.6537   -8.6333   22.0522 C   0  0  0  0  0  0  0  0  0  0  0  0
  -27.0974  -21.1030   18.2813 C   0  0  0  0  0  0  0  0  0  0  0  0
  -25.0862  -21.7936   18.9833 C   0  0  0  0  0  0  0  0  0  0  0  0
  -26.6073  -13.2768   20.4638 C   0  0  0  0  0  0  0  0  0  0  0  0
  -27.0711  -14.9513   18.5960 C   0  0  0  0  0  0  0  0  0  0  0  0
  -18.4022  -30.3326   23.9438 C   0  0  0  0  0  0  0  0  0  0  0  0
  -22.9836  -26.3707   21.2075 C   0  0  0  0  0  0  0  0  0  0  0  0
  -19.0672  -29.8101   22.8181 C   0  0  0  0  0  0  0  0  0  0  0  0
  -23.7616  -26.7684   20.1108 C   0  0  0  0  0  0  0  0  0  0  0  0
  -26.2659  -21.1309   17.1835 C   0  0  0  0  0  0  0  0  0  0  0  0
  -24.9934  -21.5677   17.6276 C   0  0  0  0  0  0  0  0  0  0  0  0
  -25.6486  -10.8644   21.4853 C   0  0  0  0  0  0  0  0  0  0  0  0
  -22.7614  -24.9999   18.7758 C   0  0  0  0  0  0  0  0  0  0  0  0
  -23.9344   -9.2586   21.5578 C   0  0  0  0  0  0  0  0  0  0  0  0
  -21.4249   -8.3961   20.6968 C   0  0  0  0  0  0  0  0  0  0  0  0
  -22.9084   -9.0646   22.4827 C   0  0  0  0  0  0  0  0  0  0  0  0
  -27.1021  -14.5232   19.9367 C   0  0  0  0  0  0  0  0  0  0  0  0
  -27.6585  -16.1927   18.6183 C   0  0  0  0  0  0  0  0  0  0  0  0
  -26.5573  -14.2864   17.4343 C   0  0  0  0  0  0  0  0  0  0  0  0
  -22.6207  -29.4586   21.8684 C   0  0  0  0  0  0  0  0  0  0  0  0
  -25.8645  -29.4421   21.8593 C   0  0  0  0  0  0  0  0  0  0  0  0
  -28.7513  -27.9659   20.7944 C   0  0  0  0  0  0  0  0  0  0  0  0
  -28.2577  -20.0369   23.3514 C   0  0  0  0  0  0  0  0  0  0  0  0
  -18.9005  -31.5634   24.6590 C   0  0  0  0  0  0  0  0  0  0  0  0
  -23.1138  -27.0762   22.5295 C   0  0  0  0  0  0  0  0  0  0  0  0
  -24.7236  -27.9240   20.1983 C   0  0  0  0  0  0  0  0  0  0  0  0
  -20.3563  -31.9013   24.3477 C   0  0  0  0  0  0  0  0  0  0  0  0
  -30.8607  -18.7902   21.0337 C   0  0  0  0  0  0  0  0  0  0  0  0
  -20.6129  -31.8240   22.8461 C   0  0  0  0  0  0  0  0  0  0  0  0
  -30.2048  -17.5479   20.4333 C   0  0  0  0  0  0  0  0  0  0  0  0
  -30.3426  -19.0822   22.4387 C   0  0  0  0  0  0  0  0  0  0  0  0
  -28.2051  -17.9513   21.9229 C   0  0  0  0  0  0  0  0  0  0  0  0
  -20.3643  -30.4066   22.3162 C   0  0  1  0  0  0  0  0  0  0  0  0
  -23.6486  -28.4988   22.3975 C   0  0  1  0  0  0  0  0  0  0  0  0
  -28.6710  -17.6560   20.4893 C   0  0  2  0  0  0  0  0  0  0  0  0
  -26.6432  -20.7710   15.8022 C   0  0  0  0  0  0  0  0  0  0  0  0
  -31.2465  -28.2017   20.9186 C   0  0  0  0  0  0  0  0  0  0  0  0
  -25.7458  -31.7321   19.8463 C   0  0  0  0  0  0  0  0  0  0  0  0
  -28.1488  -31.2864   19.3029 C   0  0  0  0  0  0  0  0  0  0  0  0
  -27.5019  -31.9828   21.6093 C   0  0  0  0  0  0  0  0  0  0  0  0
  -26.3365  -21.5058   23.8316 C   0  0  0  0  0  0  0  0  0  0  0  0
  -29.0508  -25.3330   22.1125 C   0  0  0  0  0  0  0  0  0  0  0  0
  -23.7584  -21.7545   16.7830 C   0  0  0  0  0  0  0  0  0  0  0  0
  -23.7813  -23.0253   15.9310 C   0  0  0  0  0  0  0  0  0  0  0  0
  -26.8783  -21.6192   20.7176 C   0  0  0  0  0  0  0  0  0  0  0  0
  -26.4710  -20.4476   21.6073 C   0  0  0  0  0  0  0  0  0  0  0  0
  -23.8101  -24.3058   16.7573 C   0  0  0  0  0  0  0  0  0  1  0  0
  -26.9317  -29.6521   20.8124 C   0  0  1  0  0  0  0  0  0  0  0  0
  -30.0122  -27.5658   21.5390 C   0  0  2  0  0  0  0  0  0  0  0  0
  -27.0626  -31.1427   20.3902 C   0  0  0  0  0  0  0  0  0  0  0  0
  -27.6648  -15.4197   20.7514 N   0  0  0  0  0  0  0  0  0  0  0  0
  -26.3697  -21.5081   19.3696 N   0  0  0  0  0  0  0  0  0  0  0  0
  -27.9929  -16.4235   19.9203 N   0  0  0  0  0  0  0  0  0  0  0  0
  -24.8105  -28.5858   21.5105 N   0  0  0  0  0  0  0  0  0  0  0  0
  -28.8807  -19.1367   22.4714 N   0  0  0  0  0  0  0  0  0  0  0  0
  -27.9165  -17.0984   17.6510 N   0  0  0  0  0  0  0  0  0  0  0  0
  -25.9867  -13.0157   17.5894 N   0  0  0  0  0  0  0  0  0  0  0  0
  -21.4787  -29.5426   22.6418 N   0  0  0  0  0  0  0  0  0  0  0  0
  -28.1564  -29.0755   21.3566 N   0  0  0  0  0  0  0  0  0  0  0  0
  -27.0164  -20.5598   22.9584 N   0  0  0  0  0  0  0  0  0  0  0  0
  -30.1822  -26.0855   21.5119 N   0  3  0  0  0  0  0  0  0  0  0  0
  -26.6175  -14.7968   16.2901 O   0  0  0  0  0  0  0  0  0  0  0  0
  -22.8476  -30.0783   20.8359 O   0  0  0  0  0  0  0  0  0  0  0  0
  -25.9661  -30.0111   22.9491 O   0  0  0  0  0  0  0  0  0  0  0  0
  -28.3376  -27.3573   19.8100 O   0  0  0  0  0  0  0  0  0  0  0  0
  -28.7855  -20.3623   24.4225 O   0  0  0  0  0  0  0  0  0  0  0  0
  -25.1804   -9.6875   21.9835 O   0  0  0  0  0  0  0  0  0  0  0  0
  -22.6526  -24.3390   17.5913 O   0  0  0  0  0  0  0  0  0  1  0  0
  -20.2197   -7.9834   20.2831 F   0  0  0  0  0  0  0  0  0  0  0  0
  -23.1219   -9.2919   23.7860 F   0  0  0  0  0  0  0  0  0  0  0  0
  1  2  1  0  0  0  0
  1  5  2  0  0  0  0
  2  6  2  0  0  0  0
  3  8  2  0  0  0  0
  3 17  1  0  0  0  0
  4  9  1  0  0  0  0
  4 17  2  0  0  0  0
  5 19  1  0  0  0  0
  6 21  1  0  0  0  0
  7 10  2  0  0  0  0
  7 20  1  0  0  0  0
  8 25  1  0  0  0  0
  9 25  2  0  0  0  0
 10 26  1  0  0  0  0
 11 12  2  0  0  0  0
 11 27  1  0  0  0  0
 12 28  1  0  0  0  0
 13 22  1  0  0  0  0
 13 26  2  0  0  0  0
 14 28  2  0  0  0  0
 14 29  1  0  0  0  0
 15 23  2  0  0  0  0
 15 65  1  0  0  0  0
 16 24  2  0  0  0  0
 16 65  1  0  0  0  0
 17 30  1  0  0  0  0
 18 30  1  0  0  0  0
 18 31  2  0  0  0  0
 18 32  1  0  0  0  0
 19 21  2  0  0  0  0
 19 37  1  0  0  0  0
 20 22  2  0  0  0  0
 20 38  1  0  0  0  0
 21 46  1  0  0  0  0
 22 39  1  0  0  0  0
 23 24  1  0  0  0  0
 23 49  1  0  0  0  0
 24 56  1  0  0  0  0
 25 80  1  0  0  0  0
 26 81  1  0  0  0  0
 27 29  2  0  0  0  0
 27 80  1  0  0  0  0
 28 82  1  0  0  0  0
 29 83  1  0  0  0  0
 30 64  2  0  0  0  0
 31 66  1  0  0  0  0
 31 69  1  0  0  0  0
 32 70  1  0  0  0  0
 32 75  2  0  0  0  0
 33 47  1  0  0  0  0
 33 71  1  0  0  0  0
 33 76  2  0  0  0  0
 34 61  1  0  0  0  0
 34 67  1  0  0  0  0
 34 77  2  0  0  0  0
 35 62  1  0  0  0  0
 35 72  1  0  0  0  0
 35 78  2  0  0  0  0
 36 68  1  0  0  0  0
 36 73  1  0  0  0  0
 36 79  2  0  0  0  0
 37 40  1  0  0  0  0
 38 47  1  0  0  0  0
 39 67  1  0  0  0  0
 40 42  1  0  0  0  0
 41 43  1  0  0  0  0
 41 44  1  0  0  0  0
 42 46  1  0  0  0  0
 43 48  1  0  0  0  0
 44 68  1  0  0  0  0
 45 48  1  0  0  0  0
 45 68  1  0  0  0  0
 46 71  1  0  0  0  0
 47 67  1  0  0  0  0
 48 66  1  0  0  0  0
 50 62  1  0  0  0  0
 51 63  1  0  0  0  0
 52 63  1  0  0  0  0
 53 63  1  0  0  0  0
 54 73  1  0  0  0  0
 55 74  1  0  0  0  0
 56 57  1  0  0  0  0
 57 60  1  0  0  0  0
 58 59  1  0  0  0  0
 58 65  1  0  0  0  0
 59 73  1  0  0  0  0
 60 81  1  0  0  0  0
 61 63  1  0  0  0  0
 61 72  1  0  0  0  0
 62 74  1  0  0  0  0
 64 66  1  0  0  0  0
M  CHG  1  74   1
M  ISO  4  36 100  60 101  73 100  81 101
M  END
> <Batch ID>
0049

> <Smiles>
CNC(C)C(=O)NC(C(=O)N1Cc2cc([101O:1][101CH2:1]CCc3cn(CC[100N:0](C)[100C:0](=O)N4CCCC(n5nc(-c6ccc(Oc7ccc(F)cc7F)cc6)c(C(N)=O)c5N)C4)cc3C)ccc2CC1C(=O)NC1CCCc2ccccc21)C(C)(C)C

> <Shape>
0.240

> <Color>
0.070

> <Negative vol penalty>
0.000

$$$$

  -OEChem-04052317293D

 84 92  0     1  0  0  0  0  0999 V2000
  -26.3289  -29.8077   23.3328 C   0  0  0  0  0  0  0  0  0  0  0  0
  -26.6354  -28.5372   23.8096 C   0  0  0  0  0  0  0  0  0  0  0  0
  -21.9267  -23.3423   21.2300 C   0  0  0  0  0  0  0  0  0  0  0  0
  -20.9391  -21.9113   22.9075 C   0  0  0  0  0  0  0  0  0  0  0  0
  -26.0480  -29.9943   21.9800 C   0  0  0  0  0  0  0  0  0  0  0  0
  -26.6602  -27.4523   22.9339 C   0  0  0  0  0  0  0  0  0  0  0  0
  -30.0471  -21.2352   21.8423 C   0  0  0  0  0  0  0  0  0  0  0  0
  -20.8621  -24.2335   21.3633 C   0  0  0  0  0  0  0  0  0  0  0  0
  -19.8744  -22.8026   23.0409 C   0  0  0  0  0  0  0  0  0  0  0  0
  -29.7766  -19.8838   21.6313 C   0  0  0  0  0  0  0  0  0  0  0  0
  -19.8992  -26.6603   23.5119 C   0  0  0  0  0  0  0  0  0  0  0  0
  -20.1984  -28.0203   23.5925 C   0  0  0  0  0  0  0  0  0  0  0  0
  -28.4262  -13.5907   21.3356 C   0  0  0  0  0  0  0  0  0  0  0  0
  -28.6922  -14.8720   21.7856 C   0  0  0  0  0  0  0  0  0  0  0  0
  -29.3524  -20.3388   19.3006 C   0  0  0  0  0  0  0  0  0  0  0  0
  -18.8867  -28.4268   21.6048 C   0  0  0  0  0  0  0  0  0  0  0  0
  -21.9652  -22.1811   22.0020 C   0  0  0  0  0  0  0  0  0  0  0  0
  -24.2748  -21.2670   22.5832 C   0  0  0  0  0  0  0  0  0  0  0  0
  -26.0788  -28.9128   21.0855 C   0  0  0  0  0  0  0  0  0  0  0  0
  -29.9615  -22.1518   20.7845 C   0  0  0  0  0  0  0  0  0  0  0  0
  -26.3782  -27.6244   21.5681 C   0  0  0  0  0  0  0  0  0  0  0  0
  -29.6248  -21.7008   19.5002 C   0  0  0  0  0  0  0  0  0  0  0  0
  -19.8359  -23.9636   22.2688 C   0  0  0  0  0  0  0  0  0  0  0  0
  -29.4264  -19.4359   20.3609 C   0  0  0  0  0  0  0  0  0  0  0  0
  -19.0938  -26.1835   22.4776 C   0  0  0  0  0  0  0  0  0  0  0  0
  -19.6922  -28.9035   22.6390 C   0  0  0  0  0  0  0  0  0  0  0  0
  -18.5875  -27.0668   21.5241 C   0  0  0  0  0  0  0  0  0  0  0  0
  -23.0645  -21.2599   21.8643 C   0  0  0  0  0  0  0  0  0  0  0  0
  -28.4476  -13.3669   19.9736 C   0  0  0  0  0  0  0  0  0  0  0  0
  -28.9625  -15.8445   20.8439 C   0  0  0  0  0  0  0  0  0  0  0  0
  -24.9766  -20.1968   22.0847 C   0  0  0  0  0  0  0  0  0  0  0  0
  -24.7244  -22.1610   23.6100 C   0  0  0  0  0  0  0  0  0  0  0  0
  -28.1854  -24.7170   20.1774 C   0  0  0  0  0  0  0  0  0  0  0  0
  -30.1422  -24.9817   17.6038 C   0  0  0  0  0  0  0  0  0  0  0  0
  -32.2406  -23.4510   15.3902 C   0  0  0  0  0  0  0  0  0  0  0  0
  -23.2049  -15.1692   19.5469 C   0  0  0  0  0  0  0  0  0  0  0  0
  -25.7219  -29.1555   19.6404 C   0  0  0  0  0  0  0  0  0  0  0  0
  -30.2824  -23.6018   21.0228 C   0  0  0  0  0  0  0  0  0  0  0  0
  -29.5388  -22.6411   18.3267 C   0  0  0  0  0  0  0  0  0  0  0  0
  -26.1363  -28.0175   18.7112 C   0  0  0  0  0  0  0  0  0  0  0  0
  -25.4911  -17.5793   18.1108 C   0  0  0  0  0  0  0  0  0  0  0  0
  -25.7352  -26.6708   19.3047 C   0  0  0  0  0  0  0  0  0  0  0  0
  -25.2351  -18.8037   18.9915 C   0  0  0  0  0  0  0  0  0  0  0  0
  -24.2000  -16.8117   17.8425 C   0  0  0  0  0  0  0  0  0  0  0  0
  -23.2092  -17.6144   19.9514 C   0  0  0  0  0  0  0  0  0  0  0  0
  -26.4393  -26.4268   20.6449 C   0  0  1  0  0  0  0  0  0  0  0  0
  -29.6634  -24.5297   19.9820 C   0  0  1  0  0  0  0  0  0  0  0  0
  -24.4795  -18.4205   20.2778 C   0  0  2  0  0  0  0  0  0  0  0  0
  -33.6604  -23.9200   13.3748 C   0  0  0  0  0  0  0  0  0  0  0  0
  -27.6361  -25.0902   15.8667 C   0  0  0  0  0  0  0  0  0  0  0  0
  -29.0774  -24.6013   13.8787 C   0  0  0  0  0  0  0  0  0  0  0  0
  -29.4397  -26.6880   15.1968 C   0  0  0  0  0  0  0  0  0  0  0  0
  -34.7108  -22.6213   16.7933 C   0  0  0  0  0  0  0  0  0  0  0  0
  -26.7402   -9.9899   19.7609 C   0  0  0  0  0  0  0  0  0  0  0  0
  -28.1658  -12.0056   19.4367 C   0  0  0  0  0  0  0  0  0  0  0  0
  -29.2608  -17.2487   21.2801 C   0  0  0  0  0  0  0  0  0  1  0  0
  -24.4192  -12.0869   19.7573 C   0  0  0  0  0  0  0  0  0  0  0  0
  -23.2710  -12.7491   19.0033 C   0  0  0  0  0  0  0  0  0  0  0  0
  -25.7227  -12.1207   18.9696 C   0  0  0  0  0  0  0  0  0  0  0  0
  -30.1202  -24.4631   16.1862 C   0  0  1  0  0  0  0  0  0  0  0  0
  -33.6253  -23.8238   14.8921 C   0  0  2  0  0  0  0  0  0  0  0  0
  -29.0680  -25.1930   15.3044 C   0  0  0  0  0  0  0  0  0  0  0  0
  -22.9980  -20.2642   20.9765 N   0  0  0  0  0  0  0  0  0  0  0  0
  -28.7151  -14.3377   19.0747 N   0  0  0  0  0  0  0  0  0  0  0  0
  -28.9770  -15.5968   19.5171 N   0  0  0  0  0  0  0  0  0  0  0  0
  -24.1754  -19.6357   21.1342 N   0  0  0  0  0  0  0  0  0  0  0  0
  -29.8556  -24.0503   18.6118 N   0  0  0  0  0  0  0  0  0  0  0  0
  -23.5396  -16.4610   19.1078 N   0  0  0  0  0  0  0  0  0  0  0  0
  -26.1948  -19.6903   22.3710 N   0  0  0  0  0  0  0  0  0  0  0  0
  -23.8782  -23.2069   24.0028 N   0  0  0  0  0  0  0  0  0  0  0  0
  -27.8123  -26.0236   20.4285 N   0  0  0  0  0  0  0  0  0  0  0  0
  -31.4890  -24.5668   15.6923 N   0  0  0  0  0  0  0  0  0  0  0  0
  -23.5459  -14.1329   18.6863 N   0  0  0  0  0  0  0  0  0  0  0  0
  -34.6225  -22.8029   15.3215 N   0  3  0  0  0  0  0  0  0  0  0  0
  -26.8143  -11.4945   19.7983 N   0  3  1  0  0  0  0  0  0  0  0  0
  -25.8502  -22.0460   24.1511 O   0  0  0  0  0  0  0  0  0  0  0  0
  -27.4387  -23.7482   20.1042 O   0  0  0  0  0  0  0  0  0  0  0  0
  -30.4110  -26.1679   17.8097 O   0  0  0  0  0  0  0  0  0  0  0  0
  -31.8622  -22.2865   15.4968 O   0  0  0  0  0  0  0  0  0  0  0  0
  -22.6479  -14.9545   20.6289 O   0  0  0  0  0  0  0  0  0  0  0  0
  -18.7969  -24.8332   22.3993 O   0  0  0  0  0  0  0  0  0  0  0  0
  -29.1612  -18.1176   20.1524 O   0  0  0  0  0  0  0  0  0  1  0  0
  -19.9783  -30.2097   22.7175 F   0  0  0  0  0  0  0  0  0  0  0  0
  -17.8122  -26.6148   20.5289 F   0  0  0  0  0  0  0  0  0  0  0  0
  1  2  1  0  0  0  0
  1  5  2  0  0  0  0
  2  6  2  0  0  0  0
  3  8  2  0  0  0  0
  3 17  1  0  0  0  0
  4  9  1  0  0  0  0
  4 17  2  0  0  0  0
  5 19  1  0  0  0  0
  6 21  1  0  0  0  0
  7 10  2  0  0  0  0
  7 20  1  0  0  0  0
  8 23  1  0  0  0  0
  9 23  2  0  0  0  0
 10 24  1  0  0  0  0
 11 12  2  0  0  0  0
 11 25  1  0  0  0  0
 12 26  1  0  0  0  0
 13 14  2  0  0  0  0
 13 29  1  0  0  0  0
 14 30  1  0  0  0  0
 15 22  1  0  0  0  0
 15 24  2  0  0  0  0
 16 26  2  0  0  0  0
 16 27  1  0  0  0  0
 17 28  1  0  0  0  0
 18 28  1  0  0  0  0
 18 31  2  0  0  0  0
 18 32  1  0  0  0  0
 19 21  2  0  0  0  0
 19 37  1  0  0  0  0
 20 22  2  0  0  0  0
 20 38  1  0  0  0  0
 21 46  1  0  0  0  0
 22 39  1  0  0  0  0
 23 81  1  0  0  0  0
 24 82  1  0  0  0  0
 25 27  2  0  0  0  0
 25 81  1  0  0  0  0
 26 83  1  0  0  0  0
 27 84  1  0  0  0  0
 28 63  2  0  0  0  0
 29 55  1  0  0  0  0
 29 64  2  0  0  0  0
 30 56  1  0  0  0  0
 30 65  2  0  0  0  0
 31 66  1  0  0  0  0
 31 69  1  0  0  0  0
 32 70  1  0  0  0  0
 32 76  2  0  0  0  0
 33 47  1  0  0  0  0
 33 71  1  0  0  0  0
 33 77  2  0  0  0  0
 34 60  1  0  0  0  0
 34 67  1  0  0  0  0
 34 78  2  0  0  0  0
 35 61  1  0  0  0  0
 35 72  1  0  0  0  0
 35 79  2  0  0  0  0
 36 68  1  0  0  0  0
 36 73  1  0  0  0  0
 36 80  2  0  0  0  0
 37 40  1  0  0  0  0
 38 47  1  0  0  0  0
 39 67  1  0  0  0  0
 40 42  1  0  0  0  0
 41 43  1  0  0  0  0
 41 44  1  0  0  0  0
 42 46  1  0  0  0  0
 43 48  1  0  0  0  0
 44 68  1  0  0  0  0
 45 48  1  0  0  0  0
 45 68  1  0  0  0  0
 46 71  1  0  0  0  0
 47 67  1  0  0  0  0
 48 66  1  0  0  0  0
 49 61  1  0  0  0  0
 50 62  1  0  0  0  0
 51 62  1  0  0  0  0
 52 62  1  0  0  0  0
 53 74  1  0  0  0  0
 54 75  1  0  0  0  0
 55 75  1  0  0  0  0
 56 82  1  0  0  0  0
 57 58  1  0  0  0  0
 57 59  1  0  0  0  0
 58 73  1  0  0  0  0
 59 75  1  0  0  0  0
 60 62  1  0  0  0  0
 60 72  1  0  0  0  0
 61 74  1  0  0  0  0
 63 66  1  0  0  0  0
 64 65  1  0  0  0  0
M  CHG  2  74   1  75   1
M  ISO  4  36 100  56 101  73 100  82 101
M  END
> <Batch ID>
0049

> <Smiles>
CNC(C)C(=O)NC(C(=O)N1Cc2cc([101O:1][101CH2:1]c3ccc(CN(C)CCC[100NH:0][100C:0](=O)N4CCCC(n5nc(-c6ccc(Oc7ccc(F)cc7F)cc6)c(C(N)=O)c5N)C4)nn3)ccc2CC1C(=O)NC1CCCc2ccccc21)C(C)(C)C

> <Shape>
0.213

> <Color>
0.052

> <Negative vol penalty>
0.000

$$$$

  -OEChem-04052317293D

 86 94  0     1  0  0  0  0  0999 V2000
  -35.6101   -9.9540   33.7053 C   0  0  0  0  0  0  0  0  0  0  0  0
  -34.3815   -9.9567   33.0527 C   0  0  0  0  0  0  0  0  0  0  0  0
  -23.0765   -9.8872   19.9686 C   0  0  0  0  0  0  0  0  0  0  0  0
  -23.9520   -9.8862   22.2204 C   0  0  0  0  0  0  0  0  0  0  0  0
  -35.7597  -10.6392   34.9103 C   0  0  0  0  0  0  0  0  0  0  0  0
  -33.3013  -10.6439   33.6054 C   0  0  0  0  0  0  0  0  0  0  0  0
  -28.8809  -13.6048   30.5725 C   0  0  0  0  0  0  0  0  0  0  0  0
  -22.3708   -8.7156   20.2425 C   0  0  0  0  0  0  0  0  0  0  0  0
  -23.2463   -8.7147   22.4944 C   0  0  0  0  0  0  0  0  0  0  0  0
  -27.5821  -13.2426   30.2178 C   0  0  0  0  0  0  0  0  0  0  0  0
  -20.0706   -7.8409   23.2505 C   0  0  0  0  0  0  0  0  0  0  0  0
  -19.3753   -7.7722   24.4578 C   0  0  0  0  0  0  0  0  0  0  0  0
  -26.7394  -14.3673   32.1784 C   0  0  0  0  0  0  0  0  0  0  0  0
  -20.6932   -5.8543   25.1076 C   0  0  0  0  0  0  0  0  0  0  0  0
  -24.1691  -16.1938   27.2334 C   0  0  0  0  0  0  0  0  0  0  0  0
  -23.8672  -10.4725   20.9576 C   0  0  0  0  0  0  0  0  0  0  0  0
  -24.1492  -13.0056   20.8499 C   0  0  0  0  0  0  0  0  0  0  0  0
  -34.6834  -11.3431   35.4731 C   0  0  0  0  0  0  0  0  0  0  0  0
  -29.1200  -14.3429   31.7406 C   0  0  0  0  0  0  0  0  0  0  0  0
  -33.4362  -11.3381   34.8197 C   0  0  0  0  0  0  0  0  0  0  0  0
  -28.0418  -14.7398   32.5443 C   0  0  0  0  0  0  0  0  0  0  0  0
  -24.4180  -15.2761   26.2333 C   0  0  0  0  0  0  0  0  0  0  0  0
  -22.4557   -8.1294   21.5054 C   0  0  0  0  0  0  0  0  0  0  0  0
  -26.5114  -13.6214   31.0222 C   0  0  0  0  0  0  0  0  0  0  0  0
  -21.0771   -6.9163   22.9717 C   0  0  0  0  0  0  0  0  0  0  0  0
  -19.6866   -6.7789   25.3863 C   0  0  0  0  0  0  0  0  0  0  0  0
  -21.3884   -5.9230   23.9003 C   0  0  0  0  0  0  0  0  0  0  0  0
  -24.5969  -11.6824   20.6751 C   0  0  0  0  0  0  0  0  0  0  0  0
  -24.1976  -13.9553   26.5668 C   0  0  0  0  0  0  0  0  0  0  0  0
  -25.2054  -13.7823   20.4405 C   0  0  0  0  0  0  0  0  0  0  0  0
  -23.5606  -14.5398   28.6690 C   0  0  0  0  0  0  0  0  0  0  0  0
  -22.8912  -13.4893   21.3388 C   0  0  0  0  0  0  0  0  0  0  0  0
  -30.7304  -13.8241   34.4316 C   0  0  0  0  0  0  0  0  0  0  0  0
  -29.9694  -16.9210   35.0254 C   0  0  0  0  0  0  0  0  0  0  0  0
  -27.8799  -19.5548   34.4386 C   0  0  0  0  0  0  0  0  0  0  0  0
  -30.8193  -14.6096   20.7816 C   0  0  0  0  0  0  0  0  0  0  0  0
  -34.8802  -12.0297   36.8015 C   0  0  0  0  0  0  0  0  0  0  0  0
  -30.5244  -14.7486   32.0952 C   0  0  0  0  0  0  0  0  0  0  0  0
  -28.2433  -15.5502   33.7978 C   0  0  0  0  0  0  0  0  0  0  0  0
  -33.7882  -13.0445   37.1303 C   0  0  0  0  0  0  0  0  0  0  0  0
  -29.4608  -12.5675   18.0092 C   0  0  0  0  0  0  0  0  0  0  0  0
  -32.4093  -12.4524   36.8568 C   0  0  0  0  0  0  0  0  0  0  0  0
  -28.0633  -12.2102   18.5125 C   0  0  0  0  0  0  0  0  0  0  0  0
  -30.4384  -12.7889   19.1593 C   0  0  0  0  0  0  0  0  0  0  0  0
  -28.5820  -13.4383   20.6580 C   0  0  0  0  0  0  0  0  0  0  0  0
  -32.2476  -12.0924   35.3749 C   0  0  1  0  0  0  0  0  0  0  0  0
  -30.6998  -15.0605   33.5782 C   0  0  1  0  0  0  0  0  0  0  0  0
  -27.5612  -13.2543   19.5250 C   0  0  2  0  0  0  0  0  0  0  0  0
  -24.4332  -12.8744   25.5639 C   0  0  0  0  0  0  0  0  0  0  0  0
  -27.4898  -21.9446   35.0974 C   0  0  0  0  0  0  0  0  0  0  0  0
  -28.8086  -15.9942   37.6906 C   0  0  0  0  0  0  0  0  0  0  0  0
  -27.6191  -18.1909   37.8570 C   0  0  0  0  0  0  0  0  0  0  0  0
  -30.1122  -18.1253   37.8052 C   0  0  0  0  0  0  0  0  0  0  0  0
  -31.1752  -16.4450   22.3891 C   0  0  0  0  0  0  0  0  0  0  0  0
  -28.2535  -20.5031   31.6601 C   0  0  0  0  0  0  0  0  0  0  0  0
  -24.8921  -15.7080   24.8939 C   0  0  0  0  0  0  0  0  0  0  0  0
  -23.0779  -14.1259   30.0380 C   0  0  0  0  0  0  0  0  0  0  0  0
  -28.3032  -15.5190   23.1938 C   0  0  0  0  0  0  0  0  0  0  0  0
  -28.8570  -15.8333   21.8083 C   0  0  0  0  0  0  0  0  0  0  0  0
  -26.8125  -15.8139   23.3002 C   0  0  0  0  0  0  0  0  0  0  0  0
  -24.1932  -14.1492   31.0776 C   0  0  0  0  0  0  0  0  0  1  0  0
  -28.8151  -17.6293   35.6925 C   0  0  1  0  0  0  0  0  0  0  0  0
  -28.1611  -21.0086   34.1044 C   0  0  2  0  0  0  0  0  0  0  0  0
  -28.8348  -17.4680   37.2388 C   0  0  0  0  0  0  0  0  0  0  0  0
  -23.7381  -15.8594   28.4673 N   0  0  0  0  0  0  0  0  0  0  0  0
  -25.8405  -11.6184   20.1921 N   0  0  0  0  0  0  0  0  0  0  0  0
  -23.7676  -13.5500   27.7797 N   0  0  0  0  0  0  0  0  0  0  0  0
  -26.1833  -12.9111   20.0598 N   0  0  0  0  0  0  0  0  0  0  0  0
  -29.6355  -15.9170   34.1054 N   0  0  0  0  0  0  0  0  0  0  0  0
  -29.9175  -13.7531   20.1289 N   0  0  0  0  0  0  0  0  0  0  0  0
  -25.3837  -15.1187   20.3725 N   0  0  0  0  0  0  0  0  0  0  0  0
  -21.9171  -12.5549   21.7163 N   0  0  0  0  0  0  0  0  0  0  0  0
  -31.9912  -13.2816   34.5910 N   0  0  0  0  0  0  0  0  0  0  0  0
  -28.8667  -19.0138   35.2354 N   0  0  0  0  0  0  0  0  0  0  0  0
  -30.2816  -15.5280   21.6958 N   0  0  0  0  0  0  0  0  0  0  0  0
  -27.6587  -21.3329   32.7394 N   0  3  0  0  0  0  0  0  0  0  0  0
  -26.3398  -15.4382   24.6571 N   0  3  0  0  0  0  0  0  0  0  0  0
  -22.6323  -14.7138   21.4224 O   0  0  0  0  0  0  0  0  0  0  0  0
  -29.6875  -13.3951   34.9112 O   0  0  0  0  0  0  0  0  0  0  0  0
  -31.1245  -17.2515   35.3047 O   0  0  0  0  0  0  0  0  0  0  0  0
  -26.8826  -18.9597   34.0363 O   0  0  0  0  0  0  0  0  0  0  0  0
  -32.0348  -14.5628   20.5526 O   0  0  0  0  0  0  0  0  0  0  0  0
  -21.7670   -6.9863   21.7730 O   0  0  0  0  0  0  0  0  0  0  0  0
  -25.2428  -13.2686   30.6786 O   0  0  0  0  0  0  0  0  0  1  0  0
  -19.0199   -6.7140   26.5462 F   0  0  0  0  0  0  0  0  0  0  0  0
  -22.3552   -5.0327   23.6386 F   0  0  0  0  0  0  0  0  0  0  0  0
  1  2  1  0  0  0  0
  1  5  2  0  0  0  0
  2  6  2  0  0  0  0
  3  8  2  0  0  0  0
  3 16  1  0  0  0  0
  4  9  1  0  0  0  0
  4 16  2  0  0  0  0
  5 18  1  0  0  0  0
  6 20  1  0  0  0  0
  7 10  2  0  0  0  0
  7 19  1  0  0  0  0
  8 23  1  0  0  0  0
  9 23  2  0  0  0  0
 10 24  1  0  0  0  0
 11 12  2  0  0  0  0
 11 25  1  0  0  0  0
 12 26  1  0  0  0  0
 13 21  1  0  0  0  0
 13 24  2  0  0  0  0
 14 26  2  0  0  0  0
 14 27  1  0  0  0  0
 15 22  1  0  0  0  0
 15 65  2  0  0  0  0
 16 28  1  0  0  0  0
 17 28  1  0  0  0  0
 17 30  2  0  0  0  0
 17 32  1  0  0  0  0
 18 20  2  0  0  0  0
 18 37  1  0  0  0  0
 19 21  2  0  0  0  0
 19 38  1  0  0  0  0
 20 46  1  0  0  0  0
 21 39  1  0  0  0  0
 22 29  2  0  0  0  0
 22 56  1  0  0  0  0
 23 83  1  0  0  0  0
 24 84  1  0  0  0  0
 25 27  2  0  0  0  0
 25 83  1  0  0  0  0
 26 85  1  0  0  0  0
 27 86  1  0  0  0  0
 28 66  2  0  0  0  0
 29 49  1  0  0  0  0
 29 67  1  0  0  0  0
 30 68  1  0  0  0  0
 30 71  1  0  0  0  0
 31 57  1  0  0  0  0
 31 65  1  0  0  0  0
 31 67  2  0  0  0  0
 32 72  1  0  0  0  0
 32 78  2  0  0  0  0
 33 47  1  0  0  0  0
 33 73  1  0  0  0  0
 33 79  2  0  0  0  0
 34 62  1  0  0  0  0
 34 69  1  0  0  0  0
 34 80  2  0  0  0  0
 35 63  1  0  0  0  0
 35 74  1  0  0  0  0
 35 81  2  0  0  0  0
 36 70  1  0  0  0  0
 36 75  1  0  0  0  0
 36 82  2  0  0  0  0
 37 40  1  0  0  0  0
 38 47  1  0  0  0  0
 39 69  1  0  0  0  0
 40 42  1  0  0  0  0
 41 43  1  0  0  0  0
 41 44  1  0  0  0  0
 42 46  1  0  0  0  0
 43 48  1  0  0  0  0
 44 70  1  0  0  0  0
 45 48  1  0  0  0  0
 45 70  1  0  0  0  0
 46 73  1  0  0  0  0
 47 69  1  0  0  0  0
 48 68  1  0  0  0  0
 50 63  1  0  0  0  0
 51 64  1  0  0  0  0
 52 64  1  0  0  0  0
 53 64  1  0  0  0  0
 54 75  1  0  0  0  0
 55 76  1  0  0  0  0
 56 77  1  0  0  0  0
 57 61  1  0  0  0  0
 58 59  1  0  0  0  0
 58 60  1  0  0  0  0
 59 75  1  0  0  0  0
 60 77  1  0  0  0  0
 61 84  1  0  0  0  0
 62 64  1  0  0  0  0
 62 74  1  0  0  0  0
 63 76  1  0  0  0  0
 66 68  1  0  0  0  0
M  CHG  2  76   1  77   1
M  ISO  4  36 100  61 101  75 100  84 101
M  END
> <Batch ID>
0049

> <Smiles>
CNC(C)C(=O)NC(C(=O)N1Cc2cc([101O:1][101CH2:1]Cc3ncc(CNCCC[100N:0](C)[100C:0](=O)N4CCCC(n5nc(-c6ccc(Oc7ccc(F)cc7F)cc6)c(C(N)=O)c5N)C4)c(C)n3)ccc2CC1C(=O)NC1CCCc2ccccc21)C(C)(C)C

> <Shape>
0.162

> <Color>
0.179

> <Negative vol penalty>
0.000

$$$$

  -OEChem-04052317293D

 86 94  0     1  0  0  0  0  0999 V2000
  -23.3776   -8.2228   21.9836 C   0  0  0  0  0  0  0  0  0  0  0  0
  -24.5578   -8.9443   21.8353 C   0  0  0  0  0  0  0  0  0  0  0  0
  -23.1922  -27.1207   19.1159 C   0  0  0  0  0  0  0  0  0  0  0  0
  -23.4016  -26.5445   21.4528 C   0  0  0  0  0  0  0  0  0  0  0  0
  -22.2003   -8.6862   21.3978 C   0  0  0  0  0  0  0  0  0  0  0  0
  -24.5616  -10.1292   21.1002 C   0  0  0  0  0  0  0  0  0  0  0  0
  -27.9290  -15.1271   22.1901 C   0  0  0  0  0  0  0  0  0  0  0  0
  -21.8027  -27.1118   19.2382 C   0  0  0  0  0  0  0  0  0  0  0  0
  -22.0122  -26.5356   21.5751 C   0  0  0  0  0  0  0  0  0  0  0  0
  -29.1236  -15.5912   21.6412 C   0  0  0  0  0  0  0  0  0  0  0  0
  -19.5271  -28.8031   21.8962 C   0  0  0  0  0  0  0  0  0  0  0  0
  -18.9716  -29.4401   23.0058 C   0  0  0  0  0  0  0  0  0  0  0  0
  -27.8755  -16.9860   20.1194 C   0  0  0  0  0  0  0  0  0  0  0  0
  -17.9705  -27.3544   23.7019 C   0  0  0  0  0  0  0  0  0  0  0  0
  -23.9917  -26.8370   20.2232 C   0  0  0  0  0  0  0  0  0  0  0  0
  -26.2908  -27.9403   20.2900 C   0  0  0  0  0  0  0  0  0  0  0  0
  -22.1876   -9.8824   20.6633 C   0  0  0  0  0  0  0  0  0  0  0  0
  -26.6964  -15.5815   21.6995 C   0  0  0  0  0  0  0  0  0  0  0  0
  -23.3833  -10.6084   20.5029 C   0  0  0  0  0  0  0  0  0  0  0  0
  -26.6667  -16.5280   20.6654 C   0  0  0  0  0  0  0  0  0  0  0  0
  -21.2127  -26.8193   20.4678 C   0  0  0  0  0  0  0  0  0  0  0  0
  -29.0969  -16.5187   20.6038 C   0  0  0  0  0  0  0  0  0  0  0  0
  -19.3042  -27.4418   21.6893 C   0  0  0  0  0  0  0  0  0  0  0  0
  -18.1933  -28.7157   23.9087 C   0  0  0  0  0  0  0  0  0  0  0  0
  -18.5259  -26.7174   22.5922 C   0  0  0  0  0  0  0  0  0  0  0  0
  -25.4270  -26.8455   20.0973 C   0  0  0  0  0  0  0  0  0  0  0  0
  -34.0108  -21.9859   20.4114 C   0  0  0  0  0  0  0  0  0  0  0  0
  -33.8089  -20.8071   21.1428 C   0  0  0  0  0  0  0  0  0  0  0  0
  -27.5453  -27.4336   20.0535 C   0  0  0  0  0  0  0  0  0  0  0  0
  -25.9864  -29.2942   20.6506 C   0  0  0  0  0  0  0  0  0  0  0  0
  -24.1949  -14.2074   20.3001 C   0  0  0  0  0  0  0  0  0  0  0  0
  -22.8959  -17.1646   20.6004 C   0  0  0  0  0  0  0  0  0  0  0  0
  -23.3883  -20.5256   20.9293 C   0  0  0  0  0  0  0  0  0  0  0  0
  -29.4106  -21.6040   20.3258 C   0  0  0  0  0  0  0  0  0  0  0  0
  -20.9008  -10.3188   20.0088 C   0  0  0  0  0  0  0  0  0  0  0  0
  -25.4171  -15.0912   22.3203 C   0  0  0  0  0  0  0  0  0  0  0  0
  -25.3700  -17.0626   20.1167 C   0  0  0  0  0  0  0  0  0  0  0  0
  -20.9097  -11.7780   19.5605 C   0  0  0  0  0  0  0  0  0  0  0  0
  -29.8204  -24.0427   17.5715 C   0  0  0  0  0  0  0  0  0  0  0  0
  -22.2044  -12.1016   18.8217 C   0  0  0  0  0  0  0  0  0  0  0  0
  -28.7581  -25.0920   17.8948 C   0  0  0  0  0  0  0  0  0  0  0  0
  -29.4337  -22.6635   18.0968 C   0  0  0  0  0  0  0  0  0  0  0  0
  -28.0539  -23.6892   19.8740 C   0  0  0  0  0  0  0  0  0  0  0  0
  -23.4224  -11.9111   19.7337 C   0  0  1  0  0  0  0  0  0  0  0  0
  -24.2114  -15.2345   21.3966 C   0  0  1  0  0  0  0  0  0  0  0  0
  -28.4345  -25.0996   19.3990 C   0  0  2  0  0  0  0  0  0  0  0  0
  -34.9068  -22.2357   19.2738 C   0  0  0  0  0  0  0  0  0  0  0  0
  -22.8045  -22.9417   21.2736 C   0  0  0  0  0  0  0  0  0  0  0  0
  -27.6806  -21.0835   22.8350 C   0  0  0  0  0  0  0  0  0  0  0  0
  -29.7215  -19.6233   22.6730 C   0  0  0  0  0  0  0  0  0  0  0  0
  -22.3079  -17.0736   17.6078 C   0  0  0  0  0  0  0  0  0  0  0  0
  -21.9529  -19.5510   17.6729 C   0  0  0  0  0  0  0  0  0  0  0  0
  -20.4735  -18.0454   19.0022 C   0  0  0  0  0  0  0  0  0  0  0  0
  -23.5684  -20.2697   23.8722 C   0  0  0  0  0  0  0  0  0  0  0  0
  -34.4521  -19.4538   20.9736 C   0  0  0  0  0  0  0  0  0  0  0  0
  -33.5429  -18.2830   21.3634 C   0  0  0  0  0  0  0  0  0  0  0  0
  -32.2943  -18.1770   20.4867 C   0  0  0  0  0  0  0  0  0  0  0  0
  -31.6406  -22.9904   22.7195 C   0  0  0  0  0  0  0  0  0  0  0  0
  -30.2798  -23.1432   22.0449 C   0  0  0  0  0  0  0  0  0  0  0  0
  -31.3970  -17.0287   20.9283 C   0  0  0  0  0  0  0  0  0  1  0  0
  -22.8621  -18.4092   19.7467 C   0  0  1  0  0  0  0  0  0  0  0  0
  -22.7793  -21.5451   21.8748 C   0  0  2  0  0  0  0  0  0  0  0  0
  -29.2031  -21.0511   22.7863 C   0  0  0  0  0  0  0  0  0  0  0  0
  -21.9237  -18.2585   18.5162 C   0  0  0  0  0  0  0  0  0  0  0  0
  -26.0777  -25.7278   19.7639 N   0  0  0  0  0  0  0  0  0  0  0  0
  -33.2331  -22.9583   20.8955 N   0  0  0  0  0  0  0  0  0  0  0  0
  -32.9016  -21.0181   22.1004 N   0  0  0  0  0  0  0  0  0  0  0  0
  -27.3637  -26.1175   19.7452 N   0  0  0  0  0  0  0  0  0  0  0  0
  -32.6070  -22.3113   21.8917 N   0  0  0  0  0  0  0  0  0  0  0  0
  -24.1459  -16.5479   20.7525 N   0  0  0  0  0  0  0  0  0  0  0  0
  -29.0895  -22.7075   19.5184 N   0  0  0  0  0  0  0  0  0  0  0  0
  -28.7750  -27.9900   20.0812 N   0  0  0  0  0  0  0  0  0  0  0  0
  -24.6452  -29.6453   20.8566 N   0  0  0  0  0  0  0  0  0  0  0  0
  -23.5548  -13.0311   20.6406 N   0  0  0  0  0  0  0  0  0  0  0  0
  -22.5056  -19.5068   20.6392 N   0  0  0  0  0  0  0  0  0  0  0  0
  -29.6979  -21.8608   21.6750 N   0  0  0  0  0  0  0  0  0  0  0  0
  -23.5320  -21.5733   23.1607 N   0  3  0  0  0  0  0  0  0  0  0  0
  -26.8758  -30.1707   20.7701 O   0  0  0  0  0  0  0  0  0  0  0  0
  -24.7224  -14.4638   19.2241 O   0  0  0  0  0  0  0  0  0  0  0  0
  -21.8530  -16.7586   21.1193 O   0  0  0  0  0  0  0  0  0  0  0  0
  -24.5314  -20.6251   20.4888 O   0  0  0  0  0  0  0  0  0  0  0  0
  -29.4483  -20.4560   19.8648 O   0  0  0  0  0  0  0  0  0  0  0  0
  -19.8570  -26.8107   20.5876 O   0  0  0  0  0  0  0  0  0  0  0  0
  -30.2615  -16.9729   20.0659 O   0  0  0  0  0  0  0  0  0  1  0  0
  -17.6613  -29.3272   24.9751 F   0  0  0  0  0  0  0  0  0  0  0  0
  -18.3093  -25.4091   22.3994 F   0  0  0  0  0  0  0  0  0  0  0  0
  1  2  1  0  0  0  0
  1  5  2  0  0  0  0
  2  6  2  0  0  0  0
  3  8  2  0  0  0  0
  3 15  1  0  0  0  0
  4  9  1  0  0  0  0
  4 15  2  0  0  0  0
  5 17  1  0  0  0  0
  6 19  1  0  0  0  0
  7 10  2  0  0  0  0
  7 18  1  0  0  0  0
  8 21  1  0  0  0  0
  9 21  2  0  0  0  0
 10 22  1  0  0  0  0
 11 12  2  0  0  0  0
 11 23  1  0  0  0  0
 12 24  1  0  0  0  0
 13 20  1  0  0  0  0
 13 22  2  0  0  0  0
 14 24  2  0  0  0  0
 14 25  1  0  0  0  0
 15 26  1  0  0  0  0
 16 26  1  0  0  0  0
 16 29  2  0  0  0  0
 16 30  1  0  0  0  0
 17 19  2  0  0  0  0
 17 35  1  0  0  0  0
 18 20  2  0  0  0  0
 18 36  1  0  0  0  0
 19 44  1  0  0  0  0
 20 37  1  0  0  0  0
 21 83  1  0  0  0  0
 22 84  1  0  0  0  0
 23 25  2  0  0  0  0
 23 83  1  0  0  0  0
 24 85  1  0  0  0  0
 25 86  1  0  0  0  0
 26 65  2  0  0  0  0
 27 28  1  0  0  0  0
 27 47  1  0  0  0  0
 27 66  2  0  0  0  0
 28 55  1  0  0  0  0
 28 67  2  0  0  0  0
 29 68  1  0  0  0  0
 29 72  1  0  0  0  0
 30 73  1  0  0  0  0
 30 78  2  0  0  0  0
 31 45  1  0  0  0  0
 31 74  1  0  0  0  0
 31 79  2  0  0  0  0
 32 61  1  0  0  0  0
 32 70  1  0  0  0  0
 32 80  2  0  0  0  0
 33 62  1  0  0  0  0
 33 75  1  0  0  0  0
 33 81  2  0  0  0  0
 34 71  1  0  0  0  0
 34 76  1  0  0  0  0
 34 82  2  0  0  0  0
 35 38  1  0  0  0  0
 36 45  1  0  0  0  0
 37 70  1  0  0  0  0
 38 40  1  0  0  0  0
 39 41  1  0  0  0  0
 39 42  1  0  0  0  0
 40 44  1  0  0  0  0
 41 46  1  0  0  0  0
 42 71  1  0  0  0  0
 43 46  1  0  0  0  0
 43 71  1  0  0  0  0
 44 74  1  0  0  0  0
 45 70  1  0  0  0  0
 46 68  1  0  0  0  0
 48 62  1  0  0  0  0
 49 63  1  0  0  0  0
 50 63  1  0  0  0  0
 51 64  1  0  0  0  0
 52 64  1  0  0  0  0
 53 64  1  0  0  0  0
 54 77  1  0  0  0  0
 55 56  1  0  0  0  0
 56 57  1  0  0  0  0
 57 60  1  0  0  0  0
 58 59  1  0  0  0  0
 58 69  1  0  0  0  0
 59 76  1  0  0  0  0
 60 84  1  0  0  0  0
 61 64  1  0  0  0  0
 61 75  1  0  0  0  0
 62 77  1  0  0  0  0
 63 76  1  0  0  0  0
 65 68  1  0  0  0  0
 66 69  1  0  0  0  0
 67 69  1  0  0  0  0
M  CHG  1  77   1
M  ISO  4  34 100  60 101  76 100  84 101
M  END
> <Batch ID>
0049

> <Smiles>
CNC(C)C(=O)NC(C(=O)N1Cc2cc([101O:1][101CH2:1]CCCc3nn(CC[100N:0](C(C)C)[100C:0](=O)N4CCCC(n5nc(-c6ccc(Oc7ccc(F)cc7F)cc6)c(C(N)=O)c5N)C4)nc3C)ccc2CC1C(=O)NC1CCCc2ccccc21)C(C)(C)C

> <Shape>
0.241

> <Color>
0.066

> <Negative vol penalty>
0.000

$$$$

  -OEChem-04052317293D

 84 92  0     1  0  0  0  0  0999 V2000
  -27.0890  -23.6182   17.5004 C   0  0  0  0  0  0  0  0  0  0  0  0
  -25.9202  -24.1284   18.0563 C   0  0  0  0  0  0  0  0  0  0  0  0
  -28.4479  -16.4579   21.1249 C   0  0  0  0  0  0  0  0  0  0  0  0
  -29.4608  -17.9312   19.5000 C   0  0  0  0  0  0  0  0  0  0  0  0
  -28.3206  -23.8992   18.0903 C   0  0  0  0  0  0  0  0  0  0  0  0
  -25.9823  -24.9189   19.2033 C   0  0  0  0  0  0  0  0  0  0  0  0
  -23.0461  -29.0329   18.8885 C   0  0  0  0  0  0  0  0  0  0  0  0
  -29.5380  -15.5939   21.0211 C   0  0  0  0  0  0  0  0  0  0  0  0
  -30.5510  -17.0672   19.3962 C   0  0  0  0  0  0  0  0  0  0  0  0
  -21.6783  -28.8561   19.0931 C   0  0  0  0  0  0  0  0  0  0  0  0
  -31.8878  -12.8207   20.9157 C   0  0  0  0  0  0  0  0  0  0  0  0
  -31.6269  -11.4543   20.8128 C   0  0  0  0  0  0  0  0  0  0  0  0
  -21.9198  -29.6551   21.3564 C   0  0  0  0  0  0  0  0  0  0  0  0
  -30.3763  -11.8460   18.7831 C   0  0  0  0  0  0  0  0  0  0  0  0
  -20.1794  -20.1006   23.5090 C   0  0  0  0  0  0  0  0  0  0  0  0
  -28.4093  -17.6266   20.3643 C   0  0  0  0  0  0  0  0  0  0  0  0
  -27.1368  -19.6008   21.3598 C   0  0  0  0  0  0  0  0  0  0  0  0
  -28.3987  -24.7015   19.2396 C   0  0  0  0  0  0  0  0  0  0  0  0
  -23.8641  -29.5126   19.9215 C   0  0  0  0  0  0  0  0  0  0  0  0
  -27.2160  -25.2098   19.8100 C   0  0  0  0  0  0  0  0  0  0  0  0
  -23.2972  -29.8395   21.1616 C   0  0  0  0  0  0  0  0  0  0  0  0
  -19.7694  -19.3556   22.4303 C   0  0  0  0  0  0  0  0  0  0  0  0
  -30.5896  -15.8986   20.1568 C   0  0  0  0  0  0  0  0  0  0  0  0
  -21.1155  -29.1645   20.3281 C   0  0  0  0  0  0  0  0  0  0  0  0
  -31.3930  -13.6997   19.9523 C   0  0  0  0  0  0  0  0  0  0  0  0
  -30.8711  -10.9670   19.7465 C   0  0  0  0  0  0  0  0  0  0  0  0
  -30.6372  -13.2124   18.8860 C   0  0  0  0  0  0  0  0  0  0  0  0
  -27.2832  -18.5192   20.4707 C   0  0  0  0  0  0  0  0  0  0  0  0
  -20.5272  -19.8508   21.3522 C   0  0  0  0  0  0  0  0  0  0  0  0
  -25.9020  -20.1242   21.0634 C   0  0  0  0  0  0  0  0  0  0  0  0
  -28.0366  -20.0888   22.3638 C   0  0  0  0  0  0  0  0  0  0  0  0
  -20.4923  -19.4118   19.9511 C   0  0  0  0  0  0  0  0  0  0  0  0
  -26.3450  -28.3573   21.5384 C   0  0  0  0  0  0  0  0  0  0  0  0
  -26.4026  -31.3380   22.8167 C   0  0  0  0  0  0  0  0  0  0  0  0
  -24.7055  -34.2028   23.5649 C   0  0  0  0  0  0  0  0  0  0  0  0
  -29.7486  -24.9388   19.8690 C   0  0  0  0  0  0  0  0  0  0  0  0
  -25.3332  -29.7230   19.6764 C   0  0  0  0  0  0  0  0  0  0  0  0
  -24.1285  -30.3769   22.2967 C   0  0  0  0  0  0  0  0  0  0  0  0
  -29.7608  -26.0938   20.8670 C   0  0  0  0  0  0  0  0  0  0  0  0
  -22.7633  -19.2106   17.2045 C   0  0  0  0  0  0  0  0  0  0  0  0
  -28.5664  -25.9965   21.8108 C   0  0  0  0  0  0  0  0  0  0  0  0
  -24.1299  -19.0816   17.8797 C   0  0  0  0  0  0  0  0  0  0  0  0
  -21.6757  -18.4823   17.9902 C   0  0  0  0  0  0  0  0  0  0  0  0
  -22.9486  -18.7452   20.0914 C   0  0  0  0  0  0  0  0  0  0  0  0
  -27.2445  -26.0917   21.0394 C   0  0  1  0  0  0  0  0  0  0  0  0
  -26.1579  -29.7313   20.9598 C   0  0  1  0  0  0  0  0  0  0  0  0
  -24.0641  -19.5082   19.3583 C   0  0  1  0  0  0  0  0  0  0  0  0
  -18.7615  -18.2818   22.4198 C   0  0  0  0  0  0  0  0  0  0  0  0
  -25.0099  -36.4482   24.6433 C   0  0  0  0  0  0  0  0  0  0  0  0
  -26.3278  -30.0235   25.5692 C   0  0  0  0  0  0  0  0  0  0  0  0
  -25.6809  -32.2414   26.5339 C   0  0  0  0  0  0  0  0  0  0  0  0
  -27.8803  -31.9757   25.3873 C   0  0  0  0  0  0  0  0  0  0  0  0
  -24.0319  -35.6267   21.0594 C   0  0  0  0  0  0  0  0  0  0  0  0
  -21.0036  -23.1973   24.0954 C   0  0  0  0  0  0  0  0  0  0  0  0
  -20.5349  -23.8659   22.8031 C   0  0  0  0  0  0  0  0  0  0  0  0
  -17.9625  -27.4298   20.6037 C   0  0  0  0  0  0  0  0  0  0  0  0
  -21.8532  -21.9618   23.8020 C   0  0  0  0  0  0  0  0  0  0  0  0
  -19.6601  -25.0748   23.0997 C   0  0  0  0  0  0  0  0  0  0  0  0
  -18.3555  -26.8778   21.9658 C   0  0  0  0  0  0  0  0  0  0  0  0
  -19.1404  -27.9534   19.7912 C   0  0  0  0  0  0  0  0  0  1  0  0
  -25.7599  -32.0019   24.0105 C   0  0  1  0  0  0  0  0  0  0  0  0
  -25.0484  -35.6645   23.3406 C   0  0  2  0  0  0  0  0  0  0  0  0
  -26.3966  -31.5487   25.3546 C   0  0  0  0  0  0  0  0  0  0  0  0
  -26.2258  -18.3634   19.6696 N   0  0  0  0  0  0  0  0  0  0  0  0
  -21.3557  -20.8343   21.7129 N   0  0  0  0  0  0  0  0  0  0  0  0
  -21.1211  -20.9633   23.0299 N   0  0  0  0  0  0  0  0  0  0  0  0
  -25.4032  -19.3540   20.0544 N   0  0  0  0  0  0  0  0  0  0  0  0
  -21.6695  -18.9140   19.3874 N   0  0  0  0  0  0  0  0  0  0  0  0
  -25.5610  -30.5591   22.0099 N   0  0  0  0  0  0  0  0  0  0  0  0
  -25.2052  -21.1634   21.5702 N   0  0  0  0  0  0  0  0  0  0  0  0
  -29.2638  -19.4341   22.5363 N   0  0  0  0  0  0  0  0  0  0  0  0
  -26.9650  -27.4663   20.6833 N   0  0  0  0  0  0  0  0  0  0  0  0
  -25.8350  -33.4386   23.7682 N   0  0  0  0  0  0  0  0  0  0  0  0
  -24.0811  -36.2837   22.3909 N   0  3  0  0  0  0  0  0  0  0  0  0
  -19.2662  -25.7186   21.8160 N   0  3  0  0  0  0  0  0  0  0  0  0
  -27.7535  -21.0660   23.0976 O   0  0  0  0  0  0  0  0  0  0  0  0
  -19.4140  -19.5303   19.3712 O   0  0  0  0  0  0  0  0  0  0  0  0
  -25.9569  -28.1232   22.6770 O   0  0  0  0  0  0  0  0  0  0  0  0
  -27.6053  -31.5102   22.6036 O   0  0  0  0  0  0  0  0  0  0  0  0
  -23.5508  -33.7818   23.5638 O   0  0  0  0  0  0  0  0  0  0  0  0
  -31.6536  -15.0559   20.0554 O   0  0  0  0  0  0  0  0  0  0  0  0
  -19.7809  -28.9923   20.5307 O   0  0  0  0  0  0  0  0  0  1  0  0
  -30.6219   -9.6547   19.6470 F   0  0  0  0  0  0  0  0  0  0  0  0
  -30.1602  -14.0518   17.9567 F   0  0  0  0  0  0  0  0  0  0  0  0
  1  2  1  0  0  0  0
  1  5  2  0  0  0  0
  2  6  2  0  0  0  0
  3  8  2  0  0  0  0
  3 16  1  0  0  0  0
  4  9  1  0  0  0  0
  4 16  2  0  0  0  0
  5 18  1  0  0  0  0
  6 20  1  0  0  0  0
  7 10  2  0  0  0  0
  7 19  1  0  0  0  0
  8 23  1  0  0  0  0
  9 23  2  0  0  0  0
 10 24  1  0  0  0  0
 11 12  2  0  0  0  0
 11 25  1  0  0  0  0
 12 26  1  0  0  0  0
 13 21  1  0  0  0  0
 13 24  2  0  0  0  0
 14 26  2  0  0  0  0
 14 27  1  0  0  0  0
 15 22  2  0  0  0  0
 15 66  1  0  0  0  0
 16 28  1  0  0  0  0
 17 28  1  0  0  0  0
 17 30  2  0  0  0  0
 17 31  1  0  0  0  0
 18 20  2  0  0  0  0
 18 36  1  0  0  0  0
 19 21  2  0  0  0  0
 19 37  1  0  0  0  0
 20 45  1  0  0  0  0
 21 38  1  0  0  0  0
 22 29  1  0  0  0  0
 22 48  1  0  0  0  0
 23 81  1  0  0  0  0
 24 82  1  0  0  0  0
 25 27  2  0  0  0  0
 25 81  1  0  0  0  0
 26 83  1  0  0  0  0
 27 84  1  0  0  0  0
 28 64  2  0  0  0  0
 29 32  1  0  0  0  0
 29 65  2  0  0  0  0
 30 67  1  0  0  0  0
 30 70  1  0  0  0  0
 31 71  1  0  0  0  0
 31 76  2  0  0  0  0
 32 68  1  0  0  0  0
 32 77  2  0  0  0  0
 33 46  1  0  0  0  0
 33 72  1  0  0  0  0
 33 78  2  0  0  0  0
 34 61  1  0  0  0  0
 34 69  1  0  0  0  0
 34 79  2  0  0  0  0
 35 62  1  0  0  0  0
 35 73  1  0  0  0  0
 35 80  2  0  0  0  0
 36 39  1  0  0  0  0
 37 46  1  0  0  0  0
 38 69  1  0  0  0  0
 39 41  1  0  0  0  0
 40 42  1  0  0  0  0
 40 43  1  0  0  0  0
 41 45  1  0  0  0  0
 42 47  1  0  0  0  0
 43 68  1  0  0  0  0
 44 47  1  0  0  0  0
 44 68  1  0  0  0  0
 45 72  1  0  0  0  0
 46 69  1  0  0  0  0
 47 67  1  0  0  0  0
 49 62  1  0  0  0  0
 50 63  1  0  0  0  0
 51 63  1  0  0  0  0
 52 63  1  0  0  0  0
 53 74  1  0  0  0  0
 54 55  1  0  0  0  0
 54 57  1  0  0  0  0
 55 58  1  0  0  0  0
 56 59  1  0  0  0  0
 56 60  1  0  0  0  0
 57 66  1  0  0  0  0
 58 75  1  0  0  0  0
 59 75  1  0  0  0  0
 60 82  1  0  0  0  0
 61 63  1  0  0  0  0
 61 73  1  0  0  0  0
 62 74  1  0  0  0  0
 64 67  1  0  0  0  0
 65 66  1  0  0  0  0
M  CHG  2  74   1  75   1
M  ISO  4  29 100  32 100  60 101  82 101
M  END
> <Batch ID>
0049

> <Smiles>
CNC(C)C(=O)NC(C(=O)N1Cc2cc([101O:1][101CH2:1]CCNCCCCn3cc(C)[100c:0]([100C:0](=O)N4CCCC(n5nc(-c6ccc(Oc7ccc(F)cc7F)cc6)c(C(N)=O)c5N)C4)n3)ccc2CC1C(=O)NC1CCCc2ccccc21)C(C)(C)C

> <Shape>
0.251

> <Color>
0.065

> <Negative vol penalty>
0.000

$$$$

  -OEChem-04052317293D

 84 92  0     1  0  0  0  0  0999 V2000
  -39.9860  -23.7247   26.7480 C   0  0  0  0  0  0  0  0  0  0  0  0
  -38.6992  -23.2517   26.9842 C   0  0  0  0  0  0  0  0  0  0  0  0
  -23.2043   -9.7708   19.9962 C   0  0  0  0  0  0  0  0  0  0  0  0
  -23.9124   -9.9189   22.3014 C   0  0  0  0  0  0  0  0  0  0  0  0
  -40.2165  -24.6259   25.7095 C   0  0  0  0  0  0  0  0  0  0  0  0
  -37.6419  -23.6805   26.1826 C   0  0  0  0  0  0  0  0  0  0  0  0
  -34.6168  -19.8770   24.7587 C   0  0  0  0  0  0  0  0  0  0  0  0
  -22.5311   -8.5825   20.2793 C   0  0  0  0  0  0  0  0  0  0  0  0
  -23.2391   -8.7305   22.5846 C   0  0  0  0  0  0  0  0  0  0  0  0
  -33.7026  -19.4043   25.6991 C   0  0  0  0  0  0  0  0  0  0  0  0
  -20.0567   -7.7485   23.1580 C   0  0  0  0  0  0  0  0  0  0  0  0
  -19.2788   -7.7060   24.3149 C   0  0  0  0  0  0  0  0  0  0  0  0
  -31.9591  -20.6953   24.6443 C   0  0  0  0  0  0  0  0  0  0  0  0
  -20.6262   -5.8846   25.1541 C   0  0  0  0  0  0  0  0  0  0  0  0
  -23.8950  -10.4390   21.0073 C   0  0  0  0  0  0  0  0  0  0  0  0
  -24.0760  -12.9743   20.7897 C   0  0  0  0  0  0  0  0  0  0  0  0
  -39.1631  -25.0586   24.8886 C   0  0  0  0  0  0  0  0  0  0  0  0
  -34.2107  -20.7724   23.7588 C   0  0  0  0  0  0  0  0  0  0  0  0
  -37.8582  -24.5894   25.1329 C   0  0  0  0  0  0  0  0  0  0  0  0
  -32.8696  -21.1759   23.6908 C   0  0  0  0  0  0  0  0  0  0  0  0
  -22.5484   -8.0623   21.5735 C   0  0  0  0  0  0  0  0  0  0  0  0
  -32.3741  -19.8156   25.6438 C   0  0  0  0  0  0  0  0  0  0  0  0
  -21.1194   -6.8590   22.9990 C   0  0  0  0  0  0  0  0  0  0  0  0
  -19.5635   -6.7741   25.3130 C   0  0  0  0  0  0  0  0  0  0  0  0
  -21.4041   -5.9271   23.9971 C   0  0  0  0  0  0  0  0  0  0  0  0
  -24.5912  -11.6663   20.7153 C   0  0  0  0  0  0  0  0  0  0  0  0
  -27.7363  -16.9887   24.3338 C   0  0  0  0  0  0  0  0  0  0  0  0
  -28.0982  -16.9717   26.5918 C   0  0  0  0  0  0  0  0  0  0  0  0
  -29.0639  -17.2898   24.1233 C   0  0  0  0  0  0  0  0  0  0  0  0
  -29.4259  -17.2720   26.3813 C   0  0  0  0  0  0  0  0  0  0  0  0
  -25.1252  -13.7783   20.4167 C   0  0  0  0  0  0  0  0  0  0  0  0
  -22.7661  -13.4224   21.1628 C   0  0  0  0  0  0  0  0  0  0  0  0
  -34.9828  -23.7529   22.9685 C   0  0  0  0  0  0  0  0  0  0  0  0
  -33.0509  -23.1660   20.4297 C   0  0  0  0  0  0  0  0  0  0  0  0
  -30.4692  -21.3672   19.1083 C   0  0  0  0  0  0  0  0  0  0  0  0
  -30.8840  -14.1219   20.8987 C   0  0  0  0  0  0  0  0  0  0  0  0
  -39.4531  -26.0700   23.8081 C   0  0  0  0  0  0  0  0  0  0  0  0
  -35.2033  -21.2522   22.7357 C   0  0  0  0  0  0  0  0  0  0  0  0
  -32.3785  -22.1200   22.6249 C   0  0  0  0  0  0  0  0  0  0  0  0
  -38.3415  -26.1860   22.7682 C   0  0  0  0  0  0  0  0  0  0  0  0
  -29.3102  -13.0903   17.8761 C   0  0  0  0  0  0  0  0  0  0  0  0
  -36.9799  -26.2751   23.4499 C   0  0  0  0  0  0  0  0  0  0  0  0
  -27.8850  -12.7395   18.3071 C   0  0  0  0  0  0  0  0  0  0  0  0
  -30.3332  -12.7053   18.9426 C   0  0  0  0  0  0  0  0  0  0  0  0
  -28.6345  -12.8957   20.7180 C   0  0  0  0  0  0  0  0  0  0  0  0
  -36.6895  -25.0120   24.2695 C   0  0  1  0  0  0  0  0  0  0  0  0
  -34.7911  -22.5625   22.0718 C   0  0  1  0  0  0  0  0  0  0  0  0
  -27.5620  -13.3162   19.6986 C   0  0  2  0  0  0  0  0  0  0  0  0
  -26.7854  -16.8290   23.1973 C   0  0  0  0  0  0  0  0  0  0  0  0
  -27.5503  -16.7925   27.9664 C   0  0  0  0  0  0  0  0  0  0  0  0
  -29.0907  -21.1396   17.0237 C   0  0  0  0  0  0  0  0  0  0  0  0
  -31.5193  -25.6993   21.1688 C   0  0  0  0  0  0  0  0  0  0  0  0
  -29.6526  -24.9172   19.6949 C   0  0  0  0  0  0  0  0  0  0  0  0
  -31.8986  -25.3876   18.7166 C   0  0  0  0  0  0  0  0  0  0  0  0
  -31.3314  -18.5649   18.7049 C   0  0  0  0  0  0  0  0  0  0  0  0
  -29.6113  -17.4703   22.7487 C   0  0  0  0  0  0  0  0  0  0  0  0
  -30.3887  -17.4334   27.5325 C   0  0  0  0  0  0  0  0  0  0  0  0
  -31.0649  -16.9877   22.5714 C   0  0  0  0  0  0  0  0  0  0  0  0
  -31.2840  -15.5154   22.9129 C   0  0  0  0  0  0  0  0  0  0  0  0
  -31.7118  -18.0551   27.0991 C   0  0  0  0  0  0  0  0  0  1  0  0
  -31.5767  -23.3286   20.1479 C   0  0  1  0  0  0  0  0  0  0  0  0
  -30.3173  -20.6510   17.7784 C   0  0  2  0  0  0  0  0  0  0  0  0
  -31.1711  -24.8169   19.9534 C   0  0  0  0  0  0  0  0  0  0  0  0
  -25.8684  -11.6366   20.3255 N   0  0  0  0  0  0  0  0  0  0  0  0
  -27.2296  -16.8243   25.5719 N   0  0  0  0  0  0  0  0  0  0  0  0
  -29.9326  -17.4368   25.1433 N   0  0  0  0  0  0  0  0  0  0  0  0
  -26.1645  -12.9359   20.1515 N   0  0  0  0  0  0  0  0  0  0  0  0
  -33.3886  -22.5662   21.6512 N   0  0  0  0  0  0  0  0  0  0  0  0
  -29.9696  -13.2851   20.2378 N   0  0  0  0  0  0  0  0  0  0  0  0
  -25.2509  -15.1167   20.2929 N   0  0  0  0  0  0  0  0  0  0  0  0
  -21.8078  -12.4633   21.5180 N   0  0  0  0  0  0  0  0  0  0  0  0
  -36.2835  -23.9281   23.4007 N   0  0  0  0  0  0  0  0  0  0  0  0
  -31.2836  -22.4747   19.0018 N   0  0  0  0  0  0  0  0  0  0  0  0
  -30.4578  -14.6345   22.1178 N   0  0  0  0  0  0  0  0  0  0  0  0
  -30.1828  -19.1825   17.9934 N   0  3  0  0  0  0  0  0  0  0  0  0
  -22.4499  -14.6363   21.1648 O   0  0  0  0  0  0  0  0  0  0  0  0
  -34.0219  -24.4608   23.2464 O   0  0  0  0  0  0  0  0  0  0  0  0
  -33.8724  -23.5503   19.5935 O   0  0  0  0  0  0  0  0  0  0  0  0
  -29.9174  -20.9846   20.1377 O   0  0  0  0  0  0  0  0  0  0  0  0
  -31.9956  -14.3964   20.4340 O   0  0  0  0  0  0  0  0  0  0  0  0
  -21.8913   -6.9029   21.8502 O   0  0  0  0  0  0  0  0  0  0  0  0
  -31.4799  -19.3563   26.5610 O   0  0  0  0  0  0  0  0  0  1  0  0
  -18.8173   -6.7345   26.4247 F   0  0  0  0  0  0  0  0  0  0  0  0
  -22.4245   -5.0708   23.8506 F   0  0  0  0  0  0  0  0  0  0  0  0
  1  2  1  0  0  0  0
  1  5  2  0  0  0  0
  2  6  2  0  0  0  0
  3  8  2  0  0  0  0
  3 15  1  0  0  0  0
  4  9  1  0  0  0  0
  4 15  2  0  0  0  0
  5 17  1  0  0  0  0
  6 19  1  0  0  0  0
  7 10  2  0  0  0  0
  7 18  1  0  0  0  0
  8 21  1  0  0  0  0
  9 21  2  0  0  0  0
 10 22  1  0  0  0  0
 11 12  2  0  0  0  0
 11 23  1  0  0  0  0
 12 24  1  0  0  0  0
 13 20  1  0  0  0  0
 13 22  2  0  0  0  0
 14 24  2  0  0  0  0
 14 25  1  0  0  0  0
 15 26  1  0  0  0  0
 16 26  1  0  0  0  0
 16 31  2  0  0  0  0
 16 32  1  0  0  0  0
 17 19  2  0  0  0  0
 17 37  1  0  0  0  0
 18 20  2  0  0  0  0
 18 38  1  0  0  0  0
 19 46  1  0  0  0  0
 20 39  1  0  0  0  0
 21 81  1  0  0  0  0
 22 82  1  0  0  0  0
 23 25  2  0  0  0  0
 23 81  1  0  0  0  0
 24 83  1  0  0  0  0
 25 84  1  0  0  0  0
 26 64  2  0  0  0  0
 27 29  1  0  0  0  0
 27 49  1  0  0  0  0
 27 65  2  0  0  0  0
 28 30  2  0  0  0  0
 28 50  1  0  0  0  0
 28 65  1  0  0  0  0
 29 56  1  0  0  0  0
 29 66  2  0  0  0  0
 30 57  1  0  0  0  0
 30 66  1  0  0  0  0
 31 67  1  0  0  0  0
 31 70  1  0  0  0  0
 32 71  1  0  0  0  0
 32 76  2  0  0  0  0
 33 47  1  0  0  0  0
 33 72  1  0  0  0  0
 33 77  2  0  0  0  0
 34 61  1  0  0  0  0
 34 68  1  0  0  0  0
 34 78  2  0  0  0  0
 35 62  1  0  0  0  0
 35 73  1  0  0  0  0
 35 79  2  0  0  0  0
 36 69  1  0  0  0  0
 36 74  1  0  0  0  0
 36 80  2  0  0  0  0
 37 40  1  0  0  0  0
 38 47  1  0  0  0  0
 39 68  1  0  0  0  0
 40 42  1  0  0  0  0
 41 43  1  0  0  0  0
 41 44  1  0  0  0  0
 42 46  1  0  0  0  0
 43 48  1  0  0  0  0
 44 69  1  0  0  0  0
 45 48  1  0  0  0  0
 45 69  1  0  0  0  0
 46 72  1  0  0  0  0
 47 68  1  0  0  0  0
 48 67  1  0  0  0  0
 51 62  1  0  0  0  0
 52 63  1  0  0  0  0
 53 63  1  0  0  0  0
 54 63  1  0  0  0  0
 55 75  1  0  0  0  0
 56 58  1  0  0  0  0
 57 60  1  0  0  0  0
 58 59  1  0  0  0  0
 59 74  1  0  0  0  0
 60 82  1  0  0  0  0
 61 63  1  0  0  0  0
 61 73  1  0  0  0  0
 62 75  1  0  0  0  0
 64 67  1  0  0  0  0
M  CHG  1  75   1
M  ISO  4  36 100  60 101  74 100  82 101
M  END
> <Batch ID>
0049

> <Smiles>
CNC(C)C(=O)NC(C(=O)N1Cc2cc([101O:1][101CH2:1]Cc3nc(CCC[100NH:0][100C:0](=O)N4CCCC(n5nc(-c6ccc(Oc7ccc(F)cc7F)cc6)c(C(N)=O)c5N)C4)c(C)nc3C)ccc2CC1C(=O)NC1CCCc2ccccc21)C(C)(C)C

> <Shape>
0.201

> <Color>
0.196

> <Negative vol penalty>
0.000

$$$$

  -OEChem-04052317293D

 84 92  0     1  0  0  0  0  0999 V2000
  -38.3132   -9.2578   19.7072 C   0  0  0  0  0  0  0  0  0  0  0  0
  -37.7377  -10.4706   20.0723 C   0  0  0  0  0  0  0  0  0  0  0  0
  -23.0745   -9.8687   19.9409 C   0  0  0  0  0  0  0  0  0  0  0  0
  -23.8383   -9.8741   22.2330 C   0  0  0  0  0  0  0  0  0  0  0  0
  -37.6507   -8.0622   19.9821 C   0  0  0  0  0  0  0  0  0  0  0  0
  -36.4986  -10.4885   20.7117 C   0  0  0  0  0  0  0  0  0  0  0  0
  -36.3917  -13.6673   24.6523 C   0  0  0  0  0  0  0  0  0  0  0  0
  -22.3319   -8.7148   20.1911 C   0  0  0  0  0  0  0  0  0  0  0  0
  -23.0957   -8.7202   22.4832 C   0  0  0  0  0  0  0  0  0  0  0  0
  -36.2579  -15.0262   24.3707 C   0  0  0  0  0  0  0  0  0  0  0  0
  -19.8692   -7.9194   23.0905 C   0  0  0  0  0  0  0  0  0  0  0  0
  -19.1143   -7.8778   24.2627 C   0  0  0  0  0  0  0  0  0  0  0  0
  -33.9049  -14.8953   24.8860 C   0  0  0  0  0  0  0  0  0  0  0  0
  -20.3584   -5.9406   24.9952 C   0  0  0  0  0  0  0  0  0  0  0  0
  -34.8258  -19.3023   21.0159 C   0  0  0  0  0  0  0  0  0  0  0  0
  -23.8277  -10.4484   20.9619 C   0  0  0  0  0  0  0  0  0  0  0  0
  -24.1674  -12.9739   20.8436 C   0  0  0  0  0  0  0  0  0  0  0  0
  -36.4074   -8.0650   20.6339 C   0  0  0  0  0  0  0  0  0  0  0  0
  -35.2790  -12.9085   25.0430 C   0  0  0  0  0  0  0  0  0  0  0  0
  -35.8182   -9.2919   20.9944 C   0  0  0  0  0  0  0  0  0  0  0  0
  -34.0277  -13.5275   25.1744 C   0  0  0  0  0  0  0  0  0  0  0  0
  -22.3425   -8.1405   21.4622 C   0  0  0  0  0  0  0  0  0  0  0  0
  -35.0139  -15.6398   24.4847 C   0  0  0  0  0  0  0  0  0  0  0  0
  -20.8687   -6.9715   22.8706 C   0  0  0  0  0  0  0  0  0  0  0  0
  -19.3589   -6.8884   25.2150 C   0  0  0  0  0  0  0  0  0  0  0  0
  -21.1133   -5.9822   23.8230 C   0  0  0  0  0  0  0  0  0  0  0  0
  -24.5955  -11.6401   20.7039 C   0  0  0  0  0  0  0  0  0  0  0  0
  -34.6834  -19.2172   22.3722 C   0  0  0  0  0  0  0  0  0  0  0  0
  -25.2584  -13.7245   20.4792 C   0  0  0  0  0  0  0  0  0  0  0  0
  -32.6613  -19.3358   21.4790 C   0  0  0  0  0  0  0  0  0  0  0  0
  -22.8973  -13.4884   21.2652 C   0  0  0  0  0  0  0  0  0  0  0  0
  -33.7370  -10.4038   23.8379 C   0  0  0  0  0  0  0  0  0  0  0  0
  -32.0914  -10.5670   26.6285 C   0  0  0  0  0  0  0  0  0  0  0  0
  -31.0459  -12.4594   29.2691 C   0  0  0  0  0  0  0  0  0  0  0  0
  -30.7417  -14.7475   20.6591 C   0  0  0  0  0  0  0  0  0  0  0  0
  -35.7072   -6.7498   20.8674 C   0  0  0  0  0  0  0  0  0  0  0  0
  -35.4452  -11.4496   25.3690 C   0  0  0  0  0  0  0  0  0  0  0  0
  -32.8060  -12.7618   25.6099 C   0  0  0  0  0  0  0  0  0  0  0  0
  -34.5716   -6.8364   21.8838 C   0  0  0  0  0  0  0  0  0  0  0  0
  -29.6018  -12.3644   18.2720 C   0  0  0  0  0  0  0  0  0  0  0  0
  -33.6890   -8.0468   21.5963 C   0  0  0  0  0  0  0  0  0  0  0  0
  -28.1653  -12.0692   18.7071 C   0  0  0  0  0  0  0  0  0  0  0  0
  -30.5208  -12.5848   19.4715 C   0  0  0  0  0  0  0  0  0  0  0  0
  -28.6209  -13.3131   20.8621 C   0  0  0  0  0  0  0  0  0  0  0  0
  -34.4870   -9.3512   21.7118 C   0  0  1  0  0  0  0  0  0  0  0  0
  -34.1435  -10.6613   25.2613 C   0  0  1  0  0  0  0  0  0  0  0  0
  -27.6449  -13.1389   19.6860 C   0  0  2  0  0  0  0  0  0  0  0  0
  -29.6829  -12.3249   31.3718 C   0  0  0  0  0  0  0  0  0  0  0  0
  -33.7144  -18.2427   18.2986 C   0  0  0  0  0  0  0  0  0  0  0  0
  -33.7891  -20.7673   18.4624 C   0  0  0  0  0  0  0  0  0  0  0  0
  -29.5311  -10.6321   24.9701 C   0  0  0  0  0  0  0  0  0  0  0  0
  -28.3167  -11.4419   27.0042 C   0  0  0  0  0  0  0  0  0  0  0  0
  -29.4118   -9.2006   27.0173 C   0  0  0  0  0  0  0  0  0  0  0  0
  -33.3732  -13.1544   30.9602 C   0  0  0  0  0  0  0  0  0  0  0  0
  -35.7059  -19.1141   23.4777 C   0  0  0  0  0  0  0  0  0  0  0  0
  -31.1840  -19.3881   21.3463 C   0  0  0  0  0  0  0  0  0  0  0  0
  -30.5250  -18.0518   20.9394 C   0  0  0  0  0  0  0  0  0  0  0  0
  -30.8081  -16.8970   21.8978 C   0  0  0  0  0  0  0  0  0  0  0  0
  -36.0567  -17.6679   23.8100 C   0  0  0  0  0  0  0  0  0  1  0  0
  -30.8459  -11.2813   27.0950 C   0  0  1  0  0  0  0  0  0  0  0  0
  -31.0720  -12.2029   30.7651 C   0  0  2  0  0  0  0  0  0  0  0  0
  -33.2482  -19.4748   19.0766 C   0  0  0  0  0  0  0  0  0  0  0  0
  -29.5488  -10.6532   26.5115 C   0  0  0  0  0  0  0  0  0  0  0  0
  -25.8597  -11.5456   20.2834 N   0  0  0  0  0  0  0  0  0  0  0  0
  -33.5588  -19.3739   20.4888 N   0  0  0  0  0  0  0  0  0  0  0  0
  -26.2354  -12.8296   20.1556 N   0  0  0  0  0  0  0  0  0  0  0  0
  -33.3340  -19.2404   22.6305 N   0  3  0  0  0  0  0  0  0  0  0  0
  -33.0184  -11.3364   25.9112 N   0  0  0  0  0  0  0  0  0  0  0  0
  -29.9710  -13.6121   20.3594 N   0  0  0  0  0  0  0  0  0  0  0  0
  -25.4677  -15.0562   20.4070 N   0  0  0  0  0  0  0  0  0  0  0  0
  -21.8866  -12.5781   21.6034 N   0  0  0  0  0  0  0  0  0  0  0  0
  -34.6760   -9.7068   23.1018 N   0  0  0  0  0  0  0  0  0  0  0  0
  -30.9022  -11.2900   28.5528 N   0  0  0  0  0  0  0  0  0  0  0  0
  -30.1433  -15.6751   21.5030 N   0  0  0  0  0  0  0  0  0  0  0  0
  -31.9685  -13.1817   31.4429 N   0  3  0  0  0  0  0  0  0  0  0  0
  -22.6602  -14.7188   21.3241 O   0  0  0  0  0  0  0  0  0  0  0  0
  -32.6510  -10.8065   23.4374 O   0  0  0  0  0  0  0  0  0  0  0  0
  -32.2397   -9.3722   26.8970 O   0  0  0  0  0  0  0  0  0  0  0  0
  -31.1397  -13.5850   28.7845 O   0  0  0  0  0  0  0  0  0  0  0  0
  -31.8767  -14.9243   20.2036 O   0  0  0  0  0  0  0  0  0  0  0  0
  -21.6178   -7.0146   21.7067 O   0  0  0  0  0  0  0  0  0  0  0  0
  -34.8805  -16.9659   24.2099 O   0  0  0  0  0  0  0  0  0  1  0  0
  -18.6349   -6.8496   26.3413 F   0  0  0  0  0  0  0  0  0  0  0  0
  -22.0729   -5.0696   23.6179 F   0  0  0  0  0  0  0  0  0  0  0  0
  1  2  1  0  0  0  0
  1  5  2  0  0  0  0
  2  6  2  0  0  0  0
  3  8  2  0  0  0  0
  3 16  1  0  0  0  0
  4  9  1  0  0  0  0
  4 16  2  0  0  0  0
  5 18  1  0  0  0  0
  6 20  1  0  0  0  0
  7 10  2  0  0  0  0
  7 19  1  0  0  0  0
  8 22  1  0  0  0  0
  9 22  2  0  0  0  0
 10 23  1  0  0  0  0
 11 12  2  0  0  0  0
 11 24  1  0  0  0  0
 12 25  1  0  0  0  0
 13 21  1  0  0  0  0
 13 23  2  0  0  0  0
 14 25  2  0  0  0  0
 14 26  1  0  0  0  0
 15 28  2  0  0  0  0
 15 65  1  0  0  0  0
 16 27  1  0  0  0  0
 17 27  1  0  0  0  0
 17 29  2  0  0  0  0
 17 31  1  0  0  0  0
 18 20  2  0  0  0  0
 18 36  1  0  0  0  0
 19 21  2  0  0  0  0
 19 37  1  0  0  0  0
 20 45  1  0  0  0  0
 21 38  1  0  0  0  0
 22 81  1  0  0  0  0
 23 82  1  0  0  0  0
 24 26  2  0  0  0  0
 24 81  1  0  0  0  0
 25 83  1  0  0  0  0
 26 84  1  0  0  0  0
 27 64  2  0  0  0  0
 28 55  1  0  0  0  0
 28 67  1  0  0  0  0
 29 66  1  0  0  0  0
 29 70  1  0  0  0  0
 30 56  1  0  0  0  0
 30 65  1  0  0  0  0
 30 67  2  0  0  0  0
 31 71  1  0  0  0  0
 31 76  2  0  0  0  0
 32 46  1  0  0  0  0
 32 72  1  0  0  0  0
 32 77  2  0  0  0  0
 33 60  1  0  0  0  0
 33 68  1  0  0  0  0
 33 78  2  0  0  0  0
 34 61  1  0  0  0  0
 34 73  1  0  0  0  0
 34 79  2  0  0  0  0
 35 69  1  0  0  0  0
 35 74  1  0  0  0  0
 35 80  2  0  0  0  0
 36 39  1  0  0  0  0
 37 46  1  0  0  0  0
 38 68  1  0  0  0  0
 39 41  1  0  0  0  0
 40 42  1  0  0  0  0
 40 43  1  0  0  0  0
 41 45  1  0  0  0  0
 42 47  1  0  0  0  0
 43 69  1  0  0  0  0
 44 47  1  0  0  0  0
 44 69  1  0  0  0  0
 45 72  1  0  0  0  0
 46 68  1  0  0  0  0
 47 66  1  0  0  0  0
 48 61  1  0  0  0  0
 49 62  1  0  0  0  0
 50 62  1  0  0  0  0
 51 63  1  0  0  0  0
 52 63  1  0  0  0  0
 53 63  1  0  0  0  0
 54 75  1  0  0  0  0
 55 59  1  0  0  0  0
 56 57  1  0  0  0  0
 57 58  1  0  0  0  0
 58 74  1  0  0  0  0
 59 82  1  0  0  0  0
 60 63  1  0  0  0  0
 60 73  1  0  0  0  0
 61 75  1  0  0  0  0
 62 65  1  0  0  0  0
 64 66  1  0  0  0  0
M  CHG  2  67   1  75   1
M  ISO  4  35 100  59 101  74 100  82 101
M  END
> <Batch ID>
0049

> <Smiles>
CNC(C)C(=O)NC(C(=O)N1Cc2cc([101O:1][101CH2:1]Cc3cn(C(C)C)c(CCC[100NH:0][100C:0](=O)N4CCCC(n5nc(-c6ccc(Oc7ccc(F)cc7F)cc6)c(C(N)=O)c5N)C4)n3)ccc2CC1C(=O)NC1CCCc2ccccc21)C(C)(C)C

> <Shape>
0.166

> <Color>
0.187

> <Negative vol penalty>
0.000

$$$$

  -OEChem-04052317293D

 86 94  0     1  0  0  0  0  0999 V2000
  -26.6609  -11.8237   24.9629 C   0  0  0  0  0  0  0  0  0  0  0  0
  -28.0174  -11.7128   24.6790 C   0  0  0  0  0  0  0  0  0  0  0  0
  -23.1636   -9.8517   19.9143 C   0  0  0  0  0  0  0  0  0  0  0  0
  -23.8366   -9.9006   22.2342 C   0  0  0  0  0  0  0  0  0  0  0  0
  -26.1560  -13.0151   25.4794 C   0  0  0  0  0  0  0  0  0  0  0  0
  -28.8713  -12.7892   24.9225 C   0  0  0  0  0  0  0  0  0  0  0  0
  -33.6912  -11.9947   24.3390 C   0  0  0  0  0  0  0  0  0  0  0  0
  -22.4370   -8.6846   20.1497 C   0  0  0  0  0  0  0  0  0  0  0  0
  -23.1099   -8.7335   22.4696 C   0  0  0  0  0  0  0  0  0  0  0  0
  -34.2826  -11.8352   23.0866 C   0  0  0  0  0  0  0  0  0  0  0  0
  -21.1382   -5.9663   23.7630 C   0  0  0  0  0  0  0  0  0  0  0  0
  -20.3397   -5.9180   24.9056 C   0  0  0  0  0  0  0  0  0  0  0  0
  -35.1443  -14.0848   23.2138 C   0  0  0  0  0  0  0  0  0  0  0  0
  -19.0803   -7.8184   24.1058 C   0  0  0  0  0  0  0  0  0  0  0  0
  -35.2309  -11.9021   18.3073 C   0  0  0  0  0  0  0  0  0  0  0  0
  -23.8635  -10.4597   20.9565 C   0  0  0  0  0  0  0  0  0  0  0  0
  -24.1529  -12.9906   20.8201 C   0  0  0  0  0  0  0  0  0  0  0  0
  -27.0027  -14.1103   25.7174 C   0  0  0  0  0  0  0  0  0  0  0  0
  -33.8130  -13.2062   25.0346 C   0  0  0  0  0  0  0  0  0  0  0  0
  -28.3847  -13.9919   25.4659 C   0  0  0  0  0  0  0  0  0  0  0  0
  -34.5557  -14.2562   24.4761 C   0  0  0  0  0  0  0  0  0  0  0  0
  -35.9135  -13.0896   18.4091 C   0  0  0  0  0  0  0  0  0  0  0  0
  -22.4101   -8.1255   21.4274 C   0  0  0  0  0  0  0  0  0  0  0  0
  -35.0069  -12.8814   22.5225 C   0  0  0  0  0  0  0  0  0  0  0  0
  -20.9078   -6.9407   22.7917 C   0  0  0  0  0  0  0  0  0  0  0  0
  -19.3107   -6.8440   25.0771 C   0  0  0  0  0  0  0  0  0  0  0  0
  -19.8788   -7.8667   22.9632 C   0  0  0  0  0  0  0  0  0  0  0  0
  -24.6148  -11.6650   20.7139 C   0  0  0  0  0  0  0  0  0  0  0  0
  -35.4349  -13.8638   17.3352 C   0  0  0  0  0  0  0  0  0  0  0  0
  -25.2408  -13.7609   20.4891 C   0  0  0  0  0  0  0  0  0  0  0  0
  -22.8563  -13.4817   21.1854 C   0  0  0  0  0  0  0  0  0  0  0  0
  -31.7728  -15.4117   26.0725 C   0  0  0  0  0  0  0  0  0  0  0  0
  -34.4316  -16.6667   27.4430 C   0  0  0  0  0  0  0  0  0  0  0  0
  -37.8324  -16.9522   27.4413 C   0  0  0  0  0  0  0  0  0  0  0  0
  -30.5625  -14.9375   20.9808 C   0  0  0  0  0  0  0  0  0  0  0  0
  -26.4044  -15.3734   26.2846 C   0  0  0  0  0  0  0  0  0  0  0  0
  -33.1915  -13.3530   26.3965 C   0  0  0  0  0  0  0  0  0  0  0  0
  -34.7333  -15.5699   25.1910 C   0  0  0  0  0  0  0  0  0  0  0  0
  -27.2989  -16.5936   26.0918 C   0  0  0  0  0  0  0  0  0  0  0  0
  -29.6991  -12.4733   18.4749 C   0  0  0  0  0  0  0  0  0  0  0  0
  -28.7153  -16.2771   26.5482 C   0  0  0  0  0  0  0  0  0  0  0  0
  -28.2506  -12.1536   18.8491 C   0  0  0  0  0  0  0  0  0  0  0  0
  -30.5536  -12.7018   19.7182 C   0  0  0  0  0  0  0  0  0  0  0  0
  -28.5891  -13.4384   21.0112 C   0  0  0  0  0  0  0  0  0  0  0  0
  -29.3274  -15.1597   25.6939 C   0  0  1  0  0  0  0  0  0  0  0  0
  -32.9474  -14.8071   26.7883 C   0  0  1  0  0  0  0  0  0  0  0  0
  -27.6686  -13.2190   19.7969 C   0  0  2  0  0  0  0  0  0  0  0  0
  -39.7154  -18.0772   28.6604 C   0  0  0  0  0  0  0  0  0  0  0  0
  -33.7452  -19.3018   26.0665 C   0  0  0  0  0  0  0  0  0  0  0  0
  -36.0844  -20.0689   26.5225 C   0  0  0  0  0  0  0  0  0  0  0  0
  -34.5565  -19.5349   28.4206 C   0  0  0  0  0  0  0  0  0  0  0  0
  -33.5029  -11.0377   16.7116 C   0  0  0  0  0  0  0  0  0  0  0  0
  -39.0348  -14.3605   28.2136 C   0  0  0  0  0  0  0  0  0  0  0  0
  -34.9683  -17.4045   16.0962 C   0  0  0  0  0  0  0  0  0  0  0  0
  -36.9439  -13.4671   19.4454 C   0  0  0  0  0  0  0  0  0  0  0  0
  -35.8277  -15.2347   16.9646 C   0  0  0  0  0  0  0  0  0  0  0  0
  -32.4063  -17.4556   19.8469 C   0  0  0  0  0  0  0  0  0  0  0  0
  -32.8653  -17.0647   18.4371 C   0  0  0  0  0  0  0  0  0  0  0  0
  -32.6112  -16.3322   20.8592 C   0  0  0  0  0  0  0  0  0  0  0  0
  -34.3258  -16.6330   18.3752 C   0  0  0  0  0  0  0  0  0  0  0  0
  -36.3122  -13.8415   20.7818 C   0  0  0  0  0  0  0  0  0  1  0  0
  -35.4912  -17.6530   27.0146 C   0  0  1  0  0  0  0  0  0  0  0  0
  -38.8542  -16.8280   28.5570 C   0  0  2  0  0  0  0  0  0  0  0  0
  -34.9645  -19.1157   26.9915 C   0  0  0  0  0  0  0  0  0  0  0  0
  -25.8963  -11.5936   20.3441 N   0  0  0  0  0  0  0  0  0  0  0  0
  -34.5192  -13.2220   16.6047 N   0  0  0  0  0  0  0  0  0  0  0  0
  -34.4170  -12.0320   17.2206 N   0  0  0  0  0  0  0  0  0  0  0  0
  -26.2488  -12.8840   20.2151 N   0  0  0  0  0  0  0  0  0  0  0  0
  -34.1014  -15.6668   26.5172 N   0  0  0  0  0  0  0  0  0  0  0  0
  -29.9545  -13.7402   20.5684 N   0  0  0  0  0  0  0  0  0  0  0  0
  -25.4238  -15.0959   20.4086 N   0  0  0  0  0  0  0  0  0  0  0  0
  -21.8531  -12.5533   21.4953 N   0  0  0  0  0  0  0  0  0  0  0  0
  -30.5807  -14.7461   26.2854 N   0  0  0  0  0  0  0  0  0  0  0  0
  -36.6288  -17.4415   27.9031 N   0  0  0  0  0  0  0  0  0  0  0  0
  -31.8583  -15.1441   20.5236 N   0  0  0  0  0  0  0  0  0  0  0  0
  -39.7475  -15.6602   28.3137 N   0  3  0  0  0  0  0  0  0  0  0  0
  -34.6986  -16.2165   16.9786 N   0  3  1  0  0  0  0  0  0  0  0  0
  -22.5905  -14.7071   21.2197 O   0  0  0  0  0  0  0  0  0  0  0  0
  -31.9357  -16.4092   25.3796 O   0  0  0  0  0  0  0  0  0  0  0  0
  -33.9211  -16.7749   28.5607 O   0  0  0  0  0  0  0  0  0  0  0  0
  -38.0785  -16.6493   26.2759 O   0  0  0  0  0  0  0  0  0  0  0  0
  -29.9907  -15.7646   21.6993 O   0  0  0  0  0  0  0  0  0  0  0  0
  -21.7009   -6.9868   21.6575 O   0  0  0  0  0  0  0  0  0  0  0  0
  -35.5846  -12.7286   21.2999 O   0  0  0  0  0  0  0  0  0  1  0  0
  -18.5430   -6.7965   26.1737 F   0  0  0  0  0  0  0  0  0  0  0  0
  -19.6519   -8.8043   22.0330 F   0  0  0  0  0  0  0  0  0  0  0  0
  1  2  1  0  0  0  0
  1  5  2  0  0  0  0
  2  6  2  0  0  0  0
  3  8  2  0  0  0  0
  3 16  1  0  0  0  0
  4  9  1  0  0  0  0
  4 16  2  0  0  0  0
  5 18  1  0  0  0  0
  6 20  1  0  0  0  0
  7 10  2  0  0  0  0
  7 19  1  0  0  0  0
  8 23  1  0  0  0  0
  9 23  2  0  0  0  0
 10 24  1  0  0  0  0
 11 12  2  0  0  0  0
 11 25  1  0  0  0  0
 12 26  1  0  0  0  0
 13 21  1  0  0  0  0
 13 24  2  0  0  0  0
 14 26  2  0  0  0  0
 14 27  1  0  0  0  0
 15 22  2  0  0  0  0
 15 67  1  0  0  0  0
 16 28  1  0  0  0  0
 17 28  1  0  0  0  0
 17 30  2  0  0  0  0
 17 31  1  0  0  0  0
 18 20  2  0  0  0  0
 18 36  1  0  0  0  0
 19 21  2  0  0  0  0
 19 37  1  0  0  0  0
 20 45  1  0  0  0  0
 21 38  1  0  0  0  0
 22 29  1  0  0  0  0
 22 55  1  0  0  0  0
 23 83  1  0  0  0  0
 24 84  1  0  0  0  0
 25 27  2  0  0  0  0
 25 83  1  0  0  0  0
 26 85  1  0  0  0  0
 27 86  1  0  0  0  0
 28 65  2  0  0  0  0
 29 56  1  0  0  0  0
 29 66  2  0  0  0  0
 30 68  1  0  0  0  0
 30 71  1  0  0  0  0
 31 72  1  0  0  0  0
 31 78  2  0  0  0  0
 32 46  1  0  0  0  0
 32 73  1  0  0  0  0
 32 79  2  0  0  0  0
 33 62  1  0  0  0  0
 33 69  1  0  0  0  0
 33 80  2  0  0  0  0
 34 63  1  0  0  0  0
 34 74  1  0  0  0  0
 34 81  2  0  0  0  0
 35 70  1  0  0  0  0
 35 75  1  0  0  0  0
 35 82  2  0  0  0  0
 36 39  1  0  0  0  0
 37 46  1  0  0  0  0
 38 69  1  0  0  0  0
 39 41  1  0  0  0  0
 40 42  1  0  0  0  0
 40 43  1  0  0  0  0
 41 45  1  0  0  0  0
 42 47  1  0  0  0  0
 43 70  1  0  0  0  0
 44 47  1  0  0  0  0
 44 70  1  0  0  0  0
 45 73  1  0  0  0  0
 46 69  1  0  0  0  0
 47 68  1  0  0  0  0
 48 63  1  0  0  0  0
 49 64  1  0  0  0  0
 50 64  1  0  0  0  0
 51 64  1  0  0  0  0
 52 67  1  0  0  0  0
 53 76  1  0  0  0  0
 54 77  1  0  0  0  0
 55 61  1  0  0  0  0
 56 77  1  0  0  0  0
 57 58  1  0  0  0  0
 57 59  1  0  0  0  0
 58 60  1  0  0  0  0
 59 75  1  0  0  0  0
 60 77  1  0  0  0  0
 61 84  1  0  0  0  0
 62 64  1  0  0  0  0
 62 74  1  0  0  0  0
 63 76  1  0  0  0  0
 65 68  1  0  0  0  0
 66 67  1  0  0  0  0
M  CHG  2  76   1  77   1
M  ISO  4  35 100  61 101  75 100  84 101
M  END
> <Batch ID>
0049

> <Smiles>
CNC(C)C(=O)NC(C(=O)N1Cc2cc([101O:1][101CH2:1]Cc3cn(C)nc3CN(C)CCCC[100NH:0][100C:0](=O)N3CCCC(n4nc(-c5ccc(Oc6ccc(F)cc6F)cc5)c(C(N)=O)c4N)C3)ccc2CC1C(=O)NC1CCCc2ccccc21)C(C)(C)C

> <Shape>
0.147

> <Color>
0.167

> <Negative vol penalty>
0.000

$$$$

  -OEChem-04052317293D

 86 94  0     1  0  0  0  0  0999 V2000
  -34.8127  -10.4328   20.6744 C   0  0  0  0  0  0  0  0  0  0  0  0
  -34.5572  -11.7947   20.7982 C   0  0  0  0  0  0  0  0  0  0  0  0
  -24.7509  -33.2980   21.6300 C   0  0  0  0  0  0  0  0  0  0  0  0
  -26.9202  -32.2720   21.9102 C   0  0  0  0  0  0  0  0  0  0  0  0
  -33.9422   -9.6249   19.9439 C   0  0  0  0  0  0  0  0  0  0  0  0
  -33.4314  -12.3497   20.1907 C   0  0  0  0  0  0  0  0  0  0  0  0
  -30.0023  -16.9610   22.3081 C   0  0  0  0  0  0  0  0  0  0  0  0
  -25.2930  -34.5373   21.9703 C   0  0  0  0  0  0  0  0  0  0  0  0
  -27.4624  -33.5114   22.2504 C   0  0  0  0  0  0  0  0  0  0  0  0
  -29.9806  -18.3242   22.0170 C   0  0  0  0  0  0  0  0  0  0  0  0
  -26.0322  -37.9087   23.1153 C   0  0  0  0  0  0  0  0  0  0  0  0
  -25.3205  -38.7054   24.0120 C   0  0  0  0  0  0  0  0  0  0  0  0
  -28.1886  -17.9540   20.4451 C   0  0  0  0  0  0  0  0  0  0  0  0
  -25.4864  -36.9705   25.6852 C   0  0  0  0  0  0  0  0  0  0  0  0
  -25.5645  -32.1653   21.6000 C   0  0  0  0  0  0  0  0  0  0  0  0
  -24.9063  -30.3241   19.9616 C   0  0  0  0  0  0  0  0  0  0  0  0
  -32.8001  -10.1687   19.3353 C   0  0  0  0  0  0  0  0  0  0  0  0
  -29.1232  -16.0809   21.6607 C   0  0  0  0  0  0  0  0  0  0  0  0
  -32.5456  -11.5487   19.4503 C   0  0  0  0  0  0  0  0  0  0  0  0
  -28.1994  -16.5803   20.7316 C   0  0  0  0  0  0  0  0  0  0  0  0
  -26.6488  -34.6440   22.2804 C   0  0  0  0  0  0  0  0  0  0  0  0
  -29.0756  -18.8205   21.0832 C   0  0  0  0  0  0  0  0  0  0  0  0
  -26.4710  -36.6427   23.5035 C   0  0  0  0  0  0  0  0  0  0  0  0
  -25.0476  -38.2364   25.2970 C   0  0  0  0  0  0  0  0  0  0  0  0
  -26.1981  -36.1737   24.7884 C   0  0  0  0  0  0  0  0  0  0  0  0
  -25.0050  -30.8847   21.2492 C   0  0  0  0  0  0  0  0  0  0  0  0
  -28.5242  -24.7006   19.2662 C   0  0  0  0  0  0  0  0  0  0  0  0
  -28.9836  -23.8008   18.3298 C   0  0  0  0  0  0  0  0  0  0  0  0
  -27.7914  -22.9703   20.5694 C   0  0  0  0  0  0  0  0  0  0  0  0
  -28.2501  -22.0704   19.6328 C   0  0  0  0  0  0  0  0  0  0  0  0
  -24.3051  -29.1057   20.1628 C   0  0  0  0  0  0  0  0  0  0  0  0
  -25.3212  -30.8570   18.6969 C   0  0  0  0  0  0  0  0  0  0  0  0
  -29.4707  -13.5782   19.7322 C   0  0  0  0  0  0  0  0  0  0  0  0
  -26.2545  -13.3506   20.0878 C   0  0  0  0  0  0  0  0  0  0  0  0
  -23.3030  -14.9022   20.8142 C   0  0  0  0  0  0  0  0  0  0  0  0
  -24.0180  -25.4300   24.8806 C   0  0  0  0  0  0  0  0  0  0  0  0
  -31.9137   -9.2641   18.5162 C   0  0  0  0  0  0  0  0  0  0  0  0
  -29.1410  -14.6169   22.0055 C   0  0  0  0  0  0  0  0  0  0  0  0
  -27.2208  -15.6803   20.0240 C   0  0  0  0  0  0  0  0  0  0  0  0
  -30.5420   -9.8635   18.2171 C   0  0  0  0  0  0  0  0  0  0  0  0
  -21.2794  -26.8653   23.1152 C   0  0  0  0  0  0  0  0  0  0  0  0
  -30.6819  -11.3067   17.7433 C   0  0  0  0  0  0  0  0  0  0  0  0
  -21.9147  -28.0076   22.3206 C   0  0  0  0  0  0  0  0  0  0  0  0
  -21.9293  -26.7026   24.4875 C   0  0  0  0  0  0  0  0  0  0  0  0
  -24.0317  -27.6947   23.6694 C   0  0  0  0  0  0  0  0  0  0  0  0
  -31.3216  -12.1834   18.8266 C   0  0  1  0  0  0  0  0  0  0  0  0
  -28.5494  -13.7373   20.9084 C   0  0  1  0  0  0  0  0  0  0  0  0
  -23.4470  -27.8615   22.2564 C   0  0  2  0  0  0  0  0  0  0  0  0
  -28.3912  -26.9588   20.3474 C   0  0  0  0  0  0  0  0  0  0  0  0
  -31.1683  -24.0912   17.1343 C   0  0  0  0  0  0  0  0  0  0  0  0
  -20.8379  -14.4651   20.9865 C   0  0  0  0  0  0  0  0  0  0  0  0
  -26.0433  -13.3558   17.0439 C   0  0  0  0  0  0  0  0  0  0  0  0
  -23.6057  -13.8744   17.2835 C   0  0  0  0  0  0  0  0  0  0  0  0
  -24.5199  -11.7389   18.1925 C   0  0  0  0  0  0  0  0  0  0  0  0
  -23.2569  -15.6291   23.6827 C   0  0  0  0  0  0  0  0  0  0  0  0
  -28.6730  -26.1706   19.0705 C   0  0  0  0  0  0  0  0  0  0  0  0
  -29.6514  -24.2555   17.0772 C   0  0  0  0  0  0  0  0  0  0  0  0
  -27.1247  -22.5156   21.8227 C   0  0  0  0  0  0  0  0  0  0  0  0
  -28.0999  -20.5906   19.8300 C   0  0  0  0  0  0  0  0  0  1  0  0
  -26.9814  -23.6495   22.8505 C   0  0  0  0  0  0  0  0  0  0  0  0
  -26.3294  -23.1608   24.1474 C   0  0  0  0  0  0  0  0  0  0  0  0
  -26.1895  -24.2681   25.1869 C   0  0  0  0  0  0  0  0  0  0  0  0
  -25.0562  -13.9146   19.3633 C   0  0  1  0  0  0  0  0  0  0  0  0
  -22.1606  -14.5135   21.7353 C   0  0  2  0  0  0  0  0  0  0  0  0
  -24.8259  -13.2379   17.9825 C   0  0  0  0  0  0  0  0  0  0  0  0
  -24.5062  -30.0880   22.1981 N   0  0  0  0  0  0  0  0  0  0  0  0
  -27.9199  -24.3015   20.4028 N   0  0  0  0  0  0  0  0  0  0  0  0
  -28.8548  -22.4695   18.4963 N   0  0  0  0  0  0  0  0  0  0  0  0
  -24.0882  -29.0143   21.5063 N   0  0  0  0  0  0  0  0  0  0  0  0
  -27.2816  -14.2557   20.3906 N   0  0  0  0  0  0  0  0  0  0  0  0
  -23.3821  -26.5674   24.3563 N   0  0  0  0  0  0  0  0  0  0  0  0
  -23.9459  -28.1143   19.3199 N   0  0  0  0  0  0  0  0  0  0  0  0
  -25.9224  -32.1227   18.6700 N   0  0  0  0  0  0  0  0  0  0  0  0
  -30.3496  -12.5178   19.8454 N   0  0  0  0  0  0  0  0  0  0  0  0
  -23.9298  -13.7950   20.2826 N   0  0  0  0  0  0  0  0  0  0  0  0
  -25.3957  -25.3777   24.7078 N   0  0  0  0  0  0  0  0  0  0  0  0
  -22.0350  -15.4968   22.8481 N   0  3  0  0  0  0  0  0  0  0  0  0
  -25.1485  -30.2363   17.6205 O   0  0  0  0  0  0  0  0  0  0  0  0
  -29.3893  -14.3586   18.7909 O   0  0  0  0  0  0  0  0  0  0  0  0
  -26.2753  -12.1525   20.3808 O   0  0  0  0  0  0  0  0  0  0  0  0
  -23.6063  -16.0711   20.5859 O   0  0  0  0  0  0  0  0  0  0  0  0
  -23.4027  -24.5254   25.4552 O   0  0  0  0  0  0  0  0  0  0  0  0
  -27.1782  -35.8532   22.6123 O   0  0  0  0  0  0  0  0  0  0  0  0
  -29.0528  -20.1507   20.7968 O   0  0  0  0  0  0  0  0  0  1  0  0
  -24.3655  -39.0022   26.1586 F   0  0  0  0  0  0  0  0  0  0  0  0
  -26.6181  -34.9589   25.1675 F   0  0  0  0  0  0  0  0  0  0  0  0
  1  2  1  0  0  0  0
  1  5  2  0  0  0  0
  2  6  2  0  0  0  0
  3  8  2  0  0  0  0
  3 15  1  0  0  0  0
  4  9  1  0  0  0  0
  4 15  2  0  0  0  0
  5 17  1  0  0  0  0
  6 19  1  0  0  0  0
  7 10  2  0  0  0  0
  7 18  1  0  0  0  0
  8 21  1  0  0  0  0
  9 21  2  0  0  0  0
 10 22  1  0  0  0  0
 11 12  2  0  0  0  0
 11 23  1  0  0  0  0
 12 24  1  0  0  0  0
 13 20  1  0  0  0  0
 13 22  2  0  0  0  0
 14 24  2  0  0  0  0
 14 25  1  0  0  0  0
 15 26  1  0  0  0  0
 16 26  1  0  0  0  0
 16 31  2  0  0  0  0
 16 32  1  0  0  0  0
 17 19  2  0  0  0  0
 17 37  1  0  0  0  0
 18 20  2  0  0  0  0
 18 38  1  0  0  0  0
 19 46  1  0  0  0  0
 20 39  1  0  0  0  0
 21 83  1  0  0  0  0
 22 84  1  0  0  0  0
 23 25  2  0  0  0  0
 23 83  1  0  0  0  0
 24 85  1  0  0  0  0
 25 86  1  0  0  0  0
 26 66  2  0  0  0  0
 27 28  2  0  0  0  0
 27 56  1  0  0  0  0
 27 67  1  0  0  0  0
 28 57  1  0  0  0  0
 28 68  1  0  0  0  0
 29 30  1  0  0  0  0
 29 58  1  0  0  0  0
 29 67  2  0  0  0  0
 30 59  1  0  0  0  0
 30 68  2  0  0  0  0
 31 69  1  0  0  0  0
 31 72  1  0  0  0  0
 32 73  1  0  0  0  0
 32 78  2  0  0  0  0
 33 47  1  0  0  0  0
 33 74  1  0  0  0  0
 33 79  2  0  0  0  0
 34 63  1  0  0  0  0
 34 70  1  0  0  0  0
 34 80  2  0  0  0  0
 35 64  1  0  0  0  0
 35 75  1  0  0  0  0
 35 81  2  0  0  0  0
 36 71  1  0  0  0  0
 36 76  1  0  0  0  0
 36 82  2  0  0  0  0
 37 40  1  0  0  0  0
 38 47  1  0  0  0  0
 39 70  1  0  0  0  0
 40 42  1  0  0  0  0
 41 43  1  0  0  0  0
 41 44  1  0  0  0  0
 42 46  1  0  0  0  0
 43 48  1  0  0  0  0
 44 71  1  0  0  0  0
 45 48  1  0  0  0  0
 45 71  1  0  0  0  0
 46 74  1  0  0  0  0
 47 70  1  0  0  0  0
 48 69  1  0  0  0  0
 49 56  1  0  0  0  0
 50 57  1  0  0  0  0
 51 64  1  0  0  0  0
 52 65  1  0  0  0  0
 53 65  1  0  0  0  0
 54 65  1  0  0  0  0
 55 77  1  0  0  0  0
 58 60  1  0  0  0  0
 59 84  1  0  0  0  0
 60 61  1  0  0  0  0
 61 62  1  0  0  0  0
 62 76  1  0  0  0  0
 63 65  1  0  0  0  0
 63 75  1  0  0  0  0
 64 77  1  0  0  0  0
 66 69  1  0  0  0  0
M  CHG  1  77   1
M  ISO  4  36 100  59 101  76 100  84 101
M  END
> <Batch ID>
0049

> <Smiles>
CCc1nc(CCCC[100NH:0][100C:0](=O)N2CCCC(n3nc(-c4ccc(Oc5ccc(F)cc5F)cc4)c(C(N)=O)c3N)C2)c([101CH2:1][101O:1]c2ccc3c(c2)CN(C(=O)C(NC(=O)C(C)NC)C(C)(C)C)C(C(=O)NC2CCCc4ccccc42)C3)nc1CC

> <Shape>
0.263

> <Color>
0.055

> <Negative vol penalty>
0.000

$$$$

  -OEChem-04052317293D

 92100  0     1  0  0  0  0  0999 V2000
  -20.0373  -21.4100   14.8065 C   0  0  0  0  0  0  0  0  0  0  0  0
  -20.1196  -21.0329   16.1431 C   0  0  0  0  0  0  0  0  0  0  0  0
  -26.2389  -12.6854   21.6827 C   0  0  0  0  0  0  0  0  0  0  0  0
  -25.9686  -13.4742   19.4151 C   0  0  0  0  0  0  0  0  0  0  0  0
  -20.6864  -22.5632   14.3675 C   0  0  0  0  0  0  0  0  0  0  0  0
  -20.8521  -21.8082   17.0413 C   0  0  0  0  0  0  0  0  0  0  0  0
  -19.5728  -22.7942   22.9486 C   0  0  0  0  0  0  0  0  0  0  0  0
  -25.0445  -11.9728   21.5772 C   0  0  0  0  0  0  0  0  0  0  0  0
  -24.7742  -12.7615   19.3097 C   0  0  0  0  0  0  0  0  0  0  0  0
  -20.0545  -22.2154   24.1220 C   0  0  0  0  0  0  0  0  0  0  0  0
  -23.9918   -9.0634   20.2133 C   0  0  0  0  0  0  0  0  0  0  0  0
  -23.9753   -7.7520   20.6880 C   0  0  0  0  0  0  0  0  0  0  0  0
  -21.6411  -24.0179   24.3525 C   0  0  0  0  0  0  0  0  0  0  0  0
  -22.2345   -8.3414   22.2562 C   0  0  0  0  0  0  0  0  0  0  0  0
  -26.7010  -13.4361   20.6017 C   0  0  0  0  0  0  0  0  0  0  0  0
  -29.2284  -13.7154   20.3966 C   0  0  0  0  0  0  0  0  0  0  0  0
  -21.4192  -23.3583   15.2627 C   0  0  0  0  0  0  0  0  0  0  0  0
  -20.1299  -23.9854   22.4618 C   0  0  0  0  0  0  0  0  0  0  0  0
  -21.5127  -22.9724   16.6136 C   0  0  0  0  0  0  0  0  0  0  0  0
  -21.1630  -24.6111   23.1741 C   0  0  0  0  0  0  0  0  0  0  0  0
  -24.3121  -12.0109   20.3907 C   0  0  0  0  0  0  0  0  0  0  0  0
  -21.0908  -22.8257   24.8225 C   0  0  0  0  0  0  0  0  0  0  0  0
  -23.1297  -10.0140   20.7602 C   0  0  0  0  0  0  0  0  0  0  0  0
  -23.0967   -7.3909   21.7094 C   0  0  0  0  0  0  0  0  0  0  0  0
  -22.2511   -9.6529   21.7816 C   0  0  0  0  0  0  0  0  0  0  0  0
  -27.9345  -14.1729   20.7102 C   0  0  0  0  0  0  0  0  0  0  0  0
  -27.7215  -23.7633   26.4167 C   0  0  0  0  0  0  0  0  0  0  0  0
  -27.4381  -24.9052   25.7051 C   0  0  0  0  0  0  0  0  0  0  0  0
  -30.0462  -14.7844   20.6701 C   0  0  0  0  0  0  0  0  0  0  0  0
  -28.6468  -23.4951   24.5187 C   0  0  0  0  0  0  0  0  0  0  0  0
  -29.6530  -12.4383   19.9022 C   0  0  0  0  0  0  0  0  0  0  0  0
  -21.6664  -24.8228   19.8081 C   0  0  0  0  0  0  0  0  0  0  0  0
  -21.4346  -27.7987   21.0780 C   0  0  0  0  0  0  0  0  0  0  0  0
  -21.0753  -29.7412   23.8609 C   0  0  0  0  0  0  0  0  0  0  0  0
  -29.2394  -20.5251   20.7039 C   0  0  0  0  0  0  0  0  0  0  0  0
  -22.1430  -24.5704   14.7320 C   0  0  0  0  0  0  0  0  0  0  0  0
  -19.5810  -24.6112   21.2089 C   0  0  0  0  0  0  0  0  0  0  0  0
  -21.7816  -25.9015   22.7046 C   0  0  0  0  0  0  0  0  0  0  0  0
  -22.5884  -25.5402   15.8235 C   0  0  0  0  0  0  0  0  0  0  0  0
  -30.3733  -18.6416   23.4677 C   0  0  0  0  0  0  0  0  0  0  0  0
  -23.2545  -24.7850   16.9693 C   0  0  0  0  0  0  0  0  0  0  0  0
  -29.9918  -17.2237   23.0447 C   0  0  0  0  0  0  0  0  0  0  0  0
  -29.2986  -19.6627   23.0902 C   0  0  0  0  0  0  0  0  0  0  0  0
  -28.5363  -18.2112   21.2369 C   0  0  0  0  0  0  0  0  0  0  0  0
  -22.2771  -23.8009   17.6233 C   0  0  1  0  0  0  0  0  0  0  0  0
  -20.5694  -25.5537   20.5293 C   0  0  1  0  0  0  0  0  0  0  0  0
  -29.6262  -17.1749   21.5510 C   0  0  2  0  0  0  0  0  0  0  0  0
  -26.6767  -26.1180   26.0543 C   0  0  0  0  0  0  0  0  0  0  0  0
  -28.6104  -25.1122   17.3989 C   0  0  0  0  0  0  0  0  0  0  0  0
  -20.9595  -32.1406   24.5869 C   0  0  0  0  0  0  0  0  0  0  0  0
  -24.4551  -28.0483   20.7262 C   0  0  0  0  0  0  0  0  0  0  0  0
  -24.4067  -29.9981   22.2960 C   0  0  0  0  0  0  0  0  0  0  0  0
  -23.1626  -30.1065   20.1366 C   0  0  0  0  0  0  0  0  0  0  0  0
  -28.0263  -25.6454   23.3821 C   0  0  0  0  0  0  0  0  0  0  0  0
  -18.3438  -29.4013   24.9484 C   0  0  0  0  0  0  0  0  0  0  0  0
  -25.3621  -18.7889   27.2247 C   0  0  0  0  0  0  0  0  0  0  0  0
  -27.3151  -23.4115   27.8255 C   0  0  0  0  0  0  0  0  0  0  0  0
  -29.3938  -22.9612   23.3611 C   0  0  0  0  0  0  0  0  0  0  0  0
  -29.6015  -24.5310   18.3953 C   0  0  0  0  0  0  0  0  0  0  0  0
  -26.1128  -22.4616   27.9062 C   0  0  0  0  0  0  0  0  0  0  0  0
  -28.9349  -23.5017   19.3108 C   0  0  0  0  0  0  0  0  0  0  0  0
  -22.6278  -20.3544   26.9572 C   0  0  0  0  0  0  0  0  0  0  0  0
  -28.4999  -22.3908   22.2457 C   0  0  0  0  0  0  0  0  0  0  0  0
  -29.9184  -22.8573   20.2820 C   0  0  0  0  0  0  0  0  0  0  0  0
  -26.3222  -21.0858   27.2810 C   0  0  0  0  0  0  0  0  0  0  0  0
  -24.0081  -20.7243   26.4355 C   0  0  0  0  0  0  0  0  0  0  0  0
  -21.4870  -20.8414   26.0721 C   0  0  0  0  0  0  0  0  0  1  0  0
  -22.2874  -28.6375   21.9989 C   0  0  1  0  0  0  0  0  0  0  0  0
  -20.1634  -30.9183   24.1568 C   0  0  2  0  0  0  0  0  0  0  0  0
  -23.5678  -29.1723   21.2975 C   0  0  0  0  0  0  0  0  0  0  0  0
  -27.9259  -15.4343   21.1495 N   0  0  0  0  0  0  0  0  0  0  0  0
  -28.4745  -22.8897   25.6727 N   0  0  0  0  0  0  0  0  0  0  0  0
  -28.0378  -24.7189   24.4915 N   0  0  0  0  0  0  0  0  0  0  0  0
  -29.2245  -15.7784   21.1139 N   0  0  0  0  0  0  0  0  0  0  0  0
  -21.2147  -26.4709   21.4709 N   0  0  0  0  0  0  0  0  0  0  0  0
  -28.9455  -19.5500   21.6684 N   0  0  0  0  0  0  0  0  0  0  0  0
  -31.3809  -14.9617   20.5719 N   0  0  0  0  0  0  0  0  0  0  0  0
  -28.6823  -11.4530   19.6760 N   0  0  0  0  0  0  0  0  0  0  0  0
  -21.3630  -24.5028   18.4986 N   0  0  0  0  0  0  0  0  0  0  0  0
  -21.4146  -29.6811   22.5258 N   0  0  0  0  0  0  0  0  0  0  0  0
  -29.2856  -21.8599   21.1335 N   0  0  0  0  0  0  0  0  0  0  0  0
  -19.2081  -30.5722   25.2470 N   0  3  0  0  0  0  0  0  0  0  0  0
  -25.0606  -20.2611   27.3700 N   0  3  1  0  0  0  0  0  0  0  0  0
  -30.8594  -12.1732   19.6836 O   0  0  0  0  0  0  0  0  0  0  0  0
  -22.7114  -24.5693   20.3959 O   0  0  0  0  0  0  0  0  0  0  0  0
  -20.9743  -28.3051   20.0517 O   0  0  0  0  0  0  0  0  0  0  0  0
  -21.4520  -28.9560   24.7281 O   0  0  0  0  0  0  0  0  0  0  0  0
  -29.4418  -20.2218   19.5211 O   0  0  0  0  0  0  0  0  0  0  0  0
  -23.1467  -11.3154   20.2874 O   0  0  0  0  0  0  0  0  0  0  0  0
  -21.5633  -22.2625   25.9677 O   0  0  0  0  0  0  0  0  0  1  0  0
  -23.0799   -6.1311   22.1640 F   0  0  0  0  0  0  0  0  0  0  0  0
  -21.4197  -10.5614   22.3101 F   0  0  0  0  0  0  0  0  0  0  0  0
  1  2  1  0  0  0  0
  1  5  2  0  0  0  0
  2  6  2  0  0  0  0
  3  8  2  0  0  0  0
  3 15  1  0  0  0  0
  4  9  1  0  0  0  0
  4 15  2  0  0  0  0
  5 17  1  0  0  0  0
  6 19  1  0  0  0  0
  7 10  2  0  0  0  0
  7 18  1  0  0  0  0
  8 21  1  0  0  0  0
  9 21  2  0  0  0  0
 10 22  1  0  0  0  0
 11 12  2  0  0  0  0
 11 23  1  0  0  0  0
 12 24  1  0  0  0  0
 13 20  1  0  0  0  0
 13 22  2  0  0  0  0
 14 24  2  0  0  0  0
 14 25  1  0  0  0  0
 15 26  1  0  0  0  0
 16 26  1  0  0  0  0
 16 29  2  0  0  0  0
 16 31  1  0  0  0  0
 17 19  2  0  0  0  0
 17 36  1  0  0  0  0
 18 20  2  0  0  0  0
 18 37  1  0  0  0  0
 19 45  1  0  0  0  0
 20 38  1  0  0  0  0
 21 89  1  0  0  0  0
 22 90  1  0  0  0  0
 23 25  2  0  0  0  0
 23 89  1  0  0  0  0
 24 91  1  0  0  0  0
 25 92  1  0  0  0  0
 26 71  2  0  0  0  0
 27 28  2  0  0  0  0
 27 57  1  0  0  0  0
 27 72  1  0  0  0  0
 28 48  1  0  0  0  0
 28 73  1  0  0  0  0
 29 74  1  0  0  0  0
 29 77  1  0  0  0  0
 30 58  1  0  0  0  0
 30 72  2  0  0  0  0
 30 73  1  0  0  0  0
 31 78  1  0  0  0  0
 31 84  2  0  0  0  0
 32 46  1  0  0  0  0
 32 79  1  0  0  0  0
 32 85  2  0  0  0  0
 33 68  1  0  0  0  0
 33 75  1  0  0  0  0
 33 86  2  0  0  0  0
 34 69  1  0  0  0  0
 34 80  1  0  0  0  0
 34 87  2  0  0  0  0
 35 76  1  0  0  0  0
 35 81  1  0  0  0  0
 35 88  2  0  0  0  0
 36 39  1  0  0  0  0
 37 46  1  0  0  0  0
 38 75  1  0  0  0  0
 39 41  1  0  0  0  0
 40 42  1  0  0  0  0
 40 43  1  0  0  0  0
 41 45  1  0  0  0  0
 42 47  1  0  0  0  0
 43 76  1  0  0  0  0
 44 47  1  0  0  0  0
 44 76  1  0  0  0  0
 45 79  1  0  0  0  0
 46 75  1  0  0  0  0
 47 74  1  0  0  0  0
 49 59  1  0  0  0  0
 50 69  1  0  0  0  0
 51 70  1  0  0  0  0
 52 70  1  0  0  0  0
 53 70  1  0  0  0  0
 54 73  1  0  0  0  0
 55 82  1  0  0  0  0
 56 83  1  0  0  0  0
 57 60  1  0  0  0  0
 58 63  1  0  0  0  0
 59 61  1  0  0  0  0
 60 65  1  0  0  0  0
 61 64  1  0  0  0  0
 62 66  1  0  0  0  0
 62 67  1  0  0  0  0
 63 81  1  0  0  0  0
 64 81  1  0  0  0  0
 65 83  1  0  0  0  0
 66 83  1  0  0  0  0
 67 90  1  0  0  0  0
 68 70  1  0  0  0  0
 68 80  1  0  0  0  0
 69 82  1  0  0  0  0
 71 74  1  0  0  0  0
M  CHG  2  82   1  83   1
M  ISO  4  35 100  67 101  81 100  90 101
M  END
> <Batch ID>
0049

> <Smiles>
CCCC[100N:0](CCc1nc(CCCN(C)CC[101CH2:1][101O:1]c2ccc3c(c2)CN(C(=O)C(NC(=O)C(C)NC)C(C)(C)C)C(C(=O)NC2CCCc4ccccc42)C3)c(C)n1C)[100C:0](=O)N1CCCC(n2nc(-c3ccc(Oc4ccc(F)cc4F)cc3)c(C(N)=O)c2N)C1

> <Shape>
0.229

> <Color>
0.073

> <Negative vol penalty>
0.000

$$$$

  -OEChem-04052317293D

 86 94  0     1  0  0  0  0  0999 V2000
  -17.1699  -30.4791   23.8229 C   0  0  0  0  0  0  0  0  0  0  0  0
  -18.5160  -30.8274   23.7771 C   0  0  0  0  0  0  0  0  0  0  0  0
  -24.4919  -14.2199   20.0666 C   0  0  0  0  0  0  0  0  0  0  0  0
  -26.5719  -14.2118   21.2957 C   0  0  0  0  0  0  0  0  0  0  0  0
  -16.7762  -29.1794   23.5069 C   0  0  0  0  0  0  0  0  0  0  0  0
  -19.4693  -29.8759   23.4162 C   0  0  0  0  0  0  0  0  0  0  0  0
  -25.7619  -29.2773   20.0456 C   0  0  0  0  0  0  0  0  0  0  0  0
  -24.5067  -12.8256   20.0323 C   0  0  0  0  0  0  0  0  0  0  0  0
  -26.5867  -12.8175   21.2614 C   0  0  0  0  0  0  0  0  0  0  0  0
  -27.0418  -28.7588   20.2380 C   0  0  0  0  0  0  0  0  0  0  0  0
  -23.8116   -9.2587   19.9347 C   0  0  0  0  0  0  0  0  0  0  0  0
  -22.6222   -8.5902   20.2245 C   0  0  0  0  0  0  0  0  0  0  0  0
  -26.2372  -26.5657   19.6360 C   0  0  0  0  0  0  0  0  0  0  0  0
  -31.0675  -26.2380   21.8344 C   0  0  0  0  0  0  0  0  0  0  0  0
  -22.5862   -9.6045   22.4170 C   0  0  0  0  0  0  0  0  0  0  0  0
  -25.5245  -14.9131   20.6983 C   0  0  0  0  0  0  0  0  0  0  0  0
  -24.9305  -17.1738   21.7200 C   0  0  0  0  0  0  0  0  0  0  0  0
  -17.7242  -28.2141   23.1327 C   0  0  0  0  0  0  0  0  0  0  0  0
  -24.7059  -28.4404   19.6569 C   0  0  0  0  0  0  0  0  0  0  0  0
  -19.0880  -28.5617   23.0963 C   0  0  0  0  0  0  0  0  0  0  0  0
  -24.9455  -27.0765   19.4369 C   0  0  0  0  0  0  0  0  0  0  0  0
  -32.2809  -25.5765   21.9057 C   0  0  0  0  0  0  0  0  0  0  0  0
  -25.5541  -12.1243   20.6297 C   0  0  0  0  0  0  0  0  0  0  0  0
  -27.2789  -27.4023   20.0359 C   0  0  0  0  0  0  0  0  0  0  0  0
  -24.3884  -10.1001   20.8861 C   0  0  0  0  0  0  0  0  0  0  0  0
  -22.0095   -8.7631   21.4656 C   0  0  0  0  0  0  0  0  0  0  0  0
  -23.7757  -10.2730   22.1272 C   0  0  0  0  0  0  0  0  0  0  0  0
  -25.5100  -16.3534   20.7336 C   0  0  0  0  0  0  0  0  0  0  0  0
  -30.8455  -27.0657   20.7523 C   0  0  0  0  0  0  0  0  0  0  0  0
  -33.1918  -25.7864   20.8899 C   0  0  0  0  0  0  0  0  0  0  0  0
  -25.1873  -18.4546   21.2956 C   0  0  0  0  0  0  0  0  0  0  0  0
  -24.2235  -16.8106   22.9132 C   0  0  0  0  0  0  0  0  0  0  0  0
  -21.9312  -27.5829   20.9489 C   0  0  0  0  0  0  0  0  0  0  0  0
  -21.4977  -26.1155   18.0886 C   0  0  0  0  0  0  0  0  0  0  0  0
  -22.8973  -24.7393   15.2968 C   0  0  0  0  0  0  0  0  0  0  0  0
  -29.4222  -20.8137   17.7811 C   0  0  0  0  0  0  0  0  0  0  0  0
  -17.2556  -26.8095   22.8457 C   0  0  0  0  0  0  0  0  0  0  0  0
  -23.3371  -29.0201   19.4278 C   0  0  0  0  0  0  0  0  0  0  0  0
  -23.8504  -26.1395   18.9996 C   0  0  0  0  0  0  0  0  0  0  0  0
  -18.2895  -25.9609   22.1101 C   0  0  0  0  0  0  0  0  0  0  0  0
  -25.8981  -21.0076   17.3121 C   0  0  0  0  0  0  0  0  0  0  0  0
  -19.6624  -26.1120   22.7575 C   0  0  0  0  0  0  0  0  0  0  0  0
  -25.3467  -19.9108   18.2248 C   0  0  0  0  0  0  0  0  0  0  0  0
  -27.2198  -20.5945   16.6683 C   0  0  0  0  0  0  0  0  0  0  0  0
  -27.7073  -19.0542   18.5294 C   0  0  0  0  0  0  0  0  0  0  0  0
  -20.1494  -27.5643   22.6855 C   0  0  1  0  0  0  0  0  0  0  0  0
  -22.2238  -27.9821   19.5302 C   0  0  1  0  0  0  0  0  0  0  0  0
  -26.4035  -19.4466   19.2452 C   0  0  2  0  0  0  0  0  0  0  0  0
  -34.5202  -25.1084   20.8999 C   0  0  0  0  0  0  0  0  0  0  0  0
  -22.2894  -23.5864   13.1524 C   0  0  0  0  0  0  0  0  0  0  0  0
  -20.9265  -23.5474   19.6341 C   0  0  0  0  0  0  0  0  0  0  0  0
  -21.2693  -22.2732   17.5063 C   0  0  0  0  0  0  0  0  0  0  0  0
  -19.4231  -23.9423   17.6750 C   0  0  0  0  0  0  0  0  0  0  0  0
  -24.1312  -26.8762   13.6629 C   0  0  0  0  0  0  0  0  0  0  0  0
  -30.1670  -22.6418   23.4753 C   0  0  0  0  0  0  0  0  0  0  0  0
  -32.5706  -24.6710   23.0523 C   0  0  0  0  0  0  0  0  0  0  0  0
  -29.5466  -27.8065   20.6275 C   0  0  0  0  0  0  0  0  0  1  0  0
  -31.5490  -22.0786   19.9945 C   0  0  0  0  0  0  0  0  0  0  0  0
  -31.5795  -20.9202   19.0032 C   0  0  0  0  0  0  0  0  0  0  0  0
  -32.4764  -23.1812   22.7161 C   0  0  0  0  0  0  0  0  0  0  0  0
  -31.0487  -21.6499   21.3680 C   0  0  0  0  0  0  0  0  0  0  0  0
  -21.8144  -24.7498   17.5288 C   0  0  1  0  0  0  0  0  0  0  0  0
  -22.5875  -24.9190   13.8216 C   0  0  2  0  0  0  0  0  0  0  0  0
  -20.8788  -23.6452   18.0962 C   0  0  0  0  0  0  0  0  0  0  0  0
  -26.0909  -17.0542   19.7561 N   0  0  0  0  0  0  0  0  0  0  0  0
  -31.7552  -27.2525   19.7726 N   0  0  0  0  0  0  0  0  0  0  0  0
  -32.9476  -26.6021   19.8425 N   0  0  0  0  0  0  0  0  0  0  0  0
  -25.8777  -18.3284   20.1261 N   0  0  0  0  0  0  0  0  0  0  0  0
  -22.5277  -26.7529   18.7948 N   0  0  0  0  0  0  0  0  0  0  0  0
  -28.1786  -20.1669   17.6900 N   0  0  0  0  0  0  0  0  0  0  0  0
  -24.8875  -19.6652   21.8123 N   0  0  0  0  0  0  0  0  0  0  0  0
  -24.0489  -15.4495   23.1983 N   0  0  0  0  0  0  0  0  0  0  0  0
  -20.6425  -27.8668   21.3589 N   0  0  0  0  0  0  0  0  0  0  0  0
  -21.7693  -24.8833   16.0768 N   0  0  0  0  0  0  0  0  0  0  0  0
  -30.2690  -20.3510   18.7808 N   0  0  0  0  0  0  0  0  0  0  0  0
  -23.7438  -25.5478   13.1225 N   0  3  0  0  0  0  0  0  0  0  0  0
  -31.0945  -22.8352   22.3008 N   0  3  1  0  0  0  0  0  0  0  0  0
  -23.7460  -17.6677   23.6948 O   0  0  0  0  0  0  0  0  0  0  0  0
  -22.8092  -27.0550   21.6213 O   0  0  0  0  0  0  0  0  0  0  0  0
  -20.3800  -26.6021   17.9000 O   0  0  0  0  0  0  0  0  0  0  0  0
  -24.0261  -24.4919   15.7152 O   0  0  0  0  0  0  0  0  0  0  0  0
  -29.7511  -21.7387   17.0306 O   0  0  0  0  0  0  0  0  0  0  0  0
  -25.5688  -10.7637   20.5966 O   0  0  0  0  0  0  0  0  0  0  0  0
  -28.5270  -26.8935   20.2236 O   0  0  0  0  0  0  0  0  0  1  0  0
  -20.8665   -8.1222   21.7432 F   0  0  0  0  0  0  0  0  0  0  0  0
  -24.3244  -11.0809   23.0448 F   0  0  0  0  0  0  0  0  0  0  0  0
  1  2  1  0  0  0  0
  1  5  2  0  0  0  0
  2  6  2  0  0  0  0
  3  8  2  0  0  0  0
  3 16  1  0  0  0  0
  4  9  1  0  0  0  0
  4 16  2  0  0  0  0
  5 18  1  0  0  0  0
  6 20  1  0  0  0  0
  7 10  2  0  0  0  0
  7 19  1  0  0  0  0
  8 23  1  0  0  0  0
  9 23  2  0  0  0  0
 10 24  1  0  0  0  0
 11 12  2  0  0  0  0
 11 25  1  0  0  0  0
 12 26  1  0  0  0  0
 13 21  1  0  0  0  0
 13 24  2  0  0  0  0
 14 22  2  0  0  0  0
 14 29  1  0  0  0  0
 15 26  2  0  0  0  0
 15 27  1  0  0  0  0
 16 28  1  0  0  0  0
 17 28  1  0  0  0  0
 17 31  2  0  0  0  0
 17 32  1  0  0  0  0
 18 20  2  0  0  0  0
 18 37  1  0  0  0  0
 19 21  2  0  0  0  0
 19 38  1  0  0  0  0
 20 46  1  0  0  0  0
 21 39  1  0  0  0  0
 22 30  1  0  0  0  0
 22 56  1  0  0  0  0
 23 83  1  0  0  0  0
 24 84  1  0  0  0  0
 25 27  2  0  0  0  0
 25 83  1  0  0  0  0
 26 85  1  0  0  0  0
 27 86  1  0  0  0  0
 28 65  2  0  0  0  0
 29 57  1  0  0  0  0
 29 66  2  0  0  0  0
 30 49  1  0  0  0  0
 30 67  2  0  0  0  0
 31 68  1  0  0  0  0
 31 71  1  0  0  0  0
 32 72  1  0  0  0  0
 32 78  2  0  0  0  0
 33 47  1  0  0  0  0
 33 73  1  0  0  0  0
 33 79  2  0  0  0  0
 34 62  1  0  0  0  0
 34 69  1  0  0  0  0
 34 80  2  0  0  0  0
 35 63  1  0  0  0  0
 35 74  1  0  0  0  0
 35 81  2  0  0  0  0
 36 70  1  0  0  0  0
 36 75  1  0  0  0  0
 36 82  2  0  0  0  0
 37 40  1  0  0  0  0
 38 47  1  0  0  0  0
 39 69  1  0  0  0  0
 40 42  1  0  0  0  0
 41 43  1  0  0  0  0
 41 44  1  0  0  0  0
 42 46  1  0  0  0  0
 43 48  1  0  0  0  0
 44 70  1  0  0  0  0
 45 48  1  0  0  0  0
 45 70  1  0  0  0  0
 46 73  1  0  0  0  0
 47 69  1  0  0  0  0
 48 68  1  0  0  0  0
 50 63  1  0  0  0  0
 51 64  1  0  0  0  0
 52 64  1  0  0  0  0
 53 64  1  0  0  0  0
 54 76  1  0  0  0  0
 55 77  1  0  0  0  0
 56 60  1  0  0  0  0
 57 84  1  0  0  0  0
 58 59  1  0  0  0  0
 58 61  1  0  0  0  0
 59 75  1  0  0  0  0
 60 77  1  0  0  0  0
 61 77  1  0  0  0  0
 62 64  1  0  0  0  0
 62 74  1  0  0  0  0
 63 76  1  0  0  0  0
 65 68  1  0  0  0  0
 66 67  1  0  0  0  0
M  CHG  2  76   1  77   1
M  ISO  4  36 100  57 101  75 100  84 101
M  END
> <Batch ID>
0049

> <Smiles>
CNC(C)C(=O)NC(C(=O)N1Cc2cc([101O:1][101CH2:1]c3cc(CCN(C)CCC[100NH:0][100C:0](=O)N4CCCC(n5nc(-c6ccc(Oc7ccc(F)cc7F)cc6)c(C(N)=O)c5N)C4)c(C)nn3)ccc2CC1C(=O)NC1CCCc2ccccc21)C(C)(C)C

> <Shape>
0.221

> <Color>
0.094

> <Negative vol penalty>
0.000

$$$$

  -OEChem-04052317293D

 87 95  0     1  0  0  0  0  0999 V2000
  -24.8459  -35.4665   20.4868 C   0  0  0  0  0  0  0  0  0  0  0  0
  -25.5823  -34.2921   20.6052 C   0  0  0  0  0  0  0  0  0  0  0  0
  -23.6708  -13.2080   19.3363 C   0  0  0  0  0  0  0  0  0  0  0  0
  -25.0603  -12.4169   21.1475 C   0  0  0  0  0  0  0  0  0  0  0  0
  -23.6267  -35.5934   21.1510 C   0  0  0  0  0  0  0  0  0  0  0  0
  -25.1003  -33.2443   21.3888 C   0  0  0  0  0  0  0  0  0  0  0  0
  -25.5623  -28.7442   19.1126 C   0  0  0  0  0  0  0  0  0  0  0  0
  -23.3740  -11.8903   18.9884 C   0  0  0  0  0  0  0  0  0  0  0  0
  -24.7635  -11.0992   20.7996 C   0  0  0  0  0  0  0  0  0  0  0  0
  -26.8262  -28.1558   19.1160 C   0  0  0  0  0  0  0  0  0  0  0  0
  -22.2067   -8.9295   21.2190 C   0  0  0  0  0  0  0  0  0  0  0  0
  -21.8805   -8.0468   22.2485 C   0  0  0  0  0  0  0  0  0  0  0  0
  -26.1570  -26.7431   20.9533 C   0  0  0  0  0  0  0  0  0  0  0  0
  -30.2838  -23.7534   20.5955 C   0  0  0  0  0  0  0  0  0  0  0  0
  -23.7566   -6.6493   21.6447 C   0  0  0  0  0  0  0  0  0  0  0  0
  -31.0751  -25.9407   21.0406 C   0  0  0  0  0  0  0  0  0  0  0  0
  -24.5140  -13.4714   20.4158 C   0  0  0  0  0  0  0  0  0  0  0  0
  -24.1164  -15.6539   21.6753 C   0  0  0  0  0  0  0  0  0  0  0  0
  -23.1248  -34.5429   21.9354 C   0  0  0  0  0  0  0  0  0  0  0  0
  -24.5881  -28.3435   20.0383 C   0  0  0  0  0  0  0  0  0  0  0  0
  -23.8738  -33.3577   22.0652 C   0  0  0  0  0  0  0  0  0  0  0  0
  -24.8806  -27.3263   20.9579 C   0  0  0  0  0  0  0  0  0  0  0  0
  -30.0085  -25.0789   20.8821 C   0  0  0  0  0  0  0  0  0  0  0  0
  -23.9203  -10.8358   19.7200 C   0  0  0  0  0  0  0  0  0  0  0  0
  -27.1247  -27.1571   20.0383 C   0  0  0  0  0  0  0  0  0  0  0  0
  -23.3078   -8.6721   20.4022 C   0  0  0  0  0  0  0  0  0  0  0  0
  -22.6554   -6.9067   22.4614 C   0  0  0  0  0  0  0  0  0  0  0  0
  -24.0827   -7.5321   20.6151 C   0  0  0  0  0  0  0  0  0  0  0  0
  -24.8214  -14.8324   20.7754 C   0  0  0  0  0  0  0  0  0  0  0  0
  -31.6075  -23.3775   20.4860 C   0  0  0  0  0  0  0  0  0  0  0  0
  -24.8050  -16.8422   21.6672 C   0  0  0  0  0  0  0  0  0  0  0  0
  -22.9439  -15.3683   22.4495 C   0  0  0  0  0  0  0  0  0  0  0  0
  -22.9911  -29.7835   22.3791 C   0  0  0  0  0  0  0  0  0  0  0  0
  -21.4029  -26.9579   22.5065 C   0  0  0  0  0  0  0  0  0  0  0  0
  -21.4004  -23.6047   21.8720 C   0  0  0  0  0  0  0  0  0  0  0  0
  -30.3306  -18.2497   20.6210 C   0  0  0  0  0  0  0  0  0  0  0  0
  -21.8246  -34.7444   22.6727 C   0  0  0  0  0  0  0  0  0  0  0  0
  -23.2209  -28.9694   20.0041 C   0  0  0  0  0  0  0  0  0  0  0  0
  -23.8633  -26.8459   21.9593 C   0  0  0  0  0  0  0  0  0  0  0  0
  -21.2052  -33.4453   23.1815 C   0  0  0  0  0  0  0  0  0  0  0  0
  -27.5588  -19.5660   18.8727 C   0  0  0  0  0  0  0  0  0  0  0  0
  -22.2608  -32.5830   23.8663 C   0  0  0  0  0  0  0  0  0  0  0  0
  -26.4638  -18.5677   19.2458 C   0  0  0  0  0  0  0  0  0  0  0  0
  -28.9016  -18.8781   18.6198 C   0  0  0  0  0  0  0  0  0  0  0  0
  -28.2509  -17.0086   20.1044 C   0  0  0  0  0  0  0  0  0  0  0  0
  -23.3724  -32.1894   22.8861 C   0  0  1  0  0  0  0  0  0  0  0  0
  -22.4728  -28.8434   21.3277 C   0  0  1  0  0  0  0  0  0  0  0  0
  -26.9061  -17.6802   20.4222 C   0  0  2  0  0  0  0  0  0  0  0  0
  -32.2717  -16.3680   18.7593 C   0  0  0  0  0  0  0  0  0  0  0  0
  -33.1839  -21.8643   19.2275 C   0  0  0  0  0  0  0  0  0  0  0  0
  -19.9759  -21.5538   22.1211 C   0  0  0  0  0  0  0  0  0  0  0  0
  -22.0620  -26.8649   25.4843 C   0  0  0  0  0  0  0  0  0  0  0  0
  -21.4749  -24.4311   25.4671 C   0  0  0  0  0  0  0  0  0  0  0  0
  -19.7410  -26.1346   24.9062 C   0  0  0  0  0  0  0  0  0  0  0  0
  -33.1984  -21.4294   22.4062 C   0  0  0  0  0  0  0  0  0  0  0  0
  -30.7516  -20.9810   22.2269 C   0  0  0  0  0  0  0  0  0  0  0  0
  -21.3253  -23.1600   18.9470 C   0  0  0  0  0  0  0  0  0  0  0  0
  -28.5951  -25.5644   21.0165 C   0  0  0  0  0  0  0  0  0  1  0  0
  -32.8548  -17.7402   18.4521 C   0  0  0  0  0  0  0  0  0  0  0  0
  -31.8657  -18.8712   18.7074 C   0  0  0  0  0  0  0  0  0  0  0  0
  -32.4054  -19.5183   21.0260 C   0  0  0  0  0  0  0  0  0  0  0  0
  -31.9581  -21.9623   20.1781 C   0  0  1  0  0  0  0  0  0  0  0  0
  -21.5916  -25.6581   23.2508 C   0  0  1  0  0  0  0  0  0  0  0  0
  -20.3717  -22.7055   21.2103 C   0  0  2  0  0  0  0  0  0  0  0  0
  -21.2374  -25.7824   24.7596 C   0  0  0  0  0  0  0  0  0  0  0  0
  -32.0821  -20.9844   21.4355 C   0  0  0  0  0  0  0  0  0  0  0  0
  -32.3609  -25.5452   20.9279 N   0  0  0  0  0  0  0  0  0  0  0  0
  -25.8769  -15.4469   20.2347 N   0  0  0  0  0  0  0  0  0  0  0  0
  -32.6314  -24.2425   20.6459 N   0  0  0  0  0  0  0  0  0  0  0  0
  -25.8401  -16.6672   20.7965 N   0  0  0  0  0  0  0  0  0  0  0  0
  -22.5428  -27.4933   21.8902 N   0  0  0  0  0  0  0  0  0  0  0  0
  -29.2628  -18.0050   19.7449 N   0  0  0  0  0  0  0  0  0  0  0  0
  -24.6200  -18.0093   22.3199 N   0  0  0  0  0  0  0  0  0  0  0  0
  -22.3633  -14.0974   22.3388 N   0  0  0  0  0  0  0  0  0  0  0  0
  -22.9280  -31.1169   22.0220 N   0  0  0  0  0  0  0  0  0  0  0  0
  -20.8070  -24.6592   22.5332 N   0  0  0  0  0  0  0  0  0  0  0  0
  -31.4411  -18.9340   20.1045 N   0  0  0  0  0  0  0  0  0  0  0  0
  -20.9172  -22.1380   19.9449 N   0  3  0  0  0  0  0  0  0  0  0  0
  -22.4168  -16.2203   23.2043 O   0  0  0  0  0  0  0  0  0  0  0  0
  -23.4153  -29.3326   23.4366 O   0  0  0  0  0  0  0  0  0  0  0  0
  -20.2838  -27.4753   22.4673 O   0  0  0  0  0  0  0  0  0  0  0  0
  -22.6091  -23.3908   21.8116 O   0  0  0  0  0  0  0  0  0  0  0  0
  -30.2982  -17.8708   21.7989 O   0  0  0  0  0  0  0  0  0  0  0  0
  -23.6308   -9.5499   19.3810 O   0  0  0  0  0  0  0  0  0  0  0  0
  -28.3578  -26.5815   20.0442 O   0  0  0  0  0  0  0  0  0  1  0  0
  -22.3430   -6.0600   23.4511 F   0  0  0  0  0  0  0  0  0  0  0  0
  -25.1424   -7.2801   19.8345 F   0  0  0  0  0  0  0  0  0  0  0  0
  1  2  1  0  0  0  0
  1  5  2  0  0  0  0
  2  6  2  0  0  0  0
  3  8  2  0  0  0  0
  3 17  1  0  0  0  0
  4  9  1  0  0  0  0
  4 17  2  0  0  0  0
  5 19  1  0  0  0  0
  6 21  1  0  0  0  0
  7 10  2  0  0  0  0
  7 20  1  0  0  0  0
  8 24  1  0  0  0  0
  9 24  2  0  0  0  0
 10 25  1  0  0  0  0
 11 12  2  0  0  0  0
 11 26  1  0  0  0  0
 12 27  1  0  0  0  0
 13 22  1  0  0  0  0
 13 25  2  0  0  0  0
 14 23  2  0  0  0  0
 14 30  1  0  0  0  0
 15 27  2  0  0  0  0
 15 28  1  0  0  0  0
 16 23  1  0  0  0  0
 16 67  2  0  0  0  0
 17 29  1  0  0  0  0
 18 29  1  0  0  0  0
 18 31  2  0  0  0  0
 18 32  1  0  0  0  0
 19 21  2  0  0  0  0
 19 37  1  0  0  0  0
 20 22  2  0  0  0  0
 20 38  1  0  0  0  0
 21 46  1  0  0  0  0
 22 39  1  0  0  0  0
 23 58  1  0  0  0  0
 24 84  1  0  0  0  0
 25 85  1  0  0  0  0
 26 28  2  0  0  0  0
 26 84  1  0  0  0  0
 27 86  1  0  0  0  0
 28 87  1  0  0  0  0
 29 68  2  0  0  0  0
 30 62  1  0  0  0  0
 30 69  2  0  0  0  0
 31 70  1  0  0  0  0
 31 73  1  0  0  0  0
 32 74  1  0  0  0  0
 32 79  2  0  0  0  0
 33 47  1  0  0  0  0
 33 75  1  0  0  0  0
 33 80  2  0  0  0  0
 34 63  1  0  0  0  0
 34 71  1  0  0  0  0
 34 81  2  0  0  0  0
 35 64  1  0  0  0  0
 35 76  1  0  0  0  0
 35 82  2  0  0  0  0
 36 72  1  0  0  0  0
 36 77  1  0  0  0  0
 36 83  2  0  0  0  0
 37 40  1  0  0  0  0
 38 47  1  0  0  0  0
 39 71  1  0  0  0  0
 40 42  1  0  0  0  0
 41 43  1  0  0  0  0
 41 44  1  0  0  0  0
 42 46  1  0  0  0  0
 43 48  1  0  0  0  0
 44 72  1  0  0  0  0
 45 48  1  0  0  0  0
 45 72  1  0  0  0  0
 46 75  1  0  0  0  0
 47 71  1  0  0  0  0
 48 70  1  0  0  0  0
 49 59  1  0  0  0  0
 50 62  1  0  0  0  0
 51 64  1  0  0  0  0
 52 65  1  0  0  0  0
 53 65  1  0  0  0  0
 54 65  1  0  0  0  0
 55 66  1  0  0  0  0
 56 66  1  0  0  0  0
 57 78  1  0  0  0  0
 58 85  1  0  0  0  0
 59 60  1  0  0  0  0
 60 77  1  0  0  0  0
 61 66  1  0  0  0  0
 61 77  1  0  0  0  0
 62 66  1  0  0  0  0
 63 65  1  0  0  0  0
 63 76  1  0  0  0  0
 64 78  1  0  0  0  0
 67 69  1  0  0  0  0
 68 70  1  0  0  0  0
M  CHG  1  78   1
M  ISO  4  36 100  58 101  77 100  85 101
M  END
> <Batch ID>
0049

> <Smiles>
CCC[100N:0](CC(C)(C)C(C)c1cc([101CH2:1][101O:1]c2ccc3c(c2)CN(C(=O)C(NC(=O)C(C)NC)C(C)(C)C)C(C(=O)NC2CCCc4ccccc42)C3)cnn1)[100C:0](=O)N1CCCC(n2nc(-c3ccc(Oc4ccc(F)cc4F)cc3)c(C(N)=O)c2N)C1

> <Shape>
0.219

> <Color>
0.068

> <Negative vol penalty>
0.000

$$$$

  -OEChem-04052317293D

 84 92  0     1  0  0  0  0  0999 V2000
  -28.1119  -31.5365   26.9738 C   0  0  0  0  0  0  0  0  0  0  0  0
  -27.9293  -30.1850   26.6992 C   0  0  0  0  0  0  0  0  0  0  0  0
  -26.0965  -13.6955   21.7458 C   0  0  0  0  0  0  0  0  0  0  0  0
  -25.4589  -12.8677   19.5675 C   0  0  0  0  0  0  0  0  0  0  0  0
  -27.1492  -32.4636   26.5769 C   0  0  0  0  0  0  0  0  0  0  0  0
  -26.7832  -29.7596   26.0284 C   0  0  0  0  0  0  0  0  0  0  0  0
  -27.8027  -26.4010   22.3780 C   0  0  0  0  0  0  0  0  0  0  0  0
  -25.6559  -12.5063   22.3267 C   0  0  0  0  0  0  0  0  0  0  0  0
  -25.0184  -11.6785   20.1483 C   0  0  0  0  0  0  0  0  0  0  0  0
  -28.0505  -25.0871   22.7728 C   0  0  0  0  0  0  0  0  0  0  0  0
  -23.3947   -8.5686   21.0980 C   0  0  0  0  0  0  0  0  0  0  0  0
  -22.1645   -8.0602   20.6812 C   0  0  0  0  0  0  0  0  0  0  0  0
  -25.7898  -24.4891   22.1805 C   0  0  0  0  0  0  0  0  0  0  0  0
  -21.0749  -10.0818   21.4315 C   0  0  0  0  0  0  0  0  0  0  0  0
  -25.9979  -13.8762   20.3662 C   0  0  0  0  0  0  0  0  0  0  0  0
  -27.7432  -15.3870   19.2803 C   0  0  0  0  0  0  0  0  0  0  0  0
  -25.9953  -32.0505   25.8923 C   0  0  0  0  0  0  0  0  0  0  0  0
  -26.5411  -26.7719   21.8909 C   0  0  0  0  0  0  0  0  0  0  0  0
  -25.8035  -30.6819   25.6231 C   0  0  0  0  0  0  0  0  0  0  0  0
  -25.5293  -25.8078   21.7778 C   0  0  0  0  0  0  0  0  0  0  0  0
  -25.1169  -11.4978   21.5279 C   0  0  0  0  0  0  0  0  0  0  0  0
  -27.0431  -24.1315   22.6768 C   0  0  0  0  0  0  0  0  0  0  0  0
  -23.4650   -9.8335   21.6817 C   0  0  0  0  0  0  0  0  0  0  0  0
  -21.0046   -8.8168   20.8479 C   0  0  0  0  0  0  0  0  0  0  0  0
  -22.3051  -10.5902   21.8484 C   0  0  0  0  0  0  0  0  0  0  0  0
  -26.4522  -15.1046   19.7657 C   0  0  0  0  0  0  0  0  0  0  0  0
  -29.7708  -21.3080   18.6507 C   0  0  0  0  0  0  0  0  0  0  0  0
  -28.5664  -21.9543   18.3391 C   0  0  0  0  0  0  0  0  0  0  0  0
  -27.6602  -16.6761   18.8138 C   0  0  0  0  0  0  0  0  0  0  0  0
  -28.9127  -14.5580   19.2535 C   0  0  0  0  0  0  0  0  0  0  0  0
  -24.2828  -28.8029   22.8285 C   0  0  0  0  0  0  0  0  0  0  0  0
  -22.9033  -27.9595   20.0164 C   0  0  0  0  0  0  0  0  0  0  0  0
  -22.5868  -25.6525   17.5215 C   0  0  0  0  0  0  0  0  0  0  0  0
  -24.6339  -20.3432   15.6976 C   0  0  0  0  0  0  0  0  0  0  0  0
  -24.9600  -33.0840   25.5251 C   0  0  0  0  0  0  0  0  0  0  0  0
  -26.2979  -28.1874   21.4440 C   0  0  0  0  0  0  0  0  0  0  0  0
  -24.1638  -26.1503   21.2423 C   0  0  0  0  0  0  0  0  0  0  0  0
  -23.9524  -32.5949   24.4878 C   0  0  0  0  0  0  0  0  0  0  0  0
  -24.0483  -20.1637   19.3481 C   0  0  0  0  0  0  0  0  0  0  0  0
  -23.4412  -31.2052   24.8540 C   0  0  0  0  0  0  0  0  0  0  0  0
  -24.6687  -18.8179   19.7192 C   0  0  0  0  0  0  0  0  0  0  0  0
  -23.5468  -20.1791   17.9073 C   0  0  0  0  0  0  0  0  0  0  0  0
  -25.2000  -18.4517   17.2771 C   0  0  0  0  0  0  0  0  0  0  0  0
  -24.5853  -30.1844   24.8756 C   0  0  1  0  0  0  0  0  0  0  0  0
  -24.8208  -28.5689   21.4452 C   0  0  1  0  0  0  0  0  0  0  0  0
  -25.7573  -18.4182   18.7081 C   0  0  2  0  0  0  0  0  0  0  0  0
  -31.0272  -21.2597   17.8901 C   0  0  0  0  0  0  0  0  0  0  0  0
  -21.8369  -24.6753   15.3352 C   0  0  0  0  0  0  0  0  0  0  0  0
  -20.3859  -27.2772   21.5998 C   0  0  0  0  0  0  0  0  0  0  0  0
  -19.5647  -25.9991   19.6097 C   0  0  0  0  0  0  0  0  0  0  0  0
  -19.9684  -28.4544   19.4331 C   0  0  0  0  0  0  0  0  0  0  0  0
  -25.9875  -20.4303   13.6385 C   0  0  0  0  0  0  0  0  0  0  0  0
  -24.8968  -26.8107   16.0788 C   0  0  0  0  0  0  0  0  0  0  0  0
  -28.2205  -22.7665   17.1639 C   0  0  0  0  0  0  0  0  0  0  0  0
  -26.9706  -22.2916   16.3787 C   0  0  0  0  0  0  0  0  0  0  0  0
  -28.5747  -20.8625   22.6856 C   0  0  0  0  0  0  0  0  0  0  0  0
  -27.7846  -20.4697   21.4353 C   0  0  0  0  0  0  0  0  0  0  0  0
  -27.1030  -20.8884   15.7906 C   0  0  0  0  0  0  0  0  0  0  0  0
  -28.6185  -22.3672   22.9245 C   0  0  0  0  0  0  0  0  0  1  0  0
  -21.9422  -26.8811   19.5781 C   0  0  1  0  0  0  0  0  0  0  0  0
  -22.6170  -25.7926   16.0103 C   0  0  2  0  0  0  0  0  0  0  0  0
  -20.4903  -27.1466   20.0671 C   0  0  0  0  0  0  0  0  0  0  0  0
  -25.6109  -16.1318   19.6210 N   0  0  0  0  0  0  0  0  0  0  0  0
  -29.6564  -20.6769   19.8226 N   0  0  0  0  0  0  0  0  0  0  0  0
  -27.6732  -21.7397   19.3090 N   0  0  0  0  0  0  0  0  0  0  0  0
  -26.3748  -17.0723   19.0396 N   0  0  0  0  0  0  0  0  0  0  0  0
  -28.3895  -20.9775   20.1508 N   0  0  0  0  0  0  0  0  0  0  0  0
  -23.9731  -27.5490   20.8243 N   0  0  0  0  0  0  0  0  0  0  0  0
  -24.5883  -19.7537   16.9717 N   0  0  0  0  0  0  0  0  0  0  0  0
  -28.5622  -17.4982   18.2366 N   0  0  0  0  0  0  0  0  0  0  0  0
  -28.8235  -13.2597   19.7738 N   0  0  0  0  0  0  0  0  0  0  0  0
  -24.9417  -29.7961   23.5278 N   0  0  0  0  0  0  0  0  0  0  0  0
  -22.0754  -26.7799   18.1288 N   0  0  0  0  0  0  0  0  0  0  0  0
  -25.8938  -20.4593   15.0912 N   0  0  0  0  0  0  0  0  0  0  0  0
  -24.0217  -25.7513   15.5142 N   0  3  0  0  0  0  0  0  0  0  0  0
  -30.0089  -14.9625   18.7971 O   0  0  0  0  0  0  0  0  0  0  0  0
  -23.3389  -28.1331   23.2310 O   0  0  0  0  0  0  0  0  0  0  0  0
  -22.7158  -29.1222   19.6494 O   0  0  0  0  0  0  0  0  0  0  0  0
  -22.9744  -24.6425   18.1047 O   0  0  0  0  0  0  0  0  0  0  0  0
  -23.6080  -20.7516   15.1383 O   0  0  0  0  0  0  0  0  0  0  0  0
  -24.6872  -10.3372   22.0943 O   0  0  0  0  0  0  0  0  0  0  0  0
  -27.2822  -22.8485   23.0621 O   0  0  0  0  0  0  0  0  0  1  0  0
  -19.8235   -8.3292   20.4461 F   0  0  0  0  0  0  0  0  0  0  0  0
  -22.3665  -11.8065   22.4074 F   0  0  0  0  0  0  0  0  0  0  0  0
  1  2  1  0  0  0  0
  1  5  2  0  0  0  0
  2  6  2  0  0  0  0
  3  8  2  0  0  0  0
  3 15  1  0  0  0  0
  4  9  1  0  0  0  0
  4 15  2  0  0  0  0
  5 17  1  0  0  0  0
  6 19  1  0  0  0  0
  7 10  2  0  0  0  0
  7 18  1  0  0  0  0
  8 21  1  0  0  0  0
  9 21  2  0  0  0  0
 10 22  1  0  0  0  0
 11 12  2  0  0  0  0
 11 23  1  0  0  0  0
 12 24  1  0  0  0  0
 13 20  1  0  0  0  0
 13 22  2  0  0  0  0
 14 24  2  0  0  0  0
 14 25  1  0  0  0  0
 15 26  1  0  0  0  0
 16 26  1  0  0  0  0
 16 29  2  0  0  0  0
 16 30  1  0  0  0  0
 17 19  2  0  0  0  0
 17 35  1  0  0  0  0
 18 20  2  0  0  0  0
 18 36  1  0  0  0  0
 19 44  1  0  0  0  0
 20 37  1  0  0  0  0
 21 81  1  0  0  0  0
 22 82  1  0  0  0  0
 23 25  2  0  0  0  0
 23 81  1  0  0  0  0
 24 83  1  0  0  0  0
 25 84  1  0  0  0  0
 26 63  2  0  0  0  0
 27 28  1  0  0  0  0
 27 47  1  0  0  0  0
 27 64  2  0  0  0  0
 28 54  1  0  0  0  0
 28 65  2  0  0  0  0
 29 66  1  0  0  0  0
 29 70  1  0  0  0  0
 30 71  1  0  0  0  0
 30 76  2  0  0  0  0
 31 45  1  0  0  0  0
 31 72  1  0  0  0  0
 31 77  2  0  0  0  0
 32 60  1  0  0  0  0
 32 68  1  0  0  0  0
 32 78  2  0  0  0  0
 33 61  1  0  0  0  0
 33 73  1  0  0  0  0
 33 79  2  0  0  0  0
 34 69  1  0  0  0  0
 34 74  1  0  0  0  0
 34 80  2  0  0  0  0
 35 38  1  0  0  0  0
 36 45  1  0  0  0  0
 37 68  1  0  0  0  0
 38 40  1  0  0  0  0
 39 41  1  0  0  0  0
 39 42  1  0  0  0  0
 40 44  1  0  0  0  0
 41 46  1  0  0  0  0
 42 69  1  0  0  0  0
 43 46  1  0  0  0  0
 43 69  1  0  0  0  0
 44 72  1  0  0  0  0
 45 68  1  0  0  0  0
 46 66  1  0  0  0  0
 48 61  1  0  0  0  0
 49 62  1  0  0  0  0
 50 62  1  0  0  0  0
 51 62  1  0  0  0  0
 52 74  1  0  0  0  0
 53 75  1  0  0  0  0
 54 55  1  0  0  0  0
 55 58  1  0  0  0  0
 56 57  1  0  0  0  0
 56 59  1  0  0  0  0
 57 67  1  0  0  0  0
 58 74  1  0  0  0  0
 59 82  1  0  0  0  0
 60 62  1  0  0  0  0
 60 73  1  0  0  0  0
 61 75  1  0  0  0  0
 63 66  1  0  0  0  0
 64 67  1  0  0  0  0
 65 67  1  0  0  0  0
M  CHG  1  75   1
M  ISO  4  34 100  59 101  74 100  82 101
M  END
> <Batch ID>
0049

> <Smiles>
CNC(C)C(=O)NC(C(=O)N1Cc2cc([101O:1][101CH2:1]CCn3nc(C)c(CCC[100N:0](C)[100C:0](=O)N4CCCC(n5nc(-c6ccc(Oc7ccc(F)cc7F)cc6)c(C(N)=O)c5N)C4)n3)ccc2CC1C(=O)NC1CCCc2ccccc21)C(C)(C)C

> <Shape>
0.200

> <Color>
0.058

> <Negative vol penalty>
0.000

$$$$

  -OEChem-04052317293D

 81 89  0     1  0  0  0  0  0999 V2000
  -36.5151  -23.8022   22.4791 C   0  0  0  0  0  0  0  0  0  0  0  0
  -35.4194  -23.0940   21.9962 C   0  0  0  0  0  0  0  0  0  0  0  0
  -23.0816   -9.8565   19.9538 C   0  0  0  0  0  0  0  0  0  0  0  0
  -23.8381   -9.8854   22.2481 C   0  0  0  0  0  0  0  0  0  0  0  0
  -36.3494  -25.1034   22.9518 C   0  0  0  0  0  0  0  0  0  0  0  0
  -34.1570  -23.6862   21.9868 C   0  0  0  0  0  0  0  0  0  0  0  0
  -31.6835  -22.9183   17.6351 C   0  0  0  0  0  0  0  0  0  0  0  0
  -22.3408   -8.7033   20.2125 C   0  0  0  0  0  0  0  0  0  0  0  0
  -23.0972   -8.7322   22.5069 C   0  0  0  0  0  0  0  0  0  0  0  0
  -31.0912  -21.6697   17.4512 C   0  0  0  0  0  0  0  0  0  0  0  0
  -21.1183   -6.0009   23.8641 C   0  0  0  0  0  0  0  0  0  0  0  0
  -20.3605   -5.9651   25.0345 C   0  0  0  0  0  0  0  0  0  0  0  0
  -28.9537  -22.5987   18.0734 C   0  0  0  0  0  0  0  0  0  0  0  0
  -19.1113   -7.8923   24.2845 C   0  0  0  0  0  0  0  0  0  0  0  0
  -27.0754  -18.7245   19.5949 C   0  0  0  0  0  0  0  0  0  0  0  0
  -27.1459  -19.0582   21.8423 C   0  0  0  0  0  0  0  0  0  0  0  0
  -23.8303  -10.4475   20.9715 C   0  0  0  0  0  0  0  0  0  0  0  0
  -24.1649  -12.9725   20.8303 C   0  0  0  0  0  0  0  0  0  0  0  0
  -35.0861  -25.7153   22.9391 C   0  0  0  0  0  0  0  0  0  0  0  0
  -30.9161  -24.0159   18.0508 C   0  0  0  0  0  0  0  0  0  0  0  0
  -33.9740  -24.9963   22.4609 C   0  0  0  0  0  0  0  0  0  0  0  0
  -29.5382  -23.8608   18.2594 C   0  0  0  0  0  0  0  0  0  0  0  0
  -28.4130  -18.3857   19.5725 C   0  0  0  0  0  0  0  0  0  0  0  0
  -22.3485   -8.1412   21.4891 C   0  0  0  0  0  0  0  0  0  0  0  0
  -29.7266  -21.5090   17.6731 C   0  0  0  0  0  0  0  0  0  0  0  0
  -20.8728   -6.9824   22.9039 C   0  0  0  0  0  0  0  0  0  0  0  0
  -19.3569   -6.9108   25.2447 C   0  0  0  0  0  0  0  0  0  0  0  0
  -19.8692   -7.9281   23.1141 C   0  0  0  0  0  0  0  0  0  0  0  0
  -24.5963  -11.6384   20.7047 C   0  0  0  0  0  0  0  0  0  0  0  0
  -29.0569  -18.4152   20.7926 C   0  0  0  0  0  0  0  0  0  0  0  0
  -25.2553  -13.7221   20.4622 C   0  0  0  0  0  0  0  0  0  0  0  0
  -22.8922  -13.4882   21.2429 C   0  0  0  0  0  0  0  0  0  0  0  0
  -30.9255  -25.9261   20.5914 C   0  0  0  0  0  0  0  0  0  0  0  0
  -28.6573  -27.5251   18.9118 C   0  0  0  0  0  0  0  0  0  0  0  0
  -26.2488  -27.4476   16.4953 C   0  0  0  0  0  0  0  0  0  0  0  0
  -30.7358  -14.7590   20.6498 C   0  0  0  0  0  0  0  0  0  0  0  0
  -34.9478  -27.1068   23.5043 C   0  0  0  0  0  0  0  0  0  0  0  0
  -31.5652  -25.3623   18.2189 C   0  0  0  0  0  0  0  0  0  0  0  0
  -28.6663  -25.0122   18.6869 C   0  0  0  0  0  0  0  0  0  0  0  0
  -33.6436  -27.7966   23.1123 C   0  0  0  0  0  0  0  0  0  0  0  0
  -29.6088  -12.3507   18.2820 C   0  0  0  0  0  0  0  0  0  0  0  0
  -32.4613  -26.8523   23.3054 C   0  0  0  0  0  0  0  0  0  0  0  0
  -28.1716  -12.0564   18.7153 C   0  0  0  0  0  0  0  0  0  0  0  0
  -30.5235  -12.5845   19.4823 C   0  0  0  0  0  0  0  0  0  0  0  0
  -28.6175  -13.3218   20.8598 C   0  0  0  0  0  0  0  0  0  0  0  0
  -32.5931  -25.6134   22.4114 C   0  0  1  0  0  0  0  0  0  0  0  0
  -30.7825  -26.2920   19.1411 C   0  0  1  0  0  0  0  0  0  0  0  0
  -27.6456  -13.1343   19.6822 C   0  0  2  0  0  0  0  0  0  0  0  0
  -24.5374  -28.8995   15.3726 C   0  0  0  0  0  0  0  0  0  0  0  0
  -26.8584  -27.2980   21.3658 C   0  0  0  0  0  0  0  0  0  0  0  0
  -24.9107  -27.8843   19.9060 C   0  0  0  0  0  0  0  0  0  0  0  0
  -26.7735  -29.5150   20.2117 C   0  0  0  0  0  0  0  0  0  0  0  0
  -27.5263  -27.1059   13.8476 C   0  0  0  0  0  0  0  0  0  0  0  0
  -29.1024  -18.0091   18.2836 C   0  0  0  0  0  0  0  0  0  0  0  0
  -30.5050  -18.0641   20.8898 C   0  0  0  0  0  0  0  0  0  0  0  0
  -30.7934  -16.9203   21.8683 C   0  0  0  0  0  0  0  0  0  0  0  0
  -29.9596  -19.1430   17.7317 C   0  0  0  0  0  0  0  0  0  1  0  0
  -27.1534  -27.4486   18.8053 C   0  0  1  0  0  0  0  0  0  0  0  0
  -25.9638  -28.3742   15.3271 C   0  0  2  0  0  0  0  0  0  0  0  0
  -26.4405  -28.0141   20.0660 C   0  0  0  0  0  0  0  0  0  0  0  0
  -26.4077  -19.0672   20.7161 N   0  0  0  0  0  0  0  0  0  0  0  0
  -28.4519  -18.7483   21.9516 N   0  0  0  0  0  0  0  0  0  0  0  0
  -25.8620  -11.5427   20.2891 N   0  0  0  0  0  0  0  0  0  0  0  0
  -26.2353  -12.8263   20.1503 N   0  0  0  0  0  0  0  0  0  0  0  0
  -29.3488  -26.3072   18.8439 N   0  0  0  0  0  0  0  0  0  0  0  0
  -29.9685  -13.6190   20.3586 N   0  0  0  0  0  0  0  0  0  0  0  0
  -25.4619  -15.0535   20.3781 N   0  0  0  0  0  0  0  0  0  0  0  0
  -21.8825  -12.5789   21.5865 N   0  0  0  0  0  0  0  0  0  0  0  0
  -32.2299  -25.9333   21.0475 N   0  0  0  0  0  0  0  0  0  0  0  0
  -26.7972  -28.1259   17.5632 N   0  0  0  0  0  0  0  0  0  0  0  0
  -30.1326  -15.6932   21.4830 N   0  0  0  0  0  0  0  0  0  0  0  0
  -26.1590  -27.6554   14.0363 N   0  3  0  0  0  0  0  0  0  0  0  0
  -22.6523  -14.7185   21.2893 O   0  0  0  0  0  0  0  0  0  0  0  0
  -29.9263  -25.6585   21.2484 O   0  0  0  0  0  0  0  0  0  0  0  0
  -29.1992  -28.6255   19.0430 O   0  0  0  0  0  0  0  0  0  0  0  0
  -26.0054  -26.2433   16.4650 O   0  0  0  0  0  0  0  0  0  0  0  0
  -31.8719  -14.9339   20.1964 O   0  0  0  0  0  0  0  0  0  0  0  0
  -21.6255   -7.0161   21.7420 O   0  0  0  0  0  0  0  0  0  0  0  0
  -29.1460  -20.2912   17.4950 O   0  0  0  0  0  0  0  0  0  1  0  0
  -18.6282   -6.8754   26.3680 F   0  0  0  0  0  0  0  0  0  0  0  0
  -19.6279   -8.8727   22.1947 F   0  0  0  0  0  0  0  0  0  0  0  0
  1  2  1  0  0  0  0
  1  5  2  0  0  0  0
  2  6  2  0  0  0  0
  3  8  2  0  0  0  0
  3 17  1  0  0  0  0
  4  9  1  0  0  0  0
  4 17  2  0  0  0  0
  5 19  1  0  0  0  0
  6 21  1  0  0  0  0
  7 10  2  0  0  0  0
  7 20  1  0  0  0  0
  8 24  1  0  0  0  0
  9 24  2  0  0  0  0
 10 25  1  0  0  0  0
 11 12  2  0  0  0  0
 11 26  1  0  0  0  0
 12 27  1  0  0  0  0
 13 22  1  0  0  0  0
 13 25  2  0  0  0  0
 14 27  2  0  0  0  0
 14 28  1  0  0  0  0
 15 23  1  0  0  0  0
 15 61  2  0  0  0  0
 16 61  1  0  0  0  0
 16 62  2  0  0  0  0
 17 29  1  0  0  0  0
 18 29  1  0  0  0  0
 18 31  2  0  0  0  0
 18 32  1  0  0  0  0
 19 21  2  0  0  0  0
 19 37  1  0  0  0  0
 20 22  2  0  0  0  0
 20 38  1  0  0  0  0
 21 46  1  0  0  0  0
 22 39  1  0  0  0  0
 23 30  2  0  0  0  0
 23 54  1  0  0  0  0
 24 78  1  0  0  0  0
 25 79  1  0  0  0  0
 26 28  2  0  0  0  0
 26 78  1  0  0  0  0
 27 80  1  0  0  0  0
 28 81  1  0  0  0  0
 29 63  2  0  0  0  0
 30 55  1  0  0  0  0
 30 62  1  0  0  0  0
 31 64  1  0  0  0  0
 31 67  1  0  0  0  0
 32 68  1  0  0  0  0
 32 73  2  0  0  0  0
 33 47  1  0  0  0  0
 33 69  1  0  0  0  0
 33 74  2  0  0  0  0
 34 58  1  0  0  0  0
 34 65  1  0  0  0  0
 34 75  2  0  0  0  0
 35 59  1  0  0  0  0
 35 70  1  0  0  0  0
 35 76  2  0  0  0  0
 36 66  1  0  0  0  0
 36 71  1  0  0  0  0
 36 77  2  0  0  0  0
 37 40  1  0  0  0  0
 38 47  1  0  0  0  0
 39 65  1  0  0  0  0
 40 42  1  0  0  0  0
 41 43  1  0  0  0  0
 41 44  1  0  0  0  0
 42 46  1  0  0  0  0
 43 48  1  0  0  0  0
 44 66  1  0  0  0  0
 45 48  1  0  0  0  0
 45 66  1  0  0  0  0
 46 69  1  0  0  0  0
 47 65  1  0  0  0  0
 48 64  1  0  0  0  0
 49 59  1  0  0  0  0
 50 60  1  0  0  0  0
 51 60  1  0  0  0  0
 52 60  1  0  0  0  0
 53 72  1  0  0  0  0
 54 57  1  0  0  0  0
 55 56  1  0  0  0  0
 56 71  1  0  0  0  0
 57 79  1  0  0  0  0
 58 60  1  0  0  0  0
 58 70  1  0  0  0  0
 59 72  1  0  0  0  0
 63 64  1  0  0  0  0
M  CHG  1  72   1
M  ISO  4  36 100  57 101  71 100  79 101
M  END
> <Batch ID>
0049

> <Smiles>
CNC(C)C(=O)NC(C(=O)N1Cc2cc([101O:1][101CH2:1]Cc3cncnc3CC[100NH:0][100C:0](=O)N3CCCC(n4nc(-c5ccc(Oc6ccc(F)cc6F)cc5)c(C(N)=O)c4N)C3)ccc2CC1C(=O)NC1CCCc2ccccc21)C(C)(C)C

> <Shape>
0.295

> <Color>
0.192

> <Negative vol penalty>
0.000

$$$$

  -OEChem-04052317293D

 81 89  0     1  0  0  0  0  0999 V2000
  -18.7713  -25.3066   19.6819 C   0  0  0  0  0  0  0  0  0  0  0  0
  -20.1136  -25.6047   19.4701 C   0  0  0  0  0  0  0  0  0  0  0  0
  -24.1224  -14.1470   20.8081 C   0  0  0  0  0  0  0  0  0  0  0  0
  -26.5357  -14.0485   20.8655 C   0  0  0  0  0  0  0  0  0  0  0  0
  -18.0869  -25.8953   20.7444 C   0  0  0  0  0  0  0  0  0  0  0  0
  -20.7719  -26.4927   20.3201 C   0  0  0  0  0  0  0  0  0  0  0  0
  -25.3501  -24.8265   21.7017 C   0  0  0  0  0  0  0  0  0  0  0  0
  -24.0757  -12.7981   20.4563 C   0  0  0  0  0  0  0  0  0  0  0  0
  -26.4890  -12.6996   20.5137 C   0  0  0  0  0  0  0  0  0  0  0  0
  -26.3827  -24.9598   20.7745 C   0  0  0  0  0  0  0  0  0  0  0  0
  -24.3653   -9.8077   22.0077 C   0  0  0  0  0  0  0  0  0  0  0  0
  -23.4437   -8.9967   22.6698 C   0  0  0  0  0  0  0  0  0  0  0  0
  -27.1584  -26.9298   21.9305 C   0  0  0  0  0  0  0  0  0  0  0  0
  -30.3711  -23.7917   18.9053 C   0  0  0  0  0  0  0  0  0  0  0  0
  -22.3867   -8.4760   20.5606 C   0  0  0  0  0  0  0  0  0  0  0  0
  -31.3495  -22.7386   21.2246 C   0  0  0  0  0  0  0  0  0  0  0  0
  -25.3524  -14.7723   21.0127 C   0  0  0  0  0  0  0  0  0  0  0  0
  -25.3927  -16.7066   22.6753 C   0  0  0  0  0  0  0  0  0  0  0  0
  -18.7398  -26.7835   21.6136 C   0  0  0  0  0  0  0  0  0  0  0  0
  -25.2072  -25.7517   22.7457 C   0  0  0  0  0  0  0  0  0  0  0  0
  -20.0953  -27.0949   21.3944 C   0  0  0  0  0  0  0  0  0  0  0  0
  -26.1246  -26.8046   22.8712 C   0  0  0  0  0  0  0  0  0  0  0  0
  -30.7900  -24.6462   19.9190 C   0  0  0  0  0  0  0  0  0  0  0  0
  -31.2897  -24.1176   21.1040 C   0  0  0  0  0  0  0  0  0  0  0  0
  -25.2590  -12.0743   20.3091 C   0  0  0  0  0  0  0  0  0  0  0  0
  -27.2853  -26.0132   20.8871 C   0  0  0  0  0  0  0  0  0  0  0  0
  -24.2976   -9.9530   20.6220 C   0  0  0  0  0  0  0  0  0  0  0  0
  -22.4544   -8.3307   21.9463 C   0  0  0  0  0  0  0  0  0  0  0  0
  -23.3083   -9.2871   19.8985 C   0  0  0  0  0  0  0  0  0  0  0  0
  -25.4013  -16.1658   21.3755 C   0  0  0  0  0  0  0  0  0  0  0  0
  -30.4722  -22.4273   19.1242 C   0  0  0  0  0  0  0  0  0  0  0  0
  -25.4536  -18.0652   22.4823 C   0  0  0  0  0  0  0  0  0  0  0  0
  -25.3350  -16.0406   23.9436 C   0  0  0  0  0  0  0  0  0  0  0  0
  -22.9559  -27.8192   23.6181 C   0  0  0  0  0  0  0  0  0  0  0  0
  -24.8827  -28.2333   26.1946 C   0  0  0  0  0  0  0  0  0  0  0  0
  -28.0158  -28.0284   27.5321 C   0  0  0  0  0  0  0  0  0  0  0  0
  -27.5504  -21.4594   18.0176 C   0  0  0  0  0  0  0  0  0  0  0  0
  -17.9458  -27.4315   22.7201 C   0  0  0  0  0  0  0  0  0  0  0  0
  -24.1038  -25.5787   23.7533 C   0  0  0  0  0  0  0  0  0  0  0  0
  -26.0269  -27.8131   23.9856 C   0  0  0  0  0  0  0  0  0  0  0  0
  -18.8153  -28.0729   23.7986 C   0  0  0  0  0  0  0  0  0  0  0  0
  -24.2422  -21.4579   19.3339 C   0  0  0  0  0  0  0  0  0  0  0  0
  -19.9239  -28.9069   23.1644 C   0  0  0  0  0  0  0  0  0  0  0  0
  -24.1634  -20.1503   20.1237 C   0  0  0  0  0  0  0  0  0  0  0  0
  -25.0787  -21.3018   18.0658 C   0  0  0  0  0  0  0  0  0  0  0  0
  -26.3522  -19.4458   19.0694 C   0  0  0  0  0  0  0  0  0  0  0  0
  -20.8506  -28.0341   22.3095 C   0  0  1  0  0  0  0  0  0  0  0  0
  -23.7470  -26.8735   24.4769 C   0  0  1  0  0  0  0  0  0  0  0  0
  -25.5654  -19.5680   20.3856 C   0  0  2  0  0  0  0  0  0  0  0  0
  -31.7514  -24.9868   22.2217 C   0  0  0  0  0  0  0  0  0  0  0  0
  -29.2864  -28.4722   29.6501 C   0  0  0  0  0  0  0  0  0  0  0  0
  -24.8294  -31.2249   25.5968 C   0  0  0  0  0  0  0  0  0  0  0  0
  -26.8136  -31.4899   27.1004 C   0  0  0  0  0  0  0  0  0  0  0  0
  -24.6563  -30.6426   28.0228 C   0  0  0  0  0  0  0  0  0  0  0  0
  -28.7812  -25.1827   27.8062 C   0  0  0  0  0  0  0  0  0  0  0  0
  -30.6935  -26.1382   19.7119 C   0  0  0  0  0  0  0  0  0  0  0  0
  -30.0317  -21.4804   18.0583 C   0  0  0  0  0  0  0  0  0  0  0  0
  -29.5027  -26.7492   20.4425 C   0  0  0  0  0  0  0  0  0  1  0  0
  -26.0397  -29.1435   26.5291 C   0  0  1  0  0  0  0  0  0  0  0  0
  -28.5165  -27.4413   28.8394 C   0  0  2  0  0  0  0  0  0  0  0  0
  -25.5857  -30.6075   26.7900 C   0  0  0  0  0  0  0  0  0  0  0  0
  -30.9521  -21.8767   20.2618 N   0  0  0  0  0  0  0  0  0  0  0  0
  -25.4627  -17.1042   20.4270 N   0  0  0  0  0  0  0  0  0  0  0  0
  -25.4931  -18.2484   21.1313 N   0  0  0  0  0  0  0  0  0  0  0  0
  -24.9272  -27.6048   24.9420 N   0  0  0  0  0  0  0  0  0  0  0  0
  -26.3966  -20.7468   18.3836 N   0  0  0  0  0  0  0  0  0  0  0  0
  -25.4766  -19.1089   23.3381 N   0  0  0  0  0  0  0  0  0  0  0  0
  -25.2767  -14.6403   23.9609 N   0  0  0  0  0  0  0  0  0  0  0  0
  -21.7662  -27.2939   23.1511 N   0  0  0  0  0  0  0  0  0  0  0  0
  -26.7348  -28.5242   27.6523 N   0  0  0  0  0  0  0  0  0  0  0  0
  -28.7586  -20.8657   18.3618 N   0  0  0  0  0  0  0  0  0  0  0  0
  -29.4165  -26.2831   28.5760 N   0  3  0  0  0  0  0  0  0  0  0  0
  -25.3185  -16.6691   25.0290 O   0  0  0  0  0  0  0  0  0  0  0  0
  -23.3919  -28.9429   23.3968 O   0  0  0  0  0  0  0  0  0  0  0  0
  -23.9765  -28.0798   27.0173 O   0  0  0  0  0  0  0  0  0  0  0  0
  -28.6946  -28.0487   26.5077 O   0  0  0  0  0  0  0  0  0  0  0  0
  -27.5069  -22.5469   17.4325 O   0  0  0  0  0  0  0  0  0  0  0  0
  -25.2138  -10.7580   19.9660 O   0  0  0  0  0  0  0  0  0  0  0  0
  -28.2938  -26.1460   19.9831 O   0  0  0  0  0  0  0  0  0  1  0  0
  -21.5704   -7.5507   22.5820 F   0  0  0  0  0  0  0  0  0  0  0  0
  -23.2389   -9.4218   18.5670 F   0  0  0  0  0  0  0  0  0  0  0  0
  1  2  1  0  0  0  0
  1  5  2  0  0  0  0
  2  6  2  0  0  0  0
  3  8  2  0  0  0  0
  3 17  1  0  0  0  0
  4  9  1  0  0  0  0
  4 17  2  0  0  0  0
  5 19  1  0  0  0  0
  6 21  1  0  0  0  0
  7 10  2  0  0  0  0
  7 20  1  0  0  0  0
  8 25  1  0  0  0  0
  9 25  2  0  0  0  0
 10 26  1  0  0  0  0
 11 12  2  0  0  0  0
 11 27  1  0  0  0  0
 12 28  1  0  0  0  0
 13 22  1  0  0  0  0
 13 26  2  0  0  0  0
 14 23  1  0  0  0  0
 14 31  2  0  0  0  0
 15 28  2  0  0  0  0
 15 29  1  0  0  0  0
 16 24  1  0  0  0  0
 16 62  2  0  0  0  0
 17 30  1  0  0  0  0
 18 30  1  0  0  0  0
 18 32  2  0  0  0  0
 18 33  1  0  0  0  0
 19 21  2  0  0  0  0
 19 38  1  0  0  0  0
 20 22  2  0  0  0  0
 20 39  1  0  0  0  0
 21 47  1  0  0  0  0
 22 40  1  0  0  0  0
 23 24  2  0  0  0  0
 23 56  1  0  0  0  0
 24 50  1  0  0  0  0
 25 78  1  0  0  0  0
 26 79  1  0  0  0  0
 27 29  2  0  0  0  0
 27 78  1  0  0  0  0
 28 80  1  0  0  0  0
 29 81  1  0  0  0  0
 30 63  2  0  0  0  0
 31 57  1  0  0  0  0
 31 62  1  0  0  0  0
 32 64  1  0  0  0  0
 32 67  1  0  0  0  0
 33 68  1  0  0  0  0
 33 73  2  0  0  0  0
 34 48  1  0  0  0  0
 34 69  1  0  0  0  0
 34 74  2  0  0  0  0
 35 59  1  0  0  0  0
 35 65  1  0  0  0  0
 35 75  2  0  0  0  0
 36 60  1  0  0  0  0
 36 70  1  0  0  0  0
 36 76  2  0  0  0  0
 37 66  1  0  0  0  0
 37 71  1  0  0  0  0
 37 77  2  0  0  0  0
 38 41  1  0  0  0  0
 39 48  1  0  0  0  0
 40 65  1  0  0  0  0
 41 43  1  0  0  0  0
 42 44  1  0  0  0  0
 42 45  1  0  0  0  0
 43 47  1  0  0  0  0
 44 49  1  0  0  0  0
 45 66  1  0  0  0  0
 46 49  1  0  0  0  0
 46 66  1  0  0  0  0
 47 69  1  0  0  0  0
 48 65  1  0  0  0  0
 49 64  1  0  0  0  0
 51 60  1  0  0  0  0
 52 61  1  0  0  0  0
 53 61  1  0  0  0  0
 54 61  1  0  0  0  0
 55 72  1  0  0  0  0
 56 58  1  0  0  0  0
 57 71  1  0  0  0  0
 58 79  1  0  0  0  0
 59 61  1  0  0  0  0
 59 70  1  0  0  0  0
 60 72  1  0  0  0  0
 63 64  1  0  0  0  0
M  CHG  1  72   1
M  ISO  4  37 100  58 101  71 100  79 101
M  END
> <Batch ID>
0049

> <Smiles>
CNC(C)C(=O)NC(C(=O)N1Cc2cc([101O:1][101CH2:1]Cc3cc(C[100NH:0][100C:0](=O)N4CCCC(n5nc(-c6ccc(Oc7ccc(F)cc7F)cc6)c(C(N)=O)c5N)C4)ncc3C)ccc2CC1C(=O)NC1CCCc2ccccc21)C(C)(C)C

> <Shape>
0.203

> <Color>
0.087

> <Negative vol penalty>
0.000

$$$$

  -OEChem-04052317293D

 83 91  0     1  0  0  0  0  0999 V2000
  -18.6214  -26.5477   17.9242 C   0  0  0  0  0  0  0  0  0  0  0  0
  -18.9034  -25.2683   17.4562 C   0  0  0  0  0  0  0  0  0  0  0  0
  -27.8844  -23.5343   20.8146 C   0  0  0  0  0  0  0  0  0  0  0  0
  -28.0173  -22.9965   18.4630 C   0  0  0  0  0  0  0  0  0  0  0  0
  -19.0597  -26.9385   19.1888 C   0  0  0  0  0  0  0  0  0  0  0  0
  -19.6248  -24.3792   18.2521 C   0  0  0  0  0  0  0  0  0  0  0  0
  -20.1866  -17.3893   19.7154 C   0  0  0  0  0  0  0  0  0  0  0  0
  -27.8599  -24.8935   20.5024 C   0  0  0  0  0  0  0  0  0  0  0  0
  -27.9927  -24.3558   18.1508 C   0  0  0  0  0  0  0  0  0  0  0  0
  -21.1423  -16.3765   19.7834 C   0  0  0  0  0  0  0  0  0  0  0  0
  -25.6022  -27.1551   19.3975 C   0  0  0  0  0  0  0  0  0  0  0  0
  -24.6694  -27.9550   20.0575 C   0  0  0  0  0  0  0  0  0  0  0  0
  -21.7802  -17.1344   21.9830 C   0  0  0  0  0  0  0  0  0  0  0  0
  -25.9212  -11.4544   20.6483 C   0  0  0  0  0  0  0  0  0  0  0  0
  -25.3742  -13.7253   20.0755 C   0  0  0  0  0  0  0  0  0  0  0  0
  -26.4623  -29.2953   20.9667 C   0  0  0  0  0  0  0  0  0  0  0  0
  -27.9632  -22.5857   19.7949 C   0  0  0  0  0  0  0  0  0  0  0  0
  -26.8843  -20.3196   20.2512 C   0  0  0  0  0  0  0  0  0  0  0  0
  -19.7786  -26.0504   20.0045 C   0  0  0  0  0  0  0  0  0  0  0  0
  -20.0276  -18.2905   20.7780 C   0  0  0  0  0  0  0  0  0  0  0  0
  -20.0743  -24.7589   19.5282 C   0  0  0  0  0  0  0  0  0  0  0  0
  -20.8199  -18.1562   21.9270 C   0  0  0  0  0  0  0  0  0  0  0  0
  -26.3273  -12.7472   20.3367 C   0  0  0  0  0  0  0  0  0  0  0  0
  -27.9139  -25.3043   19.1705 C   0  0  0  0  0  0  0  0  0  0  0  0
  -21.9413  -16.2507   20.9161 C   0  0  0  0  0  0  0  0  0  0  0  0
  -26.9650  -27.4251   19.5221 C   0  0  0  0  0  0  0  0  0  0  0  0
  -25.0995  -29.0251   20.8421 C   0  0  0  0  0  0  0  0  0  0  0  0
  -27.3950  -28.4953   20.3067 C   0  0  0  0  0  0  0  0  0  0  0  0
  -27.9892  -21.1815   20.1168 C   0  0  0  0  0  0  0  0  0  0  0  0
  -24.5611  -11.1930   20.6855 C   0  0  0  0  0  0  0  0  0  0  0  0
  -24.0385  -13.3622   20.1381 C   0  0  0  0  0  0  0  0  0  0  0  0
  -27.4357  -19.1002   20.5604 C   0  0  0  0  0  0  0  0  0  0  0  0
  -25.4847  -20.5964   20.1093 C   0  0  0  0  0  0  0  0  0  0  0  0
  -20.3449  -21.4348   21.1189 C   0  0  0  0  0  0  0  0  0  0  0  0
  -19.1471  -20.8427   24.0747 C   0  0  0  0  0  0  0  0  0  0  0  0
  -18.6601  -18.6102   26.6096 C   0  0  0  0  0  0  0  0  0  0  0  0
  -31.2845  -15.1466   19.7232 C   0  0  0  0  0  0  0  0  0  0  0  0
  -20.2723  -26.5339   21.3451 C   0  0  0  0  0  0  0  0  0  0  0  0
  -18.9739  -19.3609   20.7002 C   0  0  0  0  0  0  0  0  0  0  0  0
  -20.6749  -19.0855   23.1034 C   0  0  0  0  0  0  0  0  0  0  0  0
  -20.7074  -25.4059   22.2769 C   0  0  0  0  0  0  0  0  0  0  0  0
  -32.1653  -17.8587   21.8550 C   0  0  0  0  0  0  0  0  0  0  0  0
  -21.5923  -24.4104   21.5333 C   0  0  0  0  0  0  0  0  0  0  0  0
  -31.0702  -18.8957   21.5992 C   0  0  0  0  0  0  0  0  0  0  0  0
  -32.5370  -17.1043   20.5804 C   0  0  0  0  0  0  0  0  0  0  0  0
  -30.3057  -17.5188   19.6197 C   0  0  0  0  0  0  0  0  0  0  0  0
  -20.8328  -23.7575   20.3720 C   0  0  1  0  0  0  0  0  0  0  0  0
  -19.2503  -20.5401   21.6278 C   0  0  1  0  0  0  0  0  0  0  0  0
  -29.8576  -18.2665   20.8871 C   0  0  2  0  0  0  0  0  0  0  0  0
  -23.9315   -8.9424   19.7774 C   0  0  0  0  0  0  0  0  0  0  0  0
  -17.6836  -18.4286   28.9141 C   0  0  0  0  0  0  0  0  0  0  0  0
  -21.5654  -22.3147   25.2128 C   0  0  0  0  0  0  0  0  0  0  0  0
  -21.0494  -21.2960   27.4408 C   0  0  0  0  0  0  0  0  0  0  0  0
  -19.4009  -22.8231   26.3577 C   0  0  0  0  0  0  0  0  0  0  0  0
  -16.7103  -16.5573   25.7476 C   0  0  0  0  0  0  0  0  0  0  0  0
  -27.7791  -13.0835   20.2839 C   0  0  0  0  0  0  0  0  0  0  0  0
  -24.0886   -9.8172   21.0180 C   0  0  0  0  0  0  0  0  0  0  0  0
  -22.9830  -14.3918   19.8601 C   0  0  0  0  0  0  0  0  0  1  0  0
  -28.4289  -12.8913   18.8993 C   0  0  0  0  0  0  0  0  0  0  0  0
  -29.9032  -13.2849   18.8369 C   0  0  0  0  0  0  0  0  0  0  0  0
  -19.7406  -20.4999   25.4198 C   0  0  1  0  0  0  0  0  0  0  0  0
  -17.4266  -18.2645   27.4242 C   0  0  2  0  0  0  0  0  0  0  0  0
  -20.4434  -21.7170   26.0850 C   0  0  0  0  0  0  0  0  0  0  0  0
  -29.1545  -20.5623   20.3237 N   0  0  0  0  0  0  0  0  0  0  0  0
  -23.6058  -12.1170   20.4376 N   0  0  0  0  0  0  0  0  0  0  0  0
  -28.7848  -19.2983   20.5914 N   0  0  0  0  0  0  0  0  0  0  0  0
  -19.6349  -20.1199   22.9768 N   0  0  0  0  0  0  0  0  0  0  0  0
  -31.3430  -16.5307   19.9549 N   0  0  0  0  0  0  0  0  0  0  0  0
  -26.8933  -17.8887   20.8060 N   0  0  0  0  0  0  0  0  0  0  0  0
  -25.0912  -21.9029   19.7891 N   0  0  0  0  0  0  0  0  0  0  0  0
  -19.9396  -22.7314   20.8657 N   0  0  0  0  0  0  0  0  0  0  0  0
  -18.6557  -19.9303   26.2115 N   0  0  0  0  0  0  0  0  0  0  0  0
  -30.1148  -14.6845   19.1324 N   0  0  0  0  0  0  0  0  0  0  0  0
  -17.0169  -16.8543   27.1705 N   0  3  0  0  0  0  0  0  0  0  0  0
  -24.6082  -19.7151   20.2781 O   0  0  0  0  0  0  0  0  0  0  0  0
  -21.4739  -20.9827   20.9685 O   0  0  0  0  0  0  0  0  0  0  0  0
  -18.2774  -21.7145   24.0019 O   0  0  0  0  0  0  0  0  0  0  0  0
  -19.5412  -17.7920   26.3552 O   0  0  0  0  0  0  0  0  0  0  0  0
  -32.2042  -14.3787   20.0255 O   0  0  0  0  0  0  0  0  0  0  0  0
  -27.8897  -26.6305   18.8655 O   0  0  0  0  0  0  0  0  0  0  0  0
  -22.8754  -15.2635   20.9848 O   0  0  0  0  0  0  0  0  0  1  0  0
  -24.2036  -29.7942   21.4747 F   0  0  0  0  0  0  0  0  0  0  0  0
  -28.7029  -28.7604   20.4292 F   0  0  0  0  0  0  0  0  0  0  0  0
  1  2  1  0  0  0  0
  1  5  2  0  0  0  0
  2  6  2  0  0  0  0
  3  8  2  0  0  0  0
  3 17  1  0  0  0  0
  4  9  1  0  0  0  0
  4 17  2  0  0  0  0
  5 19  1  0  0  0  0
  6 21  1  0  0  0  0
  7 10  2  0  0  0  0
  7 20  1  0  0  0  0
  8 24  1  0  0  0  0
  9 24  2  0  0  0  0
 10 25  1  0  0  0  0
 11 12  2  0  0  0  0
 11 26  1  0  0  0  0
 12 27  1  0  0  0  0
 13 22  1  0  0  0  0
 13 25  2  0  0  0  0
 14 23  2  0  0  0  0
 14 30  1  0  0  0  0
 15 23  1  0  0  0  0
 15 31  2  0  0  0  0
 16 27  2  0  0  0  0
 16 28  1  0  0  0  0
 17 29  1  0  0  0  0
 18 29  1  0  0  0  0
 18 32  2  0  0  0  0
 18 33  1  0  0  0  0
 19 21  2  0  0  0  0
 19 38  1  0  0  0  0
 20 22  2  0  0  0  0
 20 39  1  0  0  0  0
 21 47  1  0  0  0  0
 22 40  1  0  0  0  0
 23 56  1  0  0  0  0
 24 80  1  0  0  0  0
 25 81  1  0  0  0  0
 26 28  2  0  0  0  0
 26 80  1  0  0  0  0
 27 82  1  0  0  0  0
 28 83  1  0  0  0  0
 29 64  2  0  0  0  0
 30 57  1  0  0  0  0
 30 65  2  0  0  0  0
 31 58  1  0  0  0  0
 31 65  1  0  0  0  0
 32 66  1  0  0  0  0
 32 69  1  0  0  0  0
 33 70  1  0  0  0  0
 33 75  2  0  0  0  0
 34 48  1  0  0  0  0
 34 71  1  0  0  0  0
 34 76  2  0  0  0  0
 35 61  1  0  0  0  0
 35 67  1  0  0  0  0
 35 77  2  0  0  0  0
 36 62  1  0  0  0  0
 36 72  1  0  0  0  0
 36 78  2  0  0  0  0
 37 68  1  0  0  0  0
 37 73  1  0  0  0  0
 37 79  2  0  0  0  0
 38 41  1  0  0  0  0
 39 48  1  0  0  0  0
 40 67  1  0  0  0  0
 41 43  1  0  0  0  0
 42 44  1  0  0  0  0
 42 45  1  0  0  0  0
 43 47  1  0  0  0  0
 44 49  1  0  0  0  0
 45 68  1  0  0  0  0
 46 49  1  0  0  0  0
 46 68  1  0  0  0  0
 47 71  1  0  0  0  0
 48 67  1  0  0  0  0
 49 66  1  0  0  0  0
 50 57  1  0  0  0  0
 51 62  1  0  0  0  0
 52 63  1  0  0  0  0
 53 63  1  0  0  0  0
 54 63  1  0  0  0  0
 55 74  1  0  0  0  0
 56 59  1  0  0  0  0
 58 81  1  0  0  0  0
 59 60  1  0  0  0  0
 60 73  1  0  0  0  0
 61 63  1  0  0  0  0
 61 72  1  0  0  0  0
 62 74  1  0  0  0  0
 64 66  1  0  0  0  0
M  CHG  1  74   1
M  ISO  4  37 100  58 101  73 100  81 101
M  END
> <Batch ID>
0049

> <Smiles>
CCc1cc(CCC[100NH:0][100C:0](=O)N2CCCC(n3nc(-c4ccc(Oc5ccc(F)cc5F)cc4)c(C(N)=O)c3N)C2)cc([101CH2:1][101O:1]c2ccc3c(c2)CN(C(=O)C(NC(=O)C(C)NC)C(C)(C)C)C(C(=O)NC2CCCc4ccccc42)C3)n1

> <Shape>
0.194

> <Color>
0.078

> <Negative vol penalty>
0.000

$$$$

  -OEChem-04052317293D

 90 98  0     1  0  0  0  0  0999 V2000
  -20.5151  -31.4251   26.5890 C   0  0  0  0  0  0  0  0  0  0  0  0
  -21.7585  -30.9402   26.1964 C   0  0  0  0  0  0  0  0  0  0  0  0
  -28.8767  -17.6199   20.9431 C   0  0  0  0  0  0  0  0  0  0  0  0
  -30.6272  -18.4755   19.5146 C   0  0  0  0  0  0  0  0  0  0  0  0
  -19.3591  -30.9701   25.9560 C   0  0  0  0  0  0  0  0  0  0  0  0
  -21.8466  -29.9992   25.1711 C   0  0  0  0  0  0  0  0  0  0  0  0
  -26.3032  -29.5062   20.9996 C   0  0  0  0  0  0  0  0  0  0  0  0
  -29.4457  -16.3480   20.8787 C   0  0  0  0  0  0  0  0  0  0  0  0
  -31.1963  -17.2036   19.4502 C   0  0  0  0  0  0  0  0  0  0  0  0
  -27.4247  -28.6820   20.9181 C   0  0  0  0  0  0  0  0  0  0  0  0
  -29.5403  -13.7698   18.6951 C   0  0  0  0  0  0  0  0  0  0  0  0
  -28.6862  -12.6887   18.4774 C   0  0  0  0  0  0  0  0  0  0  0  0
  -26.1924  -27.1539   19.5162 C   0  0  0  0  0  0  0  0  0  0  0  0
  -29.3799  -11.7175   20.5780 C   0  0  0  0  0  0  0  0  0  0  0  0
  -29.4674  -18.6836   20.2610 C   0  0  0  0  0  0  0  0  0  0  0  0
  -29.1560  -21.0062   21.2691 C   0  0  0  0  0  0  0  0  0  0  0  0
  -19.4339  -30.0302   24.9160 C   0  0  0  0  0  0  0  0  0  0  0  0
  -25.1125  -29.1544   20.3478 C   0  0  0  0  0  0  0  0  0  0  0  0
  -20.6905  -29.5302   24.5245 C   0  0  0  0  0  0  0  0  0  0  0  0
  -25.0579  -27.9766   19.5889 C   0  0  0  0  0  0  0  0  0  0  0  0
  -30.6056  -16.1399   20.1323 C   0  0  0  0  0  0  0  0  0  0  0  0
  -27.3685  -27.5042   20.1787 C   0  0  0  0  0  0  0  0  0  0  0  0
  -30.3143  -13.8247   19.8543 C   0  0  0  0  0  0  0  0  0  0  0  0
  -28.6060  -11.6626   19.4188 C   0  0  0  0  0  0  0  0  0  0  0  0
  -30.2341  -12.7986   20.7957 C   0  0  0  0  0  0  0  0  0  0  0  0
  -28.8798  -19.9976   20.3267 C   0  0  0  0  0  0  0  0  0  0  0  0
  -30.2303  -24.4268   17.1031 C   0  0  0  0  0  0  0  0  0  0  0  0
  -31.5975  -24.2962   17.1672 C   0  0  0  0  0  0  0  0  0  0  0  0
  -28.3453  -22.0519   20.9005 C   0  0  0  0  0  0  0  0  0  0  0  0
  -30.8192  -25.4669   18.8643 C   0  0  0  0  0  0  0  0  0  0  0  0
  -30.0644  -20.9987   22.3784 C   0  0  0  0  0  0  0  0  0  0  0  0
  -22.1491  -28.4964   21.2908 C   0  0  0  0  0  0  0  0  0  0  0  0
  -21.5644  -28.4336   18.1008 C   0  0  0  0  0  0  0  0  0  0  0  0
  -22.7810  -28.0142   14.9400 C   0  0  0  0  0  0  0  0  0  0  0  0
  -25.8340  -23.1762   15.4263 C   0  0  0  0  0  0  0  0  0  0  0  0
  -18.1533  -29.5328   24.2936 C   0  0  0  0  0  0  0  0  0  0  0  0
  -23.9197  -30.0676   20.4236 C   0  0  0  0  0  0  0  0  0  0  0  0
  -23.8098  -27.5639   18.8538 C   0  0  0  0  0  0  0  0  0  0  0  0
  -18.3616  -28.8147   22.9627 C   0  0  0  0  0  0  0  0  0  0  0  0
  -24.1911  -23.0030   18.7388 C   0  0  0  0  0  0  0  0  0  0  0  0
  -19.5108  -27.8173   23.0685 C   0  0  0  0  0  0  0  0  0  0  0  0
  -25.2104  -22.2324   19.5762 C   0  0  0  0  0  0  0  0  0  0  0  0
  -24.2752  -22.6329   17.2611 C   0  0  0  0  0  0  0  0  0  0  0  0
  -26.6555  -22.0139   17.5160 C   0  0  0  0  0  0  0  0  0  0  0  0
  -20.8290  -28.5274   23.3996 C   0  0  1  0  0  0  0  0  0  0  0  0
  -22.6014  -29.3533   20.1424 C   0  0  1  0  0  0  0  0  0  0  0  0
  -26.6287  -22.3979   19.0031 C   0  0  2  0  0  0  0  0  0  0  0  0
  -22.0556  -27.9835   12.5379 C   0  0  0  0  0  0  0  0  0  0  0  0
  -34.1275  -25.0947   21.1703 C   0  0  0  0  0  0  0  0  0  0  0  0
  -32.5284  -23.3181   20.4509 C   0  0  0  0  0  0  0  0  0  0  0  0
  -34.8940  -23.2898   19.6258 C   0  0  0  0  0  0  0  0  0  0  0  0
  -20.3564  -25.6608   18.5035 C   0  0  0  0  0  0  0  0  0  0  0  0
  -20.5291  -25.3029   16.0316 C   0  0  0  0  0  0  0  0  0  0  0  0
  -19.0889  -27.1320   16.9276 C   0  0  0  0  0  0  0  0  0  0  0  0
  -27.2418  -24.3652   13.7881 C   0  0  0  0  0  0  0  0  0  0  0  0
  -24.5446  -30.2908   14.2575 C   0  0  0  0  0  0  0  0  0  0  0  0
  -29.3075  -23.8994   16.0854 C   0  0  0  0  0  0  0  0  0  0  0  0
  -30.8376  -26.2682   20.1433 C   0  0  0  0  0  0  0  0  0  0  0  0
  -33.3045  -25.1194   18.8099 C   0  0  0  0  0  0  0  0  0  0  0  0
  -27.8779  -24.4696   16.1693 C   0  0  0  0  0  0  0  0  0  0  0  0
  -29.7401  -27.3260   20.1807 C   0  0  0  0  0  0  0  0  0  1  0  0
  -21.6037  -27.3729   17.0273 C   0  0  1  0  0  0  0  0  0  0  0  0
  -22.6017  -28.8334   13.6746 C   0  0  2  0  0  0  0  0  0  0  0  0
  -32.5629  -23.6165   16.2847 C   0  0  0  0  0  0  0  0  0  0  0  0
  -33.7056  -24.1945   19.9917 C   0  0  0  0  0  0  0  0  0  0  0  0
  -20.4176  -26.3737   17.1378 C   0  0  0  0  0  0  0  0  0  0  0  0
  -27.9649  -20.3689   19.4272 N   0  0  0  0  0  0  0  0  0  0  0  0
  -29.7520  -25.1568   18.1623 N   0  0  0  0  0  0  0  0  0  0  0  0
  -31.9604  -24.9680   18.3004 N   0  0  0  0  0  0  0  0  0  0  0  0
  -27.6592  -21.6225   19.8028 N   0  0  0  0  0  0  0  0  0  0  0  0
  -22.6681  -28.4870   18.9637 N   0  0  0  0  0  0  0  0  0  0  0  0
  -25.6418  -22.7576   16.7532 N   0  0  0  0  0  0  0  0  0  0  0  0
  -28.1595  -23.2874   21.4116 N   0  0  0  0  0  0  0  0  0  0  0  0
  -30.8210  -19.8428   22.6146 N   0  0  0  0  0  0  0  0  0  0  0  0
  -21.3712  -29.1632   22.2180 N   0  0  0  0  0  0  0  0  0  0  0  0
  -21.6705  -28.0826   15.7544 N   0  0  0  0  0  0  0  0  0  0  0  0
  -27.0033  -23.8995   15.1468 N   0  0  0  0  0  0  0  0  0  0  0  0
  -23.9052  -29.4131   13.2437 N   0  3  0  0  0  0  0  0  0  0  0  0
  -30.1890  -21.9818   23.1475 O   0  0  0  0  0  0  0  0  0  0  0  0
  -22.4800  -27.3172   21.3318 O   0  0  0  0  0  0  0  0  0  0  0  0
  -20.5935  -29.1917   18.1666 O   0  0  0  0  0  0  0  0  0  0  0  0
  -23.8026  -27.3743   15.1800 O   0  0  0  0  0  0  0  0  0  0  0  0
  -25.0028  -22.9265   14.5439 O   0  0  0  0  0  0  0  0  0  0  0  0
  -31.1612  -14.8990   20.0694 O   0  0  0  0  0  0  0  0  0  0  0  0
  -28.4616  -26.6976   20.0980 O   0  0  0  0  0  0  0  0  0  1  0  0
  -27.7846  -10.6253   19.2103 F   0  0  0  0  0  0  0  0  0  0  0  0
  -30.9744  -12.8463   21.9117 F   0  0  0  0  0  0  0  0  0  0  0  0
  -31.9963  -22.9987   15.1972 F   0  0  0  0  0  0  0  0  0  0  0  0
  -33.5160  -24.4453   15.7466 F   0  0  0  0  0  0  0  0  0  0  0  0
  -33.2742  -22.6289   16.9174 F   0  0  0  0  0  0  0  0  0  0  0  0
  1  2  1  0  0  0  0
  1  5  2  0  0  0  0
  2  6  2  0  0  0  0
  3  8  2  0  0  0  0
  3 15  1  0  0  0  0
  4  9  1  0  0  0  0
  4 15  2  0  0  0  0
  5 17  1  0  0  0  0
  6 19  1  0  0  0  0
  7 10  2  0  0  0  0
  7 18  1  0  0  0  0
  8 21  1  0  0  0  0
  9 21  2  0  0  0  0
 10 22  1  0  0  0  0
 11 12  2  0  0  0  0
 11 23  1  0  0  0  0
 12 24  1  0  0  0  0
 13 20  1  0  0  0  0
 13 22  2  0  0  0  0
 14 24  2  0  0  0  0
 14 25  1  0  0  0  0
 15 26  1  0  0  0  0
 16 26  1  0  0  0  0
 16 29  2  0  0  0  0
 16 31  1  0  0  0  0
 17 19  2  0  0  0  0
 17 36  1  0  0  0  0
 18 20  2  0  0  0  0
 18 37  1  0  0  0  0
 19 45  1  0  0  0  0
 20 38  1  0  0  0  0
 21 84  1  0  0  0  0
 22 85  1  0  0  0  0
 23 25  2  0  0  0  0
 23 84  1  0  0  0  0
 24 86  1  0  0  0  0
 25 87  1  0  0  0  0
 26 67  2  0  0  0  0
 27 28  2  0  0  0  0
 27 57  1  0  0  0  0
 27 68  1  0  0  0  0
 28 64  1  0  0  0  0
 28 69  1  0  0  0  0
 29 70  1  0  0  0  0
 29 73  1  0  0  0  0
 30 58  1  0  0  0  0
 30 68  2  0  0  0  0
 30 69  1  0  0  0  0
 31 74  1  0  0  0  0
 31 79  2  0  0  0  0
 32 46  1  0  0  0  0
 32 75  1  0  0  0  0
 32 80  2  0  0  0  0
 33 62  1  0  0  0  0
 33 71  1  0  0  0  0
 33 81  2  0  0  0  0
 34 63  1  0  0  0  0
 34 76  1  0  0  0  0
 34 82  2  0  0  0  0
 35 72  1  0  0  0  0
 35 77  1  0  0  0  0
 35 83  2  0  0  0  0
 36 39  1  0  0  0  0
 37 46  1  0  0  0  0
 38 71  1  0  0  0  0
 39 41  1  0  0  0  0
 40 42  1  0  0  0  0
 40 43  1  0  0  0  0
 41 45  1  0  0  0  0
 42 47  1  0  0  0  0
 43 72  1  0  0  0  0
 44 47  1  0  0  0  0
 44 72  1  0  0  0  0
 45 75  1  0  0  0  0
 46 71  1  0  0  0  0
 47 70  1  0  0  0  0
 48 63  1  0  0  0  0
 49 65  1  0  0  0  0
 50 65  1  0  0  0  0
 51 65  1  0  0  0  0
 52 66  1  0  0  0  0
 53 66  1  0  0  0  0
 54 66  1  0  0  0  0
 55 77  1  0  0  0  0
 56 78  1  0  0  0  0
 57 60  1  0  0  0  0
 58 61  1  0  0  0  0
 59 65  1  0  0  0  0
 59 69  1  0  0  0  0
 60 77  1  0  0  0  0
 61 85  1  0  0  0  0
 62 66  1  0  0  0  0
 62 76  1  0  0  0  0
 63 78  1  0  0  0  0
 64 88  1  0  0  0  0
 64 89  1  0  0  0  0
 64 90  1  0  0  0  0
 67 70  1  0  0  0  0
M  CHG  1  78   1
M  ISO  4  35 100  61 101  77 100  85 101
M  END
> <Batch ID>
0049

> <Smiles>
CNC(C)C(=O)NC(C(=O)N1Cc2cc([101O:1][101CH2:1]Cc3nc(CC[100N:0](C)[100C:0](=O)N4CCCC(n5nc(-c6ccc(Oc7ccc(F)cc7F)cc6)c(C(N)=O)c5N)C4)c(C(F)(F)F)n3CC(C)(C)C)ccc2CC1C(=O)NC1CCCc2ccccc21)C(C)(C)C

> <Shape>
0.245

> <Color>
0.090

> <Negative vol penalty>
0.000

$$$$

  -OEChem-04052317293D

 85 92  0     1  0  0  0  0  0999 V2000
  -31.0525  -18.9885   22.2395 C   0  0  0  0  0  0  0  0  0  0  0  0
  -29.7473  -19.3283   21.8987 C   0  0  0  0  0  0  0  0  0  0  0  0
  -28.1577  -29.8833   21.1928 C   0  0  0  0  0  0  0  0  0  0  0  0
  -26.9579  -27.7988   20.9641 C   0  0  0  0  0  0  0  0  0  0  0  0
  -31.4958  -17.6768   22.0749 C   0  0  0  0  0  0  0  0  0  0  0  0
  -28.8847  -18.3569   21.3921 C   0  0  0  0  0  0  0  0  0  0  0  0
  -24.2836  -18.5554   23.4981 C   0  0  0  0  0  0  0  0  0  0  0  0
  -29.3630  -29.1835   21.2485 C   0  0  0  0  0  0  0  0  0  0  0  0
  -28.1632  -27.0989   21.0197 C   0  0  0  0  0  0  0  0  0  0  0  0
  -23.4181  -19.5499   23.0446 C   0  0  0  0  0  0  0  0  0  0  0  0
  -30.9539  -24.7856   20.7392 C   0  0  0  0  0  0  0  0  0  0  0  0
  -31.1525  -23.7600   19.8149 C   0  0  0  0  0  0  0  0  0  0  0  0
  -22.3023  -17.9325   21.6453 C   0  0  0  0  0  0  0  0  0  0  0  0
  -30.9191  -25.3449   18.0063 C   0  0  0  0  0  0  0  0  0  0  0  0
  -26.9551  -29.1909   21.0507 C   0  0  0  0  0  0  0  0  0  0  0  0
  -25.0665  -30.4094   19.8439 C   0  0  0  0  0  0  0  0  0  0  0  0
  -30.6353  -16.6867   21.5751 C   0  0  0  0  0  0  0  0  0  0  0  0
  -24.1717  -17.2420   23.0195 C   0  0  0  0  0  0  0  0  0  0  0  0
  -29.3172  -17.0310   21.2194 C   0  0  0  0  0  0  0  0  0  0  0  0
  -23.1659  -16.9226   22.0962 C   0  0  0  0  0  0  0  0  0  0  0  0
  -29.3657  -27.7913   21.1619 C   0  0  0  0  0  0  0  0  0  0  0  0
  -22.4292  -19.2392   22.1159 C   0  0  0  0  0  0  0  0  0  0  0  0
  -30.7379  -26.0909   20.2971 C   0  0  0  0  0  0  0  0  0  0  0  0
  -31.1351  -24.0396   18.4485 C   0  0  0  0  0  0  0  0  0  0  0  0
  -30.7205  -26.3705   18.9307 C   0  0  0  0  0  0  0  0  0  0  0  0
  -25.7097  -29.9133   20.9937 C   0  0  0  0  0  0  0  0  0  0  0  0
  -23.9277  -31.0116   20.3203 C   0  0  0  0  0  0  0  0  0  0  0  0
  -25.4630  -30.3326   18.4681 C   0  0  0  0  0  0  0  0  0  0  0  0
  -26.0692  -15.2780   21.3931 C   0  0  0  0  0  0  0  0  0  0  0  0
  -23.7022  -13.1376   21.9749 C   0  0  0  0  0  0  0  0  0  0  0  0
  -20.4123  -12.5795   22.6902 C   0  0  0  0  0  0  0  0  0  0  0  0
  -19.9135  -30.4960   24.3250 C   0  0  0  0  0  0  0  0  0  0  0  0
  -31.1738  -15.2929   21.3704 C   0  0  0  0  0  0  0  0  0  0  0  0
  -25.0959  -16.1750   23.5388 C   0  0  0  0  0  0  0  0  0  0  0  0
  -22.9909  -15.5235   21.5666 C   0  0  0  0  0  0  0  0  0  0  0  0
  -30.0843  -14.2409   21.1793 C   0  0  0  0  0  0  0  0  0  0  0  0
  -22.4825  -32.7971   24.6873 C   0  0  0  0  0  0  0  0  0  0  0  0
  -29.0385  -14.7304   20.1825 C   0  0  0  0  0  0  0  0  0  0  0  0
  -23.5253  -32.3477   23.6648 C   0  0  0  0  0  0  0  0  0  0  0  0
  -21.8572  -31.5980   25.3900 C   0  0  0  0  0  0  0  0  0  0  0  0
  -22.2620  -30.1516   23.4240 C   0  0  0  0  0  0  0  0  0  0  0  0
  -28.3442  -15.9999   20.6901 C   0  0  1  0  0  0  0  0  0  0  0  0
  -25.2198  -14.9816   22.5965 C   0  0  1  0  0  0  0  0  0  0  0  0
  -22.9277  -31.3275   22.6801 C   0  0  2  0  0  0  0  0  0  0  0  0
  -15.9775  -28.0478   24.0367 C   0  0  0  0  0  0  0  0  0  0  0  0
  -18.7660  -10.7238   23.0689 C   0  0  0  0  0  0  0  0  0  0  0  0
  -21.2839  -26.6556   17.9224 C   0  0  0  0  0  0  0  0  0  0  0  0
  -22.9579  -27.6602   21.5847 C   0  0  0  0  0  0  0  0  0  0  0  0
  -23.6207  -12.6004   18.9725 C   0  0  0  0  0  0  0  0  0  0  0  0
  -21.3932  -11.5051   19.2995 C   0  0  0  0  0  0  0  0  0  0  0  0
  -23.4204  -10.5591   20.4033 C   0  0  0  0  0  0  0  0  0  0  0  0
  -19.8386  -13.4945   25.4457 C   0  0  0  0  0  0  0  0  0  0  0  0
  -17.4747  -28.2791   24.1866 C   0  0  0  0  0  0  0  0  0  0  0  0
  -21.9245  -23.7880   20.4571 C   0  0  0  0  0  0  0  0  0  0  0  0
  -21.4021  -22.3493   20.5307 C   0  0  0  0  0  0  0  0  0  0  0  0
  -21.1947  -24.5862   19.3708 C   0  0  0  0  0  0  0  0  0  0  0  0
  -20.8701  -29.0758   21.4182 C   0  0  0  0  0  0  0  0  0  0  0  0
  -17.9983  -29.3683   23.2582 C   0  0  0  0  0  0  0  0  0  0  0  0
  -20.2701  -28.5657   22.7276 C   0  0  0  0  0  0  0  0  0  0  0  0
  -22.0900  -21.5416   21.6259 C   0  0  0  0  0  0  0  0  0  1  0  0
  -22.4367  -12.7234   21.2636 C   0  0  1  0  0  0  0  0  0  0  0  0
  -19.7426  -11.6896   23.7217 C   0  0  2  0  0  0  0  0  0  0  0  0
  -21.6626  -26.0417   19.2638 C   0  0  2  0  0  0  0  0  0  0  0  0
  -21.7914  -28.0814   20.6998 C   0  0  2  0  0  0  0  0  0  0  0  0
  -22.7220  -11.8739   19.9930 C   0  0  0  0  0  0  0  0  0  0  0  0
  -25.0356  -30.1775   22.1161 N   0  0  0  0  0  0  0  0  0  0  0  0
  -23.9570  -30.8463   21.6738 N   0  0  0  0  0  0  0  0  0  0  0  0
  -23.9231  -14.5165   22.0999 N   0  0  0  0  0  0  0  0  0  0  0  0
  -21.3045  -30.6474   24.4247 N   0  0  0  0  0  0  0  0  0  0  0  0
  -22.9143  -31.6611   19.7093 N   0  0  0  0  0  0  0  0  0  0  0  0
  -26.6618  -29.6780   18.1538 N   0  0  0  0  0  0  0  0  0  0  0  0
  -27.3592  -15.6689   21.6974 N   0  0  0  0  0  0  0  0  0  0  0  0
  -21.6103  -12.0500   22.2595 N   0  0  0  0  0  0  0  0  0  0  0  0
  -19.4348  -29.5656   23.3903 N   0  0  0  0  0  0  0  0  0  0  0  0
  -18.9956  -12.5159   24.7118 N   0  3  0  0  0  0  0  0  0  0  0  0
  -21.0293  -26.8587   20.3362 N   0  3  0  0  0  0  0  0  0  0  0  0
  -24.7829  -30.8441   17.5466 O   0  0  0  0  0  0  0  0  0  0  0  0
  -25.5902  -15.1592   20.2714 O   0  0  0  0  0  0  0  0  0  0  0  0
  -24.4630  -12.2697   22.4102 O   0  0  0  0  0  0  0  0  0  0  0  0
  -19.9199  -13.6367   22.3023 O   0  0  0  0  0  0  0  0  0  0  0  0
  -19.1406  -31.1500   25.0371 O   0  0  0  0  0  0  0  0  0  0  0  0
  -30.5417  -27.1081   21.2160 O   0  0  0  0  0  0  0  0  0  0  0  0
  -21.5836  -20.2082   21.6712 O   0  0  0  0  0  0  0  0  0  1  0  0
  -31.3273  -23.0549   17.5610 F   0  0  0  0  0  0  0  0  0  0  0  0
  -30.5147  -27.6226   18.4999 F   0  0  0  0  0  0  0  0  0  0  0  0
  1  2  1  0  0  0  0
  1  5  2  0  0  0  0
  2  6  2  0  0  0  0
  3  8  2  0  0  0  0
  3 15  1  0  0  0  0
  4  9  1  0  0  0  0
  4 15  2  0  0  0  0
  5 17  1  0  0  0  0
  6 19  1  0  0  0  0
  7 10  2  0  0  0  0
  7 18  1  0  0  0  0
  8 21  1  0  0  0  0
  9 21  2  0  0  0  0
 10 22  1  0  0  0  0
 11 12  2  0  0  0  0
 11 23  1  0  0  0  0
 12 24  1  0  0  0  0
 13 20  1  0  0  0  0
 13 22  2  0  0  0  0
 14 24  2  0  0  0  0
 14 25  1  0  0  0  0
 15 26  1  0  0  0  0
 16 26  1  0  0  0  0
 16 27  2  0  0  0  0
 16 28  1  0  0  0  0
 17 19  2  0  0  0  0
 17 33  1  0  0  0  0
 18 20  2  0  0  0  0
 18 34  1  0  0  0  0
 19 42  1  0  0  0  0
 20 35  1  0  0  0  0
 21 82  1  0  0  0  0
 22 83  1  0  0  0  0
 23 25  2  0  0  0  0
 23 82  1  0  0  0  0
 24 84  1  0  0  0  0
 25 85  1  0  0  0  0
 26 66  2  0  0  0  0
 27 67  1  0  0  0  0
 27 70  1  0  0  0  0
 28 71  1  0  0  0  0
 28 77  2  0  0  0  0
 29 43  1  0  0  0  0
 29 72  1  0  0  0  0
 29 78  2  0  0  0  0
 30 61  1  0  0  0  0
 30 68  1  0  0  0  0
 30 79  2  0  0  0  0
 31 62  1  0  0  0  0
 31 73  1  0  0  0  0
 31 80  2  0  0  0  0
 32 69  1  0  0  0  0
 32 74  1  0  0  0  0
 32 81  2  0  0  0  0
 33 36  1  0  0  0  0
 34 43  1  0  0  0  0
 35 68  1  0  0  0  0
 36 38  1  0  0  0  0
 37 39  1  0  0  0  0
 37 40  1  0  0  0  0
 38 42  1  0  0  0  0
 39 44  1  0  0  0  0
 40 69  1  0  0  0  0
 41 44  1  0  0  0  0
 41 69  1  0  0  0  0
 42 72  1  0  0  0  0
 43 68  1  0  0  0  0
 44 67  1  0  0  0  0
 45 53  1  0  0  0  0
 46 62  1  0  0  0  0
 47 63  1  0  0  0  0
 48 64  1  0  0  0  0
 49 65  1  0  0  0  0
 50 65  1  0  0  0  0
 51 65  1  0  0  0  0
 52 75  1  0  0  0  0
 53 58  1  0  0  0  0
 54 55  1  0  0  0  0
 54 56  1  0  0  0  0
 55 60  1  0  0  0  0
 56 63  1  0  0  0  0
 57 59  1  0  0  0  0
 57 64  1  0  0  0  0
 58 74  1  0  0  0  0
 59 74  1  0  0  0  0
 60 83  1  0  0  0  0
 61 65  1  0  0  0  0
 61 73  1  0  0  0  0
 62 75  1  0  0  0  0
 63 76  1  0  0  0  0
 64 76  1  0  0  0  0
 66 67  1  0  0  0  0
M  CHG  2  75   1  76   1
M  ISO  4  32 100  60 101  74 100  83 101
M  END
> <Batch ID>
0049

> <Smiles>
CCC[100N:0](CCC(C)NC(C)CCC[101CH2:1][101O:1]c1ccc2c(c1)CN(C(=O)C(NC(=O)C(C)NC)C(C)(C)C)C(C(=O)NC1CCCc3ccccc31)C2)[100C:0](=O)N1CCCC(n2nc(-c3ccc(Oc4ccc(F)cc4F)cc3)c(C(N)=O)c2N)C1

> <Shape>
0.258

> <Color>
0.043

> <Negative vol penalty>
0.000

$$$$

  -OEChem-04052317293D

 89 97  0     1  0  0  0  0  0999 V2000
  -29.9102  -29.1287   14.1389 C   0  0  0  0  0  0  0  0  0  0  0  0
  -30.1938  -27.9611   14.8401 C   0  0  0  0  0  0  0  0  0  0  0  0
  -23.0661   -9.8624   19.9589 C   0  0  0  0  0  0  0  0  0  0  0  0
  -23.8530   -9.8803   22.2431 C   0  0  0  0  0  0  0  0  0  0  0  0
  -30.4549  -30.3418   14.5579 C   0  0  0  0  0  0  0  0  0  0  0  0
  -31.0233  -28.0058   15.9601 C   0  0  0  0  0  0  0  0  0  0  0  0
  -29.2010  -25.3042   19.8364 C   0  0  0  0  0  0  0  0  0  0  0  0
  -22.3295   -8.7075   20.2217 C   0  0  0  0  0  0  0  0  0  0  0  0
  -23.1164   -8.7253   22.5059 C   0  0  0  0  0  0  0  0  0  0  0  0
  -29.3635  -23.9206   19.7803 C   0  0  0  0  0  0  0  0  0  0  0  0
  -22.9175   -5.3922   20.5174 C   0  0  0  0  0  0  0  0  0  0  0  0
  -22.9771   -4.3595   19.5817 C   0  0  0  0  0  0  0  0  0  0  0  0
  -31.2551  -24.0885   21.2679 C   0  0  0  0  0  0  0  0  0  0  0  0
  -20.5880   -4.5153   19.2577 C   0  0  0  0  0  0  0  0  0  0  0  0
  -26.6370  -15.6176   23.6638 C   0  0  0  0  0  0  0  0  0  0  0  0
  -23.8279  -10.4489   20.9696 C   0  0  0  0  0  0  0  0  0  0  0  0
  -24.1589  -12.9748   20.8367 C   0  0  0  0  0  0  0  0  0  0  0  0
  -31.2837  -30.4030   15.6892 C   0  0  0  0  0  0  0  0  0  0  0  0
  -30.0726  -26.0927   20.6013 C   0  0  0  0  0  0  0  0  0  0  0  0
  -31.5807  -29.2207   16.3938 C   0  0  0  0  0  0  0  0  0  0  0  0
  -31.1000  -25.4815   21.3341 C   0  0  0  0  0  0  0  0  0  0  0  0
  -22.3546   -8.1389   21.4952 C   0  0  0  0  0  0  0  0  0  0  0  0
  -30.3924  -23.3128   20.4938 C   0  0  0  0  0  0  0  0  0  0  0  0
  -21.6932   -5.9864   20.8234 C   0  0  0  0  0  0  0  0  0  0  0  0
  -21.8124   -3.9211   18.9518 C   0  0  0  0  0  0  0  0  0  0  0  0
  -20.5284   -5.5480   20.1935 C   0  0  0  0  0  0  0  0  0  0  0  0
  -24.5895  -11.6416   20.6986 C   0  0  0  0  0  0  0  0  0  0  0  0
  -27.5336  -16.0801   24.6017 C   0  0  0  0  0  0  0  0  0  0  0  0
  -26.8339  -13.5051   24.5172 C   0  0  0  0  0  0  0  0  0  0  0  0
  -27.7311  -13.9674   25.4547 C   0  0  0  0  0  0  0  0  0  0  0  0
  -25.2439  -13.7270   20.4579 C   0  0  0  0  0  0  0  0  0  0  0  0
  -22.8916  -13.4874   21.2688 C   0  0  0  0  0  0  0  0  0  0  0  0
  -32.1332  -28.4264   19.9599 C   0  0  0  0  0  0  0  0  0  0  0  0
  -30.7479  -14.7008   20.6746 C   0  0  0  0  0  0  0  0  0  0  0  0
  -32.3748  -28.5724   23.1914 C   0  0  0  0  0  0  0  0  0  0  0  0
  -32.0410  -26.9891   26.1961 C   0  0  0  0  0  0  0  0  0  0  0  0
  -31.8873  -31.7299   16.0760 C   0  0  0  0  0  0  0  0  0  0  0  0
  -29.8675  -27.5811   20.6726 C   0  0  0  0  0  0  0  0  0  0  0  0
  -32.0500  -26.2812   22.1864 C   0  0  0  0  0  0  0  0  0  0  0  0
  -32.4546  -31.7511   17.4930 C   0  0  0  0  0  0  0  0  0  0  0  0
  -29.5622  -12.3911   18.2049 C   0  0  0  0  0  0  0  0  0  0  0  0
  -33.3000  -30.5072   17.7483 C   0  0  0  0  0  0  0  0  0  0  0  0
  -28.1383  -12.0766   18.6618 C   0  0  0  0  0  0  0  0  0  0  0  0
  -30.4961  -12.6014   19.3927 C   0  0  0  0  0  0  0  0  0  0  0  0
  -28.6068  -13.3341   20.8122 C   0  0  0  0  0  0  0  0  0  0  0  0
  -32.4561  -29.2325   17.6282 C   0  0  1  0  0  0  0  0  0  0  0  0
  -31.1289  -28.3395   21.0741 C   0  0  1  0  0  0  0  0  0  0  0  0
  -27.6241  -13.1448   19.6431 C   0  0  2  0  0  0  0  0  0  0  0  0
  -25.0551  -11.8243   25.0621 C   0  0  0  0  0  0  0  0  0  0  0  0
  -29.0503  -13.8113   27.5811 C   0  0  0  0  0  0  0  0  0  0  0  0
  -32.3489  -27.3537   28.6598 C   0  0  0  0  0  0  0  0  0  0  0  0
  -35.3942  -28.2918   22.8532 C   0  0  0  0  0  0  0  0  0  0  0  0
  -35.5424  -27.7118   25.2842 C   0  0  0  0  0  0  0  0  0  0  0  0
  -34.6883  -29.9496   24.5875 C   0  0  0  0  0  0  0  0  0  0  0  0
  -29.1710  -26.5165   26.7424 C   0  0  0  0  0  0  0  0  0  0  0  0
  -27.9190  -17.5374   24.6384 C   0  0  0  0  0  0  0  0  0  0  0  0
  -26.4376  -12.0692   24.4623 C   0  0  0  0  0  0  0  0  0  0  0  0
  -28.3472  -13.0531   26.4578 C   0  0  0  0  0  0  0  0  0  0  0  0
  -30.1274  -15.6959   21.6226 C   0  0  0  0  0  0  0  0  0  0  0  0
  -29.3416  -17.7909   25.1544 C   0  0  0  0  0  0  0  0  0  0  0  0
  -30.5662  -19.9075   21.6769 C   0  0  0  0  0  0  0  0  0  0  0  0
  -31.0893  -16.8293   21.9298 C   0  0  0  0  0  0  0  0  0  0  0  0
  -30.4609  -17.1855   24.3128 C   0  0  0  0  0  0  0  0  0  0  0  0
  -31.0722  -19.1301   22.8827 C   0  0  0  0  0  0  0  0  0  0  0  0
  -31.1090  -21.3287   21.5918 C   0  0  0  0  0  0  0  0  0  1  0  0
  -33.2443  -27.9054   24.2297 C   0  0  1  0  0  0  0  0  0  0  0  0
  -31.3767  -27.4175   27.4921 C   0  0  2  0  0  0  0  0  0  0  0  0
  -34.7008  -28.4495   24.2211 C   0  0  0  0  0  0  0  0  0  0  0  0
  -26.2710  -14.3218   23.6047 N   0  0  0  0  0  0  0  0  0  0  0  0
  -25.8496  -11.5489   20.2657 N   0  0  0  0  0  0  0  0  0  0  0  0
  -28.0968  -15.2633   25.5140 N   0  0  0  0  0  0  0  0  0  0  0  0
  -26.2202  -12.8334   20.1284 N   0  0  0  0  0  0  0  0  0  0  0  0
  -31.8124  -27.7337   22.2187 N   0  0  0  0  0  0  0  0  0  0  0  0
  -29.9615  -13.6070   20.3125 N   0  0  0  0  0  0  0  0  0  0  0  0
  -25.4485  -15.0589   20.3777 N   0  0  0  0  0  0  0  0  0  0  0  0
  -21.8871  -12.5758   21.6212 N   0  0  0  0  0  0  0  0  0  0  0  0
  -31.6556  -29.0422   18.8187 N   0  0  0  0  0  0  0  0  0  0  0  0
  -32.5538  -28.0663   25.5047 N   0  0  0  0  0  0  0  0  0  0  0  0
  -30.2172  -26.5322   27.7970 N   0  3  0  0  0  0  0  0  0  0  0  0
  -30.4658  -17.7788   22.9244 N   0  3  1  0  0  0  0  0  0  0  0  0
  -22.6515  -14.7174   21.3246 O   0  0  0  0  0  0  0  0  0  0  0  0
  -33.2586  -27.9700   20.1238 O   0  0  0  0  0  0  0  0  0  0  0  0
  -31.8964  -14.8931   20.2668 O   0  0  0  0  0  0  0  0  0  0  0  0
  -32.1952  -29.7916   23.2457 O   0  0  0  0  0  0  0  0  0  0  0  0
  -32.1025  -25.8159   25.8352 O   0  0  0  0  0  0  0  0  0  0  0  0
  -21.6358   -7.0120   21.7520 O   0  0  0  0  0  0  0  0  0  0  0  0
  -30.5536  -21.9626   20.4402 O   0  0  0  0  0  0  0  0  0  1  0  0
  -21.8699   -2.9304   18.0521 F   0  0  0  0  0  0  0  0  0  0  0  0
  -19.3495   -6.1158   20.4824 F   0  0  0  0  0  0  0  0  0  0  0  0
  1  2  1  0  0  0  0
  1  5  2  0  0  0  0
  2  6  2  0  0  0  0
  3  8  2  0  0  0  0
  3 16  1  0  0  0  0
  4  9  1  0  0  0  0
  4 16  2  0  0  0  0
  5 18  1  0  0  0  0
  6 20  1  0  0  0  0
  7 10  2  0  0  0  0
  7 19  1  0  0  0  0
  8 22  1  0  0  0  0
  9 22  2  0  0  0  0
 10 23  1  0  0  0  0
 11 12  2  0  0  0  0
 11 24  1  0  0  0  0
 12 25  1  0  0  0  0
 13 21  1  0  0  0  0
 13 23  2  0  0  0  0
 14 25  2  0  0  0  0
 14 26  1  0  0  0  0
 15 28  1  0  0  0  0
 15 69  2  0  0  0  0
 16 27  1  0  0  0  0
 17 27  1  0  0  0  0
 17 31  2  0  0  0  0
 17 32  1  0  0  0  0
 18 20  2  0  0  0  0
 18 37  1  0  0  0  0
 19 21  2  0  0  0  0
 19 38  1  0  0  0  0
 20 46  1  0  0  0  0
 21 39  1  0  0  0  0
 22 86  1  0  0  0  0
 23 87  1  0  0  0  0
 24 26  2  0  0  0  0
 24 86  1  0  0  0  0
 25 88  1  0  0  0  0
 26 89  1  0  0  0  0
 27 70  2  0  0  0  0
 28 56  1  0  0  0  0
 28 71  2  0  0  0  0
 29 30  2  0  0  0  0
 29 57  1  0  0  0  0
 29 69  1  0  0  0  0
 30 58  1  0  0  0  0
 30 71  1  0  0  0  0
 31 72  1  0  0  0  0
 31 75  1  0  0  0  0
 32 76  1  0  0  0  0
 32 81  2  0  0  0  0
 33 47  1  0  0  0  0
 33 77  1  0  0  0  0
 33 82  2  0  0  0  0
 34 59  1  0  0  0  0
 34 74  1  0  0  0  0
 34 83  2  0  0  0  0
 35 66  1  0  0  0  0
 35 73  1  0  0  0  0
 35 84  2  0  0  0  0
 36 67  1  0  0  0  0
 36 78  1  0  0  0  0
 36 85  2  0  0  0  0
 37 40  1  0  0  0  0
 38 47  1  0  0  0  0
 39 73  1  0  0  0  0
 40 42  1  0  0  0  0
 41 43  1  0  0  0  0
 41 44  1  0  0  0  0
 42 46  1  0  0  0  0
 43 48  1  0  0  0  0
 44 74  1  0  0  0  0
 45 48  1  0  0  0  0
 45 74  1  0  0  0  0
 46 77  1  0  0  0  0
 47 73  1  0  0  0  0
 48 72  1  0  0  0  0
 49 57  1  0  0  0  0
 50 58  1  0  0  0  0
 51 67  1  0  0  0  0
 52 68  1  0  0  0  0
 53 68  1  0  0  0  0
 54 68  1  0  0  0  0
 55 79  1  0  0  0  0
 56 60  1  0  0  0  0
 59 62  1  0  0  0  0
 60 63  1  0  0  0  0
 61 64  1  0  0  0  0
 61 65  1  0  0  0  0
 62 80  1  0  0  0  0
 63 80  1  0  0  0  0
 64 80  1  0  0  0  0
 65 87  1  0  0  0  0
 66 68  1  0  0  0  0
 66 78  1  0  0  0  0
 67 79  1  0  0  0  0
 70 72  1  0  0  0  0
M  CHG  2  79   1  80   1
M  ISO  4  34 100  59 100  65 101  87 101
M  END
> <Batch ID>
0049

> <Smiles>
CCc1ncc(CCCN(CC[101CH2:1][101O:1]c2ccc3c(c2)CN(C(=O)C(NC(=O)C(C)NC)C(C)(C)C)C(C(=O)NC2CCCc4ccccc42)C3)C[100CH2:0][100C:0](=O)N2CCCC(n3nc(-c4ccc(Oc5ccc(F)cc5F)cc4)c(C(N)=O)c3N)C2)nc1CC

> <Shape>
0.193

> <Color>
0.179

> <Negative vol penalty>
0.000

$$$$

  -OEChem-04052317293D

 83 91  0     1  0  0  0  0  0999 V2000
  -21.5431  -30.8339   15.6064 C   0  0  0  0  0  0  0  0  0  0  0  0
  -21.5284  -29.4441   15.5452 C   0  0  0  0  0  0  0  0  0  0  0  0
  -23.0741   -9.8804   19.9525 C   0  0  0  0  0  0  0  0  0  0  0  0
  -23.7521   -9.9480   22.2704 C   0  0  0  0  0  0  0  0  0  0  0  0
  -22.6867  -31.5352   15.2265 C   0  0  0  0  0  0  0  0  0  0  0  0
  -22.6570  -28.7548   15.1030 C   0  0  0  0  0  0  0  0  0  0  0  0
  -24.6507  -23.3091   17.0713 C   0  0  0  0  0  0  0  0  0  0  0  0
  -22.3245   -8.7316   20.2052 C   0  0  0  0  0  0  0  0  0  0  0  0
  -23.0025   -8.7992   22.5232 C   0  0  0  0  0  0  0  0  0  0  0  0
  -24.5118  -22.0190   16.5612 C   0  0  0  0  0  0  0  0  0  0  0  0
  -23.3207   -5.4651   22.0612 C   0  0  0  0  0  0  0  0  0  0  0  0
  -23.9128   -4.4603   22.8264 C   0  0  0  0  0  0  0  0  0  0  0  0
  -26.6646  -22.2167   15.4911 C   0  0  0  0  0  0  0  0  0  0  0  0
  -22.1515   -4.6716   24.4666 C   0  0  0  0  0  0  0  0  0  0  0  0
  -23.7880  -10.4886   20.9850 C   0  0  0  0  0  0  0  0  0  0  0  0
  -24.1279  -13.0110   20.8129 C   0  0  0  0  0  0  0  0  0  0  0  0
  -23.8332  -30.8537   14.7885 C   0  0  0  0  0  0  0  0  0  0  0  0
  -25.7948  -24.0680   16.7856 C   0  0  0  0  0  0  0  0  0  0  0  0
  -23.8165  -29.4477   14.7156 C   0  0  0  0  0  0  0  0  0  0  0  0
  -26.8169  -23.5152   16.0008 C   0  0  0  0  0  0  0  0  0  0  0  0
  -22.2887   -8.1909   21.4906 C   0  0  0  0  0  0  0  0  0  0  0  0
  -25.5175  -21.4737   15.7686 C   0  0  0  0  0  0  0  0  0  0  0  0
  -22.1441   -6.0732   22.4988 C   0  0  0  0  0  0  0  0  0  0  0  0
  -23.3282   -4.0635   24.0291 C   0  0  0  0  0  0  0  0  0  0  0  0
  -21.5595   -5.6765   23.7015 C   0  0  0  0  0  0  0  0  0  0  0  0
  -24.5629  -11.6750   20.7244 C   0  0  0  0  0  0  0  0  0  0  0  0
  -25.2305  -13.7545   20.4696 C   0  0  0  0  0  0  0  0  0  0  0  0
  -26.6760  -17.8828   17.7292 C   0  0  0  0  0  0  0  0  0  0  0  0
  -27.5750  -18.7997   19.3749 C   0  0  0  0  0  0  0  0  0  0  0  0
  -22.8422  -13.5332   21.1734 C   0  0  0  0  0  0  0  0  0  0  0  0
  -26.3468  -26.8164   15.2871 C   0  0  0  0  0  0  0  0  0  0  0  0
  -29.3747  -26.3375   16.3479 C   0  0  0  0  0  0  0  0  0  0  0  0
  -31.7608  -24.1378   17.4034 C   0  0  0  0  0  0  0  0  0  0  0  0
  -30.8094  -14.5009   21.2672 C   0  0  0  0  0  0  0  0  0  0  0  0
  -25.0295  -31.6570   14.3434 C   0  0  0  0  0  0  0  0  0  0  0  0
  -25.9415  -25.4481   17.3655 C   0  0  0  0  0  0  0  0  0  0  0  0
  -28.0739  -24.2810   15.6815 C   0  0  0  0  0  0  0  0  0  0  0  0
  -26.3118  -30.8349   14.2422 C   0  0  0  0  0  0  0  0  0  0  0  0
  -29.6548  -12.3808   18.4612 C   0  0  0  0  0  0  0  0  0  0  0  0
  -26.0488  -29.5237   13.5085 C   0  0  0  0  0  0  0  0  0  0  0  0
  -28.2124  -12.0654   18.8536 C   0  0  0  0  0  0  0  0  0  0  0  0
  -30.5339  -12.6282   19.6833 C   0  0  0  0  0  0  0  0  0  0  0  0
  -28.5684  -13.3630   20.9914 C   0  0  0  0  0  0  0  0  0  0  0  0
  -25.0295  -28.6631   14.2648 C   0  0  1  0  0  0  0  0  0  0  0  0
  -26.9185  -26.3229   16.5861 C   0  0  1  0  0  0  0  0  0  0  0  0
  -27.6457  -13.1543   19.7812 C   0  0  2  0  0  0  0  0  0  0  0  0
  -27.9630  -19.6729   20.4971 C   0  0  0  0  0  0  0  0  0  0  0  0
  -34.1498  -24.0386   18.1651 C   0  0  0  0  0  0  0  0  0  0  0  0
  -30.3063  -26.6819   13.4629 C   0  0  0  0  0  0  0  0  0  0  0  0
  -32.4919  -25.6520   14.1192 C   0  0  0  0  0  0  0  0  0  0  0  0
  -31.7593  -27.7935   15.1681 C   0  0  0  0  0  0  0  0  0  0  0  0
  -31.1858  -16.7245   22.2639 C   0  0  0  0  0  0  0  0  0  0  0  0
  -30.9940  -23.0531   20.0481 C   0  0  0  0  0  0  0  0  0  0  0  0
  -25.7105  -17.6303   16.5988 C   0  0  0  0  0  0  0  0  0  0  0  0
  -26.2702  -17.9859   15.2197 C   0  0  0  0  0  0  0  0  0  0  0  0
  -29.4377  -17.1224   19.6581 C   0  0  0  0  0  0  0  0  0  0  0  0
  -29.1300  -16.3665   20.9481 C   0  0  0  0  0  0  0  0  0  0  0  0
  -26.5824  -19.4691   15.0589 C   0  0  0  0  0  0  0  0  0  1  0  0
  -30.5992  -25.6398   15.8069 C   0  0  1  0  0  0  0  0  0  0  0  0
  -32.6973  -24.1640   18.5979 C   0  0  2  0  0  0  0  0  0  0  0  0
  -31.2648  -26.4278   14.6435 C   0  0  0  0  0  0  0  0  0  0  0  0
  -25.8420  -11.5727   20.3538 N   0  0  0  0  0  0  0  0  0  0  0  0
  -26.5577  -18.9596   18.5605 N   0  0  0  0  0  0  0  0  0  0  0  0
  -27.7025  -17.0667   17.9779 N   0  0  0  0  0  0  0  0  0  0  0  0
  -26.2203  -12.8538   20.2062 N   0  0  0  0  0  0  0  0  0  0  0  0
  -28.2611  -17.6757   19.0349 N   0  0  0  0  0  0  0  0  0  0  0  0
  -28.1676  -25.6288   16.2665 N   0  0  0  0  0  0  0  0  0  0  0  0
  -29.9505  -13.6360   20.5694 N   0  0  0  0  0  0  0  0  0  0  0  0
  -25.4403  -15.0844   20.3702 N   0  0  0  0  0  0  0  0  0  0  0  0
  -21.8211  -12.6296   21.4976 N   0  0  0  0  0  0  0  0  0  0  0  0
  -25.6580  -28.0096   15.3928 N   0  0  0  0  0  0  0  0  0  0  0  0
  -31.4756  -25.4083   16.9500 N   0  0  0  0  0  0  0  0  0  0  0  0
  -30.3280  -15.7876   21.5524 N   0  0  0  0  0  0  0  0  0  0  0  0
  -32.3847  -23.0407   19.5259 N   0  3  0  0  0  0  0  0  0  0  0  0
  -22.6012  -14.7641   21.1910 O   0  0  0  0  0  0  0  0  0  0  0  0
  -26.5192  -26.1637   14.2644 O   0  0  0  0  0  0  0  0  0  0  0  0
  -29.4862  -27.4668   16.8316 O   0  0  0  0  0  0  0  0  0  0  0  0
  -31.3288  -23.0943   16.9186 O   0  0  0  0  0  0  0  0  0  0  0  0
  -31.9456  -14.1465   21.6071 O   0  0  0  0  0  0  0  0  0  0  0  0
  -21.5571   -7.0701   21.7376 O   0  0  0  0  0  0  0  0  0  0  0  0
  -25.3841  -20.2150   15.2689 O   0  0  0  0  0  0  0  0  0  1  0  0
  -23.8960   -3.0975   24.7630 F   0  0  0  0  0  0  0  0  0  0  0  0
  -20.4285   -6.2562   24.1264 F   0  0  0  0  0  0  0  0  0  0  0  0
  1  2  1  0  0  0  0
  1  5  2  0  0  0  0
  2  6  2  0  0  0  0
  3  8  2  0  0  0  0
  3 15  1  0  0  0  0
  4  9  1  0  0  0  0
  4 15  2  0  0  0  0
  5 17  1  0  0  0  0
  6 19  1  0  0  0  0
  7 10  2  0  0  0  0
  7 18  1  0  0  0  0
  8 21  1  0  0  0  0
  9 21  2  0  0  0  0
 10 22  1  0  0  0  0
 11 12  2  0  0  0  0
 11 23  1  0  0  0  0
 12 24  1  0  0  0  0
 13 20  1  0  0  0  0
 13 22  2  0  0  0  0
 14 24  2  0  0  0  0
 14 25  1  0  0  0  0
 15 26  1  0  0  0  0
 16 26  1  0  0  0  0
 16 27  2  0  0  0  0
 16 30  1  0  0  0  0
 17 19  2  0  0  0  0
 17 35  1  0  0  0  0
 18 20  2  0  0  0  0
 18 36  1  0  0  0  0
 19 44  1  0  0  0  0
 20 37  1  0  0  0  0
 21 80  1  0  0  0  0
 22 81  1  0  0  0  0
 23 25  2  0  0  0  0
 23 80  1  0  0  0  0
 24 82  1  0  0  0  0
 25 83  1  0  0  0  0
 26 62  2  0  0  0  0
 27 65  1  0  0  0  0
 27 69  1  0  0  0  0
 28 54  1  0  0  0  0
 28 63  1  0  0  0  0
 28 64  2  0  0  0  0
 29 47  1  0  0  0  0
 29 63  2  0  0  0  0
 29 66  1  0  0  0  0
 30 70  1  0  0  0  0
 30 75  2  0  0  0  0
 31 45  1  0  0  0  0
 31 71  1  0  0  0  0
 31 76  2  0  0  0  0
 32 59  1  0  0  0  0
 32 67  1  0  0  0  0
 32 77  2  0  0  0  0
 33 60  1  0  0  0  0
 33 72  1  0  0  0  0
 33 78  2  0  0  0  0
 34 68  1  0  0  0  0
 34 73  1  0  0  0  0
 34 79  2  0  0  0  0
 35 38  1  0  0  0  0
 36 45  1  0  0  0  0
 37 67  1  0  0  0  0
 38 40  1  0  0  0  0
 39 41  1  0  0  0  0
 39 42  1  0  0  0  0
 40 44  1  0  0  0  0
 41 46  1  0  0  0  0
 42 68  1  0  0  0  0
 43 46  1  0  0  0  0
 43 68  1  0  0  0  0
 44 71  1  0  0  0  0
 45 67  1  0  0  0  0
 46 65  1  0  0  0  0
 48 60  1  0  0  0  0
 49 61  1  0  0  0  0
 50 61  1  0  0  0  0
 51 61  1  0  0  0  0
 52 73  1  0  0  0  0
 53 74  1  0  0  0  0
 54 55  1  0  0  0  0
 55 58  1  0  0  0  0
 56 57  1  0  0  0  0
 56 66  1  0  0  0  0
 57 73  1  0  0  0  0
 58 81  1  0  0  0  0
 59 61  1  0  0  0  0
 59 72  1  0  0  0  0
 60 74  1  0  0  0  0
 62 65  1  0  0  0  0
 64 66  1  0  0  0  0
M  CHG  1  74   1
M  ISO  4  34 100  58 101  73 100  81 101
M  END
> <Batch ID>
0049

> <Smiles>
CNC(C)C(=O)NC(C(=O)N1Cc2cc([101O:1][101CH2:1]CCc3nc(C)n(CC[100N:0](C)[100C:0](=O)N4CCCC(n5nc(-c6ccc(Oc7ccc(F)cc7F)cc6)c(C(N)=O)c5N)C4)n3)ccc2CC1C(=O)NC1CCCc2ccccc21)C(C)(C)C

> <Shape>
0.212

> <Color>
0.181

> <Negative vol penalty>
0.000

$$$$

  -OEChem-04052317293D

 82 90  0     1  0  0  0  0  0999 V2000
  -34.8117  -26.1632   13.3527 C   0  0  0  0  0  0  0  0  0  0  0  0
  -34.2983  -25.0652   14.0355 C   0  0  0  0  0  0  0  0  0  0  0  0
  -23.6775   -9.6347   21.2322 C   0  0  0  0  0  0  0  0  0  0  0  0
  -24.2867  -10.5398   23.3879 C   0  0  0  0  0  0  0  0  0  0  0  0
  -34.8037  -27.4218   13.9526 C   0  0  0  0  0  0  0  0  0  0  0  0
  -33.7775  -25.2250   15.3191 C   0  0  0  0  0  0  0  0  0  0  0  0
  -29.0481  -22.2074   17.7753 C   0  0  0  0  0  0  0  0  0  0  0  0
  -23.1157   -8.5220   21.8581 C   0  0  0  0  0  0  0  0  0  0  0  0
  -23.7248   -9.4270   24.0138 C   0  0  0  0  0  0  0  0  0  0  0  0
  -28.9788  -21.1083   18.6303 C   0  0  0  0  0  0  0  0  0  0  0  0
  -20.2525   -7.7621   23.4883 C   0  0  0  0  0  0  0  0  0  0  0  0
  -19.0019   -7.3318   23.0453 C   0  0  0  0  0  0  0  0  0  0  0  0
  -28.7746  -22.5969   20.5175 C   0  0  0  0  0  0  0  0  0  0  0  0
  -19.9464   -5.1854   22.4638 C   0  0  0  0  0  0  0  0  0  0  0  0
  -28.1701  -17.9647   22.6270 C   0  0  0  0  0  0  0  0  0  0  0  0
  -24.2630  -10.6436   21.9971 C   0  0  0  0  0  0  0  0  0  0  0  0
  -24.1996  -13.0017   21.0260 C   0  0  0  0  0  0  0  0  0  0  0  0
  -34.2738  -27.5988   15.2404 C   0  0  0  0  0  0  0  0  0  0  0  0
  -28.9921  -23.5118   18.2870 C   0  0  0  0  0  0  0  0  0  0  0  0
  -33.7637  -26.4868   15.9374 C   0  0  0  0  0  0  0  0  0  0  0  0
  -28.8409  -23.7108   19.6667 C   0  0  0  0  0  0  0  0  0  0  0  0
  -23.1393   -8.4181   23.2489 C   0  0  0  0  0  0  0  0  0  0  0  0
  -28.8449  -21.3030   20.0019 C   0  0  0  0  0  0  0  0  0  0  0  0
  -21.3502   -6.9041   23.4190 C   0  0  0  0  0  0  0  0  0  0  0  0
  -18.8488   -6.0434   22.5331 C   0  0  0  0  0  0  0  0  0  0  0  0
  -21.1971   -5.6158   22.9068 C   0  0  0  0  0  0  0  0  0  0  0  0
  -24.8441  -11.7931   21.3511 C   0  0  0  0  0  0  0  0  0  0  0  0
  -28.6139  -19.2064   22.9848 C   0  0  0  0  0  0  0  0  0  0  0  0
  -25.1765  -13.7625   20.4315 C   0  0  0  0  0  0  0  0  0  0  0  0
  -28.9441  -17.8431   24.6974 C   0  0  0  0  0  0  0  0  0  0  0  0
  -22.8397  -13.4010   21.2421 C   0  0  0  0  0  0  0  0  0  0  0  0
  -30.9685  -26.0012   18.3046 C   0  0  0  0  0  0  0  0  0  0  0  0
  -28.4279  -27.5130   19.6396 C   0  0  0  0  0  0  0  0  0  0  0  0
  -25.5155  -27.2780   21.4030 C   0  0  0  0  0  0  0  0  0  0  0  0
  -31.2580  -13.2447   20.9651 C   0  0  0  0  0  0  0  0  0  0  0  0
  -34.3301  -28.9698   15.8664 C   0  0  0  0  0  0  0  0  0  0  0  0
  -29.0413  -24.6865   17.3488 C   0  0  0  0  0  0  0  0  0  0  0  0
  -28.7556  -25.0907   20.2643 C   0  0  0  0  0  0  0  0  0  0  0  0
  -33.4185  -29.1226   17.0813 C   0  0  0  0  0  0  0  0  0  0  0  0
  -29.2046  -13.3849   17.8885 C   0  0  0  0  0  0  0  0  0  0  0  0
  -33.5732  -27.9288   18.0183 C   0  0  0  0  0  0  0  0  0  0  0  0
  -27.8116  -13.0228   18.4010 C   0  0  0  0  0  0  0  0  0  0  0  0
  -30.3033  -12.7584   18.7417 C   0  0  0  0  0  0  0  0  0  0  0  0
  -28.8003  -12.7113   20.7045 C   0  0  0  0  0  0  0  0  0  0  0  0
  -33.1676  -26.6244   17.3215 C   0  0  1  0  0  0  0  0  0  0  0  0
  -29.4917  -25.9758   18.0288 C   0  0  1  0  0  0  0  0  0  0  0  0
  -27.6705  -13.3648   19.8945 C   0  0  2  0  0  0  0  0  0  0  0  0
  -29.3395  -17.3369   26.0354 C   0  0  0  0  0  0  0  0  0  0  0  0
  -23.6817  -28.6888   22.3748 C   0  0  0  0  0  0  0  0  0  0  0  0
  -30.2805  -28.3494   21.9152 C   0  0  0  0  0  0  0  0  0  0  0  0
  -28.2503  -28.9043   23.2711 C   0  0  0  0  0  0  0  0  0  0  0  0
  -28.7025  -30.1308   21.1465 C   0  0  0  0  0  0  0  0  0  0  0  0
  -32.2955  -14.3567   22.9059 C   0  0  0  0  0  0  0  0  0  0  0  0
  -23.4590  -25.9631   19.7295 C   0  0  0  0  0  0  0  0  0  0  0  0
  -28.6407  -20.5044   22.2327 C   0  0  0  0  0  0  0  0  0  1  0  0
  -29.2660  -14.8053   23.5334 C   0  0  0  0  0  0  0  0  0  0  0  0
  -28.0610  -15.7295   23.7547 C   0  0  0  0  0  0  0  0  0  0  0  0
  -30.0273  -15.0555   22.2334 C   0  0  0  0  0  0  0  0  0  0  0  0
  -27.9298  -27.7255   21.0488 C   0  0  1  0  0  0  0  0  0  0  0  0
  -24.1444  -27.8859   21.1689 C   0  0  2  0  0  0  0  0  0  0  0  0
  -28.7943  -28.7514   21.8346 C   0  0  0  0  0  0  0  0  0  0  0  0
  -26.1307  -11.7821   20.9927 N   0  0  0  0  0  0  0  0  0  0  0  0
  -28.3870  -17.1410   23.7052 N   0  0  0  0  0  0  0  0  0  0  0  0
  -26.3026  -12.9932   20.4362 N   0  0  0  0  0  0  0  0  0  0  0  0
  -29.0872  -19.1019   24.2706 N   0  3  0  0  0  0  0  0  0  0  0  0
  -28.8147  -26.2072   19.3065 N   0  0  0  0  0  0  0  0  0  0  0  0
  -30.1207  -13.0633   20.1611 N   0  0  0  0  0  0  0  0  0  0  0  0
  -25.1733  -15.0079   19.9104 N   0  0  0  0  0  0  0  0  0  0  0  0
  -21.9692  -12.4974   21.8667 N   0  0  0  0  0  0  0  0  0  0  0  0
  -31.7261  -26.5081   17.2661 N   0  0  0  0  0  0  0  0  0  0  0  0
  -26.5229  -28.0939   20.9332 N   0  0  0  0  0  0  0  0  0  0  0  0
  -31.1404  -14.1267   22.0499 N   0  0  0  0  0  0  0  0  0  0  0  0
  -23.1416  -26.8158   20.9040 N   0  3  0  0  0  0  0  0  0  0  0  0
  -22.4050  -14.5196   20.8771 O   0  0  0  0  0  0  0  0  0  0  0  0
  -31.3893  -25.5927   19.3806 O   0  0  0  0  0  0  0  0  0  0  0  0
  -28.4655  -28.4690   18.8610 O   0  0  0  0  0  0  0  0  0  0  0  0
  -25.6770  -26.1900   21.9514 O   0  0  0  0  0  0  0  0  0  0  0  0
  -32.3210  -12.6593   20.7212 O   0  0  0  0  0  0  0  0  0  0  0  0
  -22.5910   -7.3326   23.8600 O   0  0  0  0  0  0  0  0  0  0  0  0
  -28.7777  -20.2319   20.8387 O   0  0  0  0  0  0  0  0  0  1  0  0
  -17.6474   -5.6298   22.1091 F   0  0  0  0  0  0  0  0  0  0  0  0
  -22.2477   -4.7866   22.8388 F   0  0  0  0  0  0  0  0  0  0  0  0
  1  2  1  0  0  0  0
  1  5  2  0  0  0  0
  2  6  2  0  0  0  0
  3  8  2  0  0  0  0
  3 16  1  0  0  0  0
  4  9  1  0  0  0  0
  4 16  2  0  0  0  0
  5 18  1  0  0  0  0
  6 20  1  0  0  0  0
  7 10  2  0  0  0  0
  7 19  1  0  0  0  0
  8 22  1  0  0  0  0
  9 22  2  0  0  0  0
 10 23  1  0  0  0  0
 11 12  2  0  0  0  0
 11 24  1  0  0  0  0
 12 25  1  0  0  0  0
 13 21  1  0  0  0  0
 13 23  2  0  0  0  0
 14 25  2  0  0  0  0
 14 26  1  0  0  0  0
 15 28  2  0  0  0  0
 15 63  1  0  0  0  0
 16 27  1  0  0  0  0
 17 27  1  0  0  0  0
 17 29  2  0  0  0  0
 17 31  1  0  0  0  0
 18 20  2  0  0  0  0
 18 36  1  0  0  0  0
 19 21  2  0  0  0  0
 19 37  1  0  0  0  0
 20 45  1  0  0  0  0
 21 38  1  0  0  0  0
 22 79  1  0  0  0  0
 23 80  1  0  0  0  0
 24 26  2  0  0  0  0
 24 79  1  0  0  0  0
 25 81  1  0  0  0  0
 26 82  1  0  0  0  0
 27 62  2  0  0  0  0
 28 55  1  0  0  0  0
 28 65  1  0  0  0  0
 29 64  1  0  0  0  0
 29 68  1  0  0  0  0
 30 48  1  0  0  0  0
 30 63  1  0  0  0  0
 30 65  2  0  0  0  0
 31 69  1  0  0  0  0
 31 74  2  0  0  0  0
 32 46  1  0  0  0  0
 32 70  1  0  0  0  0
 32 75  2  0  0  0  0
 33 59  1  0  0  0  0
 33 66  1  0  0  0  0
 33 76  2  0  0  0  0
 34 60  1  0  0  0  0
 34 71  1  0  0  0  0
 34 77  2  0  0  0  0
 35 67  1  0  0  0  0
 35 72  1  0  0  0  0
 35 78  2  0  0  0  0
 36 39  1  0  0  0  0
 37 46  1  0  0  0  0
 38 66  1  0  0  0  0
 39 41  1  0  0  0  0
 40 42  1  0  0  0  0
 40 43  1  0  0  0  0
 41 45  1  0  0  0  0
 42 47  1  0  0  0  0
 43 67  1  0  0  0  0
 44 47  1  0  0  0  0
 44 67  1  0  0  0  0
 45 70  1  0  0  0  0
 46 66  1  0  0  0  0
 47 64  1  0  0  0  0
 49 60  1  0  0  0  0
 50 61  1  0  0  0  0
 51 61  1  0  0  0  0
 52 61  1  0  0  0  0
 53 72  1  0  0  0  0
 54 73  1  0  0  0  0
 55 80  1  0  0  0  0
 56 57  1  0  0  0  0
 56 58  1  0  0  0  0
 57 63  1  0  0  0  0
 58 72  1  0  0  0  0
 59 61  1  0  0  0  0
 59 71  1  0  0  0  0
 60 73  1  0  0  0  0
 62 64  1  0  0  0  0
M  CHG  2  65   1  73   1
M  ISO  4  35 100  55 101  72 100  80 101
M  END
> <Batch ID>
0049

> <Smiles>
CNC(C)C(=O)NC(C(=O)N1Cc2cc([101O:1][101CH2:1]c3cn(CCC[100N:0](C)[100C:0](=O)N4CCCC(n5nc(-c6ccc(Oc7ccc(F)cc7F)cc6)c(C(N)=O)c5N)C4)c(C)n3)ccc2CC1C(=O)NC1CCCc2ccccc21)C(C)(C)C

> <Shape>
0.261

> <Color>
0.144

> <Negative vol penalty>
0.000

$$$$

  -OEChem-04052317293D

 85 93  0     1  0  0  0  0  0999 V2000
  -19.8899   -9.1497   19.9453 C   0  0  0  0  0  0  0  0  0  0  0  0
  -19.8072  -10.4409   20.4566 C   0  0  0  0  0  0  0  0  0  0  0  0
  -22.5030  -27.9483   19.7646 C   0  0  0  0  0  0  0  0  0  0  0  0
  -23.1295  -27.1045   21.9401 C   0  0  0  0  0  0  0  0  0  0  0  0
  -21.1007   -8.4598   19.9899 C   0  0  0  0  0  0  0  0  0  0  0  0
  -20.9350  -11.0425   21.0138 C   0  0  0  0  0  0  0  0  0  0  0  0
  -22.4356  -16.9756   20.7833 C   0  0  0  0  0  0  0  0  0  0  0  0
  -21.1633  -27.6821   20.0472 C   0  0  0  0  0  0  0  0  0  0  0  0
  -21.7898  -26.8384   22.2227 C   0  0  0  0  0  0  0  0  0  0  0  0
  -22.2782  -18.0190   21.6945 C   0  0  0  0  0  0  0  0  0  0  0  0
  -19.5074  -24.4629   21.4620 C   0  0  0  0  0  0  0  0  0  0  0  0
  -19.1994  -23.2323   22.0420 C   0  0  0  0  0  0  0  0  0  0  0  0
  -24.5321  -17.6663   22.4785 C   0  0  0  0  0  0  0  0  0  0  0  0
  -18.2640  -24.3692   23.9576 C   0  0  0  0  0  0  0  0  0  0  0  0
  -25.4618  -23.5196   22.1537 C   0  0  0  0  0  0  0  0  0  0  0  0
  -23.4862  -27.6594   20.7110 C   0  0  0  0  0  0  0  0  0  0  0  0
  -25.5740  -29.1248   20.6791 C   0  0  0  0  0  0  0  0  0  0  0  0
  -22.2463   -9.0569   20.5392 C   0  0  0  0  0  0  0  0  0  0  0  0
  -23.6407  -16.2614   20.7203 C   0  0  0  0  0  0  0  0  0  0  0  0
  -22.1619  -10.3595   21.0670 C   0  0  0  0  0  0  0  0  0  0  0  0
  -24.7032  -16.6159   21.5639 C   0  0  0  0  0  0  0  0  0  0  0  0
  -26.5889  -22.9187   22.6759 C   0  0  0  0  0  0  0  0  0  0  0  0
  -20.8066  -27.1272   21.2762 C   0  0  0  0  0  0  0  0  0  0  0  0
  -23.3255  -18.3626   22.5443 C   0  0  0  0  0  0  0  0  0  0  0  0
  -19.1937  -25.6467   22.1299 C   0  0  0  0  0  0  0  0  0  0  0  0
  -18.5777  -23.1854   23.2897 C   0  0  0  0  0  0  0  0  0  0  0  0
  -18.5720  -25.5998   23.3776 C   0  0  0  0  0  0  0  0  0  0  0  0
  -24.8704  -27.9335   20.4195 C   0  0  0  0  0  0  0  0  0  0  0  0
  -26.3588  -21.9014   23.5795 C   0  0  0  0  0  0  0  0  0  0  0  0
  -26.8449  -28.8802   20.2192 C   0  0  0  0  0  0  0  0  0  0  0  0
  -24.1098  -22.1580   23.3724 C   0  0  0  0  0  0  0  0  0  0  0  0
  -25.1195  -30.3436   21.2823 C   0  0  0  0  0  0  0  0  0  0  0  0
  -24.4811  -13.2330   21.1966 C   0  0  0  0  0  0  0  0  0  0  0  0
  -27.3620  -14.2718   20.1272 C   0  0  0  0  0  0  0  0  0  0  0  0
  -29.5140  -16.8809   19.6709 C   0  0  0  0  0  0  0  0  0  0  0  0
  -30.0679  -24.0151   19.4320 C   0  0  0  0  0  0  0  0  0  0  0  0
  -23.5212   -8.2541   20.6081 C   0  0  0  0  0  0  0  0  0  0  0  0
  -23.8038  -15.1559   19.7134 C   0  0  0  0  0  0  0  0  0  0  0  0
  -26.0242  -15.8937   21.5218 C   0  0  0  0  0  0  0  0  0  0  0  0
  -24.7616   -9.1027   20.8756 C   0  0  0  0  0  0  0  0  0  0  0  0
  -29.2346  -26.3163   16.9752 C   0  0  0  0  0  0  0  0  0  0  0  0
  -24.5015  -10.0844   22.0138 C   0  0  0  0  0  0  0  0  0  0  0  0
  -28.0862  -27.1132   17.5924 C   0  0  0  0  0  0  0  0  0  0  0  0
  -29.1062  -24.8335   17.3032 C   0  0  0  0  0  0  0  0  0  0  0  0
  -27.8997  -25.3356   19.4040 C   0  0  0  0  0  0  0  0  0  0  0  0
  -23.3693  -11.0552   21.6570 C   0  0  1  0  0  0  0  0  0  0  0  0
  -24.8971  -14.1608   20.0904 C   0  0  1  0  0  0  0  0  0  0  0  0
  -27.9803  -26.8465   19.1041 C   0  0  2  0  0  0  0  0  0  0  0  0
  -31.1007  -21.2046   20.7758 C   0  0  0  0  0  0  0  0  0  0  0  0
  -31.8092  -17.4134   18.8072 C   0  0  0  0  0  0  0  0  0  0  0  0
  -28.5860  -13.1007   22.6650 C   0  0  0  0  0  0  0  0  0  0  0  0
  -30.6397  -14.4614   22.2189 C   0  0  0  0  0  0  0  0  0  0  0  0
  -29.9239  -12.7153   20.5875 C   0  0  0  0  0  0  0  0  0  0  0  0
  -28.4377  -18.6875   17.5884 C   0  0  0  0  0  0  0  0  0  0  0  0
  -27.1060  -20.2091   25.0741 C   0  0  0  0  0  0  0  0  0  0  0  0
  -27.9518  -23.3525   22.2771 C   0  0  0  0  0  0  0  0  0  0  0  0
  -22.7161  -21.7287   23.7618 C   0  0  0  0  0  0  0  0  0  0  0  0
  -30.8242  -22.5983   21.3025 C   0  0  0  0  0  0  0  0  0  0  0  0
  -28.3984  -22.8164   20.9088 C   0  0  0  0  0  0  0  0  0  0  0  0
  -22.2913  -20.4393   23.0676 C   0  0  0  0  0  0  0  0  0  1  0  0
  -28.5943  -14.8576   20.7731 C   0  0  1  0  0  0  0  0  0  0  0  0
  -30.3303  -17.3145   18.4667 C   0  0  2  0  0  0  0  0  0  0  0  0
  -29.4105  -13.7963   21.5635 C   0  0  0  0  0  0  0  0  0  0  0  0
  -24.2024  -23.1631   22.4810 N   0  0  0  0  0  0  0  0  0  0  0  0
  -25.6310  -27.0013   19.8394 N   0  0  0  0  0  0  0  0  0  0  0  0
  -25.1278  -21.4938   23.9521 N   0  0  0  0  0  0  0  0  0  0  0  0
  -26.8258  -27.6069   19.7307 N   0  0  0  0  0  0  0  0  0  0  0  0
  -26.1325  -14.8161   20.5246 N   0  0  0  0  0  0  0  0  0  0  0  0
  -29.0025  -24.6175   18.7466 N   0  0  0  0  0  0  0  0  0  0  0  0
  -27.9656  -29.6322   20.1889 N   0  0  0  0  0  0  0  0  0  0  0  0
  -23.7836  -30.4257   21.6980 N   0  0  0  0  0  0  0  0  0  0  0  0
  -23.8498  -12.0841   20.7598 N   0  0  0  0  0  0  0  0  0  0  0  0
  -29.3421  -15.5132   19.7057 N   0  0  0  0  0  0  0  0  0  0  0  0
  -29.7513  -23.2497   20.5645 N   0  0  0  0  0  0  0  0  0  0  0  0
  -29.8699  -18.6460   17.9810 N   0  3  0  0  0  0  0  0  0  0  0  0
  -25.8714  -31.3364   21.4327 O   0  0  0  0  0  0  0  0  0  0  0  0
  -24.7168  -13.5364   22.3603 O   0  0  0  0  0  0  0  0  0  0  0  0
  -27.4861  -13.3695   19.2952 O   0  0  0  0  0  0  0  0  0  0  0  0
  -29.0760  -17.6755   20.4998 O   0  0  0  0  0  0  0  0  0  0  0  0
  -31.2378  -24.1467   19.0497 O   0  0  0  0  0  0  0  0  0  0  0  0
  -19.4994  -26.8676   21.5524 O   0  0  0  0  0  0  0  0  0  0  0  0
  -23.1743  -19.3802   23.4351 O   0  0  0  0  0  0  0  0  0  1  0  0
  -27.4176  -21.2466   24.1519 O   0  0  0  0  0  0  0  0  0  0  0  0
  -18.2806  -22.0036   23.8458 F   0  0  0  0  0  0  0  0  0  0  0  0
  -18.2672  -26.7337   24.0235 F   0  0  0  0  0  0  0  0  0  0  0  0
  1  2  1  0  0  0  0
  1  5  2  0  0  0  0
  2  6  2  0  0  0  0
  3  8  2  0  0  0  0
  3 16  1  0  0  0  0
  4  9  1  0  0  0  0
  4 16  2  0  0  0  0
  5 18  1  0  0  0  0
  6 20  1  0  0  0  0
  7 10  2  0  0  0  0
  7 19  1  0  0  0  0
  8 23  1  0  0  0  0
  9 23  2  0  0  0  0
 10 24  1  0  0  0  0
 11 12  2  0  0  0  0
 11 25  1  0  0  0  0
 12 26  1  0  0  0  0
 13 21  1  0  0  0  0
 13 24  2  0  0  0  0
 14 26  2  0  0  0  0
 14 27  1  0  0  0  0
 15 22  1  0  0  0  0
 15 64  2  0  0  0  0
 16 28  1  0  0  0  0
 17 28  1  0  0  0  0
 17 30  2  0  0  0  0
 17 32  1  0  0  0  0
 18 20  2  0  0  0  0
 18 37  1  0  0  0  0
 19 21  2  0  0  0  0
 19 38  1  0  0  0  0
 20 46  1  0  0  0  0
 21 39  1  0  0  0  0
 22 29  2  0  0  0  0
 22 56  1  0  0  0  0
 23 81  1  0  0  0  0
 24 82  1  0  0  0  0
 25 27  2  0  0  0  0
 25 81  1  0  0  0  0
 26 84  1  0  0  0  0
 27 85  1  0  0  0  0
 28 65  2  0  0  0  0
 29 66  1  0  0  0  0
 29 83  1  0  0  0  0
 30 67  1  0  0  0  0
 30 70  1  0  0  0  0
 31 57  1  0  0  0  0
 31 64  1  0  0  0  0
 31 66  2  0  0  0  0
 32 71  1  0  0  0  0
 32 76  2  0  0  0  0
 33 47  1  0  0  0  0
 33 72  1  0  0  0  0
 33 77  2  0  0  0  0
 34 61  1  0  0  0  0
 34 68  1  0  0  0  0
 34 78  2  0  0  0  0
 35 62  1  0  0  0  0
 35 73  1  0  0  0  0
 35 79  2  0  0  0  0
 36 69  1  0  0  0  0
 36 74  1  0  0  0  0
 36 80  2  0  0  0  0
 37 40  1  0  0  0  0
 38 47  1  0  0  0  0
 39 68  1  0  0  0  0
 40 42  1  0  0  0  0
 41 43  1  0  0  0  0
 41 44  1  0  0  0  0
 42 46  1  0  0  0  0
 43 48  1  0  0  0  0
 44 69  1  0  0  0  0
 45 48  1  0  0  0  0
 45 69  1  0  0  0  0
 46 72  1  0  0  0  0
 47 68  1  0  0  0  0
 48 67  1  0  0  0  0
 49 58  1  0  0  0  0
 50 62  1  0  0  0  0
 51 63  1  0  0  0  0
 52 63  1  0  0  0  0
 53 63  1  0  0  0  0
 54 75  1  0  0  0  0
 55 83  1  0  0  0  0
 56 59  1  0  0  0  0
 57 60  1  0  0  0  0
 58 74  1  0  0  0  0
 59 74  1  0  0  0  0
 60 82  1  0  0  0  0
 61 63  1  0  0  0  0
 61 73  1  0  0  0  0
 62 75  1  0  0  0  0
 65 67  1  0  0  0  0
M  CHG  1  75   1
M  ISO  4  36 100  60 101  74 100  82 101
M  END
> <Batch ID>
0049

> <Smiles>
CC[100N:0](CCc1cnc(C[101CH2:1][101O:1]c2ccc3c(c2)CN(C(=O)C(NC(=O)C(C)NC)C(C)(C)C)C(C(=O)NC2CCCc4ccccc42)C3)nc1OC)[100C:0](=O)N1CCCC(n2nc(-c3ccc(Oc4ccc(F)cc4F)cc3)c(C(N)=O)c2N)C1

> <Shape>
0.264

> <Color>
0.039

> <Negative vol penalty>
0.000

$$$$

  -OEChem-04052317293D

 85 94  0     1  0  0  0  0  0999 V2000
  -18.4545  -26.1588   23.0058 C   0  0  0  0  0  0  0  0  0  0  0  0
  -19.1841  -25.0003   22.7587 C   0  0  0  0  0  0  0  0  0  0  0  0
  -23.3603  -13.8179   25.6337 C   0  0  0  0  0  0  0  0  0  0  0  0
  -22.9095  -16.1900   25.5513 C   0  0  0  0  0  0  0  0  0  0  0  0
  -19.0058  -27.4048   22.7103 C   0  0  0  0  0  0  0  0  0  0  0  0
  -20.4652  -25.0873   22.2148 C   0  0  0  0  0  0  0  0  0  0  0  0
  -25.2284  -21.4283   23.4107 C   0  0  0  0  0  0  0  0  0  0  0  0
  -22.5607  -13.7054   26.7710 C   0  0  0  0  0  0  0  0  0  0  0  0
  -22.1097  -16.0775   26.6886 C   0  0  0  0  0  0  0  0  0  0  0  0
  -25.7631  -20.3331   22.7336 C   0  0  0  0  0  0  0  0  0  0  0  0
  -18.9773  -15.0542   27.4377 C   0  0  0  0  0  0  0  0  0  0  0  0
  -17.7459  -15.7092   27.4296 C   0  0  0  0  0  0  0  0  0  0  0  0
  -28.3914  -16.5276   18.3168 C   0  0  0  0  0  0  0  0  0  0  0  0
  -27.9661  -17.7102   18.8960 C   0  0  0  0  0  0  0  0  0  0  0  0
  -27.3749  -21.7822   21.6748 C   0  0  0  0  0  0  0  0  0  0  0  0
  -18.4247  -17.0090   29.3498 C   0  0  0  0  0  0  0  0  0  0  0  0
  -28.9880  -12.6527   18.0584 C   0  0  0  0  0  0  0  0  0  0  0  0
  -23.5348  -15.0602   25.0239 C   0  0  0  0  0  0  0  0  0  0  0  0
  -23.9538  -15.0533   22.5075 C   0  0  0  0  0  0  0  0  0  0  0  0
  -20.2980  -27.5075   22.1715 C   0  0  0  0  0  0  0  0  0  0  0  0
  -25.7568  -22.7126   23.2163 C   0  0  0  0  0  0  0  0  0  0  0  0
  -21.0338  -26.3358   21.9106 C   0  0  0  0  0  0  0  0  0  0  0  0
  -26.8468  -22.8917   22.3526 C   0  0  0  0  0  0  0  0  0  0  0  0
  -21.9354  -14.8352   27.2985 C   0  0  0  0  0  0  0  0  0  0  0  0
  -26.8346  -20.5104   21.8633 C   0  0  0  0  0  0  0  0  0  0  0  0
  -19.9324  -15.3764   28.4019 C   0  0  0  0  0  0  0  0  0  0  0  0
  -17.4696  -16.6867   28.3856 C   0  0  0  0  0  0  0  0  0  0  0  0
  -19.6561  -16.3538   29.3579 C   0  0  0  0  0  0  0  0  0  0  0  0
  -24.3612  -15.1772   23.8494 C   0  0  0  0  0  0  0  0  0  0  0  0
  -29.6906  -16.1242   18.5512 C   0  0  0  0  0  0  0  0  0  0  0  0
  -28.8680  -18.4109   19.6714 C   0  0  0  0  0  0  0  0  0  0  0  0
  -28.6996  -11.7518   19.0444 C   0  0  0  0  0  0  0  0  0  0  0  0
  -25.1028  -15.2473   21.7806 C   0  0  0  0  0  0  0  0  0  0  0  0
  -29.8332  -13.4212   19.9546 C   0  0  0  0  0  0  0  0  0  0  0  0
  -22.6530  -14.7868   21.9666 C   0  0  0  0  0  0  0  0  0  0  0  0
  -30.5191  -14.2579   20.9478 C   0  0  0  0  0  0  0  0  0  0  0  0
  -24.6188  -25.4603   22.0942 C   0  0  0  0  0  0  0  0  0  0  0  0
  -27.5048  -26.5950   23.0459 C   0  0  0  0  0  0  0  0  0  0  0  0
  -30.7770  -25.9489   23.7687 C   0  0  0  0  0  0  0  0  0  0  0  0
  -20.8333  -28.8742   21.8245 C   0  0  0  0  0  0  0  0  0  0  0  0
  -25.1860  -23.8795   23.9745 C   0  0  0  0  0  0  0  0  0  0  0  0
  -27.4636  -24.2467   22.1245 C   0  0  0  0  0  0  0  0  0  0  0  0
  -22.3429  -28.8978   21.5989 C   0  0  0  0  0  0  0  0  0  0  0  0
  -29.6694  -16.8997   23.1929 C   0  0  0  0  0  0  0  0  0  0  0  0
  -22.7664  -27.7413   20.6988 C   0  0  0  0  0  0  0  0  0  0  0  0
  -28.1831  -16.6678   23.4712 C   0  0  0  0  0  0  0  0  0  0  0  0
  -30.4248  -15.5829   23.0323 C   0  0  0  0  0  0  0  0  0  0  0  0
  -28.3644  -14.4336   22.2983 C   0  0  0  0  0  0  0  0  0  0  0  0
  -22.4362  -26.3902   21.3445 C   0  0  1  0  0  0  0  0  0  0  0  0
  -25.4713  -25.2220   23.3084 C   0  0  1  0  0  0  0  0  0  0  0  0
  -27.5568  -15.7365   22.4163 C   0  0  1  0  0  0  0  0  0  0  0  0
  -26.4696  -10.6260   19.2599 C   0  0  0  0  0  0  0  0  0  0  0  0
  -32.8980  -27.0842   24.4824 C   0  0  0  0  0  0  0  0  0  0  0  0
  -27.8630  -27.6954   20.2226 C   0  0  0  0  0  0  0  0  0  0  0  0
  -30.3050  -27.9567   20.7093 C   0  0  0  0  0  0  0  0  0  0  0  0
  -28.6258  -29.2293   22.0447 C   0  0  0  0  0  0  0  0  0  0  0  0
  -30.9352  -24.3473   26.2524 C   0  0  0  0  0  0  0  0  0  0  0  0
  -30.1992  -14.8594   17.9492 C   0  0  0  0  0  0  0  0  0  0  0  0
  -28.4553  -19.6972   20.3245 C   0  0  0  0  0  0  0  0  0  1  0  0
  -27.9783  -10.4767   19.0094 C   0  0  0  0  0  0  0  0  0  0  0  0
  -28.8628  -26.7376   22.4019 C   0  0  1  0  0  0  0  0  0  0  0  0
  -31.6475  -26.3528   24.9449 C   0  0  2  0  0  0  0  0  0  0  0  0
  -28.9015  -27.8794   21.3472 C   0  0  0  0  0  0  0  0  0  0  0  0
  -25.6671  -15.4301   23.9705 N   0  0  0  0  0  0  0  0  0  0  0  0
  -30.5517  -16.8300   19.3144 N   0  0  0  0  0  0  0  0  0  0  0  0
  -30.1334  -17.9921   19.8839 N   0  0  0  0  0  0  0  0  0  0  0  0
  -29.6898  -13.6753   18.6498 N   0  0  0  0  0  0  0  0  0  0  0  0
  -26.0902  -15.4667   22.6955 N   0  0  0  0  0  0  0  0  0  0  0  0
  -29.2343  -12.2528   20.2068 N   0  3  0  0  0  0  0  0  0  0  0  0
  -29.7783  -14.7341   22.0322 N   0  0  0  0  0  0  0  0  0  0  0  0
  -26.8662  -25.3574   22.8841 N   0  0  0  0  0  0  0  0  0  0  0  0
  -25.3549  -15.2499   20.4543 N   0  0  0  0  0  0  0  0  0  0  0  0
  -21.5827  -14.6135   22.8548 N   0  0  0  0  0  0  0  0  0  0  0  0
  -23.4081  -26.0678   22.3672 N   0  0  0  0  0  0  0  0  0  0  0  0
  -29.8171  -26.8998   23.4934 N   0  0  0  0  0  0  0  0  0  0  0  0
  -32.0658  -25.1488   25.7172 N   0  3  0  0  0  0  0  0  0  0  0  0
  -22.4490  -14.6885   20.7328 O   0  0  0  0  0  0  0  0  0  0  0  0
  -31.7090  -14.4872   20.7365 O   0  0  0  0  0  0  0  0  0  0  0  0
  -25.0298  -25.1195   20.9912 O   0  0  0  0  0  0  0  0  0  0  0  0
  -27.0314  -27.5443   23.6755 O   0  0  0  0  0  0  0  0  0  0  0  0
  -30.9352  -24.8969   23.1531 O   0  0  0  0  0  0  0  0  0  0  0  0
  -21.1548  -14.7257   28.4081 O   0  0  0  0  0  0  0  0  0  0  0  0
  -27.3580  -19.4432   21.2007 O   0  0  0  0  0  0  0  0  0  1  0  0
  -16.2876  -17.3167   28.3768 F   0  0  0  0  0  0  0  0  0  0  0  0
  -20.5702  -16.6686   30.2859 F   0  0  0  0  0  0  0  0  0  0  0  0
  1  2  1  0  0  0  0
  1  5  2  0  0  0  0
  2  6  2  0  0  0  0
  3  8  2  0  0  0  0
  3 18  1  0  0  0  0
  4  9  1  0  0  0  0
  4 18  2  0  0  0  0
  5 20  1  0  0  0  0
  6 22  1  0  0  0  0
  7 10  2  0  0  0  0
  7 21  1  0  0  0  0
  8 24  1  0  0  0  0
  9 24  2  0  0  0  0
 10 25  1  0  0  0  0
 11 12  2  0  0  0  0
 11 26  1  0  0  0  0
 12 27  1  0  0  0  0
 13 14  2  0  0  0  0
 13 30  1  0  0  0  0
 14 31  1  0  0  0  0
 15 23  1  0  0  0  0
 15 25  2  0  0  0  0
 16 27  2  0  0  0  0
 16 28  1  0  0  0  0
 17 32  2  0  0  0  0
 17 67  1  0  0  0  0
 18 29  1  0  0  0  0
 19 29  1  0  0  0  0
 19 33  2  0  0  0  0
 19 35  1  0  0  0  0
 20 22  2  0  0  0  0
 20 40  1  0  0  0  0
 21 23  2  0  0  0  0
 21 41  1  0  0  0  0
 22 49  1  0  0  0  0
 23 42  1  0  0  0  0
 24 82  1  0  0  0  0
 25 83  1  0  0  0  0
 26 28  2  0  0  0  0
 26 82  1  0  0  0  0
 27 84  1  0  0  0  0
 28 85  1  0  0  0  0
 29 64  2  0  0  0  0
 30 58  1  0  0  0  0
 30 65  2  0  0  0  0
 31 59  1  0  0  0  0
 31 66  2  0  0  0  0
 32 60  1  0  0  0  0
 32 69  1  0  0  0  0
 33 68  1  0  0  0  0
 33 72  1  0  0  0  0
 34 36  1  0  0  0  0
 34 67  1  0  0  0  0
 34 69  2  0  0  0  0
 35 73  1  0  0  0  0
 35 77  2  0  0  0  0
 36 70  1  0  0  0  0
 36 78  2  0  0  0  0
 37 50  1  0  0  0  0
 37 74  1  0  0  0  0
 37 79  2  0  0  0  0
 38 61  1  0  0  0  0
 38 71  1  0  0  0  0
 38 80  2  0  0  0  0
 39 62  1  0  0  0  0
 39 75  1  0  0  0  0
 39 81  2  0  0  0  0
 40 43  1  0  0  0  0
 41 50  1  0  0  0  0
 42 71  1  0  0  0  0
 43 45  1  0  0  0  0
 44 46  1  0  0  0  0
 44 47  1  0  0  0  0
 45 49  1  0  0  0  0
 46 51  1  0  0  0  0
 47 70  1  0  0  0  0
 48 51  1  0  0  0  0
 48 70  1  0  0  0  0
 49 74  1  0  0  0  0
 50 71  1  0  0  0  0
 51 68  1  0  0  0  0
 52 60  1  0  0  0  0
 53 62  1  0  0  0  0
 54 63  1  0  0  0  0
 55 63  1  0  0  0  0
 56 63  1  0  0  0  0
 57 76  1  0  0  0  0
 58 67  1  0  0  0  0
 59 83  1  0  0  0  0
 61 63  1  0  0  0  0
 61 75  1  0  0  0  0
 62 76  1  0  0  0  0
 64 68  1  0  0  0  0
 65 66  1  0  0  0  0
M  CHG  2  69   1  76   1
M  ISO  4  34 100  36 100  59 101  83 101
M  END
> <Batch ID>
0049

> <Smiles>
CCc1cn(Cc2ccc([101CH2:1][101O:1]c3ccc4c(c3)CN(C(=O)C(NC(=O)C(C)NC)C(C)(C)C)C(C(=O)NC3CCCc5ccccc53)C4)nn2)[100c:0]([100C:0](=O)N2CCCC(n3nc(-c4ccc(Oc5ccc(F)cc5F)cc4)c(C(N)=O)c3N)C2)n1

> <Shape>
0.175

> <Color>
0.106

> <Negative vol penalty>
0.000

$$$$

  -OEChem-04052317293D

 84 92  0     1  0  0  0  0  0999 V2000
  -20.0300  -34.4706   20.1989 C   0  0  0  0  0  0  0  0  0  0  0  0
  -21.3073  -33.9411   20.0454 C   0  0  0  0  0  0  0  0  0  0  0  0
  -26.1896  -16.4629   21.9835 C   0  0  0  0  0  0  0  0  0  0  0  0
  -25.4404  -16.0526   19.7235 C   0  0  0  0  0  0  0  0  0  0  0  0
  -19.1606  -33.9278   21.1441 C   0  0  0  0  0  0  0  0  0  0  0  0
  -21.7163  -32.8691   20.8378 C   0  0  0  0  0  0  0  0  0  0  0  0
  -25.4249  -28.2808   19.1949 C   0  0  0  0  0  0  0  0  0  0  0  0
  -25.3408  -15.4580   22.4474 C   0  0  0  0  0  0  0  0  0  0  0  0
  -24.5915  -15.0476   20.1874 C   0  0  0  0  0  0  0  0  0  0  0  0
  -26.7859  -28.0563   19.3976 C   0  0  0  0  0  0  0  0  0  0  0  0
  -24.8524  -11.8226   21.1629 C   0  0  0  0  0  0  0  0  0  0  0  0
  -24.8269  -10.6204   20.4560 C   0  0  0  0  0  0  0  0  0  0  0  0
  -26.2694  -26.7057   21.3285 C   0  0  0  0  0  0  0  0  0  0  0  0
  -31.4622  -23.1399   19.7283 C   0  0  0  0  0  0  0  0  0  0  0  0
  -30.8191  -24.0829   21.8453 C   0  0  0  0  0  0  0  0  0  0  0  0
  -22.4695  -10.9247   20.0236 C   0  0  0  0  0  0  0  0  0  0  0  0
  -26.2394  -16.7602   20.6216 C   0  0  0  0  0  0  0  0  0  0  0  0
  -28.4525  -17.6571   19.7241 C   0  0  0  0  0  0  0  0  0  0  0  0
  -19.5558  -32.8424   21.9418 C   0  0  0  0  0  0  0  0  0  0  0  0
  -24.4749  -27.7274   20.0654 C   0  0  0  0  0  0  0  0  0  0  0  0
  -20.8519  -32.3122   21.7955 C   0  0  0  0  0  0  0  0  0  0  0  0
  -24.8969  -26.9225   21.1332 C   0  0  0  0  0  0  0  0  0  0  0  0
  -31.1508  -22.9750   21.0733 C   0  0  0  0  0  0  0  0  0  0  0  0
  -24.5418  -14.7503   21.5494 C   0  0  0  0  0  0  0  0  0  0  0  0
  -27.2085  -27.2710   20.4662 C   0  0  0  0  0  0  0  0  0  0  0  0
  -23.6864  -12.5758   21.3002 C   0  0  0  0  0  0  0  0  0  0  0  0
  -23.6355  -10.1715   19.8863 C   0  0  0  0  0  0  0  0  0  0  0  0
  -22.4950  -12.1269   20.7305 C   0  0  0  0  0  0  0  0  0  0  0  0
  -27.1156  -17.7986   20.1418 C   0  0  0  0  0  0  0  0  0  0  0  0
  -31.4277  -24.4233   19.2072 C   0  0  0  0  0  0  0  0  0  0  0  0
  -30.8136  -25.3241   21.2295 C   0  0  0  0  0  0  0  0  0  0  0  0
  -28.8364  -18.9261   19.3655 C   0  0  0  0  0  0  0  0  0  0  0  0
  -29.2739  -16.4833   19.6653 C   0  0  0  0  0  0  0  0  0  0  0  0
  -22.2772  -28.9114   22.0331 C   0  0  0  0  0  0  0  0  0  0  0  0
  -21.4593  -25.7906   22.3704 C   0  0  0  0  0  0  0  0  0  0  0  0
  -22.3933  -22.5137   22.1784 C   0  0  0  0  0  0  0  0  0  0  0  0
  -27.4282  -23.5193   16.4458 C   0  0  0  0  0  0  0  0  0  0  0  0
  -18.5977  -32.3199   22.9829 C   0  0  0  0  0  0  0  0  0  0  0  0
  -23.0092  -27.9571   19.8174 C   0  0  0  0  0  0  0  0  0  0  0  0
  -23.9160  -26.2889   22.0845 C   0  0  0  0  0  0  0  0  0  0  0  0
  -18.9765  -30.9432   23.5228 C   0  0  0  0  0  0  0  0  0  0  0  0
  -26.5878  -23.3876   20.0884 C   0  0  0  0  0  0  0  0  0  0  0  0
  -20.4622  -30.8942   23.8652 C   0  0  0  0  0  0  0  0  0  0  0  0
  -26.7008  -21.8882   20.3596 C   0  0  0  0  0  0  0  0  0  0  0  0
  -26.1891  -23.6584   18.6427 C   0  0  0  0  0  0  0  0  0  0  0  0
  -27.2202  -21.5359   17.9018 C   0  0  0  0  0  0  0  0  0  0  0  0
  -21.3235  -31.1336   22.6193 C   0  0  1  0  0  0  0  0  0  0  0  0
  -22.1549  -27.7672   21.0670 C   0  0  1  0  0  0  0  0  0  0  0  0
  -27.6412  -21.2150   19.3456 C   0  0  2  0  0  0  0  0  0  0  0  0
  -31.1715  -21.6153   21.6851 C   0  0  0  0  0  0  0  0  0  0  0  0
  -21.5192  -20.1912   22.5514 C   0  0  0  0  0  0  0  0  0  0  0  0
  -21.7334  -26.1741   25.3850 C   0  0  0  0  0  0  0  0  0  0  0  0
  -21.7936  -23.6829   25.6262 C   0  0  0  0  0  0  0  0  0  0  0  0
  -19.7692  -24.7943   24.6832 C   0  0  0  0  0  0  0  0  0  0  0  0
  -28.9777  -23.0670   14.4980 C   0  0  0  0  0  0  0  0  0  0  0  0
  -22.8094  -21.7768   19.3425 C   0  0  0  0  0  0  0  0  0  0  0  0
  -31.7545  -24.6380   17.7672 C   0  0  0  0  0  0  0  0  0  0  0  0
  -30.4601  -26.5490   22.0376 C   0  0  0  0  0  0  0  0  0  0  0  0
  -30.5419  -24.5569   16.8195 C   0  0  0  0  0  0  0  0  0  0  0  0
  -29.8464  -23.1973   16.8034 C   0  0  0  0  0  0  0  0  0  0  0  0
  -28.9652  -26.8485   22.0126 C   0  0  0  0  0  0  0  0  0  1  0  0
  -21.8763  -24.6697   23.2916 C   0  0  1  0  0  0  0  0  0  0  0  0
  -21.7214  -21.3105   21.5419 C   0  0  2  0  0  0  0  0  0  0  0  0
  -21.3119  -24.8436   24.7299 C   0  0  0  0  0  0  0  0  0  0  0  0
  -26.6796  -19.0582   20.0572 N   0  0  0  0  0  0  0  0  0  0  0  0
  -31.1103  -25.5236   19.9258 N   0  0  0  0  0  0  0  0  0  0  0  0
  -27.7486  -19.7198   19.5822 N   0  0  0  0  0  0  0  0  0  0  0  0
  -22.4942  -26.5481   21.8038 N   0  0  0  0  0  0  0  0  0  0  0  0
  -27.0851  -22.9800   17.6967 N   0  0  0  0  0  0  0  0  0  0  0  0
  -29.9950  -19.4294   18.8893 N   0  0  0  0  0  0  0  0  0  0  0  0
  -28.7220  -15.2606   20.0710 N   0  0  0  0  0  0  0  0  0  0  0  0
  -21.3799  -29.9375   21.8064 N   0  0  0  0  0  0  0  0  0  0  0  0
  -21.4710  -23.4307   22.6365 N   0  0  0  0  0  0  0  0  0  0  0  0
  -28.6852  -23.1762   15.9254 N   0  0  0  0  0  0  0  0  0  0  0  0
  -22.5511  -20.7872   20.4199 N   0  3  0  0  0  0  0  0  0  0  0  0
  -30.4672  -16.5207   19.2803 O   0  0  0  0  0  0  0  0  0  0  0  0
  -23.1220  -28.8660   22.9195 O   0  0  0  0  0  0  0  0  0  0  0  0
  -20.2599  -25.9823   22.1556 O   0  0  0  0  0  0  0  0  0  0  0  0
  -23.6141  -22.6270   22.2643 O   0  0  0  0  0  0  0  0  0  0  0  0
  -26.6512  -24.2562   15.8253 O   0  0  0  0  0  0  0  0  0  0  0  0
  -23.7135  -13.7695   22.0016 O   0  0  0  0  0  0  0  0  0  0  0  0
  -28.5363  -27.0508   20.6667 O   0  0  0  0  0  0  0  0  0  1  0  0
  -23.6115   -9.0178   19.2062 F   0  0  0  0  0  0  0  0  0  0  0  0
  -21.3719  -12.8467   20.8581 F   0  0  0  0  0  0  0  0  0  0  0  0
  1  2  1  0  0  0  0
  1  5  2  0  0  0  0
  2  6  2  0  0  0  0
  3  8  2  0  0  0  0
  3 17  1  0  0  0  0
  4  9  1  0  0  0  0
  4 17  2  0  0  0  0
  5 19  1  0  0  0  0
  6 21  1  0  0  0  0
  7 10  2  0  0  0  0
  7 20  1  0  0  0  0
  8 24  1  0  0  0  0
  9 24  2  0  0  0  0
 10 25  1  0  0  0  0
 11 12  2  0  0  0  0
 11 26  1  0  0  0  0
 12 27  1  0  0  0  0
 13 22  1  0  0  0  0
 13 25  2  0  0  0  0
 14 23  1  0  0  0  0
 14 30  2  0  0  0  0
 15 23  2  0  0  0  0
 15 31  1  0  0  0  0
 16 27  2  0  0  0  0
 16 28  1  0  0  0  0
 17 29  1  0  0  0  0
 18 29  1  0  0  0  0
 18 32  2  0  0  0  0
 18 33  1  0  0  0  0
 19 21  2  0  0  0  0
 19 38  1  0  0  0  0
 20 22  2  0  0  0  0
 20 39  1  0  0  0  0
 21 47  1  0  0  0  0
 22 40  1  0  0  0  0
 23 50  1  0  0  0  0
 24 81  1  0  0  0  0
 25 82  1  0  0  0  0
 26 28  2  0  0  0  0
 26 81  1  0  0  0  0
 27 83  1  0  0  0  0
 28 84  1  0  0  0  0
 29 65  2  0  0  0  0
 30 57  1  0  0  0  0
 30 66  1  0  0  0  0
 31 58  1  0  0  0  0
 31 66  2  0  0  0  0
 32 67  1  0  0  0  0
 32 70  1  0  0  0  0
 33 71  1  0  0  0  0
 33 76  2  0  0  0  0
 34 48  1  0  0  0  0
 34 72  1  0  0  0  0
 34 77  2  0  0  0  0
 35 62  1  0  0  0  0
 35 68  1  0  0  0  0
 35 78  2  0  0  0  0
 36 63  1  0  0  0  0
 36 73  1  0  0  0  0
 36 79  2  0  0  0  0
 37 69  1  0  0  0  0
 37 74  1  0  0  0  0
 37 80  2  0  0  0  0
 38 41  1  0  0  0  0
 39 48  1  0  0  0  0
 40 68  1  0  0  0  0
 41 43  1  0  0  0  0
 42 44  1  0  0  0  0
 42 45  1  0  0  0  0
 43 47  1  0  0  0  0
 44 49  1  0  0  0  0
 45 69  1  0  0  0  0
 46 49  1  0  0  0  0
 46 69  1  0  0  0  0
 47 72  1  0  0  0  0
 48 68  1  0  0  0  0
 49 67  1  0  0  0  0
 51 63  1  0  0  0  0
 52 64  1  0  0  0  0
 53 64  1  0  0  0  0
 54 64  1  0  0  0  0
 55 74  1  0  0  0  0
 56 75  1  0  0  0  0
 57 59  1  0  0  0  0
 58 61  1  0  0  0  0
 59 60  1  0  0  0  0
 60 74  1  0  0  0  0
 61 82  1  0  0  0  0
 62 64  1  0  0  0  0
 62 73  1  0  0  0  0
 63 75  1  0  0  0  0
 65 67  1  0  0  0  0
M  CHG  1  75   1
M  ISO  4  37 100  61 101  74 100  82 101
M  END
> <Batch ID>
0049

> <Smiles>
CNC(C)C(=O)NC(C(=O)N1Cc2cc([101O:1][101CH2:1]Cc3cc(C)cc(CCC[100N:0](C)[100C:0](=O)N4CCCC(n5nc(-c6ccc(Oc7ccc(F)cc7F)cc6)c(C(N)=O)c5N)C4)n3)ccc2CC1C(=O)NC1CCCc2ccccc21)C(C)(C)C

> <Shape>
0.207

> <Color>
0.067

> <Negative vol penalty>
0.000

$$$$

  -OEChem-04052317293D

 82 90  0     1  0  0  0  0  0999 V2000
  -34.8117  -26.1632   13.3527 C   0  0  0  0  0  0  0  0  0  0  0  0
  -34.2983  -25.0652   14.0355 C   0  0  0  0  0  0  0  0  0  0  0  0
  -23.6775   -9.6347   21.2322 C   0  0  0  0  0  0  0  0  0  0  0  0
  -24.2867  -10.5398   23.3879 C   0  0  0  0  0  0  0  0  0  0  0  0
  -34.8037  -27.4218   13.9526 C   0  0  0  0  0  0  0  0  0  0  0  0
  -33.7775  -25.2250   15.3191 C   0  0  0  0  0  0  0  0  0  0  0  0
  -29.0481  -22.2074   17.7753 C   0  0  0  0  0  0  0  0  0  0  0  0
  -23.1157   -8.5220   21.8581 C   0  0  0  0  0  0  0  0  0  0  0  0
  -23.7248   -9.4270   24.0138 C   0  0  0  0  0  0  0  0  0  0  0  0
  -28.9788  -21.1083   18.6303 C   0  0  0  0  0  0  0  0  0  0  0  0
  -20.2525   -7.7621   23.4883 C   0  0  0  0  0  0  0  0  0  0  0  0
  -19.0019   -7.3318   23.0453 C   0  0  0  0  0  0  0  0  0  0  0  0
  -28.7746  -22.5969   20.5175 C   0  0  0  0  0  0  0  0  0  0  0  0
  -19.9464   -5.1854   22.4638 C   0  0  0  0  0  0  0  0  0  0  0  0
  -28.1701  -17.9647   22.6270 C   0  0  0  0  0  0  0  0  0  0  0  0
  -24.2630  -10.6436   21.9971 C   0  0  0  0  0  0  0  0  0  0  0  0
  -24.1996  -13.0017   21.0260 C   0  0  0  0  0  0  0  0  0  0  0  0
  -34.2738  -27.5988   15.2404 C   0  0  0  0  0  0  0  0  0  0  0  0
  -28.9921  -23.5118   18.2870 C   0  0  0  0  0  0  0  0  0  0  0  0
  -33.7637  -26.4868   15.9374 C   0  0  0  0  0  0  0  0  0  0  0  0
  -28.8409  -23.7108   19.6667 C   0  0  0  0  0  0  0  0  0  0  0  0
  -23.1393   -8.4181   23.2489 C   0  0  0  0  0  0  0  0  0  0  0  0
  -28.8449  -21.3030   20.0019 C   0  0  0  0  0  0  0  0  0  0  0  0
  -21.3502   -6.9041   23.4190 C   0  0  0  0  0  0  0  0  0  0  0  0
  -18.8488   -6.0434   22.5331 C   0  0  0  0  0  0  0  0  0  0  0  0
  -21.1971   -5.6158   22.9068 C   0  0  0  0  0  0  0  0  0  0  0  0
  -24.8441  -11.7931   21.3511 C   0  0  0  0  0  0  0  0  0  0  0  0
  -28.6139  -19.2064   22.9848 C   0  0  0  0  0  0  0  0  0  0  0  0
  -25.1765  -13.7625   20.4315 C   0  0  0  0  0  0  0  0  0  0  0  0
  -28.9441  -17.8431   24.6974 C   0  0  0  0  0  0  0  0  0  0  0  0
  -22.8397  -13.4010   21.2421 C   0  0  0  0  0  0  0  0  0  0  0  0
  -30.9685  -26.0012   18.3046 C   0  0  0  0  0  0  0  0  0  0  0  0
  -28.4279  -27.5130   19.6396 C   0  0  0  0  0  0  0  0  0  0  0  0
  -25.5155  -27.2780   21.4030 C   0  0  0  0  0  0  0  0  0  0  0  0
  -31.2580  -13.2447   20.9651 C   0  0  0  0  0  0  0  0  0  0  0  0
  -34.3301  -28.9698   15.8664 C   0  0  0  0  0  0  0  0  0  0  0  0
  -29.0413  -24.6865   17.3488 C   0  0  0  0  0  0  0  0  0  0  0  0
  -28.7556  -25.0907   20.2643 C   0  0  0  0  0  0  0  0  0  0  0  0
  -33.4185  -29.1226   17.0813 C   0  0  0  0  0  0  0  0  0  0  0  0
  -29.2046  -13.3849   17.8885 C   0  0  0  0  0  0  0  0  0  0  0  0
  -33.5732  -27.9288   18.0183 C   0  0  0  0  0  0  0  0  0  0  0  0
  -27.8116  -13.0228   18.4010 C   0  0  0  0  0  0  0  0  0  0  0  0
  -30.3033  -12.7584   18.7417 C   0  0  0  0  0  0  0  0  0  0  0  0
  -28.8003  -12.7113   20.7045 C   0  0  0  0  0  0  0  0  0  0  0  0
  -33.1676  -26.6244   17.3215 C   0  0  1  0  0  0  0  0  0  0  0  0
  -29.4917  -25.9758   18.0288 C   0  0  1  0  0  0  0  0  0  0  0  0
  -27.6705  -13.3648   19.8945 C   0  0  2  0  0  0  0  0  0  0  0  0
  -29.3395  -17.3369   26.0354 C   0  0  0  0  0  0  0  0  0  0  0  0
  -23.6817  -28.6888   22.3748 C   0  0  0  0  0  0  0  0  0  0  0  0
  -30.2805  -28.3494   21.9152 C   0  0  0  0  0  0  0  0  0  0  0  0
  -28.2503  -28.9043   23.2711 C   0  0  0  0  0  0  0  0  0  0  0  0
  -28.7025  -30.1308   21.1465 C   0  0  0  0  0  0  0  0  0  0  0  0
  -32.2955  -14.3567   22.9059 C   0  0  0  0  0  0  0  0  0  0  0  0
  -23.4590  -25.9631   19.7295 C   0  0  0  0  0  0  0  0  0  0  0  0
  -28.6407  -20.5044   22.2327 C   0  0  0  0  0  0  0  0  0  1  0  0
  -29.2660  -14.8053   23.5334 C   0  0  0  0  0  0  0  0  0  0  0  0
  -28.0610  -15.7295   23.7547 C   0  0  0  0  0  0  0  0  0  0  0  0
  -30.0273  -15.0555   22.2334 C   0  0  0  0  0  0  0  0  0  0  0  0
  -27.9298  -27.7255   21.0488 C   0  0  1  0  0  0  0  0  0  0  0  0
  -24.1444  -27.8859   21.1689 C   0  0  2  0  0  0  0  0  0  0  0  0
  -28.7943  -28.7514   21.8346 C   0  0  0  0  0  0  0  0  0  0  0  0
  -26.1307  -11.7821   20.9927 N   0  0  0  0  0  0  0  0  0  0  0  0
  -28.3870  -17.1410   23.7052 N   0  0  0  0  0  0  0  0  0  0  0  0
  -26.3026  -12.9932   20.4362 N   0  0  0  0  0  0  0  0  0  0  0  0
  -29.0872  -19.1019   24.2706 N   0  3  0  0  0  0  0  0  0  0  0  0
  -28.8147  -26.2072   19.3065 N   0  0  0  0  0  0  0  0  0  0  0  0
  -30.1207  -13.0633   20.1611 N   0  0  0  0  0  0  0  0  0  0  0  0
  -25.1733  -15.0079   19.9104 N   0  0  0  0  0  0  0  0  0  0  0  0
  -21.9692  -12.4974   21.8667 N   0  0  0  0  0  0  0  0  0  0  0  0
  -31.7261  -26.5081   17.2661 N   0  0  0  0  0  0  0  0  0  0  0  0
  -26.5229  -28.0939   20.9332 N   0  0  0  0  0  0  0  0  0  0  0  0
  -31.1404  -14.1267   22.0499 N   0  0  0  0  0  0  0  0  0  0  0  0
  -23.1416  -26.8158   20.9040 N   0  3  0  0  0  0  0  0  0  0  0  0
  -22.4050  -14.5196   20.8771 O   0  0  0  0  0  0  0  0  0  0  0  0
  -31.3893  -25.5927   19.3806 O   0  0  0  0  0  0  0  0  0  0  0  0
  -28.4655  -28.4690   18.8610 O   0  0  0  0  0  0  0  0  0  0  0  0
  -25.6770  -26.1900   21.9514 O   0  0  0  0  0  0  0  0  0  0  0  0
  -32.3210  -12.6593   20.7212 O   0  0  0  0  0  0  0  0  0  0  0  0
  -22.5910   -7.3326   23.8600 O   0  0  0  0  0  0  0  0  0  0  0  0
  -28.7777  -20.2319   20.8387 O   0  0  0  0  0  0  0  0  0  1  0  0
  -17.6474   -5.6298   22.1091 F   0  0  0  0  0  0  0  0  0  0  0  0
  -22.2477   -4.7866   22.8388 F   0  0  0  0  0  0  0  0  0  0  0  0
  1  2  1  0  0  0  0
  1  5  2  0  0  0  0
  2  6  2  0  0  0  0
  3  8  2  0  0  0  0
  3 16  1  0  0  0  0
  4  9  1  0  0  0  0
  4 16  2  0  0  0  0
  5 18  1  0  0  0  0
  6 20  1  0  0  0  0
  7 10  2  0  0  0  0
  7 19  1  0  0  0  0
  8 22  1  0  0  0  0
  9 22  2  0  0  0  0
 10 23  1  0  0  0  0
 11 12  2  0  0  0  0
 11 24  1  0  0  0  0
 12 25  1  0  0  0  0
 13 21  1  0  0  0  0
 13 23  2  0  0  0  0
 14 25  2  0  0  0  0
 14 26  1  0  0  0  0
 15 28  2  0  0  0  0
 15 63  1  0  0  0  0
 16 27  1  0  0  0  0
 17 27  1  0  0  0  0
 17 29  2  0  0  0  0
 17 31  1  0  0  0  0
 18 20  2  0  0  0  0
 18 36  1  0  0  0  0
 19 21  2  0  0  0  0
 19 37  1  0  0  0  0
 20 45  1  0  0  0  0
 21 38  1  0  0  0  0
 22 79  1  0  0  0  0
 23 80  1  0  0  0  0
 24 26  2  0  0  0  0
 24 79  1  0  0  0  0
 25 81  1  0  0  0  0
 26 82  1  0  0  0  0
 27 62  2  0  0  0  0
 28 55  1  0  0  0  0
 28 65  1  0  0  0  0
 29 64  1  0  0  0  0
 29 68  1  0  0  0  0
 30 48  1  0  0  0  0
 30 63  1  0  0  0  0
 30 65  2  0  0  0  0
 31 69  1  0  0  0  0
 31 74  2  0  0  0  0
 32 46  1  0  0  0  0
 32 70  1  0  0  0  0
 32 75  2  0  0  0  0
 33 59  1  0  0  0  0
 33 66  1  0  0  0  0
 33 76  2  0  0  0  0
 34 60  1  0  0  0  0
 34 71  1  0  0  0  0
 34 77  2  0  0  0  0
 35 67  1  0  0  0  0
 35 72  1  0  0  0  0
 35 78  2  0  0  0  0
 36 39  1  0  0  0  0
 37 46  1  0  0  0  0
 38 66  1  0  0  0  0
 39 41  1  0  0  0  0
 40 42  1  0  0  0  0
 40 43  1  0  0  0  0
 41 45  1  0  0  0  0
 42 47  1  0  0  0  0
 43 67  1  0  0  0  0
 44 47  1  0  0  0  0
 44 67  1  0  0  0  0
 45 70  1  0  0  0  0
 46 66  1  0  0  0  0
 47 64  1  0  0  0  0
 49 60  1  0  0  0  0
 50 61  1  0  0  0  0
 51 61  1  0  0  0  0
 52 61  1  0  0  0  0
 53 72  1  0  0  0  0
 54 73  1  0  0  0  0
 55 80  1  0  0  0  0
 56 57  1  0  0  0  0
 56 58  1  0  0  0  0
 57 63  1  0  0  0  0
 58 72  1  0  0  0  0
 59 61  1  0  0  0  0
 59 71  1  0  0  0  0
 60 73  1  0  0  0  0
 62 64  1  0  0  0  0
M  CHG  2  65   1  73   1
M  ISO  4  35 100  55 101  72 100  80 101
M  END
> <Batch ID>
0049

> <Smiles>
CNC(C)C(=O)NC(C(=O)N1Cc2cc([101O:1][101CH2:1]c3cn(CCC[100N:0](C)[100C:0](=O)N4CCCC(n5nc(-c6ccc(Oc7ccc(F)cc7F)cc6)c(C(N)=O)c5N)C4)c(C)n3)ccc2CC1C(=O)NC1CCCc2ccccc21)C(C)(C)C

> <Shape>
0.261

> <Color>
0.144

> <Negative vol penalty>
0.000

$$$$

  -OEChem-04052317293D

 87 95  0     1  0  0  0  0  0999 V2000
  -24.1172  -15.3102   24.4512 C   0  0  0  0  0  0  0  0  0  0  0  0
  -24.7719  -16.5368   24.4047 C   0  0  0  0  0  0  0  0  0  0  0  0
  -25.6886  -13.6754   21.1333 C   0  0  0  0  0  0  0  0  0  0  0  0
  -25.7751  -13.7719   18.7208 C   0  0  0  0  0  0  0  0  0  0  0  0
  -23.0612  -15.0514   23.5784 C   0  0  0  0  0  0  0  0  0  0  0  0
  -24.3718  -17.5050   23.4845 C   0  0  0  0  0  0  0  0  0  0  0  0
  -24.3855  -23.5762   24.2881 C   0  0  0  0  0  0  0  0  0  0  0  0
  -24.6495  -12.7478   21.0589 C   0  0  0  0  0  0  0  0  0  0  0  0
  -24.7360  -12.8444   18.6464 C   0  0  0  0  0  0  0  0  0  0  0  0
  -25.2832  -24.5713   23.9036 C   0  0  0  0  0  0  0  0  0  0  0  0
  -22.2170  -10.0829   21.5021 C   0  0  0  0  0  0  0  0  0  0  0  0
  -22.2836   -8.9663   22.3354 C   0  0  0  0  0  0  0  0  0  0  0  0
  -23.9433  -25.0159   21.9476 C   0  0  0  0  0  0  0  0  0  0  0  0
  -30.2168  -25.7102   17.1323 C   0  0  0  0  0  0  0  0  0  0  0  0
  -30.1124  -27.5952   18.6224 C   0  0  0  0  0  0  0  0  0  0  0  0
  -24.3692   -8.3192   21.3017 C   0  0  0  0  0  0  0  0  0  0  0  0
  -26.2514  -14.1875   19.9642 C   0  0  0  0  0  0  0  0  0  0  0  0
  -28.7053  -14.8751   20.0790 C   0  0  0  0  0  0  0  0  0  0  0  0
  -22.6416  -16.0206   22.6535 C   0  0  0  0  0  0  0  0  0  0  0  0
  -23.2639  -23.2856   23.4982 C   0  0  0  0  0  0  0  0  0  0  0  0
  -23.3100  -17.2585   22.5976 C   0  0  0  0  0  0  0  0  0  0  0  0
  -23.0315  -24.0185   22.3255 C   0  0  0  0  0  0  0  0  0  0  0  0
  -29.9840  -27.0646   17.3436 C   0  0  0  0  0  0  0  0  0  0  0  0
  -24.1732  -12.3323   19.8155 C   0  0  0  0  0  0  0  0  0  0  0  0
  -25.0638  -25.2893   22.7317 C   0  0  0  0  0  0  0  0  0  0  0  0
  -23.2265  -10.3176   20.5685 C   0  0  0  0  0  0  0  0  0  0  0  0
  -23.3596   -8.0844   22.2352 C   0  0  0  0  0  0  0  0  0  0  0  0
  -24.3026   -9.4358   20.4684 C   0  0  0  0  0  0  0  0  0  0  0  0
  -27.3244  -15.1461   20.0404 C   0  0  0  0  0  0  0  0  0  0  0  0
  -30.5727  -24.9353   18.2243 C   0  0  0  0  0  0  0  0  0  0  0  0
  -30.4728  -26.7358   19.6477 C   0  0  0  0  0  0  0  0  0  0  0  0
  -29.2963  -16.1129   20.1489 C   0  0  0  0  0  0  0  0  0  0  0  0
  -29.3923  -13.6169   20.0537 C   0  0  0  0  0  0  0  0  0  0  0  0
  -22.2372  -20.7278   21.9148 C   0  0  0  0  0  0  0  0  0  0  0  0
  -19.6088  -22.5658   21.4293 C   0  0  0  0  0  0  0  0  0  0  0  0
  -18.2545  -25.6926   21.2413 C   0  0  0  0  0  0  0  0  0  0  0  0
  -29.7457  -21.2756   18.3905 C   0  0  0  0  0  0  0  0  0  0  0  0
  -21.5260  -15.6775   21.6983 C   0  0  0  0  0  0  0  0  0  0  0  0
  -22.2907  -22.2275   23.9406 C   0  0  0  0  0  0  0  0  0  0  0  0
  -21.8316  -23.7590   21.4529 C   0  0  0  0  0  0  0  0  0  0  0  0
  -20.9197  -16.8961   21.0070 C   0  0  0  0  0  0  0  0  0  0  0  0
  -27.2873  -20.6809   20.9789 C   0  0  0  0  0  0  0  0  0  0  0  0
  -22.0191  -17.8148   20.4834 C   0  0  0  0  0  0  0  0  0  0  0  0
  -27.1944  -19.1540   20.9652 C   0  0  0  0  0  0  0  0  0  0  0  0
  -27.4648  -21.2366   19.5690 C   0  0  0  0  0  0  0  0  0  0  0  0
  -28.5404  -19.1518   18.8139 C   0  0  0  0  0  0  0  0  0  0  0  0
  -22.8890  -18.3435   21.6302 C   0  0  1  0  0  0  0  0  0  0  0  0
  -21.4575  -21.6648   22.7933 C   0  0  1  0  0  0  0  0  0  0  0  0
  -28.3828  -18.5271   20.2121 C   0  0  2  0  0  0  0  0  0  0  0  0
  -27.6840  -28.9365   14.8714 C   0  0  0  0  0  0  0  0  0  0  0  0
  -16.0886  -26.8775   20.7917 C   0  0  0  0  0  0  0  0  0  0  0  0
  -19.9336  -22.0218   18.4446 C   0  0  0  0  0  0  0  0  0  0  0  0
  -18.3863  -23.9387   17.9979 C   0  0  0  0  0  0  0  0  0  0  0  0
  -17.5729  -21.9512   19.2670 C   0  0  0  0  0  0  0  0  0  0  0  0
  -18.2295  -26.9145   23.9368 C   0  0  0  0  0  0  0  0  0  0  0  0
  -29.5991  -27.9449   16.2031 C   0  0  0  0  0  0  0  0  0  0  0  0
  -30.8319  -23.4780   18.0347 C   0  0  0  0  0  0  0  0  0  0  0  0
  -28.0760  -28.0117   16.0129 C   0  0  0  0  0  0  0  0  0  0  0  0
  -28.1937  -26.7719   21.7097 C   0  0  0  0  0  0  0  0  0  0  0  0
  -29.6739  -26.6152   22.0585 C   0  0  0  0  0  0  0  0  0  0  0  0
  -27.3020  -26.0931   22.7410 C   0  0  0  0  0  0  0  0  0  1  0  0
  -19.1781  -23.5586   20.3768 C   0  0  1  0  0  0  0  0  0  0  0  0
  -16.9994  -26.2854   21.8560 C   0  0  2  0  0  0  0  0  0  0  0  0
  -30.6197  -27.2769   21.0489 C   0  0  0  0  0  0  0  0  0  0  0  0
  -18.7914  -22.8714   19.0368 C   0  0  0  0  0  0  0  0  0  0  0  0
  -27.0541  -16.4534   20.0826 N   0  0  0  0  0  0  0  0  0  0  0  0
  -30.7073  -25.4148   19.4811 N   0  0  0  0  0  0  0  0  0  0  0  0
  -28.2733  -17.0150   20.1484 N   0  0  0  0  0  0  0  0  0  0  0  0
  -20.9125  -22.7102   21.9247 N   0  0  0  0  0  0  0  0  0  0  0  0
  -28.6233  -20.6127   18.9141 N   0  0  0  0  0  0  0  0  0  0  0  0
  -30.5861  -16.5069   20.2102 N   0  0  0  0  0  0  0  0  0  0  0  0
  -28.6320  -12.4418   19.9801 N   0  0  0  0  0  0  0  0  0  0  0  0
  -22.2074  -19.4105   22.3311 N   0  0  0  0  0  0  0  0  0  0  0  0
  -18.1066  -24.3480   20.9745 N   0  0  0  0  0  0  0  0  0  0  0  0
  -29.7432  -22.6591   18.5197 N   0  0  0  0  0  0  0  0  0  0  0  0
  -17.3549  -27.3625   22.8226 N   0  3  0  0  0  0  0  0  0  0  0  0
  -30.6428  -13.5364   20.1117 O   0  0  0  0  0  0  0  0  0  0  0  0
  -22.8214  -21.1671   20.9312 O   0  0  0  0  0  0  0  0  0  0  0  0
  -18.8153  -21.6986   21.8035 O   0  0  0  0  0  0  0  0  0  0  0  0
  -19.2639  -26.3569   21.0167 O   0  0  0  0  0  0  0  0  0  0  0  0
  -30.6838  -20.6781   17.8520 O   0  0  0  0  0  0  0  0  0  0  0  0
  -23.1594  -11.4270   19.7425 O   0  0  0  0  0  0  0  0  0  0  0  0
  -25.9388  -26.2606   22.3538 O   0  0  0  0  0  0  0  0  0  1  0  0
  -23.4242   -7.0130   23.0365 F   0  0  0  0  0  0  0  0  0  0  0  0
  -25.2761   -9.6566   19.5742 F   0  0  0  0  0  0  0  0  0  0  0  0
  -30.4225  -28.6275   21.1174 F   0  0  0  0  0  0  0  0  0  0  0  0
  -31.8931  -27.0906   21.5154 F   0  0  0  0  0  0  0  0  0  0  0  0
  1  2  1  0  0  0  0
  1  5  2  0  0  0  0
  2  6  2  0  0  0  0
  3  8  2  0  0  0  0
  3 17  1  0  0  0  0
  4  9  1  0  0  0  0
  4 17  2  0  0  0  0
  5 19  1  0  0  0  0
  6 21  1  0  0  0  0
  7 10  2  0  0  0  0
  7 20  1  0  0  0  0
  8 24  1  0  0  0  0
  9 24  2  0  0  0  0
 10 25  1  0  0  0  0
 11 12  2  0  0  0  0
 11 26  1  0  0  0  0
 12 27  1  0  0  0  0
 13 22  1  0  0  0  0
 13 25  2  0  0  0  0
 14 23  1  0  0  0  0
 14 30  2  0  0  0  0
 15 23  2  0  0  0  0
 15 31  1  0  0  0  0
 16 27  2  0  0  0  0
 16 28  1  0  0  0  0
 17 29  1  0  0  0  0
 18 29  1  0  0  0  0
 18 32  2  0  0  0  0
 18 33  1  0  0  0  0
 19 21  2  0  0  0  0
 19 38  1  0  0  0  0
 20 22  2  0  0  0  0
 20 39  1  0  0  0  0
 21 47  1  0  0  0  0
 22 40  1  0  0  0  0
 23 56  1  0  0  0  0
 24 82  1  0  0  0  0
 25 83  1  0  0  0  0
 26 28  2  0  0  0  0
 26 82  1  0  0  0  0
 27 84  1  0  0  0  0
 28 85  1  0  0  0  0
 29 66  2  0  0  0  0
 30 57  1  0  0  0  0
 30 67  1  0  0  0  0
 31 64  1  0  0  0  0
 31 67  2  0  0  0  0
 32 68  1  0  0  0  0
 32 71  1  0  0  0  0
 33 72  1  0  0  0  0
 33 77  2  0  0  0  0
 34 48  1  0  0  0  0
 34 73  1  0  0  0  0
 34 78  2  0  0  0  0
 35 62  1  0  0  0  0
 35 69  1  0  0  0  0
 35 79  2  0  0  0  0
 36 63  1  0  0  0  0
 36 74  1  0  0  0  0
 36 80  2  0  0  0  0
 37 70  1  0  0  0  0
 37 75  1  0  0  0  0
 37 81  2  0  0  0  0
 38 41  1  0  0  0  0
 39 48  1  0  0  0  0
 40 69  1  0  0  0  0
 41 43  1  0  0  0  0
 42 44  1  0  0  0  0
 42 45  1  0  0  0  0
 43 47  1  0  0  0  0
 44 49  1  0  0  0  0
 45 70  1  0  0  0  0
 46 49  1  0  0  0  0
 46 70  1  0  0  0  0
 47 73  1  0  0  0  0
 48 69  1  0  0  0  0
 49 68  1  0  0  0  0
 50 58  1  0  0  0  0
 51 63  1  0  0  0  0
 52 65  1  0  0  0  0
 53 65  1  0  0  0  0
 54 65  1  0  0  0  0
 55 76  1  0  0  0  0
 56 58  1  0  0  0  0
 57 75  1  0  0  0  0
 59 60  1  0  0  0  0
 59 61  1  0  0  0  0
 60 64  1  0  0  0  0
 61 83  1  0  0  0  0
 62 65  1  0  0  0  0
 62 74  1  0  0  0  0
 63 76  1  0  0  0  0
 64 86  1  0  0  0  0
 64 87  1  0  0  0  0
 66 68  1  0  0  0  0
M  CHG  1  76   1
M  ISO  4  37 100  61 101  75 100  83 101
M  END
> <Batch ID>
0049

> <Smiles>
CCCc1cc(C[100NH:0][100C:0](=O)N2CCCC(n3nc(-c4ccc(Oc5ccc(F)cc5F)cc4)c(C(N)=O)c3N)C2)nc(C(F)(F)CC[101CH2:1][101O:1]c2ccc3c(c2)CN(C(=O)C(NC(=O)C(C)NC)C(C)(C)C)C(C(=O)NC2CCCc4ccccc42)C3)c1

> <Shape>
0.205

> <Color>
0.049

> <Negative vol penalty>
0.000

$$$$

  -OEChem-04052317293D

 82 90  0     1  0  0  0  0  0999 V2000
  -32.7847  -27.6975   23.6309 C   0  0  0  0  0  0  0  0  0  0  0  0
  -31.9322  -28.2117   22.6605 C   0  0  0  0  0  0  0  0  0  0  0  0
  -25.7451  -14.2929   21.3069 C   0  0  0  0  0  0  0  0  0  0  0  0
  -25.1548  -14.8803   19.0389 C   0  0  0  0  0  0  0  0  0  0  0  0
  -32.2826  -26.8490   24.6154 C   0  0  0  0  0  0  0  0  0  0  0  0
  -30.5753  -27.8873   22.6812 C   0  0  0  0  0  0  0  0  0  0  0  0
  -27.6677  -30.2307   19.4784 C   0  0  0  0  0  0  0  0  0  0  0  0
  -24.7123  -13.3558   21.3330 C   0  0  0  0  0  0  0  0  0  0  0  0
  -24.1220  -13.9431   19.0650 C   0  0  0  0  0  0  0  0  0  0  0  0
  -27.6887  -29.9680   18.1094 C   0  0  0  0  0  0  0  0  0  0  0  0
  -24.1623  -10.2224   20.1874 C   0  0  0  0  0  0  0  0  0  0  0  0
  -24.4431   -8.9629   20.7168 C   0  0  0  0  0  0  0  0  0  0  0  0
  -25.6443  -28.7061   18.3263 C   0  0  0  0  0  0  0  0  0  0  0  0
  -22.7415   -9.2912   22.4002 C   0  0  0  0  0  0  0  0  0  0  0  0
  -28.4679  -25.7988   17.0563 C   0  0  0  0  0  0  0  0  0  0  0  0
  -30.0969  -24.5829   16.2051 C   0  0  0  0  0  0  0  0  0  0  0  0
  -25.9664  -15.0552   20.1598 C   0  0  0  0  0  0  0  0  0  0  0  0
  -28.3648  -15.8105   19.7303 C   0  0  0  0  0  0  0  0  0  0  0  0
  -30.9211  -26.5045   24.6401 C   0  0  0  0  0  0  0  0  0  0  0  0
  -26.6390  -29.7231   20.2849 C   0  0  0  0  0  0  0  0  0  0  0  0
  -30.0450  -27.0517   23.6808 C   0  0  0  0  0  0  0  0  0  0  0  0
  -25.6112  -28.9660   19.7049 C   0  0  0  0  0  0  0  0  0  0  0  0
  -23.9008  -13.1809   20.2121 C   0  0  0  0  0  0  0  0  0  0  0  0
  -26.6785  -29.2031   17.5336 C   0  0  0  0  0  0  0  0  0  0  0  0
  -23.1712  -11.0164   20.7644 C   0  0  0  0  0  0  0  0  0  0  0  0
  -23.7327   -8.4973   21.8232 C   0  0  0  0  0  0  0  0  0  0  0  0
  -22.4608  -10.5508   21.8708 C   0  0  0  0  0  0  0  0  0  0  0  0
  -27.0327  -16.0239   20.1324 C   0  0  0  0  0  0  0  0  0  0  0  0
  -28.4312  -25.8002   15.6818 C   0  0  0  0  0  0  0  0  0  0  0  0
  -28.9711  -17.0328   19.8881 C   0  0  0  0  0  0  0  0  0  0  0  0
  -28.9976  -14.6144   19.2563 C   0  0  0  0  0  0  0  0  0  0  0  0
  -26.5025  -27.7257   22.7538 C   0  0  0  0  0  0  0  0  0  0  0  0
  -28.9066  -22.4807   19.1175 C   0  0  0  0  0  0  0  0  0  0  0  0
  -23.3792  -28.6009   22.7893 C   0  0  0  0  0  0  0  0  0  0  0  0
  -20.6939  -29.8256   21.0757 C   0  0  0  0  0  0  0  0  0  0  0  0
  -30.4297  -25.5883   25.7329 C   0  0  0  0  0  0  0  0  0  0  0  0
  -26.6164  -30.0380   21.7555 C   0  0  0  0  0  0  0  0  0  0  0  0
  -24.4733  -28.4149   20.5235 C   0  0  0  0  0  0  0  0  0  0  0  0
  -29.0806  -24.9524   25.4136 C   0  0  0  0  0  0  0  0  0  0  0  0
  -27.3702  -21.2428   22.1727 C   0  0  0  0  0  0  0  0  0  0  0  0
  -28.0961  -26.0208   24.9622 C   0  0  0  0  0  0  0  0  0  0  0  0
  -27.2292  -19.7533   21.8620 C   0  0  0  0  0  0  0  0  0  0  0  0
  -27.1615  -22.0984   20.9259 C   0  0  0  0  0  0  0  0  0  0  0  0
  -27.9161  -20.2417   19.4740 C   0  0  0  0  0  0  0  0  0  0  0  0
  -28.5712  -26.6882   23.6654 C   0  0  1  0  0  0  0  0  0  0  0  0
  -25.7974  -29.0395   22.5678 C   0  0  1  0  0  0  0  0  0  0  0  0
  -28.1496  -19.3424   20.6994 C   0  0  2  0  0  0  0  0  0  0  0  0
  -31.5640  -26.7357   18.7951 C   0  0  0  0  0  0  0  0  0  0  0  0
  -18.2664  -30.3935   21.3624 C   0  0  0  0  0  0  0  0  0  0  0  0
  -22.6760  -25.6334   22.6923 C   0  0  0  0  0  0  0  0  0  0  0  0
  -20.3494  -26.2778   22.0289 C   0  0  0  0  0  0  0  0  0  0  0  0
  -21.2569  -26.9918   24.2401 C   0  0  0  0  0  0  0  0  0  0  0  0
  -21.1634  -32.6735   20.4216 C   0  0  0  0  0  0  0  0  0  0  0  0
  -27.4525  -26.5030   14.7753 C   0  0  0  0  0  0  0  0  0  0  0  0
  -28.9403  -23.9354   19.5133 C   0  0  0  0  0  0  0  0  0  0  0  0
  -30.4452  -25.9637   19.4847 C   0  0  0  0  0  0  0  0  0  0  0  0
  -27.8832  -27.9178   14.3825 C   0  0  0  0  0  0  0  0  0  0  0  0
  -27.9753  -28.8718   15.5678 C   0  0  0  0  0  0  0  0  0  1  0  0
  -22.1186  -28.0916   22.1330 C   0  0  1  0  0  0  0  0  0  0  0  0
  -19.6937  -30.9157   21.4160 C   0  0  2  0  0  0  0  0  0  0  0  0
  -30.0042  -24.7040   18.7068 C   0  0  2  0  0  0  0  0  0  0  0  0
  -21.6226  -26.7573   22.7582 C   0  0  0  0  0  0  0  0  0  0  0  0
  -29.4477  -25.0413   15.1581 N   0  0  0  0  0  0  0  0  0  0  0  0
  -26.8055  -17.2826   20.5170 N   0  0  0  0  0  0  0  0  0  0  0  0
  -29.5400  -25.0144   17.3768 N   0  0  0  0  0  0  0  0  0  0  0  0
  -28.0031  -17.8712   20.3573 N   0  0  0  0  0  0  0  0  0  0  0  0
  -24.4991  -28.7448   21.9581 N   0  0  0  0  0  0  0  0  0  0  0  0
  -28.0368  -21.6577   19.8331 N   0  0  0  0  0  0  0  0  0  0  0  0
  -30.2325  -17.4614   19.6701 N   0  0  0  0  0  0  0  0  0  0  0  0
  -28.2288  -13.4470   19.1548 N   0  0  0  0  0  0  0  0  0  0  0  0
  -27.7274  -27.8290   23.3850 N   0  0  0  0  0  0  0  0  0  0  0  0
  -21.1515  -29.1815   22.2057 N   0  0  0  0  0  0  0  0  0  0  0  0
  -19.8159  -32.0489   20.4558 N   0  3  0  0  0  0  0  0  0  0  0  0
  -30.2130  -14.5779   18.9479 O   0  0  0  0  0  0  0  0  0  0  0  0
  -25.9736  -26.6945   22.3555 O   0  0  0  0  0  0  0  0  0  0  0  0
  -29.6344  -22.0891   18.2015 O   0  0  0  0  0  0  0  0  0  0  0  0
  -23.3684  -28.8683   23.9935 O   0  0  0  0  0  0  0  0  0  0  0  0
  -21.0323  -29.5684   19.9225 O   0  0  0  0  0  0  0  0  0  0  0  0
  -22.8931  -12.2663   20.2371 O   0  0  0  0  0  0  0  0  0  0  0  0
  -26.6969  -28.9446   16.1977 O   0  0  0  0  0  0  0  0  0  1  0  0
  -24.0014   -7.2871   22.3305 F   0  0  0  0  0  0  0  0  0  0  0  0
  -21.5066  -11.3085   22.4287 F   0  0  0  0  0  0  0  0  0  0  0  0
  1  2  1  0  0  0  0
  1  5  2  0  0  0  0
  2  6  2  0  0  0  0
  3  8  2  0  0  0  0
  3 17  1  0  0  0  0
  4  9  1  0  0  0  0
  4 17  2  0  0  0  0
  5 19  1  0  0  0  0
  6 21  1  0  0  0  0
  7 10  2  0  0  0  0
  7 20  1  0  0  0  0
  8 23  1  0  0  0  0
  9 23  2  0  0  0  0
 10 24  1  0  0  0  0
 11 12  2  0  0  0  0
 11 25  1  0  0  0  0
 12 26  1  0  0  0  0
 13 22  1  0  0  0  0
 13 24  2  0  0  0  0
 14 26  2  0  0  0  0
 14 27  1  0  0  0  0
 15 29  2  0  0  0  0
 15 65  1  0  0  0  0
 16 63  2  0  0  0  0
 16 65  1  0  0  0  0
 17 28  1  0  0  0  0
 18 28  1  0  0  0  0
 18 30  2  0  0  0  0
 18 31  1  0  0  0  0
 19 21  2  0  0  0  0
 19 36  1  0  0  0  0
 20 22  2  0  0  0  0
 20 37  1  0  0  0  0
 21 45  1  0  0  0  0
 22 38  1  0  0  0  0
 23 79  1  0  0  0  0
 24 80  1  0  0  0  0
 25 27  2  0  0  0  0
 25 79  1  0  0  0  0
 26 81  1  0  0  0  0
 27 82  1  0  0  0  0
 28 64  2  0  0  0  0
 29 54  1  0  0  0  0
 29 63  1  0  0  0  0
 30 66  1  0  0  0  0
 30 69  1  0  0  0  0
 31 70  1  0  0  0  0
 31 74  2  0  0  0  0
 32 46  1  0  0  0  0
 32 71  1  0  0  0  0
 32 75  2  0  0  0  0
 33 55  1  0  0  0  0
 33 68  1  0  0  0  0
 33 76  2  0  0  0  0
 34 59  1  0  0  0  0
 34 67  1  0  0  0  0
 34 77  2  0  0  0  0
 35 60  1  0  0  0  0
 35 72  1  0  0  0  0
 35 78  2  0  0  0  0
 36 39  1  0  0  0  0
 37 46  1  0  0  0  0
 38 67  1  0  0  0  0
 39 41  1  0  0  0  0
 40 42  1  0  0  0  0
 40 43  1  0  0  0  0
 41 45  1  0  0  0  0
 42 47  1  0  0  0  0
 43 68  1  0  0  0  0
 44 47  1  0  0  0  0
 44 68  1  0  0  0  0
 45 71  1  0  0  0  0
 46 67  1  0  0  0  0
 47 66  1  0  0  0  0
 48 56  1  0  0  0  0
 49 60  1  0  0  0  0
 50 62  1  0  0  0  0
 51 62  1  0  0  0  0
 52 62  1  0  0  0  0
 53 73  1  0  0  0  0
 54 57  1  0  0  0  0
 55 61  1  0  0  0  0
 56 61  1  0  0  0  0
 57 58  1  0  0  0  0
 58 80  1  0  0  0  0
 59 62  1  0  0  0  0
 59 72  1  0  0  0  0
 60 73  1  0  0  0  0
 61 65  1  0  0  0  0
 64 66  1  0  0  0  0
M  CHG  1  73   1
M  ISO  4  33 100  55 100  58 101  80 101
M  END
> <Batch ID>
0049

> <Smiles>
CCC([100CH2:0][100C:0](=O)N1CCCC(n2nc(-c3ccc(Oc4ccc(F)cc4F)cc3)c(C(N)=O)c2N)C1)n1cnc(CC[101CH2:1][101O:1]c2ccc3c(c2)CN(C(=O)C(NC(=O)C(C)NC)C(C)(C)C)C(C(=O)NC2CCCc4ccccc42)C3)c1

> <Shape>
0.234

> <Color>
0.071

> <Negative vol penalty>
0.000

$$$$

  -OEChem-04052317292D

  0  0  0     0  0  0  0  0  0999 V2000
M  END
$$$$

  -OEChem-04052317293D

 81 89  0     1  0  0  0  0  0999 V2000
  -19.7549   -9.6065   21.9550 C   0  0  0  0  0  0  0  0  0  0  0  0
  -20.3379  -10.7118   22.5662 C   0  0  0  0  0  0  0  0  0  0  0  0
  -27.5193  -29.8015   19.2108 C   0  0  0  0  0  0  0  0  0  0  0  0
  -26.2556  -28.9520   21.0865 C   0  0  0  0  0  0  0  0  0  0  0  0
  -20.5475   -8.7038   21.2472 C   0  0  0  0  0  0  0  0  0  0  0  0
  -21.7143  -10.9146   22.4710 C   0  0  0  0  0  0  0  0  0  0  0  0
  -22.9009  -15.7215   21.4080 C   0  0  0  0  0  0  0  0  0  0  0  0
  -26.4780  -30.6781   18.9061 C   0  0  0  0  0  0  0  0  0  0  0  0
  -25.2142  -29.8286   20.7819 C   0  0  0  0  0  0  0  0  0  0  0  0
  -22.8458  -16.6379   22.4573 C   0  0  0  0  0  0  0  0  0  0  0  0
  -22.6666  -29.9962   18.5654 C   0  0  0  0  0  0  0  0  0  0  0  0
  -21.3670  -29.4900   18.5839 C   0  0  0  0  0  0  0  0  0  0  0  0
  -25.2408  -16.4895   22.7046 C   0  0  0  0  0  0  0  0  0  0  0  0
  -20.7715  -31.0814   20.3013 C   0  0  0  0  0  0  0  0  0  0  0  0
  -23.5084  -22.1587   22.3689 C   0  0  0  0  0  0  0  0  0  0  0  0
  -23.6530  -22.3219   21.0201 C   0  0  0  0  0  0  0  0  0  0  0  0
  -27.4081  -28.9384   20.3009 C   0  0  0  0  0  0  0  0  0  0  0  0
  -29.5793  -28.2761   21.4649 C   0  0  0  0  0  0  0  0  0  0  0  0
  -21.9328   -8.9008   21.1351 C   0  0  0  0  0  0  0  0  0  0  0  0
  -24.1272  -15.1731   21.0057 C   0  0  0  0  0  0  0  0  0  0  0  0
  -22.5263  -10.0130   21.7622 C   0  0  0  0  0  0  0  0  0  0  0  0
  -25.3091  -15.5683   21.6483 C   0  0  0  0  0  0  0  0  0  0  0  0
  -25.3254  -30.6917   19.6917 C   0  0  0  0  0  0  0  0  0  0  0  0
  -24.0155  -17.0199   23.1077 C   0  0  0  0  0  0  0  0  0  0  0  0
  -23.0187  -31.0450   19.4150 C   0  0  0  0  0  0  0  0  0  0  0  0
  -20.4195  -30.0326   19.4518 C   0  0  0  0  0  0  0  0  0  0  0  0
  -22.0712  -31.5877   20.2829 C   0  0  0  0  0  0  0  0  0  0  0  0
  -28.4832  -28.0323   20.6158 C   0  0  0  0  0  0  0  0  0  0  0  0
  -30.3071  -27.1118   21.4290 C   0  0  0  0  0  0  0  0  0  0  0  0
  -25.1621  -20.8500   21.6959 C   0  0  0  0  0  0  0  0  0  0  0  0
  -29.9100  -29.4500   22.2188 C   0  0  0  0  0  0  0  0  0  0  0  0
  -25.3482  -12.2400   20.9076 C   0  0  0  0  0  0  0  0  0  0  0  0
  -27.8042  -13.7334   19.4043 C   0  0  0  0  0  0  0  0  0  0  0  0
  -29.5326  -16.6229   18.8469 C   0  0  0  0  0  0  0  0  0  0  0  0
  -28.8470  -21.4253   20.2528 C   0  0  0  0  0  0  0  0  0  0  0  0
  -22.7551   -7.8724   20.3996 C   0  0  0  0  0  0  0  0  0  0  0  0
  -24.1728  -14.2060   19.8545 C   0  0  0  0  0  0  0  0  0  0  0  0
  -26.6532  -15.0242   21.2412 C   0  0  0  0  0  0  0  0  0  0  0  0
  -24.1532   -8.3613   20.0301 C   0  0  0  0  0  0  0  0  0  0  0  0
  -31.2921  -23.3982   18.5777 C   0  0  0  0  0  0  0  0  0  0  0  0
  -24.8115   -9.0471   21.2231 C   0  0  0  0  0  0  0  0  0  0  0  0
  -30.9484  -24.8316   18.9867 C   0  0  0  0  0  0  0  0  0  0  0  0
  -30.0373  -22.5478   18.3928 C   0  0  0  0  0  0  0  0  0  0  0  0
  -28.7739  -23.9753   19.9548 C   0  0  0  0  0  0  0  0  0  0  0  0
  -24.0123  -10.2805   21.6605 C   0  0  1  0  0  0  0  0  0  0  0  0
  -25.4155  -13.3212   19.8664 C   0  0  1  0  0  0  0  0  0  0  0  0
  -30.0092  -24.8564   20.2076 C   0  0  2  0  0  0  0  0  0  0  0  0
  -31.5160  -17.5227   17.6004 C   0  0  0  0  0  0  0  0  0  0  0  0
  -29.6684  -12.4688   21.4623 C   0  0  0  0  0  0  0  0  0  0  0  0
  -31.4275  -14.1129   20.7764 C   0  0  0  0  0  0  0  0  0  0  0  0
  -30.5461  -12.4686   19.1206 C   0  0  0  0  0  0  0  0  0  0  0  0
  -27.8492  -18.4863   17.2807 C   0  0  0  0  0  0  0  0  0  0  0  0
  -26.2791  -19.8732   21.6798 C   0  0  0  0  0  0  0  0  0  0  0  0
  -23.4027  -20.1481   24.8022 C   0  0  0  0  0  0  0  0  0  0  0  0
  -24.6584  -20.7552   24.1727 C   0  0  0  0  0  0  0  0  0  0  0  0
  -27.6154  -20.4488   22.1734 C   0  0  0  0  0  0  0  0  0  0  0  0
  -22.9215  -18.8868   24.0944 C   0  0  0  0  0  0  0  0  0  1  0  0
  -29.0844  -14.3984   19.8494 C   0  0  1  0  0  0  0  0  0  0  0  0
  -30.0157  -17.2763   17.5647 C   0  0  2  0  0  0  0  0  0  0  0  0
  -30.1562  -13.3711   20.3114 C   0  0  0  0  0  0  0  0  0  0  0  0
  -28.5085  -26.8093   20.0795 N   0  0  0  0  0  0  0  0  0  0  0  0
  -24.4544  -21.2422   22.7603 N   0  0  0  0  0  0  0  0  0  0  0  0
  -29.6293  -26.2742   20.5928 N   0  0  0  0  0  0  0  0  0  0  0  0
  -24.6833  -21.5006   20.6305 N   0  3  0  0  0  0  0  0  0  0  0  0
  -26.6450  -14.0768   20.1143 N   0  0  0  0  0  0  0  0  0  0  0  0
  -29.1905  -22.6131   19.5864 N   0  0  0  0  0  0  0  0  0  0  0  0
  -31.4543  -26.7331   22.0313 N   0  0  0  0  0  0  0  0  0  0  0  0
  -29.0534  -30.5566   22.1420 N   0  0  0  0  0  0  0  0  0  0  0  0
  -24.2672  -11.3906   20.7677 N   0  0  0  0  0  0  0  0  0  0  0  0
  -29.5092  -15.2482   18.7423 N   0  0  0  0  0  0  0  0  0  0  0  0
  -28.0468  -21.5771   21.3786 N   0  0  0  0  0  0  0  0  0  0  0  0
  -29.3295  -18.5831   17.3588 N   0  3  0  0  0  0  0  0  0  0  0  0
  -30.9433  -29.5214   22.9263 O   0  0  0  0  0  0  0  0  0  0  0  0
  -26.2138  -12.1798   21.7729 O   0  0  0  0  0  0  0  0  0  0  0  0
  -27.8306  -12.9440   18.4568 O   0  0  0  0  0  0  0  0  0  0  0  0
  -29.2117  -17.2674   19.8430 O   0  0  0  0  0  0  0  0  0  0  0  0
  -29.2297  -20.3125   19.8758 O   0  0  0  0  0  0  0  0  0  0  0  0
  -24.3092  -31.5470   19.3949 O   0  0  0  0  0  0  0  0  0  0  0  0
  -23.9645  -17.9137   24.1326 O   0  0  0  0  0  0  0  0  0  1  0  0
  -19.1711  -29.5474   19.4683 F   0  0  0  0  0  0  0  0  0  0  0  0
  -22.4032  -32.5961   21.1005 F   0  0  0  0  0  0  0  0  0  0  0  0
  1  2  1  0  0  0  0
  1  5  2  0  0  0  0
  2  6  2  0  0  0  0
  3  8  2  0  0  0  0
  3 17  1  0  0  0  0
  4  9  1  0  0  0  0
  4 17  2  0  0  0  0
  5 19  1  0  0  0  0
  6 21  1  0  0  0  0
  7 10  2  0  0  0  0
  7 20  1  0  0  0  0
  8 23  1  0  0  0  0
  9 23  2  0  0  0  0
 10 24  1  0  0  0  0
 11 12  2  0  0  0  0
 11 25  1  0  0  0  0
 12 26  1  0  0  0  0
 13 22  1  0  0  0  0
 13 24  2  0  0  0  0
 14 26  2  0  0  0  0
 14 27  1  0  0  0  0
 15 16  2  0  0  0  0
 15 62  1  0  0  0  0
 16 64  1  0  0  0  0
 17 28  1  0  0  0  0
 18 28  1  0  0  0  0
 18 29  2  0  0  0  0
 18 31  1  0  0  0  0
 19 21  2  0  0  0  0
 19 36  1  0  0  0  0
 20 22  2  0  0  0  0
 20 37  1  0  0  0  0
 21 45  1  0  0  0  0
 22 38  1  0  0  0  0
 23 78  1  0  0  0  0
 24 79  1  0  0  0  0
 25 27  2  0  0  0  0
 25 78  1  0  0  0  0
 26 80  1  0  0  0  0
 27 81  1  0  0  0  0
 28 61  2  0  0  0  0
 29 63  1  0  0  0  0
 29 67  1  0  0  0  0
 30 53  1  0  0  0  0
 30 62  1  0  0  0  0
 30 64  2  0  0  0  0
 31 68  1  0  0  0  0
 31 73  2  0  0  0  0
 32 46  1  0  0  0  0
 32 69  1  0  0  0  0
 32 74  2  0  0  0  0
 33 58  1  0  0  0  0
 33 65  1  0  0  0  0
 33 75  2  0  0  0  0
 34 59  1  0  0  0  0
 34 70  1  0  0  0  0
 34 76  2  0  0  0  0
 35 66  1  0  0  0  0
 35 71  1  0  0  0  0
 35 77  2  0  0  0  0
 36 39  1  0  0  0  0
 37 46  1  0  0  0  0
 38 65  1  0  0  0  0
 39 41  1  0  0  0  0
 40 42  1  0  0  0  0
 40 43  1  0  0  0  0
 41 45  1  0  0  0  0
 42 47  1  0  0  0  0
 43 66  1  0  0  0  0
 44 47  1  0  0  0  0
 44 66  1  0  0  0  0
 45 69  1  0  0  0  0
 46 65  1  0  0  0  0
 47 63  1  0  0  0  0
 48 59  1  0  0  0  0
 49 60  1  0  0  0  0
 50 60  1  0  0  0  0
 51 60  1  0  0  0  0
 52 72  1  0  0  0  0
 53 56  1  0  0  0  0
 54 55  1  0  0  0  0
 54 57  1  0  0  0  0
 55 62  1  0  0  0  0
 56 71  1  0  0  0  0
 57 79  1  0  0  0  0
 58 60  1  0  0  0  0
 58 70  1  0  0  0  0
 59 72  1  0  0  0  0
 61 63  1  0  0  0  0
M  CHG  2  64   1  72   1
M  ISO  4  35 100  57 101  71 100  79 101
M  END
> <Batch ID>
0049

> <Smiles>
CNC(C)C(=O)NC(C(=O)N1Cc2cc([101O:1][101CH2:1]CCn3ccnc3CC[100NH:0][100C:0](=O)N3CCCC(n4nc(-c5ccc(Oc6ccc(F)cc6F)cc5)c(C(N)=O)c4N)C3)ccc2CC1C(=O)NC1CCCc2ccccc21)C(C)(C)C

> <Shape>
0.251

> <Color>
0.065

> <Negative vol penalty>
0.000

$$$$

  -OEChem-04052317293D

 83 91  0     1  0  0  0  0  0999 V2000
  -21.9077  -22.8821   22.7796 C   0  0  0  0  0  0  0  0  0  0  0  0
  -23.1816  -23.3984   22.5652 C   0  0  0  0  0  0  0  0  0  0  0  0
  -27.6001  -13.0270   22.5974 C   0  0  0  0  0  0  0  0  0  0  0  0
  -26.7727  -12.8912   20.3315 C   0  0  0  0  0  0  0  0  0  0  0  0
  -20.7901  -23.7019   22.6286 C   0  0  0  0  0  0  0  0  0  0  0  0
  -23.3386  -24.7345   22.1985 C   0  0  0  0  0  0  0  0  0  0  0  0
  -27.0445  -27.0330   24.7730 C   0  0  0  0  0  0  0  0  0  0  0  0
  -27.0541  -11.7732   22.8719 C   0  0  0  0  0  0  0  0  0  0  0  0
  -26.2268  -11.6373   20.6061 C   0  0  0  0  0  0  0  0  0  0  0  0
  -28.3541  -26.7760   24.3698 C   0  0  0  0  0  0  0  0  0  0  0  0
  -23.4903  -10.3969   22.1564 C   0  0  0  0  0  0  0  0  0  0  0  0
  -22.1909  -10.1453   21.7160 C   0  0  0  0  0  0  0  0  0  0  0  0
  -28.3901  -28.8702   23.1729 C   0  0  0  0  0  0  0  0  0  0  0  0
  -23.0019   -8.3081   20.3728 C   0  0  0  0  0  0  0  0  0  0  0  0
  -27.9550  -25.6245   19.4633 C   0  0  0  0  0  0  0  0  0  0  0  0
  -27.4594  -13.5861   21.3272 C   0  0  0  0  0  0  0  0  0  0  0  0
  -29.3136  -15.1586   20.5549 C   0  0  0  0  0  0  0  0  0  0  0  0
  -20.9340  -25.0513   22.2694 C   0  0  0  0  0  0  0  0  0  0  0  0
  -26.3930  -28.2074   24.3696 C   0  0  0  0  0  0  0  0  0  0  0  0
  -22.2218  -25.5728   22.0413 C   0  0  0  0  0  0  0  0  0  0  0  0
  -27.0731  -29.1410   23.5746 C   0  0  0  0  0  0  0  0  0  0  0  0
  -26.3675  -11.0783   21.8763 C   0  0  0  0  0  0  0  0  0  0  0  0
  -29.0261  -27.6933   23.5672 C   0  0  0  0  0  0  0  0  0  0  0  0
  -24.5455   -9.6042   21.7050 C   0  0  0  0  0  0  0  0  0  0  0  0
  -21.9467   -9.1009   20.8243 C   0  0  0  0  0  0  0  0  0  0  0  0
  -24.3013   -8.5598   20.8132 C   0  0  0  0  0  0  0  0  0  0  0  0
  -28.0227  -14.8815   21.0431 C   0  0  0  0  0  0  0  0  0  0  0  0
  -28.1632  -24.4018   18.8642 C   0  0  0  0  0  0  0  0  0  0  0  0
  -30.1829  -25.7600   19.9610 C   0  0  0  0  0  0  0  0  0  0  0  0
  -30.3911  -24.5369   19.3625 C   0  0  0  0  0  0  0  0  0  0  0  0
  -29.3568  -16.5279   20.4562 C   0  0  0  0  0  0  0  0  0  0  0  0
  -30.3786  -14.2588   20.2204 C   0  0  0  0  0  0  0  0  0  0  0  0
  -23.8057  -28.8567   22.6409 C   0  0  0  0  0  0  0  0  0  0  0  0
  -24.4266  -31.9022   23.5695 C   0  0  0  0  0  0  0  0  0  0  0  0
  -26.7131  -34.1904   24.6571 C   0  0  0  0  0  0  0  0  0  0  0  0
  -27.0935  -21.2576   18.8897 C   0  0  0  0  0  0  0  0  0  0  0  0
  -19.6936  -25.8862   22.0721 C   0  0  0  0  0  0  0  0  0  0  0  0
  -24.9894  -28.4824   24.8352 C   0  0  0  0  0  0  0  0  0  0  0  0
  -26.4254  -30.4263   23.1311 C   0  0  0  0  0  0  0  0  0  0  0  0
  -19.9677  -27.3877   22.0467 C   0  0  0  0  0  0  0  0  0  0  0  0
  -26.1662  -20.0572   22.1755 C   0  0  0  0  0  0  0  0  0  0  0  0
  -21.1592  -27.6977   21.1461 C   0  0  0  0  0  0  0  0  0  0  0  0
  -26.6786  -18.6165   22.1287 C   0  0  0  0  0  0  0  0  0  0  0  0
  -25.5955  -20.4849   20.8266 C   0  0  0  0  0  0  0  0  0  0  0  0
  -27.0516  -18.8940   19.6340 C   0  0  0  0  0  0  0  0  0  0  0  0
  -22.4343  -27.0235   21.6666 C   0  0  1  0  0  0  0  0  0  0  0  0
  -24.2456  -29.4692   23.9405 C   0  0  1  0  0  0  0  0  0  0  0  0
  -27.6620  -18.4092   20.9616 C   0  0  2  0  0  0  0  0  0  0  0  0
  -31.8089  -22.7426   18.3347 C   0  0  0  0  0  0  0  0  0  0  0  0
  -26.9311  -36.6079   25.2939 C   0  0  0  0  0  0  0  0  0  0  0  0
  -24.3573  -32.6827   20.6206 C   0  0  0  0  0  0  0  0  0  0  0  0
  -25.4938  -34.8277   21.2335 C   0  0  0  0  0  0  0  0  0  0  0  0
  -23.2355  -34.3068   22.1563 C   0  0  0  0  0  0  0  0  0  0  0  0
  -27.5480  -33.5090   27.4134 C   0  0  0  0  0  0  0  0  0  0  0  0
  -31.3175  -26.5342   20.5832 C   0  0  0  0  0  0  0  0  0  0  0  0
  -31.7475  -23.9220   19.3023 C   0  0  0  0  0  0  0  0  0  0  0  0
  -27.0278  -23.6557   18.2557 C   0  0  0  0  0  0  0  0  0  0  0  0
  -31.7626  -25.9894   21.9421 C   0  0  0  0  0  0  0  0  0  0  0  0
  -30.6803  -26.0774   23.0118 C   0  0  0  0  0  0  0  0  0  1  0  0
  -25.2482  -33.0418   23.0172 C   0  0  1  0  0  0  0  0  0  0  0  0
  -26.6699  -35.1956   25.7938 C   0  0  2  0  0  0  0  0  0  0  0  0
  -24.5955  -33.6897   21.7635 C   0  0  0  0  0  0  0  0  0  0  0  0
  -28.9612  -26.3257   20.0224 N   0  0  0  0  0  0  0  0  0  0  0  0
  -27.2981  -15.9860   21.2410 N   0  0  0  0  0  0  0  0  0  0  0  0
  -29.3850  -23.8359   18.8031 N   0  0  0  0  0  0  0  0  0  0  0  0
  -28.1367  -16.9705   20.8753 N   0  0  0  0  0  0  0  0  0  0  0  0
  -25.0497  -30.6467   23.6071 N   0  0  0  0  0  0  0  0  0  0  0  0
  -26.5875  -20.2795   19.7617 N   0  0  0  0  0  0  0  0  0  0  0  0
  -30.3190  -17.3845   20.0527 N   0  0  0  0  0  0  0  0  0  0  0  0
  -30.1660  -12.8829   20.3813 N   0  0  0  0  0  0  0  0  0  0  0  0
  -22.9751  -27.7622   22.7875 N   0  0  0  0  0  0  0  0  0  0  0  0
  -25.4607  -33.9665   24.1254 N   0  0  0  0  0  0  0  0  0  0  0  0
  -26.5975  -22.5427   19.0724 N   0  0  0  0  0  0  0  0  0  0  0  0
  -27.6986  -34.8623   26.8193 N   0  3  0  0  0  0  0  0  0  0  0  0
  -31.4915  -14.6639   19.8072 O   0  0  0  0  0  0  0  0  0  0  0  0
  -24.1902  -29.3422   21.5835 O   0  0  0  0  0  0  0  0  0  0  0  0
  -23.2768  -32.1193   23.9601 O   0  0  0  0  0  0  0  0  0  0  0  0
  -27.7542  -33.6599   24.2762 O   0  0  0  0  0  0  0  0  0  0  0  0
  -27.9299  -21.0055   18.0157 O   0  0  0  0  0  0  0  0  0  0  0  0
  -25.8348   -9.8547   22.1438 O   0  0  0  0  0  0  0  0  0  0  0  0
  -30.3042  -27.4446   23.1716 O   0  0  0  0  0  0  0  0  0  1  0  0
  -20.6987   -8.8585   20.4026 F   0  0  0  0  0  0  0  0  0  0  0  0
  -25.3108   -7.7940   20.3769 F   0  0  0  0  0  0  0  0  0  0  0  0
  1  2  1  0  0  0  0
  1  5  2  0  0  0  0
  2  6  2  0  0  0  0
  3  8  2  0  0  0  0
  3 16  1  0  0  0  0
  4  9  1  0  0  0  0
  4 16  2  0  0  0  0
  5 18  1  0  0  0  0
  6 20  1  0  0  0  0
  7 10  2  0  0  0  0
  7 19  1  0  0  0  0
  8 22  1  0  0  0  0
  9 22  2  0  0  0  0
 10 23  1  0  0  0  0
 11 12  2  0  0  0  0
 11 24  1  0  0  0  0
 12 25  1  0  0  0  0
 13 21  1  0  0  0  0
 13 23  2  0  0  0  0
 14 25  2  0  0  0  0
 14 26  1  0  0  0  0
 15 28  1  0  0  0  0
 15 63  2  0  0  0  0
 16 27  1  0  0  0  0
 17 27  1  0  0  0  0
 17 31  2  0  0  0  0
 17 32  1  0  0  0  0
 18 20  2  0  0  0  0
 18 37  1  0  0  0  0
 19 21  2  0  0  0  0
 19 38  1  0  0  0  0
 20 46  1  0  0  0  0
 21 39  1  0  0  0  0
 22 80  1  0  0  0  0
 23 81  1  0  0  0  0
 24 26  2  0  0  0  0
 24 80  1  0  0  0  0
 25 82  1  0  0  0  0
 26 83  1  0  0  0  0
 27 64  2  0  0  0  0
 28 57  1  0  0  0  0
 28 65  2  0  0  0  0
 29 30  2  0  0  0  0
 29 55  1  0  0  0  0
 29 63  1  0  0  0  0
 30 56  1  0  0  0  0
 30 65  1  0  0  0  0
 31 66  1  0  0  0  0
 31 69  1  0  0  0  0
 32 70  1  0  0  0  0
 32 75  2  0  0  0  0
 33 47  1  0  0  0  0
 33 71  1  0  0  0  0
 33 76  2  0  0  0  0
 34 60  1  0  0  0  0
 34 67  1  0  0  0  0
 34 77  2  0  0  0  0
 35 61  1  0  0  0  0
 35 72  1  0  0  0  0
 35 78  2  0  0  0  0
 36 68  1  0  0  0  0
 36 73  1  0  0  0  0
 36 79  2  0  0  0  0
 37 40  1  0  0  0  0
 38 47  1  0  0  0  0
 39 67  1  0  0  0  0
 40 42  1  0  0  0  0
 41 43  1  0  0  0  0
 41 44  1  0  0  0  0
 42 46  1  0  0  0  0
 43 48  1  0  0  0  0
 44 68  1  0  0  0  0
 45 48  1  0  0  0  0
 45 68  1  0  0  0  0
 46 71  1  0  0  0  0
 47 67  1  0  0  0  0
 48 66  1  0  0  0  0
 49 56  1  0  0  0  0
 50 61  1  0  0  0  0
 51 62  1  0  0  0  0
 52 62  1  0  0  0  0
 53 62  1  0  0  0  0
 54 74  1  0  0  0  0
 55 58  1  0  0  0  0
 57 73  1  0  0  0  0
 58 59  1  0  0  0  0
 59 81  1  0  0  0  0
 60 62  1  0  0  0  0
 60 72  1  0  0  0  0
 61 74  1  0  0  0  0
 64 66  1  0  0  0  0
M  CHG  1  74   1
M  ISO  4  36 100  59 101  73 100  81 101
M  END
> <Batch ID>
0049

> <Smiles>
CCc1nc(C[100NH:0][100C:0](=O)N2CCCC(n3nc(-c4ccc(Oc5ccc(F)cc5F)cc4)c(C(N)=O)c3N)C2)cnc1CC[101CH2:1][101O:1]c1ccc2c(c1)CN(C(=O)C(NC(=O)C(C)NC)C(C)(C)C)C(C(=O)NC1CCCc3ccccc31)C2

> <Shape>
0.253

> <Color>
0.112

> <Negative vol penalty>
0.000

$$$$

  -OEChem-04052317293D

 85 93  0     1  0  0  0  0  0999 V2000
  -32.6640  -25.3605   18.6531 C   0  0  0  0  0  0  0  0  0  0  0  0
  -31.3167  -25.0146   18.6797 C   0  0  0  0  0  0  0  0  0  0  0  0
  -25.6909  -14.5782   18.3521 C   0  0  0  0  0  0  0  0  0  0  0  0
  -24.6802  -15.0735   20.4899 C   0  0  0  0  0  0  0  0  0  0  0  0
  -33.1928  -26.1767   19.6522 C   0  0  0  0  0  0  0  0  0  0  0  0
  -30.4977  -25.4840   19.7061 C   0  0  0  0  0  0  0  0  0  0  0  0
  -24.5865  -27.0285   19.2847 C   0  0  0  0  0  0  0  0  0  0  0  0
  -25.9465  -13.2739   18.7751 C   0  0  0  0  0  0  0  0  0  0  0  0
  -24.9358  -13.7691   20.9129 C   0  0  0  0  0  0  0  0  0  0  0  0
  -23.4133  -26.3424   19.5956 C   0  0  0  0  0  0  0  0  0  0  0  0
  -24.9978  -10.4644   22.4272 C   0  0  0  0  0  0  0  0  0  0  0  0
  -23.9755   -9.7843   23.0889 C   0  0  0  0  0  0  0  0  0  0  0  0
  -23.3559  -27.4285   21.7488 C   0  0  0  0  0  0  0  0  0  0  0  0
  -22.5606  -10.0197   21.1447 C   0  0  0  0  0  0  0  0  0  0  0  0
  -25.0578  -15.4781   19.2095 C   0  0  0  0  0  0  0  0  0  0  0  0
  -23.6401  -17.2970   18.1190 C   0  0  0  0  0  0  0  0  0  0  0  0
  -32.3778  -26.6641   20.6860 C   0  0  0  0  0  0  0  0  0  0  0  0
  -25.1601  -27.9130   20.2093 C   0  0  0  0  0  0  0  0  0  0  0  0
  -31.0165  -26.3063   20.7207 C   0  0  0  0  0  0  0  0  0  0  0  0
  -24.5350  -28.1265   21.4462 C   0  0  0  0  0  0  0  0  0  0  0  0
  -25.5689  -12.8693   20.0554 C   0  0  0  0  0  0  0  0  0  0  0  0
  -22.7994  -26.5402   20.8289 C   0  0  0  0  0  0  0  0  0  0  0  0
  -24.8016  -10.9222   21.1243 C   0  0  0  0  0  0  0  0  0  0  0  0
  -22.7569   -9.5620   22.4477 C   0  0  0  0  0  0  0  0  0  0  0  0
  -23.5830  -10.6998   20.4830 C   0  0  0  0  0  0  0  0  0  0  0  0
  -24.7940  -16.8258   18.7734 C   0  0  0  0  0  0  0  0  0  0  0  0
  -23.8790  -18.6353   17.9228 C   0  0  0  0  0  0  0  0  0  0  0  0
  -24.7746  -22.7994   22.7488 C   0  0  0  0  0  0  0  0  0  0  0  0
  -23.0652  -21.6182   22.5496 C   0  0  0  0  0  0  0  0  0  0  0  0
  -22.4580  -16.5884   17.7238 C   0  0  0  0  0  0  0  0  0  0  0  0
  -27.9293  -28.0480   21.7641 C   0  0  0  0  0  0  0  0  0  0  0  0
  -26.7966  -30.9275   22.7376 C   0  0  0  0  0  0  0  0  0  0  0  0
  -24.0975  -32.9353   23.3122 C   0  0  0  0  0  0  0  0  0  0  0  0
  -27.2187  -22.6571   20.6336 C   0  0  0  0  0  0  0  0  0  0  0  0
  -33.0049  -27.5047   21.7698 C   0  0  0  0  0  0  0  0  0  0  0  0
  -26.4114  -28.6656   19.8482 C   0  0  0  0  0  0  0  0  0  0  0  0
  -25.0995  -29.0806   22.4658 C   0  0  0  0  0  0  0  0  0  0  0  0
  -31.9875  -28.2664   22.6154 C   0  0  0  0  0  0  0  0  0  0  0  0
  -27.4340  -21.7610   17.2904 C   0  0  0  0  0  0  0  0  0  0  0  0
  -30.8429  -27.3472   23.0298 C   0  0  0  0  0  0  0  0  0  0  0  0
  -26.6747  -20.4371   17.2151 C   0  0  0  0  0  0  0  0  0  0  0  0
  -28.2806  -21.8318   18.5557 C   0  0  0  0  0  0  0  0  0  0  0  0
  -26.7287  -20.3253   19.7570 C   0  0  0  0  0  0  0  0  0  0  0  0
  -30.0905  -26.8158   21.8038 C   0  0  1  0  0  0  0  0  0  0  0  0
  -27.1879  -29.1537   21.0673 C   0  0  1  0  0  0  0  0  0  0  0  0
  -25.8523  -20.1999   18.4939 C   0  0  2  0  0  0  0  0  0  0  0  0
  -20.9440  -18.9714   20.7058 C   0  0  0  0  0  0  0  0  0  0  0  0
  -29.0801  -22.0615   23.3540 C   0  0  0  0  0  0  0  0  0  0  0  0
  -23.4852  -35.2227   24.1430 C   0  0  0  0  0  0  0  0  0  0  0  0
  -27.3197  -30.0236   25.6045 C   0  0  0  0  0  0  0  0  0  0  0  0
  -25.8473  -31.8908   26.3880 C   0  0  0  0  0  0  0  0  0  0  0  0
  -27.9405  -32.3993   25.1301 C   0  0  0  0  0  0  0  0  0  0  0  0
  -22.8515  -33.6668   20.7293 C   0  0  0  0  0  0  0  0  0  0  0  0
  -26.1914  -23.1769   22.8135 C   0  0  0  0  0  0  0  0  0  0  0  0
  -22.0817  -20.5360   22.3655 C   0  0  0  0  0  0  0  0  0  0  0  0
  -21.9303  -20.1139   20.8891 C   0  0  0  0  0  0  0  0  0  0  0  0
  -20.6577  -23.7189   21.4957 C   0  0  0  0  0  0  0  0  0  0  0  0
  -21.3301  -23.5067   22.8538 C   0  0  0  0  0  0  0  0  0  0  0  0
  -27.8835  -21.3840   22.7173 C   0  0  0  0  0  0  0  0  0  0  0  0
  -21.4765  -24.5844   20.5449 C   0  0  0  0  0  0  0  0  0  1  0  0
  -25.9645  -31.4114   23.9006 C   0  0  1  0  0  0  0  0  0  0  0  0
  -23.8119  -34.3747   22.9236 C   0  0  2  0  0  0  0  0  0  0  0  0
  -26.7582  -31.4118   25.2376 C   0  0  0  0  0  0  0  0  0  0  0  0
  -25.6988  -17.7865   18.9791 N   0  0  0  0  0  0  0  0  0  0  0  0
  -24.3736  -21.5114   22.5370 N   0  0  0  0  0  0  0  0  0  0  0  0
  -23.7967  -23.6964   22.8917 N   0  0  0  0  0  0  0  0  0  0  0  0
  -25.1135  -18.8748   18.4508 N   0  0  0  0  0  0  0  0  0  0  0  0
  -22.7139  -22.9151   22.7601 N   0  0  0  0  0  0  0  0  0  0  0  0
  -26.3279  -29.7881   22.0684 N   0  0  0  0  0  0  0  0  0  0  0  0
  -27.4687  -21.5967   19.7500 N   0  0  0  0  0  0  0  0  0  0  0  0
  -23.1515  -19.6186   17.3518 N   0  0  0  0  0  0  0  0  0  0  0  0
  -22.3766  -15.2172   18.0021 N   0  0  0  0  0  0  0  0  0  0  0  0
  -29.2036  -27.8304   21.2761 N   0  0  0  0  0  0  0  0  0  0  0  0
  -25.4441  -32.7184   23.5143 N   0  0  0  0  0  0  0  0  0  0  0  0
  -27.0476  -22.3363   21.9887 N   0  0  0  0  0  0  0  0  0  0  0  0
  -22.6570  -34.4382   21.9839 N   0  3  0  0  0  0  0  0  0  0  0  0
  -21.5092  -17.1510   17.1265 O   0  0  0  0  0  0  0  0  0  0  0  0
  -27.3859  -27.4384   22.6778 O   0  0  0  0  0  0  0  0  0  0  0  0
  -27.8209  -31.5422   22.4297 O   0  0  0  0  0  0  0  0  0  0  0  0
  -23.2139  -32.0890   23.4287 O   0  0  0  0  0  0  0  0  0  0  0  0
  -27.1590  -23.8278   20.2360 O   0  0  0  0  0  0  0  0  0  0  0  0
  -25.8179  -11.5965   20.4684 O   0  0  0  0  0  0  0  0  0  0  0  0
  -21.6545  -25.8713   21.1351 O   0  0  0  0  0  0  0  0  0  1  0  0
  -21.7757   -8.9076   23.0826 F   0  0  0  0  0  0  0  0  0  0  0  0
  -23.3890  -11.1362   19.2309 F   0  0  0  0  0  0  0  0  0  0  0  0
  1  2  1  0  0  0  0
  1  5  2  0  0  0  0
  2  6  2  0  0  0  0
  3  8  2  0  0  0  0
  3 15  1  0  0  0  0
  4  9  1  0  0  0  0
  4 15  2  0  0  0  0
  5 17  1  0  0  0  0
  6 19  1  0  0  0  0
  7 10  2  0  0  0  0
  7 18  1  0  0  0  0
  8 21  1  0  0  0  0
  9 21  2  0  0  0  0
 10 22  1  0  0  0  0
 11 12  2  0  0  0  0
 11 23  1  0  0  0  0
 12 24  1  0  0  0  0
 13 20  1  0  0  0  0
 13 22  2  0  0  0  0
 14 24  2  0  0  0  0
 14 25  1  0  0  0  0
 15 26  1  0  0  0  0
 16 26  1  0  0  0  0
 16 27  2  0  0  0  0
 16 30  1  0  0  0  0
 17 19  2  0  0  0  0
 17 35  1  0  0  0  0
 18 20  2  0  0  0  0
 18 36  1  0  0  0  0
 19 44  1  0  0  0  0
 20 37  1  0  0  0  0
 21 82  1  0  0  0  0
 22 83  1  0  0  0  0
 23 25  2  0  0  0  0
 23 82  1  0  0  0  0
 24 84  1  0  0  0  0
 25 85  1  0  0  0  0
 26 64  2  0  0  0  0
 27 67  1  0  0  0  0
 27 71  1  0  0  0  0
 28 54  1  0  0  0  0
 28 65  1  0  0  0  0
 28 66  2  0  0  0  0
 29 55  1  0  0  0  0
 29 65  2  0  0  0  0
 29 68  1  0  0  0  0
 30 72  1  0  0  0  0
 30 77  2  0  0  0  0
 31 45  1  0  0  0  0
 31 73  1  0  0  0  0
 31 78  2  0  0  0  0
 32 61  1  0  0  0  0
 32 69  1  0  0  0  0
 32 79  2  0  0  0  0
 33 62  1  0  0  0  0
 33 74  1  0  0  0  0
 33 80  2  0  0  0  0
 34 70  1  0  0  0  0
 34 75  1  0  0  0  0
 34 81  2  0  0  0  0
 35 38  1  0  0  0  0
 36 45  1  0  0  0  0
 37 69  1  0  0  0  0
 38 40  1  0  0  0  0
 39 41  1  0  0  0  0
 39 42  1  0  0  0  0
 40 44  1  0  0  0  0
 41 46  1  0  0  0  0
 42 70  1  0  0  0  0
 43 46  1  0  0  0  0
 43 70  1  0  0  0  0
 44 73  1  0  0  0  0
 45 69  1  0  0  0  0
 46 67  1  0  0  0  0
 47 56  1  0  0  0  0
 48 59  1  0  0  0  0
 49 62  1  0  0  0  0
 50 63  1  0  0  0  0
 51 63  1  0  0  0  0
 52 63  1  0  0  0  0
 53 76  1  0  0  0  0
 54 75  1  0  0  0  0
 55 56  1  0  0  0  0
 57 58  1  0  0  0  0
 57 60  1  0  0  0  0
 58 68  1  0  0  0  0
 59 75  1  0  0  0  0
 60 83  1  0  0  0  0
 61 63  1  0  0  0  0
 61 74  1  0  0  0  0
 62 76  1  0  0  0  0
 64 67  1  0  0  0  0
 66 68  1  0  0  0  0
M  CHG  1  76   1
M  ISO  4  34 100  60 101  75 100  83 101
M  END
> <Batch ID>
0049

> <Smiles>
CCCc1nc(C[100N:0](CC)[100C:0](=O)N2CCCC(n3nc(-c4ccc(Oc5ccc(F)cc5F)cc4)c(C(N)=O)c3N)C2)nn1CC[101CH2:1][101O:1]c1ccc2c(c1)CN(C(=O)C(NC(=O)C(C)NC)C(C)(C)C)C(C(=O)NC1CCCc3ccccc31)C2

> <Shape>
0.207

> <Color>
0.062

> <Negative vol penalty>
0.000

$$$$

  -OEChem-04052317293D

 85 93  0     1  0  0  0  0  0999 V2000
  -19.0027  -29.1684   26.5759 C   0  0  0  0  0  0  0  0  0  0  0  0
  -20.3837  -29.0322   26.4771 C   0  0  0  0  0  0  0  0  0  0  0  0
  -26.1285  -14.2817   20.9246 C   0  0  0  0  0  0  0  0  0  0  0  0
  -26.5953  -14.1719   18.5567 C   0  0  0  0  0  0  0  0  0  0  0  0
  -18.1979  -28.9233   25.4642 C   0  0  0  0  0  0  0  0  0  0  0  0
  -20.9606  -28.6496   25.2666 C   0  0  0  0  0  0  0  0  0  0  0  0
  -26.3524  -30.4843   23.0154 C   0  0  0  0  0  0  0  0  0  0  0  0
  -25.9431  -12.8995   20.9521 C   0  0  0  0  0  0  0  0  0  0  0  0
  -26.4099  -12.7897   18.5842 C   0  0  0  0  0  0  0  0  0  0  0  0
  -27.6165  -29.8964   23.0123 C   0  0  0  0  0  0  0  0  0  0  0  0
  -23.5196  -10.6949   20.1210 C   0  0  0  0  0  0  0  0  0  0  0  0
  -22.4149  -10.2037   20.8166 C   0  0  0  0  0  0  0  0  0  0  0  0
  -27.1976  -29.0218   20.8035 C   0  0  0  0  0  0  0  0  0  0  0  0
  -23.8858   -8.9539   22.2698 C   0  0  0  0  0  0  0  0  0  0  0  0
  -29.3868  -23.3622   22.0577 C   0  0  0  0  0  0  0  0  0  0  0  0
  -26.4546  -14.9179   19.7268 C   0  0  0  0  0  0  0  0  0  0  0  0
  -27.8493  -17.0467   19.9022 C   0  0  0  0  0  0  0  0  0  0  0  0
  -18.7659  -28.5469   24.2368 C   0  0  0  0  0  0  0  0  0  0  0  0
  -25.4957  -30.3361   21.9152 C   0  0  0  0  0  0  0  0  0  0  0  0
  -20.1624  -28.3979   24.1377 C   0  0  0  0  0  0  0  0  0  0  0  0
  -25.9241  -29.6111   20.7941 C   0  0  0  0  0  0  0  0  0  0  0  0
  -26.0838  -12.1535   19.7820 C   0  0  0  0  0  0  0  0  0  0  0  0
  -28.0382  -29.1626   21.9074 C   0  0  0  0  0  0  0  0  0  0  0  0
  -24.8074  -10.3156   20.4997 C   0  0  0  0  0  0  0  0  0  0  0  0
  -22.5980   -9.3332   21.8911 C   0  0  0  0  0  0  0  0  0  0  0  0
  -24.9905   -9.4451   21.5741 C   0  0  0  0  0  0  0  0  0  0  0  0
  -26.6457  -16.3458   19.6976 C   0  0  0  0  0  0  0  0  0  0  0  0
  -28.2710  -22.5578   21.9473 C   0  0  0  0  0  0  0  0  0  0  0  0
  -29.5624  -24.2819   21.0440 C   0  0  0  0  0  0  0  0  0  0  0  0
  -27.5028  -18.3694   19.7718 C   0  0  0  0  0  0  0  0  0  0  0  0
  -27.6692  -23.5730   20.0046 C   0  0  0  0  0  0  0  0  0  0  0  0
  -29.1630  -16.5469   20.1848 C   0  0  0  0  0  0  0  0  0  0  0  0
  -22.6298  -29.0377   21.4627 C   0  0  0  0  0  0  0  0  0  0  0  0
  -22.9470  -30.3206   18.5003 C   0  0  0  0  0  0  0  0  0  0  0  0
  -25.0241  -31.4529   16.0406 C   0  0  0  0  0  0  0  0  0  0  0  0
  -24.6838  -22.1851   16.6396 C   0  0  0  0  0  0  0  0  0  0  0  0
  -17.8517  -28.2467   23.0755 C   0  0  0  0  0  0  0  0  0  0  0  0
  -24.1455  -30.9990   21.9233 C   0  0  0  0  0  0  0  0  0  0  0  0
  -25.0503  -29.4392   19.5795 C   0  0  0  0  0  0  0  0  0  0  0  0
  -18.5697  -28.2093   21.7289 C   0  0  0  0  0  0  0  0  0  0  0  0
  -22.9783  -20.5960   19.5149 C   0  0  0  0  0  0  0  0  0  0  0  0
  -19.8507  -27.3873   21.8297 C   0  0  0  0  0  0  0  0  0  0  0  0
  -23.8480  -19.3686   19.7812 C   0  0  0  0  0  0  0  0  0  0  0  0
  -23.0276  -21.0191   18.0499 C   0  0  0  0  0  0  0  0  0  0  0  0
  -25.2749  -20.0183   17.8007 C   0  0  0  0  0  0  0  0  0  0  0  0
  -20.8274  -28.0089   22.8352 C   0  0  1  0  0  0  0  0  0  0  0  0
  -23.1564  -30.3517   20.9589 C   0  0  1  0  0  0  0  0  0  0  0  0
  -25.2840  -19.5939   19.2770 C   0  0  2  0  0  0  0  0  0  0  0  0
  -27.9966  -21.5330   22.9965 C   0  0  0  0  0  0  0  0  0  0  0  0
  -26.8966  -23.2567   14.4650 C   0  0  0  0  0  0  0  0  0  0  0  0
  -24.9924  -32.4052   13.7191 C   0  0  0  0  0  0  0  0  0  0  0  0
  -22.3639  -27.5460   17.3728 C   0  0  0  0  0  0  0  0  0  0  0  0
  -23.2674  -28.3267   15.1722 C   0  0  0  0  0  0  0  0  0  0  0  0
  -21.2519  -29.4234   16.1508 C   0  0  0  0  0  0  0  0  0  0  0  0
  -26.3178  -33.9627   16.9274 C   0  0  0  0  0  0  0  0  0  0  0  0
  -30.7527  -25.2069   21.0783 C   0  0  0  0  0  0  0  0  0  0  0  0
  -26.7137  -23.6931   18.8659 C   0  0  0  0  0  0  0  0  0  0  0  0
  -30.4896  -26.5220   21.8151 C   0  0  0  0  0  0  0  0  0  0  0  0
  -26.2901  -23.8217   15.7335 C   0  0  0  0  0  0  0  0  0  0  0  0
  -26.8942  -22.6099   17.7956 C   0  0  0  0  0  0  0  0  0  0  0  0
  -29.4235  -27.3843   21.1494 C   0  0  0  0  0  0  0  0  0  1  0  0
  -23.5192  -29.8473   17.1860 C   0  0  1  0  0  0  0  0  0  0  0  0
  -25.0002  -32.7211   15.2066 C   0  0  2  0  0  0  0  0  0  0  0  0
  -22.6165  -28.7873   16.4940 C   0  0  0  0  0  0  0  0  0  0  0  0
  -25.6118  -17.1561   19.4558 N   0  0  0  0  0  0  0  0  0  0  0  0
  -27.3878  -22.6364   20.9303 N   0  0  0  0  0  0  0  0  0  0  0  0
  -28.7202  -24.4150   19.9983 N   0  0  0  0  0  0  0  0  0  0  0  0
  -26.1647  -18.3799   19.5076 N   0  0  0  0  0  0  0  0  0  0  0  0
  -23.7365  -30.1010   19.6380 N   0  0  0  0  0  0  0  0  0  0  0  0
  -24.4052  -21.1842   17.5848 N   0  0  0  0  0  0  0  0  0  0  0  0
  -28.2151  -19.5128   19.8584 N   0  0  0  0  0  0  0  0  0  0  0  0
  -29.3432  -15.1606   20.2853 N   0  0  0  0  0  0  0  0  0  0  0  0
  -21.4989  -29.1490   22.2489 N   0  0  0  0  0  0  0  0  0  0  0  0
  -23.7533  -31.0457   16.3875 N   0  0  0  0  0  0  0  0  0  0  0  0
  -25.9577  -22.7714   16.6855 N   0  0  0  0  0  0  0  0  0  0  0  0
  -26.1967  -33.5586   15.5030 N   0  3  0  0  0  0  0  0  0  0  0  0
  -30.1448  -17.3079   20.3597 O   0  0  0  0  0  0  0  0  0  0  0  0
  -23.2060  -27.9996   21.1593 O   0  0  0  0  0  0  0  0  0  0  0  0
  -21.8434  -30.8715   18.5160 O   0  0  0  0  0  0  0  0  0  0  0  0
  -26.0658  -30.8787   16.3500 O   0  0  0  0  0  0  0  0  0  0  0  0
  -23.8387  -22.5414   15.8085 O   0  0  0  0  0  0  0  0  0  0  0  0
  -25.9032  -10.8047   19.8085 O   0  0  0  0  0  0  0  0  0  0  0  0
  -29.2714  -28.5871   21.9020 O   0  0  0  0  0  0  0  0  0  1  0  0
  -21.5371   -8.8628   22.5600 F   0  0  0  0  0  0  0  0  0  0  0  0
  -26.2253   -9.0781   21.9433 F   0  0  0  0  0  0  0  0  0  0  0  0
  1  2  1  0  0  0  0
  1  5  2  0  0  0  0
  2  6  2  0  0  0  0
  3  8  2  0  0  0  0
  3 16  1  0  0  0  0
  4  9  1  0  0  0  0
  4 16  2  0  0  0  0
  5 18  1  0  0  0  0
  6 20  1  0  0  0  0
  7 10  2  0  0  0  0
  7 19  1  0  0  0  0
  8 22  1  0  0  0  0
  9 22  2  0  0  0  0
 10 23  1  0  0  0  0
 11 12  2  0  0  0  0
 11 24  1  0  0  0  0
 12 25  1  0  0  0  0
 13 21  1  0  0  0  0
 13 23  2  0  0  0  0
 14 25  2  0  0  0  0
 14 26  1  0  0  0  0
 15 28  1  0  0  0  0
 15 29  2  0  0  0  0
 16 27  1  0  0  0  0
 17 27  1  0  0  0  0
 17 30  2  0  0  0  0
 17 32  1  0  0  0  0
 18 20  2  0  0  0  0
 18 37  1  0  0  0  0
 19 21  2  0  0  0  0
 19 38  1  0  0  0  0
 20 46  1  0  0  0  0
 21 39  1  0  0  0  0
 22 82  1  0  0  0  0
 23 83  1  0  0  0  0
 24 26  2  0  0  0  0
 24 82  1  0  0  0  0
 25 84  1  0  0  0  0
 26 85  1  0  0  0  0
 27 65  2  0  0  0  0
 28 49  1  0  0  0  0
 28 66  2  0  0  0  0
 29 56  1  0  0  0  0
 29 67  1  0  0  0  0
 30 68  1  0  0  0  0
 30 71  1  0  0  0  0
 31 57  1  0  0  0  0
 31 66  1  0  0  0  0
 31 67  2  0  0  0  0
 32 72  1  0  0  0  0
 32 77  2  0  0  0  0
 33 47  1  0  0  0  0
 33 73  1  0  0  0  0
 33 78  2  0  0  0  0
 34 62  1  0  0  0  0
 34 69  1  0  0  0  0
 34 79  2  0  0  0  0
 35 63  1  0  0  0  0
 35 74  1  0  0  0  0
 35 80  2  0  0  0  0
 36 70  1  0  0  0  0
 36 75  1  0  0  0  0
 36 81  2  0  0  0  0
 37 40  1  0  0  0  0
 38 47  1  0  0  0  0
 39 69  1  0  0  0  0
 40 42  1  0  0  0  0
 41 43  1  0  0  0  0
 41 44  1  0  0  0  0
 42 46  1  0  0  0  0
 43 48  1  0  0  0  0
 44 70  1  0  0  0  0
 45 48  1  0  0  0  0
 45 70  1  0  0  0  0
 46 73  1  0  0  0  0
 47 69  1  0  0  0  0
 48 68  1  0  0  0  0
 50 59  1  0  0  0  0
 51 63  1  0  0  0  0
 52 64  1  0  0  0  0
 53 64  1  0  0  0  0
 54 64  1  0  0  0  0
 55 76  1  0  0  0  0
 56 58  1  0  0  0  0
 57 60  1  0  0  0  0
 58 61  1  0  0  0  0
 59 75  1  0  0  0  0
 60 75  1  0  0  0  0
 61 83  1  0  0  0  0
 62 64  1  0  0  0  0
 62 74  1  0  0  0  0
 63 76  1  0  0  0  0
 65 68  1  0  0  0  0
M  CHG  1  76   1
M  ISO  4  36 100  61 101  75 100  83 101
M  END
> <Batch ID>
0049

> <Smiles>
CC[100N:0](CCc1nc(C)cc(CC[101CH2:1][101O:1]c2ccc3c(c2)CN(C(=O)C(NC(=O)C(C)NC)C(C)(C)C)C(C(=O)NC2CCCc4ccccc42)C3)n1)[100C:0](=O)N1CCCC(n2nc(-c3ccc(Oc4ccc(F)cc4F)cc3)c(C(N)=O)c2N)C1

> <Shape>
0.236

> <Color>
0.085

> <Negative vol penalty>
0.000

$$$$

  -OEChem-04052317293D

 88 96  0     1  0  0  0  0  0999 V2000
  -31.0115  -32.7152   24.2781 C   0  0  0  0  0  0  0  0  0  0  0  0
  -30.4210  -31.4810   24.0266 C   0  0  0  0  0  0  0  0  0  0  0  0
  -23.2749   -9.6084   21.6378 C   0  0  0  0  0  0  0  0  0  0  0  0
  -25.3757  -10.0279   22.7548 C   0  0  0  0  0  0  0  0  0  0  0  0
  -30.2139  -33.8254   24.5522 C   0  0  0  0  0  0  0  0  0  0  0  0
  -29.0324  -31.3559   24.0503 C   0  0  0  0  0  0  0  0  0  0  0  0
  -27.2576  -28.6611   20.1474 C   0  0  0  0  0  0  0  0  0  0  0  0
  -22.8761   -8.7904   22.6948 C   0  0  0  0  0  0  0  0  0  0  0  0
  -24.9770   -9.2098   23.8119 C   0  0  0  0  0  0  0  0  0  0  0  0
  -27.3766  -27.2742   20.2248 C   0  0  0  0  0  0  0  0  0  0  0  0
  -21.6430   -6.3753   25.7660 C   0  0  0  0  0  0  0  0  0  0  0  0
  -20.3844   -5.7793   25.6879 C   0  0  0  0  0  0  0  0  0  0  0  0
  -25.0668  -27.1200   20.9035 C   0  0  0  0  0  0  0  0  0  0  0  0
  -27.9337  -20.3862   19.6967 C   0  0  0  0  0  0  0  0  0  0  0  0
  -20.0160   -6.8379   23.5476 C   0  0  0  0  0  0  0  0  0  0  0  0
  -24.5247  -10.2272   21.6677 C   0  0  0  0  0  0  0  0  0  0  0  0
  -24.2053  -11.3756   19.4123 C   0  0  0  0  0  0  0  0  0  0  0  0
  -28.8145  -33.7161   24.5698 C   0  0  0  0  0  0  0  0  0  0  0  0
  -26.0434  -29.2898   20.4586 C   0  0  0  0  0  0  0  0  0  0  0  0
  -28.2153  -32.4654   24.3263 C   0  0  0  0  0  0  0  0  0  0  0  0
  -24.9343  -28.5148   20.8268 C   0  0  0  0  0  0  0  0  0  0  0  0
  -27.1904  -19.2600   19.3611 C   0  0  0  0  0  0  0  0  0  0  0  0
  -27.3784  -21.3586   20.5209 C   0  0  0  0  0  0  0  0  0  0  0  0
  -23.7272   -8.5911   23.7819 C   0  0  0  0  0  0  0  0  0  0  0  0
  -26.2819  -26.5036   20.6057 C   0  0  0  0  0  0  0  0  0  0  0  0
  -22.0882   -7.2027   24.7350 C   0  0  0  0  0  0  0  0  0  0  0  0
  -19.5708   -6.0106   24.5787 C   0  0  0  0  0  0  0  0  0  0  0  0
  -21.2746   -7.4340   23.6258 C   0  0  0  0  0  0  0  0  0  0  0  0
  -24.9373  -11.0719   20.5758 C   0  0  0  0  0  0  0  0  0  0  0  0
  -25.9067  -19.1544   19.8717 C   0  0  0  0  0  0  0  0  0  0  0  0
  -26.0862  -21.1591   20.9795 C   0  0  0  0  0  0  0  0  0  0  0  0
  -25.0284  -12.2105   18.6969 C   0  0  0  0  0  0  0  0  0  0  0  0
  -22.8981  -10.9418   19.0139 C   0  0  0  0  0  0  0  0  0  0  0  0
  -25.1027  -31.3920   22.6493 C   0  0  0  0  0  0  0  0  0  0  0  0
  -22.3262  -31.3085   20.9740 C   0  0  0  0  0  0  0  0  0  0  0  0
  -20.0859  -30.1915   23.2936 C   0  0  0  0  0  0  0  0  0  0  0  0
  -29.0075  -16.1572   19.3044 C   0  0  0  0  0  0  0  0  0  0  0  0
  -27.9955  -34.9338   24.9176 C   0  0  0  0  0  0  0  0  0  0  0  0
  -25.9238  -30.7848   20.3443 C   0  0  0  0  0  0  0  0  0  0  0  0
  -23.6029  -29.1396   21.1515 C   0  0  0  0  0  0  0  0  0  0  0  0
  -26.5190  -34.7989   24.5544 C   0  0  0  0  0  0  0  0  0  0  0  0
  -29.6672  -12.5456   20.0916 C   0  0  0  0  0  0  0  0  0  0  0  0
  -25.9776  -33.4486   25.0131 C   0  0  0  0  0  0  0  0  0  0  0  0
  -28.6703  -12.3184   18.9551 C   0  0  0  0  0  0  0  0  0  0  0  0
  -30.0289  -14.0273   20.2454 C   0  0  0  0  0  0  0  0  0  0  0  0
  -27.5759  -14.3156   20.1219 C   0  0  0  0  0  0  0  0  0  0  0  0
  -26.7116  -32.2952   24.3186 C   0  0  1  0  0  0  0  0  0  0  0  0
  -24.7847  -31.3588   21.1812 C   0  0  1  0  0  0  0  0  0  0  0  0
  -27.3900  -13.1737   19.1072 C   0  0  2  0  0  0  0  0  0  0  0  0
  -28.3276  -22.7256   22.3963 C   0  0  0  0  0  0  0  0  0  0  0  0
  -23.7514  -18.3542   18.8712 C   0  0  0  0  0  0  0  0  0  0  0  0
  -26.5179  -15.4867   22.1427 C   0  0  0  0  0  0  0  0  0  0  0  0
  -21.6606  -29.6420   25.1686 C   0  0  0  0  0  0  0  0  0  0  0  0
  -19.7554  -29.7154   18.9439 C   0  0  0  0  0  0  0  0  0  0  0  0
  -20.8745  -28.0266   20.4148 C   0  0  0  0  0  0  0  0  0  0  0  0
  -22.2503  -29.5524   18.9999 C   0  0  0  0  0  0  0  0  0  0  0  0
  -18.9836  -27.3416   25.1046 C   0  0  0  0  0  0  0  0  0  0  0  0
  -28.1646  -22.5698   20.8857 C   0  0  0  0  0  0  0  0  0  0  0  0
  -27.7796  -18.2139   18.4792 C   0  0  0  0  0  0  0  0  0  0  0  0
  -25.0634  -17.9654   19.5458 C   0  0  0  0  0  0  0  0  0  0  0  0
  -26.8306  -15.2524   20.6714 C   0  0  0  0  0  0  0  0  0  0  0  0
  -26.6211  -16.4982   19.8190 C   0  0  0  0  0  0  0  0  0  0  0  0
  -25.5737  -24.4823   21.6395 C   0  0  0  0  0  0  0  0  0  1  0  0
  -26.2885  -23.2350   22.1221 C   0  0  0  0  0  0  0  0  0  0  0  0
  -21.0666  -30.4785   21.0330 C   0  0  1  0  0  0  0  0  0  0  0  0
  -20.2749  -29.4153   24.5844 C   0  0  2  0  0  0  0  0  0  0  0  0
  -20.9702  -29.4635   19.8591 C   0  0  0  0  0  0  0  0  0  0  0  0
  -26.1336  -11.6655   20.6020 N   0  0  0  0  0  0  0  0  0  0  0  0
  -25.3334  -20.0782   20.6751 N   0  0  0  0  0  0  0  0  0  0  0  0
  -26.1596  -12.3505   19.4461 N   0  0  0  0  0  0  0  0  0  0  0  0
  -23.5380  -30.6055   21.0313 N   0  0  0  0  0  0  0  0  0  0  0  0
  -28.8966  -14.9223   19.9653 N   0  0  0  0  0  0  0  0  0  0  0  0
  -24.8878  -12.8313   17.5064 N   0  0  0  0  0  0  0  0  0  0  0  0
  -22.1895  -10.0851   19.8672 N   0  0  0  0  0  0  0  0  0  0  0  0
  -26.2275  -32.1302   22.9648 N   0  0  0  0  0  0  0  0  0  0  0  0
  -21.0434  -29.8653   22.3565 N   0  0  0  0  0  0  0  0  0  0  0  0
  -27.8358  -16.9071   19.1270 N   0  0  0  0  0  0  0  0  0  0  0  0
  -20.1004  -27.9554   24.3412 N   0  3  0  0  0  0  0  0  0  0  0  0
  -22.3807  -11.2901   17.9255 O   0  0  0  0  0  0  0  0  0  0  0  0
  -24.3802  -30.7936   23.4377 O   0  0  0  0  0  0  0  0  0  0  0  0
  -22.2383  -32.5348   20.8735 O   0  0  0  0  0  0  0  0  0  0  0  0
  -19.1774  -31.0032   23.1313 O   0  0  0  0  0  0  0  0  0  0  0  0
  -30.1022  -16.5773   18.9062 O   0  0  0  0  0  0  0  0  0  0  0  0
  -23.3383   -7.7931   24.8137 O   0  0  0  0  0  0  0  0  0  0  0  0
  -26.3955  -25.1497   20.6827 O   0  0  0  0  0  0  0  0  0  1  0  0
  -25.5045  -22.0942   21.7946 O   0  0  0  0  0  0  0  0  0  0  0  0
  -18.3628   -5.4369   24.5030 F   0  0  0  0  0  0  0  0  0  0  0  0
  -21.6973   -8.2269   22.6316 F   0  0  0  0  0  0  0  0  0  0  0  0
  1  2  1  0  0  0  0
  1  5  2  0  0  0  0
  2  6  2  0  0  0  0
  3  8  2  0  0  0  0
  3 16  1  0  0  0  0
  4  9  1  0  0  0  0
  4 16  2  0  0  0  0
  5 18  1  0  0  0  0
  6 20  1  0  0  0  0
  7 10  2  0  0  0  0
  7 19  1  0  0  0  0
  8 24  1  0  0  0  0
  9 24  2  0  0  0  0
 10 25  1  0  0  0  0
 11 12  2  0  0  0  0
 11 26  1  0  0  0  0
 12 27  1  0  0  0  0
 13 21  1  0  0  0  0
 13 25  2  0  0  0  0
 14 22  1  0  0  0  0
 14 23  2  0  0  0  0
 15 27  2  0  0  0  0
 15 28  1  0  0  0  0
 16 29  1  0  0  0  0
 17 29  1  0  0  0  0
 17 32  2  0  0  0  0
 17 33  1  0  0  0  0
 18 20  2  0  0  0  0
 18 38  1  0  0  0  0
 19 21  2  0  0  0  0
 19 39  1  0  0  0  0
 20 47  1  0  0  0  0
 21 40  1  0  0  0  0
 22 30  2  0  0  0  0
 22 59  1  0  0  0  0
 23 31  1  0  0  0  0
 23 58  1  0  0  0  0
 24 84  1  0  0  0  0
 25 85  1  0  0  0  0
 26 28  2  0  0  0  0
 26 84  1  0  0  0  0
 27 87  1  0  0  0  0
 28 88  1  0  0  0  0
 29 68  2  0  0  0  0
 30 60  1  0  0  0  0
 30 69  1  0  0  0  0
 31 69  2  0  0  0  0
 31 86  1  0  0  0  0
 32 70  1  0  0  0  0
 32 73  1  0  0  0  0
 33 74  1  0  0  0  0
 33 79  2  0  0  0  0
 34 48  1  0  0  0  0
 34 75  1  0  0  0  0
 34 80  2  0  0  0  0
 35 65  1  0  0  0  0
 35 71  1  0  0  0  0
 35 81  2  0  0  0  0
 36 66  1  0  0  0  0
 36 76  1  0  0  0  0
 36 82  2  0  0  0  0
 37 72  1  0  0  0  0
 37 77  1  0  0  0  0
 37 83  2  0  0  0  0
 38 41  1  0  0  0  0
 39 48  1  0  0  0  0
 40 71  1  0  0  0  0
 41 43  1  0  0  0  0
 42 44  1  0  0  0  0
 42 45  1  0  0  0  0
 43 47  1  0  0  0  0
 44 49  1  0  0  0  0
 45 72  1  0  0  0  0
 46 49  1  0  0  0  0
 46 72  1  0  0  0  0
 47 75  1  0  0  0  0
 48 71  1  0  0  0  0
 49 70  1  0  0  0  0
 50 58  1  0  0  0  0
 51 60  1  0  0  0  0
 52 61  1  0  0  0  0
 53 66  1  0  0  0  0
 54 67  1  0  0  0  0
 55 67  1  0  0  0  0
 56 67  1  0  0  0  0
 57 78  1  0  0  0  0
 59 77  1  0  0  0  0
 61 62  1  0  0  0  0
 62 77  1  0  0  0  0
 63 64  1  0  0  0  0
 63 85  1  0  0  0  0
 64 86  1  0  0  0  0
 65 67  1  0  0  0  0
 65 76  1  0  0  0  0
 66 78  1  0  0  0  0
 68 70  1  0  0  0  0
M  CHG  1  78   1
M  ISO  4  37 100  63 101  77 100  85 101
M  END
> <Batch ID>
0049

> <Smiles>
CCC[100N:0](Cc1cc(CC)c(OC[101CH2:1][101O:1]c2ccc3c(c2)CN(C(=O)C(NC(=O)C(C)NC)C(C)(C)C)C(C(=O)NC2CCCc4ccccc42)C3)nc1CC)[100C:0](=O)N1CCCC(n2nc(-c3ccc(Oc4ccc(F)cc4F)cc3)c(C(N)=O)c2N)C1

> <Shape>
0.290

> <Color>
0.078

> <Negative vol penalty>
0.000

$$$$

  -OEChem-04052317293D

 85 93  0     1  0  0  0  0  0999 V2000
  -28.0000  -10.4493   16.3797 C   0  0  0  0  0  0  0  0  0  0  0  0
  -26.8611  -11.2085   16.6284 C   0  0  0  0  0  0  0  0  0  0  0  0
  -28.9310  -27.4067   22.0980 C   0  0  0  0  0  0  0  0  0  0  0  0
  -28.3239  -28.6787   20.1358 C   0  0  0  0  0  0  0  0  0  0  0  0
  -29.1160  -10.5776   17.2055 C   0  0  0  0  0  0  0  0  0  0  0  0
  -26.8371  -12.0958   17.7038 C   0  0  0  0  0  0  0  0  0  0  0  0
  -23.9858  -17.5102   17.9466 C   0  0  0  0  0  0  0  0  0  0  0  0
  -30.2715  -27.4569   21.7159 C   0  0  0  0  0  0  0  0  0  0  0  0
  -29.6644  -28.7290   19.7537 C   0  0  0  0  0  0  0  0  0  0  0  0
  -22.7617  -17.9023   18.4866 C   0  0  0  0  0  0  0  0  0  0  0  0
  -32.8835  -28.8844   18.0734 C   0  0  0  0  0  0  0  0  0  0  0  0
  -33.1866  -28.6277   16.7363 C   0  0  0  0  0  0  0  0  0  0  0  0
  -23.8837  -18.6077   20.5022 C   0  0  0  0  0  0  0  0  0  0  0  0
  -32.2171  -26.4241   16.9396 C   0  0  0  0  0  0  0  0  0  0  0  0
  -17.5764  -23.5561   20.7530 C   0  0  0  0  0  0  0  0  0  0  0  0
  -18.7911  -24.3955   22.9772 C   0  0  0  0  0  0  0  0  0  0  0  0
  -27.9571  -28.0175   21.3079 C   0  0  0  0  0  0  0  0  0  0  0  0
  -25.8836  -28.8877   22.5124 C   0  0  0  0  0  0  0  0  0  0  0  0
  -29.1092  -11.4740   18.2858 C   0  0  0  0  0  0  0  0  0  0  0  0
  -25.1687  -17.6541   18.6858 C   0  0  0  0  0  0  0  0  0  0  0  0
  -27.9536  -12.2353   18.5457 C   0  0  0  0  0  0  0  0  0  0  0  0
  -25.1218  -18.2190   19.9683 C   0  0  0  0  0  0  0  0  0  0  0  0
  -30.6383  -28.1181   20.5438 C   0  0  0  0  0  0  0  0  0  0  0  0
  -22.7101  -18.4485   19.7657 C   0  0  0  0  0  0  0  0  0  0  0  0
  -32.2473  -27.9109   18.8436 C   0  0  0  0  0  0  0  0  0  0  0  0
  -32.8534  -27.3976   16.1694 C   0  0  0  0  0  0  0  0  0  0  0  0
  -31.9140  -26.6808   18.2767 C   0  0  0  0  0  0  0  0  0  0  0  0
  -26.5721  -27.9654   21.7018 C   0  0  0  0  0  0  0  0  0  0  0  0
  -18.1334  -22.6611   21.6397 C   0  0  0  0  0  0  0  0  0  0  0  0
  -18.2348  -25.2905   22.0902 C   0  0  0  0  0  0  0  0  0  0  0  0
  -24.6046  -28.3923   22.5860 C   0  0  0  0  0  0  0  0  0  0  0  0
  -26.3577  -30.0851   23.1425 C   0  0  0  0  0  0  0  0  0  0  0  0
  -27.3627  -15.6530   19.8196 C   0  0  0  0  0  0  0  0  0  0  0  0
  -28.8835  -18.3995   20.6357 C   0  0  0  0  0  0  0  0  0  0  0  0
  -28.6638  -21.7258   21.3665 C   0  0  0  0  0  0  0  0  0  0  0  0
  -20.2389  -26.2425   19.6473 C   0  0  0  0  0  0  0  0  0  0  0  0
  -30.3225  -11.5436   19.1790 C   0  0  0  0  0  0  0  0  0  0  0  0
  -26.4844  -17.2510   18.0786 C   0  0  0  0  0  0  0  0  0  0  0  0
  -26.3656  -18.4135   20.7951 C   0  0  0  0  0  0  0  0  0  0  0  0
  -30.3502  -12.7804   20.0734 C   0  0  0  0  0  0  0  0  0  0  0  0
  -22.6952  -23.9350   21.1782 C   0  0  0  0  0  0  0  0  0  0  0  0
  -28.9923  -12.9908   20.7357 C   0  0  0  0  0  0  0  0  0  0  0  0
  -23.8886  -24.8500   21.4479 C   0  0  0  0  0  0  0  0  0  0  0  0
  -21.8660  -24.4191   19.9926 C   0  0  0  0  0  0  0  0  0  0  0  0
  -22.6055  -26.7463   20.3812 C   0  0  0  0  0  0  0  0  0  0  0  0
  -27.8980  -13.2267   19.6877 C   0  0  1  0  0  0  0  0  0  0  0  0
  -27.5619  -16.9682   19.1210 C   0  0  1  0  0  0  0  0  0  0  0  0
  -23.4354  -26.3126   21.5987 C   0  0  2  0  0  0  0  0  0  0  0  0
  -19.4834  -29.3666   18.9821 C   0  0  0  0  0  0  0  0  0  0  0  0
  -30.0717  -23.6938   22.0316 C   0  0  0  0  0  0  0  0  0  0  0  0
  -29.0566  -17.3110   23.4809 C   0  0  0  0  0  0  0  0  0  0  0  0
  -29.5807  -19.6312   24.2622 C   0  0  0  0  0  0  0  0  0  0  0  0
  -31.1222  -18.4716   22.6805 C   0  0  0  0  0  0  0  0  0  0  0  0
  -27.9350  -23.2218   18.9190 C   0  0  0  0  0  0  0  0  0  0  0  0
  -18.0688  -21.1783   21.3732 C   0  0  0  0  0  0  0  0  0  0  0  0
  -18.2982  -26.7544   22.3536 C   0  0  0  0  0  0  0  0  0  0  0  0
  -19.2599  -20.6407   20.5722 C   0  0  0  0  0  0  0  0  0  0  0  0
  -19.1387  -19.1516   20.2458 C   0  0  0  0  0  0  0  0  0  0  0  0
  -18.7290  -28.1901   19.5676 C   0  0  0  0  0  0  0  0  0  0  0  0
  -19.5444  -27.4329   21.7693 C   0  0  0  0  0  0  0  0  0  0  0  0
  -20.3567  -18.6450   19.4853 C   0  0  0  0  0  0  0  0  0  1  0  0
  -28.8848  -19.3019   21.8460 C   0  0  1  0  0  0  0  0  0  0  0  0
  -29.4606  -22.9202   20.8736 C   0  0  2  0  0  0  0  0  0  0  0  0
  -29.6372  -18.6736   23.0529 C   0  0  0  0  0  0  0  0  0  0  0  0
  -18.7505  -23.0647   22.7679 N   0  0  0  0  0  0  0  0  0  0  0  0
  -17.6174  -24.8869   20.9622 N   0  0  0  0  0  0  0  0  0  0  0  0
  -25.7950  -26.9601   21.2900 N   0  0  0  0  0  0  0  0  0  0  0  0
  -24.6049  -27.2479   21.8441 N   0  0  0  0  0  0  0  0  0  0  0  0
  -27.6272  -17.9980   20.1600 N   0  0  0  0  0  0  0  0  0  0  0  0
  -21.4854  -25.8241   20.1413 N   0  0  0  0  0  0  0  0  0  0  0  0
  -23.4911  -28.8284   23.2122 N   0  0  0  0  0  0  0  0  0  0  0  0
  -27.6995  -30.4480   22.9635 N   0  0  0  0  0  0  0  0  0  0  0  0
  -27.9632  -14.5823   19.1852 N   0  0  0  0  0  0  0  0  0  0  0  0
  -29.4300  -20.5800   21.4016 N   0  0  0  0  0  0  0  0  0  0  0  0
  -19.6098  -27.3040   20.3152 N   0  0  0  0  0  0  0  0  0  0  0  0
  -28.5835  -23.8450   20.1014 N   0  3  0  0  0  0  0  0  0  0  0  0
  -25.6176  -30.8030   23.8569 O   0  0  0  0  0  0  0  0  0  0  0  0
  -26.7135  -15.6127   20.8582 O   0  0  0  0  0  0  0  0  0  0  0  0
  -29.9575  -18.0690   20.1267 O   0  0  0  0  0  0  0  0  0  0  0  0
  -27.4810  -21.8025   21.6916 O   0  0  0  0  0  0  0  0  0  0  0  0
  -19.7138  -25.6920   18.6710 O   0  0  0  0  0  0  0  0  0  0  0  0
  -31.9463  -28.1676   20.1707 O   0  0  0  0  0  0  0  0  0  0  0  0
  -21.5165  -18.8314   20.2954 O   0  0  0  0  0  0  0  0  0  1  0  0
  -33.1431  -27.1518   14.8850 F   0  0  0  0  0  0  0  0  0  0  0  0
  -31.3016  -25.7421   19.0113 F   0  0  0  0  0  0  0  0  0  0  0  0
  1  2  1  0  0  0  0
  1  5  2  0  0  0  0
  2  6  2  0  0  0  0
  3  8  2  0  0  0  0
  3 17  1  0  0  0  0
  4  9  1  0  0  0  0
  4 17  2  0  0  0  0
  5 19  1  0  0  0  0
  6 21  1  0  0  0  0
  7 10  2  0  0  0  0
  7 20  1  0  0  0  0
  8 23  1  0  0  0  0
  9 23  2  0  0  0  0
 10 24  1  0  0  0  0
 11 12  2  0  0  0  0
 11 25  1  0  0  0  0
 12 26  1  0  0  0  0
 13 22  1  0  0  0  0
 13 24  2  0  0  0  0
 14 26  2  0  0  0  0
 14 27  1  0  0  0  0
 15 29  2  0  0  0  0
 15 66  1  0  0  0  0
 16 30  1  0  0  0  0
 16 65  2  0  0  0  0
 17 28  1  0  0  0  0
 18 28  1  0  0  0  0
 18 31  2  0  0  0  0
 18 32  1  0  0  0  0
 19 21  2  0  0  0  0
 19 37  1  0  0  0  0
 20 22  2  0  0  0  0
 20 38  1  0  0  0  0
 21 46  1  0  0  0  0
 22 39  1  0  0  0  0
 23 82  1  0  0  0  0
 24 83  1  0  0  0  0
 25 27  2  0  0  0  0
 25 82  1  0  0  0  0
 26 84  1  0  0  0  0
 27 85  1  0  0  0  0
 28 67  2  0  0  0  0
 29 55  1  0  0  0  0
 29 65  1  0  0  0  0
 30 56  1  0  0  0  0
 30 66  2  0  0  0  0
 31 68  1  0  0  0  0
 31 71  1  0  0  0  0
 32 72  1  0  0  0  0
 32 77  2  0  0  0  0
 33 47  1  0  0  0  0
 33 73  1  0  0  0  0
 33 78  2  0  0  0  0
 34 62  1  0  0  0  0
 34 69  1  0  0  0  0
 34 79  2  0  0  0  0
 35 63  1  0  0  0  0
 35 74  1  0  0  0  0
 35 80  2  0  0  0  0
 36 70  1  0  0  0  0
 36 75  1  0  0  0  0
 36 81  2  0  0  0  0
 37 40  1  0  0  0  0
 38 47  1  0  0  0  0
 39 69  1  0  0  0  0
 40 42  1  0  0  0  0
 41 43  1  0  0  0  0
 41 44  1  0  0  0  0
 42 46  1  0  0  0  0
 43 48  1  0  0  0  0
 44 70  1  0  0  0  0
 45 48  1  0  0  0  0
 45 70  1  0  0  0  0
 46 73  1  0  0  0  0
 47 69  1  0  0  0  0
 48 68  1  0  0  0  0
 49 59  1  0  0  0  0
 50 63  1  0  0  0  0
 51 64  1  0  0  0  0
 52 64  1  0  0  0  0
 53 64  1  0  0  0  0
 54 76  1  0  0  0  0
 55 57  1  0  0  0  0
 56 60  1  0  0  0  0
 57 58  1  0  0  0  0
 58 61  1  0  0  0  0
 59 75  1  0  0  0  0
 60 75  1  0  0  0  0
 61 83  1  0  0  0  0
 62 64  1  0  0  0  0
 62 74  1  0  0  0  0
 63 76  1  0  0  0  0
 67 68  1  0  0  0  0
M  CHG  1  76   1
M  ISO  4  36 100  61 101  75 100  83 101
M  END
> <Batch ID>
0049

> <Smiles>
CC[100N:0](CCc1cnc(CCC[101CH2:1][101O:1]c2ccc3c(c2)CN(C(=O)C(NC(=O)C(C)NC)C(C)(C)C)C(C(=O)NC2CCCc4ccccc42)C3)cn1)[100C:0](=O)N1CCCC(n2nc(-c3ccc(Oc4ccc(F)cc4F)cc3)c(C(N)=O)c2N)C1

> <Shape>
0.200

> <Color>
0.052

> <Negative vol penalty>
0.000

$$$$

  -OEChem-04052317293D

 87 95  0     1  0  0  0  0  0999 V2000
  -27.5732  -33.3735   26.8139 C   0  0  0  0  0  0  0  0  0  0  0  0
  -27.7999  -32.2343   26.0482 C   0  0  0  0  0  0  0  0  0  0  0  0
  -22.2102  -18.1887   20.4141 C   0  0  0  0  0  0  0  0  0  0  0  0
  -24.5102  -17.4492   20.3959 C   0  0  0  0  0  0  0  0  0  0  0  0
  -26.2689  -33.7520   27.1292 C   0  0  0  0  0  0  0  0  0  0  0  0
  -26.7223  -31.4723   25.5982 C   0  0  0  0  0  0  0  0  0  0  0  0
  -27.1871  -30.1308   20.7372 C   0  0  0  0  0  0  0  0  0  0  0  0
  -31.0301  -24.9346   18.5048 C   0  0  0  0  0  0  0  0  0  0  0  0
  -21.7857  -16.8653   20.5328 C   0  0  0  0  0  0  0  0  0  0  0  0
  -24.0856  -16.1258   20.5147 C   0  0  0  0  0  0  0  0  0  0  0  0
  -28.0470  -29.0722   20.4483 C   0  0  0  0  0  0  0  0  0  0  0  0
  -22.8272  -13.7225   18.4969 C   0  0  0  0  0  0  0  0  0  0  0  0
  -23.4312  -12.7718   17.6741 C   0  0  0  0  0  0  0  0  0  0  0  0
  -31.0956  -24.1305   17.3724 C   0  0  0  0  0  0  0  0  0  0  0  0
  -26.1543  -27.5846   20.2940 C   0  0  0  0  0  0  0  0  0  0  0  0
  -24.2010  -11.5724   19.6250 C   0  0  0  0  0  0  0  0  0  0  0  0
  -23.5725  -18.4806   20.3456 C   0  0  0  0  0  0  0  0  0  0  0  0
  -24.3080  -20.7426   21.2675 C   0  0  0  0  0  0  0  0  0  0  0  0
  -25.1744  -32.9996   26.6747 C   0  0  0  0  0  0  0  0  0  0  0  0
  -25.8028  -29.9217   20.8176 C   0  0  0  0  0  0  0  0  0  0  0  0
  -25.4022  -31.8403   25.9088 C   0  0  0  0  0  0  0  0  0  0  0  0
  -25.2787  -28.6428   20.5816 C   0  0  0  0  0  0  0  0  0  0  0  0
  -30.2474  -24.5422   19.5849 C   0  0  0  0  0  0  0  0  0  0  0  0
  -22.7233  -15.8339   20.5832 C   0  0  0  0  0  0  0  0  0  0  0  0
  -27.5310  -27.7983   20.2294 C   0  0  0  0  0  0  0  0  0  0  0  0
  -22.9102  -13.5982   19.8838 C   0  0  0  0  0  0  0  0  0  0  0  0
  -24.1181  -11.6968   18.2382 C   0  0  0  0  0  0  0  0  0  0  0  0
  -23.5971  -12.5232   20.4478 C   0  0  0  0  0  0  0  0  0  0  0  0
  -24.0117  -19.8473   20.2223 C   0  0  0  0  0  0  0  0  0  0  0  0
  -30.3652  -22.9530   17.3700 C   0  0  0  0  0  0  0  0  0  0  0  0
  -29.5548  -23.3465   19.4834 C   0  0  0  0  0  0  0  0  0  0  0  0
  -24.6769  -21.9028   20.6317 C   0  0  0  0  0  0  0  0  0  0  0  0
  -24.2547  -20.5432   22.6864 C   0  0  0  0  0  0  0  0  0  0  0  0
  -23.6181  -30.2219   23.1069 C   0  0  0  0  0  0  0  0  0  0  0  0
  -21.5610  -29.5342   20.6949 C   0  0  0  0  0  0  0  0  0  0  0  0
  -21.0528  -28.0957   17.6421 C   0  0  0  0  0  0  0  0  0  0  0  0
  -26.9419  -23.0361   15.2062 C   0  0  0  0  0  0  0  0  0  0  0  0
  -23.7846  -33.4218   27.0806 C   0  0  0  0  0  0  0  0  0  0  0  0
  -24.8863  -31.0796   21.1039 C   0  0  0  0  0  0  0  0  0  0  0  0
  -23.7985  -28.3698   20.6363 C   0  0  0  0  0  0  0  0  0  0  0  0
  -22.6827  -32.7691   26.2499 C   0  0  0  0  0  0  0  0  0  0  0  0
  -23.9388  -24.3556   16.5907 C   0  0  0  0  0  0  0  0  0  0  0  0
  -22.9360  -31.2715   26.1094 C   0  0  0  0  0  0  0  0  0  0  0  0
  -23.6437  -23.4306   17.7727 C   0  0  0  0  0  0  0  0  0  0  0  0
  -24.5365  -23.5913   15.4115 C   0  0  0  0  0  0  0  0  0  0  0  0
  -25.4322  -21.8590   16.9183 C   0  0  0  0  0  0  0  0  0  0  0  0
  -24.2583  -31.0016   25.3813 C   0  0  1  0  0  0  0  0  0  0  0  0
  -23.5364  -30.6477   21.6683 C   0  0  1  0  0  0  0  0  0  0  0  0
  -24.8801  -22.5935   18.1520 C   0  0  2  0  0  0  0  0  0  0  0  0
  -19.2571  -27.6603   15.9440 C   0  0  0  0  0  0  0  0  0  0  0  0
  -20.4460  -27.3013   22.4501 C   0  0  0  0  0  0  0  0  0  0  0  0
  -19.3679  -26.3305   20.4096 C   0  0  0  0  0  0  0  0  0  0  0  0
  -18.7180  -28.6060   21.1987 C   0  0  0  0  0  0  0  0  0  0  0  0
  -22.4699  -29.6640   15.5706 C   0  0  0  0  0  0  0  0  0  0  0  0
  -30.2629  -18.7661   20.2495 C   0  0  0  0  0  0  0  0  0  0  0  0
  -28.3267  -19.5203   21.6217 C   0  0  0  0  0  0  0  0  0  0  0  0
  -30.1713  -25.4116   20.8165 C   0  0  0  0  0  0  0  0  0  0  0  0
  -30.4138  -22.0650   16.1715 C   0  0  0  0  0  0  0  0  0  0  0  0
  -28.7008  -22.8733   20.6137 C   0  0  0  0  0  0  0  0  0  0  0  0
  -29.4798  -22.2049   21.7621 C   0  0  0  0  0  0  0  0  0  0  0  0
  -29.3346  -22.3814   15.1297 C   0  0  0  0  0  0  0  0  0  0  0  0
  -30.3168  -20.9941   21.3607 C   0  0  0  0  0  0  0  0  0  0  0  0
  -29.6819  -26.8211   20.5020 C   0  0  0  0  0  0  0  0  0  1  0  0
  -20.9774  -28.2681   20.1158 C   0  0  1  0  0  0  0  0  0  0  0  0
  -20.3612  -28.6059   16.3908 C   0  0  2  0  0  0  0  0  0  0  0  0
  -19.9054  -27.6309   21.0443 C   0  0  0  0  0  0  0  0  0  0  0  0
  -24.1778  -20.3921   19.0141 N   0  0  0  0  0  0  0  0  0  0  0  0
  -29.5938  -22.5388   18.4000 N   0  0  0  0  0  0  0  0  0  0  0  0
  -24.5825  -21.6422   19.2963 N   0  0  0  0  0  0  0  0  0  0  0  0
  -22.9439  -29.5332   20.9260 N   0  0  0  0  0  0  0  0  0  0  0  0
  -25.7062  -22.8194   15.8379 N   0  0  0  0  0  0  0  0  0  0  0  0
  -25.0695  -23.1103   21.0902 N   0  0  0  0  0  0  0  0  0  0  0  0
  -23.8548  -19.2902   23.1704 N   0  0  0  0  0  0  0  0  0  0  0  0
  -24.1002  -31.1993   23.9564 N   0  0  0  0  0  0  0  0  0  0  0  0
  -20.4863  -28.6156   18.7867 N   0  0  0  0  0  0  0  0  0  0  0  0
  -28.0003  -22.2677   15.6752 N   0  0  0  0  0  0  0  0  0  0  0  0
  -21.3415  -28.7435   15.2767 N   0  3  0  0  0  0  0  0  0  0  0  0
  -29.4676  -19.9550   20.7332 N   0  3  0  0  0  0  0  0  0  0  0  0
  -24.5370  -21.4545   23.5009 O   0  0  0  0  0  0  0  0  0  0  0  0
  -23.2682  -29.0908   23.4230 O   0  0  0  0  0  0  0  0  0  0  0  0
  -20.8184  -30.4915   20.9267 O   0  0  0  0  0  0  0  0  0  0  0  0
  -21.9984  -27.3114   17.6078 O   0  0  0  0  0  0  0  0  0  0  0  0
  -27.0921  -23.8577   14.2954 O   0  0  0  0  0  0  0  0  0  0  0  0
  -22.3094  -14.5425   20.6993 O   0  0  0  0  0  0  0  0  0  0  0  0
  -28.3682  -26.7631   19.9479 O   0  0  0  0  0  0  0  0  0  1  0  0
  -24.6967  -10.7830   17.4479 F   0  0  0  0  0  0  0  0  0  0  0  0
  -23.6792  -12.3978   21.7795 F   0  0  0  0  0  0  0  0  0  0  0  0
  1  2  1  0  0  0  0
  1  5  2  0  0  0  0
  2  6  2  0  0  0  0
  3  9  2  0  0  0  0
  3 17  1  0  0  0  0
  4 10  1  0  0  0  0
  4 17  2  0  0  0  0
  5 19  1  0  0  0  0
  6 21  1  0  0  0  0
  7 11  2  0  0  0  0
  7 20  1  0  0  0  0
  8 14  2  0  0  0  0
  8 23  1  0  0  0  0
  9 24  1  0  0  0  0
 10 24  2  0  0  0  0
 11 25  1  0  0  0  0
 12 13  2  0  0  0  0
 12 26  1  0  0  0  0
 13 27  1  0  0  0  0
 14 30  1  0  0  0  0
 15 22  1  0  0  0  0
 15 25  2  0  0  0  0
 16 27  2  0  0  0  0
 16 28  1  0  0  0  0
 17 29  1  0  0  0  0
 18 29  1  0  0  0  0
 18 32  2  0  0  0  0
 18 33  1  0  0  0  0
 19 21  2  0  0  0  0
 19 38  1  0  0  0  0
 20 22  2  0  0  0  0
 20 39  1  0  0  0  0
 21 47  1  0  0  0  0
 22 40  1  0  0  0  0
 23 31  2  0  0  0  0
 23 57  1  0  0  0  0
 24 84  1  0  0  0  0
 25 85  1  0  0  0  0
 26 28  2  0  0  0  0
 26 84  1  0  0  0  0
 27 86  1  0  0  0  0
 28 87  1  0  0  0  0
 29 67  2  0  0  0  0
 30 58  1  0  0  0  0
 30 68  2  0  0  0  0
 31 59  1  0  0  0  0
 31 68  1  0  0  0  0
 32 69  1  0  0  0  0
 32 72  1  0  0  0  0
 33 73  1  0  0  0  0
 33 79  2  0  0  0  0
 34 48  1  0  0  0  0
 34 74  1  0  0  0  0
 34 80  2  0  0  0  0
 35 64  1  0  0  0  0
 35 70  1  0  0  0  0
 35 81  2  0  0  0  0
 36 65  1  0  0  0  0
 36 75  1  0  0  0  0
 36 82  2  0  0  0  0
 37 71  1  0  0  0  0
 37 76  1  0  0  0  0
 37 83  2  0  0  0  0
 38 41  1  0  0  0  0
 39 48  1  0  0  0  0
 40 70  1  0  0  0  0
 41 43  1  0  0  0  0
 42 44  1  0  0  0  0
 42 45  1  0  0  0  0
 43 47  1  0  0  0  0
 44 49  1  0  0  0  0
 45 71  1  0  0  0  0
 46 49  1  0  0  0  0
 46 71  1  0  0  0  0
 47 74  1  0  0  0  0
 48 70  1  0  0  0  0
 49 69  1  0  0  0  0
 50 65  1  0  0  0  0
 51 66  1  0  0  0  0
 52 66  1  0  0  0  0
 53 66  1  0  0  0  0
 54 77  1  0  0  0  0
 55 78  1  0  0  0  0
 56 78  1  0  0  0  0
 57 63  1  0  0  0  0
 58 61  1  0  0  0  0
 59 60  1  0  0  0  0
 60 62  1  0  0  0  0
 61 76  1  0  0  0  0
 62 78  1  0  0  0  0
 63 85  1  0  0  0  0
 64 66  1  0  0  0  0
 64 75  1  0  0  0  0
 65 77  1  0  0  0  0
 67 69  1  0  0  0  0
M  CHG  2  77   1  78   1
M  ISO  4  37 100  63 101  76 100  85 101
M  END
> <Batch ID>
0049

> <Smiles>
CNC(C)C(=O)NC(C(=O)N1Cc2cc([101O:1][101CH2:1]Cc3ccc(CC[100NH:0][100C:0](=O)N4CCCC(n5nc(-c6ccc(Oc7ccc(F)cc7F)cc6)c(C(N)=O)c5N)C4)nc3CCCN(C)C)ccc2CC1C(=O)NC1CCCc2ccccc21)C(C)(C)C

> <Shape>
0.232

> <Color>
0.085

> <Negative vol penalty>
0.000

$$$$

  -OEChem-04052317293D

 88 96  0     1  0  0  0  0  0999 V2000
  -27.9762  -37.8220   25.5734 C   0  0  0  0  0  0  0  0  0  0  0  0
  -28.5835  -36.7489   24.9293 C   0  0  0  0  0  0  0  0  0  0  0  0
  -23.8240   -9.8636   21.9605 C   0  0  0  0  0  0  0  0  0  0  0  0
  -24.4844  -11.1367   23.9047 C   0  0  0  0  0  0  0  0  0  0  0  0
  -26.7937  -37.6274   26.2859 C   0  0  0  0  0  0  0  0  0  0  0  0
  -28.0091  -35.4801   24.9982 C   0  0  0  0  0  0  0  0  0  0  0  0
  -28.0118  -31.1952   20.6226 C   0  0  0  0  0  0  0  0  0  0  0  0
  -23.3258   -8.8577   22.7884 C   0  0  0  0  0  0  0  0  0  0  0  0
  -23.9861  -10.1308   24.7327 C   0  0  0  0  0  0  0  0  0  0  0  0
  -28.8064  -30.0690   20.4131 C   0  0  0  0  0  0  0  0  0  0  0  0
  -20.5559   -8.3056   24.6474 C   0  0  0  0  0  0  0  0  0  0  0  0
  -19.3047   -7.7722   24.3384 C   0  0  0  0  0  0  0  0  0  0  0  0
  -27.1427  -28.7006   21.4987 C   0  0  0  0  0  0  0  0  0  0  0  0
  -30.9846  -17.0250   21.4329 C   0  0  0  0  0  0  0  0  0  0  0  0
  -20.2999   -5.5853   24.0844 C   0  0  0  0  0  0  0  0  0  0  0  0
  -29.1436  -16.2365   22.4619 C   0  0  0  0  0  0  0  0  0  0  0  0
  -24.4034  -11.0031   22.5187 C   0  0  0  0  0  0  0  0  0  0  0  0
  -24.2207  -13.1603   21.1692 C   0  0  0  0  0  0  0  0  0  0  0  0
  -26.1993  -36.3575   26.3555 C   0  0  0  0  0  0  0  0  0  0  0  0
  -26.7794  -31.0841   21.2825 C   0  0  0  0  0  0  0  0  0  0  0  0
  -26.8182  -35.2680   25.7134 C   0  0  0  0  0  0  0  0  0  0  0  0
  -26.3331  -29.8265   21.7130 C   0  0  0  0  0  0  0  0  0  0  0  0
  -30.3717  -15.8627   21.9625 C   0  0  0  0  0  0  0  0  0  0  0  0
  -23.4068   -8.9913   24.1745 C   0  0  0  0  0  0  0  0  0  0  0  0
  -28.3733  -28.8219   20.8537 C   0  0  0  0  0  0  0  0  0  0  0  0
  -21.6791   -7.4790   24.6749 C   0  0  0  0  0  0  0  0  0  0  0  0
  -19.1767   -6.4120   24.0569 C   0  0  0  0  0  0  0  0  0  0  0  0
  -21.5511   -6.1188   24.3934 C   0  0  0  0  0  0  0  0  0  0  0  0
  -24.9187  -12.0423   21.6639 C   0  0  0  0  0  0  0  0  0  0  0  0
  -30.1125  -18.0737   21.6249 C   0  0  0  0  0  0  0  0  0  0  0  0
  -25.1468  -13.8363   20.4131 C   0  0  0  0  0  0  0  0  0  0  0  0
  -22.8571  -13.5527   21.3749 C   0  0  0  0  0  0  0  0  0  0  0  0
  -25.5608  -32.2617   23.9717 C   0  0  0  0  0  0  0  0  0  0  0  0
  -31.1524  -13.9559   20.5871 C   0  0  0  0  0  0  0  0  0  0  0  0
  -22.8442  -30.8496   22.9000 C   0  0  0  0  0  0  0  0  0  0  0  0
  -21.4020  -28.4470   20.9521 C   0  0  0  0  0  0  0  0  0  0  0  0
  -24.9461  -36.1866   27.1770 C   0  0  0  0  0  0  0  0  0  0  0  0
  -25.9218  -32.3043   21.4769 C   0  0  0  0  0  0  0  0  0  0  0  0
  -25.0089  -29.6504   22.4086 C   0  0  0  0  0  0  0  0  0  0  0  0
  -24.2015  -34.8856   26.8888 C   0  0  0  0  0  0  0  0  0  0  0  0
  -29.0741  -13.1394   17.7846 C   0  0  0  0  0  0  0  0  0  0  0  0
  -25.1730  -33.7100   26.8586 C   0  0  0  0  0  0  0  0  0  0  0  0
  -27.7169  -12.8395   18.4195 C   0  0  0  0  0  0  0  0  0  0  0  0
  -30.2223  -12.6854   18.6805 C   0  0  0  0  0  0  0  0  0  0  0  0
  -28.8178  -12.9519   20.7000 C   0  0  0  0  0  0  0  0  0  0  0  0
  -26.2124  -33.8816   25.7442 C   0  0  1  0  0  0  0  0  0  0  0  0
  -24.9194  -32.1546   22.6171 C   0  0  1  0  0  0  0  0  0  0  0  0
  -27.6307  -13.4226   19.8411 C   0  0  2  0  0  0  0  0  0  0  0  0
  -26.6673  -18.1466   21.6874 C   0  0  0  0  0  0  0  0  0  0  0  0
  -32.2714  -14.3916   22.7496 C   0  0  0  0  0  0  0  0  0  0  0  0
  -19.1630  -27.5124   20.3112 C   0  0  0  0  0  0  0  0  0  0  0  0
  -22.6692  -29.4278   25.5940 C   0  0  0  0  0  0  0  0  0  0  0  0
  -21.0223  -27.8430   24.5721 C   0  0  0  0  0  0  0  0  0  0  0  0
  -20.4854  -30.2747   24.7177 C   0  0  0  0  0  0  0  0  0  0  0  0
  -21.8065  -29.1236   18.0994 C   0  0  0  0  0  0  0  0  0  0  0  0
  -32.7556  -24.8628   23.4876 C   0  0  0  0  0  0  0  0  0  0  0  0
  -30.2533  -19.5290   21.2560 C   0  0  0  0  0  0  0  0  0  0  0  0
  -30.8974  -20.3863   22.3515 C   0  0  0  0  0  0  0  0  0  0  0  0
  -30.9616  -21.8732   21.9895 C   0  0  0  0  0  0  0  0  0  0  0  0
  -30.3884  -25.9561   21.6988 C   0  0  0  0  0  0  0  0  0  0  0  0
  -27.8343  -18.3517   22.6379 C   0  0  0  0  0  0  0  0  0  0  0  0
  -31.6380  -22.6728   23.0940 C   0  0  0  0  0  0  0  0  0  0  0  0
  -30.4008  -24.7938   22.6802 C   0  0  0  0  0  0  0  0  0  0  0  0
  -29.0450  -26.6697   21.6104 C   0  0  0  0  0  0  0  0  0  1  0  0
  -30.9422  -14.5022   21.9769 C   0  0  1  0  0  0  0  0  0  0  0  0
  -22.2165  -29.4852   23.0528 C   0  0  1  0  0  0  0  0  0  0  0  0
  -20.2558  -28.5096   19.9587 C   0  0  2  0  0  0  0  0  0  0  0  0
  -21.6242  -29.2610   24.4728 C   0  0  0  0  0  0  0  0  0  0  0  0
  -26.1901  -12.0065   21.2562 N   0  0  0  0  0  0  0  0  0  0  0  0
  -28.9969  -17.5827   22.2514 N   0  0  0  0  0  0  0  0  0  0  0  0
  -26.2983  -13.1103   20.4972 N   0  0  0  0  0  0  0  0  0  0  0  0
  -24.2092  -30.8745   22.5809 N   0  0  0  0  0  0  0  0  0  0  0  0
  -30.0920  -13.2425   20.0281 N   0  0  0  0  0  0  0  0  0  0  0  0
  -25.0804  -14.9749   19.6909 N   0  0  0  0  0  0  0  0  0  0  0  0
  -22.0433  -12.7440   22.1799 N   0  0  0  0  0  0  0  0  0  0  0  0
  -25.6343  -33.5526   24.4589 N   0  0  0  0  0  0  0  0  0  0  0  0
  -21.2435  -29.3601   21.9730 N   0  0  0  0  0  0  0  0  0  0  0  0
  -20.7444  -28.2050   18.5842 N   0  3  0  0  0  0  0  0  0  0  0  0
  -31.7211  -24.1211   22.6758 N   0  3  1  0  0  0  0  0  0  0  0  0
  -22.3701  -14.5809   20.8467 O   0  0  0  0  0  0  0  0  0  0  0  0
  -25.9581  -31.2479   24.5339 O   0  0  0  0  0  0  0  0  0  0  0  0
  -32.2267  -14.1607   20.0159 O   0  0  0  0  0  0  0  0  0  0  0  0
  -22.1472  -31.8562   23.0509 O   0  0  0  0  0  0  0  0  0  0  0  0
  -22.3419  -27.6636   20.8361 O   0  0  0  0  0  0  0  0  0  0  0  0
  -22.9205   -8.0100   24.9826 O   0  0  0  0  0  0  0  0  0  0  0  0
  -29.1473  -27.7211   20.6511 O   0  0  0  0  0  0  0  0  0  1  0  0
  -17.9748   -5.8995   23.7617 F   0  0  0  0  0  0  0  0  0  0  0  0
  -22.6263   -5.3194   24.4195 F   0  0  0  0  0  0  0  0  0  0  0  0
  1  2  1  0  0  0  0
  1  5  2  0  0  0  0
  2  6  2  0  0  0  0
  3  8  2  0  0  0  0
  3 17  1  0  0  0  0
  4  9  1  0  0  0  0
  4 17  2  0  0  0  0
  5 19  1  0  0  0  0
  6 21  1  0  0  0  0
  7 10  2  0  0  0  0
  7 20  1  0  0  0  0
  8 24  1  0  0  0  0
  9 24  2  0  0  0  0
 10 25  1  0  0  0  0
 11 12  2  0  0  0  0
 11 26  1  0  0  0  0
 12 27  1  0  0  0  0
 13 22  1  0  0  0  0
 13 25  2  0  0  0  0
 14 23  1  0  0  0  0
 14 30  2  0  0  0  0
 15 27  2  0  0  0  0
 15 28  1  0  0  0  0
 16 23  2  0  0  0  0
 16 70  1  0  0  0  0
 17 29  1  0  0  0  0
 18 29  1  0  0  0  0
 18 31  2  0  0  0  0
 18 32  1  0  0  0  0
 19 21  2  0  0  0  0
 19 37  1  0  0  0  0
 20 22  2  0  0  0  0
 20 38  1  0  0  0  0
 21 46  1  0  0  0  0
 22 39  1  0  0  0  0
 23 65  1  0  0  0  0
 24 85  1  0  0  0  0
 25 86  1  0  0  0  0
 26 28  2  0  0  0  0
 26 85  1  0  0  0  0
 27 87  1  0  0  0  0
 28 88  1  0  0  0  0
 29 69  2  0  0  0  0
 30 57  1  0  0  0  0
 30 70  1  0  0  0  0
 31 71  1  0  0  0  0
 31 74  1  0  0  0  0
 32 75  1  0  0  0  0
 32 80  2  0  0  0  0
 33 47  1  0  0  0  0
 33 76  1  0  0  0  0
 33 81  2  0  0  0  0
 34 65  1  0  0  0  0
 34 73  1  0  0  0  0
 34 82  2  0  0  0  0
 35 66  1  0  0  0  0
 35 72  1  0  0  0  0
 35 83  2  0  0  0  0
 36 67  1  0  0  0  0
 36 77  1  0  0  0  0
 36 84  2  0  0  0  0
 37 40  1  0  0  0  0
 38 47  1  0  0  0  0
 39 72  1  0  0  0  0
 40 42  1  0  0  0  0
 41 43  1  0  0  0  0
 41 44  1  0  0  0  0
 42 46  1  0  0  0  0
 43 48  1  0  0  0  0
 44 73  1  0  0  0  0
 45 48  1  0  0  0  0
 45 73  1  0  0  0  0
 46 76  1  0  0  0  0
 47 72  1  0  0  0  0
 48 71  1  0  0  0  0
 49 61  1  0  0  0  0
 50 65  1  0  0  0  0
 51 67  1  0  0  0  0
 52 68  1  0  0  0  0
 53 68  1  0  0  0  0
 54 68  1  0  0  0  0
 55 78  1  0  0  0  0
 56 79  1  0  0  0  0
 57 58  1  0  0  0  0
 58 59  1  0  0  0  0
 59 62  1  0  0  0  0
 60 63  1  0  0  0  0
 60 64  1  0  0  0  0
 61 70  1  0  0  0  0
 62 79  1  0  0  0  0
 63 79  1  0  0  0  0
 64 86  1  0  0  0  0
 66 68  1  0  0  0  0
 66 77  1  0  0  0  0
 67 78  1  0  0  0  0
 69 71  1  0  0  0  0
M  CHG  2  78   1  79   1
M  ISO  4  34 100  64 101  65 100  86 101
M  END
> <Batch ID>
0049

> <Smiles>
CCn1cc([100CH:0](C)[100C:0](=O)N2CCCC(n3nc(-c4ccc(Oc5ccc(F)cc5F)cc4)c(C(N)=O)c3N)C2)cc1CCCCN(C)CC[101CH2:1][101O:1]c1ccc2c(c1)CN(C(=O)C(NC(=O)C(C)NC)C(C)(C)C)C(C(=O)NC1CCCc3ccccc31)C2

> <Shape>
0.326

> <Color>
0.161

> <Negative vol penalty>
0.000

$$$$

  -OEChem-04052317293D

 85 93  0     1  0  0  0  0  0999 V2000
  -30.4321  -21.2048   18.5487 C   0  0  0  0  0  0  0  0  0  0  0  0
  -29.1303  -21.6220   18.2904 C   0  0  0  0  0  0  0  0  0  0  0  0
  -26.0308  -13.0924   21.5820 C   0  0  0  0  0  0  0  0  0  0  0  0
  -24.7734  -13.3683   19.5376 C   0  0  0  0  0  0  0  0  0  0  0  0
  -31.1376  -21.7490   19.6210 C   0  0  0  0  0  0  0  0  0  0  0  0
  -28.5329  -22.5831   19.1051 C   0  0  0  0  0  0  0  0  0  0  0  0
  -23.8586  -28.0049   18.8366 C   0  0  0  0  0  0  0  0  0  0  0  0
  -25.4308  -11.8494   21.7833 C   0  0  0  0  0  0  0  0  0  0  0  0
  -24.1734  -12.1253   19.7388 C   0  0  0  0  0  0  0  0  0  0  0  0
  -22.7023  -28.4623   19.4670 C   0  0  0  0  0  0  0  0  0  0  0  0
  -22.0422   -9.1855   19.8993 C   0  0  0  0  0  0  0  0  0  0  0  0
  -20.6650   -9.0905   19.6999 C   0  0  0  0  0  0  0  0  0  0  0  0
  -18.4114  -26.6713   21.9169 C   0  0  0  0  0  0  0  0  0  0  0  0
  -24.0450  -29.3904   21.2432 C   0  0  0  0  0  0  0  0  0  0  0  0
  -20.3012  -10.7426   21.4247 C   0  0  0  0  0  0  0  0  0  0  0  0
  -18.7276  -28.0116   21.9449 C   0  0  0  0  0  0  0  0  0  0  0  0
  -25.7020  -13.8519   20.4592 C   0  0  0  0  0  0  0  0  0  0  0  0
  -27.5143  -15.4016   19.5527 C   0  0  0  0  0  0  0  0  0  0  0  0
  -30.5519  -22.7243   20.4435 C   0  0  0  0  0  0  0  0  0  0  0  0
  -25.1182  -28.2277   19.4112 C   0  0  0  0  0  0  0  0  0  0  0  0
  -29.2307  -23.1400   20.1903 C   0  0  0  0  0  0  0  0  0  0  0  0
  -25.2160  -28.9371   20.6168 C   0  0  0  0  0  0  0  0  0  0  0  0
  -19.1946  -26.0310   22.9087 C   0  0  0  0  0  0  0  0  0  0  0  0
  -24.5021  -11.3658   20.8617 C   0  0  0  0  0  0  0  0  0  0  0  0
  -22.7951  -29.1526   20.6719 C   0  0  0  0  0  0  0  0  0  0  0  0
  -22.5490  -10.0590   20.8615 C   0  0  0  0  0  0  0  0  0  0  0  0
  -19.7945   -9.8691   20.4626 C   0  0  0  0  0  0  0  0  0  0  0  0
  -21.6785  -10.8376   21.6242 C   0  0  0  0  0  0  0  0  0  0  0  0
  -26.3211  -15.1362   20.2510 C   0  0  0  0  0  0  0  0  0  0  0  0
  -19.9654  -26.9996   23.5128 C   0  0  0  0  0  0  0  0  0  0  0  0
  -27.6681  -16.7636   19.6410 C   0  0  0  0  0  0  0  0  0  0  0  0
  -28.4041  -14.4978   18.8840 C   0  0  0  0  0  0  0  0  0  0  0  0
  -27.4472  -26.3608   20.5041 C   0  0  0  0  0  0  0  0  0  0  0  0
  -29.0280  -29.1761   20.8154 C   0  0  0  0  0  0  0  0  0  0  0  0
  -28.8651  -32.5656   21.1789 C   0  0  0  0  0  0  0  0  0  0  0  0
  -23.7535  -21.1266   20.3450 C   0  0  0  0  0  0  0  0  0  0  0  0
  -31.3370  -23.2491   21.6194 C   0  0  0  0  0  0  0  0  0  0  0  0
  -26.3579  -27.7512   18.7051 C   0  0  0  0  0  0  0  0  0  0  0  0
  -26.5458  -29.2200   21.2648 C   0  0  0  0  0  0  0  0  0  0  0  0
  -30.7647  -24.5359   22.2085 C   0  0  0  0  0  0  0  0  0  0  0  0
  -26.6098  -20.4762   22.4701 C   0  0  0  0  0  0  0  0  0  0  0  0
  -29.2542  -24.4166   22.3847 C   0  0  0  0  0  0  0  0  0  0  0  0
  -26.9699  -19.0454   22.0661 C   0  0  0  0  0  0  0  0  0  0  0  0
  -25.0980  -20.6820   22.4868 C   0  0  0  0  0  0  0  0  0  0  0  0
  -24.7745  -18.9146   20.8001 C   0  0  0  0  0  0  0  0  0  0  0  0
  -28.5570  -24.1985   21.0364 C   0  0  1  0  0  0  0  0  0  0  0  0
  -27.5519  -27.5857   19.6402 C   0  0  1  0  0  0  0  0  0  0  0  0
  -26.2898  -18.6489   20.7423 C   0  0  2  0  0  0  0  0  0  0  0  0
  -20.9557  -26.8866   24.6048 C   0  0  0  0  0  0  0  0  0  0  0  0
  -30.3232  -34.5907   21.4441 C   0  0  0  0  0  0  0  0  0  0  0  0
  -29.5410  -28.4225   23.7272 C   0  0  0  0  0  0  0  0  0  0  0  0
  -30.1317  -30.8149   24.1697 C   0  0  0  0  0  0  0  0  0  0  0  0
  -31.4889  -29.4735   22.5630 C   0  0  0  0  0  0  0  0  0  0  0  0
  -27.8429  -33.7724   18.6774 C   0  0  0  0  0  0  0  0  0  0  0  0
  -19.0183  -22.3144   22.2316 C   0  0  0  0  0  0  0  0  0  0  0  0
  -19.1812  -24.5900   23.2295 C   0  0  0  0  0  0  0  0  0  0  0  0
  -21.3040  -23.3668   20.3720 C   0  0  0  0  0  0  0  0  0  0  0  0
  -20.2868  -29.5334   23.2696 C   0  0  0  0  0  0  0  0  0  0  0  0
  -22.7893  -23.3908   20.0277 C   0  0  0  0  0  0  0  0  0  0  0  0
  -21.0448  -23.7063   21.8343 C   0  0  0  0  0  0  0  0  0  0  0  0
  -21.6985  -29.6859   22.7138 C   0  0  0  0  0  0  0  0  0  1  0  0
  -29.1621  -30.2121   21.9052 C   0  0  1  0  0  0  0  0  0  0  0  0
  -29.5884  -33.6914   20.4622 C   0  0  2  0  0  0  0  0  0  0  0  0
  -30.0556  -29.7239   23.0803 C   0  0  0  0  0  0  0  0  0  0  0  0
  -25.7570  -16.2409   20.7464 N   0  0  0  0  0  0  0  0  0  0  0  0
  -19.6730  -28.1997   22.9191 N   0  0  0  0  0  0  0  0  0  0  0  0
  -26.5995  -17.2137   20.3591 N   0  0  0  0  0  0  0  0  0  0  0  0
  -27.7285  -28.7282   20.5390 N   0  0  0  0  0  0  0  0  0  0  0  0
  -24.5147  -20.3039   21.1919 N   0  0  0  0  0  0  0  0  0  0  0  0
  -28.6119  -17.6082   19.1736 N   0  0  0  0  0  0  0  0  0  0  0  0
  -28.0961  -13.1305   18.8898 N   0  0  0  0  0  0  0  0  0  0  0  0
  -28.4637  -25.4456   20.3081 N   0  0  0  0  0  0  0  0  0  0  0  0
  -29.6404  -31.4279   21.2561 N   0  0  0  0  0  0  0  0  0  0  0  0
  -23.5475  -22.4258   20.7925 N   0  0  0  0  0  0  0  0  0  0  0  0
  -28.6191  -34.5250   19.6963 N   0  3  0  0  0  0  0  0  0  0  0  0
  -19.5606  -23.7101   22.0819 N   0  3  1  0  0  0  0  0  0  0  0  0
  -29.4501  -14.8892   18.3128 O   0  0  0  0  0  0  0  0  0  0  0  0
  -26.5140  -26.2546   21.2912 O   0  0  0  0  0  0  0  0  0  0  0  0
  -30.0383  -28.7842   20.2260 O   0  0  0  0  0  0  0  0  0  0  0  0
  -27.7276  -32.6846   21.6289 O   0  0  0  0  0  0  0  0  0  0  0  0
  -23.2954  -20.7338   19.2666 O   0  0  0  0  0  0  0  0  0  0  0  0
  -23.9166  -10.1528   21.0577 O   0  0  0  0  0  0  0  0  0  0  0  0
  -21.6680  -29.5996   21.2897 O   0  0  0  0  0  0  0  0  0  1  0  0
  -18.4720   -9.7788   20.2699 F   0  0  0  0  0  0  0  0  0  0  0  0
  -22.1595  -11.6795   22.5492 F   0  0  0  0  0  0  0  0  0  0  0  0
  1  2  1  0  0  0  0
  1  5  2  0  0  0  0
  2  6  2  0  0  0  0
  3  8  2  0  0  0  0
  3 17  1  0  0  0  0
  4  9  1  0  0  0  0
  4 17  2  0  0  0  0
  5 19  1  0  0  0  0
  6 21  1  0  0  0  0
  7 10  2  0  0  0  0
  7 20  1  0  0  0  0
  8 24  1  0  0  0  0
  9 24  2  0  0  0  0
 10 25  1  0  0  0  0
 11 12  2  0  0  0  0
 11 26  1  0  0  0  0
 12 27  1  0  0  0  0
 13 16  2  0  0  0  0
 13 23  1  0  0  0  0
 14 22  1  0  0  0  0
 14 25  2  0  0  0  0
 15 27  2  0  0  0  0
 15 28  1  0  0  0  0
 16 66  1  0  0  0  0
 17 29  1  0  0  0  0
 18 29  1  0  0  0  0
 18 31  2  0  0  0  0
 18 32  1  0  0  0  0
 19 21  2  0  0  0  0
 19 37  1  0  0  0  0
 20 22  2  0  0  0  0
 20 38  1  0  0  0  0
 21 46  1  0  0  0  0
 22 39  1  0  0  0  0
 23 30  2  0  0  0  0
 23 56  1  0  0  0  0
 24 82  1  0  0  0  0
 25 83  1  0  0  0  0
 26 28  2  0  0  0  0
 26 82  1  0  0  0  0
 27 84  1  0  0  0  0
 28 85  1  0  0  0  0
 29 65  2  0  0  0  0
 30 49  1  0  0  0  0
 30 66  1  0  0  0  0
 31 67  1  0  0  0  0
 31 70  1  0  0  0  0
 32 71  1  0  0  0  0
 32 77  2  0  0  0  0
 33 47  1  0  0  0  0
 33 72  1  0  0  0  0
 33 78  2  0  0  0  0
 34 62  1  0  0  0  0
 34 68  1  0  0  0  0
 34 79  2  0  0  0  0
 35 63  1  0  0  0  0
 35 73  1  0  0  0  0
 35 80  2  0  0  0  0
 36 69  1  0  0  0  0
 36 74  1  0  0  0  0
 36 81  2  0  0  0  0
 37 40  1  0  0  0  0
 38 47  1  0  0  0  0
 39 68  1  0  0  0  0
 40 42  1  0  0  0  0
 41 43  1  0  0  0  0
 41 44  1  0  0  0  0
 42 46  1  0  0  0  0
 43 48  1  0  0  0  0
 44 69  1  0  0  0  0
 45 48  1  0  0  0  0
 45 69  1  0  0  0  0
 46 72  1  0  0  0  0
 47 68  1  0  0  0  0
 48 67  1  0  0  0  0
 50 63  1  0  0  0  0
 51 64  1  0  0  0  0
 52 64  1  0  0  0  0
 53 64  1  0  0  0  0
 54 75  1  0  0  0  0
 55 76  1  0  0  0  0
 56 76  1  0  0  0  0
 57 59  1  0  0  0  0
 57 60  1  0  0  0  0
 58 61  1  0  0  0  0
 58 66  1  0  0  0  0
 59 74  1  0  0  0  0
 60 76  1  0  0  0  0
 61 83  1  0  0  0  0
 62 64  1  0  0  0  0
 62 73  1  0  0  0  0
 63 75  1  0  0  0  0
 65 67  1  0  0  0  0
M  CHG  2  75   1  76   1
M  ISO  4  36 100  61 101  74 100  83 101
M  END
> <Batch ID>
0049

> <Smiles>
CNC(C)C(=O)NC(C(=O)N1Cc2cc([101O:1][101CH2:1]Cn3ccc(CN(C)CCC[100NH:0][100C:0](=O)N4CCCC(n5nc(-c6ccc(Oc7ccc(F)cc7F)cc6)c(C(N)=O)c5N)C4)c3C)ccc2CC1C(=O)NC1CCCc2ccccc21)C(C)(C)C

> <Shape>
0.235

> <Color>
0.056

> <Negative vol penalty>
0.000

$$$$

  -OEChem-04052317293D

 94103  0     1  0  0  0  0  0999 V2000
  -29.6296  -12.2718   16.3262 C   0  0  0  0  0  0  0  0  0  0  0  0
  -28.4715  -13.0406   16.2993 C   0  0  0  0  0  0  0  0  0  0  0  0
  -20.2819  -26.7187   22.3565 C   0  0  0  0  0  0  0  0  0  0  0  0
  -19.9533  -29.0023   23.0736 C   0  0  0  0  0  0  0  0  0  0  0  0
  -30.2904  -12.0559   17.5336 C   0  0  0  0  0  0  0  0  0  0  0  0
  -27.9807  -13.6038   17.4778 C   0  0  0  0  0  0  0  0  0  0  0  0
  -27.4941  -20.5120   20.9270 C   0  0  0  0  0  0  0  0  0  0  0  0
  -18.9035  -26.5674   22.2065 C   0  0  0  0  0  0  0  0  0  0  0  0
  -18.5748  -28.8510   22.9235 C   0  0  0  0  0  0  0  0  0  0  0  0
  -28.0128  -21.6792   20.3659 C   0  0  0  0  0  0  0  0  0  0  0  0
  -14.8649  -26.0553   21.7448 C   0  0  0  0  0  0  0  0  0  0  0  0
  -14.3903  -24.8181   21.3092 C   0  0  0  0  0  0  0  0  0  0  0  0
  -28.3261  -20.5388   18.2566 C   0  0  0  0  0  0  0  0  0  0  0  0
  -16.6560  -23.9858   21.2043 C   0  0  0  0  0  0  0  0  0  0  0  0
  -26.2040  -26.6320   19.4038 C   0  0  0  0  0  0  0  0  0  0  0  0
  -20.8068  -27.9361   22.7901 C   0  0  0  0  0  0  0  0  0  0  0  0
  -23.2239  -27.1247   22.7049 C   0  0  0  0  0  0  0  0  0  0  0  0
  -29.7998  -12.6066   18.7289 C   0  0  0  0  0  0  0  0  0  0  0  0
  -27.3749  -19.3566   20.1496 C   0  0  0  0  0  0  0  0  0  0  0  0
  -28.6467  -13.4172   18.7026 C   0  0  0  0  0  0  0  0  0  0  0  0
  -27.7957  -19.3702   18.8096 C   0  0  0  0  0  0  0  0  0  0  0  0
  -18.0499  -27.6335   22.4900 C   0  0  0  0  0  0  0  0  0  0  0  0
  -28.4280  -21.6924   19.0341 C   0  0  0  0  0  0  0  0  0  0  0  0
  -16.2351  -26.2577   21.9101 C   0  0  0  0  0  0  0  0  0  0  0  0
  -15.2858  -23.7834   21.0390 C   0  0  0  0  0  0  0  0  0  0  0  0
  -17.1306  -25.2230   21.6399 C   0  0  0  0  0  0  0  0  0  0  0  0
  -22.2307  -28.0929   22.9458 C   0  0  0  0  0  0  0  0  0  0  0  0
  -27.1067  -25.6209   19.6183 C   0  0  0  0  0  0  0  0  0  0  0  0
  -24.4040  -27.7630   22.9987 C   0  0  0  0  0  0  0  0  0  0  0  0
  -23.0915  -25.7696   22.2556 C   0  0  0  0  0  0  0  0  0  0  0  0
  -26.3089  -15.7637   19.9748 C   0  0  0  0  0  0  0  0  0  0  0  0
  -25.4549  -17.0759   17.3368 C   0  0  0  0  0  0  0  0  0  0  0  0
  -22.2279  -17.2021   19.1292 C   0  0  0  0  0  0  0  0  0  0  0  0
  -26.4299  -33.2295   22.3434 C   0  0  0  0  0  0  0  0  0  0  0  0
  -30.5590  -12.3476   20.0063 C   0  0  0  0  0  0  0  0  0  0  0  0
  -26.8791  -18.0598   20.7295 C   0  0  0  0  0  0  0  0  0  0  0  0
  -27.6809  -18.0942   18.0211 C   0  0  0  0  0  0  0  0  0  0  0  0
  -29.7259  -12.6099   21.2567 C   0  0  0  0  0  0  0  0  0  0  0  0
  -27.0575  -31.6107   17.5631 C   0  0  0  0  0  0  0  0  0  0  0  0
  -25.8083  -32.3225   18.0740 C   0  0  0  0  0  0  0  0  0  0  0  0
  -28.0616  -31.3522   18.6828 C   0  0  0  0  0  0  0  0  0  0  0  0
  -25.6756  -31.7066   25.6756 C   0  0  0  0  0  0  0  0  0  0  0  0
  -29.0549  -13.9717   21.1580 C   0  0  0  0  0  0  0  0  0  0  0  0
  -24.7424  -30.5666   25.2706 C   0  0  0  0  0  0  0  0  0  0  0  0
  -26.1596  -33.6103   18.8174 C   0  0  0  0  0  0  0  0  0  0  0  0
  -28.4088  -32.6342   19.4386 C   0  0  0  0  0  0  0  0  0  0  0  0
  -25.5829  -32.8702   24.6959 C   0  0  0  0  0  0  0  0  0  0  0  0
  -24.9181  -31.3478   22.8636 C   0  0  0  0  0  0  0  0  0  0  0  0
  -28.0772  -14.0144   19.9768 C   0  0  1  0  0  0  0  0  0  0  0  0
  -26.0639  -17.2232   19.7272 C   0  0  1  0  0  0  0  0  0  0  0  0
  -24.9935  -30.1411   23.8139 C   0  0  2  0  0  0  0  0  0  0  0  0
  -27.1715  -33.3836   19.9445 C   0  0  0  0  0  0  0  0  0  0  0  0
  -22.5968  -18.6400   21.1526 C   0  0  0  0  0  0  0  0  0  0  0  0
  -23.5344  -30.3741   23.0230 C   0  0  0  0  0  0  0  0  0  0  0  0
  -23.8283  -13.8639   17.8800 C   0  0  0  0  0  0  0  0  0  0  0  0
  -23.9151  -15.1689   20.0149 C   0  0  0  0  0  0  0  0  0  0  0  0
  -25.9877  -14.8532   18.6630 C   0  0  0  0  0  0  0  0  0  0  0  0
  -27.7484  -29.8403   23.9090 C   0  0  0  0  0  0  0  0  0  0  0  0
  -19.7438  -19.2802   21.1605 C   0  0  0  0  0  0  0  0  0  0  0  0
  -28.2181  -25.1330   18.7211 C   0  0  0  0  0  0  0  0  0  0  0  0
  -24.5883  -28.2590   22.1608 C   0  0  0  0  0  0  0  0  0  0  0  0
  -24.3400  -27.4940   20.8556 C   0  0  0  0  0  0  0  0  0  0  0  0
  -26.3294  -31.2664   20.8549 C   0  0  0  0  0  0  0  0  0  0  0  0
  -29.0004  -23.9805   19.3415 C   0  0  0  0  0  0  0  0  0  1  0  0
  -24.1886  -16.4199   17.8260 C   0  0  1  0  0  0  0  0  0  0  0  0
  -21.7271  -18.3904   19.9303 C   0  0  2  0  0  0  0  0  0  0  0  0
  -24.5609  -29.8014   22.0306 C   0  0  2  0  0  0  0  0  0  0  0  0
  -25.9596  -30.5074   22.1510 C   0  0  1  0  0  0  0  0  0  0  0  0
  -24.4635  -15.0851   18.5744 C   0  0  0  0  0  0  0  0  0  0  0  0
  -27.0787  -29.5282   22.5829 C   0  0  0  0  0  0  0  0  0  0  0  0
  -22.7358  -29.2576   23.3609 N   0  0  0  0  0  0  0  0  0  0  0  0
  -26.8772  -25.0517   20.8401 N   0  0  0  0  0  0  0  0  0  0  0  0
  -25.8495  -25.6825   21.3977 N   0  0  0  0  0  0  0  0  0  0  0  0
  -25.4472  -26.6295   20.5348 N   0  0  0  0  0  0  0  0  0  0  0  0
  -24.0593  -29.0254   23.3832 N   0  0  0  0  0  0  0  0  0  0  0  0
  -26.3949  -17.4399   18.3086 N   0  0  0  0  0  0  0  0  0  0  0  0
  -25.7969  -32.4312   23.3104 N   0  0  0  0  0  0  0  0  0  0  0  0
  -25.6925  -27.3619   22.9633 N   0  0  0  0  0  0  0  0  0  0  0  0
  -21.8061  -25.2730   21.9999 N   0  0  0  0  0  0  0  0  0  0  0  0
  -27.6218  -15.3744   19.7898 N   0  0  0  0  0  0  0  0  0  0  0  0
  -23.4931  -17.4216   18.6268 N   0  0  0  0  0  0  0  0  0  0  0  0
  -26.5579  -32.6904   21.0544 N   0  0  0  0  0  0  0  0  0  0  0  0
  -20.3289  -18.1537   20.3888 N   0  3  0  0  0  0  0  0  0  0  0  0
  -24.0826  -25.0162   22.1017 O   0  0  0  0  0  0  0  0  0  0  0  0
  -25.3765  -15.0430   20.3107 O   0  0  0  0  0  0  0  0  0  0  0  0
  -25.6068  -17.2666   16.1269 O   0  0  0  0  0  0  0  0  0  0  0  0
  -21.5647  -16.1799   18.9686 O   0  0  0  0  0  0  0  0  0  0  0  0
  -26.8468  -34.3630   22.6141 O   0  0  0  0  0  0  0  0  0  0  0  0
  -16.7047  -27.4863   22.3434 O   0  0  0  0  0  0  0  0  0  0  0  0
  -28.9293  -22.8365   18.4915 O   0  0  0  0  0  0  0  0  0  1  0  0
  -14.8297  -22.5949   20.6221 F   0  0  0  0  0  0  0  0  0  0  0  0
  -18.4480  -25.4111   21.7981 F   0  0  0  0  0  0  0  0  0  0  0  0
  -28.0381  -29.4751   21.6217 F   0  0  0  0  0  0  0  0  0  0  0  0
  -26.5726  -28.2698   22.6877 F   0  0  0  0  0  0  0  0  0  0  0  0
  1  2  1  0  0  0  0
  1  5  2  0  0  0  0
  2  6  2  0  0  0  0
  3  8  2  0  0  0  0
  3 16  1  0  0  0  0
  4  9  1  0  0  0  0
  4 16  2  0  0  0  0
  5 18  1  0  0  0  0
  6 20  1  0  0  0  0
  7 10  2  0  0  0  0
  7 19  1  0  0  0  0
  8 22  1  0  0  0  0
  9 22  2  0  0  0  0
 10 23  1  0  0  0  0
 11 12  2  0  0  0  0
 11 24  1  0  0  0  0
 12 25  1  0  0  0  0
 13 21  1  0  0  0  0
 13 23  2  0  0  0  0
 14 25  2  0  0  0  0
 14 26  1  0  0  0  0
 15 28  2  0  0  0  0
 15 74  1  0  0  0  0
 16 27  1  0  0  0  0
 17 27  1  0  0  0  0
 17 29  2  0  0  0  0
 17 30  1  0  0  0  0
 18 20  2  0  0  0  0
 18 35  1  0  0  0  0
 19 21  2  0  0  0  0
 19 36  1  0  0  0  0
 20 49  1  0  0  0  0
 21 37  1  0  0  0  0
 22 89  1  0  0  0  0
 23 90  1  0  0  0  0
 24 26  2  0  0  0  0
 24 89  1  0  0  0  0
 25 91  1  0  0  0  0
 26 92  1  0  0  0  0
 27 71  2  0  0  0  0
 28 60  1  0  0  0  0
 28 72  1  0  0  0  0
 29 75  1  0  0  0  0
 29 78  1  0  0  0  0
 30 79  1  0  0  0  0
 30 84  2  0  0  0  0
 31 50  1  0  0  0  0
 31 80  1  0  0  0  0
 31 85  2  0  0  0  0
 32 65  1  0  0  0  0
 32 76  1  0  0  0  0
 32 86  2  0  0  0  0
 33 66  1  0  0  0  0
 33 81  1  0  0  0  0
 33 87  2  0  0  0  0
 34 77  1  0  0  0  0
 34 82  1  0  0  0  0
 34 88  2  0  0  0  0
 35 38  1  0  0  0  0
 36 50  1  0  0  0  0
 37 76  1  0  0  0  0
 38 43  1  0  0  0  0
 39 40  1  0  0  0  0
 39 41  1  0  0  0  0
 40 45  1  0  0  0  0
 41 46  1  0  0  0  0
 42 44  1  0  0  0  0
 42 47  1  0  0  0  0
 43 49  1  0  0  0  0
 44 51  1  0  0  0  0
 45 52  1  0  0  0  0
 46 52  1  0  0  0  0
 47 77  1  0  0  0  0
 48 51  1  0  0  0  0
 48 77  1  0  0  0  0
 49 80  1  0  0  0  0
 50 76  1  0  0  0  0
 51 75  1  0  0  0  0
 52 82  1  0  0  0  0
 53 66  1  0  0  0  0
 54 67  1  0  0  0  0
 55 69  1  0  0  0  0
 56 69  1  0  0  0  0
 57 69  1  0  0  0  0
 58 70  1  0  0  0  0
 59 83  1  0  0  0  0
 60 64  1  0  0  0  0
 61 62  1  0  0  0  0
 61 67  1  0  0  0  0
 62 74  1  0  0  0  0
 63 68  1  0  0  0  0
 63 82  1  0  0  0  0
 64 90  1  0  0  0  0
 65 69  1  0  0  0  0
 65 81  1  0  0  0  0
 66 83  1  0  0  0  0
 67 68  1  0  0  0  0
 68 70  1  0  0  0  0
 70 93  1  0  0  0  0
 70 94  1  0  0  0  0
 71 75  1  0  0  0  0
 72 73  2  0  0  0  0
 73 74  1  0  0  0  0
M  CHG  1  83   1
M  ISO  4  34 100  64 101  82 100  90 101
M  END
> <Batch ID>
0049

> <Smiles>
CNC(C)C(=O)NC(C(=O)N1Cc2cc([101O:1][101CH2:1]Cc3cn(CCC(C)C(C[100N:0](C4CCCCC4)[100C:0](=O)N4CCCC(n5nc(-c6ccc(Oc7ccc(F)cc7F)cc6)c(C(N)=O)c5N)C4)C(C)(F)F)nn3)ccc2CC1C(=O)NC1CCCc2ccccc21)C(C)(C)C

> <Shape>
0.273

> <Color>
0.089

> <Negative vol penalty>
0.000

$$$$

  -OEChem-04052317293D

 84 92  0     1  0  0  0  0  0999 V2000
  -26.5574  -34.7605   22.8202 C   0  0  0  0  0  0  0  0  0  0  0  0
  -27.0001  -33.4470   22.7018 C   0  0  0  0  0  0  0  0  0  0  0  0
  -24.6708   -8.9056   20.6482 C   0  0  0  0  0  0  0  0  0  0  0  0
  -22.9153  -10.5410   20.3642 C   0  0  0  0  0  0  0  0  0  0  0  0
  -25.2519  -35.0202   23.2352 C   0  0  0  0  0  0  0  0  0  0  0  0
  -26.1378  -32.3923   22.9994 C   0  0  0  0  0  0  0  0  0  0  0  0
  -26.3316  -28.6915   19.5480 C   0  0  0  0  0  0  0  0  0  0  0  0
  -23.7350   -7.9818   21.1135 C   0  0  0  0  0  0  0  0  0  0  0  0
  -21.9795   -9.6172   20.8294 C   0  0  0  0  0  0  0  0  0  0  0  0
  -27.4142  -27.8155   19.6139 C   0  0  0  0  0  0  0  0  0  0  0  0
  -22.0712   -7.3548   23.9880 C   0  0  0  0  0  0  0  0  0  0  0  0
  -22.4005   -6.6160   25.1244 C   0  0  0  0  0  0  0  0  0  0  0  0
  -26.0252  -26.1929   20.7351 C   0  0  0  0  0  0  0  0  0  0  0  0
  -22.1915   -4.5708   23.8554 C   0  0  0  0  0  0  0  0  0  0  0  0
  -27.4509  -22.2180   17.5645 C   0  0  0  0  0  0  0  0  0  0  0  0
  -24.2610  -10.1852   20.2736 C   0  0  0  0  0  0  0  0  0  0  0  0
  -25.6319  -11.3432   18.4605 C   0  0  0  0  0  0  0  0  0  0  0  0
  -24.3702  -33.9680   23.5286 C   0  0  0  0  0  0  0  0  0  0  0  0
  -25.0885  -28.3285   20.0858 C   0  0  0  0  0  0  0  0  0  0  0  0
  -24.8197  -32.6382   23.4199 C   0  0  0  0  0  0  0  0  0  0  0  0
  -24.9278  -27.0652   20.6725 C   0  0  0  0  0  0  0  0  0  0  0  0
  -22.3894   -8.3376   21.2041 C   0  0  0  0  0  0  0  0  0  0  0  0
  -27.2619  -26.5671   20.2101 C   0  0  0  0  0  0  0  0  0  0  0  0
  -21.8019   -6.7015   22.7853 C   0  0  0  0  0  0  0  0  0  0  0  0
  -22.4607   -5.2241   25.0581 C   0  0  0  0  0  0  0  0  0  0  0  0
  -21.8621   -5.3095   22.7190 C   0  0  0  0  0  0  0  0  0  0  0  0
  -25.2273  -11.1401   19.7935 C   0  0  0  0  0  0  0  0  0  0  0  0
  -27.8119  -21.4836   18.6587 C   0  0  0  0  0  0  0  0  0  0  0  0
  -26.5598  -12.3532   18.5334 C   0  0  0  0  0  0  0  0  0  0  0  0
  -28.9963  -23.3537   18.6702 C   0  0  0  0  0  0  0  0  0  0  0  0
  -25.2069  -10.6784   17.2634 C   0  0  0  0  0  0  0  0  0  0  0  0
  -23.2269  -29.4645   22.3983 C   0  0  0  0  0  0  0  0  0  0  0  0
  -28.1159  -17.3350   20.5460 C   0  0  0  0  0  0  0  0  0  0  0  0
  -21.1585  -27.2187   21.3027 C   0  0  0  0  0  0  0  0  0  0  0  0
  -20.6921  -24.2715   19.6464 C   0  0  0  0  0  0  0  0  0  0  0  0
  -22.9828  -34.2989   24.0190 C   0  0  0  0  0  0  0  0  0  0  0  0
  -23.9235  -29.2744   19.9829 C   0  0  0  0  0  0  0  0  0  0  0  0
  -23.6086  -26.6195   21.2466 C   0  0  0  0  0  0  0  0  0  0  0  0
  -22.0165  -33.1189   23.9546 C   0  0  0  0  0  0  0  0  0  0  0  0
  -28.8657  -14.4364   22.5148 C   0  0  0  0  0  0  0  0  0  0  0  0
  -22.6688  -31.8630   24.5238 C   0  0  0  0  0  0  0  0  0  0  0  0
  -27.9965  -13.3447   21.8920 C   0  0  0  0  0  0  0  0  0  0  0  0
  -28.1693  -15.7932   22.4784 C   0  0  0  0  0  0  0  0  0  0  0  0
  -26.8598  -15.1236   20.4889 C   0  0  0  0  0  0  0  0  0  0  0  0
  -23.9065  -31.4668   23.7097 C   0  0  1  0  0  0  0  0  0  0  0  0
  -22.8399  -29.0029   21.0218 C   0  0  1  0  0  0  0  0  0  0  0  0
  -27.5387  -13.7425   20.4775 C   0  0  2  0  0  0  0  0  0  0  0  0
  -31.5291  -20.8612   21.5786 C   0  0  0  0  0  0  0  0  0  0  0  0
  -18.8922  -22.6708   18.9426 C   0  0  0  0  0  0  0  0  0  0  0  0
  -28.1416  -18.9262   17.0464 C   0  0  0  0  0  0  0  0  0  0  0  0
  -20.9701  -26.1763   24.1642 C   0  0  0  0  0  0  0  0  0  0  0  0
  -19.9603  -24.0725   23.2573 C   0  0  0  0  0  0  0  0  0  0  0  0
  -18.7926  -26.2534   22.9365 C   0  0  0  0  0  0  0  0  0  0  0  0
  -21.3170  -24.6487   16.7783 C   0  0  0  0  0  0  0  0  0  0  0  0
  -27.3387  -20.1743   19.1244 C   0  0  0  0  0  0  0  0  0  0  0  0
  -29.9696  -24.4412   19.0554 C   0  0  0  0  0  0  0  0  0  0  0  0
  -27.6275  -17.6038   19.1448 C   0  0  0  0  0  0  0  0  0  0  0  0
  -30.8502  -21.2893   20.2880 C   0  0  0  0  0  0  0  0  0  0  0  0
  -29.4371  -21.8066   20.5480 C   0  0  0  0  0  0  0  0  0  0  0  0
  -29.2875  -25.7933   19.2334 C   0  0  0  0  0  0  0  0  0  1  0  0
  -20.8930  -25.7661   21.6163 C   0  0  1  0  0  0  0  0  0  0  0  0
  -19.7265  -23.8779   18.5432 C   0  0  2  0  0  0  0  0  0  0  0  0
  -28.1293  -18.9430   18.5793 C   0  0  1  0  0  0  0  0  0  0  0  0
  -20.1795  -25.5759   22.9846 C   0  0  0  0  0  0  0  0  0  0  0  0
  -25.8476  -11.9555   20.6505 N   0  0  0  0  0  0  0  0  0  0  0  0
  -28.7697  -22.2099   19.3244 N   0  0  0  0  0  0  0  0  0  0  0  0
  -26.6514  -12.6807   19.8542 N   0  0  0  0  0  0  0  0  0  0  0  0
  -28.1993  -23.3700   17.5970 N   0  3  0  0  0  0  0  0  0  0  0  0
  -22.5012  -27.5822   21.1273 N   0  0  0  0  0  0  0  0  0  0  0  0
  -27.7298  -16.1244   21.1218 N   0  0  0  0  0  0  0  0  0  0  0  0
  -27.2983  -12.9842   17.5959 N   0  0  0  0  0  0  0  0  0  0  0  0
  -24.2457   -9.6637   17.3680 N   0  0  0  0  0  0  0  0  0  0  0  0
  -23.5142  -30.8137   22.4793 N   0  0  0  0  0  0  0  0  0  0  0  0
  -20.1542  -25.2311   20.4777 N   0  0  0  0  0  0  0  0  0  0  0  0
  -20.4723  -23.5423   17.2974 N   0  3  0  0  0  0  0  0  0  0  0  0
  -25.6778  -10.9641   16.1365 O   0  0  0  0  0  0  0  0  0  0  0  0
  -23.2608  -28.6567   23.3192 O   0  0  0  0  0  0  0  0  0  0  0  0
  -28.8218  -18.1757   21.1091 O   0  0  0  0  0  0  0  0  0  0  0  0
  -20.2089  -28.0006   21.2096 O   0  0  0  0  0  0  0  0  0  0  0  0
  -21.8103  -23.7745   19.7616 O   0  0  0  0  0  0  0  0  0  0  0  0
  -21.4759   -7.4364   21.6578 O   0  0  0  0  0  0  0  0  0  0  0  0
  -28.3171  -25.7104   20.2764 O   0  0  0  0  0  0  0  0  0  1  0  0
  -22.7785   -4.5149   26.1491 F   0  0  0  0  0  0  0  0  0  0  0  0
  -21.6056   -4.6764   21.5661 F   0  0  0  0  0  0  0  0  0  0  0  0
  1  2  1  0  0  0  0
  1  5  2  0  0  0  0
  2  6  2  0  0  0  0
  3  8  2  0  0  0  0
  3 16  1  0  0  0  0
  4  9  1  0  0  0  0
  4 16  2  0  0  0  0
  5 18  1  0  0  0  0
  6 20  1  0  0  0  0
  7 10  2  0  0  0  0
  7 19  1  0  0  0  0
  8 22  1  0  0  0  0
  9 22  2  0  0  0  0
 10 23  1  0  0  0  0
 11 12  2  0  0  0  0
 11 24  1  0  0  0  0
 12 25  1  0  0  0  0
 13 21  1  0  0  0  0
 13 23  2  0  0  0  0
 14 25  2  0  0  0  0
 14 26  1  0  0  0  0
 15 28  2  0  0  0  0
 15 68  1  0  0  0  0
 16 27  1  0  0  0  0
 17 27  1  0  0  0  0
 17 29  2  0  0  0  0
 17 31  1  0  0  0  0
 18 20  2  0  0  0  0
 18 36  1  0  0  0  0
 19 21  2  0  0  0  0
 19 37  1  0  0  0  0
 20 45  1  0  0  0  0
 21 38  1  0  0  0  0
 22 81  1  0  0  0  0
 23 82  1  0  0  0  0
 24 26  2  0  0  0  0
 24 81  1  0  0  0  0
 25 83  1  0  0  0  0
 26 84  1  0  0  0  0
 27 65  2  0  0  0  0
 28 55  1  0  0  0  0
 28 66  1  0  0  0  0
 29 67  1  0  0  0  0
 29 71  1  0  0  0  0
 30 56  1  0  0  0  0
 30 66  1  0  0  0  0
 30 68  2  0  0  0  0
 31 72  1  0  0  0  0
 31 76  2  0  0  0  0
 32 46  1  0  0  0  0
 32 73  1  0  0  0  0
 32 77  2  0  0  0  0
 33 57  1  0  0  0  0
 33 70  1  0  0  0  0
 33 78  2  0  0  0  0
 34 61  1  0  0  0  0
 34 69  1  0  0  0  0
 34 79  2  0  0  0  0
 35 62  1  0  0  0  0
 35 74  1  0  0  0  0
 35 80  2  0  0  0  0
 36 39  1  0  0  0  0
 37 46  1  0  0  0  0
 38 69  1  0  0  0  0
 39 41  1  0  0  0  0
 40 42  1  0  0  0  0
 40 43  1  0  0  0  0
 41 45  1  0  0  0  0
 42 47  1  0  0  0  0
 43 70  1  0  0  0  0
 44 47  1  0  0  0  0
 44 70  1  0  0  0  0
 45 73  1  0  0  0  0
 46 69  1  0  0  0  0
 47 67  1  0  0  0  0
 48 58  1  0  0  0  0
 49 62  1  0  0  0  0
 50 63  1  0  0  0  0
 51 64  1  0  0  0  0
 52 64  1  0  0  0  0
 53 64  1  0  0  0  0
 54 75  1  0  0  0  0
 55 63  1  0  0  0  0
 56 60  1  0  0  0  0
 57 63  1  0  0  0  0
 58 59  1  0  0  0  0
 59 66  1  0  0  0  0
 60 82  1  0  0  0  0
 61 64  1  0  0  0  0
 61 74  1  0  0  0  0
 62 75  1  0  0  0  0
 65 67  1  0  0  0  0
M  CHG  2  68   1  75   1
M  ISO  4  33 100  57 100  60 101  82 101
M  END
> <Batch ID>
0049

> <Smiles>
CCCn1c(CC(C)[100CH2:0][100C:0](=O)N2CCCC(n3nc(-c4ccc(Oc5ccc(F)cc5F)cc4)c(C(N)=O)c3N)C2)cnc1C[101CH2:1][101O:1]c1ccc2c(c1)CN(C(=O)C(NC(=O)C(C)NC)C(C)(C)C)C(C(=O)NC1CCCc3ccccc31)C2

> <Shape>
0.311

> <Color>
0.090

> <Negative vol penalty>
0.000

$$$$

  -OEChem-04052317293D

 84 92  0     1  0  0  0  0  0999 V2000
  -19.7141  -23.7554   22.7370 C   0  0  0  0  0  0  0  0  0  0  0  0
  -20.9112  -24.0759   22.1049 C   0  0  0  0  0  0  0  0  0  0  0  0
  -25.5747  -16.4123   19.7910 C   0  0  0  0  0  0  0  0  0  0  0  0
  -27.8557  -15.6544   19.5475 C   0  0  0  0  0  0  0  0  0  0  0  0
  -18.8140  -24.7647   23.0759 C   0  0  0  0  0  0  0  0  0  0  0  0
  -21.2083  -25.4061   21.8102 C   0  0  0  0  0  0  0  0  0  0  0  0
  -25.9758  -26.6394   22.9916 C   0  0  0  0  0  0  0  0  0  0  0  0
  -25.1765  -15.1131   20.1055 C   0  0  0  0  0  0  0  0  0  0  0  0
  -27.4576  -14.3551   19.8620 C   0  0  0  0  0  0  0  0  0  0  0  0
  -26.9764  -26.2285   22.1119 C   0  0  0  0  0  0  0  0  0  0  0  0
  -24.5184  -12.2406   18.4502 C   0  0  0  0  0  0  0  0  0  0  0  0
  -23.3655  -11.7505   17.8368 C   0  0  0  0  0  0  0  0  0  0  0  0
  -27.0331  -28.4412   21.1526 C   0  0  0  0  0  0  0  0  0  0  0  0
  -22.3454  -11.4373   20.0044 C   0  0  0  0  0  0  0  0  0  0  0  0
  -26.9143  -16.6830   19.5120 C   0  0  0  0  0  0  0  0  0  0  0  0
  -27.7537  -19.0236   20.0817 C   0  0  0  0  0  0  0  0  0  0  0  0
  -19.1046  -26.1089   22.7940 C   0  0  0  0  0  0  0  0  0  0  0  0
  -25.4878  -27.9534   22.9510 C   0  0  0  0  0  0  0  0  0  0  0  0
  -20.3106  -26.4343   22.1445 C   0  0  0  0  0  0  0  0  0  0  0  0
  -26.0281  -28.8669   22.0346 C   0  0  0  0  0  0  0  0  0  0  0  0
  -26.1180  -14.0844   20.1410 C   0  0  0  0  0  0  0  0  0  0  0  0
  -27.5032  -27.1287   21.1903 C   0  0  0  0  0  0  0  0  0  0  0  0
  -24.5849  -12.3290   19.8407 C   0  0  0  0  0  0  0  0  0  0  0  0
  -22.2790  -11.3489   18.6139 C   0  0  0  0  0  0  0  0  0  0  0  0
  -23.4984  -11.9274   20.6178 C   0  0  0  0  0  0  0  0  0  0  0  0
  -27.3261  -18.0249   19.1865 C   0  0  0  0  0  0  0  0  0  0  0  0
  -31.1069  -25.0215   17.5271 C   0  0  0  0  0  0  0  0  0  0  0  0
  -29.8675  -25.3225   18.0405 C   0  0  0  0  0  0  0  0  0  0  0  0
  -28.0290  -20.1062   19.2825 C   0  0  0  0  0  0  0  0  0  0  0  0
  -31.2897  -24.7790   19.6338 C   0  0  0  0  0  0  0  0  0  0  0  0
  -27.8900  -18.9770   21.5082 C   0  0  0  0  0  0  0  0  0  0  0  0
  -22.6590  -29.2786   22.3634 C   0  0  0  0  0  0  0  0  0  0  0  0
  -24.1926  -32.0036   23.2263 C   0  0  0  0  0  0  0  0  0  0  0  0
  -27.1427  -33.6869   23.5588 C   0  0  0  0  0  0  0  0  0  0  0  0
  -30.2881  -22.3073   14.6785 C   0  0  0  0  0  0  0  0  0  0  0  0
  -18.0793  -27.1606   23.1368 C   0  0  0  0  0  0  0  0  0  0  0  0
  -24.4270  -28.3883   23.9246 C   0  0  0  0  0  0  0  0  0  0  0  0
  -25.5530  -30.2944   21.9640 C   0  0  0  0  0  0  0  0  0  0  0  0
  -18.6375  -28.5813   23.1271 C   0  0  0  0  0  0  0  0  0  0  0  0
  -27.0156  -20.9334   14.3962 C   0  0  0  0  0  0  0  0  0  0  0  0
  -19.4762  -28.8169   21.8749 C   0  0  0  0  0  0  0  0  0  0  0  0
  -26.8427  -20.1320   15.6877 C   0  0  0  0  0  0  0  0  0  0  0  0
  -28.4481  -20.8577   13.8726 C   0  0  0  0  0  0  0  0  0  0  0  0
  -29.3127  -20.4352   16.1415 C   0  0  0  0  0  0  0  0  0  0  0  0
  -20.6799  -27.8679   21.8306 C   0  0  1  0  0  0  0  0  0  0  0  0
  -23.6437  -29.6081   23.4494 C   0  0  1  0  0  0  0  0  0  0  0  0
  -27.8979  -20.5271   16.7383 C   0  0  2  0  0  0  0  0  0  0  0  0
  -28.6088  -25.7349   17.3937 C   0  0  0  0  0  0  0  0  0  0  0  0
  -28.0741  -35.9112   24.2531 C   0  0  0  0  0  0  0  0  0  0  0  0
  -33.2988  -24.1013   20.9939 C   0  0  0  0  0  0  0  0  0  0  0  0
  -30.9971  -23.3645   21.6979 C   0  0  0  0  0  0  0  0  0  0  0  0
  -31.7096  -25.7272   22.0003 C   0  0  0  0  0  0  0  0  0  0  0  0
  -23.2641  -33.2145   20.5840 C   0  0  0  0  0  0  0  0  0  0  0  0
  -24.9683  -35.0222   20.8937 C   0  0  0  0  0  0  0  0  0  0  0  0
  -23.1190  -34.7575   22.5468 C   0  0  0  0  0  0  0  0  0  0  0  0
  -28.7239  -32.4725   25.7460 C   0  0  0  0  0  0  0  0  0  0  0  0
  -31.5406  -25.0269   16.1210 C   0  0  0  0  0  0  0  0  0  0  0  0
  -32.1196  -23.6850   15.6308 C   0  0  0  0  0  0  0  0  0  0  0  0
  -28.9228  -25.3732   20.4217 C   0  0  0  0  0  0  0  0  0  1  0  0
  -24.9902  -33.0581   22.4976 C   0  0  1  0  0  0  0  0  0  0  0  0
  -27.7123  -34.5046   24.7039 C   0  0  2  0  0  0  0  0  0  0  0  0
  -31.7903  -24.5192   20.9995 C   0  0  0  0  0  0  0  0  0  0  0  0
  -24.0932  -33.9857   21.6303 C   0  0  0  0  0  0  0  0  0  0  0  0
  -27.3277  -18.4364   17.9158 N   0  0  0  0  0  0  0  0  0  0  0  0
  -31.9877  -24.6837   18.5240 N   0  0  0  0  0  0  0  0  0  0  0  0
  -29.9999  -25.1623   19.3911 N   0  0  0  0  0  0  0  0  0  0  0  0
  -27.7596  -19.7058   18.0068 N   0  0  0  0  0  0  0  0  0  0  0  0
  -24.5098  -30.6698   22.9327 N   0  0  0  0  0  0  0  0  0  0  0  0
  -29.3992  -21.2462   14.9169 N   0  0  0  0  0  0  0  0  0  0  0  0
  -28.4726  -21.3520   19.5535 N   0  0  0  0  0  0  0  0  0  0  0  0
  -27.5644  -17.7862   22.1719 N   0  0  0  0  0  0  0  0  0  0  0  0
  -21.7210  -28.3300   22.7234 N   0  0  0  0  0  0  0  0  0  0  0  0
  -25.7664  -33.7585   23.5152 N   0  0  0  0  0  0  0  0  0  0  0  0
  -31.1516  -22.6148   15.7228 N   0  0  0  0  0  0  0  0  0  0  0  0
  -28.9393  -33.8542   25.2446 N   0  3  0  0  0  0  0  0  0  0  0  0
  -28.2730  -19.9672   22.1763 O   0  0  0  0  0  0  0  0  0  0  0  0
  -22.7431  -29.8443   21.2796 O   0  0  0  0  0  0  0  0  0  0  0  0
  -23.3251  -32.3506   24.0317 O   0  0  0  0  0  0  0  0  0  0  0  0
  -27.8483  -33.0514   22.7785 O   0  0  0  0  0  0  0  0  0  0  0  0
  -30.3070  -22.9377   13.6159 O   0  0  0  0  0  0  0  0  0  0  0  0
  -25.7298  -12.8165   20.4481 O   0  0  0  0  0  0  0  0  0  0  0  0
  -28.4794  -26.7301   20.3301 O   0  0  0  0  0  0  0  0  0  1  0  0
  -21.1714  -10.8797   18.0246 F   0  0  0  0  0  0  0  0  0  0  0  0
  -23.5558  -12.0111   21.9540 F   0  0  0  0  0  0  0  0  0  0  0  0
  1  2  1  0  0  0  0
  1  5  2  0  0  0  0
  2  6  2  0  0  0  0
  3  8  2  0  0  0  0
  3 15  1  0  0  0  0
  4  9  1  0  0  0  0
  4 15  2  0  0  0  0
  5 17  1  0  0  0  0
  6 19  1  0  0  0  0
  7 10  2  0  0  0  0
  7 18  1  0  0  0  0
  8 21  1  0  0  0  0
  9 21  2  0  0  0  0
 10 22  1  0  0  0  0
 11 12  2  0  0  0  0
 11 23  1  0  0  0  0
 12 24  1  0  0  0  0
 13 20  1  0  0  0  0
 13 22  2  0  0  0  0
 14 24  2  0  0  0  0
 14 25  1  0  0  0  0
 15 26  1  0  0  0  0
 16 26  1  0  0  0  0
 16 29  2  0  0  0  0
 16 31  1  0  0  0  0
 17 19  2  0  0  0  0
 17 36  1  0  0  0  0
 18 20  2  0  0  0  0
 18 37  1  0  0  0  0
 19 45  1  0  0  0  0
 20 38  1  0  0  0  0
 21 81  1  0  0  0  0
 22 82  1  0  0  0  0
 23 25  2  0  0  0  0
 23 81  1  0  0  0  0
 24 83  1  0  0  0  0
 25 84  1  0  0  0  0
 26 64  2  0  0  0  0
 27 28  2  0  0  0  0
 27 57  1  0  0  0  0
 27 65  1  0  0  0  0
 28 48  1  0  0  0  0
 28 66  1  0  0  0  0
 29 67  1  0  0  0  0
 29 70  1  0  0  0  0
 30 62  1  0  0  0  0
 30 65  2  0  0  0  0
 30 66  1  0  0  0  0
 31 71  1  0  0  0  0
 31 76  2  0  0  0  0
 32 46  1  0  0  0  0
 32 72  1  0  0  0  0
 32 77  2  0  0  0  0
 33 60  1  0  0  0  0
 33 68  1  0  0  0  0
 33 78  2  0  0  0  0
 34 61  1  0  0  0  0
 34 73  1  0  0  0  0
 34 79  2  0  0  0  0
 35 69  1  0  0  0  0
 35 74  1  0  0  0  0
 35 80  2  0  0  0  0
 36 39  1  0  0  0  0
 37 46  1  0  0  0  0
 38 68  1  0  0  0  0
 39 41  1  0  0  0  0
 40 42  1  0  0  0  0
 40 43  1  0  0  0  0
 41 45  1  0  0  0  0
 42 47  1  0  0  0  0
 43 69  1  0  0  0  0
 44 47  1  0  0  0  0
 44 69  1  0  0  0  0
 45 72  1  0  0  0  0
 46 68  1  0  0  0  0
 47 67  1  0  0  0  0
 49 61  1  0  0  0  0
 50 62  1  0  0  0  0
 51 62  1  0  0  0  0
 52 62  1  0  0  0  0
 53 63  1  0  0  0  0
 54 63  1  0  0  0  0
 55 63  1  0  0  0  0
 56 75  1  0  0  0  0
 57 58  1  0  0  0  0
 58 74  1  0  0  0  0
 59 66  1  0  0  0  0
 59 82  1  0  0  0  0
 60 63  1  0  0  0  0
 60 73  1  0  0  0  0
 61 75  1  0  0  0  0
 64 67  1  0  0  0  0
M  CHG  1  75   1
M  ISO  4  35 100  59 101  74 100  82 101
M  END
> <Batch ID>
0049

> <Smiles>
CNC(C)C(=O)NC(C(=O)N1Cc2cc([101O:1][101CH2:1]n3c(C(C)(C)C)nc(CC[100NH:0][100C:0](=O)N4CCCC(n5nc(-c6ccc(Oc7ccc(F)cc7F)cc6)c(C(N)=O)c5N)C4)c3C)ccc2CC1C(=O)NC1CCCc2ccccc21)C(C)(C)C

> <Shape>
0.252

> <Color>
0.079

> <Negative vol penalty>
0.000

$$$$

  -OEChem-04052317293D

 84 92  0     1  0  0  0  0  0999 V2000
  -36.9126  -26.7057   16.3314 C   0  0  0  0  0  0  0  0  0  0  0  0
  -36.0288  -25.6543   16.1106 C   0  0  0  0  0  0  0  0  0  0  0  0
  -23.1324   -9.9222   19.8528 C   0  0  0  0  0  0  0  0  0  0  0  0
  -23.8656   -9.8148   22.1524 C   0  0  0  0  0  0  0  0  0  0  0  0
  -36.7345  -27.5454   17.4301 C   0  0  0  0  0  0  0  0  0  0  0  0
  -34.9670  -25.4412   16.9890 C   0  0  0  0  0  0  0  0  0  0  0  0
  -30.6091  -24.5165   14.5809 C   0  0  0  0  0  0  0  0  0  0  0  0
  -22.4040   -8.7459   20.0301 C   0  0  0  0  0  0  0  0  0  0  0  0
  -23.1371   -8.6386   22.3297 C   0  0  0  0  0  0  0  0  0  0  0  0
  -30.4277  -23.2352   14.0622 C   0  0  0  0  0  0  0  0  0  0  0  0
  -19.4521   -7.8265   21.3991 C   0  0  0  0  0  0  0  0  0  0  0  0
  -18.1518   -7.7872   20.8959 C   0  0  0  0  0  0  0  0  0  0  0  0
  -29.0670  -22.6622   15.9699 C   0  0  0  0  0  0  0  0  0  0  0  0
  -18.7573   -5.9283   19.4764 C   0  0  0  0  0  0  0  0  0  0  0  0
  -29.2648  -13.7537   14.8431 C   0  0  0  0  0  0  0  0  0  0  0  0
  -23.8633  -10.4566   20.9140 C   0  0  0  0  0  0  0  0  0  0  0  0
  -24.1666  -12.9894   20.9364 C   0  0  0  0  0  0  0  0  0  0  0  0
  -35.6643  -27.3485   18.3170 C   0  0  0  0  0  0  0  0  0  0  0  0
  -30.0288  -24.8775   15.8053 C   0  0  0  0  0  0  0  0  0  0  0  0
  -34.7752  -26.2783   18.1013 C   0  0  0  0  0  0  0  0  0  0  0  0
  -29.2404  -23.9496   16.5007 C   0  0  0  0  0  0  0  0  0  0  0  0
  -22.4063   -8.1041   21.2686 C   0  0  0  0  0  0  0  0  0  0  0  0
  -29.6589  -22.3069   14.7582 C   0  0  0  0  0  0  0  0  0  0  0  0
  -20.4051   -6.9167   20.9409 C   0  0  0  0  0  0  0  0  0  0  0  0
  -17.8043   -6.8381   19.9346 C   0  0  0  0  0  0  0  0  0  0  0  0
  -20.0576   -5.9676   19.9796 C   0  0  0  0  0  0  0  0  0  0  0  0
  -24.6164  -11.6713   20.7313 C   0  0  0  0  0  0  0  0  0  0  0  0
  -29.0501  -13.4468   16.1571 C   0  0  0  0  0  0  0  0  0  0  0  0
  -25.2509  -13.7741   20.6282 C   0  0  0  0  0  0  0  0  0  0  0  0
  -27.1698  -14.2746   15.3328 C   0  0  0  0  0  0  0  0  0  0  0  0
  -22.8834  -13.4622   21.3671 C   0  0  0  0  0  0  0  0  0  0  0  0
  -30.0070  -12.8723   17.1117 C   0  0  0  0  0  0  0  0  0  0  0  0
  -31.1492  -25.8055   18.6316 C   0  0  0  0  0  0  0  0  0  0  0  0
  -28.0053  -26.2506   19.2950 C   0  0  0  0  0  0  0  0  0  0  0  0
  -24.7586  -25.4510   18.6118 C   0  0  0  0  0  0  0  0  0  0  0  0
  -35.5402  -28.2534   19.5172 C   0  0  0  0  0  0  0  0  0  0  0  0
  -30.2120  -26.2722   16.3381 C   0  0  0  0  0  0  0  0  0  0  0  0
  -28.5791  -24.2938   17.8093 C   0  0  0  0  0  0  0  0  0  0  0  0
  -34.1719  -28.1875   20.1907 C   0  0  0  0  0  0  0  0  0  0  0  0
  -30.0366  -13.7130   20.5807 C   0  0  0  0  0  0  0  0  0  0  0  0
  -33.7351  -26.7372   20.3714 C   0  0  0  0  0  0  0  0  0  0  0  0
  -28.6131  -13.3904   21.0386 C   0  0  0  0  0  0  0  0  0  0  0  0
  -30.5260  -12.7259   19.5239 C   0  0  0  0  0  0  0  0  0  0  0  0
  -28.2060  -12.2643   18.8100 C   0  0  0  0  0  0  0  0  0  0  0  0
  -33.5969  -26.0299   19.0178 C   0  0  1  0  0  0  0  0  0  0  0  0
  -29.9990  -26.3686   17.8457 C   0  0  1  0  0  0  0  0  0  0  0  0
  -27.6558  -13.2661   19.8384 C   0  0  1  0  0  0  0  0  0  0  0  0
  -24.7702  -12.4830   15.8163 C   0  0  0  0  0  0  0  0  0  0  0  0
  -22.4110  -25.9490   19.3453 C   0  0  0  0  0  0  0  0  0  0  0  0
  -28.4054  -24.4959   21.7590 C   0  0  0  0  0  0  0  0  0  0  0  0
  -25.9179  -24.2513   21.9028 C   0  0  0  0  0  0  0  0  0  0  0  0
  -26.9631  -26.5047   22.1319 C   0  0  0  0  0  0  0  0  0  0  0  0
  -24.0273  -26.5106   15.9470 C   0  0  0  0  0  0  0  0  0  0  0  0
  -25.7664  -14.7461   15.2323 C   0  0  0  0  0  0  0  0  0  0  0  0
  -24.8182  -13.9637   16.1584 C   0  0  0  0  0  0  0  0  0  0  0  0
  -29.2154  -16.8756   13.2927 C   0  0  0  0  0  0  0  0  0  0  0  0
  -29.2195  -18.3951   13.1134 C   0  0  0  0  0  0  0  0  0  0  0  0
  -27.9071  -16.2607   12.7855 C   0  0  0  0  0  0  0  0  0  0  0  0
  -30.5363  -19.0063   13.5875 C   0  0  0  0  0  0  0  0  0  0  0  0
  -27.8598  -14.7368   12.9439 C   0  0  0  0  0  0  0  0  0  0  0  0
  -30.5333  -20.5224   13.4517 C   0  0  0  0  0  0  0  0  0  1  0  0
  -26.9004  -25.3924   19.8623 C   0  0  1  0  0  0  0  0  0  0  0  0
  -23.5332  -26.3186   18.3879 C   0  0  2  0  0  0  0  0  0  0  0  0
  -27.0607  -25.1537   21.3903 C   0  0  0  0  0  0  0  0  0  0  0  0
  -25.8873  -11.6177   20.3240 N   0  0  0  0  0  0  0  0  0  0  0  0
  -28.0848  -14.2640   14.3581 N   0  0  0  0  0  0  0  0  0  0  0  0
  -26.2454  -12.9119   20.2708 N   0  0  0  0  0  0  0  0  0  0  0  0
  -27.7457  -13.7793   16.4330 N   0  3  0  0  0  0  0  0  0  0  0  0
  -29.5728  -12.6367   18.4184 N   0  0  0  0  0  0  0  0  0  0  0  0
  -28.7931  -25.6681   18.2921 N   0  0  0  0  0  0  0  0  0  0  0  0
  -25.4411  -15.1106   20.6307 N   0  0  0  0  0  0  0  0  0  0  0  0
  -21.8821  -12.5207   21.6416 N   0  0  0  0  0  0  0  0  0  0  0  0
  -32.3613  -26.4152   18.3701 N   0  0  0  0  0  0  0  0  0  0  0  0
  -25.6477  -26.0388   19.4866 N   0  0  0  0  0  0  0  0  0  0  0  0
  -23.0331  -26.1585   16.9932 N   0  3  0  0  0  0  0  0  0  0  0  0
  -22.6271  -14.6841   21.4887 O   0  0  0  0  0  0  0  0  0  0  0  0
  -31.1379  -12.6513   16.6812 O   0  0  0  0  0  0  0  0  0  0  0  0
  -30.9512  -24.8868   19.4181 O   0  0  0  0  0  0  0  0  0  0  0  0
  -28.1589  -27.3980   19.7208 O   0  0  0  0  0  0  0  0  0  0  0  0
  -24.9101  -24.3592   18.0682 O   0  0  0  0  0  0  0  0  0  0  0  0
  -21.6954   -6.9565   21.4420 O   0  0  0  0  0  0  0  0  0  0  0  0
  -29.4808  -21.0553   14.2545 O   0  0  0  0  0  0  0  0  0  1  0  0
  -16.5552   -6.7995   19.4526 F   0  0  0  0  0  0  0  0  0  0  0  0
  -20.9685   -5.0902   19.5365 F   0  0  0  0  0  0  0  0  0  0  0  0
  1  2  1  0  0  0  0
  1  5  2  0  0  0  0
  2  6  2  0  0  0  0
  3  8  2  0  0  0  0
  3 16  1  0  0  0  0
  4  9  1  0  0  0  0
  4 16  2  0  0  0  0
  5 18  1  0  0  0  0
  6 20  1  0  0  0  0
  7 10  2  0  0  0  0
  7 19  1  0  0  0  0
  8 22  1  0  0  0  0
  9 22  2  0  0  0  0
 10 23  1  0  0  0  0
 11 12  2  0  0  0  0
 11 24  1  0  0  0  0
 12 25  1  0  0  0  0
 13 21  1  0  0  0  0
 13 23  2  0  0  0  0
 14 25  2  0  0  0  0
 14 26  1  0  0  0  0
 15 28  2  0  0  0  0
 15 66  1  0  0  0  0
 16 27  1  0  0  0  0
 17 27  1  0  0  0  0
 17 29  2  0  0  0  0
 17 31  1  0  0  0  0
 18 20  2  0  0  0  0
 18 36  1  0  0  0  0
 19 21  2  0  0  0  0
 19 37  1  0  0  0  0
 20 45  1  0  0  0  0
 21 38  1  0  0  0  0
 22 81  1  0  0  0  0
 23 82  1  0  0  0  0
 24 26  2  0  0  0  0
 24 81  1  0  0  0  0
 25 83  1  0  0  0  0
 26 84  1  0  0  0  0
 27 65  2  0  0  0  0
 28 32  1  0  0  0  0
 28 68  1  0  0  0  0
 29 67  1  0  0  0  0
 29 71  1  0  0  0  0
 30 54  1  0  0  0  0
 30 66  1  0  0  0  0
 30 68  2  0  0  0  0
 31 72  1  0  0  0  0
 31 76  2  0  0  0  0
 32 69  1  0  0  0  0
 32 77  2  0  0  0  0
 33 46  1  0  0  0  0
 33 73  1  0  0  0  0
 33 78  2  0  0  0  0
 34 62  1  0  0  0  0
 34 70  1  0  0  0  0
 34 79  2  0  0  0  0
 35 63  1  0  0  0  0
 35 74  1  0  0  0  0
 35 80  2  0  0  0  0
 36 39  1  0  0  0  0
 37 46  1  0  0  0  0
 38 70  1  0  0  0  0
 39 41  1  0  0  0  0
 40 42  1  0  0  0  0
 40 43  1  0  0  0  0
 41 45  1  0  0  0  0
 42 47  1  0  0  0  0
 43 69  1  0  0  0  0
 44 47  1  0  0  0  0
 44 69  1  0  0  0  0
 45 73  1  0  0  0  0
 46 70  1  0  0  0  0
 47 67  1  0  0  0  0
 48 55  1  0  0  0  0
 49 63  1  0  0  0  0
 50 64  1  0  0  0  0
 51 64  1  0  0  0  0
 52 64  1  0  0  0  0
 53 75  1  0  0  0  0
 54 55  1  0  0  0  0
 56 57  1  0  0  0  0
 56 58  1  0  0  0  0
 57 59  1  0  0  0  0
 58 60  1  0  0  0  0
 59 61  1  0  0  0  0
 60 66  1  0  0  0  0
 61 82  1  0  0  0  0
 62 64  1  0  0  0  0
 62 74  1  0  0  0  0
 63 75  1  0  0  0  0
 65 67  1  0  0  0  0
M  CHG  2  68   1  75   1
M  ISO  4  28 100  32 100  61 101  82 101
M  END
> <Batch ID>
0049

> <Smiles>
CCCc1n[100c:0]([100C:0](=O)N2CCCC(n3nc(-c4ccc(Oc5ccc(F)cc5F)cc4)c(C(N)=O)c3N)C2)cn1CCCCC[101CH2:1][101O:1]c1ccc2c(c1)CN(C(=O)C(NC(=O)C(C)NC)C(C)(C)C)C(C(=O)NC1CCCc3ccccc31)C2

> <Shape>
0.182

> <Color>
0.196

> <Negative vol penalty>
0.000

$$$$

  -OEChem-04052317293D

 84 92  0     1  0  0  0  0  0999 V2000
  -24.8705  -33.0797   26.3410 C   0  0  0  0  0  0  0  0  0  0  0  0
  -24.8905  -31.7156   26.6134 C   0  0  0  0  0  0  0  0  0  0  0  0
  -22.9407   -9.9052   20.0002 C   0  0  0  0  0  0  0  0  0  0  0  0
  -23.6724   -9.9379   22.3025 C   0  0  0  0  0  0  0  0  0  0  0  0
  -24.7166  -33.5252   25.0288 C   0  0  0  0  0  0  0  0  0  0  0  0
  -24.7556  -30.7961   25.5737 C   0  0  0  0  0  0  0  0  0  0  0  0
  -27.4431  -25.3104   25.1386 C   0  0  0  0  0  0  0  0  0  0  0  0
  -22.1495   -8.7880   20.2675 C   0  0  0  0  0  0  0  0  0  0  0  0
  -22.8811   -8.8207   22.5698 C   0  0  0  0  0  0  0  0  0  0  0  0
  -26.9927  -24.0205   25.4164 C   0  0  0  0  0  0  0  0  0  0  0  0
  -23.0491   -5.4775   22.0948 C   0  0  0  0  0  0  0  0  0  0  0  0
  -23.6154   -4.4467   22.8446 C   0  0  0  0  0  0  0  0  0  0  0  0
  -26.4247  -23.7245   23.0907 C   0  0  0  0  0  0  0  0  0  0  0  0
  -21.9015   -4.7270   24.5242 C   0  0  0  0  0  0  0  0  0  0  0  0
  -23.7022  -10.4801   21.0177 C   0  0  0  0  0  0  0  0  0  0  0  0
  -24.1436  -12.9865   20.8427 C   0  0  0  0  0  0  0  0  0  0  0  0
  -24.5894  -32.6107   23.9715 C   0  0  0  0  0  0  0  0  0  0  0  0
  -27.3775  -25.8218   23.8346 C   0  0  0  0  0  0  0  0  0  0  0  0
  -24.5985  -31.2298   24.2464 C   0  0  0  0  0  0  0  0  0  0  0  0
  -26.8773  -25.0202   22.7985 C   0  0  0  0  0  0  0  0  0  0  0  0
  -22.1197   -8.2458   21.5523 C   0  0  0  0  0  0  0  0  0  0  0  0
  -26.4807  -23.2284   24.3930 C   0  0  0  0  0  0  0  0  0  0  0  0
  -21.9090   -6.1331   22.5596 C   0  0  0  0  0  0  0  0  0  0  0  0
  -23.0416   -4.0714   24.0594 C   0  0  0  0  0  0  0  0  0  0  0  0
  -21.3352   -5.7578   23.7743 C   0  0  0  0  0  0  0  0  0  0  0  0
  -24.5202  -11.6338   20.7420 C   0  0  0  0  0  0  0  0  0  0  0  0
  -28.6988  -19.8841   22.5082 C   0  0  0  0  0  0  0  0  0  0  0  0
  -27.1152  -18.0921   23.6951 C   0  0  0  0  0  0  0  0  0  0  0  0
  -28.5284  -18.6242   21.9777 C   0  0  0  0  0  0  0  0  0  0  0  0
  -27.2861  -19.3516   24.2261 C   0  0  0  0  0  0  0  0  0  0  0  0
  -25.2685  -13.6843   20.4762 C   0  0  0  0  0  0  0  0  0  0  0  0
  -22.8892  -13.5610   21.2327 C   0  0  0  0  0  0  0  0  0  0  0  0
  -25.8807  -28.2632   22.4552 C   0  0  0  0  0  0  0  0  0  0  0  0
  -27.6223  -27.3650   19.8702 C   0  0  0  0  0  0  0  0  0  0  0  0
  -29.3169  -24.8953   18.2345 C   0  0  0  0  0  0  0  0  0  0  0  0
  -30.7851  -14.4948   20.7121 C   0  0  0  0  0  0  0  0  0  0  0  0
  -24.3778  -33.1401   22.5752 C   0  0  0  0  0  0  0  0  0  0  0  0
  -27.8922  -27.2054   23.5465 C   0  0  0  0  0  0  0  0  0  0  0  0
  -26.8041  -25.5149   21.3779 C   0  0  0  0  0  0  0  0  0  0  0  0
  -24.6170  -32.0979   21.4858 C   0  0  0  0  0  0  0  0  0  0  0  0
  -29.5845  -12.0993   18.3675 C   0  0  0  0  0  0  0  0  0  0  0  0
  -23.9224  -30.7867   21.8396 C   0  0  0  0  0  0  0  0  0  0  0  0
  -28.1315  -11.8719   18.7884 C   0  0  0  0  0  0  0  0  0  0  0  0
  -30.4949  -12.3133   19.5748 C   0  0  0  0  0  0  0  0  0  0  0  0
  -28.6064  -13.1505   20.9188 C   0  0  0  0  0  0  0  0  0  0  0  0
  -24.4799  -30.2013   23.1427 C   0  0  1  0  0  0  0  0  0  0  0  0
  -27.3020  -27.8100   22.2762 C   0  0  1  0  0  0  0  0  0  0  0  0
  -27.6405  -12.9855   19.7329 C   0  0  2  0  0  0  0  0  0  0  0  0
  -29.5803  -20.8911   21.8522 C   0  0  0  0  0  0  0  0  0  0  0  0
  -26.2336  -17.0850   24.3507 C   0  0  0  0  0  0  0  0  0  0  0  0
  -30.6013  -24.4519   16.1247 C   0  0  0  0  0  0  0  0  0  0  0  0
  -25.0057  -27.2456   18.3052 C   0  0  0  0  0  0  0  0  0  0  0  0
  -26.1972  -25.9165   16.5497 C   0  0  0  0  0  0  0  0  0  0  0  0
  -26.9248  -28.2487   17.0540 C   0  0  0  0  0  0  0  0  0  0  0  0
  -31.7810  -24.2365   19.7356 C   0  0  0  0  0  0  0  0  0  0  0  0
  -29.2181  -18.2095   20.7231 C   0  0  0  0  0  0  0  0  0  0  0  0
  -26.5888  -19.7711   25.4973 C   0  0  0  0  0  0  0  0  0  0  0  0
  -30.6960  -17.8110   20.9082 C   0  0  0  0  0  0  0  0  0  0  0  0
  -30.9197  -16.6703   21.8988 C   0  0  0  0  0  0  0  0  0  0  0  0
  -26.6726  -21.2748   25.7356 C   0  0  0  0  0  0  0  0  0  1  0  0
  -27.4133  -26.4104   18.7196 C   0  0  1  0  0  0  0  0  0  0  0  0
  -30.6878  -24.8758   17.5827 C   0  0  2  0  0  0  0  0  0  0  0  0
  -26.3847  -26.9464   17.6842 C   0  0  0  0  0  0  0  0  0  0  0  0
  -25.7853  -11.4791   20.3427 N   0  0  0  0  0  0  0  0  0  0  0  0
  -27.7334  -17.7058   22.5614 N   0  0  0  0  0  0  0  0  0  0  0  0
  -28.0810  -20.2702   23.6421 N   0  0  0  0  0  0  0  0  0  0  0  0
  -26.2135  -12.7437   20.1891 N   0  0  0  0  0  0  0  0  0  0  0  0
  -27.3137  -26.8769   21.1478 N   0  0  0  0  0  0  0  0  0  0  0  0
  -29.9741  -13.3834   20.4290 N   0  0  0  0  0  0  0  0  0  0  0  0
  -25.5315  -15.0045   20.3746 N   0  0  0  0  0  0  0  0  0  0  0  0
  -21.8386  -12.7000   21.5780 N   0  0  0  0  0  0  0  0  0  0  0  0
  -25.7573  -29.5641   22.9046 N   0  0  0  0  0  0  0  0  0  0  0  0
  -28.7361  -26.1439   18.1649 N   0  0  0  0  0  0  0  0  0  0  0  0
  -30.2124  -15.4660   21.5241 N   0  0  0  0  0  0  0  0  0  0  0  0
  -31.5870  -23.9252   18.2960 N   0  3  0  0  0  0  0  0  0  0  0  0
  -22.7004  -14.8009   21.2579 O   0  0  0  0  0  0  0  0  0  0  0  0
  -24.9638  -27.4904   22.2029 O   0  0  0  0  0  0  0  0  0  0  0  0
  -28.0505  -28.4996   19.6445 O   0  0  0  0  0  0  0  0  0  0  0  0
  -28.8104  -23.9014   18.7503 O   0  0  0  0  0  0  0  0  0  0  0  0
  -31.9324  -14.6152   20.2694 O   0  0  0  0  0  0  0  0  0  0  0  0
  -21.3475   -7.1558   21.8136 O   0  0  0  0  0  0  0  0  0  0  0  0
  -26.0398  -21.9693   24.6615 O   0  0  0  0  0  0  0  0  0  1  0  0
  -23.5846   -3.0805   24.7786 F   0  0  0  0  0  0  0  0  0  0  0  0
  -20.2392   -6.3832   24.2255 F   0  0  0  0  0  0  0  0  0  0  0  0
  1  2  1  0  0  0  0
  1  5  2  0  0  0  0
  2  6  2  0  0  0  0
  3  8  2  0  0  0  0
  3 15  1  0  0  0  0
  4  9  1  0  0  0  0
  4 15  2  0  0  0  0
  5 17  1  0  0  0  0
  6 19  1  0  0  0  0
  7 10  2  0  0  0  0
  7 18  1  0  0  0  0
  8 21  1  0  0  0  0
  9 21  2  0  0  0  0
 10 22  1  0  0  0  0
 11 12  2  0  0  0  0
 11 23  1  0  0  0  0
 12 24  1  0  0  0  0
 13 20  1  0  0  0  0
 13 22  2  0  0  0  0
 14 24  2  0  0  0  0
 14 25  1  0  0  0  0
 15 26  1  0  0  0  0
 16 26  1  0  0  0  0
 16 31  2  0  0  0  0
 16 32  1  0  0  0  0
 17 19  2  0  0  0  0
 17 37  1  0  0  0  0
 18 20  2  0  0  0  0
 18 38  1  0  0  0  0
 19 46  1  0  0  0  0
 20 39  1  0  0  0  0
 21 81  1  0  0  0  0
 22 82  1  0  0  0  0
 23 25  2  0  0  0  0
 23 81  1  0  0  0  0
 24 83  1  0  0  0  0
 25 84  1  0  0  0  0
 26 64  2  0  0  0  0
 27 29  1  0  0  0  0
 27 49  1  0  0  0  0
 27 66  2  0  0  0  0
 28 30  2  0  0  0  0
 28 50  1  0  0  0  0
 28 65  1  0  0  0  0
 29 56  1  0  0  0  0
 29 65  2  0  0  0  0
 30 57  1  0  0  0  0
 30 66  1  0  0  0  0
 31 67  1  0  0  0  0
 31 70  1  0  0  0  0
 32 71  1  0  0  0  0
 32 76  2  0  0  0  0
 33 47  1  0  0  0  0
 33 72  1  0  0  0  0
 33 77  2  0  0  0  0
 34 61  1  0  0  0  0
 34 68  1  0  0  0  0
 34 78  2  0  0  0  0
 35 62  1  0  0  0  0
 35 73  1  0  0  0  0
 35 79  2  0  0  0  0
 36 69  1  0  0  0  0
 36 74  1  0  0  0  0
 36 80  2  0  0  0  0
 37 40  1  0  0  0  0
 38 47  1  0  0  0  0
 39 68  1  0  0  0  0
 40 42  1  0  0  0  0
 41 43  1  0  0  0  0
 41 44  1  0  0  0  0
 42 46  1  0  0  0  0
 43 48  1  0  0  0  0
 44 69  1  0  0  0  0
 45 48  1  0  0  0  0
 45 69  1  0  0  0  0
 46 72  1  0  0  0  0
 47 68  1  0  0  0  0
 48 67  1  0  0  0  0
 51 62  1  0  0  0  0
 52 63  1  0  0  0  0
 53 63  1  0  0  0  0
 54 63  1  0  0  0  0
 55 75  1  0  0  0  0
 56 58  1  0  0  0  0
 57 60  1  0  0  0  0
 58 59  1  0  0  0  0
 59 74  1  0  0  0  0
 60 82  1  0  0  0  0
 61 63  1  0  0  0  0
 61 73  1  0  0  0  0
 62 75  1  0  0  0  0
 64 67  1  0  0  0  0
M  CHG  1  75   1
M  ISO  4  36 100  60 101  74 100  82 101
M  END
> <Batch ID>
0049

> <Smiles>
CNC(C)C(=O)NC(C(=O)N1Cc2cc([101O:1][101CH2:1]Cc3nc(C)c(CCC[100NH:0][100C:0](=O)N4CCCC(n5nc(-c6ccc(Oc7ccc(F)cc7F)cc6)c(C(N)=O)c5N)C4)nc3C)ccc2CC1C(=O)NC1CCCc2ccccc21)C(C)(C)C

> <Shape>
0.319

> <Color>
0.207

> <Negative vol penalty>
0.000

$$$$

  -OEChem-04052317293D

 89 97  0     1  0  0  0  0  0999 V2000
  -18.2858  -32.3955   19.6394 C   0  0  0  0  0  0  0  0  0  0  0  0
  -19.6010  -32.0993   19.2958 C   0  0  0  0  0  0  0  0  0  0  0  0
  -27.4588  -17.1214   20.5240 C   0  0  0  0  0  0  0  0  0  0  0  0
  -29.1217  -16.6431   18.8378 C   0  0  0  0  0  0  0  0  0  0  0  0
  -17.8528  -32.2178   20.9527 C   0  0  0  0  0  0  0  0  0  0  0  0
  -20.4841  -31.6261   20.2656 C   0  0  0  0  0  0  0  0  0  0  0  0
  -25.0023  -27.5700   19.4655 C   0  0  0  0  0  0  0  0  0  0  0  0
  -26.7187  -16.0147   20.1082 C   0  0  0  0  0  0  0  0  0  0  0  0
  -28.3816  -15.5363   18.4219 C   0  0  0  0  0  0  0  0  0  0  0  0
  -26.3754  -27.7206   19.2763 C   0  0  0  0  0  0  0  0  0  0  0  0
  -26.8148  -12.6590   20.5127 C   0  0  0  0  0  0  0  0  0  0  0  0
  -26.3036  -11.8138   21.4975 C   0  0  0  0  0  0  0  0  0  0  0  0
  -26.7320  -27.3786   21.6375 C   0  0  0  0  0  0  0  0  0  0  0  0
  -24.0614  -12.2576   20.7147 C   0  0  0  0  0  0  0  0  0  0  0  0
  -28.6603  -17.4357   19.8888 C   0  0  0  0  0  0  0  0  0  0  0  0
  -30.4314  -18.6083   21.3015 C   0  0  0  0  0  0  0  0  0  0  0  0
  -18.7284  -31.7330   21.9370 C   0  0  0  0  0  0  0  0  0  0  0  0
  -24.4820  -27.3331   20.7459 C   0  0  0  0  0  0  0  0  0  0  0  0
  -20.0627  -31.4430   21.5936 C   0  0  0  0  0  0  0  0  0  0  0  0
  -25.3522  -27.2229   21.8398 C   0  0  0  0  0  0  0  0  0  0  0  0
  -27.1801  -15.2221   19.0571 C   0  0  0  0  0  0  0  0  0  0  0  0
  -27.2402  -27.6278   20.3629 C   0  0  0  0  0  0  0  0  0  0  0  0
  -25.9492  -13.3037   19.6289 C   0  0  0  0  0  0  0  0  0  0  0  0
  -24.9270  -11.6130   21.5985 C   0  0  0  0  0  0  0  0  0  0  0  0
  -24.5726  -13.1029   19.7299 C   0  0  0  0  0  0  0  0  0  0  0  0
  -29.4250  -18.5791   20.3176 C   0  0  0  0  0  0  0  0  0  0  0  0
  -31.6330  -27.9684   18.5901 C   0  0  0  0  0  0  0  0  0  0  0  0
  -31.4666  -28.0982   19.9530 C   0  0  0  0  0  0  0  0  0  0  0  0
  -30.8422  -19.9186   21.3337 C   0  0  0  0  0  0  0  0  0  0  0  0
  -33.0585  -26.4352   19.2438 C   0  0  0  0  0  0  0  0  0  0  0  0
  -30.9488  -17.5460   22.1136 C   0  0  0  0  0  0  0  0  0  0  0  0
  -22.4971  -28.8857   22.6832 C   0  0  0  0  0  0  0  0  0  0  0  0
  -22.7891  -26.2083   24.4912 C   0  0  0  0  0  0  0  0  0  0  0  0
  -24.6383  -23.4647   25.3276 C   0  0  0  0  0  0  0  0  0  0  0  0
  -31.5146  -24.2291   17.3274 C   0  0  0  0  0  0  0  0  0  0  0  0
  -18.2274  -31.6021   23.3535 C   0  0  0  0  0  0  0  0  0  0  0  0
  -23.0007  -27.1464   20.9291 C   0  0  0  0  0  0  0  0  0  0  0  0
  -24.8458  -26.9494   23.2317 C   0  0  0  0  0  0  0  0  0  0  0  0
  -19.1241  -30.7411   24.2396 C   0  0  0  0  0  0  0  0  0  0  0  0
  -28.8926  -24.2334   19.9402 C   0  0  0  0  0  0  0  0  0  0  0  0
  -20.5874  -31.1318   24.0581 C   0  0  0  0  0  0  0  0  0  0  0  0
  -28.8148  -22.7600   20.3364 C   0  0  0  0  0  0  0  0  0  0  0  0
  -29.3473  -24.4087   18.4944 C   0  0  0  0  0  0  0  0  0  0  0  0
  -30.5534  -22.2517   18.5759 C   0  0  0  0  0  0  0  0  0  0  0  0
  -21.0439  -30.9042   22.6120 C   0  0  1  0  0  0  0  0  0  0  0  0
  -22.5360  -27.4197   22.3562 C   0  0  1  0  0  0  0  0  0  0  0  0
  -30.1430  -22.0416   20.0412 C   0  0  2  0  0  0  0  0  0  0  0  0
  -27.5546  -25.0019   13.8904 C   0  0  0  0  0  0  0  0  0  0  0  0
  -24.6360  -21.4816   26.8654 C   0  0  0  0  0  0  0  0  0  0  0  0
  -30.3343  -27.5206   12.8613 C   0  0  0  0  0  0  0  0  0  0  0  0
  -23.5656  -28.0179   26.8219 C   0  0  0  0  0  0  0  0  0  0  0  0
  -24.4527  -25.9973   28.0044 C   0  0  0  0  0  0  0  0  0  0  0  0
  -22.0301  -26.1389   27.4267 C   0  0  0  0  0  0  0  0  0  0  0  0
  -33.7807  -23.8925   16.4158 C   0  0  0  0  0  0  0  0  0  0  0  0
  -24.6493  -21.5611   23.0615 C   0  0  0  0  0  0  0  0  0  0  0  0
  -30.9331  -28.7508   17.5507 C   0  0  0  0  0  0  0  0  0  0  0  0
  -30.5708  -29.0241   20.7395 C   0  0  0  0  0  0  0  0  0  0  0  0
  -34.0756  -25.3619   19.2023 C   0  0  0  0  0  0  0  0  0  0  0  0
  -28.4824  -25.8445   13.0262 C   0  0  0  0  0  0  0  0  0  0  0  0
  -28.5728  -27.7861   14.6832 C   0  0  0  0  0  0  0  0  0  0  0  0
  -33.5068  -23.9727   18.8662 C   0  0  0  0  0  0  0  0  0  0  0  0
  -29.3715  -28.7069   15.6018 C   0  0  0  0  0  0  0  0  0  0  0  0
  -29.3281  -28.3169   21.2693 C   0  0  0  0  0  0  0  0  0  1  0  0
  -23.7224  -25.7555   25.5879 C   0  0  1  0  0  0  0  0  0  0  0  0
  -24.2575  -22.0040   25.4882 C   0  0  2  0  0  0  0  0  0  0  0  0
  -29.3955  -26.7944   13.8313 C   0  0  2  0  0  0  0  0  0  0  0  0
  -23.4524  -26.4845   26.9344 C   0  0  0  0  0  0  0  0  0  0  0  0
  -29.2094  -19.7758   19.7649 N   0  0  0  0  0  0  0  0  0  0  0  0
  -32.5458  -27.0156   18.1815 N   0  0  0  0  0  0  0  0  0  0  0  0
  -30.0860  -20.5692   20.4036 N   0  0  0  0  0  0  0  0  0  0  0  0
  -23.3889  -26.7807   23.3605 N   0  0  0  0  0  0  0  0  0  0  0  0
  -30.5886  -23.6805   18.2299 N   0  0  0  0  0  0  0  0  0  0  0  0
  -31.7727  -20.5661   22.0667 N   0  0  0  0  0  0  0  0  0  0  0  0
  -30.4143  -16.2605   21.9522 N   0  0  0  0  0  0  0  0  0  0  0  0
  -21.2970  -29.4987   22.3772 N   0  0  0  0  0  0  0  0  0  0  0  0
  -23.5954  -24.3038   25.6584 N   0  0  0  0  0  0  0  0  0  0  0  0
  -32.8705  -23.9458   17.5510 N   0  0  0  0  0  0  0  0  0  0  0  0
  -24.9498  -21.1725   24.4635 N   0  3  0  0  0  0  0  0  0  0  0  0
  -30.1207  -27.9189   16.6115 N   0  3  0  0  0  0  0  0  0  0  0  0
  -31.8467  -17.7346   22.9690 O   0  0  0  0  0  0  0  0  0  0  0  0
  -23.4823  -29.4208   23.1780 O   0  0  0  0  0  0  0  0  0  0  0  0
  -21.5732  -26.0532   24.6294 O   0  0  0  0  0  0  0  0  0  0  0  0
  -25.7510  -23.8253   24.9502 O   0  0  0  0  0  0  0  0  0  0  0  0
  -31.1509  -24.9398   16.3816 O   0  0  0  0  0  0  0  0  0  0  0  0
  -26.4583  -14.1419   18.6512 O   0  0  0  0  0  0  0  0  0  0  0  0
  -28.5808  -27.7750   20.1811 O   0  0  0  0  0  0  0  0  0  1  0  0
  -24.4364  -10.8001   22.5433 F   0  0  0  0  0  0  0  0  0  0  0  0
  -23.7362  -13.7185   18.8829 F   0  0  0  0  0  0  0  0  0  0  0  0
  -32.4880  -26.9857   20.7658 S   0  0  0  0  0  0  0  0  0  0  0  0
  1  2  1  0  0  0  0
  1  5  2  0  0  0  0
  2  6  2  0  0  0  0
  3  8  2  0  0  0  0
  3 15  1  0  0  0  0
  4  9  1  0  0  0  0
  4 15  2  0  0  0  0
  5 17  1  0  0  0  0
  6 19  1  0  0  0  0
  7 10  2  0  0  0  0
  7 18  1  0  0  0  0
  8 21  1  0  0  0  0
  9 21  2  0  0  0  0
 10 22  1  0  0  0  0
 11 12  2  0  0  0  0
 11 23  1  0  0  0  0
 12 24  1  0  0  0  0
 13 20  1  0  0  0  0
 13 22  2  0  0  0  0
 14 24  2  0  0  0  0
 14 25  1  0  0  0  0
 15 26  1  0  0  0  0
 16 26  1  0  0  0  0
 16 29  2  0  0  0  0
 16 31  1  0  0  0  0
 17 19  2  0  0  0  0
 17 36  1  0  0  0  0
 18 20  2  0  0  0  0
 18 37  1  0  0  0  0
 19 45  1  0  0  0  0
 20 38  1  0  0  0  0
 21 85  1  0  0  0  0
 22 86  1  0  0  0  0
 23 25  2  0  0  0  0
 23 85  1  0  0  0  0
 24 87  1  0  0  0  0
 25 88  1  0  0  0  0
 26 68  2  0  0  0  0
 27 28  2  0  0  0  0
 27 56  1  0  0  0  0
 27 69  1  0  0  0  0
 28 57  1  0  0  0  0
 28 89  1  0  0  0  0
 29 70  1  0  0  0  0
 29 73  1  0  0  0  0
 30 58  1  0  0  0  0
 30 69  2  0  0  0  0
 30 89  1  0  0  0  0
 31 74  1  0  0  0  0
 31 80  2  0  0  0  0
 32 46  1  0  0  0  0
 32 75  1  0  0  0  0
 32 81  2  0  0  0  0
 33 64  1  0  0  0  0
 33 71  1  0  0  0  0
 33 82  2  0  0  0  0
 34 65  1  0  0  0  0
 34 76  1  0  0  0  0
 34 83  2  0  0  0  0
 35 72  1  0  0  0  0
 35 77  1  0  0  0  0
 35 84  2  0  0  0  0
 36 39  1  0  0  0  0
 37 46  1  0  0  0  0
 38 71  1  0  0  0  0
 39 41  1  0  0  0  0
 40 42  1  0  0  0  0
 40 43  1  0  0  0  0
 41 45  1  0  0  0  0
 42 47  1  0  0  0  0
 43 72  1  0  0  0  0
 44 47  1  0  0  0  0
 44 72  1  0  0  0  0
 45 75  1  0  0  0  0
 46 71  1  0  0  0  0
 47 70  1  0  0  0  0
 48 59  1  0  0  0  0
 49 65  1  0  0  0  0
 50 66  1  0  0  0  0
 51 67  1  0  0  0  0
 52 67  1  0  0  0  0
 53 67  1  0  0  0  0
 54 77  1  0  0  0  0
 55 78  1  0  0  0  0
 56 79  1  0  0  0  0
 57 63  1  0  0  0  0
 58 61  1  0  0  0  0
 59 66  1  0  0  0  0
 60 62  1  0  0  0  0
 60 66  1  0  0  0  0
 61 77  1  0  0  0  0
 62 79  1  0  0  0  0
 63 86  1  0  0  0  0
 64 67  1  0  0  0  0
 64 76  1  0  0  0  0
 65 78  1  0  0  0  0
 68 70  1  0  0  0  0
M  CHG  2  78   1  79   1
M  ISO  4  35 100  63 101  77 100  86 101
M  END
> <Batch ID>
0049

> <Smiles>
CCC(C)CCNCc1nc(CC[100N:0](C)[100C:0](=O)N2CCCC(n3nc(-c4ccc(Oc5ccc(F)cc5F)cc4)c(C(N)=O)c3N)C2)sc1C[101CH2:1][101O:1]c1ccc2c(c1)CN(C(=O)C(NC(=O)C(C)NC)C(C)(C)C)C(C(=O)NC1CCCc3ccccc31)C2

> <Shape>
0.205

> <Color>
0.074

> <Negative vol penalty>
0.000

$$$$

  -OEChem-04052317293D

 83 91  0     1  0  0  0  0  0999 V2000
  -18.0259  -25.5101   19.6718 C   0  0  0  0  0  0  0  0  0  0  0  0
  -18.7062  -24.3669   19.2648 C   0  0  0  0  0  0  0  0  0  0  0  0
  -27.3829  -25.7085   17.4077 C   0  0  0  0  0  0  0  0  0  0  0  0
  -28.5139  -26.3822   19.4335 C   0  0  0  0  0  0  0  0  0  0  0  0
  -18.4292  -26.1876   20.8217 C   0  0  0  0  0  0  0  0  0  0  0  0
  -19.7910  -23.9011   20.0070 C   0  0  0  0  0  0  0  0  0  0  0  0
  -21.4114  -18.0617   20.8908 C   0  0  0  0  0  0  0  0  0  0  0  0
  -26.6484  -26.8941   17.4235 C   0  0  0  0  0  0  0  0  0  0  0  0
  -27.7794  -27.5679   19.4493 C   0  0  0  0  0  0  0  0  0  0  0  0
  -22.3651  -17.2499   20.2782 C   0  0  0  0  0  0  0  0  0  0  0  0
  -24.6675  -28.5592   20.3237 C   0  0  0  0  0  0  0  0  0  0  0  0
  -24.1139  -28.9624   21.5388 C   0  0  0  0  0  0  0  0  0  0  0  0
  -23.9260  -17.7605   22.0452 C   0  0  0  0  0  0  0  0  0  0  0  0
  -25.3889  -31.0121   21.4396 C   0  0  0  0  0  0  0  0  0  0  0  0
  -30.2589  -12.7008   19.1052 C   0  0  0  0  0  0  0  0  0  0  0  0
  -28.2848  -12.1148   19.6438 C   0  0  0  0  0  0  0  0  0  0  0  0
  -28.3157  -25.4525   18.4128 C   0  0  0  0  0  0  0  0  0  0  0  0
  -30.3185  -24.0061   17.7767 C   0  0  0  0  0  0  0  0  0  0  0  0
  -19.5134  -25.7245   21.5836 C   0  0  0  0  0  0  0  0  0  0  0  0
  -21.7121  -18.7388   22.0815 C   0  0  0  0  0  0  0  0  0  0  0  0
  -20.2100  -24.5738   21.1674 C   0  0  0  0  0  0  0  0  0  0  0  0
  -22.9735  -18.5783   22.6722 C   0  0  0  0  0  0  0  0  0  0  0  0
  -26.8466  -27.8238   18.4443 C   0  0  0  0  0  0  0  0  0  0  0  0
  -23.6236  -17.1015   20.8538 C   0  0  0  0  0  0  0  0  0  0  0  0
  -25.5819  -29.3824   19.6666 C   0  0  0  0  0  0  0  0  0  0  0  0
  -24.4746  -30.1888   22.0968 C   0  0  0  0  0  0  0  0  0  0  0  0
  -25.9426  -30.6089   20.2245 C   0  0  0  0  0  0  0  0  0  0  0  0
  -29.0745  -24.2277   18.3973 C   0  0  0  0  0  0  0  0  0  0  0  0
  -29.7695  -13.7263   19.8794 C   0  0  0  0  0  0  0  0  0  0  0  0
  -30.6102  -22.6924   18.0517 C   0  0  0  0  0  0  0  0  0  0  0  0
  -31.1372  -24.9072   17.0195 C   0  0  0  0  0  0  0  0  0  0  0  0
  -21.8708  -21.7934   22.9461 C   0  0  0  0  0  0  0  0  0  0  0  0
  -22.3307  -20.5299   25.8981 C   0  0  0  0  0  0  0  0  0  0  0  0
  -23.3490  -17.8765   27.7873 C   0  0  0  0  0  0  0  0  0  0  0  0
  -30.9621  -18.4754   21.3764 C   0  0  0  0  0  0  0  0  0  0  0  0
  -19.9421  -26.5172   22.7929 C   0  0  0  0  0  0  0  0  0  0  0  0
  -20.6634  -19.5895   22.7439 C   0  0  0  0  0  0  0  0  0  0  0  0
  -23.3393  -19.2674   23.9605 C   0  0  0  0  0  0  0  0  0  0  0  0
  -20.8669  -25.7454   23.7307 C   0  0  0  0  0  0  0  0  0  0  0  0
  -27.7552  -19.0110   19.9977 C   0  0  0  0  0  0  0  0  0  0  0  0
  -21.9665  -25.0450   22.9389 C   0  0  0  0  0  0  0  0  0  0  0  0
  -27.9089  -20.4128   19.4095 C   0  0  0  0  0  0  0  0  0  0  0  0
  -28.4559  -18.8756   21.3508 C   0  0  0  0  0  0  0  0  0  0  0  0
  -30.0337  -20.6817   20.7416 C   0  0  0  0  0  0  0  0  0  0  0  0
  -21.3760  -24.0234   21.9596 C   0  0  1  0  0  0  0  0  0  0  0  0
  -21.2507  -20.6395   23.6820 C   0  0  1  0  0  0  0  0  0  0  0  0
  -29.3897  -20.8269   19.3543 C   0  0  2  0  0  0  0  0  0  0  0  0
  -23.6454  -17.1548   30.1725 C   0  0  0  0  0  0  0  0  0  0  0  0
  -24.8527  -22.2356   26.0983 C   0  0  0  0  0  0  0  0  0  0  0  0
  -25.5866  -20.8014   28.0148 C   0  0  0  0  0  0  0  0  0  0  0  0
  -23.4891  -22.1399   28.1925 C   0  0  0  0  0  0  0  0  0  0  0  0
  -29.9400  -17.2645   23.3498 C   0  0  0  0  0  0  0  0  0  0  0  0
  -21.4208  -15.6530   27.4758 C   0  0  0  0  0  0  0  0  0  0  0  0
  -30.3718  -14.9983   20.3136 C   0  0  0  0  0  0  0  0  0  0  0  0
  -31.1405  -14.9359   21.6573 C   0  0  0  0  0  0  0  0  0  0  0  0
  -26.4399  -14.8240   20.2528 C   0  0  0  0  0  0  0  0  0  0  0  0
  -27.5172  -14.1001   21.0636 C   0  0  0  0  0  0  0  0  0  0  0  0
  -31.7892  -16.2571   22.0646 C   0  0  0  0  0  0  0  0  0  0  0  0
  -25.5041  -15.6683   21.1099 C   0  0  0  0  0  0  0  0  0  1  0  0
  -23.5344  -20.0990   26.7010 C   0  0  1  0  0  0  0  0  0  0  0  0
  -22.7085  -17.1806   28.9748 C   0  0  2  0  0  0  0  0  0  0  0  0
  -24.3598  -21.3074   27.2263 C   0  0  0  0  0  0  0  0  0  0  0  0
  -29.3297  -11.7009   18.9621 N   0  0  0  0  0  0  0  0  0  0  0  0
  -28.6079  -23.1418   19.0195 N   0  0  0  0  0  0  0  0  0  0  0  0
  -28.5038  -13.3368   20.2166 N   0  0  0  0  0  0  0  0  0  0  0  0
  -29.5638  -22.2251   18.7912 N   0  0  0  0  0  0  0  0  0  0  0  0
  -22.2820  -20.0934   24.5666 N   0  0  0  0  0  0  0  0  0  0  0  0
  -29.8520  -19.3255   21.2649 N   0  0  0  0  0  0  0  0  0  0  0  0
  -31.6571  -21.9030   17.7306 N   0  0  0  0  0  0  0  0  0  0  0  0
  -30.6877  -26.2215   16.8324 N   0  0  0  0  0  0  0  0  0  0  0  0
  -20.9885  -22.8176   22.6598 N   0  0  0  0  0  0  0  0  0  0  0  0
  -23.0316  -19.2178   27.7493 N   0  0  0  0  0  0  0  0  0  0  0  0
  -30.8215  -17.3384   22.1862 N   0  0  0  0  0  0  0  0  0  0  0  0
  -22.3559  -15.7759   28.6236 N   0  3  0  0  0  0  0  0  0  0  0  0
  -32.2270  -24.5527   16.5095 O   0  0  0  0  0  0  0  0  0  0  0  0
  -23.0620  -21.7579   22.6605 O   0  0  0  0  0  0  0  0  0  0  0  0
  -21.4621  -21.2221   26.4348 O   0  0  0  0  0  0  0  0  0  0  0  0
  -24.0627  -17.2897   26.9769 O   0  0  0  0  0  0  0  0  0  0  0  0
  -32.0246  -18.7219   20.7912 O   0  0  0  0  0  0  0  0  0  0  0  0
  -26.1301  -28.9810   18.4599 O   0  0  0  0  0  0  0  0  0  0  0  0
  -24.5565  -16.3102   20.2576 O   0  0  0  0  0  0  0  0  0  1  0  0
  -23.9416  -30.5766   23.2629 F   0  0  0  0  0  0  0  0  0  0  0  0
  -26.8197  -31.4045   19.5972 F   0  0  0  0  0  0  0  0  0  0  0  0
  1  2  1  0  0  0  0
  1  5  2  0  0  0  0
  2  6  2  0  0  0  0
  3  8  2  0  0  0  0
  3 17  1  0  0  0  0
  4  9  1  0  0  0  0
  4 17  2  0  0  0  0
  5 19  1  0  0  0  0
  6 21  1  0  0  0  0
  7 10  2  0  0  0  0
  7 20  1  0  0  0  0
  8 23  1  0  0  0  0
  9 23  2  0  0  0  0
 10 24  1  0  0  0  0
 11 12  2  0  0  0  0
 11 25  1  0  0  0  0
 12 26  1  0  0  0  0
 13 22  1  0  0  0  0
 13 24  2  0  0  0  0
 14 26  2  0  0  0  0
 14 27  1  0  0  0  0
 15 29  2  0  0  0  0
 15 63  1  0  0  0  0
 16 63  2  0  0  0  0
 16 65  1  0  0  0  0
 17 28  1  0  0  0  0
 18 28  1  0  0  0  0
 18 30  2  0  0  0  0
 18 31  1  0  0  0  0
 19 21  2  0  0  0  0
 19 36  1  0  0  0  0
 20 22  2  0  0  0  0
 20 37  1  0  0  0  0
 21 45  1  0  0  0  0
 22 38  1  0  0  0  0
 23 80  1  0  0  0  0
 24 81  1  0  0  0  0
 25 27  2  0  0  0  0
 25 80  1  0  0  0  0
 26 82  1  0  0  0  0
 27 83  1  0  0  0  0
 28 64  2  0  0  0  0
 29 54  1  0  0  0  0
 29 65  1  0  0  0  0
 30 66  1  0  0  0  0
 30 69  1  0  0  0  0
 31 70  1  0  0  0  0
 31 75  2  0  0  0  0
 32 46  1  0  0  0  0
 32 71  1  0  0  0  0
 32 76  2  0  0  0  0
 33 60  1  0  0  0  0
 33 67  1  0  0  0  0
 33 77  2  0  0  0  0
 34 61  1  0  0  0  0
 34 72  1  0  0  0  0
 34 78  2  0  0  0  0
 35 68  1  0  0  0  0
 35 73  1  0  0  0  0
 35 79  2  0  0  0  0
 36 39  1  0  0  0  0
 37 46  1  0  0  0  0
 38 67  1  0  0  0  0
 39 41  1  0  0  0  0
 40 42  1  0  0  0  0
 40 43  1  0  0  0  0
 41 45  1  0  0  0  0
 42 47  1  0  0  0  0
 43 68  1  0  0  0  0
 44 47  1  0  0  0  0
 44 68  1  0  0  0  0
 45 71  1  0  0  0  0
 46 67  1  0  0  0  0
 47 66  1  0  0  0  0
 48 61  1  0  0  0  0
 49 62  1  0  0  0  0
 50 62  1  0  0  0  0
 51 62  1  0  0  0  0
 52 73  1  0  0  0  0
 53 74  1  0  0  0  0
 54 55  1  0  0  0  0
 55 58  1  0  0  0  0
 56 57  1  0  0  0  0
 56 59  1  0  0  0  0
 57 65  1  0  0  0  0
 58 73  1  0  0  0  0
 59 81  1  0  0  0  0
 60 62  1  0  0  0  0
 60 72  1  0  0  0  0
 61 74  1  0  0  0  0
 64 66  1  0  0  0  0
M  CHG  1  74   1
M  ISO  4  35 100  59 101  73 100  81 101
M  END
> <Batch ID>
0049

> <Smiles>
CNC(C)C(=O)NC(C(=O)N1Cc2cc([101O:1][101CH2:1]CCn3cncc3CCC[100N:0](C)[100C:0](=O)N3CCCC(n4nc(-c5ccc(Oc6ccc(F)cc6F)cc5)c(C(N)=O)c4N)C3)ccc2CC1C(=O)NC1CCCc2ccccc21)C(C)(C)C

> <Shape>
0.218

> <Color>
0.053

> <Negative vol penalty>
0.000

$$$$

  -OEChem-04052317293D

 86 94  0     1  0  0  0  0  0999 V2000
  -31.0814  -25.7288   16.5220 C   0  0  0  0  0  0  0  0  0  0  0  0
  -30.5040  -25.1264   17.6352 C   0  0  0  0  0  0  0  0  0  0  0  0
  -28.5916  -18.2998   19.1542 C   0  0  0  0  0  0  0  0  0  0  0  0
  -28.9485  -18.3651   21.5428 C   0  0  0  0  0  0  0  0  0  0  0  0
  -30.9239  -27.0980   16.3115 C   0  0  0  0  0  0  0  0  0  0  0  0
  -29.7696  -25.8931   18.5392 C   0  0  0  0  0  0  0  0  0  0  0  0
  -25.4265  -23.6691   19.8940 C   0  0  0  0  0  0  0  0  0  0  0  0
  -28.7013  -19.6893   19.0998 C   0  0  0  0  0  0  0  0  0  0  0  0
  -29.0582  -19.7546   21.4885 C   0  0  0  0  0  0  0  0  0  0  0  0
  -25.5028  -22.6444   20.8363 C   0  0  0  0  0  0  0  0  0  0  0  0
  -31.3984  -22.0349   20.6256 C   0  0  0  0  0  0  0  0  0  0  0  0
  -32.4405  -22.6295   21.3369 C   0  0  0  0  0  0  0  0  0  0  0  0
  -24.8210  -24.1874   22.5607 C   0  0  0  0  0  0  0  0  0  0  0  0
  -22.6126  -16.0651   26.6718 C   0  0  0  0  0  0  0  0  0  0  0  0
  -23.2458  -16.1762   24.3542 C   0  0  0  0  0  0  0  0  0  0  0  0
  -30.8368  -23.8828   22.6387 C   0  0  0  0  0  0  0  0  0  0  0  0
  -28.7152  -17.6377   20.3758 C   0  0  0  0  0  0  0  0  0  0  0  0
  -29.6405  -15.2616   20.3033 C   0  0  0  0  0  0  0  0  0  0  0  0
  -30.1791  -27.8802   17.2082 C   0  0  0  0  0  0  0  0  0  0  0  0
  -25.0568  -24.9654   20.2806 C   0  0  0  0  0  0  0  0  0  0  0  0
  -29.6031  -27.2744   18.3412 C   0  0  0  0  0  0  0  0  0  0  0  0
  -24.7383  -25.2262   21.6210 C   0  0  0  0  0  0  0  0  0  0  0  0
  -22.7610  -15.4477   25.4348 C   0  0  0  0  0  0  0  0  0  0  0  0
  -28.9346  -20.4167   20.2669 C   0  0  0  0  0  0  0  0  0  0  0  0
  -25.2028  -22.9041   22.1703 C   0  0  0  0  0  0  0  0  0  0  0  0
  -30.0755  -22.3643   20.9207 C   0  0  0  0  0  0  0  0  0  0  0  0
  -32.1598  -23.5534   22.3435 C   0  0  0  0  0  0  0  0  0  0  0  0
  -29.7947  -23.2882   21.9273 C   0  0  0  0  0  0  0  0  0  0  0  0
  -28.6014  -16.2025   20.4327 C   0  0  0  0  0  0  0  0  0  0  0  0
  -22.9604  -17.4023   26.7752 C   0  0  0  0  0  0  0  0  0  0  0  0
  -23.5651  -17.5085   24.5613 C   0  0  0  0  0  0  0  0  0  0  0  0
  -29.0186  -14.0435   20.4304 C   0  0  0  0  0  0  0  0  0  0  0  0
  -31.0426  -15.4699   20.0877 C   0  0  0  0  0  0  0  0  0  0  0  0
  -26.4718  -27.8113   20.2278 C   0  0  0  0  0  0  0  0  0  0  0  0
  -23.8901  -12.4167   23.1070 C   0  0  0  0  0  0  0  0  0  0  0  0
  -23.5611  -28.8432   21.2205 C   0  0  0  0  0  0  0  0  0  0  0  0
  -20.6048  -28.1245   22.7667 C   0  0  0  0  0  0  0  0  0  0  0  0
  -30.0761  -29.3649   16.9640 C   0  0  0  0  0  0  0  0  0  0  0  0
  -24.9534  -26.0536   19.2474 C   0  0  0  0  0  0  0  0  0  0  0  0
  -24.3165  -26.5961   22.0837 C   0  0  0  0  0  0  0  0  0  0  0  0
  -28.9685  -30.0393   17.7694 C   0  0  0  0  0  0  0  0  0  0  0  0
  -24.8268  -11.8755   19.6909 C   0  0  0  0  0  0  0  0  0  0  0  0
  -29.0104  -29.5801   19.2234 C   0  0  0  0  0  0  0  0  0  0  0  0
  -25.9766  -12.8585   19.4739 C   0  0  0  0  0  0  0  0  0  0  0  0
  -23.7752  -12.4464   20.6372 C   0  0  0  0  0  0  0  0  0  0  0  0
  -25.4705  -13.8698   21.7424 C   0  0  0  0  0  0  0  0  0  0  0  0
  -28.7785  -28.0681   19.3312 C   0  0  1  0  0  0  0  0  0  0  0  0
  -25.0642  -27.4543   19.8417 C   0  0  1  0  0  0  0  0  0  0  0  0
  -26.5701  -13.3200   20.8167 C   0  0  2  0  0  0  0  0  0  0  0  0
  -22.8159  -18.0972   28.0878 C   0  0  0  0  0  0  0  0  0  0  0  0
  -26.5724  -12.5384   25.8782 C   0  0  0  0  0  0  0  0  0  0  0  0
  -18.4378  -29.1814   23.4626 C   0  0  0  0  0  0  0  0  0  0  0  0
  -22.9850  -11.6453   25.9429 C   0  0  0  0  0  0  0  0  0  0  0  0
  -24.9799  -30.2133   23.5486 C   0  0  0  0  0  0  0  0  0  0  0  0
  -22.7601  -30.4220   24.6876 C   0  0  0  0  0  0  0  0  0  0  0  0
  -23.1509  -31.5609   22.5029 C   0  0  0  0  0  0  0  0  0  0  0  0
  -19.0282  -26.2879   21.0636 C   0  0  0  0  0  0  0  0  0  0  0  0
  -22.4026  -14.0099   25.2680 C   0  0  0  0  0  0  0  0  0  0  0  0
  -24.0917  -18.3293   23.4113 C   0  0  0  0  0  0  0  0  0  0  0  0
  -25.7807  -12.0297   24.6784 C   0  0  0  0  0  0  0  0  0  0  0  0
  -24.4007  -19.7815   23.7818 C   0  0  0  0  0  0  0  0  0  0  0  0
  -25.0125  -20.5798   22.6363 C   0  0  0  0  0  0  0  0  0  1  0  0
  -24.5686  -12.9200   24.3561 C   0  0  2  0  0  0  0  0  0  0  0  0
  -22.8991  -29.0459   22.5620 C   0  0  1  0  0  0  0  0  0  0  0  0
  -19.1668  -28.4103   22.3732 C   0  0  2  0  0  0  0  0  0  0  0  0
  -23.5638  -13.0090   25.5379 C   0  0  2  0  0  0  0  0  0  0  0  0
  -23.4573  -30.2850   23.3172 C   0  0  0  0  0  0  0  0  0  0  0  0
  -27.4098  -15.6313   20.6269 N   0  0  0  0  0  0  0  0  0  0  0  0
  -23.4345  -18.1426   25.7481 N   0  0  0  0  0  0  0  0  0  0  0  0
  -27.6962  -14.3182   20.6204 N   0  0  0  0  0  0  0  0  0  0  0  0
  -24.2365  -27.6283   21.0370 N   0  0  0  0  0  0  0  0  0  0  0  0
  -24.3820  -12.8940   21.8920 N   0  0  0  0  0  0  0  0  0  0  0  0
  -29.4793  -12.7751   20.3970 N   0  0  0  0  0  0  0  0  0  0  0  0
  -31.5138  -16.7855   19.9805 N   0  0  0  0  0  0  0  0  0  0  0  0
  -27.3724  -27.7604   19.1810 N   0  0  0  0  0  0  0  0  0  0  0  0
  -21.4640  -29.0992   22.3051 N   0  0  0  0  0  0  0  0  0  0  0  0
  -18.4337  -27.1361   22.1285 N   0  3  0  0  0  0  0  0  0  0  0  0
  -31.8510  -14.5172   19.9764 O   0  0  0  0  0  0  0  0  0  0  0  0
  -26.7219  -28.1120   21.3891 O   0  0  0  0  0  0  0  0  0  0  0  0
  -22.9530  -11.6208   23.2100 O   0  0  0  0  0  0  0  0  0  0  0  0
  -23.4760  -29.7272   20.3644 O   0  0  0  0  0  0  0  0  0  0  0  0
  -20.9327  -27.1374   23.4214 O   0  0  0  0  0  0  0  0  0  0  0  0
  -29.0419  -21.7725   20.2142 O   0  0  0  0  0  0  0  0  0  0  0  0
  -25.2771  -21.9058   23.0922 O   0  0  0  0  0  0  0  0  0  1  0  0
  -33.1606  -24.1232   23.0275 F   0  0  0  0  0  0  0  0  0  0  0  0
  -28.5257  -23.6078   22.2161 F   0  0  0  0  0  0  0  0  0  0  0  0
  1  2  1  0  0  0  0
  1  5  2  0  0  0  0
  2  6  2  0  0  0  0
  3  8  2  0  0  0  0
  3 17  1  0  0  0  0
  4  9  1  0  0  0  0
  4 17  2  0  0  0  0
  5 19  1  0  0  0  0
  6 21  1  0  0  0  0
  7 10  2  0  0  0  0
  7 20  1  0  0  0  0
  8 24  1  0  0  0  0
  9 24  2  0  0  0  0
 10 25  1  0  0  0  0
 11 12  2  0  0  0  0
 11 26  1  0  0  0  0
 12 27  1  0  0  0  0
 13 22  1  0  0  0  0
 13 25  2  0  0  0  0
 14 23  1  0  0  0  0
 14 30  2  0  0  0  0
 15 23  2  0  0  0  0
 15 31  1  0  0  0  0
 16 27  2  0  0  0  0
 16 28  1  0  0  0  0
 17 29  1  0  0  0  0
 18 29  1  0  0  0  0
 18 32  2  0  0  0  0
 18 33  1  0  0  0  0
 19 21  2  0  0  0  0
 19 38  1  0  0  0  0
 20 22  2  0  0  0  0
 20 39  1  0  0  0  0
 21 47  1  0  0  0  0
 22 40  1  0  0  0  0
 23 58  1  0  0  0  0
 24 83  1  0  0  0  0
 25 84  1  0  0  0  0
 26 28  2  0  0  0  0
 26 83  1  0  0  0  0
 27 85  1  0  0  0  0
 28 86  1  0  0  0  0
 29 68  2  0  0  0  0
 30 50  1  0  0  0  0
 30 69  1  0  0  0  0
 31 59  1  0  0  0  0
 31 69  2  0  0  0  0
 32 70  1  0  0  0  0
 32 73  1  0  0  0  0
 33 74  1  0  0  0  0
 33 78  2  0  0  0  0
 34 48  1  0  0  0  0
 34 75  1  0  0  0  0
 34 79  2  0  0  0  0
 35 63  1  0  0  0  0
 35 72  1  0  0  0  0
 35 80  2  0  0  0  0
 36 64  1  0  0  0  0
 36 71  1  0  0  0  0
 36 81  2  0  0  0  0
 37 65  1  0  0  0  0
 37 76  1  0  0  0  0
 37 82  2  0  0  0  0
 38 41  1  0  0  0  0
 39 48  1  0  0  0  0
 40 71  1  0  0  0  0
 41 43  1  0  0  0  0
 42 44  1  0  0  0  0
 42 45  1  0  0  0  0
 43 47  1  0  0  0  0
 44 49  1  0  0  0  0
 45 72  1  0  0  0  0
 46 49  1  0  0  0  0
 46 72  1  0  0  0  0
 47 75  1  0  0  0  0
 48 71  1  0  0  0  0
 49 70  1  0  0  0  0
 51 60  1  0  0  0  0
 52 65  1  0  0  0  0
 53 66  1  0  0  0  0
 54 67  1  0  0  0  0
 55 67  1  0  0  0  0
 56 67  1  0  0  0  0
 57 77  1  0  0  0  0
 58 66  1  0  0  0  0
 59 61  1  0  0  0  0
 60 63  1  0  0  0  0
 61 62  1  0  0  0  0
 62 84  1  0  0  0  0
 63 66  1  0  0  0  0
 64 67  1  0  0  0  0
 64 76  1  0  0  0  0
 65 77  1  0  0  0  0
 68 70  1  0  0  0  0
M  CHG  1  77   1
M  ISO  4  35 100  62 101  63 100  84 101
M  END
> <Batch ID>
0049

> <Smiles>
CC[100CH:0](C(C)Cc1cc(C)nc(CC[101CH2:1][101O:1]c2ccc3c(c2)CN(C(=O)C(NC(=O)C(C)NC)C(C)(C)C)C(C(=O)NC2CCCc4ccccc42)C3)c1)[100C:0](=O)N1CCCC(n2nc(-c3ccc(Oc4ccc(F)cc4F)cc3)c(C(N)=O)c2N)C1

> <Shape>
0.242

> <Color>
0.056

> <Negative vol penalty>
0.000

$$$$

  -OEChem-04052317293D

 85 93  0     1  0  0  0  0  0999 V2000
  -31.2168  -25.9780   14.2788 C   0  0  0  0  0  0  0  0  0  0  0  0
  -30.4572  -25.2897   15.2195 C   0  0  0  0  0  0  0  0  0  0  0  0
  -22.4709  -17.1556   20.6205 C   0  0  0  0  0  0  0  0  0  0  0  0
  -22.3069  -14.7556   20.8441 C   0  0  0  0  0  0  0  0  0  0  0  0
  -31.7387  -27.2330   14.5893 C   0  0  0  0  0  0  0  0  0  0  0  0
  -30.2200  -25.8557   16.4716 C   0  0  0  0  0  0  0  0  0  0  0  0
  -25.3922  -25.3944   17.9291 C   0  0  0  0  0  0  0  0  0  0  0  0
  -21.2291  -17.2982   21.2395 C   0  0  0  0  0  0  0  0  0  0  0  0
  -21.0651  -14.8982   21.4632 C   0  0  0  0  0  0  0  0  0  0  0  0
  -24.9918  -24.1533   18.4223 C   0  0  0  0  0  0  0  0  0  0  0  0
  -17.9724  -16.9919   20.3884 C   0  0  0  0  0  0  0  0  0  0  0  0
  -17.0616  -17.8795   19.8155 C   0  0  0  0  0  0  0  0  0  0  0  0
  -25.2061  -24.9865   20.6760 C   0  0  0  0  0  0  0  0  0  0  0  0
  -17.0255  -19.1633   21.8619 C   0  0  0  0  0  0  0  0  0  0  0  0
  -23.0098  -15.8843   20.4227 C   0  0  0  0  0  0  0  0  0  0  0  0
  -24.6492  -16.1554   18.4871 C   0  0  0  0  0  0  0  0  0  0  0  0
  -31.4997  -27.8189   15.8424 C   0  0  0  0  0  0  0  0  0  0  0  0
  -25.7136  -26.4393   18.8074 C   0  0  0  0  0  0  0  0  0  0  0  0
  -30.7403  -27.1192   16.7996 C   0  0  0  0  0  0  0  0  0  0  0  0
  -25.6079  -26.2407   20.1914 C   0  0  0  0  0  0  0  0  0  0  0  0
  -20.5262  -16.1695   21.6609 C   0  0  0  0  0  0  0  0  0  0  0  0
  -24.9015  -23.9484   19.7960 C   0  0  0  0  0  0  0  0  0  0  0  0
  -18.4097  -17.1899   21.6981 C   0  0  0  0  0  0  0  0  0  0  0  0
  -16.5882  -18.9652   20.5522 C   0  0  0  0  0  0  0  0  0  0  0  0
  -17.9363  -18.2756   22.4348 C   0  0  0  0  0  0  0  0  0  0  0  0
  -24.2922  -15.7363   19.7828 C   0  0  0  0  0  0  0  0  0  0  0  0
  -25.9658  -15.7865   18.3575 C   0  0  0  0  0  0  0  0  0  0  0  0
  -29.2199  -22.0521   20.2921 C   0  0  0  0  0  0  0  0  0  0  0  0
  -27.4872  -20.7483   20.8703 C   0  0  0  0  0  0  0  0  0  0  0  0
  -29.3041  -19.8413   19.9148 C   0  0  0  0  0  0  0  0  0  0  0  0
  -23.8611  -16.8189   17.4900 C   0  0  0  0  0  0  0  0  0  0  0  0
  -28.3322  -28.1371   19.4106 C   0  0  0  0  0  0  0  0  0  0  0  0
  -26.3275  -29.8219   21.3251 C   0  0  0  0  0  0  0  0  0  0  0  0
  -23.4495  -29.8931   23.1577 C   0  0  0  0  0  0  0  0  0  0  0  0
  -31.0936  -15.3115   20.2781 C   0  0  0  0  0  0  0  0  0  0  0  0
  -32.1243  -29.1570   16.1491 C   0  0  0  0  0  0  0  0  0  0  0  0
  -26.1181  -27.7802   18.2590 C   0  0  0  0  0  0  0  0  0  0  0  0
  -25.9222  -27.3362   21.1760 C   0  0  0  0  0  0  0  0  0  0  0  0
  -31.5130  -29.8504   17.3639 C   0  0  0  0  0  0  0  0  0  0  0  0
  -28.8690  -12.8340   21.2473 C   0  0  0  0  0  0  0  0  0  0  0  0
  -31.3752  -28.8704   18.5247 C   0  0  0  0  0  0  0  0  0  0  0  0
  -27.5023  -13.3929   20.8539 C   0  0  0  0  0  0  0  0  0  0  0  0
  -29.7557  -13.9263   21.8331 C   0  0  0  0  0  0  0  0  0  0  0  0
  -28.5914  -15.6683   20.5174 C   0  0  0  0  0  0  0  0  0  0  0  0
  -30.4404  -27.7109   18.1598 C   0  0  1  0  0  0  0  0  0  0  0  0
  -26.9168  -28.6165   19.2541 C   0  0  1  0  0  0  0  0  0  0  0  0
  -27.6512  -14.6036   19.9160 C   0  0  2  0  0  0  0  0  0  0  0  0
  -29.8521  -23.4000   20.2149 C   0  0  0  0  0  0  0  0  0  0  0  0
  -33.7627  -17.2207   20.3178 C   0  0  0  0  0  0  0  0  0  0  0  0
  -22.0960  -31.3971   24.6421 C   0  0  0  0  0  0  0  0  0  0  0  0
  -28.3116  -29.3612   23.5969 C   0  0  0  0  0  0  0  0  0  0  0  0
  -26.5141  -30.0253   25.2082 C   0  0  0  0  0  0  0  0  0  0  0  0
  -27.3357  -31.6623   23.5147 C   0  0  0  0  0  0  0  0  0  0  0  0
  -21.1218  -29.7923   21.3328 C   0  0  0  0  0  0  0  0  0  0  0  0
  -26.1103  -20.5942   21.4653 C   0  0  0  0  0  0  0  0  0  0  0  0
  -30.0332  -18.6455   19.4037 C   0  0  0  0  0  0  0  0  0  0  0  0
  -25.0077  -20.3948   20.4231 C   0  0  0  0  0  0  0  0  0  0  0  0
  -32.6595  -16.9535   19.3140 C   0  0  0  0  0  0  0  0  0  0  0  0
  -30.6725  -17.7963   20.5092 C   0  0  0  0  0  0  0  0  0  0  0  0
  -24.8315  -21.5904   19.4942 C   0  0  0  0  0  0  0  0  0  1  0  0
  -25.8937  -29.7247   22.7678 C   0  0  1  0  0  0  0  0  0  0  0  0
  -22.3201  -30.9055   23.2205 C   0  0  2  0  0  0  0  0  0  0  0  0
  -27.0096  -30.1720   23.7536 C   0  0  0  0  0  0  0  0  0  0  0  0
  -25.3007  -15.1462   20.4300 N   0  0  0  0  0  0  0  0  0  0  0  0
  -27.9927  -21.9916   20.8341 N   0  0  0  0  0  0  0  0  0  0  0  0
  -29.9355  -21.0219   19.8125 N   0  0  0  0  0  0  0  0  0  0  0  0
  -28.0829  -19.6281   20.4306 N   0  0  0  0  0  0  0  0  0  0  0  0
  -26.3042  -15.1917   19.5373 N   0  0  0  0  0  0  0  0  0  0  0  0
  -26.3194  -28.6274   20.5909 N   0  0  0  0  0  0  0  0  0  0  0  0
  -29.8706  -15.0625   20.9184 N   0  0  0  0  0  0  0  0  0  0  0  0
  -26.8555  -15.9159   17.3505 N   0  0  0  0  0  0  0  0  0  0  0  0
  -23.1434  -16.0359   16.5755 N   0  0  0  0  0  0  0  0  0  0  0  0
  -29.0582  -28.1331   18.2349 N   0  0  0  0  0  0  0  0  0  0  0  0
  -24.6583  -30.4933   22.8751 N   0  0  0  0  0  0  0  0  0  0  0  0
  -31.3968  -16.6465   19.9708 N   0  0  0  0  0  0  0  0  0  0  0  0
  -21.0516  -30.2977   22.7280 N   0  3  0  0  0  0  0  0  0  0  0  0
  -23.8082  -18.0690   17.4019 O   0  0  0  0  0  0  0  0  0  0  0  0
  -28.7363  -27.7975   20.5166 O   0  0  0  0  0  0  0  0  0  0  0  0
  -26.6546  -30.9185   20.8645 O   0  0  0  0  0  0  0  0  0  0  0  0
  -23.2773  -28.6906   23.3446 O   0  0  0  0  0  0  0  0  0  0  0  0
  -31.8763  -14.3930   20.0025 O   0  0  0  0  0  0  0  0  0  0  0  0
  -19.3145  -16.3083   22.2652 O   0  0  0  0  0  0  0  0  0  0  0  0
  -24.5116  -22.7378   20.2800 O   0  0  0  0  0  0  0  0  0  1  0  0
  -15.7147  -19.8184   20.0014 F   0  0  0  0  0  0  0  0  0  0  0  0
  -18.3536  -18.4717   23.6931 F   0  0  0  0  0  0  0  0  0  0  0  0
  1  2  1  0  0  0  0
  1  5  2  0  0  0  0
  2  6  2  0  0  0  0
  3  8  2  0  0  0  0
  3 15  1  0  0  0  0
  4  9  1  0  0  0  0
  4 15  2  0  0  0  0
  5 17  1  0  0  0  0
  6 19  1  0  0  0  0
  7 10  2  0  0  0  0
  7 18  1  0  0  0  0
  8 21  1  0  0  0  0
  9 21  2  0  0  0  0
 10 22  1  0  0  0  0
 11 12  2  0  0  0  0
 11 23  1  0  0  0  0
 12 24  1  0  0  0  0
 13 20  1  0  0  0  0
 13 22  2  0  0  0  0
 14 24  2  0  0  0  0
 14 25  1  0  0  0  0
 15 26  1  0  0  0  0
 16 26  1  0  0  0  0
 16 27  2  0  0  0  0
 16 31  1  0  0  0  0
 17 19  2  0  0  0  0
 17 36  1  0  0  0  0
 18 20  2  0  0  0  0
 18 37  1  0  0  0  0
 19 45  1  0  0  0  0
 20 38  1  0  0  0  0
 21 82  1  0  0  0  0
 22 83  1  0  0  0  0
 23 25  2  0  0  0  0
 23 82  1  0  0  0  0
 24 84  1  0  0  0  0
 25 85  1  0  0  0  0
 26 64  2  0  0  0  0
 27 68  1  0  0  0  0
 27 71  1  0  0  0  0
 28 48  1  0  0  0  0
 28 65  1  0  0  0  0
 28 66  2  0  0  0  0
 29 55  1  0  0  0  0
 29 65  2  0  0  0  0
 29 67  1  0  0  0  0
 30 56  1  0  0  0  0
 30 66  1  0  0  0  0
 30 67  2  0  0  0  0
 31 72  1  0  0  0  0
 31 77  2  0  0  0  0
 32 46  1  0  0  0  0
 32 73  1  0  0  0  0
 32 78  2  0  0  0  0
 33 61  1  0  0  0  0
 33 69  1  0  0  0  0
 33 79  2  0  0  0  0
 34 62  1  0  0  0  0
 34 74  1  0  0  0  0
 34 80  2  0  0  0  0
 35 70  1  0  0  0  0
 35 75  1  0  0  0  0
 35 81  2  0  0  0  0
 36 39  1  0  0  0  0
 37 46  1  0  0  0  0
 38 69  1  0  0  0  0
 39 41  1  0  0  0  0
 40 42  1  0  0  0  0
 40 43  1  0  0  0  0
 41 45  1  0  0  0  0
 42 47  1  0  0  0  0
 43 70  1  0  0  0  0
 44 47  1  0  0  0  0
 44 70  1  0  0  0  0
 45 73  1  0  0  0  0
 46 69  1  0  0  0  0
 47 68  1  0  0  0  0
 49 58  1  0  0  0  0
 50 62  1  0  0  0  0
 51 63  1  0  0  0  0
 52 63  1  0  0  0  0
 53 63  1  0  0  0  0
 54 76  1  0  0  0  0
 55 57  1  0  0  0  0
 56 59  1  0  0  0  0
 57 60  1  0  0  0  0
 58 75  1  0  0  0  0
 59 75  1  0  0  0  0
 60 83  1  0  0  0  0
 61 63  1  0  0  0  0
 61 74  1  0  0  0  0
 62 76  1  0  0  0  0
 64 68  1  0  0  0  0
M  CHG  1  76   1
M  ISO  4  35 100  60 101  75 100  83 101
M  END
> <Batch ID>
0049

> <Smiles>
CC[100N:0](CCc1nc(C)nc(CC[101CH2:1][101O:1]c2ccc3c(c2)CN(C(=O)C(NC(=O)C(C)NC)C(C)(C)C)C(C(=O)NC2CCCc4ccccc42)C3)n1)[100C:0](=O)N1CCCC(n2nc(-c3ccc(Oc4ccc(F)cc4F)cc3)c(C(N)=O)c2N)C1

> <Shape>
0.210

> <Color>
0.088

> <Negative vol penalty>
0.000

$$$$

  -OEChem-04052317293D

 86 94  0     1  0  0  0  0  0999 V2000
  -21.4246  -12.2806   20.7122 C   0  0  0  0  0  0  0  0  0  0  0  0
  -21.5226  -13.5993   21.1444 C   0  0  0  0  0  0  0  0  0  0  0  0
  -30.3535  -25.2721   24.6786 C   0  0  0  0  0  0  0  0  0  0  0  0
  -28.3077  -24.2722   23.8712 C   0  0  0  0  0  0  0  0  0  0  0  0
  -22.5807  -11.5434   20.4593 C   0  0  0  0  0  0  0  0  0  0  0  0
  -22.7769  -14.1812   21.3250 C   0  0  0  0  0  0  0  0  0  0  0  0
  -23.0464  -18.8552   19.3946 C   0  0  0  0  0  0  0  0  0  0  0  0
  -30.5941  -24.1452   25.4646 C   0  0  0  0  0  0  0  0  0  0  0  0
  -28.5483  -23.1452   24.6571 C   0  0  0  0  0  0  0  0  0  0  0  0
  -22.4697  -19.8848   20.1368 C   0  0  0  0  0  0  0  0  0  0  0  0
  -28.2287  -22.2578   27.9038 C   0  0  0  0  0  0  0  0  0  0  0  0
  -27.1618  -21.7401   28.6383 C   0  0  0  0  0  0  0  0  0  0  0  0
  -24.6500  -20.5005   20.9653 C   0  0  0  0  0  0  0  0  0  0  0  0
  -27.3709  -19.6402   27.4618 C   0  0  0  0  0  0  0  0  0  0  0  0
  -21.6054  -24.1181   22.7830 C   0  0  0  0  0  0  0  0  0  0  0  0
  -29.2102  -25.3356   23.8819 C   0  0  0  0  0  0  0  0  0  0  0  0
  -29.3785  -26.7162   21.7434 C   0  0  0  0  0  0  0  0  0  0  0  0
  -23.8496  -12.1196   20.6277 C   0  0  0  0  0  0  0  0  0  0  0  0
  -24.4302  -18.6332   19.4407 C   0  0  0  0  0  0  0  0  0  0  0  0
  -23.9510  -13.4506   21.0755 C   0  0  0  0  0  0  0  0  0  0  0  0
  -25.2421  -19.4690   20.2207 C   0  0  0  0  0  0  0  0  0  0  0  0
  -22.7867  -23.5399   23.1787 C   0  0  0  0  0  0  0  0  0  0  0  0
  -29.6915  -23.0818   25.4539 C   0  0  0  0  0  0  0  0  0  0  0  0
  -23.2712  -20.7059   20.9246 C   0  0  0  0  0  0  0  0  0  0  0  0
  -28.8666  -21.4667   26.9483 C   0  0  0  0  0  0  0  0  0  0  0  0
  -26.7329  -20.4313   28.4173 C   0  0  0  0  0  0  0  0  0  0  0  0
  -28.4377  -20.1580   26.7274 C   0  0  0  0  0  0  0  0  0  0  0  0
  -28.9608  -26.4997   23.0702 C   0  0  0  0  0  0  0  0  0  0  0  0
  -23.0644  -24.1262   24.4281 C   0  0  0  0  0  0  0  0  0  0  0  0
  -28.8926  -27.9619   21.4294 C   0  0  0  0  0  0  0  0  0  0  0  0
  -30.1377  -25.8672   20.8726 C   0  0  0  0  0  0  0  0  0  0  0  0
  -26.2861  -16.2262   20.3711 C   0  0  0  0  0  0  0  0  0  0  0  0
  -24.2921  -31.1447   23.6243 C   0  0  0  0  0  0  0  0  0  0  0  0
  -28.6470  -18.0898   19.1565 C   0  0  0  0  0  0  0  0  0  0  0  0
  -29.7250  -21.2151   18.3095 C   0  0  0  0  0  0  0  0  0  0  0  0
  -25.0712  -11.2683   20.3873 C   0  0  0  0  0  0  0  0  0  0  0  0
  -25.0400  -17.5351   18.6132 C   0  0  0  0  0  0  0  0  0  0  0  0
  -26.7354  -19.2852   20.2888 C   0  0  0  0  0  0  0  0  0  0  0  0
  -26.3582  -12.0765   20.2435 C   0  0  0  0  0  0  0  0  0  0  0  0
  -27.7266  -32.1456   23.4184 C   0  0  0  0  0  0  0  0  0  0  0  0
  -26.4547  -13.1270   21.3452 C   0  0  0  0  0  0  0  0  0  0  0  0
  -28.4729  -30.8279   23.2137 C   0  0  0  0  0  0  0  0  0  0  0  0
  -26.5156  -31.9659   24.3285 C   0  0  0  0  0  0  0  0  0  0  0  0
  -26.3065  -29.5916   23.6647 C   0  0  0  0  0  0  0  0  0  0  0  0
  -25.2933  -14.1247   21.2594 C   0  0  1  0  0  0  0  0  0  0  0  0
  -26.3974  -17.0759   19.1369 C   0  0  1  0  0  0  0  0  0  0  0  0
  -27.5193  -29.7225   22.7265 C   0  0  2  0  0  0  0  0  0  0  0  0
  -24.2175  -23.8710   25.3092 C   0  0  0  0  0  0  0  0  0  0  0  0
  -31.7138  -22.4270   17.3751 C   0  0  0  0  0  0  0  0  0  0  0  0
  -30.0693  -17.8219   21.8426 C   0  0  0  0  0  0  0  0  0  0  0  0
  -31.5091  -19.7650   21.1953 C   0  0  0  0  0  0  0  0  0  0  0  0
  -31.5696  -17.6666   19.8478 C   0  0  0  0  0  0  0  0  0  0  0  0
  -21.8707  -31.4975   21.8180 C   0  0  0  0  0  0  0  0  0  0  0  0
  -21.2578  -30.7554   24.1512 C   0  0  0  0  0  0  0  0  0  0  0  0
  -28.1835  -22.1858   15.9770 C   0  0  0  0  0  0  0  0  0  0  0  0
  -21.8729  -28.8130   20.9388 C   0  0  0  0  0  0  0  0  0  0  0  0
  -23.5913  -22.5141   22.4359 C   0  0  0  0  0  0  0  0  0  1  0  0
  -23.4616  -29.9907   23.1219 C   0  0  0  0  0  0  0  0  0  0  0  0
  -20.1827  -27.0566   22.9109 C   0  0  0  0  0  0  0  0  0  0  0  0
  -20.0894  -25.8245   23.8171 C   0  0  0  0  0  0  0  0  0  0  0  0
  -21.3191  -28.0209   23.2337 C   0  0  0  0  0  0  0  0  0  0  0  0
  -29.5438  -19.1727   19.7060 C   0  0  1  0  0  0  0  0  0  0  0  0
  -30.3937  -21.7440   17.0535 C   0  0  2  0  0  0  0  0  0  0  0  0
  -30.6446  -18.6091   20.6484 C   0  0  0  0  0  0  0  0  0  0  0  0
  -22.0005  -30.3873   22.8642 C   0  0  0  0  0  0  0  0  0  0  0  0
  -28.2634  -27.5257   23.5652 N   0  0  0  0  0  0  0  0  0  0  0  0
  -22.1345  -25.0094   24.8013 N   0  0  0  0  0  0  0  0  0  0  0  0
  -21.2609  -24.9823   23.7804 N   0  0  0  0  0  0  0  0  0  0  0  0
  -28.2391  -28.3989   22.5440 N   0  0  0  0  0  0  0  0  0  0  0  0
  -27.2837  -18.1939   19.4666 N   0  0  0  0  0  0  0  0  0  0  0  0
  -25.6463  -30.8922   23.8441 N   0  0  0  0  0  0  0  0  0  0  0  0
  -28.9648  -28.7152   20.3115 N   0  0  0  0  0  0  0  0  0  0  0  0
  -30.5579  -24.6201   21.3547 N   0  0  0  0  0  0  0  0  0  0  0  0
  -25.5279  -15.0835   20.2011 N   0  0  0  0  0  0  0  0  0  0  0  0
  -30.0605  -19.8998   18.5515 N   0  0  0  0  0  0  0  0  0  0  0  0
  -29.5084  -22.7299   16.3713 N   0  3  0  0  0  0  0  0  0  0  0  0
  -21.3147  -29.1679   22.2961 N   0  3  1  0  0  0  0  0  0  0  0  0
  -30.4488  -26.2113   19.7071 O   0  0  0  0  0  0  0  0  0  0  0  0
  -26.8479  -16.5803   21.4010 O   0  0  0  0  0  0  0  0  0  0  0  0
  -23.7522  -32.2380   23.8124 O   0  0  0  0  0  0  0  0  0  0  0  0
  -29.1370  -17.1888   18.4711 O   0  0  0  0  0  0  0  0  0  0  0  0
  -28.9824  -21.9014   19.0082 O   0  0  0  0  0  0  0  0  0  0  0  0
  -29.9261  -21.9819   26.2205 O   0  0  0  0  0  0  0  0  0  0  0  0
  -22.7108  -21.7113   21.6506 O   0  0  0  0  0  0  0  0  0  1  0  0
  -25.7094  -19.9338   29.1238 F   0  0  0  0  0  0  0  0  0  0  0  0
  -29.0474  -19.3928   25.8116 F   0  0  0  0  0  0  0  0  0  0  0  0
  1  2  1  0  0  0  0
  1  5  2  0  0  0  0
  2  6  2  0  0  0  0
  3  8  2  0  0  0  0
  3 16  1  0  0  0  0
  4  9  1  0  0  0  0
  4 16  2  0  0  0  0
  5 18  1  0  0  0  0
  6 20  1  0  0  0  0
  7 10  2  0  0  0  0
  7 19  1  0  0  0  0
  8 23  1  0  0  0  0
  9 23  2  0  0  0  0
 10 24  1  0  0  0  0
 11 12  2  0  0  0  0
 11 25  1  0  0  0  0
 12 26  1  0  0  0  0
 13 21  1  0  0  0  0
 13 24  2  0  0  0  0
 14 26  2  0  0  0  0
 14 27  1  0  0  0  0
 15 22  2  0  0  0  0
 15 68  1  0  0  0  0
 16 28  1  0  0  0  0
 17 28  1  0  0  0  0
 17 30  2  0  0  0  0
 17 31  1  0  0  0  0
 18 20  2  0  0  0  0
 18 36  1  0  0  0  0
 19 21  2  0  0  0  0
 19 37  1  0  0  0  0
 20 45  1  0  0  0  0
 21 38  1  0  0  0  0
 22 29  1  0  0  0  0
 22 57  1  0  0  0  0
 23 83  1  0  0  0  0
 24 84  1  0  0  0  0
 25 27  2  0  0  0  0
 25 83  1  0  0  0  0
 26 85  1  0  0  0  0
 27 86  1  0  0  0  0
 28 66  2  0  0  0  0
 29 48  1  0  0  0  0
 29 67  2  0  0  0  0
 30 69  1  0  0  0  0
 30 72  1  0  0  0  0
 31 73  1  0  0  0  0
 31 78  2  0  0  0  0
 32 46  1  0  0  0  0
 32 74  1  0  0  0  0
 32 79  2  0  0  0  0
 33 58  1  0  0  0  0
 33 71  1  0  0  0  0
 33 80  2  0  0  0  0
 34 62  1  0  0  0  0
 34 70  1  0  0  0  0
 34 81  2  0  0  0  0
 35 63  1  0  0  0  0
 35 75  1  0  0  0  0
 35 82  2  0  0  0  0
 36 39  1  0  0  0  0
 37 46  1  0  0  0  0
 38 70  1  0  0  0  0
 39 41  1  0  0  0  0
 40 42  1  0  0  0  0
 40 43  1  0  0  0  0
 41 45  1  0  0  0  0
 42 47  1  0  0  0  0
 43 71  1  0  0  0  0
 44 47  1  0  0  0  0
 44 71  1  0  0  0  0
 45 74  1  0  0  0  0
 46 70  1  0  0  0  0
 47 69  1  0  0  0  0
 49 63  1  0  0  0  0
 50 64  1  0  0  0  0
 51 64  1  0  0  0  0
 52 64  1  0  0  0  0
 53 65  1  0  0  0  0
 54 65  1  0  0  0  0
 55 76  1  0  0  0  0
 56 77  1  0  0  0  0
 57 84  1  0  0  0  0
 58 65  1  0  0  0  0
 59 60  1  0  0  0  0
 59 61  1  0  0  0  0
 60 68  1  0  0  0  0
 61 77  1  0  0  0  0
 62 64  1  0  0  0  0
 62 75  1  0  0  0  0
 63 76  1  0  0  0  0
 65 77  1  0  0  0  0
 66 69  1  0  0  0  0
 67 68  1  0  0  0  0
M  CHG  2  76   1  77   1
M  ISO  4  33 100  57 101  58 100  84 101
M  END
> <Batch ID>
0049

> <Smiles>
CNC(C)C(=O)NC(C(=O)N1Cc2cc([101O:1][101CH2:1]c3cn(CCCN(C)C(C)(C)[100CH2:0][100C:0](=O)N4CCCC(n5nc(-c6ccc(Oc7ccc(F)cc7F)cc6)c(C(N)=O)c5N)C4)nc3C)ccc2CC1C(=O)NC1CCCc2ccccc21)C(C)(C)C

> <Shape>
0.213

> <Color>
0.087

> <Negative vol penalty>
0.000

$$$$

  -OEChem-04052317293D

 86 94  0     1  0  0  0  0  0999 V2000
  -23.5228   -8.2949   22.8304 C   0  0  0  0  0  0  0  0  0  0  0  0
  -24.1820   -9.1074   21.9136 C   0  0  0  0  0  0  0  0  0  0  0  0
  -22.4463  -29.2114   20.1845 C   0  0  0  0  0  0  0  0  0  0  0  0
  -23.1899  -28.8297   22.4513 C   0  0  0  0  0  0  0  0  0  0  0  0
  -22.2435   -8.6350   23.2680 C   0  0  0  0  0  0  0  0  0  0  0  0
  -23.5618  -10.2600   21.4328 C   0  0  0  0  0  0  0  0  0  0  0  0
  -26.6709  -14.2568   21.3690 C   0  0  0  0  0  0  0  0  0  0  0  0
  -21.1701  -29.5200   20.6551 C   0  0  0  0  0  0  0  0  0  0  0  0
  -21.9136  -29.1384   22.9220 C   0  0  0  0  0  0  0  0  0  0  0  0
  -27.5947  -14.3282   20.3273 C   0  0  0  0  0  0  0  0  0  0  0  0
  -18.7581  -29.4756   24.6936 C   0  0  0  0  0  0  0  0  0  0  0  0
  -18.2065  -28.6419   25.6663 C   0  0  0  0  0  0  0  0  0  0  0  0
  -26.1636  -15.8899   19.1731 C   0  0  0  0  0  0  0  0  0  0  0  0
  -18.3598  -26.7689   24.1479 C   0  0  0  0  0  0  0  0  0  0  0  0
  -23.4563  -28.8662   21.0826 C   0  0  0  0  0  0  0  0  0  0  0  0
  -25.8457  -29.4380   20.3960 C   0  0  0  0  0  0  0  0  0  0  0  0
  -21.6110   -9.7975   22.7997 C   0  0  0  0  0  0  0  0  0  0  0  0
  -25.4793  -14.9943   21.3154 C   0  0  0  0  0  0  0  0  0  0  0  0
  -22.2722  -10.6153   21.8635 C   0  0  0  0  0  0  0  0  0  0  0  0
  -25.2274  -15.8281   20.2166 C   0  0  0  0  0  0  0  0  0  0  0  0
  -20.9037  -29.4836   22.0238 C   0  0  0  0  0  0  0  0  0  0  0  0
  -27.3398  -15.1426   19.2278 C   0  0  0  0  0  0  0  0  0  0  0  0
  -19.1104  -28.9560   23.4479 C   0  0  0  0  0  0  0  0  0  0  0  0
  -18.0074  -27.2885   25.3935 C   0  0  0  0  0  0  0  0  0  0  0  0
  -18.9112  -27.6027   23.1751 C   0  0  0  0  0  0  0  0  0  0  0  0
  -24.7747  -28.5467   20.5971 C   0  0  0  0  0  0  0  0  0  0  0  0
  -30.1945  -18.5072   20.7657 C   0  0  0  0  0  0  0  0  0  0  0  0
  -29.9833  -19.7289   20.1654 C   0  0  0  0  0  0  0  0  0  0  0  0
  -30.7039  -18.8735   18.1708 C   0  0  0  0  0  0  0  0  0  0  0  0
  -30.9159  -17.6519   18.7712 C   0  0  0  0  0  0  0  0  0  0  0  0
  -26.8671  -28.6475   19.9288 C   0  0  0  0  0  0  0  0  0  0  0  0
  -25.9113  -30.8538   20.6124 C   0  0  0  0  0  0  0  0  0  0  0  0
  -22.3871  -14.2599   21.2662 C   0  0  0  0  0  0  0  0  0  0  0  0
  -22.0191  -17.4749   21.4906 C   0  0  0  0  0  0  0  0  0  0  0  0
  -23.3295  -20.5839   20.9769 C   0  0  0  0  0  0  0  0  0  0  0  0
  -28.0404  -22.9059   20.6447 C   0  0  0  0  0  0  0  0  0  0  0  0
  -20.2086  -10.0988   23.2656 C   0  0  0  0  0  0  0  0  0  0  0  0
  -24.5053  -14.9268   22.4596 C   0  0  0  0  0  0  0  0  0  0  0  0
  -23.9726  -16.6556   20.1203 C   0  0  0  0  0  0  0  0  0  0  0  0
  -19.7716  -11.5358   22.9925 C   0  0  0  0  0  0  0  0  0  0  0  0
  -27.6597  -24.6142   17.4770 C   0  0  0  0  0  0  0  0  0  0  0  0
  -20.1267  -11.9396   21.5651 C   0  0  0  0  0  0  0  0  0  0  0  0
  -26.9727  -25.9102   17.9110 C   0  0  0  0  0  0  0  0  0  0  0  0
  -27.1586  -23.4239   18.2895 C   0  0  0  0  0  0  0  0  0  0  0  0
  -26.6078  -24.8790   20.2008 C   0  0  0  0  0  0  0  0  0  0  0  0
  -21.6423  -11.8869   21.3377 C   0  0  1  0  0  0  0  0  0  0  0  0
  -23.0875  -15.3251   22.0616 C   0  0  1  0  0  0  0  0  0  0  0  0
  -27.0879  -26.1234   19.4320 C   0  0  2  0  0  0  0  0  0  0  0  0
  -29.9128  -18.2935   22.2136 C   0  0  0  0  0  0  0  0  0  0  0  0
  -30.9825  -19.0966   16.7227 C   0  0  0  0  0  0  0  0  0  0  0  0
  -33.7974  -16.9408   18.3237 C   0  0  0  0  0  0  0  0  0  0  0  0
  -22.7779  -23.0195   21.2236 C   0  0  0  0  0  0  0  0  0  0  0  0
  -20.2257  -17.3158   19.0272 C   0  0  0  0  0  0  0  0  0  0  0  0
  -20.4849  -19.7921   18.7645 C   0  0  0  0  0  0  0  0  0  0  0  0
  -19.4087  -18.8630   20.8142 C   0  0  0  0  0  0  0  0  0  0  0  0
  -25.5781  -21.0225   22.8505 C   0  0  0  0  0  0  0  0  0  0  0  0
  -29.4632  -20.8939   20.9358 C   0  0  0  0  0  0  0  0  0  0  0  0
  -30.2772  -14.6263   17.0858 C   0  0  0  0  0  0  0  0  0  0  0  0
  -32.6794  -15.9550   18.3580 C   0  0  0  0  0  0  0  0  0  0  0  0
  -30.6782  -16.0798   16.8653 C   0  0  0  0  0  0  0  0  0  0  0  0
  -29.4238  -14.4271   18.3329 C   0  0  0  0  0  0  0  0  0  1  0  0
  -21.9047  -18.6095   20.5014 C   0  0  1  0  0  0  0  0  0  0  0  0
  -23.4140  -21.8029   21.8777 C   0  0  2  0  0  0  0  0  0  0  0  0
  -20.5288  -18.6282   19.7774 C   0  0  0  0  0  0  0  0  0  0  0  0
  -25.0867  -27.2865   20.2831 N   0  0  0  0  0  0  0  0  0  0  0  0
  -30.2341  -19.9339   18.8571 N   0  0  0  0  0  0  0  0  0  0  0  0
  -30.6647  -17.4468   20.0794 N   0  0  0  0  0  0  0  0  0  0  0  0
  -26.3653  -27.3803   19.8799 N   0  0  0  0  0  0  0  0  0  0  0  0
  -23.0482  -16.5507   21.2613 N   0  0  0  0  0  0  0  0  0  0  0  0
  -27.3135  -23.6833   19.7278 N   0  0  0  0  0  0  0  0  0  0  0  0
  -28.1365  -28.9198   19.5589 N   0  0  0  0  0  0  0  0  0  0  0  0
  -24.7709  -31.5094   21.0961 N   0  0  0  0  0  0  0  0  0  0  0  0
  -22.2815  -13.0473   21.9204 N   0  0  0  0  0  0  0  0  0  0  0  0
  -22.2064  -19.8294   21.2426 N   0  0  0  0  0  0  0  0  0  0  0  0
  -28.6734  -21.7869   20.1174 N   0  0  0  0  0  0  0  0  0  0  0  0
  -31.4071  -16.5866   18.0029 N   0  0  3  0  0  0  0  0  0  0  0  0
  -24.8369  -22.1236   22.1832 N   0  3  0  0  0  0  0  0  0  0  0  0
  -26.9454  -31.5205   20.3680 O   0  0  0  0  0  0  0  0  0  0  0  0
  -21.9719  -14.5194   20.1429 O   0  0  0  0  0  0  0  0  0  0  0  0
  -21.2291  -17.4150   22.4361 O   0  0  0  0  0  0  0  0  0  0  0  0
  -24.1733  -20.3288   20.1205 O   0  0  0  0  0  0  0  0  0  0  0  0
  -28.1239  -23.1909   21.8442 O   0  0  0  0  0  0  0  0  0  0  0  0
  -19.6585  -29.7849   22.4834 O   0  0  0  0  0  0  0  0  0  0  0  0
  -28.2396  -15.2137   18.2094 O   0  0  0  0  0  0  0  0  0  1  0  0
  -17.4792  -26.4877   26.3283 F   0  0  0  0  0  0  0  0  0  0  0  0
  -19.2488  -27.0975   21.9806 F   0  0  0  0  0  0  0  0  0  0  0  0
  1  2  1  0  0  0  0
  1  5  2  0  0  0  0
  2  6  2  0  0  0  0
  3  8  2  0  0  0  0
  3 15  1  0  0  0  0
  4  9  1  0  0  0  0
  4 15  2  0  0  0  0
  5 17  1  0  0  0  0
  6 19  1  0  0  0  0
  7 10  2  0  0  0  0
  7 18  1  0  0  0  0
  8 21  1  0  0  0  0
  9 21  2  0  0  0  0
 10 22  1  0  0  0  0
 11 12  2  0  0  0  0
 11 23  1  0  0  0  0
 12 24  1  0  0  0  0
 13 20  1  0  0  0  0
 13 22  2  0  0  0  0
 14 24  2  0  0  0  0
 14 25  1  0  0  0  0
 15 26  1  0  0  0  0
 16 26  1  0  0  0  0
 16 31  2  0  0  0  0
 16 32  1  0  0  0  0
 17 19  2  0  0  0  0
 17 37  1  0  0  0  0
 18 20  2  0  0  0  0
 18 38  1  0  0  0  0
 19 46  1  0  0  0  0
 20 39  1  0  0  0  0
 21 83  1  0  0  0  0
 22 84  1  0  0  0  0
 23 25  2  0  0  0  0
 23 83  1  0  0  0  0
 24 85  1  0  0  0  0
 25 86  1  0  0  0  0
 26 65  2  0  0  0  0
 27 28  1  0  0  0  0
 27 49  1  0  0  0  0
 27 67  2  0  0  0  0
 28 57  1  0  0  0  0
 28 66  2  0  0  0  0
 29 30  2  0  0  0  0
 29 50  1  0  0  0  0
 29 66  1  0  0  0  0
 30 67  1  0  0  0  0
 30 76  1  0  0  0  0
 31 68  1  0  0  0  0
 31 71  1  0  0  0  0
 32 72  1  0  0  0  0
 32 78  2  0  0  0  0
 33 47  1  0  0  0  0
 33 73  1  0  0  0  0
 33 79  2  0  0  0  0
 34 62  1  0  0  0  0
 34 69  1  0  0  0  0
 34 80  2  0  0  0  0
 35 63  1  0  0  0  0
 35 74  1  0  0  0  0
 35 81  2  0  0  0  0
 36 70  1  0  0  0  0
 36 75  1  0  0  0  0
 36 82  2  0  0  0  0
 37 40  1  0  0  0  0
 38 47  1  0  0  0  0
 39 69  1  0  0  0  0
 40 42  1  0  0  0  0
 41 43  1  0  0  0  0
 41 44  1  0  0  0  0
 42 46  1  0  0  0  0
 43 48  1  0  0  0  0
 44 70  1  0  0  0  0
 45 48  1  0  0  0  0
 45 70  1  0  0  0  0
 46 73  1  0  0  0  0
 47 69  1  0  0  0  0
 48 68  1  0  0  0  0
 51 59  1  0  0  0  0
 52 63  1  0  0  0  0
 53 64  1  0  0  0  0
 54 64  1  0  0  0  0
 55 64  1  0  0  0  0
 56 77  1  0  0  0  0
 57 75  1  0  0  0  0
 58 60  1  0  0  0  0
 58 61  1  0  0  0  0
 59 76  1  0  0  0  0
 60 76  1  0  0  0  0
 61 84  1  0  0  0  0
 62 64  1  0  0  0  0
 62 74  1  0  0  0  0
 63 77  1  0  0  0  0
 65 68  1  0  0  0  0
M  CHG  1  77   1
M  ISO  4  36 100  61 101  75 100  84 101
M  END
> <Batch ID>
0049

> <Smiles>
CCN(CC[101CH2:1][101O:1]c1ccc2c(c1)CN(C(=O)C(NC(=O)C(C)NC)C(C)(C)C)C(C(=O)NC1CCCc3ccccc31)C2)c1nc(C)c(C[100NH:0][100C:0](=O)N2CCCC(n3nc(-c4ccc(Oc5ccc(F)cc5F)cc4)c(C(N)=O)c3N)C2)nc1C

> <Shape>
0.233

> <Color>
0.071

> <Negative vol penalty>
0.000

$$$$

  -OEChem-04052317293D

 89 97  0     1  0  0  0  0  0999 V2000
  -18.4039  -24.7178   24.2297 C   0  0  0  0  0  0  0  0  0  0  0  0
  -19.6404  -24.4522   23.6502 C   0  0  0  0  0  0  0  0  0  0  0  0
  -27.4155  -11.9291   20.5402 C   0  0  0  0  0  0  0  0  0  0  0  0
  -26.7273  -13.1365   18.5639 C   0  0  0  0  0  0  0  0  0  0  0  0
  -17.8410  -25.9884   24.1172 C   0  0  0  0  0  0  0  0  0  0  0  0
  -20.3143  -25.4569   22.9566 C   0  0  0  0  0  0  0  0  0  0  0  0
  -26.3718  -26.3167   22.6862 C   0  0  0  0  0  0  0  0  0  0  0  0
  -26.4263  -10.9751   20.3018 C   0  0  0  0  0  0  0  0  0  0  0  0
  -25.7381  -12.1824   18.3254 C   0  0  0  0  0  0  0  0  0  0  0  0
  -27.3266  -25.9705   21.7311 C   0  0  0  0  0  0  0  0  0  0  0  0
  -23.0875  -10.6858   20.7417 C   0  0  0  0  0  0  0  0  0  0  0  0
  -22.3132  -10.2715   21.8253 C   0  0  0  0  0  0  0  0  0  0  0  0
  -31.4672  -21.3215   19.5059 C   0  0  0  0  0  0  0  0  0  0  0  0
  -27.1537  -28.1753   20.7677 C   0  0  0  0  0  0  0  0  0  0  0  0
  -23.0711   -8.0008   21.4986 C   0  0  0  0  0  0  0  0  0  0  0  0
  -31.7930  -22.4161   20.2690 C   0  0  0  0  0  0  0  0  0  0  0  0
  -27.5659  -13.0099   19.6713 C   0  0  0  0  0  0  0  0  0  0  0  0
  -29.9767  -13.7816   19.9880 C   0  0  0  0  0  0  0  0  0  0  0  0
  -18.5128  -27.0119   23.4302 C   0  0  0  0  0  0  0  0  0  0  0  0
  -25.7918  -27.5935   22.6825 C   0  0  0  0  0  0  0  0  0  0  0  0
  -19.7593  -26.7420   22.8336 C   0  0  0  0  0  0  0  0  0  0  0  0
  -26.1937  -28.5362   21.7254 C   0  0  0  0  0  0  0  0  0  0  0  0
  -25.5876  -11.1017   19.1944 C   0  0  0  0  0  0  0  0  0  0  0  0
  -27.7156  -26.8989   20.7699 C   0  0  0  0  0  0  0  0  0  0  0  0
  -23.8536   -9.7577   20.0364 C   0  0  0  0  0  0  0  0  0  0  0  0
  -22.3050   -8.9290   22.2038 C   0  0  0  0  0  0  0  0  0  0  0  0
  -23.8454   -8.4152   20.4149 C   0  0  0  0  0  0  0  0  0  0  0  0
  -28.5872  -13.9961   19.9173 C   0  0  0  0  0  0  0  0  0  0  0  0
  -31.2626  -21.8415   18.2138 C   0  0  0  0  0  0  0  0  0  0  0  0
  -30.5037  -15.0248   20.2395 C   0  0  0  0  0  0  0  0  0  0  0  0
  -30.7242  -12.5671   19.8396 C   0  0  0  0  0  0  0  0  0  0  0  0
  -22.8402  -28.7154   22.3175 C   0  0  0  0  0  0  0  0  0  0  0  0
  -24.2431  -31.5459   23.0541 C   0  0  0  0  0  0  0  0  0  0  0  0
  -27.0858  -33.4318   23.1518 C   0  0  0  0  0  0  0  0  0  0  0  0
  -28.7226  -20.5371   19.1821 C   0  0  0  0  0  0  0  0  0  0  0  0
  -17.8428  -28.3563   23.2944 C   0  0  0  0  0  0  0  0  0  0  0  0
  -24.7828  -27.9602   23.7360 C   0  0  0  0  0  0  0  0  0  0  0  0
  -25.6162  -29.9268   21.6909 C   0  0  0  0  0  0  0  0  0  0  0  0
  -18.7937  -29.4699   22.8634 C   0  0  0  0  0  0  0  0  0  0  0  0
  -29.4498  -19.2027   22.2992 C   0  0  0  0  0  0  0  0  0  0  0  0
  -19.6607  -29.0096   21.6959 C   0  0  0  0  0  0  0  0  0  0  0  0
  -29.4458  -17.6930   22.0627 C   0  0  0  0  0  0  0  0  0  0  0  0
  -28.3178  -19.8767   21.5329 C   0  0  0  0  0  0  0  0  0  0  0  0
  -28.3443  -18.1054   19.8058 C   0  0  0  0  0  0  0  0  0  0  0  0
  -20.5324  -27.8126   22.0945 C   0  0  1  0  0  0  0  0  0  0  0  0
  -23.8816  -29.1196   23.3224 C   0  0  1  0  0  0  0  0  0  0  0  0
  -29.4727  -17.3708   20.5583 C   0  0  2  0  0  0  0  0  0  0  0  0
  -28.6635  -16.4179   15.6535 C   0  0  0  0  0  0  0  0  0  0  0  0
  -29.1577  -22.6503   14.1244 C   0  0  0  0  0  0  0  0  0  0  0  0
  -28.5611  -35.3947   23.6691 C   0  0  0  0  0  0  0  0  0  0  0  0
  -27.1272  -22.2096   16.3798 C   0  0  0  0  0  0  0  0  0  0  0  0
  -23.0285  -32.6719   20.4916 C   0  0  0  0  0  0  0  0  0  0  0  0
  -24.6216  -34.5955   20.6644 C   0  0  0  0  0  0  0  0  0  0  0  0
  -22.9304  -34.2141   22.4579 C   0  0  0  0  0  0  0  0  0  0  0  0
  -27.7760  -32.3573   25.8217 C   0  0  0  0  0  0  0  0  0  0  0  0
  -30.8893  -21.0998   16.9975 C   0  0  0  0  0  0  0  0  0  0  0  0
  -29.3275  -16.4621   17.0209 C   0  0  0  0  0  0  0  0  0  0  0  0
  -29.2412  -23.2477   15.5220 C   0  0  0  0  0  0  0  0  0  0  0  0
  -29.6582  -17.8977   17.4353 C   0  0  0  0  0  0  0  0  0  0  0  0
  -30.9119  -25.8806   19.4360 C   0  0  0  0  0  0  0  0  0  0  0  0
  -32.0520  -24.9196   19.7800 C   0  0  0  0  0  0  0  0  0  0  0  0
  -28.4280  -18.7988   17.4589 C   0  0  0  0  0  0  0  0  0  0  0  0
  -29.6326  -25.6044   20.2172 C   0  0  0  0  0  0  0  0  0  1  0  0
  -24.9058  -32.6483   22.2639 C   0  0  1  0  0  0  0  0  0  0  0  0
  -27.6850  -34.2946   24.2477 C   0  0  2  0  0  0  0  0  0  0  0  0
  -28.6364  -22.3509   16.6263 C   0  0  2  0  0  0  0  0  0  0  0  0
  -29.3527  -20.9803   16.7714 C   0  0  2  0  0  0  0  0  0  0  0  0
  -23.8812  -33.5057   21.4686 C   0  0  0  0  0  0  0  0  0  0  0  0
  -28.2525  -15.2750   20.1086 N   0  0  0  0  0  0  0  0  0  0  0  0
  -31.4432  -23.1636   18.1556 N   0  0  0  0  0  0  0  0  0  0  0  0
  -31.7645  -23.4836   19.4206 N   0  0  0  0  0  0  0  0  0  0  0  0
  -29.4393  -15.8752   20.3020 N   0  0  0  0  0  0  0  0  0  0  0  0
  -24.6285  -30.2354   22.7381 N   0  0  0  0  0  0  0  0  0  0  0  0
  -28.3711  -19.5446   20.1089 N   0  0  0  0  0  0  0  0  0  0  0  0
  -31.7692  -15.4625   20.4111 N   0  0  0  0  0  0  0  0  0  0  0  0
  -31.1659  -12.2067   18.5593 N   0  0  0  0  0  0  0  0  0  0  0  0
  -21.6660  -28.2520   22.8796 N   0  0  0  0  0  0  0  0  0  0  0  0
  -25.7086  -33.4075   23.2165 N   0  0  0  0  0  0  0  0  0  0  0  0
  -28.7506  -20.1697   17.8283 N   0  0  0  0  0  0  0  0  0  0  0  0
  -28.5169  -33.4644   25.1640 N   0  3  0  0  0  0  0  0  0  0  0  0
  -30.9784  -11.8153   20.8110 O   0  0  0  0  0  0  0  0  0  0  0  0
  -23.0835  -28.8178   21.1208 O   0  0  0  0  0  0  0  0  0  0  0  0
  -23.4193  -31.8371   23.9249 O   0  0  0  0  0  0  0  0  0  0  0  0
  -27.7707  -32.8416   22.3193 O   0  0  0  0  0  0  0  0  0  0  0  0
  -28.9895  -21.6909   19.5423 O   0  0  0  0  0  0  0  0  0  0  0  0
  -24.6225  -10.1708   18.9613 O   0  0  0  0  0  0  0  0  0  0  0  0
  -28.6469  -26.5633   19.8361 O   0  0  0  0  0  0  0  0  0  1  0  0
  -21.5625   -8.5314   23.2454 F   0  0  0  0  0  0  0  0  0  0  0  0
  -24.5802   -7.5191   19.7419 F   0  0  0  0  0  0  0  0  0  0  0  0
  1  2  1  0  0  0  0
  1  5  2  0  0  0  0
  2  6  2  0  0  0  0
  3  8  2  0  0  0  0
  3 17  1  0  0  0  0
  4  9  1  0  0  0  0
  4 17  2  0  0  0  0
  5 19  1  0  0  0  0
  6 21  1  0  0  0  0
  7 10  2  0  0  0  0
  7 20  1  0  0  0  0
  8 23  1  0  0  0  0
  9 23  2  0  0  0  0
 10 24  1  0  0  0  0
 11 12  2  0  0  0  0
 11 25  1  0  0  0  0
 12 26  1  0  0  0  0
 13 16  2  0  0  0  0
 13 29  1  0  0  0  0
 14 22  1  0  0  0  0
 14 24  2  0  0  0  0
 15 26  2  0  0  0  0
 15 27  1  0  0  0  0
 16 71  1  0  0  0  0
 17 28  1  0  0  0  0
 18 28  1  0  0  0  0
 18 30  2  0  0  0  0
 18 31  1  0  0  0  0
 19 21  2  0  0  0  0
 19 36  1  0  0  0  0
 20 22  2  0  0  0  0
 20 37  1  0  0  0  0
 21 45  1  0  0  0  0
 22 38  1  0  0  0  0
 23 86  1  0  0  0  0
 24 87  1  0  0  0  0
 25 27  2  0  0  0  0
 25 86  1  0  0  0  0
 26 88  1  0  0  0  0
 27 89  1  0  0  0  0
 28 69  2  0  0  0  0
 29 56  1  0  0  0  0
 29 70  2  0  0  0  0
 30 72  1  0  0  0  0
 30 75  1  0  0  0  0
 31 76  1  0  0  0  0
 31 81  2  0  0  0  0
 32 46  1  0  0  0  0
 32 77  1  0  0  0  0
 32 82  2  0  0  0  0
 33 64  1  0  0  0  0
 33 73  1  0  0  0  0
 33 83  2  0  0  0  0
 34 65  1  0  0  0  0
 34 78  1  0  0  0  0
 34 84  2  0  0  0  0
 35 74  1  0  0  0  0
 35 79  1  0  0  0  0
 35 85  2  0  0  0  0
 36 39  1  0  0  0  0
 37 46  1  0  0  0  0
 38 73  1  0  0  0  0
 39 41  1  0  0  0  0
 40 42  1  0  0  0  0
 40 43  1  0  0  0  0
 41 45  1  0  0  0  0
 42 47  1  0  0  0  0
 43 74  1  0  0  0  0
 44 47  1  0  0  0  0
 44 74  1  0  0  0  0
 45 77  1  0  0  0  0
 46 73  1  0  0  0  0
 47 72  1  0  0  0  0
 48 57  1  0  0  0  0
 49 58  1  0  0  0  0
 50 65  1  0  0  0  0
 51 66  1  0  0  0  0
 52 68  1  0  0  0  0
 53 68  1  0  0  0  0
 54 68  1  0  0  0  0
 55 80  1  0  0  0  0
 56 67  1  0  0  0  0
 57 59  1  0  0  0  0
 58 66  1  0  0  0  0
 59 62  1  0  0  0  0
 60 61  1  0  0  0  0
 60 63  1  0  0  0  0
 61 71  1  0  0  0  0
 62 79  1  0  0  0  0
 63 87  1  0  0  0  0
 64 68  1  0  0  0  0
 64 78  1  0  0  0  0
 65 80  1  0  0  0  0
 66 67  1  0  0  0  0
 67 79  1  0  0  0  0
 69 72  1  0  0  0  0
 70 71  1  0  0  0  0
M  CHG  1  80   1
M  ISO  4  35 100  63 101  79 100  87 101
M  END
> <Batch ID>
0049

> <Smiles>
CCCC[100N:0](C(Cc1ccn(CC[101CH2:1][101O:1]c2ccc3c(c2)CN(C(=O)C(NC(=O)C(C)NC)C(C)(C)C)C(C(=O)NC2CCCc4ccccc42)C3)n1)C(C)CC)[100C:0](=O)N1CCCC(n2nc(-c3ccc(Oc4ccc(F)cc4F)cc3)c(C(N)=O)c2N)C1

> <Shape>
0.315

> <Color>
0.094

> <Negative vol penalty>
0.000

$$$$

  -OEChem-04052317293D

 84 92  0     1  0  0  0  0  0999 V2000
  -19.6799   -9.6535   22.5352 C   0  0  0  0  0  0  0  0  0  0  0  0
  -20.0440  -10.8902   23.0581 C   0  0  0  0  0  0  0  0  0  0  0  0
  -22.2201  -30.1000   20.0436 C   0  0  0  0  0  0  0  0  0  0  0  0
  -22.4418  -28.7563   22.0391 C   0  0  0  0  0  0  0  0  0  0  0  0
  -20.5887   -8.9285   21.7656 C   0  0  0  0  0  0  0  0  0  0  0  0
  -21.3176  -11.4021   22.8125 C   0  0  0  0  0  0  0  0  0  0  0  0
  -22.8336  -17.2842   22.0326 C   0  0  0  0  0  0  0  0  0  0  0  0
  -20.8445  -29.8696   20.0412 C   0  0  0  0  0  0  0  0  0  0  0  0
  -21.0661  -28.5258   22.0368 C   0  0  0  0  0  0  0  0  0  0  0  0
  -23.3694  -18.2374   22.8975 C   0  0  0  0  0  0  0  0  0  0  0  0
  -18.2622  -30.1884   22.9282 C   0  0  0  0  0  0  0  0  0  0  0  0
  -17.5845  -30.3082   24.1414 C   0  0  0  0  0  0  0  0  0  0  0  0
  -25.5781  -17.7459   22.0613 C   0  0  0  0  0  0  0  0  0  0  0  0
  -16.8846  -28.0015   23.9782 C   0  0  0  0  0  0  0  0  0  0  0  0
  -26.8216  -22.8169   21.2714 C   0  0  0  0  0  0  0  0  0  0  0  0
  -23.0189  -29.5433   21.0425 C   0  0  0  0  0  0  0  0  0  0  0  0
  -25.1248  -30.8346   21.6792 C   0  0  0  0  0  0  0  0  0  0  0  0
  -21.8708   -9.4362   21.5024 C   0  0  0  0  0  0  0  0  0  0  0  0
  -23.6687  -16.5458   21.1818 C   0  0  0  0  0  0  0  0  0  0  0  0
  -22.2449  -10.6826   22.0398 C   0  0  0  0  0  0  0  0  0  0  0  0
  -25.0502  -16.7857   21.1847 C   0  0  0  0  0  0  0  0  0  0  0  0
  -20.2675  -29.0825   21.0378 C   0  0  0  0  0  0  0  0  0  0  0  0
  -24.7422  -18.4663   22.9140 C   0  0  0  0  0  0  0  0  0  0  0  0
  -18.2511  -28.9751   22.2399 C   0  0  0  0  0  0  0  0  0  0  0  0
  -16.8957  -29.2147   24.6664 C   0  0  0  0  0  0  0  0  0  0  0  0
  -17.5623  -27.8817   22.7649 C   0  0  0  0  0  0  0  0  0  0  0  0
  -24.4401  -29.7806   21.0452 C   0  0  0  0  0  0  0  0  0  0  0  0
  -27.9426  -22.6541   22.0354 C   0  0  0  0  0  0  0  0  0  0  0  0
  -26.4474  -30.6120   21.3833 C   0  0  0  0  0  0  0  0  0  0  0  0
  -26.1865  -22.1386   23.2807 C   0  0  0  0  0  0  0  0  0  0  0  0
  -24.6111  -31.9181   22.4653 C   0  0  0  0  0  0  0  0  0  0  0  0
  -24.3647  -13.4627   20.8439 C   0  0  0  0  0  0  0  0  0  0  0  0
  -26.0157  -14.5191   18.2592 C   0  0  0  0  0  0  0  0  0  0  0  0
  -27.6170  -17.0982   16.7001 C   0  0  0  0  0  0  0  0  0  0  0  0
  -29.5334  -25.6821   19.9608 C   0  0  0  0  0  0  0  0  0  0  0  0
  -22.8351   -8.5946   20.7045 C   0  0  0  0  0  0  0  0  0  0  0  0
  -23.0722  -15.5401   20.2357 C   0  0  0  0  0  0  0  0  0  0  0  0
  -25.9875  -16.0339   20.2766 C   0  0  0  0  0  0  0  0  0  0  0  0
  -24.0353   -9.3774   20.1782 C   0  0  0  0  0  0  0  0  0  0  0  0
  -29.2598  -28.6659   18.0376 C   0  0  0  0  0  0  0  0  0  0  0  0
  -24.6284  -10.2499   21.2799 C   0  0  0  0  0  0  0  0  0  0  0  0
  -28.0553  -29.3850   18.6475 C   0  0  0  0  0  0  0  0  0  0  0  0
  -29.0646  -27.1514   18.0223 C   0  0  0  0  0  0  0  0  0  0  0  0
  -27.5202  -27.2767   19.9388 C   0  0  0  0  0  0  0  0  0  0  0  0
  -23.6086  -11.2827   21.7748 C   0  0  1  0  0  0  0  0  0  0  0  0
  -24.0724  -14.4823   19.7796 C   0  0  1  0  0  0  0  0  0  0  0  0
  -27.6941  -28.8026   20.0272 C   0  0  2  0  0  0  0  0  0  0  0  0
  -28.6215  -19.4730   23.7713 C   0  0  0  0  0  0  0  0  0  0  0  0
  -28.9003  -17.6474   14.6147 C   0  0  0  0  0  0  0  0  0  0  0  0
  -28.1181  -22.9036   25.5653 C   0  0  0  0  0  0  0  0  0  0  0  0
  -28.4553  -13.0708   19.3820 C   0  0  0  0  0  0  0  0  0  0  0  0
  -29.8822  -14.4098   17.8203 C   0  0  0  0  0  0  0  0  0  0  0  0
  -28.1598  -12.8529   16.9082 C   0  0  0  0  0  0  0  0  0  0  0  0
  -25.6302  -19.1300   15.8734 C   0  0  0  0  0  0  0  0  0  0  0  0
  -29.3582  -22.8574   21.7038 C   0  0  0  0  0  0  0  0  0  0  0  0
  -25.3139  -21.7129   24.4364 C   0  0  0  0  0  0  0  0  0  0  0  0
  -28.2871  -20.4722   24.8716 C   0  0  0  0  0  0  0  0  0  0  0  0
  -29.8795  -24.2829   21.9811 C   0  0  0  0  0  0  0  0  0  0  0  0
  -24.4419  -20.5102   24.0923 C   0  0  0  0  0  0  0  0  0  1  0  0
  -27.4245  -15.0036   18.0154 C   0  0  1  0  0  0  0  0  0  0  0  0
  -27.5323  -17.6244   15.2787 C   0  0  2  0  0  0  0  0  0  0  0  0
  -28.3799  -21.9383   24.4044 C   0  0  1  0  0  0  0  0  0  0  0  0
  -28.4633  -13.8473   18.0501 C   0  0  0  0  0  0  0  0  0  0  0  0
  -25.2599  -28.9501   20.3955 N   0  0  0  0  0  0  0  0  0  0  0  0
  -27.5200  -22.2344   23.2737 N   0  0  0  0  0  0  0  0  0  0  0  0
  -26.4735  -29.4823   20.6196 N   0  0  0  0  0  0  0  0  0  0  0  0
  -25.7499  -22.4907   22.0671 N   0  3  0  0  0  0  0  0  0  0  0  0
  -25.3569  -15.0565   19.3741 N   0  0  0  0  0  0  0  0  0  0  0  0
  -28.7259  -26.6625   19.3610 N   0  0  0  0  0  0  0  0  0  0  0  0
  -27.5790  -31.2743   21.7045 N   0  0  0  0  0  0  0  0  0  0  0  0
  -23.2270  -31.9968   22.6711 N   0  0  0  0  0  0  0  0  0  0  0  0
  -23.5056  -12.3805   20.8374 N   0  0  0  0  0  0  0  0  0  0  0  0
  -27.3910  -15.7392   16.7559 N   0  0  0  0  0  0  0  0  0  0  0  0
  -29.1457  -25.2790   21.2327 N   0  0  0  0  0  0  0  0  0  0  0  0
  -26.9828  -19.0096   15.2710 N   0  3  0  0  0  0  0  0  0  0  0  0
  -25.3560  -32.7999   22.9565 O   0  0  0  0  0  0  0  0  0  0  0  0
  -25.3014  -13.6438   21.6130 O   0  0  0  0  0  0  0  0  0  0  0  0
  -25.5156  -13.6995   17.4847 O   0  0  0  0  0  0  0  0  0  0  0  0
  -27.8629  -17.8200   17.6640 O   0  0  0  0  0  0  0  0  0  0  0  0
  -30.5295  -25.2055   19.4062 O   0  0  0  0  0  0  0  0  0  0  0  0
  -18.9251  -28.8576   21.0359 O   0  0  0  0  0  0  0  0  0  0  0  0
  -25.2679  -19.3957   23.7578 O   0  0  0  0  0  0  0  0  0  1  0  0
  -16.2462  -29.3295   25.8323 F   0  0  0  0  0  0  0  0  0  0  0  0
  -17.5491  -26.7133   22.1089 F   0  0  0  0  0  0  0  0  0  0  0  0
  1  2  1  0  0  0  0
  1  5  2  0  0  0  0
  2  6  2  0  0  0  0
  3  8  2  0  0  0  0
  3 16  1  0  0  0  0
  4  9  1  0  0  0  0
  4 16  2  0  0  0  0
  5 18  1  0  0  0  0
  6 20  1  0  0  0  0
  7 10  2  0  0  0  0
  7 19  1  0  0  0  0
  8 22  1  0  0  0  0
  9 22  2  0  0  0  0
 10 23  1  0  0  0  0
 11 12  2  0  0  0  0
 11 24  1  0  0  0  0
 12 25  1  0  0  0  0
 13 21  1  0  0  0  0
 13 23  2  0  0  0  0
 14 25  2  0  0  0  0
 14 26  1  0  0  0  0
 15 28  2  0  0  0  0
 15 67  1  0  0  0  0
 16 27  1  0  0  0  0
 17 27  1  0  0  0  0
 17 29  2  0  0  0  0
 17 31  1  0  0  0  0
 18 20  2  0  0  0  0
 18 36  1  0  0  0  0
 19 21  2  0  0  0  0
 19 37  1  0  0  0  0
 20 45  1  0  0  0  0
 21 38  1  0  0  0  0
 22 81  1  0  0  0  0
 23 82  1  0  0  0  0
 24 26  2  0  0  0  0
 24 81  1  0  0  0  0
 25 83  1  0  0  0  0
 26 84  1  0  0  0  0
 27 64  2  0  0  0  0
 28 55  1  0  0  0  0
 28 65  1  0  0  0  0
 29 66  1  0  0  0  0
 29 70  1  0  0  0  0
 30 56  1  0  0  0  0
 30 65  1  0  0  0  0
 30 67  2  0  0  0  0
 31 71  1  0  0  0  0
 31 76  2  0  0  0  0
 32 46  1  0  0  0  0
 32 72  1  0  0  0  0
 32 77  2  0  0  0  0
 33 60  1  0  0  0  0
 33 68  1  0  0  0  0
 33 78  2  0  0  0  0
 34 61  1  0  0  0  0
 34 73  1  0  0  0  0
 34 79  2  0  0  0  0
 35 69  1  0  0  0  0
 35 74  1  0  0  0  0
 35 80  2  0  0  0  0
 36 39  1  0  0  0  0
 37 46  1  0  0  0  0
 38 68  1  0  0  0  0
 39 41  1  0  0  0  0
 40 42  1  0  0  0  0
 40 43  1  0  0  0  0
 41 45  1  0  0  0  0
 42 47  1  0  0  0  0
 43 69  1  0  0  0  0
 44 47  1  0  0  0  0
 44 69  1  0  0  0  0
 45 72  1  0  0  0  0
 46 68  1  0  0  0  0
 47 66  1  0  0  0  0
 48 57  1  0  0  0  0
 49 61  1  0  0  0  0
 50 62  1  0  0  0  0
 51 63  1  0  0  0  0
 52 63  1  0  0  0  0
 53 63  1  0  0  0  0
 54 75  1  0  0  0  0
 55 58  1  0  0  0  0
 56 59  1  0  0  0  0
 57 62  1  0  0  0  0
 58 74  1  0  0  0  0
 59 82  1  0  0  0  0
 60 63  1  0  0  0  0
 60 73  1  0  0  0  0
 61 75  1  0  0  0  0
 62 65  1  0  0  0  0
 64 66  1  0  0  0  0
M  CHG  2  67   1  75   1
M  ISO  4  35 100  59 101  74 100  82 101
M  END
> <Batch ID>
0049

> <Smiles>
CCC(C)n1c(CC[100NH:0][100C:0](=O)N2CCCC(n3nc(-c4ccc(Oc5ccc(F)cc5F)cc4)c(C(N)=O)c3N)C2)cnc1C[101CH2:1][101O:1]c1ccc2c(c1)CN(C(=O)C(NC(=O)C(C)NC)C(C)(C)C)C(C(=O)NC1CCCc3ccccc31)C2

> <Shape>
0.237

> <Color>
0.055

> <Negative vol penalty>
0.000

$$$$

  -OEChem-04052317293D

 81 89  0     1  0  0  0  0  0999 V2000
  -17.6037  -32.7309   21.6307 C   0  0  0  0  0  0  0  0  0  0  0  0
  -18.8208  -32.6981   20.9575 C   0  0  0  0  0  0  0  0  0  0  0  0
  -24.6515  -12.2972   19.4928 C   0  0  0  0  0  0  0  0  0  0  0  0
  -24.5512  -12.5575   21.8927 C   0  0  0  0  0  0  0  0  0  0  0  0
  -17.4667  -32.0749   22.8533 C   0  0  0  0  0  0  0  0  0  0  0  0
  -19.9019  -32.0101   21.5072 C   0  0  0  0  0  0  0  0  0  0  0  0
  -25.6510  -28.1933   19.5847 C   0  0  0  0  0  0  0  0  0  0  0  0
  -24.6224  -10.9107   19.6419 C   0  0  0  0  0  0  0  0  0  0  0  0
  -24.5220  -11.1709   22.0418 C   0  0  0  0  0  0  0  0  0  0  0  0
  -27.0276  -28.1377   19.7984 C   0  0  0  0  0  0  0  0  0  0  0  0
  -24.0572   -7.7057   23.0390 C   0  0  0  0  0  0  0  0  0  0  0  0
  -23.1362   -7.1687   23.9384 C   0  0  0  0  0  0  0  0  0  0  0  0
  -26.6516  -26.9747   21.8781 C   0  0  0  0  0  0  0  0  0  0  0  0
  -21.3273   -8.1456   22.6693 C   0  0  0  0  0  0  0  0  0  0  0  0
  -30.6082  -24.0794   18.5546 C   0  0  0  0  0  0  0  0  0  0  0  0
  -24.6160  -13.1206   20.6182 C   0  0  0  0  0  0  0  0  0  0  0  0
  -23.5439  -15.4168   20.3253 C   0  0  0  0  0  0  0  0  0  0  0  0
  -18.5439  -31.3704   23.4136 C   0  0  0  0  0  0  0  0  0  0  0  0
  -24.7625  -27.6487   20.5229 C   0  0  0  0  0  0  0  0  0  0  0  0
  -19.7796  -31.3452   22.7392 C   0  0  0  0  0  0  0  0  0  0  0  0
  -25.2643  -27.0224   21.6727 C   0  0  0  0  0  0  0  0  0  0  0  0
  -24.5576  -10.3475   20.9164 C   0  0  0  0  0  0  0  0  0  0  0  0
  -27.5280  -27.5309   20.9466 C   0  0  0  0  0  0  0  0  0  0  0  0
  -23.6133   -8.4627   21.9548 C   0  0  0  0  0  0  0  0  0  0  0  0
  -21.7712   -7.3886   23.7536 C   0  0  0  0  0  0  0  0  0  0  0  0
  -22.2483   -8.6827   21.7699 C   0  0  0  0  0  0  0  0  0  0  0  0
  -24.6467  -14.5530   20.4648 C   0  0  0  0  0  0  0  0  0  0  0  0
  -24.0997  -16.6679   20.2137 C   0  0  0  0  0  0  0  0  0  0  0  0
  -28.9435  -23.6398   19.8756 C   0  0  0  0  0  0  0  0  0  0  0  0
  -22.1425  -15.1153   20.2989 C   0  0  0  0  0  0  0  0  0  0  0  0
  -22.4480  -28.8173   22.3618 C   0  0  0  0  0  0  0  0  0  0  0  0
  -21.9621  -25.6887   23.0673 C   0  0  0  0  0  0  0  0  0  0  0  0
  -23.2359  -22.5277   23.2478 C   0  0  0  0  0  0  0  0  0  0  0  0
  -27.6311  -20.4752   21.9400 C   0  0  0  0  0  0  0  0  0  0  0  0
  -18.3617  -30.7164   24.7604 C   0  0  0  0  0  0  0  0  0  0  0  0
  -23.2814  -27.6932   20.2647 C   0  0  0  0  0  0  0  0  0  0  0  0
  -24.3534  -26.4047   22.7009 C   0  0  0  0  0  0  0  0  0  0  0  0
  -19.4468  -29.6958   25.0936 C   0  0  0  0  0  0  0  0  0  0  0  0
  -28.9076  -18.0887   19.5374 C   0  0  0  0  0  0  0  0  0  0  0  0
  -20.8279  -30.2643   24.7833 C   0  0  0  0  0  0  0  0  0  0  0  0
  -27.8111  -17.0220   19.5563 C   0  0  0  0  0  0  0  0  0  0  0  0
  -29.1443  -18.6627   20.9312 C   0  0  0  0  0  0  0  0  0  0  0  0
  -26.8284  -18.1547   21.6035 C   0  0  0  0  0  0  0  0  0  0  0  0
  -20.9684  -30.5887   23.2912 C   0  0  1  0  0  0  0  0  0  0  0  0
  -22.4489  -27.5618   21.5364 C   0  0  1  0  0  0  0  0  0  0  0  0
  -26.5259  -17.5512   20.2199 C   0  0  2  0  0  0  0  0  0  0  0  0
  -22.6100  -20.1858   23.8967 C   0  0  0  0  0  0  0  0  0  0  0  0
  -22.1875  -26.4474   26.0141 C   0  0  0  0  0  0  0  0  0  0  0  0
  -22.5087  -24.0213   26.5424 C   0  0  0  0  0  0  0  0  0  0  0  0
  -20.3809  -24.7973   25.4970 C   0  0  0  0  0  0  0  0  0  0  0  0
  -23.7336  -21.5130   20.5126 C   0  0  0  0  0  0  0  0  0  0  0  0
  -28.0774  -23.6504   21.0680 C   0  0  0  0  0  0  0  0  0  0  0  0
  -30.9828  -26.6638   20.3590 C   0  0  0  0  0  0  0  0  0  0  0  0
  -30.7243  -25.2346   20.8408 C   0  0  0  0  0  0  0  0  0  0  0  0
  -28.5741  -22.7535   22.2177 C   0  0  0  0  0  0  0  0  0  0  0  0
  -29.7086  -27.4213   20.0038 C   0  0  0  0  0  0  0  0  0  1  0  0
  -22.4926  -24.7326   24.1083 C   0  0  1  0  0  0  0  0  0  0  0  0
  -22.6957  -21.1948   22.7621 C   0  0  2  0  0  0  0  0  0  0  0  0
  -21.9098  -25.0129   25.5222 C   0  0  0  0  0  0  0  0  0  0  0  0
  -29.8016  -23.2630   17.9149 N   0  0  0  0  0  0  0  0  0  0  0  0
  -25.8148  -15.2004   20.4439 N   0  0  0  0  0  0  0  0  0  0  0  0
  -28.7425  -22.9832   18.7553 N   0  0  0  0  0  0  0  0  0  0  0  0
  -30.1067  -24.3433   19.7931 N   0  0  0  0  0  0  0  0  0  0  0  0
  -25.4491  -16.4844   20.2898 N   0  0  0  0  0  0  0  0  0  0  0  0
  -22.9129  -26.4792   22.4063 N   0  0  0  0  0  0  0  0  0  0  0  0
  -27.8856  -19.1660   21.4990 N   0  0  0  0  0  0  0  0  0  0  0  0
  -23.5610  -17.8959   20.0587 N   0  0  0  0  0  0  0  0  0  0  0  0
  -21.7443  -13.7776   20.4266 N   0  0  0  0  0  0  0  0  0  0  0  0
  -21.1968  -29.3791   22.5302 N   0  0  0  0  0  0  0  0  0  0  0  0
  -22.2213  -23.3902   23.6055 N   0  0  0  0  0  0  0  0  0  0  0  0
  -28.6866  -21.3699   21.8128 N   0  0  0  0  0  0  0  0  0  0  0  0
  -23.5783  -20.6341   21.7002 N   0  3  0  0  0  0  0  0  0  0  0  0
  -21.2699  -16.0040   20.1497 O   0  0  0  0  0  0  0  0  0  0  0  0
  -23.5042  -29.2440   22.8137 O   0  0  0  0  0  0  0  0  0  0  0  0
  -20.7496  -25.7274   22.8438 O   0  0  0  0  0  0  0  0  0  0  0  0
  -24.4378  -22.7774   23.3078 O   0  0  0  0  0  0  0  0  0  0  0  0
  -26.5414  -20.8229   22.4078 O   0  0  0  0  0  0  0  0  0  0  0  0
  -24.5288   -8.9946   21.0623 O   0  0  0  0  0  0  0  0  0  0  0  0
  -28.8712  -27.4758   21.1580 O   0  0  0  0  0  0  0  0  0  1  0  0
  -20.8868   -6.8715   24.6165 F   0  0  0  0  0  0  0  0  0  0  0  0
  -21.8158   -9.4081   20.7295 F   0  0  0  0  0  0  0  0  0  0  0  0
  1  2  1  0  0  0  0
  1  5  2  0  0  0  0
  2  6  2  0  0  0  0
  3  8  2  0  0  0  0
  3 16  1  0  0  0  0
  4  9  1  0  0  0  0
  4 16  2  0  0  0  0
  5 18  1  0  0  0  0
  6 20  1  0  0  0  0
  7 10  2  0  0  0  0
  7 19  1  0  0  0  0
  8 22  1  0  0  0  0
  9 22  2  0  0  0  0
 10 23  1  0  0  0  0
 11 12  2  0  0  0  0
 11 24  1  0  0  0  0
 12 25  1  0  0  0  0
 13 21  1  0  0  0  0
 13 23  2  0  0  0  0
 14 25  2  0  0  0  0
 14 26  1  0  0  0  0
 15 60  2  0  0  0  0
 15 63  1  0  0  0  0
 16 27  1  0  0  0  0
 17 27  1  0  0  0  0
 17 28  2  0  0  0  0
 17 30  1  0  0  0  0
 18 20  2  0  0  0  0
 18 35  1  0  0  0  0
 19 21  2  0  0  0  0
 19 36  1  0  0  0  0
 20 44  1  0  0  0  0
 21 37  1  0  0  0  0
 22 78  1  0  0  0  0
 23 79  1  0  0  0  0
 24 26  2  0  0  0  0
 24 78  1  0  0  0  0
 25 80  1  0  0  0  0
 26 81  1  0  0  0  0
 27 61  2  0  0  0  0
 28 64  1  0  0  0  0
 28 67  1  0  0  0  0
 29 52  1  0  0  0  0
 29 62  2  0  0  0  0
 29 63  1  0  0  0  0
 30 68  1  0  0  0  0
 30 73  2  0  0  0  0
 31 45  1  0  0  0  0
 31 69  1  0  0  0  0
 31 74  2  0  0  0  0
 32 57  1  0  0  0  0
 32 65  1  0  0  0  0
 32 75  2  0  0  0  0
 33 58  1  0  0  0  0
 33 70  1  0  0  0  0
 33 76  2  0  0  0  0
 34 66  1  0  0  0  0
 34 71  1  0  0  0  0
 34 77  2  0  0  0  0
 35 38  1  0  0  0  0
 36 45  1  0  0  0  0
 37 65  1  0  0  0  0
 38 40  1  0  0  0  0
 39 41  1  0  0  0  0
 39 42  1  0  0  0  0
 40 44  1  0  0  0  0
 41 46  1  0  0  0  0
 42 66  1  0  0  0  0
 43 46  1  0  0  0  0
 43 66  1  0  0  0  0
 44 69  1  0  0  0  0
 45 65  1  0  0  0  0
 46 64  1  0  0  0  0
 47 58  1  0  0  0  0
 48 59  1  0  0  0  0
 49 59  1  0  0  0  0
 50 59  1  0  0  0  0
 51 72  1  0  0  0  0
 52 55  1  0  0  0  0
 53 54  1  0  0  0  0
 53 56  1  0  0  0  0
 54 63  1  0  0  0  0
 55 71  1  0  0  0  0
 56 79  1  0  0  0  0
 57 59  1  0  0  0  0
 57 70  1  0  0  0  0
 58 72  1  0  0  0  0
 60 62  1  0  0  0  0
 61 64  1  0  0  0  0
M  CHG  1  72   1
M  ISO  4  34 100  56 101  71 100  79 101
M  END
> <Batch ID>
0049

> <Smiles>
CNC(C)C(=O)NC(C(=O)N1Cc2cc([101O:1][101CH2:1]CCn3cnnc3CC[100NH:0][100C:0](=O)N3CCCC(n4nc(-c5ccc(Oc6ccc(F)cc6F)cc5)c(C(N)=O)c4N)C3)ccc2CC1C(=O)NC1CCCc2ccccc21)C(C)(C)C

> <Shape>
0.248

> <Color>
0.087

> <Negative vol penalty>
0.000

$$$$

  -OEChem-04052317293D

 79 87  0     1  0  0  0  0  0999 V2000
  -19.0712  -16.7556   15.9147 C   0  0  0  0  0  0  0  0  0  0  0  0
  -20.2194  -16.0975   16.3435 C   0  0  0  0  0  0  0  0  0  0  0  0
  -27.7221  -25.4354   19.4813 C   0  0  0  0  0  0  0  0  0  0  0  0
  -25.8437  -25.2063   20.9833 C   0  0  0  0  0  0  0  0  0  0  0  0
  -18.6965  -17.9601   16.5087 C   0  0  0  0  0  0  0  0  0  0  0  0
  -20.9943  -16.6441   17.3659 C   0  0  0  0  0  0  0  0  0  0  0  0
  -22.3999  -13.1934   20.7953 C   0  0  0  0  0  0  0  0  0  0  0  0
  -27.2126  -26.6527   19.0296 C   0  0  0  0  0  0  0  0  0  0  0  0
  -25.3342  -26.4238   20.5317 C   0  0  0  0  0  0  0  0  0  0  0  0
  -23.4571  -12.3508   20.4544 C   0  0  0  0  0  0  0  0  0  0  0  0
  -23.7249  -29.6457   20.0343 C   0  0  0  0  0  0  0  0  0  0  0  0
  -23.2548  -30.5471   20.9893 C   0  0  0  0  0  0  0  0  0  0  0  0
  -24.9584  -13.7170   21.7578 C   0  0  0  0  0  0  0  0  0  0  0  0
  -25.4466  -30.6159   22.0033 C   0  0  0  0  0  0  0  0  0  0  0  0
  -29.2026  -15.3065   17.6867 C   0  0  0  0  0  0  0  0  0  0  0  0
  -27.0376  -24.7121   20.4581 C   0  0  0  0  0  0  0  0  0  0  0  0
  -29.5159  -15.8035   18.9660 C   0  0  0  0  0  0  0  0  0  0  0  0
  -28.4480  -23.2491   22.0001 C   0  0  0  0  0  0  0  0  0  0  0  0
  -19.4619  -18.5169   17.5454 C   0  0  0  0  0  0  0  0  0  0  0  0
  -22.6165  -14.3121   21.6126 C   0  0  0  0  0  0  0  0  0  0  0  0
  -20.6302  -17.8579   17.9733 C   0  0  0  0  0  0  0  0  0  0  0  0
  -23.9018  -14.5707   22.1097 C   0  0  0  0  0  0  0  0  0  0  0  0
  -26.0186  -27.1470   19.5548 C   0  0  0  0  0  0  0  0  0  0  0  0
  -24.7371  -12.6141   20.9333 C   0  0  0  0  0  0  0  0  0  0  0  0
  -25.0559  -29.2293   20.0638 C   0  0  0  0  0  0  0  0  0  0  0  0
  -24.1156  -31.0323   21.9738 C   0  0  0  0  0  0  0  0  0  0  0  0
  -25.9167  -29.7145   21.0483 C   0  0  0  0  0  0  0  0  0  0  0  0
  -27.5632  -23.4543   20.9246 C   0  0  0  0  0  0  0  0  0  0  0  0
  -29.5987  -14.6846   19.7583 C   0  0  0  0  0  0  0  0  0  0  0  0
  -28.6390  -21.8893   22.0330 C   0  0  0  0  0  0  0  0  0  0  0  0
  -29.7167  -17.1922   19.3975 C   0  0  0  0  0  0  0  0  0  0  0  0
  -29.0439  -24.2024   22.8900 C   0  0  0  0  0  0  0  0  0  0  0  0
  -22.2983  -17.4534   21.2455 C   0  0  0  0  0  0  0  0  0  0  0  0
  -23.0320  -17.5041   24.4048 C   0  0  0  0  0  0  0  0  0  0  0  0
  -24.5157  -15.9559   27.0597 C   0  0  0  0  0  0  0  0  0  0  0  0
  -19.0428  -19.8449   18.1245 C   0  0  0  0  0  0  0  0  0  0  0  0
  -21.4605  -15.1961   21.9930 C   0  0  0  0  0  0  0  0  0  0  0  0
  -24.1832  -15.7473   23.0069 C   0  0  0  0  0  0  0  0  0  0  0  0
  -19.7137  -20.1671   19.4573 C   0  0  0  0  0  0  0  0  0  0  0  0
  -26.2264  -18.1586   19.6218 C   0  0  0  0  0  0  0  0  0  0  0  0
  -21.2115  -19.8884   19.3822 C   0  0  0  0  0  0  0  0  0  0  0  0
  -26.3432  -19.6209   20.0539 C   0  0  0  0  0  0  0  0  0  0  0  0
  -27.3473  -17.7715   18.6620 C   0  0  0  0  0  0  0  0  0  0  0  0
  -28.8389  -19.4921   19.6251 C   0  0  0  0  0  0  0  0  0  0  0  0
  -21.4833  -18.4065   19.0965 C   0  0  1  0  0  0  0  0  0  0  0  0
  -21.8929  -16.5978   22.4122 C   0  0  1  0  0  0  0  0  0  0  0  0
  -27.7442  -19.9255   20.6156 C   0  0  1  0  0  0  0  0  0  0  0  0
  -29.8947  -14.5254   21.1953 C   0  0  0  0  0  0  0  0  0  0  0  0
  -24.9857  -16.2591   29.5061 C   0  0  0  0  0  0  0  0  0  0  0  0
  -25.2474  -19.4909   23.7305 C   0  0  0  0  0  0  0  0  0  0  0  0
  -26.2529  -19.0251   25.9755 C   0  0  0  0  0  0  0  0  0  0  0  0
  -23.9709  -20.0197   25.8150 C   0  0  0  0  0  0  0  0  0  0  0  0
  -22.9674  -13.5373   27.7755 C   0  0  0  0  0  0  0  0  0  0  0  0
  -27.8959  -11.6099   19.5030 C   0  0  0  0  0  0  0  0  0  0  0  0
  -29.3089  -12.1684   19.3201 C   0  0  0  0  0  0  0  0  0  0  0  0
  -27.0683  -12.3827   20.5233 C   0  0  0  0  0  0  0  0  0  1  0  0
  -24.3097  -17.5898   25.2044 C   0  0  1  0  0  0  0  0  0  0  0  0
  -24.0272  -15.6892   28.4720 C   0  0  2  0  0  0  0  0  0  0  0  0
  -24.9406  -19.0102   25.1629 C   0  0  0  0  0  0  0  0  0  0  0  0
  -29.0939  -13.9754   17.6630 N   0  0  0  0  0  0  0  0  0  0  0  0
  -27.2163  -22.3160   20.3179 N   0  0  0  0  0  0  0  0  0  0  0  0
  -29.3402  -13.6265   18.9373 N   0  0  0  0  0  0  0  0  0  0  0  0
  -27.8866  -21.3825   21.0146 N   0  0  0  0  0  0  0  0  0  0  0  0
  -28.6587  -18.0909   19.2401 N   0  0  0  0  0  0  0  0  0  0  0  0
  -23.0213  -16.5858   23.3453 N   0  0  0  0  0  0  0  0  0  0  0  0
  -29.3755  -21.0897   22.8334 N   0  0  0  0  0  0  0  0  0  0  0  0
  -28.7402  -25.5595   22.7160 N   0  0  0  0  0  0  0  0  0  0  0  0
  -21.3063  -17.6194   20.2980 N   0  0  0  0  0  0  0  0  0  0  0  0
  -23.9836  -17.1198   26.5465 N   0  0  0  0  0  0  0  0  0  0  0  0
  -23.8989  -14.2233   28.7076 N   0  3  0  0  0  0  0  0  0  0  0  0
  -30.8165  -17.4563   19.8813 O   0  0  0  0  0  0  0  0  0  0  0  0
  -29.8354  -23.8624   23.8018 O   0  0  0  0  0  0  0  0  0  0  0  0
  -23.4270  -17.9291   21.2084 O   0  0  0  0  0  0  0  0  0  0  0  0
  -22.0763  -18.2202   24.7135 O   0  0  0  0  0  0  0  0  0  0  0  0
  -25.2946  -15.2085   26.4721 O   0  0  0  0  0  0  0  0  0  0  0  0
  -25.5213  -28.3349   19.1145 O   0  0  0  0  0  0  0  0  0  0  0  0
  -25.7709  -11.7937   20.6015 O   0  0  0  0  0  0  0  0  0  1  0  0
  -23.6644  -31.8991   22.8899 F   0  0  0  0  0  0  0  0  0  0  0  0
  -27.1967  -29.3190   21.0811 F   0  0  0  0  0  0  0  0  0  0  0  0
  1  2  1  0  0  0  0
  1  5  2  0  0  0  0
  2  6  2  0  0  0  0
  3  8  2  0  0  0  0
  3 16  1  0  0  0  0
  4  9  1  0  0  0  0
  4 16  2  0  0  0  0
  5 19  1  0  0  0  0
  6 21  1  0  0  0  0
  7 10  2  0  0  0  0
  7 20  1  0  0  0  0
  8 23  1  0  0  0  0
  9 23  2  0  0  0  0
 10 24  1  0  0  0  0
 11 12  2  0  0  0  0
 11 25  1  0  0  0  0
 12 26  1  0  0  0  0
 13 22  1  0  0  0  0
 13 24  2  0  0  0  0
 14 26  2  0  0  0  0
 14 27  1  0  0  0  0
 15 17  1  0  0  0  0
 15 60  2  0  0  0  0
 16 28  1  0  0  0  0
 17 29  2  0  0  0  0
 17 31  1  0  0  0  0
 18 28  1  0  0  0  0
 18 30  2  0  0  0  0
 18 32  1  0  0  0  0
 19 21  2  0  0  0  0
 19 36  1  0  0  0  0
 20 22  2  0  0  0  0
 20 37  1  0  0  0  0
 21 45  1  0  0  0  0
 22 38  1  0  0  0  0
 23 76  1  0  0  0  0
 24 77  1  0  0  0  0
 25 27  2  0  0  0  0
 25 76  1  0  0  0  0
 26 78  1  0  0  0  0
 27 79  1  0  0  0  0
 28 61  2  0  0  0  0
 29 48  1  0  0  0  0
 29 62  1  0  0  0  0
 30 63  1  0  0  0  0
 30 66  1  0  0  0  0
 31 64  1  0  0  0  0
 31 71  2  0  0  0  0
 32 67  1  0  0  0  0
 32 72  2  0  0  0  0
 33 46  1  0  0  0  0
 33 68  1  0  0  0  0
 33 73  2  0  0  0  0
 34 57  1  0  0  0  0
 34 65  1  0  0  0  0
 34 74  2  0  0  0  0
 35 58  1  0  0  0  0
 35 69  1  0  0  0  0
 35 75  2  0  0  0  0
 36 39  1  0  0  0  0
 37 46  1  0  0  0  0
 38 65  1  0  0  0  0
 39 41  1  0  0  0  0
 40 42  1  0  0  0  0
 40 43  1  0  0  0  0
 41 45  1  0  0  0  0
 42 47  1  0  0  0  0
 43 64  1  0  0  0  0
 44 47  1  0  0  0  0
 44 64  1  0  0  0  0
 45 68  1  0  0  0  0
 46 65  1  0  0  0  0
 47 63  1  0  0  0  0
 49 58  1  0  0  0  0
 50 59  1  0  0  0  0
 51 59  1  0  0  0  0
 52 59  1  0  0  0  0
 53 70  1  0  0  0  0
 54 55  1  0  0  0  0
 54 56  1  0  0  0  0
 55 62  1  0  0  0  0
 56 77  1  0  0  0  0
 57 59  1  0  0  0  0
 57 69  1  0  0  0  0
 58 70  1  0  0  0  0
 60 62  1  0  0  0  0
 61 63  1  0  0  0  0
M  CHG  1  70   1
M  ISO  4  17 100  31 100  56 101  77 101
M  END
> <Batch ID>
0049

> <Smiles>
CNC(C)C(=O)NC(C(=O)N1Cc2cc([101O:1][101CH2:1]CCn3nc[100c:0]([100C:0](=O)N4CCCC(n5nc(-c6ccc(Oc7ccc(F)cc7F)cc6)c(C(N)=O)c5N)C4)c3C)ccc2CC1C(=O)NC1CCCc2ccccc21)C(C)(C)C

> <Shape>
0.188

> <Color>
0.054

> <Negative vol penalty>
0.000

$$$$

  -OEChem-04052317293D

 83 91  0     1  0  0  0  0  0999 V2000
  -25.7801  -18.4358   40.7631 C   0  0  0  0  0  0  0  0  0  0  0  0
  -26.2279  -18.7986   39.4969 C   0  0  0  0  0  0  0  0  0  0  0  0
  -23.1440   -9.8490   19.9334 C   0  0  0  0  0  0  0  0  0  0  0  0
  -23.6448   -9.9818   22.2932 C   0  0  0  0  0  0  0  0  0  0  0  0
  -24.9072  -17.3587   40.9104 C   0  0  0  0  0  0  0  0  0  0  0  0
  -25.8040  -18.0836   38.3773 C   0  0  0  0  0  0  0  0  0  0  0  0
  -24.2593  -18.9754   31.4393 C   0  0  0  0  0  0  0  0  0  0  0  0
  -22.3856   -8.7003   20.1590 C   0  0  0  0  0  0  0  0  0  0  0  0
  -22.8864   -8.8331   22.5188 C   0  0  0  0  0  0  0  0  0  0  0  0
  -24.5758  -18.4465   30.1888 C   0  0  0  0  0  0  0  0  0  0  0  0
  -23.2622   -5.4913   22.1694 C   0  0  0  0  0  0  0  0  0  0  0  0
  -23.8020   -4.5118   23.0029 C   0  0  0  0  0  0  0  0  0  0  0  0
  -25.2336  -15.4608   24.6076 C   0  0  0  0  0  0  0  0  0  0  0  0
  -24.6219  -15.7992   25.8398 C   0  0  0  0  0  0  0  0  0  0  0  0
  -23.0046  -16.6534   30.5562 C   0  0  0  0  0  0  0  0  0  0  0  0
  -21.9206   -4.7490   24.5000 C   0  0  0  0  0  0  0  0  0  0  0  0
  -23.7736  -10.4898   21.0005 C   0  0  0  0  0  0  0  0  0  0  0  0
  -24.1077  -13.0099   20.7887 C   0  0  0  0  0  0  0  0  0  0  0  0
  -24.4647  -16.6361   39.7911 C   0  0  0  0  0  0  0  0  0  0  0  0
  -23.3195  -18.3401   32.2637 C   0  0  0  0  0  0  0  0  0  0  0  0
  -24.9254  -16.9949   38.5099 C   0  0  0  0  0  0  0  0  0  0  0  0
  -22.6760  -17.1776   31.8157 C   0  0  0  0  0  0  0  0  0  0  0  0
  -22.2568   -8.1923   21.4517 C   0  0  0  0  0  0  0  0  0  0  0  0
  -23.9506  -17.2837   29.7482 C   0  0  0  0  0  0  0  0  0  0  0  0
  -22.0517   -6.0998   22.5012 C   0  0  0  0  0  0  0  0  0  0  0  0
  -23.1312   -4.1406   24.1682 C   0  0  0  0  0  0  0  0  0  0  0  0
  -21.3808   -5.7286   23.6664 C   0  0  0  0  0  0  0  0  0  0  0  0
  -24.5576  -11.6761   20.7681 C   0  0  0  0  0  0  0  0  0  0  0  0
  -26.3756  -16.2222   24.4925 C   0  0  0  0  0  0  0  0  0  0  0  0
  -25.4087  -16.7574   26.4401 C   0  0  0  0  0  0  0  0  0  0  0  0
  -25.2277  -13.7544   20.5099 C   0  0  0  0  0  0  0  0  0  0  0  0
  -22.7947  -13.5295   21.0376 C   0  0  0  0  0  0  0  0  0  0  0  0
  -23.4072  -16.9927   35.1412 C   0  0  0  0  0  0  0  0  0  0  0  0
  -20.2015  -16.7625   34.7024 C   0  0  0  0  0  0  0  0  0  0  0  0
  -17.5782  -16.6225   32.5240 C   0  0  0  0  0  0  0  0  0  0  0  0
  -30.9991  -13.3280   21.7720 C   0  0  0  0  0  0  0  0  0  0  0  0
  -23.5584  -15.4498   40.0048 C   0  0  0  0  0  0  0  0  0  0  0  0
  -22.9695  -18.9382   33.5987 C   0  0  0  0  0  0  0  0  0  0  0  0
  -21.6449  -16.4687   32.6540 C   0  0  0  0  0  0  0  0  0  0  0  0
  -22.8616  -14.9783   38.7310 C   0  0  0  0  0  0  0  0  0  0  0  0
  -29.5893  -12.8538   18.3825 C   0  0  0  0  0  0  0  0  0  0  0  0
  -23.8582  -14.8874   37.5798 C   0  0  0  0  0  0  0  0  0  0  0  0
  -28.1193  -12.5549   18.6719 C   0  0  0  0  0  0  0  0  0  0  0  0
  -30.4933  -12.4214   19.5329 C   0  0  0  0  0  0  0  0  0  0  0  0
  -28.6346  -12.6927   21.1409 C   0  0  0  0  0  0  0  0  0  0  0  0
  -24.4686  -16.2593   37.2688 C   0  0  1  0  0  0  0  0  0  0  0  0
  -22.3750  -17.9235   34.5705 C   0  0  1  0  0  0  0  0  0  0  0  0
  -27.6921  -13.1587   20.0211 C   0  0  2  0  0  0  0  0  0  0  0  0
  -27.1010  -19.3885   25.6284 C   0  0  0  0  0  0  0  0  0  0  0  0
  -15.0797  -16.3963   32.4612 C   0  0  0  0  0  0  0  0  0  0  0  0
  -20.4585  -13.7833   35.3094 C   0  0  0  0  0  0  0  0  0  0  0  0
  -18.1821  -13.4564   34.3197 C   0  0  0  0  0  0  0  0  0  0  0  0
  -18.4672  -14.8902   36.3410 C   0  0  0  0  0  0  0  0  0  0  0  0
  -31.6479  -14.8006   23.6402 C   0  0  0  0  0  0  0  0  0  0  0  0
  -17.2571  -19.2523   31.2049 C   0  0  0  0  0  0  0  0  0  0  0  0
  -27.3796  -16.2651   23.4094 C   0  0  0  0  0  0  0  0  0  0  0  0
  -25.2305  -17.4636   27.7519 C   0  0  0  0  0  0  0  0  0  1  0  0
  -28.5589  -15.2770   23.5741 C   0  0  0  0  0  0  0  0  0  0  0  0
  -27.5336  -17.9541   25.8790 C   0  0  0  0  0  0  0  0  0  0  0  0
  -29.5626  -15.3066   22.4233 C   0  0  0  0  0  0  0  0  0  0  0  0
  -19.2762  -15.7335   34.0990 C   0  0  1  0  0  0  0  0  0  0  0  0
  -16.2533  -17.3629   32.4939 C   0  0  2  0  0  0  0  0  0  0  0  0
  -19.1168  -14.4779   35.0021 C   0  0  0  0  0  0  0  0  0  0  0  0
  -25.8617  -11.5760   20.4974 N   0  0  0  0  0  0  0  0  0  0  0  0
  -26.4717  -17.0069   25.6119 N   0  0  0  0  0  0  0  0  0  0  0  0
  -26.2409  -12.8563   20.3453 N   0  0  0  0  0  0  0  0  0  0  0  0
  -21.3416  -17.0890   33.9543 N   0  0  0  0  0  0  0  0  0  0  0  0
  -30.0394  -12.9742   20.8095 N   0  0  0  0  0  0  0  0  0  0  0  0
  -25.4349  -15.0831   20.3918 N   0  0  0  0  0  0  0  0  0  0  0  0
  -21.7585  -12.6252   21.3076 N   0  0  0  0  0  0  0  0  0  0  0  0
  -23.5352  -17.0686   36.5150 N   0  0  0  0  0  0  0  0  0  0  0  0
  -18.0249  -16.4271   33.8138 N   0  0  0  0  0  0  0  0  0  0  0  0
  -30.6804  -14.3891   22.6330 N   0  0  0  0  0  0  0  0  0  0  0  0
  -16.1757  -18.2371   31.2894 N   0  3  0  0  0  0  0  0  0  0  0  0
  -22.5444  -14.7582   21.0048 O   0  0  0  0  0  0  0  0  0  0  0  0
  -24.0397  -16.2587   34.3909 O   0  0  0  0  0  0  0  0  0  0  0  0
  -19.9194  -17.2635   35.7937 O   0  0  0  0  0  0  0  0  0  0  0  0
  -18.1570  -16.2511   31.5054 O   0  0  0  0  0  0  0  0  0  0  0  0
  -32.0831  -12.7359   21.8508 O   0  0  0  0  0  0  0  0  0  0  0  0
  -21.5167   -7.0715   21.6722 O   0  0  0  0  0  0  0  0  0  0  0  0
  -24.2581  -16.7650   28.5283 O   0  0  0  0  0  0  0  0  0  1  0  0
  -23.6488   -3.1988   24.9677 F   0  0  0  0  0  0  0  0  0  0  0  0
  -20.2169   -6.3087   23.9898 F   0  0  0  0  0  0  0  0  0  0  0  0
  1  2  1  0  0  0  0
  1  5  2  0  0  0  0
  2  6  2  0  0  0  0
  3  8  2  0  0  0  0
  3 17  1  0  0  0  0
  4  9  1  0  0  0  0
  4 17  2  0  0  0  0
  5 19  1  0  0  0  0
  6 21  1  0  0  0  0
  7 10  2  0  0  0  0
  7 20  1  0  0  0  0
  8 23  1  0  0  0  0
  9 23  2  0  0  0  0
 10 24  1  0  0  0  0
 11 12  2  0  0  0  0
 11 25  1  0  0  0  0
 12 26  1  0  0  0  0
 13 14  1  0  0  0  0
 13 29  2  0  0  0  0
 14 30  2  0  0  0  0
 15 22  1  0  0  0  0
 15 24  2  0  0  0  0
 16 26  2  0  0  0  0
 16 27  1  0  0  0  0
 17 28  1  0  0  0  0
 18 28  1  0  0  0  0
 18 31  2  0  0  0  0
 18 32  1  0  0  0  0
 19 21  2  0  0  0  0
 19 37  1  0  0  0  0
 20 22  2  0  0  0  0
 20 38  1  0  0  0  0
 21 46  1  0  0  0  0
 22 39  1  0  0  0  0
 23 80  1  0  0  0  0
 24 81  1  0  0  0  0
 25 27  2  0  0  0  0
 25 80  1  0  0  0  0
 26 82  1  0  0  0  0
 27 83  1  0  0  0  0
 28 64  2  0  0  0  0
 29 56  1  0  0  0  0
 29 65  1  0  0  0  0
 30 57  1  0  0  0  0
 30 65  1  0  0  0  0
 31 66  1  0  0  0  0
 31 69  1  0  0  0  0
 32 70  1  0  0  0  0
 32 75  2  0  0  0  0
 33 47  1  0  0  0  0
 33 71  1  0  0  0  0
 33 76  2  0  0  0  0
 34 61  1  0  0  0  0
 34 67  1  0  0  0  0
 34 77  2  0  0  0  0
 35 62  1  0  0  0  0
 35 72  1  0  0  0  0
 35 78  2  0  0  0  0
 36 68  1  0  0  0  0
 36 73  1  0  0  0  0
 36 79  2  0  0  0  0
 37 40  1  0  0  0  0
 38 47  1  0  0  0  0
 39 67  1  0  0  0  0
 40 42  1  0  0  0  0
 41 43  1  0  0  0  0
 41 44  1  0  0  0  0
 42 46  1  0  0  0  0
 43 48  1  0  0  0  0
 44 68  1  0  0  0  0
 45 48  1  0  0  0  0
 45 68  1  0  0  0  0
 46 71  1  0  0  0  0
 47 67  1  0  0  0  0
 48 66  1  0  0  0  0
 49 59  1  0  0  0  0
 50 62  1  0  0  0  0
 51 63  1  0  0  0  0
 52 63  1  0  0  0  0
 53 63  1  0  0  0  0
 54 73  1  0  0  0  0
 55 74  1  0  0  0  0
 56 58  1  0  0  0  0
 57 81  1  0  0  0  0
 58 60  1  0  0  0  0
 59 65  1  0  0  0  0
 60 73  1  0  0  0  0
 61 63  1  0  0  0  0
 61 72  1  0  0  0  0
 62 74  1  0  0  0  0
 64 66  1  0  0  0  0
M  CHG  1  74   1
M  ISO  4  36 100  57 101  73 100  81 101
M  END
> <Batch ID>
0049

> <Smiles>
CCn1c(CCC[100N:0](C)[100C:0](=O)N2CCCC(n3nc(-c4ccc(Oc5ccc(F)cc5F)cc4)c(C(N)=O)c3N)C2)ccc1[101CH2:1][101O:1]c1ccc2c(c1)CN(C(=O)C(NC(=O)C(C)NC)C(C)(C)C)C(C(=O)NC1CCCc3ccccc31)C2

> <Shape>
0.150

> <Color>
0.192

> <Negative vol penalty>
0.000

$$$$

  -OEChem-04052317293D

 87 95  0     1  0  0  0  0  0999 V2000
  -33.3135  -25.6684   33.2816 C   0  0  0  0  0  0  0  0  0  0  0  0
  -32.1379  -25.4731   32.5639 C   0  0  0  0  0  0  0  0  0  0  0  0
  -23.0629   -9.8357   20.0097 C   0  0  0  0  0  0  0  0  0  0  0  0
  -23.7945   -9.9387   22.3099 C   0  0  0  0  0  0  0  0  0  0  0  0
  -34.5415  -25.6600   32.6214 C   0  0  0  0  0  0  0  0  0  0  0  0
  -32.1895  -25.2704   31.1852 C   0  0  0  0  0  0  0  0  0  0  0  0
  -28.8232  -21.7546   25.9294 C   0  0  0  0  0  0  0  0  0  0  0  0
  -22.3036   -8.7028   20.3019 C   0  0  0  0  0  0  0  0  0  0  0  0
  -23.0350   -8.8058   22.6022 C   0  0  0  0  0  0  0  0  0  0  0  0
  -28.2430  -21.9805   24.6819 C   0  0  0  0  0  0  0  0  0  0  0  0
  -19.3291   -8.0032   21.7497 C   0  0  0  0  0  0  0  0  0  0  0  0
  -18.0279   -7.9485   21.2503 C   0  0  0  0  0  0  0  0  0  0  0  0
  -30.4268  -21.9072   23.6597 C   0  0  0  0  0  0  0  0  0  0  0  0
  -18.5827   -5.9418   20.0245 C   0  0  0  0  0  0  0  0  0  0  0  0
  -23.8085  -10.4536   21.0137 C   0  0  0  0  0  0  0  0  0  0  0  0
  -24.1792  -12.9671   20.7841 C   0  0  0  0  0  0  0  0  0  0  0  0
  -34.6090  -25.4474   31.2354 C   0  0  0  0  0  0  0  0  0  0  0  0
  -30.2129  -21.6140   26.0531 C   0  0  0  0  0  0  0  0  0  0  0  0
  -33.4195  -25.2605   30.5056 C   0  0  0  0  0  0  0  0  0  0  0  0
  -31.0219  -21.6771   24.9095 C   0  0  0  0  0  0  0  0  0  0  0  0
  -22.2896   -8.1878   21.5981 C   0  0  0  0  0  0  0  0  0  0  0  0
  -29.0450  -22.0596   23.5473 C   0  0  0  0  0  0  0  0  0  0  0  0
  -20.2572   -7.0272   21.3864 C   0  0  0  0  0  0  0  0  0  0  0  0
  -17.6547   -6.9178   20.3877 C   0  0  0  0  0  0  0  0  0  0  0  0
  -19.8840   -5.9966   20.5239 C   0  0  0  0  0  0  0  0  0  0  0  0
  -24.5936  -11.6236   20.7123 C   0  0  0  0  0  0  0  0  0  0  0  0
  -27.8016  -21.6504   19.3776 C   0  0  0  0  0  0  0  0  0  0  0  0
  -28.5604  -22.6264   19.9708 C   0  0  0  0  0  0  0  0  0  0  0  0
  -25.2839  -13.6880   20.4014 C   0  0  0  0  0  0  0  0  0  0  0  0
  -27.8915  -24.0739   18.3716 C   0  0  0  0  0  0  0  0  0  0  0  0
  -22.9093  -13.5144   21.1630 C   0  0  0  0  0  0  0  0  0  0  0  0
  -32.5034  -23.2142   27.5686 C   0  0  0  0  0  0  0  0  0  0  0  0
  -34.3600  -20.7624   26.5370 C   0  0  0  0  0  0  0  0  0  0  0  0
  -34.8534  -18.2543   24.2760 C   0  0  0  0  0  0  0  0  0  0  0  0
  -30.7756  -14.6580   20.6139 C   0  0  0  0  0  0  0  0  0  0  0  0
  -35.9559  -25.4940   30.5585 C   0  0  0  0  0  0  0  0  0  0  0  0
  -30.8208  -21.3442   27.4022 C   0  0  0  0  0  0  0  0  0  0  0  0
  -32.5171  -21.5126   24.9858 C   0  0  0  0  0  0  0  0  0  0  0  0
  -35.9520  -24.8992   29.1527 C   0  0  0  0  0  0  0  0  0  0  0  0
  -29.6417  -12.1797   18.3229 C   0  0  0  0  0  0  0  0  0  0  0  0
  -34.7604  -25.4206   28.3558 C   0  0  0  0  0  0  0  0  0  0  0  0
  -28.1959  -11.9207   18.7501 C   0  0  0  0  0  0  0  0  0  0  0  0
  -30.5463  -12.4452   19.5242 C   0  0  0  0  0  0  0  0  0  0  0  0
  -28.6356  -13.2579   20.8519 C   0  0  0  0  0  0  0  0  0  0  0  0
  -33.4363  -25.0127   29.0128 C   0  0  1  0  0  0  0  0  0  0  0  0
  -32.2949  -21.7288   27.4811 C   0  0  1  0  0  0  0  0  0  0  0  0
  -27.6742  -13.0402   19.6709 C   0  0  2  0  0  0  0  0  0  0  0  0
  -27.1140  -27.8349   17.9777 C   0  0  0  0  0  0  0  0  0  0  0  0
  -36.4803  -16.4434   23.6665 C   0  0  0  0  0  0  0  0  0  0  0  0
  -36.2271  -22.8504   25.3269 C   0  0  0  0  0  0  0  0  0  0  0  0
  -37.2662  -21.0279   23.9605 C   0  0  0  0  0  0  0  0  0  0  0  0
  -37.3864  -20.9405   26.4506 C   0  0  0  0  0  0  0  0  0  0  0  0
  -32.8333  -16.1345   24.7059 C   0  0  0  0  0  0  0  0  0  0  0  0
  -29.0123  -18.9667   18.2294 C   0  0  0  0  0  0  0  0  0  0  0  0
  -27.7273  -20.2666   19.9206 C   0  0  0  0  0  0  0  0  0  0  0  0
  -29.3626  -22.3503   21.2083 C   0  0  0  0  0  0  0  0  0  1  0  0
  -27.9231  -25.4400   17.7782 C   0  0  0  0  0  0  0  0  0  0  0  0
  -27.0532  -26.4335   18.5645 C   0  0  0  0  0  0  0  0  0  0  0  0
  -30.5924  -17.9706   20.7386 C   0  0  0  0  0  0  0  0  0  0  0  0
  -30.8496  -16.8616   21.7531 C   0  0  0  0  0  0  0  0  0  0  0  0
  -29.1147  -18.3257   20.6337 C   0  0  0  0  0  0  0  0  0  0  0  0
  -35.1808  -20.4902   25.2996 C   0  0  1  0  0  0  0  0  0  0  0  0
  -35.2293  -16.7947   24.4568 C   0  0  2  0  0  0  0  0  0  0  0  0
  -36.4872  -21.3323   25.2579 C   0  0  0  0  0  0  0  0  0  0  0  0
  -25.8624  -11.4959   20.3150 N   0  0  0  0  0  0  0  0  0  0  0  0
  -28.6236  -23.8724   19.4773 N   0  0  0  0  0  0  0  0  0  0  0  0
  -27.0871  -21.9117   18.2680 N   0  0  0  0  0  0  0  0  0  0  0  0
  -27.1293  -23.1553   17.7462 N   0  0  0  0  0  0  0  0  0  0  0  0
  -26.2548  -12.7684   20.1337 N   0  0  0  0  0  0  0  0  0  0  0  0
  -33.0647  -21.2568   26.3283 N   0  0  0  0  0  0  0  0  0  0  0  0
  -29.9960  -13.5184   20.3557 N   0  0  0  0  0  0  0  0  0  0  0  0
  -25.5096  -15.0126   20.2710 N   0  0  0  0  0  0  0  0  0  0  0  0
  -21.8835  -12.6319   21.5280 N   0  0  0  0  0  0  0  0  0  0  0  0
  -33.1357  -23.6264   28.7260 N   0  0  0  0  0  0  0  0  0  0  0  0
  -35.3982  -19.0480   25.2631 N   0  0  0  0  0  0  0  0  0  0  0  0
  -30.1762  -15.6301   21.4054 N   0  0  0  0  0  0  0  0  0  0  0  0
  -34.1195  -15.9131   23.9963 N   0  3  0  0  0  0  0  0  0  0  0  0
  -28.9495  -19.4570   19.6526 N   0  3  1  0  0  0  0  0  0  0  0  0
  -22.6858  -14.7487   21.1616 O   0  0  0  0  0  0  0  0  0  0  0  0
  -32.1203  -23.9330   26.6530 O   0  0  0  0  0  0  0  0  0  0  0  0
  -34.8475  -20.5379   27.6476 O   0  0  0  0  0  0  0  0  0  0  0  0
  -34.1502  -18.6511   23.3494 O   0  0  0  0  0  0  0  0  0  0  0  0
  -31.9189  -14.8010   20.1674 O   0  0  0  0  0  0  0  0  0  0  0  0
  -21.5485   -7.0825   21.8837 O   0  0  0  0  0  0  0  0  0  0  0  0
  -28.4814  -22.2806   22.3285 O   0  0  0  0  0  0  0  0  0  1  0  0
  -16.4046   -6.8645   19.9095 F   0  0  0  0  0  0  0  0  0  0  0  0
  -20.7709   -5.0555   20.1722 F   0  0  0  0  0  0  0  0  0  0  0  0
  1  2  1  0  0  0  0
  1  5  2  0  0  0  0
  2  6  2  0  0  0  0
  3  8  2  0  0  0  0
  3 15  1  0  0  0  0
  4  9  1  0  0  0  0
  4 15  2  0  0  0  0
  5 17  1  0  0  0  0
  6 19  1  0  0  0  0
  7 10  2  0  0  0  0
  7 18  1  0  0  0  0
  8 21  1  0  0  0  0
  9 21  2  0  0  0  0
 10 22  1  0  0  0  0
 11 12  2  0  0  0  0
 11 23  1  0  0  0  0
 12 24  1  0  0  0  0
 13 20  1  0  0  0  0
 13 22  2  0  0  0  0
 14 24  2  0  0  0  0
 14 25  1  0  0  0  0
 15 26  1  0  0  0  0
 16 26  1  0  0  0  0
 16 29  2  0  0  0  0
 16 31  1  0  0  0  0
 17 19  2  0  0  0  0
 17 36  1  0  0  0  0
 18 20  2  0  0  0  0
 18 37  1  0  0  0  0
 19 45  1  0  0  0  0
 20 38  1  0  0  0  0
 21 84  1  0  0  0  0
 22 85  1  0  0  0  0
 23 25  2  0  0  0  0
 23 84  1  0  0  0  0
 24 86  1  0  0  0  0
 25 87  1  0  0  0  0
 26 65  2  0  0  0  0
 27 28  2  0  0  0  0
 27 55  1  0  0  0  0
 27 67  1  0  0  0  0
 28 56  1  0  0  0  0
 28 66  1  0  0  0  0
 29 69  1  0  0  0  0
 29 72  1  0  0  0  0
 30 57  1  0  0  0  0
 30 66  2  0  0  0  0
 30 68  1  0  0  0  0
 31 73  1  0  0  0  0
 31 79  2  0  0  0  0
 32 46  1  0  0  0  0
 32 74  1  0  0  0  0
 32 80  2  0  0  0  0
 33 62  1  0  0  0  0
 33 70  1  0  0  0  0
 33 81  2  0  0  0  0
 34 63  1  0  0  0  0
 34 75  1  0  0  0  0
 34 82  2  0  0  0  0
 35 71  1  0  0  0  0
 35 76  1  0  0  0  0
 35 83  2  0  0  0  0
 36 39  1  0  0  0  0
 37 46  1  0  0  0  0
 38 70  1  0  0  0  0
 39 41  1  0  0  0  0
 40 42  1  0  0  0  0
 40 43  1  0  0  0  0
 41 45  1  0  0  0  0
 42 47  1  0  0  0  0
 43 71  1  0  0  0  0
 44 47  1  0  0  0  0
 44 71  1  0  0  0  0
 45 74  1  0  0  0  0
 46 70  1  0  0  0  0
 47 69  1  0  0  0  0
 48 58  1  0  0  0  0
 49 63  1  0  0  0  0
 50 64  1  0  0  0  0
 51 64  1  0  0  0  0
 52 64  1  0  0  0  0
 53 77  1  0  0  0  0
 54 78  1  0  0  0  0
 55 78  1  0  0  0  0
 56 85  1  0  0  0  0
 57 58  1  0  0  0  0
 59 60  1  0  0  0  0
 59 61  1  0  0  0  0
 60 76  1  0  0  0  0
 61 78  1  0  0  0  0
 62 64  1  0  0  0  0
 62 75  1  0  0  0  0
 63 77  1  0  0  0  0
 65 69  1  0  0  0  0
 67 68  2  0  0  0  0
M  CHG  2  77   1  78   1
M  ISO  4  35 100  56 101  76 100  85 101
M  END
> <Batch ID>
0049

> <Smiles>
CCCc1nnc(CN(C)CCC[100NH:0][100C:0](=O)N2CCCC(n3nc(-c4ccc(Oc5ccc(F)cc5F)cc4)c(C(N)=O)c3N)C2)c([101CH2:1][101O:1]c2ccc3c(c2)CN(C(=O)C(NC(=O)C(C)NC)C(C)(C)C)C(C(=O)NC2CCCc4ccccc42)C3)n1

> <Shape>
0.203

> <Color>
0.179

> <Negative vol penalty>
0.000

$$$$

  -OEChem-04052317293D

 85 93  0     1  0  0  0  0  0999 V2000
  -16.1427  -29.8354   23.7749 C   0  0  0  0  0  0  0  0  0  0  0  0
  -16.8284  -28.6981   23.3604 C   0  0  0  0  0  0  0  0  0  0  0  0
  -26.7148  -12.6081   21.0539 C   0  0  0  0  0  0  0  0  0  0  0  0
  -25.4649  -14.2379   19.7817 C   0  0  0  0  0  0  0  0  0  0  0  0
  -16.8405  -31.0162   24.0251 C   0  0  0  0  0  0  0  0  0  0  0  0
  -18.2122  -28.7413   23.1947 C   0  0  0  0  0  0  0  0  0  0  0  0
  -22.1942  -24.2194   24.2911 C   0  0  0  0  0  0  0  0  0  0  0  0
  -25.5220  -12.0067   21.4554 C   0  0  0  0  0  0  0  0  0  0  0  0
  -24.2721  -13.6365   20.1831 C   0  0  0  0  0  0  0  0  0  0  0  0
  -22.8152  -23.2930   23.4545 C   0  0  0  0  0  0  0  0  0  0  0  0
  -23.2339   -9.8914   20.1427 C   0  0  0  0  0  0  0  0  0  0  0  0
  -23.1594   -8.4996   20.0885 C   0  0  0  0  0  0  0  0  0  0  0  0
  -24.7538  -24.7224   23.3208 C   0  0  0  0  0  0  0  0  0  0  0  0
  -22.7431   -8.4293   22.4674 C   0  0  0  0  0  0  0  0  0  0  0  0
  -27.8129  -21.5147   22.4837 C   0  0  0  0  0  0  0  0  0  0  0  0
  -26.6862  -13.7238   20.2171 C   0  0  0  0  0  0  0  0  0  0  0  0
  -28.6822  -14.0406   18.6603 C   0  0  0  0  0  0  0  0  0  0  0  0
  -18.2348  -31.0712   23.8718 C   0  0  0  0  0  0  0  0  0  0  0  0
  -22.8451  -25.4112   24.6407 C   0  0  0  0  0  0  0  0  0  0  0  0
  -18.9292  -29.9243   23.4418 C   0  0  0  0  0  0  0  0  0  0  0  0
  -24.1399  -25.6610   24.1641 C   0  0  0  0  0  0  0  0  0  0  0  0
  -24.3007  -12.5208   21.0200 C   0  0  0  0  0  0  0  0  0  0  0  0
  -24.0940  -23.5458   22.9668 C   0  0  0  0  0  0  0  0  0  0  0  0
  -23.0631  -10.5522   21.3592 C   0  0  0  0  0  0  0  0  0  0  0  0
  -22.9140   -7.7686   21.2508 C   0  0  0  0  0  0  0  0  0  0  0  0
  -22.8177   -9.8211   22.5215 C   0  0  0  0  0  0  0  0  0  0  0  0
  -27.9180  -14.3459   19.8026 C   0  0  0  0  0  0  0  0  0  0  0  0
  -28.6824  -21.2848   23.5666 C   0  0  0  0  0  0  0  0  0  0  0  0
  -26.7737  -20.6396   22.6859 C   0  0  0  0  0  0  0  0  0  0  0  0
  -29.7479  -14.9050   18.7191 C   0  0  0  0  0  0  0  0  0  0  0  0
  -28.4494  -13.0631   17.6376 C   0  0  0  0  0  0  0  0  0  0  0  0
  -22.2554  -28.5029   24.1960 C   0  0  0  0  0  0  0  0  0  0  0  0
  -24.8426  -28.8735   26.1172 C   0  0  0  0  0  0  0  0  0  0  0  0
  -27.7371  -27.5639   27.3637 C   0  0  0  0  0  0  0  0  0  0  0  0
  -30.5033  -20.1625   21.0419 C   0  0  0  0  0  0  0  0  0  0  0  0
  -18.9399  -32.3833   24.1085 C   0  0  0  0  0  0  0  0  0  0  0  0
  -22.1722  -26.3879   25.5657 C   0  0  0  0  0  0  0  0  0  0  0  0
  -24.8897  -26.9161   24.5261 C   0  0  0  0  0  0  0  0  0  0  0  0
  -20.4513  -32.2420   24.2703 C   0  0  0  0  0  0  0  0  0  0  0  0
  -32.4528  -17.3237   21.8247 C   0  0  0  0  0  0  0  0  0  0  0  0
  -21.0224  -31.3375   23.1829 C   0  0  0  0  0  0  0  0  0  0  0  0
  -31.5740  -16.1954   21.2866 C   0  0  0  0  0  0  0  0  0  0  0  0
  -31.6291  -18.4196   22.5036 C   0  0  0  0  0  0  0  0  0  0  0  0
  -29.6639  -17.8340   21.1187 C   0  0  0  0  0  0  0  0  0  0  0  0
  -20.4333  -29.9248   23.2747 C   0  0  1  0  0  0  0  0  0  0  0  0
  -22.7233  -27.8051   25.4418 C   0  0  1  0  0  0  0  0  0  0  0  0
  -30.4620  -16.7493   20.3790 C   0  0  2  0  0  0  0  0  0  0  0  0
  -33.7324  -21.7560   20.4087 C   0  0  0  0  0  0  0  0  0  0  0  0
  -26.8407  -17.5445   24.2095 C   0  0  0  0  0  0  0  0  0  0  0  0
  -29.6560  -28.1177   28.8831 C   0  0  0  0  0  0  0  0  0  0  0  0
  -26.0379  -30.6609   23.9524 C   0  0  0  0  0  0  0  0  0  0  0  0
  -28.2650  -30.4026   25.0666 C   0  0  0  0  0  0  0  0  0  0  0  0
  -26.3783  -31.4832   26.2895 C   0  0  0  0  0  0  0  0  0  0  0  0
  -27.0948  -25.3201   29.1835 C   0  0  0  0  0  0  0  0  0  0  0  0
  -29.9640  -21.9541   23.8461 C   0  0  0  0  0  0  0  0  0  0  0  0
  -25.5200  -20.3868   21.8843 C   0  0  0  0  0  0  0  0  0  0  0  0
  -32.8719  -22.8076   21.0952 C   0  0  0  0  0  0  0  0  0  0  0  0
  -26.2821  -18.9339   24.4645 C   0  0  0  0  0  0  0  0  0  0  0  0
  -31.1891  -21.2648   23.2144 C   0  0  0  0  0  0  0  0  0  0  0  0
  -31.3875  -22.4638   21.0675 C   0  0  0  0  0  0  0  0  0  0  0  0
  -24.3594  -21.2701   22.3292 C   0  0  0  0  0  0  0  0  0  1  0  0
  -26.3316  -28.9862   25.8954 C   0  0  1  0  0  0  0  0  0  0  0  0
  -28.2781  -27.4824   28.7797 C   0  0  2  0  0  0  0  0  0  0  0  0
  -26.7386  -30.3604   25.2924 C   0  0  0  0  0  0  0  0  0  0  0  0
  -28.4529  -15.3275   20.5336 N   0  0  0  0  0  0  0  0  0  0  0  0
  -28.2346  -20.3380   24.3955 N   0  0  0  0  0  0  0  0  0  0  0  0
  -27.0723  -19.9652   23.8332 N   0  0  0  0  0  0  0  0  0  0  0  0
  -29.5646  -15.6464   19.8491 N   0  0  0  0  0  0  0  0  0  0  0  0
  -24.1870  -27.8432   25.4284 N   0  0  0  0  0  0  0  0  0  0  0  0
  -30.5504  -18.8862   21.6217 N   0  0  0  0  0  0  0  0  0  0  0  0
  -30.8146  -15.0956   17.9139 N   0  0  0  0  0  0  0  0  0  0  0  0
  -27.3060  -12.2579   17.7308 N   0  0  0  0  0  0  0  0  0  0  0  0
  -21.0623  -29.1835   24.3467 N   0  0  0  0  0  0  0  0  0  0  0  0
  -26.9592  -28.6871   27.1780 N   0  0  0  0  0  0  0  0  0  0  0  0
  -31.0949  -21.2149   21.7567 N   0  0  0  0  0  0  0  0  0  0  0  0
  -28.3825  -26.0604   29.2133 N   0  3  0  0  0  0  0  0  0  0  0  0
  -29.2407  -12.8971   16.6785 O   0  0  0  0  0  0  0  0  0  0  0  0
  -22.9279  -28.4304   23.1741 O   0  0  0  0  0  0  0  0  0  0  0  0
  -24.2831  -29.6658   26.8794 O   0  0  0  0  0  0  0  0  0  0  0  0
  -27.9833  -26.7178   26.5069 O   0  0  0  0  0  0  0  0  0  0  0  0
  -29.9555  -20.3544   19.9486 O   0  0  0  0  0  0  0  0  0  0  0  0
  -23.1366  -11.9341   21.4113 O   0  0  0  0  0  0  0  0  0  0  0  0
  -24.7022  -22.6436   22.1495 O   0  0  0  0  0  0  0  0  0  1  0  0
  -22.8409   -6.4321   21.1984 F   0  0  0  0  0  0  0  0  0  0  0  0
  -22.6515  -10.4504   23.6930 F   0  0  0  0  0  0  0  0  0  0  0  0
  1  2  1  0  0  0  0
  1  5  2  0  0  0  0
  2  6  2  0  0  0  0
  3  8  2  0  0  0  0
  3 16  1  0  0  0  0
  4  9  1  0  0  0  0
  4 16  2  0  0  0  0
  5 18  1  0  0  0  0
  6 20  1  0  0  0  0
  7 10  2  0  0  0  0
  7 19  1  0  0  0  0
  8 22  1  0  0  0  0
  9 22  2  0  0  0  0
 10 23  1  0  0  0  0
 11 12  2  0  0  0  0
 11 24  1  0  0  0  0
 12 25  1  0  0  0  0
 13 21  1  0  0  0  0
 13 23  2  0  0  0  0
 14 25  2  0  0  0  0
 14 26  1  0  0  0  0
 15 28  1  0  0  0  0
 15 29  2  0  0  0  0
 16 27  1  0  0  0  0
 17 27  1  0  0  0  0
 17 30  2  0  0  0  0
 17 31  1  0  0  0  0
 18 20  2  0  0  0  0
 18 36  1  0  0  0  0
 19 21  2  0  0  0  0
 19 37  1  0  0  0  0
 20 45  1  0  0  0  0
 21 38  1  0  0  0  0
 22 82  1  0  0  0  0
 23 83  1  0  0  0  0
 24 26  2  0  0  0  0
 24 82  1  0  0  0  0
 25 84  1  0  0  0  0
 26 85  1  0  0  0  0
 27 65  2  0  0  0  0
 28 55  1  0  0  0  0
 28 66  2  0  0  0  0
 29 56  1  0  0  0  0
 29 67  1  0  0  0  0
 30 68  1  0  0  0  0
 30 71  1  0  0  0  0
 31 72  1  0  0  0  0
 31 77  2  0  0  0  0
 32 46  1  0  0  0  0
 32 73  1  0  0  0  0
 32 78  2  0  0  0  0
 33 62  1  0  0  0  0
 33 69  1  0  0  0  0
 33 79  2  0  0  0  0
 34 63  1  0  0  0  0
 34 74  1  0  0  0  0
 34 80  2  0  0  0  0
 35 70  1  0  0  0  0
 35 75  1  0  0  0  0
 35 81  2  0  0  0  0
 36 39  1  0  0  0  0
 37 46  1  0  0  0  0
 38 69  1  0  0  0  0
 39 41  1  0  0  0  0
 40 42  1  0  0  0  0
 40 43  1  0  0  0  0
 41 45  1  0  0  0  0
 42 47  1  0  0  0  0
 43 70  1  0  0  0  0
 44 47  1  0  0  0  0
 44 70  1  0  0  0  0
 45 73  1  0  0  0  0
 46 69  1  0  0  0  0
 47 68  1  0  0  0  0
 48 57  1  0  0  0  0
 49 58  1  0  0  0  0
 50 63  1  0  0  0  0
 51 64  1  0  0  0  0
 52 64  1  0  0  0  0
 53 64  1  0  0  0  0
 54 76  1  0  0  0  0
 55 59  1  0  0  0  0
 56 61  1  0  0  0  0
 57 60  1  0  0  0  0
 58 67  1  0  0  0  0
 59 75  1  0  0  0  0
 60 75  1  0  0  0  0
 61 83  1  0  0  0  0
 62 64  1  0  0  0  0
 62 74  1  0  0  0  0
 63 76  1  0  0  0  0
 65 68  1  0  0  0  0
 66 67  1  0  0  0  0
M  CHG  1  76   1
M  ISO  4  35 100  61 101  75 100  83 101
M  END
> <Batch ID>
0049

> <Smiles>
CCC[100N:0](CCc1cc(C[101CH2:1][101O:1]c2ccc3c(c2)CN(C(=O)C(NC(=O)C(C)NC)C(C)(C)C)C(C(=O)NC2CCCc4ccccc42)C3)n(CC)n1)[100C:0](=O)N1CCCC(n2nc(-c3ccc(Oc4ccc(F)cc4F)cc3)c(C(N)=O)c2N)C1

> <Shape>
0.213

> <Color>
0.086

> <Negative vol penalty>
0.000

$$$$

  -OEChem-04052317293D

 80 88  0     1  0  0  0  0  0999 V2000
  -16.7466  -30.0090   23.7988 C   0  0  0  0  0  0  0  0  0  0  0  0
  -17.8866  -30.6323   24.2961 C   0  0  0  0  0  0  0  0  0  0  0  0
  -26.5002  -20.9431   18.7113 C   0  0  0  0  0  0  0  0  0  0  0  0
  -28.3411  -20.2562   20.1170 C   0  0  0  0  0  0  0  0  0  0  0  0
  -16.8615  -28.8220   23.0764 C   0  0  0  0  0  0  0  0  0  0  0  0
  -19.1421  -30.0684   24.0722 C   0  0  0  0  0  0  0  0  0  0  0  0
  -25.9813  -31.9136   23.0060 C   0  0  0  0  0  0  0  0  0  0  0  0
  -26.2018  -19.6061   18.4487 C   0  0  0  0  0  0  0  0  0  0  0  0
  -28.0428  -18.9191   19.8544 C   0  0  0  0  0  0  0  0  0  0  0  0
  -27.2583  -31.6460   23.4975 C   0  0  0  0  0  0  0  0  0  0  0  0
  -27.5434  -15.3179   19.8426 C   0  0  0  0  0  0  0  0  0  0  0  0
  -27.5373  -14.4306   20.9188 C   0  0  0  0  0  0  0  0  0  0  0  0
  -27.3420  -29.6348   22.1680 C   0  0  0  0  0  0  0  0  0  0  0  0
  -25.7947  -15.7267   21.9775 C   0  0  0  0  0  0  0  0  0  0  0  0
  -27.5699  -21.2682   19.5454 C   0  0  0  0  0  0  0  0  0  0  0  0
  -27.3753  -23.4430   20.8645 C   0  0  0  0  0  0  0  0  0  0  0  0
  -18.1198  -28.2484   22.8353 C   0  0  0  0  0  0  0  0  0  0  0  0
  -25.3697  -31.0366   22.0986 C   0  0  0  0  0  0  0  0  0  0  0  0
  -19.2738  -28.8719   23.3471 C   0  0  0  0  0  0  0  0  0  0  0  0
  -26.0582  -29.8949   21.6645 C   0  0  0  0  0  0  0  0  0  0  0  0
  -26.9731  -18.5941   19.0202 C   0  0  0  0  0  0  0  0  0  0  0  0
  -27.9376  -30.5050   23.0807 C   0  0  0  0  0  0  0  0  0  0  0  0
  -26.6753  -16.4097   19.8339 C   0  0  0  0  0  0  0  0  0  0  0  0
  -26.6629  -14.6349   21.9862 C   0  0  0  0  0  0  0  0  0  0  0  0
  -25.8009  -16.6141   20.9013 C   0  0  0  0  0  0  0  0  0  0  0  0
  -27.8789  -22.6491   19.8167 C   0  0  0  0  0  0  0  0  0  0  0  0
  -31.1635  -28.9261   23.7498 C   0  0  0  0  0  0  0  0  0  0  0  0
  -32.4049  -28.8772   23.1607 C   0  0  0  0  0  0  0  0  0  0  0  0
  -27.9709  -24.6675   20.6843 C   0  0  0  0  0  0  0  0  0  0  0  0
  -32.5484  -28.7411   25.3556 C   0  0  0  0  0  0  0  0  0  0  0  0
  -26.4518  -23.1039   21.9074 C   0  0  0  0  0  0  0  0  0  0  0  0
  -22.7433  -29.2464   22.1326 C   0  0  0  0  0  0  0  0  0  0  0  0
  -23.5490  -28.6952   19.0391 C   0  0  0  0  0  0  0  0  0  0  0  0
  -25.9876  -28.5971   16.6537 C   0  0  0  0  0  0  0  0  0  0  0  0
  -32.4742  -27.7739   19.5814 C   0  0  0  0  0  0  0  0  0  0  0  0
  -18.1900  -26.9393   22.0896 C   0  0  0  0  0  0  0  0  0  0  0  0
  -24.0025  -31.3534   21.5573 C   0  0  0  0  0  0  0  0  0  0  0  0
  -25.4539  -28.9322   20.6764 C   0  0  0  0  0  0  0  0  0  0  0  0
  -19.5880  -26.6054   21.5753 C   0  0  0  0  0  0  0  0  0  0  0  0
  -30.6611  -26.4809   16.8034 C   0  0  0  0  0  0  0  0  0  0  0  0
  -20.6275  -26.8342   22.6680 C   0  0  0  0  0  0  0  0  0  0  0  0
  -29.7392  -25.4304   17.4252 C   0  0  0  0  0  0  0  0  0  0  0  0
  -32.0221  -26.5175   17.4949 C   0  0  0  0  0  0  0  0  0  0  0  0
  -31.0467  -25.6387   19.5806 C   0  0  0  0  0  0  0  0  0  0  0  0
  -20.6553  -28.3042   23.1038 C   0  0  1  0  0  0  0  0  0  0  0  0
  -23.2684  -30.1238   21.0316 C   0  0  1  0  0  0  0  0  0  0  0  0
  -29.6427  -25.6029   18.9530 C   0  0  2  0  0  0  0  0  0  0  0  0
  -33.1773  -28.6180   26.6869 C   0  0  0  0  0  0  0  0  0  0  0  0
  -26.3485  -28.0747   14.2259 C   0  0  0  0  0  0  0  0  0  0  0  0
  -23.3882  -25.7120   19.6596 C   0  0  0  0  0  0  0  0  0  0  0  0
  -24.6517  -25.2747   17.5428 C   0  0  0  0  0  0  0  0  0  0  0  0
  -22.4136  -26.3727   17.4532 C   0  0  0  0  0  0  0  0  0  0  0  0
  -34.7207  -28.6667   24.1002 C   0  0  0  0  0  0  0  0  0  0  0  0
  -26.9088  -31.3502   16.0788 C   0  0  0  0  0  0  0  0  0  0  0  0
  -29.8221  -29.0543   23.0898 C   0  0  0  0  0  0  0  0  0  1  0  0
  -32.8263  -28.9297   21.7492 C   0  0  0  0  0  0  0  0  0  0  0  0
  -24.3992  -27.6749   18.3213 C   0  0  1  0  0  0  0  0  0  0  0  0
  -26.0423  -29.1609   15.2453 C   0  0  2  0  0  0  0  0  0  0  0  0
  -23.7241  -26.2755   18.2643 C   0  0  0  0  0  0  0  0  0  0  0  0
  -28.7289  -23.3134   19.0291 N   0  0  0  0  0  0  0  0  0  0  0  0
  -31.2597  -28.8412   25.1162 N   0  0  0  0  0  0  0  0  0  0  0  0
  -33.2819  -28.7591   24.2019 N   0  0  0  0  0  0  0  0  0  0  0  0
  -28.7639  -24.5377   19.5822 N   0  0  0  0  0  0  0  0  0  0  0  0
  -24.1125  -29.2823   20.1809 N   0  0  0  0  0  0  0  0  0  0  0  0
  -31.8604  -26.6846   18.9412 N   0  0  0  0  0  0  0  0  0  0  0  0
  -27.8883  -25.8318   21.3625 N   0  0  0  0  0  0  0  0  0  0  0  0
  -25.9357  -21.8014   21.9455 N   0  0  0  0  0  0  0  0  0  0  0  0
  -21.3687  -29.1058   22.1327 N   0  0  0  0  0  0  0  0  0  0  0  0
  -24.7039  -28.2450   17.0135 N   0  0  0  0  0  0  0  0  0  0  0  0
  -32.2652  -27.8615   20.9523 N   0  0  0  0  0  0  0  0  0  0  0  0
  -27.0977  -30.2085   15.1473 N   0  3  0  0  0  0  0  0  0  0  0  0
  -26.0822  -23.9362   22.7701 O   0  0  0  0  0  0  0  0  0  0  0  0
  -23.5274  -28.7337   22.9225 O   0  0  0  0  0  0  0  0  0  0  0  0
  -22.4291  -28.9665   18.5988 O   0  0  0  0  0  0  0  0  0  0  0  0
  -26.9846  -28.4772   17.3624 O   0  0  0  0  0  0  0  0  0  0  0  0
  -33.1533  -28.6095   18.9753 O   0  0  0  0  0  0  0  0  0  0  0  0
  -26.6821  -17.2894   18.7644 O   0  0  0  0  0  0  0  0  0  0  0  0
  -29.1839  -30.2411   23.5594 O   0  0  0  0  0  0  0  0  0  1  0  0
  -26.6560  -13.7819   23.0189 F   0  0  0  0  0  0  0  0  0  0  0  0
  -24.9638  -17.6605   20.8980 F   0  0  0  0  0  0  0  0  0  0  0  0
  1  2  1  0  0  0  0
  1  5  2  0  0  0  0
  2  6  2  0  0  0  0
  3  8  2  0  0  0  0
  3 15  1  0  0  0  0
  4  9  1  0  0  0  0
  4 15  2  0  0  0  0
  5 17  1  0  0  0  0
  6 19  1  0  0  0  0
  7 10  2  0  0  0  0
  7 18  1  0  0  0  0
  8 21  1  0  0  0  0
  9 21  2  0  0  0  0
 10 22  1  0  0  0  0
 11 12  2  0  0  0  0
 11 23  1  0  0  0  0
 12 24  1  0  0  0  0
 13 20  1  0  0  0  0
 13 22  2  0  0  0  0
 14 24  2  0  0  0  0
 14 25  1  0  0  0  0
 15 26  1  0  0  0  0
 16 26  1  0  0  0  0
 16 29  2  0  0  0  0
 16 31  1  0  0  0  0
 17 19  2  0  0  0  0
 17 36  1  0  0  0  0
 18 20  2  0  0  0  0
 18 37  1  0  0  0  0
 19 45  1  0  0  0  0
 20 38  1  0  0  0  0
 21 77  1  0  0  0  0
 22 78  1  0  0  0  0
 23 25  2  0  0  0  0
 23 77  1  0  0  0  0
 24 79  1  0  0  0  0
 25 80  1  0  0  0  0
 26 60  2  0  0  0  0
 27 28  2  0  0  0  0
 27 55  1  0  0  0  0
 27 61  1  0  0  0  0
 28 56  1  0  0  0  0
 28 62  1  0  0  0  0
 29 63  1  0  0  0  0
 29 66  1  0  0  0  0
 30 48  1  0  0  0  0
 30 61  2  0  0  0  0
 30 62  1  0  0  0  0
 31 67  1  0  0  0  0
 31 72  2  0  0  0  0
 32 46  1  0  0  0  0
 32 68  1  0  0  0  0
 32 73  2  0  0  0  0
 33 57  1  0  0  0  0
 33 64  1  0  0  0  0
 33 74  2  0  0  0  0
 34 58  1  0  0  0  0
 34 69  1  0  0  0  0
 34 75  2  0  0  0  0
 35 65  1  0  0  0  0
 35 70  1  0  0  0  0
 35 76  2  0  0  0  0
 36 39  1  0  0  0  0
 37 46  1  0  0  0  0
 38 64  1  0  0  0  0
 39 41  1  0  0  0  0
 40 42  1  0  0  0  0
 40 43  1  0  0  0  0
 41 45  1  0  0  0  0
 42 47  1  0  0  0  0
 43 65  1  0  0  0  0
 44 47  1  0  0  0  0
 44 65  1  0  0  0  0
 45 68  1  0  0  0  0
 46 64  1  0  0  0  0
 47 63  1  0  0  0  0
 49 58  1  0  0  0  0
 50 59  1  0  0  0  0
 51 59  1  0  0  0  0
 52 59  1  0  0  0  0
 53 62  1  0  0  0  0
 54 71  1  0  0  0  0
 55 78  1  0  0  0  0
 56 70  1  0  0  0  0
 57 59  1  0  0  0  0
 57 69  1  0  0  0  0
 58 71  1  0  0  0  0
 60 63  1  0  0  0  0
M  CHG  1  71   1
M  ISO  4  35 100  55 101  70 100  78 101
M  END
> <Batch ID>
0049

> <Smiles>
CNC(C)C(=O)NC(C(=O)N1Cc2cc([101O:1][101CH2:1]c3nc(C)n(C)c3C[100NH:0][100C:0](=O)N3CCCC(n4nc(-c5ccc(Oc6ccc(F)cc6F)cc5)c(C(N)=O)c4N)C3)ccc2CC1C(=O)NC1CCCc2ccccc21)C(C)(C)C

> <Shape>
0.239

> <Color>
0.110

> <Negative vol penalty>
0.000

$$$$

  -OEChem-04052317293D

 86 94  0     1  0  0  0  0  0999 V2000
  -28.8764  -32.0887   26.0952 C   0  0  0  0  0  0  0  0  0  0  0  0
  -28.3099  -30.8393   26.3268 C   0  0  0  0  0  0  0  0  0  0  0  0
  -26.6733  -12.4440   21.7704 C   0  0  0  0  0  0  0  0  0  0  0  0
  -25.9787  -13.9237   19.9913 C   0  0  0  0  0  0  0  0  0  0  0  0
  -28.2403  -32.9949   25.2477 C   0  0  0  0  0  0  0  0  0  0  0  0
  -27.1065  -30.4958   25.7119 C   0  0  0  0  0  0  0  0  0  0  0  0
  -27.1802  -25.8169   23.7760 C   0  0  0  0  0  0  0  0  0  0  0  0
  -25.3981  -11.8794   21.7986 C   0  0  0  0  0  0  0  0  0  0  0  0
  -24.7036  -13.3590   20.0195 C   0  0  0  0  0  0  0  0  0  0  0  0
  -27.0192  -24.7567   24.6668 C   0  0  0  0  0  0  0  0  0  0  0  0
  -23.6328   -9.6230   20.0027 C   0  0  0  0  0  0  0  0  0  0  0  0
  -23.5408   -8.2326   20.0662 C   0  0  0  0  0  0  0  0  0  0  0  0
  -24.6983  -24.5838   24.0325 C   0  0  0  0  0  0  0  0  0  0  0  0
  -22.3380   -8.4075   22.1542 C   0  0  0  0  0  0  0  0  0  0  0  0
  -26.1435  -18.7740   23.4633 C   0  0  0  0  0  0  0  0  0  0  0  0
  -26.9636  -13.4662   20.8668 C   0  0  0  0  0  0  0  0  0  0  0  0
  -29.3784  -13.6331   20.0617 C   0  0  0  0  0  0  0  0  0  0  0  0
  -27.0334  -32.6587   24.6145 C   0  0  0  0  0  0  0  0  0  0  0  0
  -26.0968  -26.2765   23.0133 C   0  0  0  0  0  0  0  0  0  0  0  0
  -26.4530  -31.3989   24.8562 C   0  0  0  0  0  0  0  0  0  0  0  0
  -24.8487  -25.6484   23.1308 C   0  0  0  0  0  0  0  0  0  0  0  0
  -24.4133  -12.3368   20.9232 C   0  0  0  0  0  0  0  0  0  0  0  0
  -25.7774  -24.1418   24.7973 C   0  0  0  0  0  0  0  0  0  0  0  0
  -23.0775  -10.4057   21.0150 C   0  0  0  0  0  0  0  0  0  0  0  0
  -22.8934   -7.6249   21.1419 C   0  0  0  0  0  0  0  0  0  0  0  0
  -22.4301   -9.7979   22.0908 C   0  0  0  0  0  0  0  0  0  0  0  0
  -28.2804  -14.0503   20.8376 C   0  0  0  0  0  0  0  0  0  0  0  0
  -26.1942  -18.6138   22.0936 C   0  0  0  0  0  0  0  0  0  0  0  0
  -26.4558  -20.0350   23.9289 C   0  0  0  0  0  0  0  0  0  0  0  0
  -30.3852  -14.5063   20.3938 C   0  0  0  0  0  0  0  0  0  0  0  0
  -26.8063  -20.7848   21.8118 C   0  0  0  0  0  0  0  0  0  0  0  0
  -29.4793  -12.5528   19.1244 C   0  0  0  0  0  0  0  0  0  0  0  0
  -24.5159  -29.0251   22.7909 C   0  0  0  0  0  0  0  0  0  0  0  0
  -23.0195  -27.5170   20.3395 C   0  0  0  0  0  0  0  0  0  0  0  0
  -22.0987  -24.5734   18.8787 C   0  0  0  0  0  0  0  0  0  0  0  0
  -30.3913  -20.0995   22.5309 C   0  0  0  0  0  0  0  0  0  0  0  0
  -26.3588  -33.6891   23.7440 C   0  0  0  0  0  0  0  0  0  0  0  0
  -26.2934  -27.4039   22.0372 C   0  0  0  0  0  0  0  0  0  0  0  0
  -23.6589  -26.0908   22.3200 C   0  0  0  0  0  0  0  0  0  0  0  0
  -25.2780  -33.1066   22.8369 C   0  0  0  0  0  0  0  0  0  0  0  0
  -31.9286  -17.2444   24.0010 C   0  0  0  0  0  0  0  0  0  0  0  0
  -24.3704  -32.1664   23.6236 C   0  0  0  0  0  0  0  0  0  0  0  0
  -31.2670  -16.0644   23.2870 C   0  0  0  0  0  0  0  0  0  0  0  0
  -30.9432  -18.3875   24.2340 C   0  0  0  0  0  0  0  0  0  0  0  0
  -29.5769  -17.6737   22.3111 C   0  0  0  0  0  0  0  0  0  0  0  0
  -25.1614  -30.9801   24.1881 C   0  0  1  0  0  0  0  0  0  0  0  0
  -24.9951  -28.1247   21.6876 C   0  0  1  0  0  0  0  0  0  0  0  0
  -30.5452  -16.5185   22.0040 C   0  0  2  0  0  0  0  0  0  0  0  0
  -25.8717  -17.2851   21.4963 C   0  0  0  0  0  0  0  0  0  0  0  0
  -21.1486  -23.0344   17.1392 C   0  0  0  0  0  0  0  0  0  0  0  0
  -27.1755  -21.5476   19.3677 C   0  0  0  0  0  0  0  0  0  0  0  0
  -26.1300  -23.0645   21.0261 C   0  0  0  0  0  0  0  0  0  0  0  0
  -20.3742  -28.2093   21.6934 C   0  0  0  0  0  0  0  0  0  0  0  0
  -19.2623  -26.5033   20.2368 C   0  0  0  0  0  0  0  0  0  0  0  0
  -20.3770  -28.4834   19.2076 C   0  0  0  0  0  0  0  0  0  0  0  0
  -24.6829  -24.4095   17.4456 C   0  0  0  0  0  0  0  0  0  0  0  0
  -26.4262  -20.3077   25.4115 C   0  0  0  0  0  0  0  0  0  0  0  0
  -25.0656  -20.7863   25.9227 C   0  0  0  0  0  0  0  0  0  0  0  0
  -28.5821  -22.5303   21.2218 C   0  0  0  0  0  0  0  0  0  0  0  0
  -29.7688  -21.6964   20.7360 C   0  0  0  0  0  0  0  0  0  0  0  0
  -24.6365  -22.1254   25.3344 C   0  0  0  0  0  0  0  0  0  1  0  0
  -21.7942  -26.6449   20.2093 C   0  0  1  0  0  0  0  0  0  0  0  0
  -22.2066  -24.0827   17.4462 C   0  0  2  0  0  0  0  0  0  0  0  0
  -27.1709  -21.9029   20.8949 C   0  0  0  0  0  0  0  0  0  0  0  0
  -20.4737  -27.4529   20.3536 C   0  0  0  0  0  0  0  0  0  0  0  0
  -28.5629  -15.1064   21.6050 N   0  0  0  0  0  0  0  0  0  0  0  0
  -26.5229  -19.6013   21.2351 N   0  0  0  0  0  0  0  0  0  0  0  0
  -26.7930  -21.0674   23.1284 N   0  0  0  0  0  0  0  0  0  0  0  0
  -29.8500  -15.3601   21.3130 N   0  0  0  0  0  0  0  0  0  0  0  0
  -23.9000  -27.2013   21.3840 N   0  0  0  0  0  0  0  0  0  0  0  0
  -30.2941  -18.7716   22.9782 N   0  0  0  0  0  0  0  0  0  0  0  0
  -31.6673  -14.6195   19.9864 N   0  0  0  0  0  0  0  0  0  0  0  0
  -28.3496  -11.7537   18.9018 N   0  0  0  0  0  0  0  0  0  0  0  0
  -25.4208  -30.0058   23.1499 N   0  0  0  0  0  0  0  0  0  0  0  0
  -21.9278  -25.9403   18.9389 N   0  0  0  0  0  0  0  0  0  0  0  0
  -29.7528  -20.3775   21.3285 N   0  0  0  0  0  0  0  0  0  0  0  0
  -23.5485  -23.4811   17.2045 N   0  3  0  0  0  0  0  0  0  0  0  0
  -30.5445  -12.2933   18.5149 O   0  0  0  0  0  0  0  0  0  0  0  0
  -23.4065  -28.8445   23.2792 O   0  0  0  0  0  0  0  0  0  0  0  0
  -23.1928  -28.4398   19.5395 O   0  0  0  0  0  0  0  0  0  0  0  0
  -22.1562  -23.8191   19.8473 O   0  0  0  0  0  0  0  0  0  0  0  0
  -31.0064  -20.9715   23.1540 O   0  0  0  0  0  0  0  0  0  0  0  0
  -23.1690  -11.7859   20.9502 O   0  0  0  0  0  0  0  0  0  0  0  0
  -25.6175  -23.1071   25.6666 O   0  0  0  0  0  0  0  0  0  1  0  0
  -22.8038   -6.2898   21.2019 F   0  0  0  0  0  0  0  0  0  0  0  0
  -21.8936  -10.5446   23.0657 F   0  0  0  0  0  0  0  0  0  0  0  0
  1  2  1  0  0  0  0
  1  5  2  0  0  0  0
  2  6  2  0  0  0  0
  3  8  2  0  0  0  0
  3 16  1  0  0  0  0
  4  9  1  0  0  0  0
  4 16  2  0  0  0  0
  5 18  1  0  0  0  0
  6 20  1  0  0  0  0
  7 10  2  0  0  0  0
  7 19  1  0  0  0  0
  8 22  1  0  0  0  0
  9 22  2  0  0  0  0
 10 23  1  0  0  0  0
 11 12  2  0  0  0  0
 11 24  1  0  0  0  0
 12 25  1  0  0  0  0
 13 21  1  0  0  0  0
 13 23  2  0  0  0  0
 14 25  2  0  0  0  0
 14 26  1  0  0  0  0
 15 28  2  0  0  0  0
 15 29  1  0  0  0  0
 16 27  1  0  0  0  0
 17 27  1  0  0  0  0
 17 30  2  0  0  0  0
 17 32  1  0  0  0  0
 18 20  2  0  0  0  0
 18 37  1  0  0  0  0
 19 21  2  0  0  0  0
 19 38  1  0  0  0  0
 20 46  1  0  0  0  0
 21 39  1  0  0  0  0
 22 83  1  0  0  0  0
 23 84  1  0  0  0  0
 24 26  2  0  0  0  0
 24 83  1  0  0  0  0
 25 85  1  0  0  0  0
 26 86  1  0  0  0  0
 27 66  2  0  0  0  0
 28 49  1  0  0  0  0
 28 67  1  0  0  0  0
 29 57  1  0  0  0  0
 29 68  2  0  0  0  0
 30 69  1  0  0  0  0
 30 72  1  0  0  0  0
 31 64  1  0  0  0  0
 31 67  2  0  0  0  0
 31 68  1  0  0  0  0
 32 73  1  0  0  0  0
 32 78  2  0  0  0  0
 33 47  1  0  0  0  0
 33 74  1  0  0  0  0
 33 79  2  0  0  0  0
 34 62  1  0  0  0  0
 34 70  1  0  0  0  0
 34 80  2  0  0  0  0
 35 63  1  0  0  0  0
 35 75  1  0  0  0  0
 35 81  2  0  0  0  0
 36 71  1  0  0  0  0
 36 76  1  0  0  0  0
 36 82  2  0  0  0  0
 37 40  1  0  0  0  0
 38 47  1  0  0  0  0
 39 70  1  0  0  0  0
 40 42  1  0  0  0  0
 41 43  1  0  0  0  0
 41 44  1  0  0  0  0
 42 46  1  0  0  0  0
 43 48  1  0  0  0  0
 44 71  1  0  0  0  0
 45 48  1  0  0  0  0
 45 71  1  0  0  0  0
 46 74  1  0  0  0  0
 47 70  1  0  0  0  0
 48 69  1  0  0  0  0
 50 63  1  0  0  0  0
 51 64  1  0  0  0  0
 52 64  1  0  0  0  0
 53 65  1  0  0  0  0
 54 65  1  0  0  0  0
 55 65  1  0  0  0  0
 56 77  1  0  0  0  0
 57 58  1  0  0  0  0
 58 61  1  0  0  0  0
 59 60  1  0  0  0  0
 59 64  1  0  0  0  0
 60 76  1  0  0  0  0
 61 84  1  0  0  0  0
 62 65  1  0  0  0  0
 62 75  1  0  0  0  0
 63 77  1  0  0  0  0
 66 69  1  0  0  0  0
M  CHG  1  77   1
M  ISO  4  36 100  61 101  76 100  84 101
M  END
> <Batch ID>
0049

> <Smiles>
CNC(C)C(=O)NC(C(=O)N1Cc2cc([101O:1][101CH2:1]CCc3cc(C)nc(C(C)(C)CC[100NH:0][100C:0](=O)N4CCCC(n5nc(-c6ccc(Oc7ccc(F)cc7F)cc6)c(C(N)=O)c5N)C4)n3)ccc2CC1C(=O)NC1CCCc2ccccc21)C(C)(C)C

> <Shape>
0.248

> <Color>
0.068

> <Negative vol penalty>
0.000

$$$$

  -OEChem-04052317293D

 86 94  0     1  0  0  0  0  0999 V2000
  -24.7064  -34.3368   24.7738 C   0  0  0  0  0  0  0  0  0  0  0  0
  -25.0348  -33.5770   23.6556 C   0  0  0  0  0  0  0  0  0  0  0  0
  -22.9247  -10.0991   19.9174 C   0  0  0  0  0  0  0  0  0  0  0  0
  -23.9446   -9.7038   22.0717 C   0  0  0  0  0  0  0  0  0  0  0  0
  -25.2872  -34.0464   26.0076 C   0  0  0  0  0  0  0  0  0  0  0  0
  -25.9452  -32.5270   23.7704 C   0  0  0  0  0  0  0  0  0  0  0  0
  -25.8505  -27.2214   20.7131 C   0  0  0  0  0  0  0  0  0  0  0  0
  -22.1660   -8.9379   20.0636 C   0  0  0  0  0  0  0  0  0  0  0  0
  -23.1858   -8.5426   22.2178 C   0  0  0  0  0  0  0  0  0  0  0  0
  -26.5345  -26.7784   19.5819 C   0  0  0  0  0  0  0  0  0  0  0  0
  -20.0179   -7.7298   23.0687 C   0  0  0  0  0  0  0  0  0  0  0  0
  -19.4006   -7.5115   24.3003 C   0  0  0  0  0  0  0  0  0  0  0  0
  -28.1798  -25.7246   20.9967 C   0  0  0  0  0  0  0  0  0  0  0  0
  -20.6345   -5.4499   24.5534 C   0  0  0  0  0  0  0  0  0  0  0  0
  -29.5892  -22.7264   18.0738 C   0  0  0  0  0  0  0  0  0  0  0  0
  -27.6487  -20.9046   17.8663 C   0  0  0  0  0  0  0  0  0  0  0  0
  -23.8141  -10.4821   20.9215 C   0  0  0  0  0  0  0  0  0  0  0  0
  -24.2479  -12.9830   21.1760 C   0  0  0  0  0  0  0  0  0  0  0  0
  -26.1978  -32.9863   26.1396 C   0  0  0  0  0  0  0  0  0  0  0  0
  -26.3329  -26.9282   21.9968 C   0  0  0  0  0  0  0  0  0  0  0  0
  -26.5398  -32.2231   25.0069 C   0  0  0  0  0  0  0  0  0  0  0  0
  -27.4987  -26.1629   22.1426 C   0  0  0  0  0  0  0  0  0  0  0  0
  -22.2965   -8.1596   21.2138 C   0  0  0  0  0  0  0  0  0  0  0  0
  -27.7009  -26.0323   19.7235 C   0  0  0  0  0  0  0  0  0  0  0  0
  -20.9435   -6.8080   22.5794 C   0  0  0  0  0  0  0  0  0  0  0  0
  -19.7089   -6.3716   25.0427 C   0  0  0  0  0  0  0  0  0  0  0  0
  -21.2518   -5.6681   23.3218 C   0  0  0  0  0  0  0  0  0  0  0  0
  -24.5986  -11.6812   20.7708 C   0  0  0  0  0  0  0  0  0  0  0  0
  -28.4608  -22.9721   17.3228 C   0  0  0  0  0  0  0  0  0  0  0  0
  -28.7774  -20.6585   18.6167 C   0  0  0  0  0  0  0  0  0  0  0  0
  -25.3218  -13.7574   20.8106 C   0  0  0  0  0  0  0  0  0  0  0  0
  -23.0578  -13.4505   21.8247 C   0  0  0  0  0  0  0  0  0  0  0  0
  -27.3506  -28.6598   24.4604 C   0  0  0  0  0  0  0  0  0  0  0  0
  -27.4407  -25.7784   25.9475 C   0  0  0  0  0  0  0  0  0  0  0  0
  -27.6713  -22.3842   25.6767 C   0  0  0  0  0  0  0  0  0  0  0  0
  -30.8291  -14.6035   20.4966 C   0  0  0  0  0  0  0  0  0  0  0  0
  -26.8357  -32.7403   27.4839 C   0  0  0  0  0  0  0  0  0  0  0  0
  -25.5689  -27.3907   23.2071 C   0  0  0  0  0  0  0  0  0  0  0  0
  -28.0471  -25.8039   23.4987 C   0  0  0  0  0  0  0  0  0  0  0  0
  -27.5065  -31.3739   27.5990 C   0  0  0  0  0  0  0  0  0  0  0  0
  -29.3215  -12.6800   17.9075 C   0  0  0  0  0  0  0  0  0  0  0  0
  -28.3616  -31.0936   26.3674 C   0  0  0  0  0  0  0  0  0  0  0  0
  -27.9326  -12.3511   18.4576 C   0  0  0  0  0  0  0  0  0  0  0  0
  -30.3801  -12.6750   19.0081 C   0  0  0  0  0  0  0  0  0  0  0  0
  -28.6849  -13.2069   20.7160 C   0  0  0  0  0  0  0  0  0  0  0  0
  -27.5043  -31.0604   25.0964 C   0  0  1  0  0  0  0  0  0  0  0  0
  -26.4311  -27.4714   24.4630 C   0  0  1  0  0  0  0  0  0  0  0  0
  -27.5743  -13.2549   19.6526 C   0  0  2  0  0  0  0  0  0  0  0  0
  -26.6498  -19.4554   21.2017 C   0  0  0  0  0  0  0  0  0  0  0  0
  -27.7565  -20.2982   27.0691 C   0  0  0  0  0  0  0  0  0  0  0  0
  -30.3425  -26.3831   26.6715 C   0  0  0  0  0  0  0  0  0  0  0  0
  -30.6449  -23.9537   27.1958 C   0  0  0  0  0  0  0  0  0  0  0  0
  -29.0118  -25.3154   28.5001 C   0  0  0  0  0  0  0  0  0  0  0  0
  -25.1924  -21.3272   24.4532 C   0  0  0  0  0  0  0  0  0  0  0  0
  -28.2944  -24.2848   16.5965 C   0  0  0  0  0  0  0  0  0  0  0  0
  -28.9413  -19.3640   19.3334 C   0  0  0  0  0  0  0  0  0  0  0  0
  -30.7889  -17.8158   21.3345 C   0  0  0  0  0  0  0  0  0  0  0  0
  -31.1301  -16.5141   22.0517 C   0  0  0  0  0  0  0  0  0  0  0  0
  -27.9167  -20.2528   21.4216 C   0  0  0  0  0  0  0  0  0  0  0  0
  -29.3244  -18.2003   21.5016 C   0  0  0  0  0  0  0  0  0  0  0  0
  -27.5960  -25.3362   17.4519 C   0  0  0  0  0  0  0  0  0  1  0  0
  -28.4751  -24.6909   26.1097 C   0  0  1  0  0  0  0  0  0  0  0  0
  -26.8627  -21.2660   26.3093 C   0  0  2  0  0  0  0  0  0  0  0  0
  -29.6096  -25.0940   27.0936 C   0  0  0  0  0  0  0  0  0  0  0  0
  -27.4702  -22.0658   17.2059 N   0  0  0  0  0  0  0  0  0  0  0  0
  -29.7679  -21.5650   18.7339 N   0  0  0  0  0  0  0  0  0  0  0  0
  -25.8012  -11.6277   20.1922 N   0  0  0  0  0  0  0  0  0  0  0  0
  -26.2155  -12.9056   20.2310 N   0  0  0  0  0  0  0  0  0  0  0  0
  -27.2678  -26.2846   24.6515 N   0  0  0  0  0  0  0  0  0  0  0  0
  -29.9805  -13.5528   20.1106 N   0  0  0  0  0  0  0  0  0  0  0  0
  -25.5793  -15.0770   20.9316 N   0  0  0  0  0  0  0  0  0  0  0  0
  -22.0536  -12.5212   22.1288 N   0  0  0  0  0  0  0  0  0  0  0  0
  -26.7931  -29.8037   24.9992 N   0  0  0  0  0  0  0  0  0  0  0  0
  -27.7460  -23.4887   26.4988 N   0  0  0  0  0  0  0  0  0  0  0  0
  -30.3720  -15.3916   21.5457 N   0  0  0  0  0  0  0  0  0  0  0  0
  -26.1266  -20.5027   25.2622 N   0  3  0  0  0  0  0  0  0  0  0  0
  -29.0794  -19.5158   20.8093 N   0  3  1  0  0  0  0  0  0  0  0  0
  -22.8828  -14.6592   22.1110 O   0  0  0  0  0  0  0  0  0  0  0  0
  -28.4825  -28.5469   24.0047 O   0  0  0  0  0  0  0  0  0  0  0  0
  -26.8043  -26.1595   26.9331 O   0  0  0  0  0  0  0  0  0  0  0  0
  -28.1883  -22.2863   24.5660 O   0  0  0  0  0  0  0  0  0  0  0  0
  -31.9114  -14.8263   19.9434 O   0  0  0  0  0  0  0  0  0  0  0  0
  -21.5561   -7.0265   21.3568 O   0  0  0  0  0  0  0  0  0  0  0  0
  -28.3708  -25.5992   18.6210 O   0  0  0  0  0  0  0  0  0  1  0  0
  -19.1172   -6.1630   26.2261 F   0  0  0  0  0  0  0  0  0  0  0  0
  -22.1411   -4.7796   22.8574 F   0  0  0  0  0  0  0  0  0  0  0  0
  1  2  1  0  0  0  0
  1  5  2  0  0  0  0
  2  6  2  0  0  0  0
  3  8  2  0  0  0  0
  3 17  1  0  0  0  0
  4  9  1  0  0  0  0
  4 17  2  0  0  0  0
  5 19  1  0  0  0  0
  6 21  1  0  0  0  0
  7 10  2  0  0  0  0
  7 20  1  0  0  0  0
  8 23  1  0  0  0  0
  9 23  2  0  0  0  0
 10 24  1  0  0  0  0
 11 12  2  0  0  0  0
 11 25  1  0  0  0  0
 12 26  1  0  0  0  0
 13 22  1  0  0  0  0
 13 24  2  0  0  0  0
 14 26  2  0  0  0  0
 14 27  1  0  0  0  0
 15 29  2  0  0  0  0
 15 66  1  0  0  0  0
 16 30  1  0  0  0  0
 16 65  2  0  0  0  0
 17 28  1  0  0  0  0
 18 28  1  0  0  0  0
 18 31  2  0  0  0  0
 18 32  1  0  0  0  0
 19 21  2  0  0  0  0
 19 37  1  0  0  0  0
 20 22  2  0  0  0  0
 20 38  1  0  0  0  0
 21 46  1  0  0  0  0
 22 39  1  0  0  0  0
 23 83  1  0  0  0  0
 24 84  1  0  0  0  0
 25 27  2  0  0  0  0
 25 83  1  0  0  0  0
 26 85  1  0  0  0  0
 27 86  1  0  0  0  0
 28 67  2  0  0  0  0
 29 55  1  0  0  0  0
 29 65  1  0  0  0  0
 30 56  1  0  0  0  0
 30 66  2  0  0  0  0
 31 68  1  0  0  0  0
 31 71  1  0  0  0  0
 32 72  1  0  0  0  0
 32 78  2  0  0  0  0
 33 47  1  0  0  0  0
 33 73  1  0  0  0  0
 33 79  2  0  0  0  0
 34 62  1  0  0  0  0
 34 69  1  0  0  0  0
 34 80  2  0  0  0  0
 35 63  1  0  0  0  0
 35 74  1  0  0  0  0
 35 81  2  0  0  0  0
 36 70  1  0  0  0  0
 36 75  1  0  0  0  0
 36 82  2  0  0  0  0
 37 40  1  0  0  0  0
 38 47  1  0  0  0  0
 39 69  1  0  0  0  0
 40 42  1  0  0  0  0
 41 43  1  0  0  0  0
 41 44  1  0  0  0  0
 42 46  1  0  0  0  0
 43 48  1  0  0  0  0
 44 70  1  0  0  0  0
 45 48  1  0  0  0  0
 45 70  1  0  0  0  0
 46 73  1  0  0  0  0
 47 69  1  0  0  0  0
 48 68  1  0  0  0  0
 49 59  1  0  0  0  0
 50 63  1  0  0  0  0
 51 64  1  0  0  0  0
 52 64  1  0  0  0  0
 53 64  1  0  0  0  0
 54 76  1  0  0  0  0
 55 61  1  0  0  0  0
 56 77  1  0  0  0  0
 57 58  1  0  0  0  0
 57 60  1  0  0  0  0
 58 75  1  0  0  0  0
 59 77  1  0  0  0  0
 60 77  1  0  0  0  0
 61 84  1  0  0  0  0
 62 64  1  0  0  0  0
 62 74  1  0  0  0  0
 63 76  1  0  0  0  0
 67 68  1  0  0  0  0
M  CHG  2  76   1  77   1
M  ISO  4  36 100  61 101  75 100  84 101
M  END
> <Batch ID>
0049

> <Smiles>
CCN(CCC[100NH:0][100C:0](=O)N1CCCC(n2nc(-c3ccc(Oc4ccc(F)cc4F)cc3)c(C(N)=O)c2N)C1)Cc1cnc(C[101CH2:1][101O:1]c2ccc3c(c2)CN(C(=O)C(NC(=O)C(C)NC)C(C)(C)C)C(C(=O)NC2CCCc4ccccc42)C3)cn1

> <Shape>
0.312

> <Color>
0.166

> <Negative vol penalty>
0.000

$$$$

  -OEChem-04052317293D

 83 91  0     1  0  0  0  0  0999 V2000
  -28.6236  -32.2856   24.1147 C   0  0  0  0  0  0  0  0  0  0  0  0
  -28.3683  -30.9422   24.3706 C   0  0  0  0  0  0  0  0  0  0  0  0
  -22.9693  -10.0473   19.9125 C   0  0  0  0  0  0  0  0  0  0  0  0
  -23.8324   -9.8592   22.1612 C   0  0  0  0  0  0  0  0  0  0  0  0
  -28.6330  -32.7545   22.8017 C   0  0  0  0  0  0  0  0  0  0  0  0
  -28.1213  -30.0670   23.3135 C   0  0  0  0  0  0  0  0  0  0  0  0
  -30.6306  -25.6937   23.7855 C   0  0  0  0  0  0  0  0  0  0  0  0
  -22.1810   -8.9155   20.1204 C   0  0  0  0  0  0  0  0  0  0  0  0
  -23.0440   -8.7275   22.3692 C   0  0  0  0  0  0  0  0  0  0  0  0
  -30.1111  -24.7543   24.6751 C   0  0  0  0  0  0  0  0  0  0  0  0
  -19.8109   -8.0412   23.0739 C   0  0  0  0  0  0  0  0  0  0  0  0
  -19.1071   -7.9553   24.2751 C   0  0  0  0  0  0  0  0  0  0  0  0
  -29.1214  -23.5605   22.8273 C   0  0  0  0  0  0  0  0  0  0  0  0
  -30.2922  -18.4277   23.3738 C   0  0  0  0  0  0  0  0  0  0  0  0
  -20.2826   -5.9155   24.8179 C   0  0  0  0  0  0  0  0  0  0  0  0
  -28.7086  -19.5142   22.1985 C   0  0  0  0  0  0  0  0  0  0  0  0
  -23.7951  -10.5191   20.9329 C   0  0  0  0  0  0  0  0  0  0  0  0
  -24.2567  -13.0278   20.9665 C   0  0  0  0  0  0  0  0  0  0  0  0
  -28.3956  -31.8826   21.7274 C   0  0  0  0  0  0  0  0  0  0  0  0
  -30.3899  -25.5793   22.4087 C   0  0  0  0  0  0  0  0  0  0  0  0
  -28.1263  -30.5249   21.9850 C   0  0  0  0  0  0  0  0  0  0  0  0
  -29.6412  -24.4983   21.9220 C   0  0  0  0  0  0  0  0  0  0  0  0
  -22.2183   -8.2556   21.3487 C   0  0  0  0  0  0  0  0  0  0  0  0
  -29.3540  -23.6891   24.1964 C   0  0  0  0  0  0  0  0  0  0  0  0
  -20.7505   -7.0642   22.7446 C   0  0  0  0  0  0  0  0  0  0  0  0
  -29.3264  -19.4627   23.4285 C   0  0  0  0  0  0  0  0  0  0  0  0
  -19.3430   -6.8924   25.1471 C   0  0  0  0  0  0  0  0  0  0  0  0
  -20.9864   -6.0014   23.6166 C   0  0  0  0  0  0  0  0  0  0  0  0
  -24.6101  -11.6879   20.7186 C   0  0  0  0  0  0  0  0  0  0  0  0
  -30.2353  -17.8783   22.1119 C   0  0  0  0  0  0  0  0  0  0  0  0
  -25.3672  -13.7489   20.6014 C   0  0  0  0  0  0  0  0  0  0  0  0
  -23.0340  -13.5720   21.4808 C   0  0  0  0  0  0  0  0  0  0  0  0
  -28.9227  -27.3714   20.2316 C   0  0  0  0  0  0  0  0  0  0  0  0
  -30.9197  -14.4214   20.6805 C   0  0  0  0  0  0  0  0  0  0  0  0
  -30.0922  -25.1477   18.1799 C   0  0  0  0  0  0  0  0  0  0  0  0
  -31.2267  -21.9658   17.6946 C   0  0  0  0  0  0  0  0  0  0  0  0
  -28.3693  -32.4450   20.3282 C   0  0  0  0  0  0  0  0  0  0  0  0
  -30.9797  -26.5861   21.4596 C   0  0  0  0  0  0  0  0  0  0  0  0
  -29.3711  -24.3190   20.4512 C   0  0  0  0  0  0  0  0  0  0  0  0
  -28.4686  -31.3781   19.2410 C   0  0  0  0  0  0  0  0  0  0  0  0
  -29.5292  -12.3606   18.0999 C   0  0  0  0  0  0  0  0  0  0  0  0
  -27.5183  -30.2226   19.5386 C   0  0  0  0  0  0  0  0  0  0  0  0
  -28.1066  -12.0872   18.5863 C   0  0  0  0  0  0  0  0  0  0  0  0
  -30.5125  -12.4362   19.2638 C   0  0  0  0  0  0  0  0  0  0  0  0
  -28.7140  -13.1598   20.8012 C   0  0  0  0  0  0  0  0  0  0  0  0
  -27.8783  -29.5395   20.8635 C   0  0  1  0  0  0  0  0  0  0  0  0
  -30.2400  -26.6562   20.1272 C   0  0  1  0  0  0  0  0  0  0  0  0
  -27.6838  -13.1063   19.6592 C   0  0  2  0  0  0  0  0  0  0  0  0
  -30.6824  -14.8010   23.1001 C   0  0  0  0  0  0  0  0  0  0  0  0
  -32.0753  -20.4290   15.9014 C   0  0  0  0  0  0  0  0  0  0  0  0
  -27.2447  -24.7866   17.1451 C   0  0  0  0  0  0  0  0  0  0  0  0
  -27.9771  -22.6410   16.0829 C   0  0  0  0  0  0  0  0  0  0  0  0
  -29.0061  -24.7986   15.3698 C   0  0  0  0  0  0  0  0  0  0  0  0
  -28.8873  -18.2850   20.0359 C   0  0  0  0  0  0  0  0  0  0  0  0
  -33.8374  -21.6379   19.0494 C   0  0  0  0  0  0  0  0  0  0  0  0
  -31.0200  -16.7740   21.5227 C   0  0  0  0  0  0  0  0  0  0  0  0
  -29.3513  -21.1004   26.7282 C   0  0  0  0  0  0  0  0  0  0  0  0
  -29.5837  -22.5281   26.2592 C   0  0  0  0  0  0  0  0  0  1  0  0
  -29.7729  -20.0818   25.6809 C   0  0  0  0  0  0  0  0  0  0  0  0
  -30.3858  -15.3756   21.7190 C   0  0  1  0  0  0  0  0  0  0  0  0
  -29.5940  -23.8326   17.6310 C   0  0  1  0  0  0  0  0  0  0  0  0
  -32.4548  -21.4324   16.9794 C   0  0  2  0  0  0  0  0  0  0  0  0
  -28.4587  -24.0189   16.5852 C   0  0  0  0  0  0  0  0  0  0  0  0
  -25.8482  -11.5624   20.2334 N   0  0  0  0  0  0  0  0  0  0  0  0
  -29.2694  -18.5468   21.4062 N   0  0  0  0  0  0  0  0  0  0  0  0
  -26.2824  -12.8328   20.1734 N   0  0  0  0  0  0  0  0  0  0  0  0
  -29.9640  -25.3331   19.5637 N   0  0  0  0  0  0  0  0  0  0  0  0
  -30.0639  -13.3985   20.2717 N   0  0  0  0  0  0  0  0  0  0  0  0
  -25.6402  -15.0710   20.6080 N   0  0  0  0  0  0  0  0  0  0  0  0
  -21.9944  -12.6897   21.8053 N   0  0  0  0  0  0  0  0  0  0  0  0
  -29.0230  -28.6712   20.6897 N   0  0  0  0  0  0  0  0  0  0  0  0
  -30.7678  -23.1324   17.1205 N   0  0  0  0  0  0  0  0  0  0  0  0
  -33.3667  -20.7598   17.9474 N   0  3  0  0  0  0  0  0  0  0  0  0
  -22.8623  -14.8053   21.6323 O   0  0  0  0  0  0  0  0  0  0  0  0
  -27.8918  -26.7877   19.9183 O   0  0  0  0  0  0  0  0  0  0  0  0
  -32.0625  -14.5838   20.2446 O   0  0  0  0  0  0  0  0  0  0  0  0
  -30.5838  -25.9769   17.4102 O   0  0  0  0  0  0  0  0  0  0  0  0
  -30.7225  -21.4018   18.6633 O   0  0  0  0  0  0  0  0  0  0  0  0
  -21.4490   -7.1514   21.5520 O   0  0  0  0  0  0  0  0  0  0  0  0
  -28.8452  -22.7712   25.0626 O   0  0  0  0  0  0  0  0  0  1  0  0
  -29.0297  -20.2823   24.4863 O   0  0  0  0  0  0  0  0  0  0  0  0
  -18.6682   -6.8109   26.3013 F   0  0  0  0  0  0  0  0  0  0  0  0
  -21.8887   -5.0604   23.3063 F   0  0  0  0  0  0  0  0  0  0  0  0
  1  2  1  0  0  0  0
  1  5  2  0  0  0  0
  2  6  2  0  0  0  0
  3  8  2  0  0  0  0
  3 17  1  0  0  0  0
  4  9  1  0  0  0  0
  4 17  2  0  0  0  0
  5 19  1  0  0  0  0
  6 21  1  0  0  0  0
  7 10  2  0  0  0  0
  7 20  1  0  0  0  0
  8 23  1  0  0  0  0
  9 23  2  0  0  0  0
 10 24  1  0  0  0  0
 11 12  2  0  0  0  0
 11 25  1  0  0  0  0
 12 27  1  0  0  0  0
 13 22  1  0  0  0  0
 13 24  2  0  0  0  0
 14 26  1  0  0  0  0
 14 30  2  0  0  0  0
 15 27  2  0  0  0  0
 15 28  1  0  0  0  0
 16 26  2  0  0  0  0
 16 65  1  0  0  0  0
 17 29  1  0  0  0  0
 18 29  1  0  0  0  0
 18 31  2  0  0  0  0
 18 32  1  0  0  0  0
 19 21  2  0  0  0  0
 19 37  1  0  0  0  0
 20 22  2  0  0  0  0
 20 38  1  0  0  0  0
 21 46  1  0  0  0  0
 22 39  1  0  0  0  0
 23 79  1  0  0  0  0
 24 80  1  0  0  0  0
 25 28  2  0  0  0  0
 25 79  1  0  0  0  0
 26 81  1  0  0  0  0
 27 82  1  0  0  0  0
 28 83  1  0  0  0  0
 29 64  2  0  0  0  0
 30 56  1  0  0  0  0
 30 65  1  0  0  0  0
 31 66  1  0  0  0  0
 31 69  1  0  0  0  0
 32 70  1  0  0  0  0
 32 74  2  0  0  0  0
 33 47  1  0  0  0  0
 33 71  1  0  0  0  0
 33 75  2  0  0  0  0
 34 60  1  0  0  0  0
 34 68  1  0  0  0  0
 34 76  2  0  0  0  0
 35 61  1  0  0  0  0
 35 67  1  0  0  0  0
 35 77  2  0  0  0  0
 36 62  1  0  0  0  0
 36 72  1  0  0  0  0
 36 78  2  0  0  0  0
 37 40  1  0  0  0  0
 38 47  1  0  0  0  0
 39 67  1  0  0  0  0
 40 42  1  0  0  0  0
 41 43  1  0  0  0  0
 41 44  1  0  0  0  0
 42 46  1  0  0  0  0
 43 48  1  0  0  0  0
 44 68  1  0  0  0  0
 45 48  1  0  0  0  0
 45 68  1  0  0  0  0
 46 71  1  0  0  0  0
 47 67  1  0  0  0  0
 48 66  1  0  0  0  0
 49 60  1  0  0  0  0
 50 62  1  0  0  0  0
 51 63  1  0  0  0  0
 52 63  1  0  0  0  0
 53 63  1  0  0  0  0
 54 65  1  0  0  0  0
 55 73  1  0  0  0  0
 56 60  1  0  0  0  0
 57 58  1  0  0  0  0
 57 59  1  0  0  0  0
 58 80  1  0  0  0  0
 59 81  1  0  0  0  0
 61 63  1  0  0  0  0
 61 72  1  0  0  0  0
 62 73  1  0  0  0  0
 64 66  1  0  0  0  0
M  CHG  1  73   1
M  ISO  4  34 100  58 101  60 100  80 101
M  END
> <Batch ID>
0049

> <Smiles>
CNC(C)C(=O)NC(C(=O)N1Cc2cc([101O:1][101CH2:1]CCOc3cc(C[100CH:0](C)[100C:0](=O)N4CCCC(n5nc(-c6ccc(Oc7ccc(F)cc7F)cc6)c(C(N)=O)c5N)C4)n(C)c3)ccc2CC1C(=O)NC1CCCc2ccccc21)C(C)(C)C

> <Shape>
0.296

> <Color>
0.206

> <Negative vol penalty>
0.000

$$$$

  -OEChem-04052317293D

 88 96  0     1  0  0  0  0  0999 V2000
  -18.8629  -33.0659   24.8185 C   0  0  0  0  0  0  0  0  0  0  0  0
  -20.0916  -33.2039   24.1807 C   0  0  0  0  0  0  0  0  0  0  0  0
  -25.1337  -13.3720   19.4139 C   0  0  0  0  0  0  0  0  0  0  0  0
  -24.9470  -14.5215   21.5307 C   0  0  0  0  0  0  0  0  0  0  0  0
  -18.4610  -31.8177   25.2923 C   0  0  0  0  0  0  0  0  0  0  0  0
  -20.9196  -32.0939   24.0173 C   0  0  0  0  0  0  0  0  0  0  0  0
  -25.7228  -29.3322   19.4766 C   0  0  0  0  0  0  0  0  0  0  0  0
  -25.0607  -12.1452   20.0737 C   0  0  0  0  0  0  0  0  0  0  0  0
  -24.8739  -13.2947   22.1905 C   0  0  0  0  0  0  0  0  0  0  0  0
  -27.0198  -28.8209   19.4603 C   0  0  0  0  0  0  0  0  0  0  0  0
  -22.6632  -10.1885   21.4362 C   0  0  0  0  0  0  0  0  0  0  0  0
  -21.8257   -9.2117   20.8978 C   0  0  0  0  0  0  0  0  0  0  0  0
  -26.1867  -26.6988   20.2487 C   0  0  0  0  0  0  0  0  0  0  0  0
  -23.7197   -7.7362   20.6280 C   0  0  0  0  0  0  0  0  0  0  0  0
  -27.1263  -22.7815   15.6507 C   0  0  0  0  0  0  0  0  0  0  0  0
  -25.0769  -14.5601   20.1425 C   0  0  0  0  0  0  0  0  0  0  0  0
  -24.0806  -16.5863   18.9552 C   0  0  0  0  0  0  0  0  0  0  0  0
  -19.2803  -30.6900   25.1260 C   0  0  0  0  0  0  0  0  0  0  0  0
  -24.6477  -28.5325   19.8902 C   0  0  0  0  0  0  0  0  0  0  0  0
  -20.5289  -30.8297   24.4904 C   0  0  0  0  0  0  0  0  0  0  0  0
  -24.8767  -27.2015   20.2669 C   0  0  0  0  0  0  0  0  0  0  0  0
  -24.9308  -12.1066   21.4619 C   0  0  0  0  0  0  0  0  0  0  0  0
  -27.2523  -27.5049   19.8491 C   0  0  0  0  0  0  0  0  0  0  0  0
  -24.0291   -9.9392   21.5705 C   0  0  0  0  0  0  0  0  0  0  0  0
  -22.3539   -7.9856   20.4937 C   0  0  0  0  0  0  0  0  0  0  0  0
  -24.5573   -8.7131   21.1665 C   0  0  0  0  0  0  0  0  0  0  0  0
  -25.1529  -15.8277   19.4616 C   0  0  0  0  0  0  0  0  0  0  0  0
  -28.9701  -23.4923   14.8596 C   0  0  0  0  0  0  0  0  0  0  0  0
  -28.6789  -24.3228   15.9160 C   0  0  0  0  0  0  0  0  0  0  0  0
  -24.6744  -17.6962   18.4058 C   0  0  0  0  0  0  0  0  0  0  0  0
  -22.6735  -16.3122   18.9795 C   0  0  0  0  0  0  0  0  0  0  0  0
  -22.5285  -28.6715   22.2552 C   0  0  0  0  0  0  0  0  0  0  0  0
  -21.2376  -26.1182   20.7266 C   0  0  0  0  0  0  0  0  0  0  0  0
  -21.6861  -23.4743   18.6158 C   0  0  0  0  0  0  0  0  0  0  0  0
  -29.7766  -20.4202   19.5906 C   0  0  0  0  0  0  0  0  0  0  0  0
  -18.8240  -29.3707   25.6969 C   0  0  0  0  0  0  0  0  0  0  0  0
  -23.2511  -29.0908   19.8766 C   0  0  0  0  0  0  0  0  0  0  0  0
  -23.7541  -26.2955   20.6999 C   0  0  0  0  0  0  0  0  0  0  0  0
  -19.5948  -28.1715   25.1509 C   0  0  0  0  0  0  0  0  0  0  0  0
  -28.7573  -19.1353   16.3645 C   0  0  0  0  0  0  0  0  0  0  0  0
  -21.0947  -28.4489   25.1667 C   0  0  0  0  0  0  0  0  0  0  0  0
  -27.6061  -18.2074   16.7567 C   0  0  0  0  0  0  0  0  0  0  0  0
  -29.8800  -19.0900   17.3969 C   0  0  0  0  0  0  0  0  0  0  0  0
  -28.2987  -18.4727   19.1835 C   0  0  0  0  0  0  0  0  0  0  0  0
  -21.4441  -29.6444   24.2722 C   0  0  1  0  0  0  0  0  0  0  0  0
  -22.3000  -28.3440   20.8067 C   0  0  1  0  0  0  0  0  0  0  0  0
  -27.1219  -18.4904   18.1911 C   0  0  2  0  0  0  0  0  0  0  0  0
  -20.4556  -21.5447   17.5864 C   0  0  0  0  0  0  0  0  0  0  0  0
  -21.3723  -24.6193   23.3809 C   0  0  0  0  0  0  0  0  0  0  0  0
  -21.0472  -22.4854   22.1126 C   0  0  0  0  0  0  0  0  0  0  0  0
  -19.2743  -24.2397   22.0738 C   0  0  0  0  0  0  0  0  0  0  0  0
  -26.7561  -24.3832   17.5351 C   0  0  0  0  0  0  0  0  0  0  0  0
  -22.1687  -24.4789   15.8741 C   0  0  0  0  0  0  0  0  0  0  0  0
  -29.4067  -25.5010   16.4930 C   0  0  0  0  0  0  0  0  0  0  0  0
  -30.5654  -23.6447   19.5930 C   0  0  0  0  0  0  0  0  0  0  0  0
  -31.3193  -22.3455   19.8555 C   0  0  0  0  0  0  0  0  0  0  0  0
  -30.5990  -24.0447   18.1234 C   0  0  0  0  0  0  0  0  0  0  0  0
  -30.4633  -26.5001   18.5148 C   0  0  0  0  0  0  0  0  0  0  0  0
  -29.4176  -27.5399   18.8661 C   0  0  0  0  0  0  0  0  0  1  0  0
  -21.4242  -24.6219   20.7996 C   0  0  1  0  0  0  0  0  0  0  0  0
  -20.8854  -22.9938   17.4189 C   0  0  2  0  0  0  0  0  0  0  0  0
  -30.1322  -23.5312   13.9577 C   0  0  0  0  0  0  0  0  0  0  0  0
  -20.8011  -24.0090   22.0855 C   0  0  0  0  0  0  0  0  0  0  0  0
  -27.9996  -22.5352   14.6995 N   0  0  0  0  0  0  0  0  0  0  0  0
  -26.3382  -16.4067   19.2523 N   0  0  0  0  0  0  0  0  0  0  0  0
  -27.4947  -23.8554   16.4125 N   0  0  0  0  0  0  0  0  0  0  0  0
  -26.0142  -17.5409   18.6082 N   0  0  0  0  0  0  0  0  0  0  0  0
  -22.4073  -26.8895   20.6756 N   0  0  0  0  0  0  0  0  0  0  0  0
  -29.3559  -19.3863   18.7376 N   0  0  0  0  0  0  0  0  0  0  0  0
  -24.1761  -18.7802   17.7740 N   0  0  0  0  0  0  0  0  0  0  0  0
  -22.2340  -15.1265   19.5838 N   0  0  0  0  0  0  0  0  0  0  0  0
  -21.4406  -29.2515   22.8793 N   0  0  0  0  0  0  0  0  0  0  0  0
  -20.8825  -24.0819   19.5572 N   0  0  0  0  0  0  0  0  0  0  0  0
  -30.7865  -21.2364   19.0960 N   0  0  0  0  0  0  0  0  0  0  0  0
  -21.6984  -23.1021   16.1746 N   0  3  0  0  0  0  0  0  0  0  0  0
  -29.7936  -25.3070   17.9383 N   0  3  1  0  0  0  0  0  0  0  0  0
  -21.8321  -17.0877   18.4655 O   0  0  0  0  0  0  0  0  0  0  0  0
  -23.6112  -28.4154   22.7690 O   0  0  0  0  0  0  0  0  0  0  0  0
  -20.0959  -26.5850   20.7081 O   0  0  0  0  0  0  0  0  0  0  0  0
  -22.9022  -23.3223   18.7082 O   0  0  0  0  0  0  0  0  0  0  0  0
  -29.2845  -20.6058   20.7089 O   0  0  0  0  0  0  0  0  0  0  0  0
  -24.8592  -10.9096   22.1060 O   0  0  0  0  0  0  0  0  0  0  0  0
  -28.5173  -27.0036   19.8348 O   0  0  0  0  0  0  0  0  0  1  0  0
  -21.5492   -7.0471   19.9780 F   0  0  0  0  0  0  0  0  0  0  0  0
  -25.8685   -8.4673   21.2942 F   0  0  0  0  0  0  0  0  0  0  0  0
  -31.0271  -24.5381   14.2286 F   0  0  0  0  0  0  0  0  0  0  0  0
  -30.8958  -22.3890   13.9678 F   0  0  0  0  0  0  0  0  0  0  0  0
  -29.7934  -23.7119   12.6398 F   0  0  0  0  0  0  0  0  0  0  0  0
  1  2  1  0  0  0  0
  1  5  2  0  0  0  0
  2  6  2  0  0  0  0
  3  8  2  0  0  0  0
  3 16  1  0  0  0  0
  4  9  1  0  0  0  0
  4 16  2  0  0  0  0
  5 18  1  0  0  0  0
  6 20  1  0  0  0  0
  7 10  2  0  0  0  0
  7 19  1  0  0  0  0
  8 22  1  0  0  0  0
  9 22  2  0  0  0  0
 10 23  1  0  0  0  0
 11 12  2  0  0  0  0
 11 24  1  0  0  0  0
 12 25  1  0  0  0  0
 13 21  1  0  0  0  0
 13 23  2  0  0  0  0
 14 25  2  0  0  0  0
 14 26  1  0  0  0  0
 15 64  2  0  0  0  0
 15 66  1  0  0  0  0
 16 27  1  0  0  0  0
 17 27  1  0  0  0  0
 17 30  2  0  0  0  0
 17 31  1  0  0  0  0
 18 20  2  0  0  0  0
 18 36  1  0  0  0  0
 19 21  2  0  0  0  0
 19 37  1  0  0  0  0
 20 45  1  0  0  0  0
 21 38  1  0  0  0  0
 22 82  1  0  0  0  0
 23 83  1  0  0  0  0
 24 26  2  0  0  0  0
 24 82  1  0  0  0  0
 25 84  1  0  0  0  0
 26 85  1  0  0  0  0
 27 65  2  0  0  0  0
 28 29  2  0  0  0  0
 28 62  1  0  0  0  0
 28 64  1  0  0  0  0
 29 54  1  0  0  0  0
 29 66  1  0  0  0  0
 30 67  1  0  0  0  0
 30 70  1  0  0  0  0
 31 71  1  0  0  0  0
 31 77  2  0  0  0  0
 32 46  1  0  0  0  0
 32 72  1  0  0  0  0
 32 78  2  0  0  0  0
 33 60  1  0  0  0  0
 33 68  1  0  0  0  0
 33 79  2  0  0  0  0
 34 61  1  0  0  0  0
 34 73  1  0  0  0  0
 34 80  2  0  0  0  0
 35 69  1  0  0  0  0
 35 74  1  0  0  0  0
 35 81  2  0  0  0  0
 36 39  1  0  0  0  0
 37 46  1  0  0  0  0
 38 68  1  0  0  0  0
 39 41  1  0  0  0  0
 40 42  1  0  0  0  0
 40 43  1  0  0  0  0
 41 45  1  0  0  0  0
 42 47  1  0  0  0  0
 43 69  1  0  0  0  0
 44 47  1  0  0  0  0
 44 69  1  0  0  0  0
 45 72  1  0  0  0  0
 46 68  1  0  0  0  0
 47 67  1  0  0  0  0
 48 61  1  0  0  0  0
 49 63  1  0  0  0  0
 50 63  1  0  0  0  0
 51 63  1  0  0  0  0
 52 66  1  0  0  0  0
 53 75  1  0  0  0  0
 54 76  1  0  0  0  0
 55 56  1  0  0  0  0
 55 57  1  0  0  0  0
 56 74  1  0  0  0  0
 57 76  1  0  0  0  0
 58 59  1  0  0  0  0
 58 76  1  0  0  0  0
 59 83  1  0  0  0  0
 60 63  1  0  0  0  0
 60 73  1  0  0  0  0
 61 75  1  0  0  0  0
 62 86  1  0  0  0  0
 62 87  1  0  0  0  0
 62 88  1  0  0  0  0
 65 67  1  0  0  0  0
M  CHG  2  75   1  76   1
M  ISO  4  35 100  59 101  74 100  83 101
M  END
> <Batch ID>
0049

> <Smiles>
CNC(C)C(=O)NC(C(=O)N1Cc2cc([101O:1][101CH2:1]CN(CCC[100NH:0][100C:0](=O)N3CCCC(n4nc(-c5ccc(Oc6ccc(F)cc6F)cc5)c(C(N)=O)c4N)C3)Cc3c(C(F)(F)F)ncn3C)ccc2CC1C(=O)NC1CCCc2ccccc21)C(C)(C)C

> <Shape>
0.210

> <Color>
0.099

> <Negative vol penalty>
0.000

$$$$

  -OEChem-04052317293D

 85 93  0     1  0  0  0  0  0999 V2000
  -27.1721  -29.8162   31.1594 C   0  0  0  0  0  0  0  0  0  0  0  0
  -26.5043  -28.6518   30.7937 C   0  0  0  0  0  0  0  0  0  0  0  0
  -23.0885   -9.8502   19.9697 C   0  0  0  0  0  0  0  0  0  0  0  0
  -23.8351   -9.9063   22.2667 C   0  0  0  0  0  0  0  0  0  0  0  0
  -27.7271  -30.6373   30.1788 C   0  0  0  0  0  0  0  0  0  0  0  0
  -26.3903  -28.3084   29.4470 C   0  0  0  0  0  0  0  0  0  0  0  0
  -26.1216  -22.5842   25.1485 C   0  0  0  0  0  0  0  0  0  0  0  0
  -22.3479   -8.6992   20.2385 C   0  0  0  0  0  0  0  0  0  0  0  0
  -23.0944   -8.7554   22.5356 C   0  0  0  0  0  0  0  0  0  0  0  0
  -25.3388  -22.0348   24.1340 C   0  0  0  0  0  0  0  0  0  0  0  0
  -19.3945   -7.9197   21.6888 C   0  0  0  0  0  0  0  0  0  0  0  0
  -18.0907   -7.8583   21.1971 C   0  0  0  0  0  0  0  0  0  0  0  0
  -26.4058  -23.4886   22.5317 C   0  0  0  0  0  0  0  0  0  0  0  0
  -18.6658   -5.8914   19.9174 C   0  0  0  0  0  0  0  0  0  0  0  0
  -27.1371  -19.1642   21.7146 C   0  0  0  0  0  0  0  0  0  0  0  0
  -23.8322  -10.4537   20.9838 C   0  0  0  0  0  0  0  0  0  0  0  0
  -24.1645  -12.9773   20.8150 C   0  0  0  0  0  0  0  0  0  0  0  0
  -27.6282  -30.2989   28.8200 C   0  0  0  0  0  0  0  0  0  0  0  0
  -27.0462  -23.5992   24.8636 C   0  0  0  0  0  0  0  0  0  0  0  0
  -26.9433  -29.1265   28.4472 C   0  0  0  0  0  0  0  0  0  0  0  0
  -27.2009  -24.0474   23.5440 C   0  0  0  0  0  0  0  0  0  0  0  0
  -26.4380  -19.0401   20.5313 C   0  0  0  0  0  0  0  0  0  0  0  0
  -22.3508   -8.1518   21.5215 C   0  0  0  0  0  0  0  0  0  0  0  0
  -25.4787  -22.4891   22.8259 C   0  0  0  0  0  0  0  0  0  0  0  0
  -20.3341   -6.9670   21.2947 C   0  0  0  0  0  0  0  0  0  0  0  0
  -17.7263   -6.8442   20.3115 C   0  0  0  0  0  0  0  0  0  0  0  0
  -19.9697   -5.9528   20.4090 C   0  0  0  0  0  0  0  0  0  0  0  0
  -24.5979  -11.6423   20.7065 C   0  0  0  0  0  0  0  0  0  0  0  0
  -27.1661  -18.5801   19.4531 C   0  0  0  0  0  0  0  0  0  0  0  0
  -25.2557  -13.7239   20.4429 C   0  0  0  0  0  0  0  0  0  0  0  0
  -29.0449  -18.4263   20.7232 C   0  0  0  0  0  0  0  0  0  0  0  0
  -22.8896  -13.4962   21.2162 C   0  0  0  0  0  0  0  0  0  0  0  0
  -27.4036  -26.6260   25.7661 C   0  0  0  0  0  0  0  0  0  0  0  0
  -30.1741  -26.3893   24.0956 C   0  0  0  0  0  0  0  0  0  0  0  0
  -31.9474  -24.8299   21.6318 C   0  0  0  0  0  0  0  0  0  0  0  0
  -30.7342  -14.7692   20.6419 C   0  0  0  0  0  0  0  0  0  0  0  0
  -28.2031  -31.2422   27.7932 C   0  0  0  0  0  0  0  0  0  0  0  0
  -27.9021  -24.1627   25.9647 C   0  0  0  0  0  0  0  0  0  0  0  0
  -28.1937  -25.1207   23.1822 C   0  0  0  0  0  0  0  0  0  0  0  0
  -28.3633  -30.6141   26.4111 C   0  0  0  0  0  0  0  0  0  0  0  0
  -29.6199  -12.3326   18.2971 C   0  0  0  0  0  0  0  0  0  0  0  0
  -27.0994  -29.8548   26.0201 C   0  0  0  0  0  0  0  0  0  0  0  0
  -28.1812  -12.0416   18.7277 C   0  0  0  0  0  0  0  0  0  0  0  0
  -30.5292  -12.5813   19.4985 C   0  0  0  0  0  0  0  0  0  0  0  0
  -28.6166  -13.3321   20.8593 C   0  0  0  0  0  0  0  0  0  0  0  0
  -26.8202  -28.7074   26.9983 C   0  0  1  0  0  0  0  0  0  0  0  0
  -28.4471  -25.5516   25.6465 C   0  0  1  0  0  0  0  0  0  0  0  0
  -27.6500  -13.1299   19.6799 C   0  0  2  0  0  0  0  0  0  0  0  0
  -27.3779  -17.6019   17.1542 C   0  0  0  0  0  0  0  0  0  0  0  0
  -31.3501  -19.3151   21.1922 C   0  0  0  0  0  0  0  0  0  0  0  0
  -33.9193  -24.2533   20.1908 C   0  0  0  0  0  0  0  0  0  0  0  0
  -29.3027  -28.8664   22.5416 C   0  0  0  0  0  0  0  0  0  0  0  0
  -31.0370  -28.3128   20.8229 C   0  0  0  0  0  0  0  0  0  0  0  0
  -31.7241  -28.8246   23.1656 C   0  0  0  0  0  0  0  0  0  0  0  0
  -32.8778  -22.7602   23.5317 C   0  0  0  0  0  0  0  0  0  0  0  0
  -24.9740  -19.3917   20.4489 C   0  0  0  0  0  0  0  0  0  0  0  0
  -26.5139  -18.4059   18.1212 C   0  0  0  0  0  0  0  0  0  0  0  0
  -24.7005  -20.7347   19.7683 C   0  0  0  0  0  0  0  0  0  0  0  0
  -30.7842  -16.9444   21.8356 C   0  0  0  0  0  0  0  0  0  0  0  0
  -25.2812  -21.9241   20.5242 C   0  0  0  0  0  0  0  0  0  1  0  0
  -30.4927  -18.0845   20.8298 C   0  0  1  0  0  0  0  0  0  0  0  0
  -30.5813  -26.6266   22.6614 C   0  0  1  0  0  0  0  0  0  0  0  0
  -33.3600  -24.2745   21.6048 C   0  0  2  0  0  0  0  0  0  0  0  0
  -30.6411  -28.1387   22.3047 C   0  0  0  0  0  0  0  0  0  0  0  0
  -28.4461  -18.8651   21.8467 N   0  0  0  0  0  0  0  0  0  0  0  0
  -25.8656  -11.5434   20.2974 N   0  0  0  0  0  0  0  0  0  0  0  0
  -28.4760  -18.2627   19.5136 N   0  0  0  0  0  0  0  0  0  0  0  0
  -26.2380  -12.8257   20.1455 N   0  0  0  0  0  0  0  0  0  0  0  0
  -29.0029  -25.6447   24.2949 N   0  0  0  0  0  0  0  0  0  0  0  0
  -29.9694  -13.6251   20.3605 N   0  0  0  0  0  0  0  0  0  0  0  0
  -25.4612  -15.0545   20.3443 N   0  0  0  0  0  0  0  0  0  0  0  0
  -21.8794  -12.5898   21.5659 N   0  0  0  0  0  0  0  0  0  0  0  0
  -27.6889  -27.5837   26.7205 N   0  0  0  0  0  0  0  0  0  0  0  0
  -31.8423  -25.9177   22.4725 N   0  0  0  0  0  0  0  0  0  0  0  0
  -30.1264  -15.7123   21.4617 N   0  0  0  0  0  0  0  0  0  0  0  0
  -33.3799  -22.8834   22.1390 N   0  3  0  0  0  0  0  0  0  0  0  0
  -22.6481  -14.7267   21.2474 O   0  0  0  0  0  0  0  0  0  0  0  0
  -26.4136  -26.5897   25.0448 O   0  0  0  0  0  0  0  0  0  0  0  0
  -30.8733  -26.8417   25.0055 O   0  0  0  0  0  0  0  0  0  0  0  0
  -31.0299  -24.3492   20.9702 O   0  0  0  0  0  0  0  0  0  0  0  0
  -31.8720  -14.9402   20.1913 O   0  0  0  0  0  0  0  0  0  0  0  0
  -21.6280   -7.0288   21.7843 O   0  0  0  0  0  0  0  0  0  0  0  0
  -24.7154  -21.9550   21.8339 O   0  0  0  0  0  0  0  0  0  1  0  0
  -16.4737   -6.7844   19.8407 F   0  0  0  0  0  0  0  0  0  0  0  0
  -20.8676   -5.0340   20.0278 F   0  0  0  0  0  0  0  0  0  0  0  0
  1  2  1  0  0  0  0
  1  5  2  0  0  0  0
  2  6  2  0  0  0  0
  3  8  2  0  0  0  0
  3 16  1  0  0  0  0
  4  9  1  0  0  0  0
  4 16  2  0  0  0  0
  5 18  1  0  0  0  0
  6 20  1  0  0  0  0
  7 10  2  0  0  0  0
  7 19  1  0  0  0  0
  8 23  1  0  0  0  0
  9 23  2  0  0  0  0
 10 24  1  0  0  0  0
 11 12  2  0  0  0  0
 11 25  1  0  0  0  0
 12 26  1  0  0  0  0
 13 21  1  0  0  0  0
 13 24  2  0  0  0  0
 14 26  2  0  0  0  0
 14 27  1  0  0  0  0
 15 22  1  0  0  0  0
 15 65  2  0  0  0  0
 16 28  1  0  0  0  0
 17 28  1  0  0  0  0
 17 30  2  0  0  0  0
 17 32  1  0  0  0  0
 18 20  2  0  0  0  0
 18 37  1  0  0  0  0
 19 21  2  0  0  0  0
 19 38  1  0  0  0  0
 20 46  1  0  0  0  0
 21 39  1  0  0  0  0
 22 29  2  0  0  0  0
 22 56  1  0  0  0  0
 23 82  1  0  0  0  0
 24 83  1  0  0  0  0
 25 27  2  0  0  0  0
 25 82  1  0  0  0  0
 26 84  1  0  0  0  0
 27 85  1  0  0  0  0
 28 66  2  0  0  0  0
 29 57  1  0  0  0  0
 29 67  1  0  0  0  0
 30 68  1  0  0  0  0
 30 71  1  0  0  0  0
 31 61  1  0  0  0  0
 31 65  1  0  0  0  0
 31 67  2  0  0  0  0
 32 72  1  0  0  0  0
 32 77  2  0  0  0  0
 33 47  1  0  0  0  0
 33 73  1  0  0  0  0
 33 78  2  0  0  0  0
 34 62  1  0  0  0  0
 34 69  1  0  0  0  0
 34 79  2  0  0  0  0
 35 63  1  0  0  0  0
 35 74  1  0  0  0  0
 35 80  2  0  0  0  0
 36 70  1  0  0  0  0
 36 75  1  0  0  0  0
 36 81  2  0  0  0  0
 37 40  1  0  0  0  0
 38 47  1  0  0  0  0
 39 69  1  0  0  0  0
 40 42  1  0  0  0  0
 41 43  1  0  0  0  0
 41 44  1  0  0  0  0
 42 46  1  0  0  0  0
 43 48  1  0  0  0  0
 44 70  1  0  0  0  0
 45 48  1  0  0  0  0
 45 70  1  0  0  0  0
 46 73  1  0  0  0  0
 47 69  1  0  0  0  0
 48 68  1  0  0  0  0
 49 57  1  0  0  0  0
 50 61  1  0  0  0  0
 51 63  1  0  0  0  0
 52 64  1  0  0  0  0
 53 64  1  0  0  0  0
 54 64  1  0  0  0  0
 55 76  1  0  0  0  0
 56 58  1  0  0  0  0
 58 60  1  0  0  0  0
 59 61  1  0  0  0  0
 59 75  1  0  0  0  0
 60 83  1  0  0  0  0
 62 64  1  0  0  0  0
 62 74  1  0  0  0  0
 63 76  1  0  0  0  0
 66 68  1  0  0  0  0
M  CHG  1  76   1
M  ISO  4  36 100  60 101  75 100  83 101
M  END
> <Batch ID>
0049

> <Smiles>
CCc1nc(C(C)C[100NH:0][100C:0](=O)N2CCCC(n3nc(-c4ccc(Oc5ccc(F)cc5F)cc4)c(C(N)=O)c3N)C2)ncc1CC[101CH2:1][101O:1]c1ccc2c(c1)CN(C(=O)C(NC(=O)C(C)NC)C(C)(C)C)C(C(=O)NC1CCCc3ccccc31)C2

> <Shape>
0.194

> <Color>
0.185

> <Negative vol penalty>
0.000

$$$$

  -OEChem-04052317293D

 85 93  0     1  0  0  0  0  0999 V2000
  -31.9112  -23.8475   16.9966 C   0  0  0  0  0  0  0  0  0  0  0  0
  -30.6057  -23.9525   17.4655 C   0  0  0  0  0  0  0  0  0  0  0  0
  -24.6056  -14.0207   20.1187 C   0  0  0  0  0  0  0  0  0  0  0  0
  -26.9538  -13.4745   19.9630 C   0  0  0  0  0  0  0  0  0  0  0  0
  -32.9780  -24.1960   17.8239 C   0  0  0  0  0  0  0  0  0  0  0  0
  -30.3662  -24.4051   18.7626 C   0  0  0  0  0  0  0  0  0  0  0  0
  -26.6129  -27.7982   18.9742 C   0  0  0  0  0  0  0  0  0  0  0  0
  -24.3858  -12.8634   20.8656 C   0  0  0  0  0  0  0  0  0  0  0  0
  -26.7341  -12.3172   20.7100 C   0  0  0  0  0  0  0  0  0  0  0  0
  -25.3087  -27.3096   18.9116 C   0  0  0  0  0  0  0  0  0  0  0  0
  -23.1440   -9.8661   22.5081 C   0  0  0  0  0  0  0  0  0  0  0  0
  -22.0405   -9.0793   22.1783 C   0  0  0  0  0  0  0  0  0  0  0  0
  -25.1258  -27.5077   21.3088 C   0  0  0  0  0  0  0  0  0  0  0  0
  -22.9305   -8.7634   19.9545 C   0  0  0  0  0  0  0  0  0  0  0  0
  -22.2008  -24.2138   18.3645 C   0  0  0  0  0  0  0  0  0  0  0  0
  -25.8896  -14.3263   19.6673 C   0  0  0  0  0  0  0  0  0  0  0  0
  -25.5365  -15.8571   17.6575 C   0  0  0  0  0  0  0  0  0  0  0  0
  -32.7511  -24.6623   19.1284 C   0  0  0  0  0  0  0  0  0  0  0  0
  -27.1882  -28.1355   20.2078 C   0  0  0  0  0  0  0  0  0  0  0  0
  -31.4310  -24.7589   19.6085 C   0  0  0  0  0  0  0  0  0  0  0  0
  -26.4367  -28.0028   21.3841 C   0  0  0  0  0  0  0  0  0  0  0  0
  -25.4501  -12.0116   21.1613 C   0  0  0  0  0  0  0  0  0  0  0  0
  -24.5659  -27.1616   20.0793 C   0  0  0  0  0  0  0  0  0  0  0  0
  -24.1408  -10.1017   21.5611 C   0  0  0  0  0  0  0  0  0  0  0  0
  -21.9337   -8.5279   20.9016 C   0  0  0  0  0  0  0  0  0  0  0  0
  -24.0340   -9.5502   20.2843 C   0  0  0  0  0  0  0  0  0  0  0  0
  -26.1171  -15.5213   18.8952 C   0  0  0  0  0  0  0  0  0  0  0  0
  -22.2641  -23.9560   19.7162 C   0  0  0  0  0  0  0  0  0  0  0  0
  -23.1724  -22.1891   17.9328 C   0  0  0  0  0  0  0  0  0  0  0  0
  -23.2364  -21.9316   19.2845 C   0  0  0  0  0  0  0  0  0  0  0  0
  -26.0737  -17.0826   17.3474 C   0  0  0  0  0  0  0  0  0  0  0  0
  -24.5956  -15.1267   16.8594 C   0  0  0  0  0  0  0  0  0  0  0  0
  -29.6878  -27.0988   21.8755 C   0  0  0  0  0  0  0  0  0  0  0  0
  -28.9279  -29.5827   23.8184 C   0  0  0  0  0  0  0  0  0  0  0  0
  -26.5511  -31.7556   24.9479 C   0  0  0  0  0  0  0  0  0  0  0  0
  -28.5370  -21.2267   21.1286 C   0  0  0  0  0  0  0  0  0  0  0  0
  -33.9383  -24.9822   20.0018 C   0  0  0  0  0  0  0  0  0  0  0  0
  -28.5870  -28.6863   20.2556 C   0  0  0  0  0  0  0  0  0  0  0  0
  -27.0011  -28.3698   22.7314 C   0  0  0  0  0  0  0  0  0  0  0  0
  -33.5823  -25.8088   21.2348 C   0  0  0  0  0  0  0  0  0  0  0  0
  -29.9686  -19.7617   18.0454 C   0  0  0  0  0  0  0  0  0  0  0  0
  -32.3514  -25.2320   21.9269 C   0  0  0  0  0  0  0  0  0  0  0  0
  -29.1318  -18.4974   17.8577 C   0  0  0  0  0  0  0  0  0  0  0  0
  -30.0703  -20.1618   19.5142 C   0  0  0  0  0  0  0  0  0  0  0  0
  -27.9162  -19.0499   20.0019 C   0  0  0  0  0  0  0  0  0  0  0  0
  -31.1296  -25.2692   21.0010 C   0  0  1  0  0  0  0  0  0  0  0  0
  -29.2511  -28.5132   21.6181 C   0  0  1  0  0  0  0  0  0  0  0  0
  -27.7552  -18.6459   18.5287 C   0  0  2  0  0  0  0  0  0  0  0  0
  -23.8018  -21.8159   15.5347 C   0  0  0  0  0  0  0  0  0  0  0  0
  -26.2195  -33.6469   26.5636 C   0  0  0  0  0  0  0  0  0  0  0  0
  -28.8735  -27.5938   26.1317 C   0  0  0  0  0  0  0  0  0  0  0  0
  -27.6392  -29.3036   27.4812 C   0  0  0  0  0  0  0  0  0  0  0  0
  -29.9470  -29.7881   26.6675 C   0  0  0  0  0  0  0  0  0  0  0  0
  -26.9726  -22.7710   22.2454 C   0  0  0  0  0  0  0  0  0  0  0  0
  -25.8306  -33.6357   22.7788 C   0  0  0  0  0  0  0  0  0  0  0  0
  -21.7459  -24.9638   20.7132 C   0  0  0  0  0  0  0  0  0  0  0  0
  -23.6772  -21.2086   16.9299 C   0  0  0  0  0  0  0  0  0  0  0  0
  -23.8136  -20.6605   19.8069 C   0  0  0  0  0  0  0  0  0  0  0  0
  -24.9651  -20.8483   20.8149 C   0  0  0  0  0  0  0  0  0  0  0  0
  -26.1898  -21.5598   20.2439 C   0  0  0  0  0  0  0  0  0  0  0  0
  -22.8215  -25.9518   21.1514 C   0  0  0  0  0  0  0  0  0  1  0  0
  -28.0307  -29.7656   25.0186 C   0  0  1  0  0  0  0  0  0  0  0  0
  -26.5708  -33.2620   25.1349 C   0  0  2  0  0  0  0  0  0  0  0  0
  -28.6124  -29.1039   26.2997 C   0  0  0  0  0  0  0  0  0  0  0  0
  -22.6537  -23.3349   17.4485 N   0  0  0  0  0  0  0  0  0  0  0  0
  -26.9588  -16.4577   19.3409 N   0  0  0  0  0  0  0  0  0  0  0  0
  -22.7832  -22.8103   20.2004 N   0  0  0  0  0  0  0  0  0  0  0  0
  -26.9111  -17.3940   18.3780 N   0  0  0  0  0  0  0  0  0  0  0  0
  -28.3753  -28.8981   22.7267 N   0  0  0  0  0  0  0  0  0  0  0  0
  -28.7501  -20.2536   20.1384 N   0  0  0  0  0  0  0  0  0  0  0  0
  -25.9069  -17.9133   16.2965 N   0  0  0  0  0  0  0  0  0  0  0  0
  -25.0868  -14.2302   15.9006 N   0  0  0  0  0  0  0  0  0  0  0  0
  -30.5804  -26.6069   20.9423 N   0  0  0  0  0  0  0  0  0  0  0  0
  -27.7987  -31.2008   25.1399 N   0  0  0  0  0  0  0  0  0  0  0  0
  -27.2405  -21.7512   21.2413 N   0  0  0  0  0  0  0  0  0  0  0  0
  -25.5903  -33.9105   24.2188 N   0  3  0  0  0  0  0  0  0  0  0  0
  -23.3563  -15.2771   16.9814 O   0  0  0  0  0  0  0  0  0  0  0  0
  -29.2486  -26.4986   22.8494 O   0  0  0  0  0  0  0  0  0  0  0  0
  -30.0745  -30.0369   23.8457 O   0  0  0  0  0  0  0  0  0  0  0  0
  -25.5302  -31.1329   24.6639 O   0  0  0  0  0  0  0  0  0  0  0  0
  -29.4556  -21.6121   21.8632 O   0  0  0  0  0  0  0  0  0  0  0  0
  -25.2361  -10.8824   21.8903 O   0  0  0  0  0  0  0  0  0  0  0  0
  -23.2928  -26.6844   20.0211 O   0  0  0  0  0  0  0  0  0  1  0  0
  -20.8748   -7.7711   20.5855 F   0  0  0  0  0  0  0  0  0  0  0  0
  -24.9889   -9.7720   19.3707 F   0  0  0  0  0  0  0  0  0  0  0  0
  1  2  1  0  0  0  0
  1  5  2  0  0  0  0
  2  6  2  0  0  0  0
  3  8  2  0  0  0  0
  3 16  1  0  0  0  0
  4  9  1  0  0  0  0
  4 16  2  0  0  0  0
  5 18  1  0  0  0  0
  6 20  1  0  0  0  0
  7 10  2  0  0  0  0
  7 19  1  0  0  0  0
  8 22  1  0  0  0  0
  9 22  2  0  0  0  0
 10 23  1  0  0  0  0
 11 12  2  0  0  0  0
 11 24  1  0  0  0  0
 12 25  1  0  0  0  0
 13 21  1  0  0  0  0
 13 23  2  0  0  0  0
 14 25  2  0  0  0  0
 14 26  1  0  0  0  0
 15 28  1  0  0  0  0
 15 65  2  0  0  0  0
 16 27  1  0  0  0  0
 17 27  1  0  0  0  0
 17 31  2  0  0  0  0
 17 32  1  0  0  0  0
 18 20  2  0  0  0  0
 18 37  1  0  0  0  0
 19 21  2  0  0  0  0
 19 38  1  0  0  0  0
 20 46  1  0  0  0  0
 21 39  1  0  0  0  0
 22 82  1  0  0  0  0
 23 83  1  0  0  0  0
 24 26  2  0  0  0  0
 24 82  1  0  0  0  0
 25 84  1  0  0  0  0
 26 85  1  0  0  0  0
 27 66  2  0  0  0  0
 28 56  1  0  0  0  0
 28 67  2  0  0  0  0
 29 30  2  0  0  0  0
 29 57  1  0  0  0  0
 29 65  1  0  0  0  0
 30 58  1  0  0  0  0
 30 67  1  0  0  0  0
 31 68  1  0  0  0  0
 31 71  1  0  0  0  0
 32 72  1  0  0  0  0
 32 77  2  0  0  0  0
 33 47  1  0  0  0  0
 33 73  1  0  0  0  0
 33 78  2  0  0  0  0
 34 62  1  0  0  0  0
 34 69  1  0  0  0  0
 34 79  2  0  0  0  0
 35 63  1  0  0  0  0
 35 74  1  0  0  0  0
 35 80  2  0  0  0  0
 36 70  1  0  0  0  0
 36 75  1  0  0  0  0
 36 81  2  0  0  0  0
 37 40  1  0  0  0  0
 38 47  1  0  0  0  0
 39 69  1  0  0  0  0
 40 42  1  0  0  0  0
 41 43  1  0  0  0  0
 41 44  1  0  0  0  0
 42 46  1  0  0  0  0
 43 48  1  0  0  0  0
 44 70  1  0  0  0  0
 45 48  1  0  0  0  0
 45 70  1  0  0  0  0
 46 73  1  0  0  0  0
 47 69  1  0  0  0  0
 48 68  1  0  0  0  0
 49 57  1  0  0  0  0
 50 63  1  0  0  0  0
 51 64  1  0  0  0  0
 52 64  1  0  0  0  0
 53 64  1  0  0  0  0
 54 75  1  0  0  0  0
 55 76  1  0  0  0  0
 56 61  1  0  0  0  0
 58 59  1  0  0  0  0
 59 60  1  0  0  0  0
 60 75  1  0  0  0  0
 61 83  1  0  0  0  0
 62 64  1  0  0  0  0
 62 74  1  0  0  0  0
 63 76  1  0  0  0  0
 66 68  1  0  0  0  0
M  CHG  1  76   1
M  ISO  4  36 100  61 101  75 100  83 101
M  END
> <Batch ID>
0049

> <Smiles>
CCc1ncc(C[101CH2:1][101O:1]c2ccc3c(c2)CN(C(=O)C(NC(=O)C(C)NC)C(C)(C)C)C(C(=O)NC2CCCc4ccccc42)C3)nc1CCC[100N:0](C)[100C:0](=O)N1CCCC(n2nc(-c3ccc(Oc4ccc(F)cc4F)cc3)c(C(N)=O)c2N)C1

> <Shape>
0.232

> <Color>
0.063

> <Negative vol penalty>
0.000

$$$$

  -OEChem-04052317293D

 83 91  0     1  0  0  0  0  0999 V2000
  -27.2379  -24.7069   19.3114 C   0  0  0  0  0  0  0  0  0  0  0  0
  -26.4899  -24.4664   20.4595 C   0  0  0  0  0  0  0  0  0  0  0  0
  -24.7610  -13.7282   19.2659 C   0  0  0  0  0  0  0  0  0  0  0  0
  -24.9274  -13.4001   21.6537 C   0  0  0  0  0  0  0  0  0  0  0  0
  -27.3865  -26.0098   18.8379 C   0  0  0  0  0  0  0  0  0  0  0  0
  -25.8910  -25.5289   21.1354 C   0  0  0  0  0  0  0  0  0  0  0  0
  -21.1109  -24.5307   22.4768 C   0  0  0  0  0  0  0  0  0  0  0  0
  -24.8632  -12.3510   19.0695 C   0  0  0  0  0  0  0  0  0  0  0  0
  -25.0296  -12.0229   21.4573 C   0  0  0  0  0  0  0  0  0  0  0  0
  -20.9194  -23.7207   23.5953 C   0  0  0  0  0  0  0  0  0  0  0  0
  -24.9719   -8.3907   21.6063 C   0  0  0  0  0  0  0  0  0  0  0  0
  -24.2120   -7.5594   22.4291 C   0  0  0  0  0  0  0  0  0  0  0  0
  -20.4956  -25.6814   24.9351 C   0  0  0  0  0  0  0  0  0  0  0  0
  -22.1906   -8.6073   21.6209 C   0  0  0  0  0  0  0  0  0  0  0  0
  -23.6490  -22.5620   27.7398 C   0  0  0  0  0  0  0  0  0  0  0  0
  -24.7931  -14.2527   20.5580 C   0  0  0  0  0  0  0  0  0  0  0  0
  -23.5097  -16.4229   20.9465 C   0  0  0  0  0  0  0  0  0  0  0  0
  -26.7811  -27.0877   19.5028 C   0  0  0  0  0  0  0  0  0  0  0  0
  -21.0068  -25.9252   22.5816 C   0  0  0  0  0  0  0  0  0  0  0  0
  -26.0328  -26.8476   20.6711 C   0  0  0  0  0  0  0  0  0  0  0  0
  -20.6837  -26.5067   23.8159 C   0  0  0  0  0  0  0  0  0  0  0  0
  -24.3798  -21.5316   27.2007 C   0  0  0  0  0  0  0  0  0  0  0  0
  -24.9975  -11.4984   20.1652 C   0  0  0  0  0  0  0  0  0  0  0  0
  -20.6145  -24.2961   24.8253 C   0  0  0  0  0  0  0  0  0  0  0  0
  -24.3412   -9.3304   20.7909 C   0  0  0  0  0  0  0  0  0  0  0  0
  -22.8214   -7.6676   22.4364 C   0  0  0  0  0  0  0  0  0  0  0  0
  -22.9506   -9.4386   20.7982 C   0  0  0  0  0  0  0  0  0  0  0  0
  -24.6881  -15.6753   20.7615 C   0  0  0  0  0  0  0  0  0  0  0  0
  -23.4190  -20.5641   26.8507 C   0  0  0  0  0  0  0  0  0  0  0  0
  -23.9441  -17.7174   21.0950 C   0  0  0  0  0  0  0  0  0  0  0  0
  -22.1445  -15.9862   20.9812 C   0  0  0  0  0  0  0  0  0  0  0  0
  -22.9963  -28.3631   22.1326 C   0  0  0  0  0  0  0  0  0  0  0  0
  -20.3259  -30.1311   22.6480 C   0  0  0  0  0  0  0  0  0  0  0  0
  -17.2100  -30.3391   24.0245 C   0  0  0  0  0  0  0  0  0  0  0  0
  -27.4675  -21.4469   23.2909 C   0  0  0  0  0  0  0  0  0  0  0  0
  -27.0093  -28.4839   18.9799 C   0  0  0  0  0  0  0  0  0  0  0  0
  -21.1899  -26.7833   21.3599 C   0  0  0  0  0  0  0  0  0  0  0  0
  -20.5406  -27.9973   23.9771 C   0  0  0  0  0  0  0  0  0  0  0  0
  -26.0315  -29.5123   19.5424 C   0  0  0  0  0  0  0  0  0  0  0  0
  -28.5036  -19.7686   20.3268 C   0  0  0  0  0  0  0  0  0  0  0  0
  -25.9010  -29.3539   21.0539 C   0  0  0  0  0  0  0  0  0  0  0  0
  -27.5104  -18.6128   20.1946 C   0  0  0  0  0  0  0  0  0  0  0  0
  -28.8527  -20.0487   21.7868 C   0  0  0  0  0  0  0  0  0  0  0  0
  -26.6989  -19.1150   22.5373 C   0  0  0  0  0  0  0  0  0  0  0  0
  -25.3472  -27.9711   21.4179 C   0  0  1  0  0  0  0  0  0  0  0  0
  -21.5664  -28.2238   21.6926 C   0  0  1  0  0  0  0  0  0  0  0  0
  -26.2734  -18.8317   21.0864 C   0  0  2  0  0  0  0  0  0  0  0  0
  -22.9015  -19.0759   24.9004 C   0  0  0  0  0  0  0  0  0  0  0  0
  -15.2855  -31.9236   24.3126 C   0  0  0  0  0  0  0  0  0  0  0  0
  -21.8843  -31.6284   24.8019 C   0  0  0  0  0  0  0  0  0  0  0  0
  -19.7052  -32.4981   25.6756 C   0  0  0  0  0  0  0  0  0  0  0  0
  -20.4397  -33.0763   23.3628 C   0  0  0  0  0  0  0  0  0  0  0  0
  -15.3666  -28.5507   22.5540 C   0  0  0  0  0  0  0  0  0  0  0  0
  -25.8413  -21.4660   27.0323 C   0  0  0  0  0  0  0  0  0  0  0  0
  -23.6475  -19.2480   26.2290 C   0  0  0  0  0  0  0  0  0  0  0  0
  -26.4630  -22.6349   26.2275 C   0  0  0  0  0  0  0  0  0  0  0  0
  -21.1476  -22.9513   28.1556 C   0  0  0  0  0  0  0  0  0  0  0  0
  -25.9631  -22.7336   24.7878 C   0  0  0  0  0  0  0  0  0  0  0  0
  -20.7671  -24.0661   27.1874 C   0  0  0  0  0  0  0  0  0  1  0  0
  -19.6552  -30.7254   23.8629 C   0  0  1  0  0  0  0  0  0  0  0  0
  -15.8876  -30.8210   23.4557 C   0  0  2  0  0  0  0  0  0  0  0  0
  -20.4257  -31.9541   24.4235 C   0  0  0  0  0  0  0  0  0  0  0  0
  -25.7885  -16.4319   20.7893 N   0  0  0  0  0  0  0  0  0  0  0  0
  -22.1728  -20.9456   27.1431 N   0  0  0  0  0  0  0  0  0  0  0  0
  -22.3456  -22.1643   27.6826 N   0  0  0  0  0  0  0  0  0  0  0  0
  -25.3034  -17.6684   20.9934 N   0  0  0  0  0  0  0  0  0  0  0  0
  -20.7353  -28.7943   22.7546 N   0  0  0  0  0  0  0  0  0  0  0  0
  -27.6360  -20.2486   22.5778 N   0  0  0  0  0  0  0  0  0  0  0  0
  -23.2922  -18.8814   21.3011 N   0  0  0  0  0  0  0  0  0  0  0  0
  -21.8751  -14.6213   20.8117 N   0  0  0  0  0  0  0  0  0  0  0  0
  -23.9172  -27.9259   21.1997 N   0  0  0  0  0  0  0  0  0  0  0  0
  -18.2793  -31.0109   23.4708 N   0  0  0  0  0  0  0  0  0  0  0  0
  -26.2833  -21.5578   24.0095 N   0  0  0  0  0  0  0  0  0  0  0  0
  -14.9133  -29.6956   23.3851 N   0  3  0  0  0  0  0  0  0  0  0  0
  -21.1907  -16.7851   21.1409 O   0  0  0  0  0  0  0  0  0  0  0  0
  -23.2457  -28.8340   23.2361 O   0  0  0  0  0  0  0  0  0  0  0  0
  -20.4744  -30.8250   21.6390 O   0  0  0  0  0  0  0  0  0  0  0  0
  -17.2865  -29.4577   24.8776 O   0  0  0  0  0  0  0  0  0  0  0  0
  -28.3074  -22.3532   23.2833 O   0  0  0  0  0  0  0  0  0  0  0  0
  -25.0970  -10.1545   19.9740 O   0  0  0  0  0  0  0  0  0  0  0  0
  -20.4277  -23.5079   25.9187 O   0  0  0  0  0  0  0  0  0  1  0  0
  -22.0916   -6.8682   23.2255 F   0  0  0  0  0  0  0  0  0  0  0  0
  -22.3389  -10.3387   20.0161 F   0  0  0  0  0  0  0  0  0  0  0  0
  1  2  1  0  0  0  0
  1  5  2  0  0  0  0
  2  6  2  0  0  0  0
  3  8  2  0  0  0  0
  3 16  1  0  0  0  0
  4  9  1  0  0  0  0
  4 16  2  0  0  0  0
  5 18  1  0  0  0  0
  6 20  1  0  0  0  0
  7 10  2  0  0  0  0
  7 19  1  0  0  0  0
  8 23  1  0  0  0  0
  9 23  2  0  0  0  0
 10 24  1  0  0  0  0
 11 12  2  0  0  0  0
 11 25  1  0  0  0  0
 12 26  1  0  0  0  0
 13 21  1  0  0  0  0
 13 24  2  0  0  0  0
 14 26  2  0  0  0  0
 14 27  1  0  0  0  0
 15 22  2  0  0  0  0
 15 65  1  0  0  0  0
 16 28  1  0  0  0  0
 17 28  1  0  0  0  0
 17 30  2  0  0  0  0
 17 31  1  0  0  0  0
 18 20  2  0  0  0  0
 18 36  1  0  0  0  0
 19 21  2  0  0  0  0
 19 37  1  0  0  0  0
 20 45  1  0  0  0  0
 21 38  1  0  0  0  0
 22 29  1  0  0  0  0
 22 54  1  0  0  0  0
 23 80  1  0  0  0  0
 24 81  1  0  0  0  0
 25 27  2  0  0  0  0
 25 80  1  0  0  0  0
 26 82  1  0  0  0  0
 27 83  1  0  0  0  0
 28 63  2  0  0  0  0
 29 55  1  0  0  0  0
 29 64  2  0  0  0  0
 30 66  1  0  0  0  0
 30 69  1  0  0  0  0
 31 70  1  0  0  0  0
 31 75  2  0  0  0  0
 32 46  1  0  0  0  0
 32 71  1  0  0  0  0
 32 76  2  0  0  0  0
 33 60  1  0  0  0  0
 33 67  1  0  0  0  0
 33 77  2  0  0  0  0
 34 61  1  0  0  0  0
 34 72  1  0  0  0  0
 34 78  2  0  0  0  0
 35 68  1  0  0  0  0
 35 73  1  0  0  0  0
 35 79  2  0  0  0  0
 36 39  1  0  0  0  0
 37 46  1  0  0  0  0
 38 67  1  0  0  0  0
 39 41  1  0  0  0  0
 40 42  1  0  0  0  0
 40 43  1  0  0  0  0
 41 45  1  0  0  0  0
 42 47  1  0  0  0  0
 43 68  1  0  0  0  0
 44 47  1  0  0  0  0
 44 68  1  0  0  0  0
 45 71  1  0  0  0  0
 46 67  1  0  0  0  0
 47 66  1  0  0  0  0
 48 55  1  0  0  0  0
 49 61  1  0  0  0  0
 50 62  1  0  0  0  0
 51 62  1  0  0  0  0
 52 62  1  0  0  0  0
 53 74  1  0  0  0  0
 54 56  1  0  0  0  0
 56 58  1  0  0  0  0
 57 59  1  0  0  0  0
 57 65  1  0  0  0  0
 58 73  1  0  0  0  0
 59 81  1  0  0  0  0
 60 62  1  0  0  0  0
 60 72  1  0  0  0  0
 61 74  1  0  0  0  0
 63 66  1  0  0  0  0
 64 65  1  0  0  0  0
M  CHG  1  74   1
M  ISO  4  35 100  59 101  73 100  81 101
M  END
> <Batch ID>
0049

> <Smiles>
CCc1nn(C[101CH2:1][101O:1]c2ccc3c(c2)CN(C(=O)C(NC(=O)C(C)NC)C(C)(C)C)C(C(=O)NC2CCCc4ccccc42)C3)cc1CCC[100NH:0][100C:0](=O)N1CCCC(n2nc(-c3ccc(Oc4ccc(F)cc4F)cc3)c(C(N)=O)c2N)C1

> <Shape>
0.203

> <Color>
0.065

> <Negative vol penalty>
0.000

$$$$

  -OEChem-04052317293D

 89 97  0     1  0  0  0  0  0999 V2000
  -17.0917  -27.4186   23.9966 C   0  0  0  0  0  0  0  0  0  0  0  0
  -18.2149  -26.6131   23.8377 C   0  0  0  0  0  0  0  0  0  0  0  0
  -24.0204  -13.5816   19.5368 C   0  0  0  0  0  0  0  0  0  0  0  0
  -24.5084  -14.7541   21.5921 C   0  0  0  0  0  0  0  0  0  0  0  0
  -17.0484  -28.6778   23.3997 C   0  0  0  0  0  0  0  0  0  0  0  0
  -19.2949  -27.0660   23.0809 C   0  0  0  0  0  0  0  0  0  0  0  0
  -26.4377  -26.6446   22.7358 C   0  0  0  0  0  0  0  0  0  0  0  0
  -25.2381  -12.9079   19.6320 C   0  0  0  0  0  0  0  0  0  0  0  0
  -25.7261  -14.0804   21.6873 C   0  0  0  0  0  0  0  0  0  0  0  0
  -27.4563  -26.3390   21.8342 C   0  0  0  0  0  0  0  0  0  0  0  0
  -26.5076  -10.2881   21.3518 C   0  0  0  0  0  0  0  0  0  0  0  0
  -26.5089   -8.9143   21.1104 C   0  0  0  0  0  0  0  0  0  0  0  0
  -27.3022  -28.5641   20.9153 C   0  0  0  0  0  0  0  0  0  0  0  0
  -25.0363  -25.9946   16.4864 C   0  0  0  0  0  0  0  0  0  0  0  0
  -28.0570   -9.2368   19.2838 C   0  0  0  0  0  0  0  0  0  0  0  0
  -23.6556  -14.5047   20.5168 C   0  0  0  0  0  0  0  0  0  0  0  0
  -21.1576  -14.7947   20.9455 C   0  0  0  0  0  0  0  0  0  0  0  0
  -18.1324  -29.1504   22.6431 C   0  0  0  0  0  0  0  0  0  0  0  0
  -25.8352  -27.9108   22.7266 C   0  0  0  0  0  0  0  0  0  0  0  0
  -19.2654  -28.3322   22.4722 C   0  0  0  0  0  0  0  0  0  0  0  0
  -26.2780  -28.8841   21.8195 C   0  0  0  0  0  0  0  0  0  0  0  0
  -26.2798  -26.5915   16.6620 C   0  0  0  0  0  0  0  0  0  0  0  0
  -24.9038  -24.6190   16.6402 C   0  0  0  0  0  0  0  0  0  0  0  0
  -26.0909  -13.1572   20.7073 C   0  0  0  0  0  0  0  0  0  0  0  0
  -27.8867  -27.2979   20.9218 C   0  0  0  0  0  0  0  0  0  0  0  0
  -27.2808  -11.1363   20.5592 C   0  0  0  0  0  0  0  0  0  0  0  0
  -27.2836   -8.3886   20.0764 C   0  0  0  0  0  0  0  0  0  0  0  0
  -28.0556  -10.6106   19.5252 C   0  0  0  0  0  0  0  0  0  0  0  0
  -22.3982  -15.2014   20.4187 C   0  0  0  0  0  0  0  0  0  0  0  0
  -27.3508  -25.7751   16.9880 C   0  0  0  0  0  0  0  0  0  0  0  0
  -26.0364  -23.8910   16.9670 C   0  0  0  0  0  0  0  0  0  0  0  0
  -20.2869  -15.7933   20.5835 C   0  0  0  0  0  0  0  0  0  0  0  0
  -20.8224  -13.6193   21.6951 C   0  0  0  0  0  0  0  0  0  0  0  0
  -22.8915  -28.9905   22.2049 C   0  0  0  0  0  0  0  0  0  0  0  0
  -24.1926  -31.8253   23.0957 C   0  0  0  0  0  0  0  0  0  0  0  0
  -26.9877  -33.7569   23.4163 C   0  0  0  0  0  0  0  0  0  0  0  0
  -20.9306  -21.4474   19.4771 C   0  0  0  0  0  0  0  0  0  0  0  0
  -18.0201  -30.4992   21.9778 C   0  0  0  0  0  0  0  0  0  0  0  0
  -24.7560  -28.2334   23.7234 C   0  0  0  0  0  0  0  0  0  0  0  0
  -25.6778  -30.2650   21.7824 C   0  0  0  0  0  0  0  0  0  0  0  0
  -19.3592  -31.0573   21.5027 C   0  0  0  0  0  0  0  0  0  0  0  0
  -19.5611  -19.1036   17.2181 C   0  0  0  0  0  0  0  0  0  0  0  0
  -20.1514  -29.9854   20.7610 C   0  0  0  0  0  0  0  0  0  0  0  0
  -20.0234  -17.7839   17.8340 C   0  0  0  0  0  0  0  0  0  0  0  0
  -20.6419  -20.1835   17.2951 C   0  0  0  0  0  0  0  0  0  0  0  0
  -21.6353  -19.0820   19.2756 C   0  0  0  0  0  0  0  0  0  0  0  0
  -20.4671  -28.7984   21.6792 C   0  0  1  0  0  0  0  0  0  0  0  0
  -23.8607  -29.3872   23.2823 C   0  0  1  0  0  0  0  0  0  0  0  0
  -20.5465  -17.9980   19.2649 C   0  0  2  0  0  0  0  0  0  0  0  0
  -26.4284  -28.0647   16.4988 C   0  0  0  0  0  0  0  0  0  0  0  0
  -26.5030  -21.6504   15.9430 C   0  0  0  0  0  0  0  0  0  0  0  0
  -27.7305  -36.0426   24.1381 C   0  0  0  0  0  0  0  0  0  0  0  0
  -18.8043  -23.5105   19.9836 C   0  0  0  0  0  0  0  0  0  0  0  0
  -21.1060  -24.1500   20.7690 C   0  0  0  0  0  0  0  0  0  0  0  0
  -23.1184  -32.9945   20.4901 C   0  0  0  0  0  0  0  0  0  0  0  0
  -24.6614  -34.9403   20.8084 C   0  0  0  0  0  0  0  0  0  0  0  0
  -22.8695  -34.4847   22.4830 C   0  0  0  0  0  0  0  0  0  0  0  0
  -28.7049  -32.6497   25.5575 C   0  0  0  0  0  0  0  0  0  0  0  0
  -23.5743  -23.9733   16.4532 C   0  0  0  0  0  0  0  0  0  0  0  0
  -28.7235  -26.3657   17.1896 C   0  0  0  0  0  0  0  0  0  0  0  0
  -25.9523  -22.4104   17.1458 C   0  0  0  0  0  0  0  0  0  0  0  0
  -22.8352  -23.6393   17.7648 C   0  0  0  0  0  0  0  0  0  0  0  0
  -29.5746  -25.6108   18.2130 C   0  0  0  0  0  0  0  0  0  0  0  0
  -21.4519  -23.0232   17.5666 C   0  0  0  0  0  0  0  0  0  0  0  0
  -28.9940  -25.6424   19.6220 C   0  0  0  0  0  0  0  0  0  1  0  0
  -24.8823  -32.9585   22.3752 C   0  0  1  0  0  0  0  0  0  0  0  0
  -27.5015  -34.6020   24.5680 C   0  0  2  0  0  0  0  0  0  0  0  0
  -20.2377  -23.8118   19.5640 C   0  0  0  0  0  0  0  0  0  0  0  0
  -23.8931  -33.8180   21.5383 C   0  0  0  0  0  0  0  0  0  0  0  0
  -22.3261  -16.3674   19.7712 N   0  0  0  0  0  0  0  0  0  0  0  0
  -27.2609  -24.4355   17.1456 N   0  0  0  0  0  0  0  0  0  0  0  0
  -21.0298  -16.7019   19.8887 N   0  0  0  0  0  0  0  0  0  0  0  0
  -24.6213  -30.5300   22.7729 N   0  0  0  0  0  0  0  0  0  0  0  0
  -21.1467  -20.3222   18.6680 N   0  0  0  0  0  0  0  0  0  0  0  0
  -18.9659  -15.9740   20.7949 N   0  0  0  0  0  0  0  0  0  0  0  0
  -21.8378  -12.6962   21.9797 N   0  0  0  0  0  0  0  0  0  0  0  0
  -21.5641  -29.1229   22.5656 N   0  0  0  0  0  0  0  0  0  0  0  0
  -25.6100  -33.7073   23.3941 N   0  0  0  0  0  0  0  0  0  0  0  0
  -20.8032  -22.6870   18.8325 N   0  0  0  0  0  0  0  0  0  0  0  0
  -28.7896  -34.0534   25.0787 N   0  3  0  0  0  0  0  0  0  0  0  0
  -19.6536  -13.3863   22.0863 O   0  0  0  0  0  0  0  0  0  0  0  0
  -23.3164  -28.5952   21.1256 O   0  0  0  0  0  0  0  0  0  0  0  0
  -23.3110  -32.0803   23.9200 O   0  0  0  0  0  0  0  0  0  0  0  0
  -27.7340  -33.1998   22.6143 O   0  0  0  0  0  0  0  0  0  0  0  0
  -20.8630  -21.3524   20.7093 O   0  0  0  0  0  0  0  0  0  0  0  0
  -27.2790  -12.4999   20.8006 O   0  0  0  0  0  0  0  0  0  0  0  0
  -28.8803  -27.0020   20.0403 O   0  0  0  0  0  0  0  0  0  1  0  0
  -27.2861   -7.0692   19.8457 F   0  0  0  0  0  0  0  0  0  0  0  0
  -28.8014  -11.4204   18.7611 F   0  0  0  0  0  0  0  0  0  0  0  0
  1  2  1  0  0  0  0
  1  5  2  0  0  0  0
  2  6  2  0  0  0  0
  3  8  2  0  0  0  0
  3 16  1  0  0  0  0
  4  9  1  0  0  0  0
  4 16  2  0  0  0  0
  5 18  1  0  0  0  0
  6 20  1  0  0  0  0
  7 10  2  0  0  0  0
  7 19  1  0  0  0  0
  8 24  1  0  0  0  0
  9 24  2  0  0  0  0
 10 25  1  0  0  0  0
 11 12  2  0  0  0  0
 11 26  1  0  0  0  0
 12 27  1  0  0  0  0
 13 21  1  0  0  0  0
 13 25  2  0  0  0  0
 14 22  2  0  0  0  0
 14 23  1  0  0  0  0
 15 27  2  0  0  0  0
 15 28  1  0  0  0  0
 16 29  1  0  0  0  0
 17 29  1  0  0  0  0
 17 32  2  0  0  0  0
 17 33  1  0  0  0  0
 18 20  2  0  0  0  0
 18 38  1  0  0  0  0
 19 21  2  0  0  0  0
 19 39  1  0  0  0  0
 20 47  1  0  0  0  0
 21 40  1  0  0  0  0
 22 30  1  0  0  0  0
 22 50  1  0  0  0  0
 23 31  2  0  0  0  0
 23 59  1  0  0  0  0
 24 86  1  0  0  0  0
 25 87  1  0  0  0  0
 26 28  2  0  0  0  0
 26 86  1  0  0  0  0
 27 88  1  0  0  0  0
 28 89  1  0  0  0  0
 29 70  2  0  0  0  0
 30 60  1  0  0  0  0
 30 71  2  0  0  0  0
 31 61  1  0  0  0  0
 31 71  1  0  0  0  0
 32 72  1  0  0  0  0
 32 75  1  0  0  0  0
 33 76  1  0  0  0  0
 33 81  2  0  0  0  0
 34 48  1  0  0  0  0
 34 77  1  0  0  0  0
 34 82  2  0  0  0  0
 35 66  1  0  0  0  0
 35 73  1  0  0  0  0
 35 83  2  0  0  0  0
 36 67  1  0  0  0  0
 36 78  1  0  0  0  0
 36 84  2  0  0  0  0
 37 74  1  0  0  0  0
 37 79  1  0  0  0  0
 37 85  2  0  0  0  0
 38 41  1  0  0  0  0
 39 48  1  0  0  0  0
 40 73  1  0  0  0  0
 41 43  1  0  0  0  0
 42 44  1  0  0  0  0
 42 45  1  0  0  0  0
 43 47  1  0  0  0  0
 44 49  1  0  0  0  0
 45 74  1  0  0  0  0
 46 49  1  0  0  0  0
 46 74  1  0  0  0  0
 47 77  1  0  0  0  0
 48 73  1  0  0  0  0
 49 72  1  0  0  0  0
 51 61  1  0  0  0  0
 52 67  1  0  0  0  0
 53 68  1  0  0  0  0
 54 68  1  0  0  0  0
 55 69  1  0  0  0  0
 56 69  1  0  0  0  0
 57 69  1  0  0  0  0
 58 80  1  0  0  0  0
 59 62  1  0  0  0  0
 60 63  1  0  0  0  0
 62 64  1  0  0  0  0
 63 65  1  0  0  0  0
 64 79  1  0  0  0  0
 65 87  1  0  0  0  0
 66 69  1  0  0  0  0
 66 78  1  0  0  0  0
 67 80  1  0  0  0  0
 68 79  1  0  0  0  0
 70 72  1  0  0  0  0
M  CHG  1  80   1
M  ISO  4  37 100  65 101  79 100  87 101
M  END
> <Batch ID>
0049

> <Smiles>
CCc1nc(CC[101CH2:1][101O:1]c2ccc3c(c2)CN(C(=O)C(NC(=O)C(C)NC)C(C)(C)C)C(C(=O)NC2CCCc4ccccc42)C3)c(C)cc1CCC[100N:0](C(C)C)[100C:0](=O)N1CCCC(n2nc(-c3ccc(Oc4ccc(F)cc4F)cc3)c(C(N)=O)c2N)C1

> <Shape>
0.197

> <Color>
0.090

> <Negative vol penalty>
0.000

$$$$

  -OEChem-04052317293D

 86 94  0     1  0  0  0  0  0999 V2000
  -16.7680  -26.2794   25.6290 C   0  0  0  0  0  0  0  0  0  0  0  0
  -17.5157  -25.1449   25.3303 C   0  0  0  0  0  0  0  0  0  0  0  0
  -26.4684  -13.7890   22.0179 C   0  0  0  0  0  0  0  0  0  0  0  0
  -25.1442  -15.4909   20.9282 C   0  0  0  0  0  0  0  0  0  0  0  0
  -16.9140  -27.4320   24.8582 C   0  0  0  0  0  0  0  0  0  0  0  0
  -18.4092  -25.1620   24.2599 C   0  0  0  0  0  0  0  0  0  0  0  0
  -24.7047  -22.4353   22.1988 C   0  0  0  0  0  0  0  0  0  0  0  0
  -25.3333  -12.9888   22.1476 C   0  0  0  0  0  0  0  0  0  0  0  0
  -24.0091  -14.6906   21.0579 C   0  0  0  0  0  0  0  0  0  0  0  0
  -25.2828  -21.7450   21.1344 C   0  0  0  0  0  0  0  0  0  0  0  0
  -22.8550  -10.3457   22.4421 C   0  0  0  0  0  0  0  0  0  0  0  0
  -22.9750   -8.9933   22.1226 C   0  0  0  0  0  0  0  0  0  0  0  0
  -25.5100  -23.8177   19.9214 C   0  0  0  0  0  0  0  0  0  0  0  0
  -23.6146   -9.5826   19.8686 C   0  0  0  0  0  0  0  0  0  0  0  0
  -26.3738  -15.0401   21.4082 C   0  0  0  0  0  0  0  0  0  0  0  0
  -28.4547  -15.8866   20.1995 C   0  0  0  0  0  0  0  0  0  0  0  0
  -17.8169  -27.4664   23.7838 C   0  0  0  0  0  0  0  0  0  0  0  0
  -24.5147  -23.8229   22.1280 C   0  0  0  0  0  0  0  0  0  0  0  0
  -18.5666  -26.3158   23.4732 C   0  0  0  0  0  0  0  0  0  0  0  0
  -24.9317  -24.5237   20.9873 C   0  0  0  0  0  0  0  0  0  0  0  0
  -24.1037  -13.4396   21.6676 C   0  0  0  0  0  0  0  0  0  0  0  0
  -25.6829  -22.4357   19.9943 C   0  0  0  0  0  0  0  0  0  0  0  0
  -23.1147  -11.3166   21.4748 C   0  0  0  0  0  0  0  0  0  0  0  0
  -23.3548   -8.6117   20.8359 C   0  0  0  0  0  0  0  0  0  0  0  0
  -23.4946  -10.9350   20.1881 C   0  0  0  0  0  0  0  0  0  0  0  0
  -27.5459  -15.8674   21.2744 C   0  0  0  0  0  0  0  0  0  0  0  0
  -26.6498  -18.8718   16.9436 C   0  0  0  0  0  0  0  0  0  0  0  0
  -27.0601  -19.8037   17.8676 C   0  0  0  0  0  0  0  0  0  0  0  0
  -29.3830  -16.8356   20.5517 C   0  0  0  0  0  0  0  0  0  0  0  0
  -28.5812  -19.4960   16.3029 C   0  0  0  0  0  0  0  0  0  0  0  0
  -28.4593  -15.1156   18.9907 C   0  0  0  0  0  0  0  0  0  0  0  0
  -21.9851  -25.7466   22.1916 C   0  0  0  0  0  0  0  0  0  0  0  0
  -24.2441  -28.0742   22.2320 C   0  0  0  0  0  0  0  0  0  0  0  0
  -27.4409  -29.0219   21.5049 C   0  0  0  0  0  0  0  0  0  0  0  0
  -30.6642  -21.8602   22.6150 C   0  0  0  0  0  0  0  0  0  0  0  0
  -17.9057  -28.7200   22.9500 C   0  0  0  0  0  0  0  0  0  0  0  0
  -23.9141  -24.5566   23.2956 C   0  0  0  0  0  0  0  0  0  0  0  0
  -24.7684  -26.0163   20.8698 C   0  0  0  0  0  0  0  0  0  0  0  0
  -19.1481  -28.7760   22.0648 C   0  0  0  0  0  0  0  0  0  0  0  0
  -30.1502  -19.2191   24.9468 C   0  0  0  0  0  0  0  0  0  0  0  0
  -19.3472  -27.4489   21.3396 C   0  0  0  0  0  0  0  0  0  0  0  0
  -29.4964  -18.1164   24.1121 C   0  0  0  0  0  0  0  0  0  0  0  0
  -29.6832  -20.6069   24.5133 C   0  0  0  0  0  0  0  0  0  0  0  0
  -29.1901  -19.7906   22.2408 C   0  0  0  0  0  0  0  0  0  0  0  0
  -19.5643  -26.3032   22.3354 C   0  0  1  0  0  0  0  0  0  0  0  0
  -23.2982  -25.8970   22.9062 C   0  0  1  0  0  0  0  0  0  0  0  0
  -29.6725  -18.3758   22.6038 C   0  0  2  0  0  0  0  0  0  0  0  0
  -25.3871  -18.1172   16.9040 C   0  0  0  0  0  0  0  0  0  0  0  0
  -29.8490  -19.6723   15.5647 C   0  0  0  0  0  0  0  0  0  0  0  0
  -28.9839  -30.9976   21.6182 C   0  0  0  0  0  0  0  0  0  0  0  0
  -22.8361  -29.3089   19.8231 C   0  0  0  0  0  0  0  0  0  0  0  0
  -24.8938  -30.6732   19.4075 C   0  0  0  0  0  0  0  0  0  0  0  0
  -23.6186  -30.9582   21.5324 C   0  0  0  0  0  0  0  0  0  0  0  0
  -29.3175  -27.6003   23.2984 C   0  0  0  0  0  0  0  0  0  0  0  0
  -30.5583  -24.5819   17.1765 C   0  0  0  0  0  0  0  0  0  0  0  0
  -26.3985  -20.3526   19.0973 C   0  0  0  0  0  0  0  0  0  1  0  0
  -30.7570  -24.2433   20.3053 C   0  0  0  0  0  0  0  0  0  0  0  0
  -29.1525  -21.1693   18.0845 C   0  0  0  0  0  0  0  0  0  0  0  0
  -31.5865  -23.0014   20.6135 C   0  0  0  0  0  0  0  0  0  0  0  0
  -29.5870  -23.9404   19.3778 C   0  0  0  0  0  0  0  0  0  0  0  0
  -29.1805  -22.5170   17.3755 C   0  0  0  0  0  0  0  0  0  0  0  0
  -24.9868  -28.8616   21.1797 C   0  0  1  0  0  0  0  0  0  0  0  0
  -28.4885  -29.7480   22.3293 C   0  0  2  0  0  0  0  0  0  0  0  0
  -24.0853  -29.9221   20.4868 C   0  0  0  0  0  0  0  0  0  0  0  0
  -27.8678  -16.7352   22.2374 N   0  0  0  0  0  0  0  0  0  0  0  0
  -27.6013  -18.6846   15.9724 N   0  0  0  0  0  0  0  0  0  0  0  0
  -28.2992  -20.1942   17.4441 N   0  0  0  0  0  0  0  0  0  0  0  0
  -28.9894  -17.3085   21.7689 N   0  0  0  0  0  0  0  0  0  0  0  0
  -24.1702  -26.6880   22.0354 N   0  0  0  0  0  0  0  0  0  0  0  0
  -29.8789  -20.7894   23.0730 N   0  0  0  0  0  0  0  0  0  0  0  0
  -30.4896  -17.3033   19.9358 N   0  0  0  0  0  0  0  0  0  0  0  0
  -27.4312  -14.1848   18.7880 N   0  0  0  0  0  0  0  0  0  0  0  0
  -20.9174  -26.3286   22.8480 N   0  0  0  0  0  0  0  0  0  0  0  0
  -26.1632  -29.4171   21.8400 N   0  0  0  0  0  0  0  0  0  0  0  0
  -30.8039  -21.9570   21.2359 N   0  0  0  0  0  0  0  0  0  0  0  0
  -29.6563  -28.8577   22.5834 N   0  3  0  0  0  0  0  0  0  0  0  0
  -30.1214  -23.4382   18.0588 N   0  3  1  0  0  0  0  0  0  0  0  0
  -29.3578  -15.2364   18.1237 O   0  0  0  0  0  0  0  0  0  0  0  0
  -21.9438  -25.1482   21.1229 O   0  0  0  0  0  0  0  0  0  0  0  0
  -23.7539  -28.6664   23.1968 O   0  0  0  0  0  0  0  0  0  0  0  0
  -27.7277  -28.1902   20.6466 O   0  0  0  0  0  0  0  0  0  0  0  0
  -31.2053  -22.6670   23.3788 O   0  0  0  0  0  0  0  0  0  0  0  0
  -22.9959  -12.6589   21.7938 O   0  0  0  0  0  0  0  0  0  0  0  0
  -26.2468  -21.7643   18.9536 O   0  0  0  0  0  0  0  0  0  1  0  0
  -23.4715   -7.3129   20.5296 F   0  0  0  0  0  0  0  0  0  0  0  0
  -23.7466  -11.8632   19.2549 F   0  0  0  0  0  0  0  0  0  0  0  0
  1  2  1  0  0  0  0
  1  5  2  0  0  0  0
  2  6  2  0  0  0  0
  3  8  2  0  0  0  0
  3 15  1  0  0  0  0
  4  9  1  0  0  0  0
  4 15  2  0  0  0  0
  5 17  1  0  0  0  0
  6 19  1  0  0  0  0
  7 10  2  0  0  0  0
  7 18  1  0  0  0  0
  8 21  1  0  0  0  0
  9 21  2  0  0  0  0
 10 22  1  0  0  0  0
 11 12  2  0  0  0  0
 11 23  1  0  0  0  0
 12 24  1  0  0  0  0
 13 20  1  0  0  0  0
 13 22  2  0  0  0  0
 14 24  2  0  0  0  0
 14 25  1  0  0  0  0
 15 26  1  0  0  0  0
 16 26  1  0  0  0  0
 16 29  2  0  0  0  0
 16 31  1  0  0  0  0
 17 19  2  0  0  0  0
 17 36  1  0  0  0  0
 18 20  2  0  0  0  0
 18 37  1  0  0  0  0
 19 45  1  0  0  0  0
 20 38  1  0  0  0  0
 21 83  1  0  0  0  0
 22 84  1  0  0  0  0
 23 25  2  0  0  0  0
 23 83  1  0  0  0  0
 24 85  1  0  0  0  0
 25 86  1  0  0  0  0
 26 65  2  0  0  0  0
 27 28  2  0  0  0  0
 27 48  1  0  0  0  0
 27 66  1  0  0  0  0
 28 56  1  0  0  0  0
 28 67  1  0  0  0  0
 29 68  1  0  0  0  0
 29 71  1  0  0  0  0
 30 49  1  0  0  0  0
 30 66  2  0  0  0  0
 30 67  1  0  0  0  0
 31 72  1  0  0  0  0
 31 78  2  0  0  0  0
 32 46  1  0  0  0  0
 32 73  1  0  0  0  0
 32 79  2  0  0  0  0
 33 62  1  0  0  0  0
 33 69  1  0  0  0  0
 33 80  2  0  0  0  0
 34 63  1  0  0  0  0
 34 74  1  0  0  0  0
 34 81  2  0  0  0  0
 35 70  1  0  0  0  0
 35 75  1  0  0  0  0
 35 82  2  0  0  0  0
 36 39  1  0  0  0  0
 37 46  1  0  0  0  0
 38 69  1  0  0  0  0
 39 41  1  0  0  0  0
 40 42  1  0  0  0  0
 40 43  1  0  0  0  0
 41 45  1  0  0  0  0
 42 47  1  0  0  0  0
 43 70  1  0  0  0  0
 44 47  1  0  0  0  0
 44 70  1  0  0  0  0
 45 73  1  0  0  0  0
 46 69  1  0  0  0  0
 47 68  1  0  0  0  0
 50 63  1  0  0  0  0
 51 64  1  0  0  0  0
 52 64  1  0  0  0  0
 53 64  1  0  0  0  0
 54 76  1  0  0  0  0
 55 77  1  0  0  0  0
 56 84  1  0  0  0  0
 57 59  1  0  0  0  0
 57 60  1  0  0  0  0
 58 61  1  0  0  0  0
 58 67  1  0  0  0  0
 59 75  1  0  0  0  0
 60 77  1  0  0  0  0
 61 77  1  0  0  0  0
 62 64  1  0  0  0  0
 62 74  1  0  0  0  0
 63 76  1  0  0  0  0
 65 68  1  0  0  0  0
M  CHG  2  76   1  77   1
M  ISO  4  35 100  56 101  75 100  84 101
M  END
> <Batch ID>
0049

> <Smiles>
CNC(C)C(=O)NC(C(=O)N1Cc2cc([101O:1][101CH2:1]c3c(C)nc(C)n3CCN(C)CCC[100NH:0][100C:0](=O)N3CCCC(n4nc(-c5ccc(Oc6ccc(F)cc6F)cc5)c(C(N)=O)c4N)C3)ccc2CC1C(=O)NC1CCCc2ccccc21)C(C)(C)C

> <Shape>
0.226

> <Color>
0.055

> <Negative vol penalty>
0.000

$$$$

  -OEChem-04052317293D

 84 92  0     1  0  0  0  0  0999 V2000
  -24.9693  -29.8539   24.3036 C   0  0  0  0  0  0  0  0  0  0  0  0
  -24.6558  -28.4989   24.3340 C   0  0  0  0  0  0  0  0  0  0  0  0
  -19.1284  -21.4572   20.3667 C   0  0  0  0  0  0  0  0  0  0  0  0
  -21.1393  -22.1495   21.5130 C   0  0  0  0  0  0  0  0  0  0  0  0
  -25.5632  -30.4056   23.1693 C   0  0  0  0  0  0  0  0  0  0  0  0
  -24.9350  -27.6949   23.2294 C   0  0  0  0  0  0  0  0  0  0  0  0
  -26.6668  -21.8210   23.2951 C   0  0  0  0  0  0  0  0  0  0  0  0
  -18.8643  -22.7843   20.0283 C   0  0  0  0  0  0  0  0  0  0  0  0
  -20.8752  -23.4767   21.1745 C   0  0  0  0  0  0  0  0  0  0  0  0
  -25.9604  -20.6327   23.1142 C   0  0  0  0  0  0  0  0  0  0  0  0
  -18.8638  -25.9703   22.2546 C   0  0  0  0  0  0  0  0  0  0  0  0
  -19.0114  -26.9350   23.2512 C   0  0  0  0  0  0  0  0  0  0  0  0
  -26.6078  -20.6088   20.7905 C   0  0  0  0  0  0  0  0  0  0  0  0
  -20.6889  -28.0535   21.9201 C   0  0  0  0  0  0  0  0  0  0  0  0
  -25.0737  -11.5712   21.3003 C   0  0  0  0  0  0  0  0  0  0  0  0
  -20.2658  -21.1397   21.1091 C   0  0  0  0  0  0  0  0  0  0  0  0
  -20.7391  -18.6900   20.5779 C   0  0  0  0  0  0  0  0  0  0  0  0
  -25.8587  -29.6060   22.0539 C   0  0  0  0  0  0  0  0  0  0  0  0
  -27.3411  -22.4188   22.2207 C   0  0  0  0  0  0  0  0  0  0  0  0
  -25.5322  -28.2367   22.0785 C   0  0  0  0  0  0  0  0  0  0  0  0
  -27.3242  -21.8033   20.9610 C   0  0  0  0  0  0  0  0  0  0  0  0
  -19.7377  -23.7941   20.4321 C   0  0  0  0  0  0  0  0  0  0  0  0
  -25.9284  -20.0280   21.8610 C   0  0  0  0  0  0  0  0  0  0  0  0
  -19.6288  -26.0472   21.0907 C   0  0  0  0  0  0  0  0  0  0  0  0
  -19.9239  -27.9766   23.0840 C   0  0  0  0  0  0  0  0  0  0  0  0
  -20.5413  -27.0888   20.9235 C   0  0  0  0  0  0  0  0  0  0  0  0
  -20.5388  -19.7691   21.4595 C   0  0  0  0  0  0  0  0  0  0  0  0
  -24.4689  -12.6424   21.9201 C   0  0  0  0  0  0  0  0  0  0  0  0
  -26.1820  -13.0042   19.9047 C   0  0  0  0  0  0  0  0  0  0  0  0
  -25.5767  -14.0755   20.5240 C   0  0  0  0  0  0  0  0  0  0  0  0
  -20.9609  -17.6119   21.3996 C   0  0  0  0  0  0  0  0  0  0  0  0
  -20.7259  -18.6644   19.1444 C   0  0  0  0  0  0  0  0  0  0  0  0
  -27.1077  -25.1957   20.6917 C   0  0  0  0  0  0  0  0  0  0  0  0
  -29.7679  -24.1358   19.1678 C   0  0  0  0  0  0  0  0  0  0  0  0
  -31.6867  -21.4876   18.1922 C   0  0  0  0  0  0  0  0  0  0  0  0
  -23.4085  -15.3120   25.8566 C   0  0  0  0  0  0  0  0  0  0  0  0
  -26.4578  -30.2569   20.8324 C   0  0  0  0  0  0  0  0  0  0  0  0
  -28.1208  -23.6865   22.4386 C   0  0  0  0  0  0  0  0  0  0  0  0
  -28.0485  -22.3939   19.7799 C   0  0  0  0  0  0  0  0  0  0  0  0
  -27.0634  -29.2609   19.8467 C   0  0  0  0  0  0  0  0  0  0  0  0
  -20.3835  -17.1095   26.3996 C   0  0  0  0  0  0  0  0  0  0  0  0
  -26.1076  -28.0960   19.6098 C   0  0  0  0  0  0  0  0  0  0  0  0
  -20.1744  -17.8770   25.0930 C   0  0  0  0  0  0  0  0  0  0  0  0
  -21.8621  -17.0181   26.7701 C   0  0  0  0  0  0  0  0  0  0  0  0
  -22.5237  -17.2382   24.4063 C   0  0  0  0  0  0  0  0  0  0  0  0
  -25.8423  -27.3269   20.9096 C   0  0  1  0  0  0  0  0  0  0  0  0
  -28.3445  -24.4787   21.1542 C   0  0  1  0  0  0  0  0  0  0  0  0
  -21.0526  -17.3085   23.9621 C   0  0  2  0  0  0  0  0  0  0  0  0
  -27.1395  -13.1967   18.7787 C   0  0  0  0  0  0  0  0  0  0  0  0
  -33.7821  -20.9331   16.9276 C   0  0  0  0  0  0  0  0  0  0  0  0
  -28.3117  -24.6469   16.5356 C   0  0  0  0  0  0  0  0  0  0  0  0
  -30.0239  -23.2223   15.3923 C   0  0  0  0  0  0  0  0  0  0  0  0
  -30.7195  -25.3228   16.5441 C   0  0  0  0  0  0  0  0  0  0  0  0
  -32.9350  -20.2507   20.5735 C   0  0  0  0  0  0  0  0  0  0  0  0
  -23.5164  -12.4259   23.0433 C   0  0  0  0  0  0  0  0  0  0  0  0
  -25.8543  -15.4931   20.0918 C   0  0  0  0  0  0  0  0  0  0  0  0
  -24.1685  -12.4029   24.4412 C   0  0  0  0  0  0  0  0  0  0  0  0
  -25.3635  -16.5476   21.0861 C   0  0  0  0  0  0  0  0  0  0  0  0
  -24.9397  -13.6727   24.7948 C   0  0  0  0  0  0  0  0  0  0  0  0
  -25.7242  -17.9725   20.6824 C   0  0  0  0  0  0  0  0  0  1  0  0
  -30.0351  -23.3195   17.9263 C   0  0  1  0  0  0  0  0  0  0  0  0
  -33.1804  -21.2353   18.2912 C   0  0  2  0  0  0  0  0  0  0  0  0
  -29.7572  -24.1175   16.6212 C   0  0  0  0  0  0  0  0  0  0  0  0
  -25.9412  -11.7328   20.2815 N   0  0  0  0  0  0  0  0  0  0  0  0
  -20.6256  -19.4093   22.7429 N   0  0  0  0  0  0  0  0  0  0  0  0
  -24.7095  -13.9138   21.5430 N   0  0  0  0  0  0  0  0  0  0  0  0
  -20.8827  -18.0921   22.6737 N   0  0  0  0  0  0  0  0  0  0  0  0
  -28.7915  -23.6376   20.0420 N   0  0  0  0  0  0  0  0  0  0  0  0
  -22.6391  -16.4699   25.6557 N   0  0  0  0  0  0  0  0  0  0  0  0
  -21.2131  -16.3096   21.1492 N   0  0  0  0  0  0  0  0  0  0  0  0
  -21.9287  -18.8893   18.4611 N   0  0  0  0  0  0  0  0  0  0  0  0
  -26.9601  -26.4628   21.2228 N   0  0  0  0  0  0  0  0  0  0  0  0
  -31.4039  -22.8293   18.0469 N   0  0  0  0  0  0  0  0  0  0  0  0
  -24.1092  -14.8554   24.7470 N   0  0  0  0  0  0  0  0  0  0  0  0
  -33.4518  -20.0790   19.1913 N   0  3  0  0  0  0  0  0  0  0  0  0
  -19.6753  -18.4646   18.4887 O   0  0  0  0  0  0  0  0  0  0  0  0
  -26.3446  -24.6411   19.9096 O   0  0  0  0  0  0  0  0  0  0  0  0
  -30.4072  -25.1734   19.3585 O   0  0  0  0  0  0  0  0  0  0  0  0
  -30.8543  -20.5844   18.2354 O   0  0  0  0  0  0  0  0  0  0  0  0
  -23.4624  -14.7253   26.9428 O   0  0  0  0  0  0  0  0  0  0  0  0
  -19.4805  -25.0892   20.1019 O   0  0  0  0  0  0  0  0  0  0  0  0
  -25.2390  -18.8684   21.6815 O   0  0  0  0  0  0  0  0  0  1  0  0
  -20.0645  -28.9037   24.0404 F   0  0  0  0  0  0  0  0  0  0  0  0
  -21.2782  -27.1686   19.8070 F   0  0  0  0  0  0  0  0  0  0  0  0
  1  2  1  0  0  0  0
  1  5  2  0  0  0  0
  2  6  2  0  0  0  0
  3  8  2  0  0  0  0
  3 16  1  0  0  0  0
  4  9  1  0  0  0  0
  4 16  2  0  0  0  0
  5 18  1  0  0  0  0
  6 20  1  0  0  0  0
  7 10  2  0  0  0  0
  7 19  1  0  0  0  0
  8 22  1  0  0  0  0
  9 22  2  0  0  0  0
 10 23  1  0  0  0  0
 11 12  2  0  0  0  0
 11 24  1  0  0  0  0
 12 25  1  0  0  0  0
 13 21  1  0  0  0  0
 13 23  2  0  0  0  0
 14 25  2  0  0  0  0
 14 26  1  0  0  0  0
 15 28  1  0  0  0  0
 15 64  2  0  0  0  0
 16 27  1  0  0  0  0
 17 27  1  0  0  0  0
 17 31  2  0  0  0  0
 17 32  1  0  0  0  0
 18 20  2  0  0  0  0
 18 37  1  0  0  0  0
 19 21  2  0  0  0  0
 19 38  1  0  0  0  0
 20 46  1  0  0  0  0
 21 39  1  0  0  0  0
 22 81  1  0  0  0  0
 23 82  1  0  0  0  0
 24 26  2  0  0  0  0
 24 81  1  0  0  0  0
 25 83  1  0  0  0  0
 26 84  1  0  0  0  0
 27 65  2  0  0  0  0
 28 55  1  0  0  0  0
 28 66  2  0  0  0  0
 29 30  2  0  0  0  0
 29 49  1  0  0  0  0
 29 64  1  0  0  0  0
 30 56  1  0  0  0  0
 30 66  1  0  0  0  0
 31 67  1  0  0  0  0
 31 70  1  0  0  0  0
 32 71  1  0  0  0  0
 32 76  2  0  0  0  0
 33 47  1  0  0  0  0
 33 72  1  0  0  0  0
 33 77  2  0  0  0  0
 34 61  1  0  0  0  0
 34 68  1  0  0  0  0
 34 78  2  0  0  0  0
 35 62  1  0  0  0  0
 35 73  1  0  0  0  0
 35 79  2  0  0  0  0
 36 69  1  0  0  0  0
 36 74  1  0  0  0  0
 36 80  2  0  0  0  0
 37 40  1  0  0  0  0
 38 47  1  0  0  0  0
 39 68  1  0  0  0  0
 40 42  1  0  0  0  0
 41 43  1  0  0  0  0
 41 44  1  0  0  0  0
 42 46  1  0  0  0  0
 43 48  1  0  0  0  0
 44 69  1  0  0  0  0
 45 48  1  0  0  0  0
 45 69  1  0  0  0  0
 46 72  1  0  0  0  0
 47 68  1  0  0  0  0
 48 67  1  0  0  0  0
 50 62  1  0  0  0  0
 51 63  1  0  0  0  0
 52 63  1  0  0  0  0
 53 63  1  0  0  0  0
 54 75  1  0  0  0  0
 55 57  1  0  0  0  0
 56 58  1  0  0  0  0
 57 59  1  0  0  0  0
 58 60  1  0  0  0  0
 59 74  1  0  0  0  0
 60 82  1  0  0  0  0
 61 63  1  0  0  0  0
 61 73  1  0  0  0  0
 62 75  1  0  0  0  0
 65 67  1  0  0  0  0
M  CHG  1  75   1
M  ISO  4  36 100  60 101  74 100  82 101
M  END
> <Batch ID>
0049

> <Smiles>
CNC(C)C(=O)NC(C(=O)N1Cc2cc([101O:1][101CH2:1]CCc3nc(CCC[100NH:0][100C:0](=O)N4CCCC(n5nc(-c6ccc(Oc7ccc(F)cc7F)cc6)c(C(N)=O)c5N)C4)cnc3C)ccc2CC1C(=O)NC1CCCc2ccccc21)C(C)(C)C

> <Shape>
0.173

> <Color>
0.069

> <Negative vol penalty>
0.000

$$$$

  -OEChem-04052317293D

 83 91  0     1  0  0  0  0  0999 V2000
  -27.2100  -19.1020   29.0548 C   0  0  0  0  0  0  0  0  0  0  0  0
  -27.0933  -19.3520   27.6913 C   0  0  0  0  0  0  0  0  0  0  0  0
  -23.0736   -9.8701   19.9414 C   0  0  0  0  0  0  0  0  0  0  0  0
  -23.8383   -9.8745   22.2332 C   0  0  0  0  0  0  0  0  0  0  0  0
  -26.2121  -18.3907   29.7199 C   0  0  0  0  0  0  0  0  0  0  0  0
  -25.9790  -18.8900   26.9917 C   0  0  0  0  0  0  0  0  0  0  0  0
  -24.0594  -22.3843   23.8693 C   0  0  0  0  0  0  0  0  0  0  0  0
  -22.3305   -8.7165   20.1915 C   0  0  0  0  0  0  0  0  0  0  0  0
  -23.0952   -8.7209   22.4834 C   0  0  0  0  0  0  0  0  0  0  0  0
  -24.7230  -22.5918   22.6608 C   0  0  0  0  0  0  0  0  0  0  0  0
  -19.8684   -7.9219   23.0917 C   0  0  0  0  0  0  0  0  0  0  0  0
  -19.1139   -7.8804   24.2642 C   0  0  0  0  0  0  0  0  0  0  0  0
  -23.0882  -21.2213   21.5347 C   0  0  0  0  0  0  0  0  0  0  0  0
  -20.3572   -5.9423   24.9957 C   0  0  0  0  0  0  0  0  0  0  0  0
  -26.9752  -18.1839   21.6826 C   0  0  0  0  0  0  0  0  0  0  0  0
  -23.8276  -10.4491   20.9622 C   0  0  0  0  0  0  0  0  0  0  0  0
  -24.1688  -12.9744   20.8444 C   0  0  0  0  0  0  0  0  0  0  0  0
  -25.0804  -17.9281   29.0301 C   0  0  0  0  0  0  0  0  0  0  0  0
  -22.9094  -21.5835   23.9214 C   0  0  0  0  0  0  0  0  0  0  0  0
  -24.9657  -18.1708   27.6479 C   0  0  0  0  0  0  0  0  0  0  0  0
  -22.4103  -21.0073   22.7445 C   0  0  0  0  0  0  0  0  0  0  0  0
  -28.6233  -19.2486   19.8497 C   0  0  0  0  0  0  0  0  0  0  0  0
  -22.3412   -8.1419   21.4625 C   0  0  0  0  0  0  0  0  0  0  0  0
  -24.2391  -22.0079   21.4938 C   0  0  0  0  0  0  0  0  0  0  0  0
  -20.8673   -6.9735   22.8712 C   0  0  0  0  0  0  0  0  0  0  0  0
  -19.3583   -6.8907   25.2162 C   0  0  0  0  0  0  0  0  0  0  0  0
  -21.1117   -5.9838   23.8232 C   0  0  0  0  0  0  0  0  0  0  0  0
  -24.5960  -11.6404   20.7042 C   0  0  0  0  0  0  0  0  0  0  0  0
  -27.2686  -19.5108   19.8605 C   0  0  0  0  0  0  0  0  0  0  0  0
  -29.0758  -18.4036   20.8424 C   0  0  0  0  0  0  0  0  0  0  0  0
  -25.2600  -13.7245   20.4797 C   0  0  0  0  0  0  0  0  0  0  0  0
  -22.8991  -13.4895   21.2666 C   0  0  0  0  0  0  0  0  0  0  0  0
  -22.1260  -18.8763   25.3915 C   0  0  0  0  0  0  0  0  0  0  0  0
  -19.1892  -19.5209   24.1741 C   0  0  0  0  0  0  0  0  0  0  0  0
  -17.3230  -21.0981   21.7915 C   0  0  0  0  0  0  0  0  0  0  0  0
  -30.7440  -14.7442   20.6577 C   0  0  0  0  0  0  0  0  0  0  0  0
  -24.0506  -17.1229   29.7823 C   0  0  0  0  0  0  0  0  0  0  0  0
  -22.1899  -21.3913   25.2282 C   0  0  0  0  0  0  0  0  0  0  0  0
  -21.1681  -20.1557   22.7435 C   0  0  0  0  0  0  0  0  0  0  0  0
  -22.7212  -16.9921   29.0435 C   0  0  0  0  0  0  0  0  0  0  0  0
  -29.6018  -12.3623   18.2705 C   0  0  0  0  0  0  0  0  0  0  0  0
  -22.9564  -16.6202   27.5830 C   0  0  0  0  0  0  0  0  0  0  0  0
  -28.1653  -12.0678   18.7061 C   0  0  0  0  0  0  0  0  0  0  0  0
  -30.5214  -12.5819   19.4697 C   0  0  0  0  0  0  0  0  0  0  0  0
  -28.6225  -13.3110   20.8612 C   0  0  0  0  0  0  0  0  0  0  0  0
  -23.7600  -17.7075   26.8594 C   0  0  1  0  0  0  0  0  0  0  0  0
  -21.3211  -20.1375   25.2532 C   0  0  1  0  0  0  0  0  0  0  0  0
  -27.6458  -13.1376   19.6854 C   0  0  2  0  0  0  0  0  0  0  0  0
  -29.5365  -19.8383   18.8341 C   0  0  0  0  0  0  0  0  0  0  0  0
  -14.9511  -21.4074   21.0325 C   0  0  0  0  0  0  0  0  0  0  0  0
  -19.2139  -16.7202   22.9637 C   0  0  0  0  0  0  0  0  0  0  0  0
  -17.3261  -17.4219   21.4765 C   0  0  0  0  0  0  0  0  0  0  0  0
  -17.0228  -17.4101   23.9525 C   0  0  0  0  0  0  0  0  0  0  0  0
  -17.4420  -24.0227   22.2292 C   0  0  0  0  0  0  0  0  0  0  0  0
  -26.6584  -20.4206   18.8244 C   0  0  0  0  0  0  0  0  0  0  0  0
  -30.5234  -18.0474   20.9307 C   0  0  0  0  0  0  0  0  0  0  0  0
  -26.9204  -21.9067   19.0786 C   0  0  0  0  0  0  0  0  0  0  0  0
  -30.8121  -16.8933   21.8969 C   0  0  0  0  0  0  0  0  0  0  0  0
  -26.2957  -22.4173   20.3718 C   0  0  0  0  0  0  0  0  0  1  0  0
  -18.4685  -19.1910   22.8893 C   0  0  1  0  0  0  0  0  0  0  0  0
  -16.0764  -21.9583   21.8946 C   0  0  2  0  0  0  0  0  0  0  0  0
  -18.0323  -17.7002   22.8205 C   0  0  0  0  0  0  0  0  0  0  0  0
  -26.4121  -18.9936   20.7656 N   0  0  0  0  0  0  0  0  0  0  0  0
  -28.2766  -17.8514   21.7787 N   0  0  0  0  0  0  0  0  0  0  0  0
  -25.8600  -11.5452   20.2831 N   0  0  0  0  0  0  0  0  0  0  0  0
  -26.2364  -12.8290   20.1555 N   0  0  0  0  0  0  0  0  0  0  0  0
  -20.5036  -19.9922   24.0470 N   0  0  0  0  0  0  0  0  0  0  0  0
  -29.9725  -13.6093   20.3581 N   0  0  0  0  0  0  0  0  0  0  0  0
  -25.4701  -15.0561   20.4078 N   0  0  0  0  0  0  0  0  0  0  0  0
  -21.8880  -12.5798   21.6049 N   0  0  0  0  0  0  0  0  0  0  0  0
  -22.9085  -18.8302   26.5295 N   0  0  0  0  0  0  0  0  0  0  0  0
  -17.3668  -20.1414   22.7836 N   0  0  0  0  0  0  0  0  0  0  0  0
  -30.1465  -15.6720   21.5021 N   0  0  0  0  0  0  0  0  0  0  0  0
  -16.3697  -23.3505   21.4512 N   0  3  0  0  0  0  0  0  0  0  0  0
  -22.6628  -14.7200   21.3258 O   0  0  0  0  0  0  0  0  0  0  0  0
  -22.0422  -18.0086   24.5302 O   0  0  0  0  0  0  0  0  0  0  0  0
  -18.6050  -19.3730   25.2504 O   0  0  0  0  0  0  0  0  0  0  0  0
  -18.1710  -21.2564   20.9162 O   0  0  0  0  0  0  0  0  0  0  0  0
  -31.8790  -14.9204   20.2019 O   0  0  0  0  0  0  0  0  0  0  0  0
  -21.6160   -7.0164   21.7071 O   0  0  0  0  0  0  0  0  0  0  0  0
  -24.8853  -22.2083   20.3130 O   0  0  0  0  0  0  0  0  0  1  0  0
  -18.6348   -6.8520   26.3427 F   0  0  0  0  0  0  0  0  0  0  0  0
  -22.0707   -5.0707   23.6175 F   0  0  0  0  0  0  0  0  0  0  0  0
  1  2  1  0  0  0  0
  1  5  2  0  0  0  0
  2  6  2  0  0  0  0
  3  8  2  0  0  0  0
  3 16  1  0  0  0  0
  4  9  1  0  0  0  0
  4 16  2  0  0  0  0
  5 18  1  0  0  0  0
  6 20  1  0  0  0  0
  7 10  2  0  0  0  0
  7 19  1  0  0  0  0
  8 23  1  0  0  0  0
  9 23  2  0  0  0  0
 10 24  1  0  0  0  0
 11 12  2  0  0  0  0
 11 25  1  0  0  0  0
 12 26  1  0  0  0  0
 13 21  1  0  0  0  0
 13 24  2  0  0  0  0
 14 26  2  0  0  0  0
 14 27  1  0  0  0  0
 15 63  2  0  0  0  0
 15 64  1  0  0  0  0
 16 28  1  0  0  0  0
 17 28  1  0  0  0  0
 17 31  2  0  0  0  0
 17 32  1  0  0  0  0
 18 20  2  0  0  0  0
 18 37  1  0  0  0  0
 19 21  2  0  0  0  0
 19 38  1  0  0  0  0
 20 46  1  0  0  0  0
 21 39  1  0  0  0  0
 22 29  2  0  0  0  0
 22 30  1  0  0  0  0
 22 49  1  0  0  0  0
 23 80  1  0  0  0  0
 24 81  1  0  0  0  0
 25 27  2  0  0  0  0
 25 80  1  0  0  0  0
 26 82  1  0  0  0  0
 27 83  1  0  0  0  0
 28 65  2  0  0  0  0
 29 55  1  0  0  0  0
 29 63  1  0  0  0  0
 30 56  1  0  0  0  0
 30 64  2  0  0  0  0
 31 66  1  0  0  0  0
 31 69  1  0  0  0  0
 32 70  1  0  0  0  0
 32 75  2  0  0  0  0
 33 47  1  0  0  0  0
 33 71  1  0  0  0  0
 33 76  2  0  0  0  0
 34 60  1  0  0  0  0
 34 67  1  0  0  0  0
 34 77  2  0  0  0  0
 35 61  1  0  0  0  0
 35 72  1  0  0  0  0
 35 78  2  0  0  0  0
 36 68  1  0  0  0  0
 36 73  1  0  0  0  0
 36 79  2  0  0  0  0
 37 40  1  0  0  0  0
 38 47  1  0  0  0  0
 39 67  1  0  0  0  0
 40 42  1  0  0  0  0
 41 43  1  0  0  0  0
 41 44  1  0  0  0  0
 42 46  1  0  0  0  0
 43 48  1  0  0  0  0
 44 68  1  0  0  0  0
 45 48  1  0  0  0  0
 45 68  1  0  0  0  0
 46 71  1  0  0  0  0
 47 67  1  0  0  0  0
 48 66  1  0  0  0  0
 50 61  1  0  0  0  0
 51 62  1  0  0  0  0
 52 62  1  0  0  0  0
 53 62  1  0  0  0  0
 54 74  1  0  0  0  0
 55 57  1  0  0  0  0
 56 58  1  0  0  0  0
 57 59  1  0  0  0  0
 58 73  1  0  0  0  0
 59 81  1  0  0  0  0
 60 62  1  0  0  0  0
 60 72  1  0  0  0  0
 61 74  1  0  0  0  0
 65 66  1  0  0  0  0
M  CHG  1  74   1
M  ISO  4  36 100  59 101  73 100  81 101
M  END
> <Batch ID>
0049

> <Smiles>
CNC(C)C(=O)NC(C(=O)N1Cc2cc([101O:1][101CH2:1]CCc3ncnc(CC[100NH:0][100C:0](=O)N4CCCC(n5nc(-c6ccc(Oc7ccc(F)cc7F)cc6)c(C(N)=O)c5N)C4)c3C)ccc2CC1C(=O)NC1CCCc2ccccc21)C(C)(C)C

> <Shape>
0.200

> <Color>
0.191

> <Negative vol penalty>
0.000

$$$$

  -OEChem-04052317293D

 81 89  0     1  0  0  0  0  0999 V2000
  -24.5744  -11.2784   20.3932 C   0  0  0  0  0  0  0  0  0  0  0  0
  -24.1726  -12.5693   20.7211 C   0  0  0  0  0  0  0  0  0  0  0  0
  -25.3471  -27.2930   19.9903 C   0  0  0  0  0  0  0  0  0  0  0  0
  -25.8953  -28.9273   21.6831 C   0  0  0  0  0  0  0  0  0  0  0  0
  -25.9316  -10.9623   20.3482 C   0  0  0  0  0  0  0  0  0  0  0  0
  -25.1278  -13.5447   21.0052 C   0  0  0  0  0  0  0  0  0  0  0  0
  -24.1311  -17.9598   18.7341 C   0  0  0  0  0  0  0  0  0  0  0  0
  -26.4008  -27.7558   19.2022 C   0  0  0  0  0  0  0  0  0  0  0  0
  -26.9490  -29.3901   20.8951 C   0  0  0  0  0  0  0  0  0  0  0  0
  -23.1488  -18.7645   19.3097 C   0  0  0  0  0  0  0  0  0  0  0  0
  -30.0075  -30.7628   19.4880 C   0  0  0  0  0  0  0  0  0  0  0  0
  -31.2323  -30.9959   20.1135 C   0  0  0  0  0  0  0  0  0  0  0  0
  -24.8644  -20.1072   20.3456 C   0  0  0  0  0  0  0  0  0  0  0  0
  -31.3341  -28.6755   20.7789 C   0  0  0  0  0  0  0  0  0  0  0  0
  -17.6432  -23.8211   21.9191 C   0  0  0  0  0  0  0  0  0  0  0  0
  -25.0943  -27.8787   21.2307 C   0  0  0  0  0  0  0  0  0  0  0  0
  -24.0526  -26.3818   23.0145 C   0  0  0  0  0  0  0  0  0  0  0  0
  -26.9042  -11.9367   20.6225 C   0  0  0  0  0  0  0  0  0  0  0  0
  -25.4895  -18.2167   18.9691 C   0  0  0  0  0  0  0  0  0  0  0  0
  -26.4993  -13.2409   20.9651 C   0  0  0  0  0  0  0  0  0  0  0  0
  -25.8620  -19.3059   19.7698 C   0  0  0  0  0  0  0  0  0  0  0  0
  -27.2018  -28.8044   19.6546 C   0  0  0  0  0  0  0  0  0  0  0  0
  -23.5153  -19.8366   20.1180 C   0  0  0  0  0  0  0  0  0  0  0  0
  -29.4459  -29.4861   19.5081 C   0  0  0  0  0  0  0  0  0  0  0  0
  -31.8956  -29.9523   20.7589 C   0  0  0  0  0  0  0  0  0  0  0  0
  -30.1092  -28.4425   20.1534 C   0  0  0  0  0  0  0  0  0  0  0  0
  -24.0056  -27.4015   22.0450 C   0  0  0  0  0  0  0  0  0  0  0  0
  -17.6363  -24.7788   22.9093 C   0  0  0  0  0  0  0  0  0  0  0  0
  -18.2894  -23.2058   24.4352 C   0  0  0  0  0  0  0  0  0  0  0  0
  -18.2961  -22.2480   23.4451 C   0  0  0  0  0  0  0  0  0  0  0  0
  -22.7698  -26.3103   23.5001 C   0  0  0  0  0  0  0  0  0  0  0  0
  -25.1571  -25.5717   23.4382 C   0  0  0  0  0  0  0  0  0  0  0  0
  -17.2723  -26.1726   22.6237 C   0  0  0  0  0  0  0  0  0  0  0  0
  -27.8750  -16.6094   20.3217 C   0  0  0  0  0  0  0  0  0  0  0  0
  -29.6467  -19.1082   19.2542 C   0  0  0  0  0  0  0  0  0  0  0  0
  -29.7546  -22.3787   18.2852 C   0  0  0  0  0  0  0  0  0  0  0  0
  -28.3580  -11.5356   20.6075 C   0  0  0  0  0  0  0  0  0  0  0  0
  -26.5375  -17.3555   18.3192 C   0  0  0  0  0  0  0  0  0  0  0  0
  -27.3070  -19.6363   20.0368 C   0  0  0  0  0  0  0  0  0  0  0  0
  -29.3167  -12.7224   20.5557 C   0  0  0  0  0  0  0  0  0  0  0  0
  -18.8097  -29.3866   22.8436 C   0  0  0  0  0  0  0  0  0  0  0  0
  -28.9044  -13.7864   21.5680 C   0  0  0  0  0  0  0  0  0  0  0  0
  -20.3025  -29.0780   22.7155 C   0  0  0  0  0  0  0  0  0  0  0  0
  -17.9654  -28.4554   21.9771 C   0  0  0  0  0  0  0  0  0  0  0  0
  -19.7049  -26.7036   22.0783 C   0  0  0  0  0  0  0  0  0  0  0  0
  -27.5061  -14.3328   21.2555 C   0  0  1  0  0  0  0  0  0  0  0  0
  -27.8796  -17.3986   19.0432 C   0  0  1  0  0  0  0  0  0  0  0  0
  -20.5881  -27.5868   22.9750 C   0  0  1  0  0  0  0  0  0  0  0  0
  -18.6469  -22.8711   25.8430 C   0  0  0  0  0  0  0  0  0  0  0  0
  -31.3512  -24.1501   17.5041 C   0  0  0  0  0  0  0  0  0  0  0  0
  -30.6744  -19.4369   22.1083 C   0  0  0  0  0  0  0  0  0  0  0  0
  -31.4778  -21.7238   21.4813 C   0  0  0  0  0  0  0  0  0  0  0  0
  -32.4147  -19.7166   20.3341 C   0  0  0  0  0  0  0  0  0  0  0  0
  -28.3347  -22.6851   15.7066 C   0  0  0  0  0  0  0  0  0  0  0  0
  -18.6654  -20.8158   23.7388 C   0  0  0  0  0  0  0  0  0  0  0  0
  -19.3428  -20.0981   22.5661 C   0  0  0  0  0  0  0  0  0  0  0  0
  -20.6842  -20.7213   22.1771 C   0  0  0  0  0  0  0  0  0  0  0  0
  -21.3074  -20.0076   20.9852 C   0  0  0  0  0  0  0  0  0  1  0  0
  -30.0510  -20.4495   19.8166 C   0  0  1  0  0  0  0  0  0  0  0  0
  -30.3878  -23.0521   17.0811 C   0  0  2  0  0  0  0  0  0  0  0  0
  -31.1271  -20.3246   20.9318 C   0  0  0  0  0  0  0  0  0  0  0  0
  -17.9734  -22.5385   22.1692 N   0  0  0  0  0  0  0  0  0  0  0  0
  -22.7892  -27.9390   21.9206 N   0  0  0  0  0  0  0  0  0  0  0  0
  -17.9593  -24.4884   24.1851 N   0  0  0  0  0  0  0  0  0  0  0  0
  -22.0600  -27.2544   22.8182 N   0  0  0  0  0  0  0  0  0  0  0  0
  -18.2889  -27.0563   22.2538 N   0  0  0  0  0  0  0  0  0  0  0  0
  -28.2944  -18.7610   19.3839 N   0  0  0  0  0  0  0  0  0  0  0  0
  -22.1911  -25.5324   24.4394 N   0  0  0  0  0  0  0  0  0  0  0  0
  -26.4058  -25.7763   22.8354 N   0  0  0  0  0  0  0  0  0  0  0  0
  -27.5648  -15.2729   20.1568 N   0  0  0  0  0  0  0  0  0  0  0  0
  -30.4628  -21.2624   18.6772 N   0  0  0  0  0  0  0  0  0  0  0  0
  -29.3374  -23.6569   16.2139 N   0  3  0  0  0  0  0  0  0  0  0  0
  -25.0365  -24.6814   24.3136 O   0  0  0  0  0  0  0  0  0  0  0  0
  -16.0824  -26.4596   22.7465 O   0  0  0  0  0  0  0  0  0  0  0  0
  -28.1352  -17.1709   21.3794 O   0  0  0  0  0  0  0  0  0  0  0  0
  -30.4978  -18.3978   18.7133 O   0  0  0  0  0  0  0  0  0  0  0  0
  -28.7358  -22.8027   18.8264 O   0  0  0  0  0  0  0  0  0  0  0  0
  -28.2303  -29.2561   18.8860 O   0  0  0  0  0  0  0  0  0  0  0  0
  -22.5585  -20.6232   20.6816 O   0  0  0  0  0  0  0  0  0  1  0  0
  -33.0725  -30.1759   21.3581 F   0  0  0  0  0  0  0  0  0  0  0  0
  -29.5753  -27.2135   20.1750 F   0  0  0  0  0  0  0  0  0  0  0  0
  1  2  1  0  0  0  0
  1  5  2  0  0  0  0
  2  6  2  0  0  0  0
  3  8  2  0  0  0  0
  3 16  1  0  0  0  0
  4  9  1  0  0  0  0
  4 16  2  0  0  0  0
  5 18  1  0  0  0  0
  6 20  1  0  0  0  0
  7 10  2  0  0  0  0
  7 19  1  0  0  0  0
  8 22  1  0  0  0  0
  9 22  2  0  0  0  0
 10 23  1  0  0  0  0
 11 12  2  0  0  0  0
 11 24  1  0  0  0  0
 12 25  1  0  0  0  0
 13 21  1  0  0  0  0
 13 23  2  0  0  0  0
 14 25  2  0  0  0  0
 14 26  1  0  0  0  0
 15 28  1  0  0  0  0
 15 62  2  0  0  0  0
 16 27  1  0  0  0  0
 17 27  1  0  0  0  0
 17 31  2  0  0  0  0
 17 32  1  0  0  0  0
 18 20  2  0  0  0  0
 18 37  1  0  0  0  0
 19 21  2  0  0  0  0
 19 38  1  0  0  0  0
 20 46  1  0  0  0  0
 21 39  1  0  0  0  0
 22 78  1  0  0  0  0
 23 79  1  0  0  0  0
 24 26  2  0  0  0  0
 24 78  1  0  0  0  0
 25 80  1  0  0  0  0
 26 81  1  0  0  0  0
 27 63  2  0  0  0  0
 28 33  1  0  0  0  0
 28 64  2  0  0  0  0
 29 30  2  0  0  0  0
 29 49  1  0  0  0  0
 29 64  1  0  0  0  0
 30 55  1  0  0  0  0
 30 62  1  0  0  0  0
 31 65  1  0  0  0  0
 31 68  1  0  0  0  0
 32 69  1  0  0  0  0
 32 73  2  0  0  0  0
 33 66  1  0  0  0  0
 33 74  2  0  0  0  0
 34 47  1  0  0  0  0
 34 70  1  0  0  0  0
 34 75  2  0  0  0  0
 35 59  1  0  0  0  0
 35 67  1  0  0  0  0
 35 76  2  0  0  0  0
 36 60  1  0  0  0  0
 36 71  1  0  0  0  0
 36 77  2  0  0  0  0
 37 40  1  0  0  0  0
 38 47  1  0  0  0  0
 39 67  1  0  0  0  0
 40 42  1  0  0  0  0
 41 43  1  0  0  0  0
 41 44  1  0  0  0  0
 42 46  1  0  0  0  0
 43 48  1  0  0  0  0
 44 66  1  0  0  0  0
 45 48  1  0  0  0  0
 45 66  1  0  0  0  0
 46 70  1  0  0  0  0
 47 67  1  0  0  0  0
 48 65  1  0  0  0  0
 50 60  1  0  0  0  0
 51 61  1  0  0  0  0
 52 61  1  0  0  0  0
 53 61  1  0  0  0  0
 54 72  1  0  0  0  0
 55 56  1  0  0  0  0
 56 57  1  0  0  0  0
 57 58  1  0  0  0  0
 58 79  1  0  0  0  0
 59 61  1  0  0  0  0
 59 71  1  0  0  0  0
 60 72  1  0  0  0  0
 63 65  1  0  0  0  0
M  CHG  1  72   1
M  ISO  4  28 100  33 100  58 101  79 101
M  END
> <Batch ID>
0049

> <Smiles>
CNC(C)C(=O)NC(C(=O)N1Cc2cc([101O:1][101CH2:1]CCCc3nc[100c:0]([100C:0](=O)N4CCCC(n5nc(-c6ccc(Oc7ccc(F)cc7F)cc6)c(C(N)=O)c5N)C4)nc3C)ccc2CC1C(=O)NC1CCCc2ccccc21)C(C)(C)C

> <Shape>
0.212

> <Color>
0.071

> <Negative vol penalty>
0.000

$$$$

  -OEChem-04052317293D

 84 92  0     1  0  0  0  0  0999 V2000
  -22.3725  -23.0637   18.2982 C   0  0  0  0  0  0  0  0  0  0  0  0
  -23.6676  -22.5568   18.3308 C   0  0  0  0  0  0  0  0  0  0  0  0
  -26.4828  -29.6906   19.7724 C   0  0  0  0  0  0  0  0  0  0  0  0
  -26.0804  -28.7558   21.9636 C   0  0  0  0  0  0  0  0  0  0  0  0
  -21.3906  -22.5181   19.1242 C   0  0  0  0  0  0  0  0  0  0  0  0
  -23.9819  -21.5047   19.1903 C   0  0  0  0  0  0  0  0  0  0  0  0
  -27.9593  -16.9651   18.1516 C   0  0  0  0  0  0  0  0  0  0  0  0
  -25.3062  -30.4329   19.8729 C   0  0  0  0  0  0  0  0  0  0  0  0
  -24.9038  -29.4982   22.0641 C   0  0  0  0  0  0  0  0  0  0  0  0
  -29.2831  -16.7699   18.5432 C   0  0  0  0  0  0  0  0  0  0  0  0
  -21.6092  -30.8722   22.7483 C   0  0  0  0  0  0  0  0  0  0  0  0
  -20.4715  -30.2222   23.2265 C   0  0  0  0  0  0  0  0  0  0  0  0
  -28.5288  -15.4381   20.4077 C   0  0  0  0  0  0  0  0  0  0  0  0
  -20.5926  -28.6582   21.3889 C   0  0  0  0  0  0  0  0  0  0  0  0
  -32.2461  -19.6183   22.8294 C   0  0  0  0  0  0  0  0  0  0  0  0
  -26.8699  -28.8520   20.8177 C   0  0  0  0  0  0  0  0  0  0  0  0
  -29.3751  -28.4766   21.1186 C   0  0  0  0  0  0  0  0  0  0  0  0
  -21.6907  -21.4524   19.9872 C   0  0  0  0  0  0  0  0  0  0  0  0
  -26.9081  -16.4064   18.8926 C   0  0  0  0  0  0  0  0  0  0  0  0
  -23.0035  -20.9452   20.0295 C   0  0  0  0  0  0  0  0  0  0  0  0
  -27.1927  -15.6255   20.0220 C   0  0  0  0  0  0  0  0  0  0  0  0
  -24.5167  -30.3367   21.0188 C   0  0  0  0  0  0  0  0  0  0  0  0
  -29.5679  -16.0087   19.6731 C   0  0  0  0  0  0  0  0  0  0  0  0
  -22.2386  -30.4152   21.5904 C   0  0  0  0  0  0  0  0  0  0  0  0
  -19.9632  -29.1152   22.5468 C   0  0  0  0  0  0  0  0  0  0  0  0
  -21.7304  -29.3082   20.9107 C   0  0  0  0  0  0  0  0  0  0  0  0
  -28.0850  -28.0845   20.7142 C   0  0  0  0  0  0  0  0  0  0  0  0
  -31.7251  -18.4189   22.4331 C   0  0  0  0  0  0  0  0  0  0  0  0
  -30.1734  -27.4029   20.8081 C   0  0  0  0  0  0  0  0  0  0  0  0
  -30.0777  -19.8969   22.4815 C   0  0  0  0  0  0  0  0  0  0  0  0
  -29.8129  -29.7017   21.7212 C   0  0  0  0  0  0  0  0  0  0  0  0
  -24.4404  -17.5765   20.5191 C   0  0  0  0  0  0  0  0  0  0  0  0
  -23.6374  -14.4457   20.7944 C   0  0  0  0  0  0  0  0  0  0  0  0
  -24.6448  -11.1850   20.7889 C   0  0  0  0  0  0  0  0  0  0  0  0
  -29.0676  -21.5552   20.1504 C   0  0  0  0  0  0  0  0  0  0  0  0
  -20.6075  -20.9268   20.8956 C   0  0  0  0  0  0  0  0  0  0  0  0
  -25.4868  -16.6040   18.4417 C   0  0  0  0  0  0  0  0  0  0  0  0
  -26.1012  -14.9871   20.8402 C   0  0  0  0  0  0  0  0  0  0  0  0
  -20.9318  -19.5658   21.5060 C   0  0  0  0  0  0  0  0  0  0  0  0
  -30.5047  -23.7465   17.7402 C   0  0  0  0  0  0  0  0  0  0  0  0
  -22.3568  -19.5505   22.0500 C   0  0  0  0  0  0  0  0  0  0  0  0
  -30.1639  -25.1422   18.2655 C   0  0  0  0  0  0  0  0  0  0  0  0
  -29.3755  -22.7529   18.0040 C   0  0  0  0  0  0  0  0  0  0  0  0
  -28.5944  -24.0703   19.9348 C   0  0  0  0  0  0  0  0  0  0  0  0
  -23.3773  -19.7882   20.9304 C   0  0  1  0  0  0  0  0  0  0  0  0
  -24.4719  -16.4160   19.5651 C   0  0  1  0  0  0  0  0  0  0  0  0
  -29.7262  -25.0941   19.7418 C   0  0  2  0  0  0  0  0  0  0  0  0
  -27.6506  -19.4921   21.9275 C   0  0  0  0  0  0  0  0  0  0  0  0
  -23.7675   -8.8518   21.0781 C   0  0  0  0  0  0  0  0  0  0  0  0
  -32.2200  -22.6857   22.2532 C   0  0  0  0  0  0  0  0  0  0  0  0
  -31.7565  -22.0913   24.6695 C   0  0  0  0  0  0  0  0  0  0  0  0
  -23.4871  -14.8787   23.8110 C   0  0  0  0  0  0  0  0  0  0  0  0
  -23.5561  -12.3928   24.1010 C   0  0  0  0  0  0  0  0  0  0  0  0
  -21.6622  -13.4510   22.8698 C   0  0  0  0  0  0  0  0  0  0  0  0
  -25.4600  -10.4148   18.0501 C   0  0  0  0  0  0  0  0  0  0  0  0
  -32.3709  -17.0724   22.2245 C   0  0  0  0  0  0  0  0  0  0  0  0
  -32.8913  -16.8525   20.8024 C   0  0  0  0  0  0  0  0  0  0  0  0
  -31.7894  -16.8543   19.7492 C   0  0  0  0  0  0  0  0  0  1  0  0
  -28.7259  -20.4993   22.3702 C   0  0  2  0  0  0  0  0  0  0  0  0
  -23.9427  -13.3467   21.7833 C   0  0  1  0  0  0  0  0  0  0  0  0
  -24.0877   -9.9598   20.0869 C   0  0  2  0  0  0  0  0  0  0  0  0
  -31.3158  -21.9129   23.2154 C   0  0  0  0  0  0  0  0  0  0  0  0
  -23.1827  -13.5308   23.1272 C   0  0  0  0  0  0  0  0  0  0  0  0
  -28.0605  -26.8576   20.1869 N   0  0  0  0  0  0  0  0  0  0  0  0
  -31.2048  -20.5145   22.8501 N   0  0  0  0  0  0  0  0  0  0  0  0
  -29.3452  -26.4695   20.2577 N   0  0  0  0  0  0  0  0  0  0  0  0
  -30.3820  -18.6205   22.2250 N   0  3  0  0  0  0  0  0  0  0  0  0
  -24.7274  -15.2147   20.3624 N   0  0  0  0  0  0  0  0  0  0  0  0
  -29.0089  -22.7549   19.4223 N   0  0  0  0  0  0  0  0  0  0  0  0
  -31.4960  -27.1756   20.9548 N   0  0  0  0  0  0  0  0  0  0  0  0
  -28.8618  -30.7003   21.9716 N   0  0  0  0  0  0  0  0  0  0  0  0
  -23.5655  -18.5816   20.1536 N   0  0  0  0  0  0  0  0  0  0  0  0
  -23.6527  -12.0907   21.1001 N   0  0  0  0  0  0  0  0  0  0  0  0
  -28.7099  -21.6463   21.4900 N   0  0  0  0  0  0  0  0  0  0  0  0
  -25.0728   -9.4363   19.0987 N   0  3  0  0  0  0  0  0  0  0  0  0
  -31.0146  -29.9114   22.0133 O   0  0  0  0  0  0  0  0  0  0  0  0
  -25.1558  -17.5604   21.5139 O   0  0  0  0  0  0  0  0  0  0  0  0
  -22.4759  -14.6111   20.4135 O   0  0  0  0  0  0  0  0  0  0  0  0
  -25.8400  -11.3231   21.0398 O   0  0  0  0  0  0  0  0  0  0  0  0
  -29.4183  -20.4832   19.6455 O   0  0  0  0  0  0  0  0  0  0  0  0
  -23.3686  -31.0611   21.1173 O   0  0  0  0  0  0  0  0  0  0  0  0
  -30.8590  -15.8172   20.0579 O   0  0  0  0  0  0  0  0  0  1  0  0
  -18.8715  -28.4902   23.0070 F   0  0  0  0  0  0  0  0  0  0  0  0
  -22.3314  -28.8639   19.7985 F   0  0  0  0  0  0  0  0  0  0  0  0
  1  2  1  0  0  0  0
  1  5  2  0  0  0  0
  2  6  2  0  0  0  0
  3  8  2  0  0  0  0
  3 16  1  0  0  0  0
  4  9  1  0  0  0  0
  4 16  2  0  0  0  0
  5 18  1  0  0  0  0
  6 20  1  0  0  0  0
  7 10  2  0  0  0  0
  7 19  1  0  0  0  0
  8 22  1  0  0  0  0
  9 22  2  0  0  0  0
 10 23  1  0  0  0  0
 11 12  2  0  0  0  0
 11 24  1  0  0  0  0
 12 25  1  0  0  0  0
 13 21  1  0  0  0  0
 13 23  2  0  0  0  0
 14 25  2  0  0  0  0
 14 26  1  0  0  0  0
 15 28  2  0  0  0  0
 15 65  1  0  0  0  0
 16 27  1  0  0  0  0
 17 27  1  0  0  0  0
 17 29  2  0  0  0  0
 17 31  1  0  0  0  0
 18 20  2  0  0  0  0
 18 36  1  0  0  0  0
 19 21  2  0  0  0  0
 19 37  1  0  0  0  0
 20 45  1  0  0  0  0
 21 38  1  0  0  0  0
 22 81  1  0  0  0  0
 23 82  1  0  0  0  0
 24 26  2  0  0  0  0
 24 81  1  0  0  0  0
 25 83  1  0  0  0  0
 26 84  1  0  0  0  0
 27 64  2  0  0  0  0
 28 56  1  0  0  0  0
 28 67  1  0  0  0  0
 29 66  1  0  0  0  0
 29 70  1  0  0  0  0
 30 59  1  0  0  0  0
 30 65  1  0  0  0  0
 30 67  2  0  0  0  0
 31 71  1  0  0  0  0
 31 76  2  0  0  0  0
 32 46  1  0  0  0  0
 32 72  1  0  0  0  0
 32 77  2  0  0  0  0
 33 60  1  0  0  0  0
 33 68  1  0  0  0  0
 33 78  2  0  0  0  0
 34 61  1  0  0  0  0
 34 73  1  0  0  0  0
 34 79  2  0  0  0  0
 35 69  1  0  0  0  0
 35 74  1  0  0  0  0
 35 80  2  0  0  0  0
 36 39  1  0  0  0  0
 37 46  1  0  0  0  0
 38 68  1  0  0  0  0
 39 41  1  0  0  0  0
 40 42  1  0  0  0  0
 40 43  1  0  0  0  0
 41 45  1  0  0  0  0
 42 47  1  0  0  0  0
 43 69  1  0  0  0  0
 44 47  1  0  0  0  0
 44 69  1  0  0  0  0
 45 72  1  0  0  0  0
 46 68  1  0  0  0  0
 47 66  1  0  0  0  0
 48 59  1  0  0  0  0
 49 61  1  0  0  0  0
 50 62  1  0  0  0  0
 51 62  1  0  0  0  0
 52 63  1  0  0  0  0
 53 63  1  0  0  0  0
 54 63  1  0  0  0  0
 55 75  1  0  0  0  0
 56 57  1  0  0  0  0
 57 58  1  0  0  0  0
 58 82  1  0  0  0  0
 59 74  1  0  0  0  0
 60 63  1  0  0  0  0
 60 73  1  0  0  0  0
 61 75  1  0  0  0  0
 62 65  1  0  0  0  0
 64 66  1  0  0  0  0
M  CHG  2  67   1  75   1
M  ISO  4  35 100  58 101  74 100  82 101
M  END
> <Batch ID>
0049

> <Smiles>
CNC(C)C(=O)NC(C(=O)N1Cc2cc([101O:1][101CH2:1]CCc3cn(C(C)C)c(C(C)[100NH:0][100C:0](=O)N4CCCC(n5nc(-c6ccc(Oc7ccc(F)cc7F)cc6)c(C(N)=O)c5N)C4)n3)ccc2CC1C(=O)NC1CCCc2ccccc21)C(C)(C)C

> <Shape>
0.253

> <Color>
0.074

> <Negative vol penalty>
0.000

$$$$

  -OEChem-04052317293D

 87 95  0     1  0  0  0  0  0999 V2000
  -21.6470  -12.6035   19.4605 C   0  0  0  0  0  0  0  0  0  0  0  0
  -21.6728  -13.8920   19.9846 C   0  0  0  0  0  0  0  0  0  0  0  0
  -25.1495  -29.8821   19.7350 C   0  0  0  0  0  0  0  0  0  0  0  0
  -23.7688  -29.3846   21.6541 C   0  0  0  0  0  0  0  0  0  0  0  0
  -22.7914  -11.8087   19.5110 C   0  0  0  0  0  0  0  0  0  0  0  0
  -22.8427  -14.3859   20.5605 C   0  0  0  0  0  0  0  0  0  0  0  0
  -23.8829  -19.1193   19.0916 C   0  0  0  0  0  0  0  0  0  0  0  0
  -20.1228  -24.1753   23.5572 C   0  0  0  0  0  0  0  0  0  0  0  0
  -25.5731  -31.0624   20.3457 C   0  0  0  0  0  0  0  0  0  0  0  0
  -24.1924  -30.5649   22.2649 C   0  0  0  0  0  0  0  0  0  0  0  0
  -23.1601  -20.1469   19.6960 C   0  0  0  0  0  0  0  0  0  0  0  0
  -25.1877  -33.2681   24.4831 C   0  0  0  0  0  0  0  0  0  0  0  0
  -25.5503  -33.2089   25.8286 C   0  0  0  0  0  0  0  0  0  0  0  0
  -20.6696  -23.0873   22.8860 C   0  0  0  0  0  0  0  0  0  0  0  0
  -25.0238  -20.5868   21.1631 C   0  0  0  0  0  0  0  0  0  0  0  0
  -27.2749  -31.6038   25.2933 C   0  0  0  0  0  0  0  0  0  0  0  0
  -20.5116  -25.4994   21.6202 C   0  0  0  0  0  0  0  0  0  0  0  0
  -24.2473  -29.0432   20.3892 C   0  0  0  0  0  0  0  0  0  0  0  0
  -24.4057  -26.5529   19.8587 C   0  0  0  0  0  0  0  0  0  0  0  0
  -23.9787  -12.2966   20.0792 C   0  0  0  0  0  0  0  0  0  0  0  0
  -25.1797  -18.8101   19.5265 C   0  0  0  0  0  0  0  0  0  0  0  0
  -24.0036  -13.5964   20.6199 C   0  0  0  0  0  0  0  0  0  0  0  0
  -25.7619  -19.5565   20.5609 C   0  0  0  0  0  0  0  0  0  0  0  0
  -20.0386  -25.4079   22.9193 C   0  0  0  0  0  0  0  0  0  0  0  0
  -25.0946  -31.4038   21.6106 C   0  0  0  0  0  0  0  0  0  0  0  0
  -23.7294  -20.8790   20.7338 C   0  0  0  0  0  0  0  0  0  0  0  0
  -25.8686  -32.4950   23.5426 C   0  0  0  0  0  0  0  0  0  0  0  0
  -26.5939  -32.3768   26.2338 C   0  0  0  0  0  0  0  0  0  0  0  0
  -26.9122  -31.6629   23.9477 C   0  0  0  0  0  0  0  0  0  0  0  0
  -23.8089  -27.8240   19.7586 C   0  0  0  0  0  0  0  0  0  0  0  0
  -21.1142  -23.2827   21.5883 C   0  0  0  0  0  0  0  0  0  0  0  0
  -23.6165  -25.7409   19.0814 C   0  0  0  0  0  0  0  0  0  0  0  0
  -25.5694  -26.1429   20.5890 C   0  0  0  0  0  0  0  0  0  0  0  0
  -26.5663  -16.2518   20.8057 C   0  0  0  0  0  0  0  0  0  0  0  0
  -17.8691  -26.1690   17.3796 C   0  0  0  0  0  0  0  0  0  0  0  0
  -29.2629  -18.0202   20.4547 C   0  0  0  0  0  0  0  0  0  0  0  0
  -30.6839  -21.1089   20.1587 C   0  0  0  0  0  0  0  0  0  0  0  0
  -25.1767  -11.3834   20.1535 C   0  0  0  0  0  0  0  0  0  0  0  0
  -25.9563  -17.7162   18.8462 C   0  0  0  0  0  0  0  0  0  0  0  0
  -27.1584  -19.2776   21.0511 C   0  0  0  0  0  0  0  0  0  0  0  0
  -26.4840  -12.1161   20.4438 C   0  0  0  0  0  0  0  0  0  0  0  0
  -20.7438  -25.8383   15.2661 C   0  0  0  0  0  0  0  0  0  0  0  0
  -26.2983  -13.1060   21.5894 C   0  0  0  0  0  0  0  0  0  0  0  0
  -21.9071  -26.2221   16.1797 C   0  0  0  0  0  0  0  0  0  0  0  0
  -19.4942  -26.6549   15.5803 C   0  0  0  0  0  0  0  0  0  0  0  0
  -20.2239  -26.9624   17.9244 C   0  0  0  0  0  0  0  0  0  0  0  0
  -25.2608  -14.1767   21.2305 C   0  0  1  0  0  0  0  0  0  0  0  0
  -27.0759  -17.1497   19.7140 C   0  0  1  0  0  0  0  0  0  0  0  0
  -21.4973  -26.1394   17.6608 C   0  0  2  0  0  0  0  0  0  0  0  0
  -20.4326  -27.7740   23.7186 C   0  0  0  0  0  0  0  0  0  0  0  0
  -32.9131  -22.2375   19.9252 C   0  0  0  0  0  0  0  0  0  0  0  0
  -29.8139  -17.5393   23.4170 C   0  0  0  0  0  0  0  0  0  0  0  0
  -31.4675  -19.4176   23.3429 C   0  0  0  0  0  0  0  0  0  0  0  0
  -31.8281  -17.3848   21.9427 C   0  0  0  0  0  0  0  0  0  0  0  0
  -29.9466  -22.2813   17.5432 C   0  0  0  0  0  0  0  0  0  0  0  0
  -14.7192  -24.7676   20.9505 C   0  0  0  0  0  0  0  0  0  0  0  0
  -21.7096  -22.1305   20.8337 C   0  0  0  0  0  0  0  0  0  1  0  0
  -17.5918  -26.1004   18.8602 C   0  0  0  0  0  0  0  0  0  0  0  0
  -15.7490  -26.9705   22.6994 C   0  0  0  0  0  0  0  0  0  0  0  0
  -16.1657  -25.6540   19.1277 C   0  0  0  0  0  0  0  0  0  0  0  0
  -16.9836  -26.3702   23.3636 C   0  0  0  0  0  0  0  0  0  0  0  0
  -15.7688  -27.0147   21.1751 C   0  0  0  0  0  0  0  0  0  0  0  0
  -19.4593  -26.5908   23.6104 C   0  0  1  0  0  0  0  0  0  0  0  0
  -30.0055  -19.0186   21.3096 C   0  0  1  0  0  0  0  0  0  0  0  0
  -31.7173  -21.6535   19.1891 C   0  0  2  0  0  0  0  0  0  0  0  0
  -30.7517  -18.3443   22.4954 C   0  0  0  0  0  0  0  0  0  0  0  0
  -21.0491  -24.4649   20.9358 N   0  0  0  0  0  0  0  0  0  0  0  0
  -22.7244  -27.8245   18.9790 N   0  0  0  0  0  0  0  0  0  0  0  0
  -22.6335  -26.5438   18.5821 N   0  0  0  0  0  0  0  0  0  0  0  0
  -27.8750  -18.1940   20.3583 N   0  0  0  0  0  0  0  0  0  0  0  0
  -19.1509  -26.5685   17.0008 N   0  0  0  0  0  0  0  0  0  0  0  0
  -23.6745  -24.4256   18.7830 N   0  0  0  0  0  0  0  0  0  0  0  0
  -26.2626  -27.1049   21.3362 N   0  0  0  0  0  0  0  0  0  0  0  0
  -25.8410  -15.1675   20.3497 N   0  0  0  0  0  0  0  0  0  0  0  0
  -30.8728  -19.7654   20.4050 N   0  0  0  0  0  0  0  0  0  0  0  0
  -31.1191  -22.7232   18.3413 N   0  3  0  0  0  0  0  0  0  0  0  0
  -18.2025  -27.1082   22.9646 N   0  3  0  0  0  0  0  0  0  0  0  0
  -15.8974  -25.6498   20.6137 N   0  3  1  0  0  0  0  0  0  0  0  0
  -25.9917  -24.9620   20.5662 O   0  0  0  0  0  0  0  0  0  0  0  0
  -26.8140  -16.5218   21.9750 O   0  0  0  0  0  0  0  0  0  0  0  0
  -16.9729  -25.8731   16.5849 O   0  0  0  0  0  0  0  0  0  0  0  0
  -29.8921  -17.1236   19.8874 O   0  0  0  0  0  0  0  0  0  0  0  0
  -29.8000  -21.8064   20.6513 O   0  0  0  0  0  0  0  0  0  0  0  0
  -25.5079  -32.5554   22.2070 O   0  0  0  0  0  0  0  0  0  0  0  0
  -23.0258  -21.8821   21.3259 O   0  0  0  0  0  0  0  0  0  1  0  0
  -26.9431  -32.3213   27.5258 F   0  0  0  0  0  0  0  0  0  0  0  0
  -27.5708  -30.9188   23.0487 F   0  0  0  0  0  0  0  0  0  0  0  0
  1  2  1  0  0  0  0
  1  5  2  0  0  0  0
  2  6  2  0  0  0  0
  3  9  2  0  0  0  0
  3 18  1  0  0  0  0
  4 10  1  0  0  0  0
  4 18  2  0  0  0  0
  5 20  1  0  0  0  0
  6 22  1  0  0  0  0
  7 11  2  0  0  0  0
  7 21  1  0  0  0  0
  8 14  2  0  0  0  0
  8 24  1  0  0  0  0
  9 25  1  0  0  0  0
 10 25  2  0  0  0  0
 11 26  1  0  0  0  0
 12 13  2  0  0  0  0
 12 27  1  0  0  0  0
 13 28  1  0  0  0  0
 14 31  1  0  0  0  0
 15 23  1  0  0  0  0
 15 26  2  0  0  0  0
 16 28  2  0  0  0  0
 16 29  1  0  0  0  0
 17 24  2  0  0  0  0
 17 67  1  0  0  0  0
 18 30  1  0  0  0  0
 19 30  1  0  0  0  0
 19 32  2  0  0  0  0
 19 33  1  0  0  0  0
 20 22  2  0  0  0  0
 20 38  1  0  0  0  0
 21 23  2  0  0  0  0
 21 39  1  0  0  0  0
 22 47  1  0  0  0  0
 23 40  1  0  0  0  0
 24 63  1  0  0  0  0
 25 84  1  0  0  0  0
 26 85  1  0  0  0  0
 27 29  2  0  0  0  0
 27 84  1  0  0  0  0
 28 86  1  0  0  0  0
 29 87  1  0  0  0  0
 30 68  2  0  0  0  0
 31 57  1  0  0  0  0
 31 67  2  0  0  0  0
 32 69  1  0  0  0  0
 32 72  1  0  0  0  0
 33 73  1  0  0  0  0
 33 79  2  0  0  0  0
 34 48  1  0  0  0  0
 34 74  1  0  0  0  0
 34 80  2  0  0  0  0
 35 58  1  0  0  0  0
 35 71  1  0  0  0  0
 35 81  2  0  0  0  0
 36 64  1  0  0  0  0
 36 70  1  0  0  0  0
 36 82  2  0  0  0  0
 37 65  1  0  0  0  0
 37 75  1  0  0  0  0
 37 83  2  0  0  0  0
 38 41  1  0  0  0  0
 39 48  1  0  0  0  0
 40 70  1  0  0  0  0
 41 43  1  0  0  0  0
 42 44  1  0  0  0  0
 42 45  1  0  0  0  0
 43 47  1  0  0  0  0
 44 49  1  0  0  0  0
 45 71  1  0  0  0  0
 46 49  1  0  0  0  0
 46 71  1  0  0  0  0
 47 74  1  0  0  0  0
 48 70  1  0  0  0  0
 49 69  1  0  0  0  0
 50 63  1  0  0  0  0
 51 65  1  0  0  0  0
 52 66  1  0  0  0  0
 53 66  1  0  0  0  0
 54 66  1  0  0  0  0
 55 76  1  0  0  0  0
 56 78  1  0  0  0  0
 57 85  1  0  0  0  0
 58 60  1  0  0  0  0
 59 61  1  0  0  0  0
 59 62  1  0  0  0  0
 60 78  1  0  0  0  0
 61 77  1  0  0  0  0
 62 78  1  0  0  0  0
 63 77  1  0  0  0  0
 64 66  1  0  0  0  0
 64 75  1  0  0  0  0
 65 76  1  0  0  0  0
 68 69  1  0  0  0  0
M  CHG  3  76   1  77   1  78   1
M  ISO  4  35 100  57 101  58 100  85 101
M  END
> <Batch ID>
0049

> <Smiles>
CNC(C)C(=O)NC(C(=O)N1Cc2cc([101O:1][101CH2:1]c3ccc(C(C)NCCCN(C)C[100CH2:0][100C:0](=O)N4CCCC(n5nc(-c6ccc(Oc7ccc(F)cc7F)cc6)c(C(N)=O)c5N)C4)cn3)ccc2CC1C(=O)NC1CCCc2ccccc21)C(C)(C)C

> <Shape>
0.234

> <Color>
0.064

> <Negative vol penalty>
0.000

$$$$

  -OEChem-04052317293D

 85 93  0     1  0  0  0  0  0999 V2000
  -28.8702  -37.7894   23.8947 C   0  0  0  0  0  0  0  0  0  0  0  0
  -29.2616  -36.5572   23.3809 C   0  0  0  0  0  0  0  0  0  0  0  0
  -26.8137  -12.8116   21.2177 C   0  0  0  0  0  0  0  0  0  0  0  0
  -26.5268  -13.4230   18.8980 C   0  0  0  0  0  0  0  0  0  0  0  0
  -27.7510  -37.8747   24.7218 C   0  0  0  0  0  0  0  0  0  0  0  0
  -28.5348  -35.4094   23.6949 C   0  0  0  0  0  0  0  0  0  0  0  0
  -27.5261  -30.5823   20.0634 C   0  0  0  0  0  0  0  0  0  0  0  0
  -25.5335  -12.2582   21.2302 C   0  0  0  0  0  0  0  0  0  0  0  0
  -25.2465  -12.8695   18.9105 C   0  0  0  0  0  0  0  0  0  0  0  0
  -28.1396  -29.3338   19.9707 C   0  0  0  0  0  0  0  0  0  0  0  0
  -24.0430   -9.4048   20.1960 C   0  0  0  0  0  0  0  0  0  0  0  0
  -23.8828   -8.1551   20.7944 C   0  0  0  0  0  0  0  0  0  0  0  0
  -26.4291  -28.3946   21.3888 C   0  0  0  0  0  0  0  0  0  0  0  0
  -22.3188   -9.1097   22.3692 C   0  0  0  0  0  0  0  0  0  0  0  0
  -30.4329  -23.9844   18.4871 C   0  0  0  0  0  0  0  0  0  0  0  0
  -27.3104  -13.3941   20.0516 C   0  0  0  0  0  0  0  0  0  0  0  0
  -29.8381  -13.3142   19.7169 C   0  0  0  0  0  0  0  0  0  0  0  0
  -27.0044  -36.7288   25.0383 C   0  0  0  0  0  0  0  0  0  0  0  0
  -26.3636  -30.7489   20.8297 C   0  0  0  0  0  0  0  0  0  0  0  0
  -27.4054  -35.4792   24.5281 C   0  0  0  0  0  0  0  0  0  0  0  0
  -25.8013  -29.6457   21.4876 C   0  0  0  0  0  0  0  0  0  0  0  0
  -24.7499  -12.2871   20.0766 C   0  0  0  0  0  0  0  0  0  0  0  0
  -27.5928  -28.2403   20.6358 C   0  0  0  0  0  0  0  0  0  0  0  0
  -23.3411  -10.5070   20.6842 C   0  0  0  0  0  0  0  0  0  0  0  0
  -23.0207   -8.0075   21.8810 C   0  0  0  0  0  0  0  0  0  0  0  0
  -22.4790  -10.3594   21.7707 C   0  0  0  0  0  0  0  0  0  0  0  0
  -28.6326  -13.9665   20.0381 C   0  0  0  0  0  0  0  0  0  0  0  0
  -29.6214  -22.8949   18.2594 C   0  0  0  0  0  0  0  0  0  0  0  0
  -28.5591  -23.2700   20.2496 C   0  0  0  0  0  0  0  0  0  0  0  0
  -29.3712  -24.3591   20.4776 C   0  0  0  0  0  0  0  0  0  0  0  0
  -30.8004  -14.2847   19.8528 C   0  0  0  0  0  0  0  0  0  0  0  0
  -30.0675  -11.9528   19.3302 C   0  0  0  0  0  0  0  0  0  0  0  0
  -25.5913  -32.4685   23.3890 C   0  0  0  0  0  0  0  0  0  0  0  0
  -22.6171  -31.3281   22.7756 C   0  0  0  0  0  0  0  0  0  0  0  0
  -20.6796  -28.9054   21.3532 C   0  0  0  0  0  0  0  0  0  0  0  0
  -30.7912  -20.1629   19.5011 C   0  0  0  0  0  0  0  0  0  0  0  0
  -25.8298  -36.8634   25.9747 C   0  0  0  0  0  0  0  0  0  0  0  0
  -25.6988  -32.0965   20.8978 C   0  0  0  0  0  0  0  0  0  0  0  0
  -24.5431  -29.7674   22.3066 C   0  0  0  0  0  0  0  0  0  0  0  0
  -24.8945  -35.6571   25.9560 C   0  0  0  0  0  0  0  0  0  0  0  0
  -31.7734  -18.2967   22.2540 C   0  0  0  0  0  0  0  0  0  0  0  0
  -25.6942  -34.3604   26.0333 C   0  0  0  0  0  0  0  0  0  0  0  0
  -31.1990  -16.9075   21.9802 C   0  0  0  0  0  0  0  0  0  0  0  0
  -30.7846  -19.3839   21.8505 C   0  0  0  0  0  0  0  0  0  0  0  0
  -29.7783  -17.9208   20.1277 C   0  0  0  0  0  0  0  0  0  0  0  0
  -26.6281  -34.2154   24.8258 C   0  0  1  0  0  0  0  0  0  0  0  0
  -24.8068  -32.2613   22.1244 C   0  0  1  0  0  0  0  0  0  0  0  0
  -30.7400  -16.7794   20.5171 C   0  0  2  0  0  0  0  0  0  0  0  0
  -27.5101  -22.8645   21.2277 C   0  0  0  0  0  0  0  0  0  0  0  0
  -28.7100  -16.6993   17.0467 C   0  0  0  0  0  0  0  0  0  0  0  0
  -18.2832  -28.2250   21.0501 C   0  0  0  0  0  0  0  0  0  0  0  0
  -22.5313  -30.3522   25.6653 C   0  0  0  0  0  0  0  0  0  0  0  0
  -20.5941  -28.8938   25.0419 C   0  0  0  0  0  0  0  0  0  0  0  0
  -20.4006  -31.3730   24.8452 C   0  0  0  0  0  0  0  0  0  0  0  0
  -20.8772  -29.0956   18.4064 C   0  0  0  0  0  0  0  0  0  0  0  0
  -29.7726  -22.0867   17.0184 C   0  0  0  0  0  0  0  0  0  0  0  0
  -29.2369  -25.1929   21.7286 C   0  0  0  0  0  0  0  0  0  0  0  0
  -29.8119  -17.6582   17.4756 C   0  0  0  0  0  0  0  0  0  0  0  0
  -30.7643  -20.9239   17.1564 C   0  0  0  0  0  0  0  0  0  0  0  0
  -29.2877  -19.0533   17.7944 C   0  0  0  0  0  0  0  0  0  0  0  0
  -28.0479  -26.1455   21.6656 C   0  0  0  0  0  0  0  0  0  1  0  0
  -21.8337  -30.1066   23.1916 C   0  0  1  0  0  0  0  0  0  0  0  0
  -19.4565  -28.9902   20.4580 C   0  0  2  0  0  0  0  0  0  0  0  0
  -21.3647  -30.1792   24.6722 C   0  0  0  0  0  0  0  0  0  0  0  0
  -30.3224  -24.7361   19.6004 N   0  0  0  0  0  0  0  0  0  0  0  0
  -28.8103  -15.2519   20.3544 N   0  0  0  0  0  0  0  0  0  0  0  0
  -28.6699  -22.5182   19.1365 N   0  0  0  0  0  0  0  0  0  0  0  0
  -30.1387  -15.4152   20.2327 N   0  0  0  0  0  0  0  0  0  0  0  0
  -23.9339  -31.1070   22.3477 N   0  0  0  0  0  0  0  0  0  0  0  0
  -30.3661  -19.2285   20.4571 N   0  0  0  0  0  0  0  0  0  0  0  0
  -32.1397  -14.2729   19.6833 N   0  0  0  0  0  0  0  0  0  0  0  0
  -28.9671  -11.0895   19.2396 N   0  0  0  0  0  0  0  0  0  0  0  0
  -25.8838  -33.7917   23.6592 N   0  0  0  0  0  0  0  0  0  0  0  0
  -20.7478  -29.9700   22.2269 N   0  0  0  0  0  0  0  0  0  0  0  0
  -30.3553  -19.9738   18.1810 N   0  0  0  0  0  0  0  0  0  0  0  0
  -19.7580  -28.4218   19.1138 N   0  3  0  0  0  0  0  0  0  0  0  0
  -31.2162  -11.5106   19.0886 O   0  0  0  0  0  0  0  0  0  0  0  0
  -25.9064  -31.4998   24.0701 O   0  0  0  0  0  0  0  0  0  0  0  0
  -22.0782  -32.4368   22.8216 O   0  0  0  0  0  0  0  0  0  0  0  0
  -21.4911  -27.9848   21.2868 O   0  0  0  0  0  0  0  0  0  0  0  0
  -31.5143  -21.1188   19.8102 O   0  0  0  0  0  0  0  0  0  0  0  0
  -23.5006  -11.7469   20.0884 O   0  0  0  0  0  0  0  0  0  0  0  0
  -28.1900  -27.0207   20.5475 O   0  0  0  0  0  0  0  0  0  1  0  0
  -22.8659   -6.8071   22.4546 F   0  0  0  0  0  0  0  0  0  0  0  0
  -21.8012  -11.4144   22.2434 F   0  0  0  0  0  0  0  0  0  0  0  0
  1  2  1  0  0  0  0
  1  5  2  0  0  0  0
  2  6  2  0  0  0  0
  3  8  2  0  0  0  0
  3 16  1  0  0  0  0
  4  9  1  0  0  0  0
  4 16  2  0  0  0  0
  5 18  1  0  0  0  0
  6 20  1  0  0  0  0
  7 10  2  0  0  0  0
  7 19  1  0  0  0  0
  8 22  1  0  0  0  0
  9 22  2  0  0  0  0
 10 23  1  0  0  0  0
 11 12  2  0  0  0  0
 11 24  1  0  0  0  0
 12 25  1  0  0  0  0
 13 21  1  0  0  0  0
 13 23  2  0  0  0  0
 14 25  2  0  0  0  0
 14 26  1  0  0  0  0
 15 28  1  0  0  0  0
 15 65  2  0  0  0  0
 16 27  1  0  0  0  0
 17 27  1  0  0  0  0
 17 31  2  0  0  0  0
 17 32  1  0  0  0  0
 18 20  2  0  0  0  0
 18 37  1  0  0  0  0
 19 21  2  0  0  0  0
 19 38  1  0  0  0  0
 20 46  1  0  0  0  0
 21 39  1  0  0  0  0
 22 82  1  0  0  0  0
 23 83  1  0  0  0  0
 24 26  2  0  0  0  0
 24 82  1  0  0  0  0
 25 84  1  0  0  0  0
 26 85  1  0  0  0  0
 27 66  2  0  0  0  0
 28 56  1  0  0  0  0
 28 67  2  0  0  0  0
 29 30  2  0  0  0  0
 29 49  1  0  0  0  0
 29 67  1  0  0  0  0
 30 57  1  0  0  0  0
 30 65  1  0  0  0  0
 31 68  1  0  0  0  0
 31 71  1  0  0  0  0
 32 72  1  0  0  0  0
 32 77  2  0  0  0  0
 33 47  1  0  0  0  0
 33 73  1  0  0  0  0
 33 78  2  0  0  0  0
 34 62  1  0  0  0  0
 34 69  1  0  0  0  0
 34 79  2  0  0  0  0
 35 63  1  0  0  0  0
 35 74  1  0  0  0  0
 35 80  2  0  0  0  0
 36 70  1  0  0  0  0
 36 75  1  0  0  0  0
 36 81  2  0  0  0  0
 37 40  1  0  0  0  0
 38 47  1  0  0  0  0
 39 69  1  0  0  0  0
 40 42  1  0  0  0  0
 41 43  1  0  0  0  0
 41 44  1  0  0  0  0
 42 46  1  0  0  0  0
 43 48  1  0  0  0  0
 44 70  1  0  0  0  0
 45 48  1  0  0  0  0
 45 70  1  0  0  0  0
 46 73  1  0  0  0  0
 47 69  1  0  0  0  0
 48 68  1  0  0  0  0
 50 58  1  0  0  0  0
 51 63  1  0  0  0  0
 52 64  1  0  0  0  0
 53 64  1  0  0  0  0
 54 64  1  0  0  0  0
 55 76  1  0  0  0  0
 56 59  1  0  0  0  0
 57 61  1  0  0  0  0
 58 60  1  0  0  0  0
 59 75  1  0  0  0  0
 60 75  1  0  0  0  0
 61 83  1  0  0  0  0
 62 64  1  0  0  0  0
 62 74  1  0  0  0  0
 63 76  1  0  0  0  0
 66 68  1  0  0  0  0
M  CHG  1  76   1
M  ISO  4  36 100  61 101  75 100  83 101
M  END
> <Batch ID>
0049

> <Smiles>
CCC[100N:0](CCc1cnc(C[101CH2:1][101O:1]c2ccc3c(c2)CN(C(=O)C(NC(=O)C(C)NC)C(C)(C)C)C(C(=O)NC2CCCc4ccccc42)C3)c(C)n1)[100C:0](=O)N1CCCC(n2nc(-c3ccc(Oc4ccc(F)cc4F)cc3)c(C(N)=O)c2N)C1

> <Shape>
0.355

> <Color>
0.107

> <Negative vol penalty>
0.000

$$$$

  -OEChem-04052317293D

 80 88  0     1  0  0  0  0  0999 V2000
  -24.4047  -11.6247   20.5199 C   0  0  0  0  0  0  0  0  0  0  0  0
  -24.1784  -12.8263   21.1836 C   0  0  0  0  0  0  0  0  0  0  0  0
  -25.7328  -30.5672   23.2111 C   0  0  0  0  0  0  0  0  0  0  0  0
  -26.1731  -28.5465   24.4600 C   0  0  0  0  0  0  0  0  0  0  0  0
  -25.6486  -11.3719   19.9431 C   0  0  0  0  0  0  0  0  0  0  0  0
  -25.1963  -13.7752   21.2718 C   0  0  0  0  0  0  0  0  0  0  0  0
  -23.5675  -18.4684   20.2893 C   0  0  0  0  0  0  0  0  0  0  0  0
  -26.6897  -31.2435   23.9679 C   0  0  0  0  0  0  0  0  0  0  0  0
  -27.1300  -29.2227   25.2168 C   0  0  0  0  0  0  0  0  0  0  0  0
  -22.8749  -19.1276   21.3040 C   0  0  0  0  0  0  0  0  0  0  0  0
  -26.9006  -32.6504   27.0339 C   0  0  0  0  0  0  0  0  0  0  0  0
  -26.5697  -33.9179   27.5128 C   0  0  0  0  0  0  0  0  0  0  0  0
  -24.8799  -20.3408   21.8761 C   0  0  0  0  0  0  0  0  0  0  0  0
  -28.4281  -34.8641   26.2929 C   0  0  0  0  0  0  0  0  0  0  0  0
  -20.4208  -21.9978   26.3823 C   0  0  0  0  0  0  0  0  0  0  0  0
  -25.4745  -29.2187   23.4572 C   0  0  0  0  0  0  0  0  0  0  0  0
  -24.6926  -27.8204   21.4720 C   0  0  0  0  0  0  0  0  0  0  0  0
  -26.6792  -12.3222   20.0159 C   0  0  0  0  0  0  0  0  0  0  0  0
  -24.9265  -18.7330   20.0670 C   0  0  0  0  0  0  0  0  0  0  0  0
  -26.4556  -13.5343   20.6966 C   0  0  0  0  0  0  0  0  0  0  0  0
  -25.5868  -19.6855   20.8563 C   0  0  0  0  0  0  0  0  0  0  0  0
  -27.3882  -30.5712   24.9708 C   0  0  0  0  0  0  0  0  0  0  0  0
  -23.5318  -20.0617   22.0995 C   0  0  0  0  0  0  0  0  0  0  0  0
  -27.9954  -32.4896   26.1845 C   0  0  0  0  0  0  0  0  0  0  0  0
  -27.3334  -35.0248   27.1423 C   0  0  0  0  0  0  0  0  0  0  0  0
  -28.7590  -33.5965   25.8140 C   0  0  0  0  0  0  0  0  0  0  0  0
  -24.4858  -28.5198   22.6761 C   0  0  0  0  0  0  0  0  0  0  0  0
  -19.7828  -22.7732   25.4556 C   0  0  0  0  0  0  0  0  0  0  0  0
  -23.4502  -27.3409   21.1357 C   0  0  0  0  0  0  0  0  0  0  0  0
  -20.9121  -21.2060   24.3744 C   0  0  0  0  0  0  0  0  0  0  0  0
  -25.8998  -27.6219   20.7243 C   0  0  0  0  0  0  0  0  0  0  0  0
  -27.5962  -17.0121   20.1903 C   0  0  0  0  0  0  0  0  0  0  0  0
  -28.9338  -19.7195   19.0057 C   0  0  0  0  0  0  0  0  0  0  0  0
  -28.7716  -23.1080   18.6333 C   0  0  0  0  0  0  0  0  0  0  0  0
  -18.5678  -26.0544   24.3542 C   0  0  0  0  0  0  0  0  0  0  0  0
  -28.0220  -11.9843   19.4180 C   0  0  0  0  0  0  0  0  0  0  0  0
  -25.6526  -18.0331   18.9511 C   0  0  0  0  0  0  0  0  0  0  0  0
  -27.0400  -20.0205   20.6453 C   0  0  0  0  0  0  0  0  0  0  0  0
  -28.9289  -13.1980   19.2321 C   0  0  0  0  0  0  0  0  0  0  0  0
  -18.7953  -28.3317   21.6267 C   0  0  0  0  0  0  0  0  0  0  0  0
  -28.9307  -14.0607   20.4902 C   0  0  0  0  0  0  0  0  0  0  0  0
  -20.2981  -28.5750   21.4777 C   0  0  0  0  0  0  0  0  0  0  0  0
  -18.3909  -28.1781   23.0913 C   0  0  0  0  0  0  0  0  0  0  0  0
  -20.6517  -27.4011   23.6903 C   0  0  0  0  0  0  0  0  0  0  0  0
  -27.5269  -14.5989   20.7921 C   0  0  1  0  0  0  0  0  0  0  0  0
  -27.1651  -18.0045   19.1477 C   0  0  1  0  0  0  0  0  0  0  0  0
  -21.1162  -27.5066   22.2277 C   0  0  2  0  0  0  0  0  0  0  0  0
  -23.2767  -20.5239   26.7460 C   0  0  0  0  0  0  0  0  0  0  0  0
  -30.0295  -25.0441   17.6502 C   0  0  0  0  0  0  0  0  0  0  0  0
  -30.9181  -19.6027   21.3206 C   0  0  0  0  0  0  0  0  0  0  0  0
  -31.5027  -21.9909   20.8485 C   0  0  0  0  0  0  0  0  0  0  0  0
  -31.9192  -20.2415   19.1197 C   0  0  0  0  0  0  0  0  0  0  0  0
  -26.5350  -23.7895   16.8189 C   0  0  0  0  0  0  0  0  0  0  0  0
  -18.9075  -23.9385   25.6058 C   0  0  0  0  0  0  0  0  0  0  0  0
  -21.4804  -20.3762   23.2608 C   0  0  0  0  0  0  0  0  0  1  0  0
  -21.9285  -19.9987   26.2836 C   0  0  0  0  0  0  0  0  0  0  0  0
  -29.5453  -20.9616   19.6075 C   0  0  1  0  0  0  0  0  0  0  0  0
  -28.9514  -23.9973   17.4163 C   0  0  2  0  0  0  0  0  0  0  0  0
  -30.9444  -20.6917   20.2296 C   0  0  0  0  0  0  0  0  0  0  0  0
  -23.2122  -28.4899   23.0776 N   0  0  0  0  0  0  0  0  0  0  0  0
  -21.1115  -21.0359   25.6854 N   0  0  0  0  0  0  0  0  0  0  0  0
  -22.6076  -27.7660   22.1203 N   0  0  0  0  0  0  0  0  0  0  0  0
  -20.1047  -22.2606   24.2220 N   0  3  0  0  0  0  0  0  0  0  0  0
  -27.7081  -19.3049   19.5457 N   0  0  0  0  0  0  0  0  0  0  0  0
  -19.2031  -27.1488   23.7444 N   0  0  0  0  0  0  0  0  0  0  0  0
  -23.0073  -26.6015   20.0968 N   0  0  0  0  0  0  0  0  0  0  0  0
  -27.0878  -28.1831   21.2122 N   0  0  0  0  0  0  0  0  0  0  0  0
  -27.2142  -15.7117   19.9213 N   0  0  0  0  0  0  0  0  0  0  0  0
  -29.5448  -21.9692   18.5524 N   0  0  0  0  0  0  0  0  0  0  0  0
  -19.4115  -25.1215   24.9446 N   0  0  0  0  0  0  0  0  0  0  0  0
  -27.6766  -24.6992   17.0948 N   0  3  0  0  0  0  0  0  0  0  0  0
  -25.9212  -26.9801   19.6468 O   0  0  0  0  0  0  0  0  0  0  0  0
  -28.2298  -17.3975   21.1659 O   0  0  0  0  0  0  0  0  0  0  0  0
  -29.5185  -19.1425   18.0855 O   0  0  0  0  0  0  0  0  0  0  0  0
  -28.0232  -23.3966   19.5645 O   0  0  0  0  0  0  0  0  0  0  0  0
  -17.3400  -25.9160   24.3665 O   0  0  0  0  0  0  0  0  0  0  0  0
  -28.3222  -31.2307   25.7093 O   0  0  0  0  0  0  0  0  0  0  0  0
  -22.8583  -20.7060   23.0911 O   0  0  0  0  0  0  0  0  0  1  0  0
  -27.0145  -36.2422   27.6010 F   0  0  0  0  0  0  0  0  0  0  0  0
  -29.8112  -33.4485   24.9973 F   0  0  0  0  0  0  0  0  0  0  0  0
  1  2  1  0  0  0  0
  1  5  2  0  0  0  0
  2  6  2  0  0  0  0
  3  8  2  0  0  0  0
  3 16  1  0  0  0  0
  4  9  1  0  0  0  0
  4 16  2  0  0  0  0
  5 18  1  0  0  0  0
  6 20  1  0  0  0  0
  7 10  2  0  0  0  0
  7 19  1  0  0  0  0
  8 22  1  0  0  0  0
  9 22  2  0  0  0  0
 10 23  1  0  0  0  0
 11 12  2  0  0  0  0
 11 24  1  0  0  0  0
 12 25  1  0  0  0  0
 13 21  1  0  0  0  0
 13 23  2  0  0  0  0
 14 25  2  0  0  0  0
 14 26  1  0  0  0  0
 15 28  2  0  0  0  0
 15 61  1  0  0  0  0
 16 27  1  0  0  0  0
 17 27  1  0  0  0  0
 17 29  2  0  0  0  0
 17 31  1  0  0  0  0
 18 20  2  0  0  0  0
 18 36  1  0  0  0  0
 19 21  2  0  0  0  0
 19 37  1  0  0  0  0
 20 45  1  0  0  0  0
 21 38  1  0  0  0  0
 22 77  1  0  0  0  0
 23 78  1  0  0  0  0
 24 26  2  0  0  0  0
 24 77  1  0  0  0  0
 25 79  1  0  0  0  0
 26 80  1  0  0  0  0
 27 60  2  0  0  0  0
 28 54  1  0  0  0  0
 28 63  1  0  0  0  0
 29 62  1  0  0  0  0
 29 66  1  0  0  0  0
 30 55  1  0  0  0  0
 30 61  1  0  0  0  0
 30 63  2  0  0  0  0
 31 67  1  0  0  0  0
 31 72  2  0  0  0  0
 32 46  1  0  0  0  0
 32 68  1  0  0  0  0
 32 73  2  0  0  0  0
 33 57  1  0  0  0  0
 33 64  1  0  0  0  0
 33 74  2  0  0  0  0
 34 58  1  0  0  0  0
 34 69  1  0  0  0  0
 34 75  2  0  0  0  0
 35 65  1  0  0  0  0
 35 70  1  0  0  0  0
 35 76  2  0  0  0  0
 36 39  1  0  0  0  0
 37 46  1  0  0  0  0
 38 64  1  0  0  0  0
 39 41  1  0  0  0  0
 40 42  1  0  0  0  0
 40 43  1  0  0  0  0
 41 45  1  0  0  0  0
 42 47  1  0  0  0  0
 43 65  1  0  0  0  0
 44 47  1  0  0  0  0
 44 65  1  0  0  0  0
 45 68  1  0  0  0  0
 46 64  1  0  0  0  0
 47 62  1  0  0  0  0
 48 56  1  0  0  0  0
 49 58  1  0  0  0  0
 50 59  1  0  0  0  0
 51 59  1  0  0  0  0
 52 59  1  0  0  0  0
 53 71  1  0  0  0  0
 54 70  1  0  0  0  0
 55 78  1  0  0  0  0
 56 61  1  0  0  0  0
 57 59  1  0  0  0  0
 57 69  1  0  0  0  0
 58 71  1  0  0  0  0
 60 62  1  0  0  0  0
M  CHG  2  63   1  71   1
M  ISO  4  35 100  55 101  70 100  78 101
M  END
> <Batch ID>
0049

> <Smiles>
CCn1cc(C[100NH:0][100C:0](=O)N2CCCC(n3nc(-c4ccc(Oc5ccc(F)cc5F)cc4)c(C(N)=O)c3N)C2)nc1[101CH2:1][101O:1]c1ccc2c(c1)CN(C(=O)C(NC(=O)C(C)NC)C(C)(C)C)C(C(=O)NC1CCCc3ccccc31)C2

> <Shape>
0.233

> <Color>
0.056

> <Negative vol penalty>
0.000

$$$$

  -OEChem-04052317293D

 81 89  0     1  0  0  0  0  0999 V2000
  -22.2432   -7.8438   21.2206 C   0  0  0  0  0  0  0  0  0  0  0  0
  -23.2620   -8.2836   20.3816 C   0  0  0  0  0  0  0  0  0  0  0  0
  -24.0208  -24.3576   19.1896 C   0  0  0  0  0  0  0  0  0  0  0  0
  -24.2275  -24.4209   21.5959 C   0  0  0  0  0  0  0  0  0  0  0  0
  -21.6361   -8.7350   22.1044 C   0  0  0  0  0  0  0  0  0  0  0  0
  -23.6736   -9.6152   20.4252 C   0  0  0  0  0  0  0  0  0  0  0  0
  -29.3575  -11.7407   19.5994 C   0  0  0  0  0  0  0  0  0  0  0  0
  -22.6590  -24.6388   19.2992 C   0  0  0  0  0  0  0  0  0  0  0  0
  -22.8657  -24.7022   21.7055 C   0  0  0  0  0  0  0  0  0  0  0  0
  -29.9992  -12.2980   18.4943 C   0  0  0  0  0  0  0  0  0  0  0  0
  -19.5160  -25.7935   22.6037 C   0  0  0  0  0  0  0  0  0  0  0  0
  -19.1302  -26.8011   23.4876 C   0  0  0  0  0  0  0  0  0  0  0  0
  -29.4882  -14.5067   19.3188 C   0  0  0  0  0  0  0  0  0  0  0  0
  -20.4547  -28.3962   22.2472 C   0  0  0  0  0  0  0  0  0  0  0  0
  -33.6055  -18.2916   18.7797 C   0  0  0  0  0  0  0  0  0  0  0  0
  -34.7405  -16.4086   18.6296 C   0  0  0  0  0  0  0  0  0  0  0  0
  -24.8051  -24.2486   20.3380 C   0  0  0  0  0  0  0  0  0  0  0  0
  -27.2651  -24.8844   20.1108 C   0  0  0  0  0  0  0  0  0  0  0  0
  -22.0470  -10.0759   22.1657 C   0  0  0  0  0  0  0  0  0  0  0  0
  -28.7658  -12.5635   20.5687 C   0  0  0  0  0  0  0  0  0  0  0  0
  -23.0705  -10.5255   21.3097 C   0  0  0  0  0  0  0  0  0  0  0  0
  -28.8418  -13.9574   20.4366 C   0  0  0  0  0  0  0  0  0  0  0  0
  -22.0815  -24.8111   20.5571 C   0  0  0  0  0  0  0  0  0  0  0  0
  -30.0621  -13.6811   18.3523 C   0  0  0  0  0  0  0  0  0  0  0  0
  -20.3712  -26.0871   21.5415 C   0  0  0  0  0  0  0  0  0  0  0  0
  -19.5995  -28.1025   23.3093 C   0  0  0  0  0  0  0  0  0  0  0  0
  -20.8405  -27.3885   21.3633 C   0  0  0  0  0  0  0  0  0  0  0  0
  -26.2118  -23.9576   20.2255 C   0  0  0  0  0  0  0  0  0  0  0  0
  -34.3821  -18.0822   19.8949 C   0  0  0  0  0  0  0  0  0  0  0  0
  -28.3970  -24.1102   20.0348 C   0  0  0  0  0  0  0  0  0  0  0  0
  -27.2241  -26.3172   20.0762 C   0  0  0  0  0  0  0  0  0  0  0  0
  -25.8064  -12.9856   21.6492 C   0  0  0  0  0  0  0  0  0  0  0  0
  -27.2824  -14.9211   23.7934 C   0  0  0  0  0  0  0  0  0  0  0  0
  -29.9733  -16.8749   24.5604 C   0  0  0  0  0  0  0  0  0  0  0  0
  -31.4496  -19.9549   21.8683 C   0  0  0  0  0  0  0  0  0  0  0  0
  -21.3286  -11.0131   23.1038 C   0  0  0  0  0  0  0  0  0  0  0  0
  -28.1006  -11.9472   21.7687 C   0  0  0  0  0  0  0  0  0  0  0  0
  -28.2402  -14.8848   21.4596 C   0  0  0  0  0  0  0  0  0  0  0  0
  -22.0788  -12.3191   23.3528 C   0  0  0  0  0  0  0  0  0  0  0  0
  -28.9392  -19.1210   19.3985 C   0  0  0  0  0  0  0  0  0  0  0  0
  -22.5775  -12.9075   22.0368 C   0  0  0  0  0  0  0  0  0  0  0  0
  -28.0894  -20.3929   19.3871 C   0  0  0  0  0  0  0  0  0  0  0  0
  -29.4214  -18.7909   20.8080 C   0  0  0  0  0  0  0  0  0  0  0  0
  -29.3239  -21.1639   21.4660 C   0  0  0  0  0  0  0  0  0  0  0  0
  -23.5616  -11.9564   21.3451 C   0  0  1  0  0  0  0  0  0  0  0  0
  -27.0850  -12.8735   22.4304 C   0  0  1  0  0  0  0  0  0  0  0  0
  -28.8245  -21.5640   20.0658 C   0  0  2  0  0  0  0  0  0  0  0  0
  -30.8780  -18.3592   26.3704 C   0  0  0  0  0  0  0  0  0  0  0  0
  -25.3371  -17.1191   22.9598 C   0  0  0  0  0  0  0  0  0  0  0  0
  -26.8552  -18.7817   24.0551 C   0  0  0  0  0  0  0  0  0  0  0  0
  -25.7768  -16.9925   25.4185 C   0  0  0  0  0  0  0  0  0  0  0  0
  -32.3555  -15.1596   24.9367 C   0  0  0  0  0  0  0  0  0  0  0  0
  -34.5142  -18.9356   21.0855 C   0  0  0  0  0  0  0  0  0  0  0  0
  -32.5054  -15.6052   16.5305 C   0  0  0  0  0  0  0  0  0  0  0  0
  -33.2323  -16.9484   16.6261 C   0  0  0  0  0  0  0  0  0  0  0  0
  -33.5100  -18.6152   22.2107 C   0  0  0  0  0  0  0  0  0  0  0  0
  -31.2985  -15.5042   17.4559 C   0  0  0  0  0  0  0  0  0  1  0  0
  -27.6520  -16.3842   23.8356 C   0  0  1  0  0  0  0  0  0  0  0  0
  -30.8430  -16.9489   25.8024 C   0  0  2  0  0  0  0  0  0  0  0  0
  -26.4150  -17.3021   24.0468 C   0  0  0  0  0  0  0  0  0  0  0  0
  -35.0864  -16.9084   19.7951 N   0  0  0  0  0  0  0  0  0  0  0  0
  -26.6366  -22.6913   20.2229 N   0  0  0  0  0  0  0  0  0  0  0  0
  -33.8460  -17.2115   17.9780 N   0  0  0  0  0  0  0  0  0  0  0  0
  -27.9695  -22.8170   20.1055 N   0  0  0  0  0  0  0  0  0  0  0  0
  -27.5951  -14.2340   22.6119 N   0  0  0  0  0  0  0  0  0  0  0  0
  -30.1288  -19.9401   21.3902 N   0  0  0  0  0  0  0  0  0  0  0  0
  -29.7064  -24.4162   19.9150 N   0  0  0  0  0  0  0  0  0  0  0  0
  -25.9779  -26.9523   20.1658 N   0  0  0  0  0  0  0  0  0  0  0  0
  -24.8627  -12.0300   21.9744 N   0  0  0  0  0  0  0  0  0  0  0  0
  -28.6771  -16.5166   24.8652 N   0  0  0  0  0  0  0  0  0  0  0  0
  -32.1409  -18.7538   21.7665 N   0  0  0  0  0  0  0  0  0  0  0  0
  -32.2389  -16.5363   25.4826 N   0  3  0  0  0  0  0  0  0  0  0  0
  -28.2603  -27.0132   19.9524 O   0  0  0  0  0  0  0  0  0  0  0  0
  -25.6845  -13.8743   20.8142 O   0  0  0  0  0  0  0  0  0  0  0  0
  -26.7426  -14.4052   24.7753 O   0  0  0  0  0  0  0  0  0  0  0  0
  -30.4001  -17.1149   23.4331 O   0  0  0  0  0  0  0  0  0  0  0  0
  -31.9762  -20.9656   22.3460 O   0  0  0  0  0  0  0  0  0  0  0  0
  -20.7527  -25.0857   20.6644 O   0  0  0  0  0  0  0  0  0  0  0  0
  -30.6873  -14.2276   17.2742 O   0  0  0  0  0  0  0  0  0  1  0  0
  -19.2277  -29.0704   24.1573 F   0  0  0  0  0  0  0  0  0  0  0  0
  -21.6614  -27.6769   20.3441 F   0  0  0  0  0  0  0  0  0  0  0  0
  1  2  1  0  0  0  0
  1  5  2  0  0  0  0
  2  6  2  0  0  0  0
  3  8  2  0  0  0  0
  3 17  1  0  0  0  0
  4  9  1  0  0  0  0
  4 17  2  0  0  0  0
  5 19  1  0  0  0  0
  6 21  1  0  0  0  0
  7 10  2  0  0  0  0
  7 20  1  0  0  0  0
  8 23  1  0  0  0  0
  9 23  2  0  0  0  0
 10 24  1  0  0  0  0
 11 12  2  0  0  0  0
 11 25  1  0  0  0  0
 12 26  1  0  0  0  0
 13 22  1  0  0  0  0
 13 24  2  0  0  0  0
 14 26  2  0  0  0  0
 14 27  1  0  0  0  0
 15 29  2  0  0  0  0
 15 63  1  0  0  0  0
 16 61  2  0  0  0  0
 16 63  1  0  0  0  0
 17 28  1  0  0  0  0
 18 28  1  0  0  0  0
 18 30  2  0  0  0  0
 18 31  1  0  0  0  0
 19 21  2  0  0  0  0
 19 36  1  0  0  0  0
 20 22  2  0  0  0  0
 20 37  1  0  0  0  0
 21 45  1  0  0  0  0
 22 38  1  0  0  0  0
 23 78  1  0  0  0  0
 24 79  1  0  0  0  0
 25 27  2  0  0  0  0
 25 78  1  0  0  0  0
 26 80  1  0  0  0  0
 27 81  1  0  0  0  0
 28 62  2  0  0  0  0
 29 53  1  0  0  0  0
 29 61  1  0  0  0  0
 30 64  1  0  0  0  0
 30 67  1  0  0  0  0
 31 68  1  0  0  0  0
 31 73  2  0  0  0  0
 32 46  1  0  0  0  0
 32 69  1  0  0  0  0
 32 74  2  0  0  0  0
 33 58  1  0  0  0  0
 33 65  1  0  0  0  0
 33 75  2  0  0  0  0
 34 59  1  0  0  0  0
 34 70  1  0  0  0  0
 34 76  2  0  0  0  0
 35 66  1  0  0  0  0
 35 71  1  0  0  0  0
 35 77  2  0  0  0  0
 36 39  1  0  0  0  0
 37 46  1  0  0  0  0
 38 65  1  0  0  0  0
 39 41  1  0  0  0  0
 40 42  1  0  0  0  0
 40 43  1  0  0  0  0
 41 45  1  0  0  0  0
 42 47  1  0  0  0  0
 43 66  1  0  0  0  0
 44 47  1  0  0  0  0
 44 66  1  0  0  0  0
 45 69  1  0  0  0  0
 46 65  1  0  0  0  0
 47 64  1  0  0  0  0
 48 59  1  0  0  0  0
 49 60  1  0  0  0  0
 50 60  1  0  0  0  0
 51 60  1  0  0  0  0
 52 72  1  0  0  0  0
 53 56  1  0  0  0  0
 54 55  1  0  0  0  0
 54 57  1  0  0  0  0
 55 63  1  0  0  0  0
 56 71  1  0  0  0  0
 57 79  1  0  0  0  0
 58 60  1  0  0  0  0
 58 70  1  0  0  0  0
 59 72  1  0  0  0  0
 62 64  1  0  0  0  0
M  CHG  1  72   1
M  ISO  4  35 100  57 101  71 100  79 101
M  END
> <Batch ID>
0049

> <Smiles>
CNC(C)C(=O)NC(C(=O)N1Cc2cc([101O:1][101CH2:1]CCn3cnc(CC[100NH:0][100C:0](=O)N4CCCC(n5nc(-c6ccc(Oc7ccc(F)cc7F)cc6)c(C(N)=O)c5N)C4)c3)ccc2CC1C(=O)NC1CCCc2ccccc21)C(C)(C)C

> <Shape>
0.208

> <Color>
0.061

> <Negative vol penalty>
0.000

$$$$

  -OEChem-04052317293D

 81 89  0     1  0  0  0  0  0999 V2000
  -25.7081  -37.9148   20.4600 C   0  0  0  0  0  0  0  0  0  0  0  0
  -26.4054  -36.7634   20.1089 C   0  0  0  0  0  0  0  0  0  0  0  0
  -24.5552   -8.7165   20.4921 C   0  0  0  0  0  0  0  0  0  0  0  0
  -22.9732  -10.4126   21.1685 C   0  0  0  0  0  0  0  0  0  0  0  0
  -24.8945  -37.9177   21.5923 C   0  0  0  0  0  0  0  0  0  0  0  0
  -26.2905  -35.6144   20.8906 C   0  0  0  0  0  0  0  0  0  0  0  0
  -26.3619  -29.8105   18.9374 C   0  0  0  0  0  0  0  0  0  0  0  0
  -23.6049   -7.7280   20.7482 C   0  0  0  0  0  0  0  0  0  0  0  0
  -22.0229   -9.4242   21.4245 C   0  0  0  0  0  0  0  0  0  0  0  0
  -27.3691  -28.8473   18.8953 C   0  0  0  0  0  0  0  0  0  0  0  0
  -20.8807   -6.4355   19.2182 C   0  0  0  0  0  0  0  0  0  0  0  0
  -20.7236   -5.4258   18.2688 C   0  0  0  0  0  0  0  0  0  0  0  0
  -26.5826  -27.9421   20.9884 C   0  0  0  0  0  0  0  0  0  0  0  0
  -21.3177   -3.7732   19.9280 C   0  0  0  0  0  0  0  0  0  0  0  0
  -29.9344  -20.2563   21.3466 C   0  0  0  0  0  0  0  0  0  0  0  0
  -27.9954  -18.8354   20.1852 C   0  0  0  0  0  0  0  0  0  0  0  0
  -24.2393  -10.0588   20.7023 C   0  0  0  0  0  0  0  0  0  0  0  0
  -25.4329  -11.7622   19.2253 C   0  0  0  0  0  0  0  0  0  0  0  0
  -24.7620  -36.7653   22.3828 C   0  0  0  0  0  0  0  0  0  0  0  0
  -25.4628  -29.8535   20.0126 C   0  0  0  0  0  0  0  0  0  0  0  0
  -25.4755  -35.6023   22.0353 C   0  0  0  0  0  0  0  0  0  0  0  0
  -25.5634  -28.9052   21.0405 C   0  0  0  0  0  0  0  0  0  0  0  0
  -22.3388   -8.0819   21.2143 C   0  0  0  0  0  0  0  0  0  0  0  0
  -27.4813  -27.9147   19.9223 C   0  0  0  0  0  0  0  0  0  0  0  0
  -21.2564   -6.1141   20.5225 C   0  0  0  0  0  0  0  0  0  0  0  0
  -20.9421   -4.0947   18.6237 C   0  0  0  0  0  0  0  0  0  0  0  0
  -21.4749   -4.7830   20.8774 C   0  0  0  0  0  0  0  0  0  0  0  0
  -25.2207  -11.0803   20.4384 C   0  0  0  0  0  0  0  0  0  0  0  0
  -29.2239  -20.7619   20.2802 C   0  0  0  0  0  0  0  0  0  0  0  0
  -28.7063  -18.3294   21.2510 C   0  0  0  0  0  0  0  0  0  0  0  0
  -26.4690  -12.6234   19.4922 C   0  0  0  0  0  0  0  0  0  0  0  0
  -24.7540  -11.6292   17.9695 C   0  0  0  0  0  0  0  0  0  0  0  0
  -24.7574  -31.9849   22.2628 C   0  0  0  0  0  0  0  0  0  0  0  0
  -22.4157  -29.8617   22.9914 C   0  0  0  0  0  0  0  0  0  0  0  0
  -21.2868  -26.6429   22.8820 C   0  0  0  0  0  0  0  0  0  0  0  0
  -28.9839  -16.3470   22.7805 C   0  0  0  0  0  0  0  0  0  0  0  0
  -23.9079  -36.8308   23.6242 C   0  0  0  0  0  0  0  0  0  0  0  0
  -24.3654  -30.8821   20.0299 C   0  0  0  0  0  0  0  0  0  0  0  0
  -24.6106  -28.8959   22.2070 C   0  0  0  0  0  0  0  0  0  0  0  0
  -23.5469  -35.4590   24.1882 C   0  0  0  0  0  0  0  0  0  0  0  0
  -29.5731  -12.9061   23.4805 C   0  0  0  0  0  0  0  0  0  0  0  0
  -24.7807  -34.5638   24.2454 C   0  0  0  0  0  0  0  0  0  0  0  0
  -28.5108  -12.1804   22.6517 C   0  0  0  0  0  0  0  0  0  0  0  0
  -29.0434  -14.2170   24.0590 C   0  0  0  0  0  0  0  0  0  0  0  0
  -27.3824  -14.4057   22.2494 C   0  0  0  0  0  0  0  0  0  0  0  0
  -25.3572  -34.3287   22.8440 C   0  0  1  0  0  0  0  0  0  0  0  0
  -23.8231  -31.1538   21.4297 C   0  0  1  0  0  0  0  0  0  0  0  0
  -27.8894  -13.1116   21.5922 C   0  0  2  0  0  0  0  0  0  0  0  0
  -19.3554  -25.2075   23.5939 C   0  0  0  0  0  0  0  0  0  0  0  0
  -23.4548  -29.8905   25.8601 C   0  0  0  0  0  0  0  0  0  0  0  0
  -22.1523  -27.7938   26.2791 C   0  0  0  0  0  0  0  0  0  0  0  0
  -20.9625  -29.8950   25.6532 C   0  0  0  0  0  0  0  0  0  0  0  0
  -20.6392  -25.9251   20.0849 C   0  0  0  0  0  0  0  0  0  0  0  0
  -29.5265  -22.1376   19.7420 C   0  0  0  0  0  0  0  0  0  0  0  0
  -28.7154  -23.2550   20.4073 C   0  0  0  0  0  0  0  0  0  0  0  0
  -28.9794  -24.6318   19.7960 C   0  0  0  0  0  0  0  0  0  0  0  0
  -28.1875  -25.7205   20.5075 C   0  0  0  0  0  0  0  0  0  1  0  0
  -22.3054  -28.6622   23.9014 C   0  0  1  0  0  0  0  0  0  0  0  0
  -19.9442  -26.0595   22.4802 C   0  0  2  0  0  0  0  0  0  0  0  0
  -22.2381  -29.0615   25.4026 C   0  0  0  0  0  0  0  0  0  0  0  0
  -28.2415  -20.0607   19.6805 N   0  0  0  0  0  0  0  0  0  0  0  0
  -29.6885  -19.0308   21.8509 N   0  0  0  0  0  0  0  0  0  0  0  0
  -26.0551  -11.4741   21.4042 N   0  0  0  0  0  0  0  0  0  0  0  0
  -26.8018  -12.4128   20.7980 N   0  0  0  0  0  0  0  0  0  0  0  0
  -23.5585  -29.9255   22.1816 N   0  0  0  0  0  0  0  0  0  0  0  0
  -28.4739  -15.0494   22.9971 N   0  0  0  0  0  0  0  0  0  0  0  0
  -27.1189  -13.5325   18.7349 N   0  0  0  0  0  0  0  0  0  0  0  0
  -23.7124  -10.6969   17.8685 N   0  0  0  0  0  0  0  0  0  0  0  0
  -28.3867  -17.0321   21.7229 N   0  0  0  0  0  0  0  0  0  0  0  0
  -24.5679  -33.3473   22.1310 N   0  0  0  0  0  0  0  0  0  0  0  0
  -21.1531  -27.8995   23.4337 N   0  0  0  0  0  0  0  0  0  0  0  0
  -20.0918  -25.2087   21.2656 N   0  3  0  0  0  0  0  0  0  0  0  0
  -25.0728  -12.3051   16.9620 O   0  0  0  0  0  0  0  0  0  0  0  0
  -25.5877  -31.4310   22.9738 O   0  0  0  0  0  0  0  0  0  0  0  0
  -21.5174  -30.7071   22.9936 O   0  0  0  0  0  0  0  0  0  0  0  0
  -22.3477  -26.0424   22.7259 O   0  0  0  0  0  0  0  0  0  0  0  0
  -29.9027  -16.8056   23.4642 O   0  0  0  0  0  0  0  0  0  0  0  0
  -21.4112   -7.1176   21.4641 O   0  0  0  0  0  0  0  0  0  0  0  0
  -28.4638  -26.9739   19.8840 O   0  0  0  0  0  0  0  0  0  1  0  0
  -20.7897   -3.1250   17.7122 F   0  0  0  0  0  0  0  0  0  0  0  0
  -21.8348   -4.4679   22.1292 F   0  0  0  0  0  0  0  0  0  0  0  0
  1  2  1  0  0  0  0
  1  5  2  0  0  0  0
  2  6  2  0  0  0  0
  3  8  2  0  0  0  0
  3 17  1  0  0  0  0
  4  9  1  0  0  0  0
  4 17  2  0  0  0  0
  5 19  1  0  0  0  0
  6 21  1  0  0  0  0
  7 10  2  0  0  0  0
  7 20  1  0  0  0  0
  8 23  1  0  0  0  0
  9 23  2  0  0  0  0
 10 24  1  0  0  0  0
 11 12  2  0  0  0  0
 11 25  1  0  0  0  0
 12 26  1  0  0  0  0
 13 22  1  0  0  0  0
 13 24  2  0  0  0  0
 14 26  2  0  0  0  0
 14 27  1  0  0  0  0
 15 29  1  0  0  0  0
 15 62  2  0  0  0  0
 16 30  2  0  0  0  0
 16 61  1  0  0  0  0
 17 28  1  0  0  0  0
 18 28  1  0  0  0  0
 18 31  2  0  0  0  0
 18 32  1  0  0  0  0
 19 21  2  0  0  0  0
 19 37  1  0  0  0  0
 20 22  2  0  0  0  0
 20 38  1  0  0  0  0
 21 46  1  0  0  0  0
 22 39  1  0  0  0  0
 23 78  1  0  0  0  0
 24 79  1  0  0  0  0
 25 27  2  0  0  0  0
 25 78  1  0  0  0  0
 26 80  1  0  0  0  0
 27 81  1  0  0  0  0
 28 63  2  0  0  0  0
 29 54  1  0  0  0  0
 29 61  2  0  0  0  0
 30 62  1  0  0  0  0
 30 69  1  0  0  0  0
 31 64  1  0  0  0  0
 31 67  1  0  0  0  0
 32 68  1  0  0  0  0
 32 73  2  0  0  0  0
 33 47  1  0  0  0  0
 33 70  1  0  0  0  0
 33 74  2  0  0  0  0
 34 58  1  0  0  0  0
 34 65  1  0  0  0  0
 34 75  2  0  0  0  0
 35 59  1  0  0  0  0
 35 71  1  0  0  0  0
 35 76  2  0  0  0  0
 36 66  1  0  0  0  0
 36 69  1  0  0  0  0
 36 77  2  0  0  0  0
 37 40  1  0  0  0  0
 38 47  1  0  0  0  0
 39 65  1  0  0  0  0
 40 42  1  0  0  0  0
 41 43  1  0  0  0  0
 41 44  1  0  0  0  0
 42 46  1  0  0  0  0
 43 48  1  0  0  0  0
 44 66  1  0  0  0  0
 45 48  1  0  0  0  0
 45 66  1  0  0  0  0
 46 70  1  0  0  0  0
 47 65  1  0  0  0  0
 48 64  1  0  0  0  0
 49 59  1  0  0  0  0
 50 60  1  0  0  0  0
 51 60  1  0  0  0  0
 52 60  1  0  0  0  0
 53 72  1  0  0  0  0
 54 55  1  0  0  0  0
 55 56  1  0  0  0  0
 56 57  1  0  0  0  0
 57 79  1  0  0  0  0
 58 60  1  0  0  0  0
 58 71  1  0  0  0  0
 59 72  1  0  0  0  0
 63 64  1  0  0  0  0
M  CHG  1  72   1
M  ISO  4  36 100  57 101  69 100  79 101
M  END
> <Batch ID>
0049

> <Smiles>
CNC(C)C(=O)NC(C(=O)N1Cc2cc([101O:1][101CH2:1]CCCc3cnc([100NH:0][100C:0](=O)N4CCCC(n5nc(-c6ccc(Oc7ccc(F)cc7F)cc6)c(C(N)=O)c5N)C4)cn3)ccc2CC1C(=O)NC1CCCc2ccccc21)C(C)(C)C

> <Shape>
0.289

> <Color>
0.103

> <Negative vol penalty>
0.000

$$$$

  -OEChem-04052317293D

 82 90  0     1  0  0  0  0  0999 V2000
  -23.2414  -30.9408   21.6713 C   0  0  0  0  0  0  0  0  0  0  0  0
  -22.8096  -29.8385   20.9407 C   0  0  0  0  0  0  0  0  0  0  0  0
  -24.2689  -13.0971   24.1832 C   0  0  0  0  0  0  0  0  0  0  0  0
  -24.2799  -15.3416   23.2893 C   0  0  0  0  0  0  0  0  0  0  0  0
  -24.6051  -31.2041   21.7932 C   0  0  0  0  0  0  0  0  0  0  0  0
  -23.7413  -28.9994   20.3305 C   0  0  0  0  0  0  0  0  0  0  0  0
  -23.3019  -22.9368   19.5833 C   0  0  0  0  0  0  0  0  0  0  0  0
  -23.8145  -13.5869   25.4076 C   0  0  0  0  0  0  0  0  0  0  0  0
  -23.8254  -15.8314   24.5137 C   0  0  0  0  0  0  0  0  0  0  0  0
  -22.9126  -22.1511   18.4994 C   0  0  0  0  0  0  0  0  0  0  0  0
  -20.8853  -14.6166   26.7462 C   0  0  0  0  0  0  0  0  0  0  0  0
  -19.8430  -13.9324   27.3716 C   0  0  0  0  0  0  0  0  0  0  0  0
  -25.2264  -21.8775   17.8745 C   0  0  0  0  0  0  0  0  0  0  0  0
  -21.2614  -13.5192   29.2833 C   0  0  0  0  0  0  0  0  0  0  0  0
  -26.6620  -17.3469   16.4796 C   0  0  0  0  0  0  0  0  0  0  0  0
  -25.9484  -15.6859   17.7400 C   0  0  0  0  0  0  0  0  0  0  0  0
  -24.5016  -13.9744   23.1240 C   0  0  0  0  0  0  0  0  0  0  0  0
  -24.1881  -13.0399   20.7712 C   0  0  0  0  0  0  0  0  0  0  0  0
  -25.5544  -30.3623   21.1923 C   0  0  0  0  0  0  0  0  0  0  0  0
  -24.6580  -23.2082   19.8150 C   0  0  0  0  0  0  0  0  0  0  0  0
  -25.1189  -29.2524   20.4433 C   0  0  0  0  0  0  0  0  0  0  0  0
  -25.6305  -22.6648   18.9635 C   0  0  0  0  0  0  0  0  0  0  0  0
  -23.5928  -14.9541   25.5728 C   0  0  0  0  0  0  0  0  0  0  0  0
  -23.8747  -21.6237   17.6431 C   0  0  0  0  0  0  0  0  0  0  0  0
  -22.1156  -14.7521   27.3893 C   0  0  0  0  0  0  0  0  0  0  0  0
  -20.0311  -13.3837   28.6402 C   0  0  0  0  0  0  0  0  0  0  0  0
  -22.3037  -14.2034   28.6579 C   0  0  0  0  0  0  0  0  0  0  0  0
  -24.9716  -13.4691   21.8591 C   0  0  0  0  0  0  0  0  0  0  0  0
  -25.3852  -16.9684   16.1373 C   0  0  0  0  0  0  0  0  0  0  0  0
  -25.1019  -12.6574   19.8197 C   0  0  0  0  0  0  0  0  0  0  0  0
  -22.7618  -12.9913   20.6329 C   0  0  0  0  0  0  0  0  0  0  0  0
  -26.4351  -25.8422   19.9043 C   0  0  0  0  0  0  0  0  0  0  0  0
  -28.7422  -23.7837   20.8853 C   0  0  0  0  0  0  0  0  0  0  0  0
  -29.9288  -20.5848   20.9625 C   0  0  0  0  0  0  0  0  0  0  0  0
  -30.9606  -14.3619   19.2651 C   0  0  0  0  0  0  0  0  0  0  0  0
  -27.0160  -30.7143   21.3122 C   0  0  0  0  0  0  0  0  0  0  0  0
  -25.0631  -24.0355   21.0041 C   0  0  0  0  0  0  0  0  0  0  0  0
  -27.1006  -22.9097   19.1804 C   0  0  0  0  0  0  0  0  0  0  0  0
  -27.9513  -29.5641   20.9485 C   0  0  0  0  0  0  0  0  0  0  0  0
  -29.5381  -10.9456   19.3460 C   0  0  0  0  0  0  0  0  0  0  0  0
  -27.5046  -28.9036   19.6480 C   0  0  0  0  0  0  0  0  0  0  0  0
  -28.1648  -11.1714   19.9761 C   0  0  0  0  0  0  0  0  0  0  0  0
  -30.5518  -11.9888   19.8061 C   0  0  0  0  0  0  0  0  0  0  0  0
  -28.7389  -13.6195   20.2168 C   0  0  0  0  0  0  0  0  0  0  0  0
  -26.0998  -28.3048   19.7876 C   0  0  1  0  0  0  0  0  0  0  0  0
  -26.4405  -24.6725   20.8475 C   0  0  1  0  0  0  0  0  0  0  0  0
  -27.6822  -12.6128   19.7377 C   0  0  2  0  0  0  0  0  0  0  0  0
  -31.8573  -19.2189   21.8067 C   0  0  0  0  0  0  0  0  0  0  0  0
  -30.4948  -24.8733   18.6378 C   0  0  0  0  0  0  0  0  0  0  0  0
  -31.9761  -22.8745   18.9180 C   0  0  0  0  0  0  0  0  0  0  0  0
  -31.6912  -24.4872   20.7997 C   0  0  0  0  0  0  0  0  0  0  0  0
  -31.3871  -16.4820   18.0806 C   0  0  0  0  0  0  0  0  0  0  0  0
  -28.1606  -18.9233   22.6570 C   0  0  0  0  0  0  0  0  0  0  0  0
  -24.4981  -17.5432   15.0621 C   0  0  0  0  0  0  0  0  0  0  0  0
  -23.6177  -18.6989   15.5426 C   0  0  0  0  0  0  0  0  0  0  0  0
  -28.2666  -16.5120   18.2149 C   0  0  0  0  0  0  0  0  0  0  0  0
  -29.1981  -15.3884   17.7676 C   0  0  0  0  0  0  0  0  0  0  0  0
  -24.4105  -19.8479   16.1547 C   0  0  0  0  0  0  0  0  0  1  0  0
  -29.7858  -22.9394   20.1945 C   0  0  1  0  0  0  0  0  0  0  0  0
  -30.4573  -19.7337   22.1030 C   0  0  2  0  0  0  0  0  0  0  0  0
  -30.9592  -23.7904   19.6320 C   0  0  0  0  0  0  0  0  0  0  0  0
  -24.9467  -15.9341   16.9258 N   0  0  0  0  0  0  0  0  0  0  0  0
  -26.2822  -13.3688   21.6221 N   0  0  0  0  0  0  0  0  0  0  0  0
  -27.0092  -16.5167   17.5079 N   0  0  0  0  0  0  0  0  0  0  0  0
  -26.3293  -12.8721   20.3742 N   0  0  0  0  0  0  0  0  0  0  0  0
  -27.4462  -23.7300   20.3531 N   0  0  0  0  0  0  0  0  0  0  0  0
  -30.0500  -13.3490   19.6081 N   0  0  0  0  0  0  0  0  0  0  0  0
  -24.9671  -12.1616   18.5713 N   0  0  0  0  0  0  0  0  0  0  0  0
  -21.9714  -13.4221   21.7071 N   0  0  0  0  0  0  0  0  0  0  0  0
  -26.1539  -27.0519   20.5099 N   0  0  0  0  0  0  0  0  0  0  0  0
  -30.1932  -21.9237   21.1593 N   0  0  0  0  0  0  0  0  0  0  0  0
  -30.4781  -15.4141   18.4720 N   0  0  0  0  0  0  0  0  0  0  0  0
  -29.5646  -18.5626   22.3322 N   0  3  0  0  0  0  0  0  0  0  0  0
  -22.2048  -12.5627   19.5939 O   0  0  0  0  0  0  0  0  0  0  0  0
  -26.6702  -25.6607   18.7154 O   0  0  0  0  0  0  0  0  0  0  0  0
  -29.0635  -24.4603   21.8654 O   0  0  0  0  0  0  0  0  0  0  0  0
  -29.3436  -20.1091   19.9921 O   0  0  0  0  0  0  0  0  0  0  0  0
  -32.1402  -14.3229   19.6380 O   0  0  0  0  0  0  0  0  0  0  0  0
  -23.1491  -15.4323   26.7674 O   0  0  0  0  0  0  0  0  0  0  0  0
  -23.4975  -20.8570   16.5840 O   0  0  0  0  0  0  0  0  0  1  0  0
  -19.0297  -12.7280   29.2413 F   0  0  0  0  0  0  0  0  0  0  0  0
  -23.4831  -14.3313   29.2812 F   0  0  0  0  0  0  0  0  0  0  0  0
  1  2  1  0  0  0  0
  1  5  2  0  0  0  0
  2  6  2  0  0  0  0
  3  8  2  0  0  0  0
  3 17  1  0  0  0  0
  4  9  1  0  0  0  0
  4 17  2  0  0  0  0
  5 19  1  0  0  0  0
  6 21  1  0  0  0  0
  7 10  2  0  0  0  0
  7 20  1  0  0  0  0
  8 23  1  0  0  0  0
  9 23  2  0  0  0  0
 10 24  1  0  0  0  0
 11 12  2  0  0  0  0
 11 25  1  0  0  0  0
 12 26  1  0  0  0  0
 13 22  1  0  0  0  0
 13 24  2  0  0  0  0
 14 26  2  0  0  0  0
 14 27  1  0  0  0  0
 15 29  2  0  0  0  0
 15 64  1  0  0  0  0
 16 62  2  0  0  0  0
 16 64  1  0  0  0  0
 17 28  1  0  0  0  0
 18 28  1  0  0  0  0
 18 30  2  0  0  0  0
 18 31  1  0  0  0  0
 19 21  2  0  0  0  0
 19 36  1  0  0  0  0
 20 22  2  0  0  0  0
 20 37  1  0  0  0  0
 21 45  1  0  0  0  0
 22 38  1  0  0  0  0
 23 79  1  0  0  0  0
 24 80  1  0  0  0  0
 25 27  2  0  0  0  0
 25 79  1  0  0  0  0
 26 81  1  0  0  0  0
 27 82  1  0  0  0  0
 28 63  2  0  0  0  0
 29 54  1  0  0  0  0
 29 62  1  0  0  0  0
 30 65  1  0  0  0  0
 30 68  1  0  0  0  0
 31 69  1  0  0  0  0
 31 74  2  0  0  0  0
 32 46  1  0  0  0  0
 32 70  1  0  0  0  0
 32 75  2  0  0  0  0
 33 59  1  0  0  0  0
 33 66  1  0  0  0  0
 33 76  2  0  0  0  0
 34 60  1  0  0  0  0
 34 71  1  0  0  0  0
 34 77  2  0  0  0  0
 35 67  1  0  0  0  0
 35 72  1  0  0  0  0
 35 78  2  0  0  0  0
 36 39  1  0  0  0  0
 37 46  1  0  0  0  0
 38 66  1  0  0  0  0
 39 41  1  0  0  0  0
 40 42  1  0  0  0  0
 40 43  1  0  0  0  0
 41 45  1  0  0  0  0
 42 47  1  0  0  0  0
 43 67  1  0  0  0  0
 44 47  1  0  0  0  0
 44 67  1  0  0  0  0
 45 70  1  0  0  0  0
 46 66  1  0  0  0  0
 47 65  1  0  0  0  0
 48 60  1  0  0  0  0
 49 61  1  0  0  0  0
 50 61  1  0  0  0  0
 51 61  1  0  0  0  0
 52 72  1  0  0  0  0
 53 73  1  0  0  0  0
 54 55  1  0  0  0  0
 55 58  1  0  0  0  0
 56 57  1  0  0  0  0
 56 64  1  0  0  0  0
 57 72  1  0  0  0  0
 58 80  1  0  0  0  0
 59 61  1  0  0  0  0
 59 71  1  0  0  0  0
 60 73  1  0  0  0  0
 63 65  1  0  0  0  0
M  CHG  1  73   1
M  ISO  4  35 100  58 101  72 100  80 101
M  END
> <Batch ID>
0049

> <Smiles>
CNC(C)C(=O)NC(C(=O)N1Cc2cc([101O:1][101CH2:1]CCc3cn(CC[100N:0](C)[100C:0](=O)N4CCCC(n5nc(-c6ccc(Oc7ccc(F)cc7F)cc6)c(C(N)=O)c5N)C4)cn3)ccc2CC1C(=O)NC1CCCc2ccccc21)C(C)(C)C

> <Shape>
0.196

> <Color>
0.092

> <Negative vol penalty>
0.000

$$$$

  -OEChem-04052317293D

 89 97  0     1  0  0  0  0  0999 V2000
  -34.0924  -23.6879   26.0614 C   0  0  0  0  0  0  0  0  0  0  0  0
  -34.2385  -22.9669   24.8806 C   0  0  0  0  0  0  0  0  0  0  0  0
  -23.1361   -9.9048   19.9468 C   0  0  0  0  0  0  0  0  0  0  0  0
  -24.0177   -9.8985   22.1962 C   0  0  0  0  0  0  0  0  0  0  0  0
  -32.8473  -24.2108   26.4080 C   0  0  0  0  0  0  0  0  0  0  0  0
  -33.1391  -22.7676   24.0462 C   0  0  0  0  0  0  0  0  0  0  0  0
  -33.1611  -22.5033   17.9278 C   0  0  0  0  0  0  0  0  0  0  0  0
  -22.4595   -8.7135   20.2086 C   0  0  0  0  0  0  0  0  0  0  0  0
  -23.3410   -8.7072   22.4581 C   0  0  0  0  0  0  0  0  0  0  0  0
  -33.1614  -21.4323   17.0352 C   0  0  0  0  0  0  0  0  0  0  0  0
  -20.1893   -7.7485   23.2118 C   0  0  0  0  0  0  0  0  0  0  0  0
  -19.4993   -7.6489   24.4199 C   0  0  0  0  0  0  0  0  0  0  0  0
  -30.7633  -21.6041   16.8378 C   0  0  0  0  0  0  0  0  0  0  0  0
  -32.8689  -15.9030   16.8277 C   0  0  0  0  0  0  0  0  0  0  0  0
  -30.6904  -16.8269   17.2576 C   0  0  0  0  0  0  0  0  0  0  0  0
  -20.8646   -5.7558   25.0438 C   0  0  0  0  0  0  0  0  0  0  0  0
  -23.9153  -10.4973   20.9406 C   0  0  0  0  0  0  0  0  0  0  0  0
  -24.1361  -13.0375   20.8621 C   0  0  0  0  0  0  0  0  0  0  0  0
  -31.7343  -24.0261   25.5727 C   0  0  0  0  0  0  0  0  0  0  0  0
  -31.9587  -23.1268   18.2911 C   0  0  0  0  0  0  0  0  0  0  0  0
  -31.8777  -23.2875   24.3827 C   0  0  0  0  0  0  0  0  0  0  0  0
  -30.7508  -22.6844   17.7332 C   0  0  0  0  0  0  0  0  0  0  0  0
  -31.5765  -16.1850   16.3996 C   0  0  0  0  0  0  0  0  0  0  0  0
  -22.5619   -8.1147   21.4642 C   0  0  0  0  0  0  0  0  0  0  0  0
  -31.9620  -20.9807   16.4923 C   0  0  0  0  0  0  0  0  0  0  0  0
  -21.2170   -6.8517   22.9196 C   0  0  0  0  0  0  0  0  0  0  0  0
  -19.8369   -6.6526   25.3359 C   0  0  0  0  0  0  0  0  0  0  0  0
  -21.5546   -5.8554   23.8356 C   0  0  0  0  0  0  0  0  0  0  0  0
  -24.6149  -11.7276   20.6706 C   0  0  0  0  0  0  0  0  0  0  0  0
  -33.2233  -16.2805   18.1129 C   0  0  0  0  0  0  0  0  0  0  0  0
  -31.1422  -17.1629   18.5236 C   0  0  0  0  0  0  0  0  0  0  0  0
  -25.1721  -13.8442   20.4592 C   0  0  0  0  0  0  0  0  0  0  0  0
  -22.8681  -13.4851   21.3597 C   0  0  0  0  0  0  0  0  0  0  0  0
  -30.3720  -23.5234   21.0166 C   0  0  0  0  0  0  0  0  0  0  0  0
  -28.4510  -25.3788   19.1755 C   0  0  0  0  0  0  0  0  0  0  0  0
  -27.2714  -26.1347   16.0635 C   0  0  0  0  0  0  0  0  0  0  0  0
  -30.7655  -14.8021   20.7959 C   0  0  0  0  0  0  0  0  0  0  0  0
  -30.3982  -24.5699   26.0128 C   0  0  0  0  0  0  0  0  0  0  0  0
  -31.9783  -24.2980   19.2346 C   0  0  0  0  0  0  0  0  0  0  0  0
  -29.4350  -23.3326   18.0752 C   0  0  0  0  0  0  0  0  0  0  0  0
  -29.3667  -24.6339   24.8894 C   0  0  0  0  0  0  0  0  0  0  0  0
  -29.4487  -12.7607   18.0031 C   0  0  0  0  0  0  0  0  0  0  0  0
  -29.3549  -23.3285   24.1004 C   0  0  0  0  0  0  0  0  0  0  0  0
  -28.0615  -12.3640   18.5056 C   0  0  0  0  0  0  0  0  0  0  0  0
  -30.4239  -12.9920   19.1533 C   0  0  0  0  0  0  0  0  0  0  0  0
  -28.5566  -13.5789   20.6642 C   0  0  0  0  0  0  0  0  0  0  0  0
  -30.7144  -23.0711   23.4393 C   0  0  1  0  0  0  0  0  0  0  0  0
  -30.6403  -24.5268   19.9309 C   0  0  1  0  0  0  0  0  0  0  0  0
  -27.5374  -13.3837   19.5316 C   0  0  2  0  0  0  0  0  0  0  0  0
  -36.9695  -16.8695   18.8366 C   0  0  0  0  0  0  0  0  0  0  0  0
  -25.6826  -27.6744   14.8795 C   0  0  0  0  0  0  0  0  0  0  0  0
  -26.0974  -23.7110   20.1700 C   0  0  0  0  0  0  0  0  0  0  0  0
  -24.7345  -24.6373   18.2852 C   0  0  0  0  0  0  0  0  0  0  0  0
  -25.6499  -26.1675   20.0297 C   0  0  0  0  0  0  0  0  0  0  0  0
  -30.8168  -16.7080   22.3594 C   0  0  0  0  0  0  0  0  0  0  0  0
  -29.4477  -27.3305   14.4534 C   0  0  0  0  0  0  0  0  0  0  0  0
  -29.7402  -16.5591   13.1029 C   0  0  0  0  0  0  0  0  0  0  0  0
  -31.1400  -15.7992   15.0169 C   0  0  0  0  0  0  0  0  0  0  0  0
  -34.6026  -15.9954   18.6057 C   0  0  0  0  0  0  0  0  0  0  0  0
  -30.2174  -17.8510   19.4712 C   0  0  0  0  0  0  0  0  0  0  0  0
  -35.5728  -17.1472   18.3037 C   0  0  0  0  0  0  0  0  0  0  0  0
  -31.4567  -19.1987   13.3946 C   0  0  0  0  0  0  0  0  0  0  0  0
  -29.4053  -16.8874   20.3442 C   0  0  0  0  0  0  0  0  0  0  0  0
  -31.8562  -17.7531   13.6494 C   0  0  0  0  0  0  0  0  0  0  0  0
  -30.9315  -19.9167   14.6316 C   0  0  0  0  0  0  0  0  0  1  0  0
  -27.2198  -25.1395   18.3354 C   0  0  1  0  0  0  0  0  0  0  0  0
  -27.1161  -27.4599   15.3397 C   0  0  2  0  0  0  0  0  0  0  0  0
  -25.9498  -24.9001   19.1999 C   0  0  0  0  0  0  0  0  0  0  0  0
  -25.8583  -11.6992   20.1837 N   0  0  0  0  0  0  0  0  0  0  0  0
  -32.3903  -16.9054   18.9749 N   0  0  0  0  0  0  0  0  0  0  0  0
  -26.1696  -13.0012   20.0658 N   0  0  0  0  0  0  0  0  0  0  0  0
  -29.5055  -24.4702   19.0072 N   0  0  0  0  0  0  0  0  0  0  0  0
  -29.8827  -13.9319   20.1355 N   0  0  0  0  0  0  0  0  0  0  0  0
  -25.3181  -15.1852   20.4065 N   0  0  0  0  0  0  0  0  0  0  0  0
  -21.9179  -12.5232   21.7287 N   0  0  0  0  0  0  0  0  0  0  0  0
  -30.8635  -23.8897   22.2551 N   0  0  0  0  0  0  0  0  0  0  0  0
  -27.1184  -26.2762   17.4266 N   0  0  0  0  0  0  0  0  0  0  0  0
  -30.2602  -16.0520   21.1848 N   0  0  0  0  0  0  0  0  0  0  0  0
  -28.0050  -27.5046   14.1444 N   0  3  0  0  0  0  0  0  0  0  0  0
  -30.7091  -16.9806   14.1813 N   0  3  1  0  0  0  0  0  0  0  0  0
  -22.5801  -14.7020   21.4585 O   0  0  0  0  0  0  0  0  0  0  0  0
  -29.7628  -22.4939   20.7508 O   0  0  0  0  0  0  0  0  0  0  0  0
  -28.4790  -26.3407   19.9471 O   0  0  0  0  0  0  0  0  0  0  0  0
  -27.5015  -25.0788   15.4780 O   0  0  0  0  0  0  0  0  0  0  0  0
  -31.9412  -14.4839   21.0164 O   0  0  0  0  0  0  0  0  0  0  0  0
  -21.9016   -6.9523   21.7201 O   0  0  0  0  0  0  0  0  0  0  0  0
  -31.9594  -19.9351   15.6213 O   0  0  0  0  0  0  0  0  0  1  0  0
  -19.1752   -6.5581   26.4967 F   0  0  0  0  0  0  0  0  0  0  0  0
  -22.5418   -4.9917   23.5610 F   0  0  0  0  0  0  0  0  0  0  0  0
  1  2  1  0  0  0  0
  1  5  2  0  0  0  0
  2  6  2  0  0  0  0
  3  8  2  0  0  0  0
  3 17  1  0  0  0  0
  4  9  1  0  0  0  0
  4 17  2  0  0  0  0
  5 19  1  0  0  0  0
  6 21  1  0  0  0  0
  7 10  2  0  0  0  0
  7 20  1  0  0  0  0
  8 24  1  0  0  0  0
  9 24  2  0  0  0  0
 10 25  1  0  0  0  0
 11 12  2  0  0  0  0
 11 26  1  0  0  0  0
 12 27  1  0  0  0  0
 13 22  1  0  0  0  0
 13 25  2  0  0  0  0
 14 23  2  0  0  0  0
 14 30  1  0  0  0  0
 15 23  1  0  0  0  0
 15 31  2  0  0  0  0
 16 27  2  0  0  0  0
 16 28  1  0  0  0  0
 17 29  1  0  0  0  0
 18 29  1  0  0  0  0
 18 32  2  0  0  0  0
 18 33  1  0  0  0  0
 19 21  2  0  0  0  0
 19 38  1  0  0  0  0
 20 22  2  0  0  0  0
 20 39  1  0  0  0  0
 21 47  1  0  0  0  0
 22 40  1  0  0  0  0
 23 58  1  0  0  0  0
 24 86  1  0  0  0  0
 25 87  1  0  0  0  0
 26 28  2  0  0  0  0
 26 86  1  0  0  0  0
 27 88  1  0  0  0  0
 28 89  1  0  0  0  0
 29 69  2  0  0  0  0
 30 59  1  0  0  0  0
 30 70  2  0  0  0  0
 31 60  1  0  0  0  0
 31 70  1  0  0  0  0
 32 71  1  0  0  0  0
 32 74  1  0  0  0  0
 33 75  1  0  0  0  0
 33 81  2  0  0  0  0
 34 48  1  0  0  0  0
 34 76  1  0  0  0  0
 34 82  2  0  0  0  0
 35 66  1  0  0  0  0
 35 72  1  0  0  0  0
 35 83  2  0  0  0  0
 36 67  1  0  0  0  0
 36 77  1  0  0  0  0
 36 84  2  0  0  0  0
 37 73  1  0  0  0  0
 37 78  1  0  0  0  0
 37 85  2  0  0  0  0
 38 41  1  0  0  0  0
 39 48  1  0  0  0  0
 40 72  1  0  0  0  0
 41 43  1  0  0  0  0
 42 44  1  0  0  0  0
 42 45  1  0  0  0  0
 43 47  1  0  0  0  0
 44 49  1  0  0  0  0
 45 73  1  0  0  0  0
 46 49  1  0  0  0  0
 46 73  1  0  0  0  0
 47 76  1  0  0  0  0
 48 72  1  0  0  0  0
 49 71  1  0  0  0  0
 50 61  1  0  0  0  0
 51 67  1  0  0  0  0
 52 68  1  0  0  0  0
 53 68  1  0  0  0  0
 54 68  1  0  0  0  0
 55 78  1  0  0  0  0
 56 79  1  0  0  0  0
 57 80  1  0  0  0  0
 58 80  1  0  0  0  0
 59 61  1  0  0  0  0
 60 63  1  0  0  0  0
 62 64  1  0  0  0  0
 62 65  1  0  0  0  0
 63 78  1  0  0  0  0
 64 80  1  0  0  0  0
 65 87  1  0  0  0  0
 66 68  1  0  0  0  0
 66 77  1  0  0  0  0
 67 79  1  0  0  0  0
 69 71  1  0  0  0  0
M  CHG  2  79   1  80   1
M  ISO  4  37 100  65 101  78 100  87 101
M  END
> <Batch ID>
0049

> <Smiles>
CCCc1cc(CN(C)CC[101CH2:1][101O:1]c2ccc3c(c2)CN(C(=O)C(NC(=O)C(C)NC)C(C)(C)C)C(C(=O)NC2CCCc4ccccc42)C3)cc(CC[100N:0](C)[100C:0](=O)N2CCCC(n3nc(-c4ccc(Oc5ccc(F)cc5F)cc4)c(C(N)=O)c3N)C2)n1

> <Shape>
0.233

> <Color>
0.188

> <Negative vol penalty>
0.000

$$$$

  -OEChem-04052317293D

 84 92  0     1  0  0  0  0  0999 V2000
  -23.9493   -8.0858   21.5374 C   0  0  0  0  0  0  0  0  0  0  0  0
  -24.4820   -9.0845   20.7285 C   0  0  0  0  0  0  0  0  0  0  0  0
  -22.2205  -26.9881   21.5405 C   0  0  0  0  0  0  0  0  0  0  0  0
  -23.5920  -27.3004   23.5048 C   0  0  0  0  0  0  0  0  0  0  0  0
  -22.7460   -8.3013   22.2079 C   0  0  0  0  0  0  0  0  0  0  0  0
  -23.8111  -10.2989   20.5888 C   0  0  0  0  0  0  0  0  0  0  0  0
  -26.9160  -14.2846   20.9336 C   0  0  0  0  0  0  0  0  0  0  0  0
  -21.0730  -27.1658   22.3134 C   0  0  0  0  0  0  0  0  0  0  0  0
  -22.4446  -27.4781   24.2777 C   0  0  0  0  0  0  0  0  0  0  0  0
  -27.6870  -14.5900   19.8129 C   0  0  0  0  0  0  0  0  0  0  0  0
  -17.7945  -27.8955   23.7041 C   0  0  0  0  0  0  0  0  0  0  0  0
  -16.7925  -28.7227   23.1968 C   0  0  0  0  0  0  0  0  0  0  0  0
  -26.1232  -16.3277   19.2179 C   0  0  0  0  0  0  0  0  0  0  0  0
  -18.3450  -30.5733   23.1483 C   0  0  0  0  0  0  0  0  0  0  0  0
  -31.1274  -19.6144   18.9196 C   0  0  0  0  0  0  0  0  0  0  0  0
  -23.4800  -27.0554   22.1362 C   0  0  0  0  0  0  0  0  0  0  0  0
  -25.4012  -27.8662   20.6668 C   0  0  0  0  0  0  0  0  0  0  0  0
  -22.0649   -9.5225   22.0840 C   0  0  0  0  0  0  0  0  0  0  0  0
  -25.7350  -14.9925   21.1994 C   0  0  0  0  0  0  0  0  0  0  0  0
  -22.5969  -10.5304   21.2572 C   0  0  0  0  0  0  0  0  0  0  0  0
  -25.3403  -16.0312   20.3441 C   0  0  0  0  0  0  0  0  0  0  0  0
  -21.1851  -27.4108   23.6820 C   0  0  0  0  0  0  0  0  0  0  0  0
  -27.2891  -15.6097   18.9532 C   0  0  0  0  0  0  0  0  0  0  0  0
  -19.0717  -28.4072   23.9336 C   0  0  0  0  0  0  0  0  0  0  0  0
  -17.0677  -30.0616   22.9188 C   0  0  0  0  0  0  0  0  0  0  0  0
  -19.3469  -29.7461   23.6556 C   0  0  0  0  0  0  0  0  0  0  0  0
  -24.6656  -26.8714   21.3384 C   0  0  0  0  0  0  0  0  0  0  0  0
  -30.5550  -18.3305   18.8437 C   0  0  0  0  0  0  0  0  0  0  0  0
  -30.8524  -20.0380   20.1968 C   0  0  0  0  0  0  0  0  0  0  0  0
  -26.4272  -27.1838   20.0600 C   0  0  0  0  0  0  0  0  0  0  0  0
  -25.1772  -29.2807   20.5978 C   0  0  0  0  0  0  0  0  0  0  0  0
  -22.6595  -14.2211   21.4236 C   0  0  0  0  0  0  0  0  0  0  0  0
  -22.3542  -17.3111   22.3624 C   0  0  0  0  0  0  0  0  0  0  0  0
  -23.6077  -20.4851   22.3336 C   0  0  0  0  0  0  0  0  0  0  0  0
  -30.3958  -23.5492   20.0519 C   0  0  0  0  0  0  0  0  0  0  0  0
  -20.7433   -9.6916   22.7908 C   0  0  0  0  0  0  0  0  0  0  0  0
  -24.9286  -14.6688   22.4272 C   0  0  0  0  0  0  0  0  0  0  0  0
  -24.0916  -16.8347   20.5960 C   0  0  0  0  0  0  0  0  0  0  0  0
  -20.2852  -11.1446   22.8863 C   0  0  0  0  0  0  0  0  0  0  0  0
  -27.1801  -22.2323   19.4219 C   0  0  0  0  0  0  0  0  0  0  0  0
  -20.4424  -11.8435   21.5396 C   0  0  0  0  0  0  0  0  0  0  0  0
  -26.2885  -23.4075   19.8203 C   0  0  0  0  0  0  0  0  0  0  0  0
  -28.3651  -22.0614   20.3743 C   0  0  0  0  0  0  0  0  0  0  0  0
  -28.2787  -24.4659   20.9519 C   0  0  0  0  0  0  0  0  0  0  0  0
  -21.9113  -11.8703   21.1000 C   0  0  1  0  0  0  0  0  0  0  0  0
  -23.4727  -15.1118   22.3198 C   0  0  1  0  0  0  0  0  0  0  0  0
  -27.1141  -24.6963   19.9766 C   0  0  2  0  0  0  0  0  0  0  0  0
  -34.9236  -23.1758   19.1563 C   0  0  0  0  0  0  0  0  0  0  0  0
  -23.1169  -22.8045   23.1565 C   0  0  0  0  0  0  0  0  0  0  0  0
  -20.2351  -17.6306   20.1904 C   0  0  0  0  0  0  0  0  0  0  0  0
  -20.4769  -20.1122   20.4171 C   0  0  0  0  0  0  0  0  0  0  0  0
  -19.6874  -18.7555   22.3559 C   0  0  0  0  0  0  0  0  0  0  0  0
  -29.6450  -18.9892   22.1350 C   0  0  0  0  0  0  0  0  0  0  0  0
  -26.0982  -20.5708   23.9301 C   0  0  0  0  0  0  0  0  0  0  0  0
  -30.5519  -17.3943   17.6617 C   0  0  0  0  0  0  0  0  0  0  0  0
  -31.1826  -21.2954   20.8923 C   0  0  0  0  0  0  0  0  0  0  0  0
  -33.6568  -23.0543   19.9918 C   0  0  0  0  0  0  0  0  0  0  0  0
  -29.3483  -17.5768   16.7346 C   0  0  0  0  0  0  0  0  0  0  0  0
  -32.4702  -22.5328   19.1902 C   0  0  0  0  0  0  0  0  0  0  0  0
  -28.0162  -17.2623   17.4053 C   0  0  0  0  0  0  0  0  0  1  0  0
  -22.1136  -18.6239   21.6570 C   0  0  1  0  0  0  0  0  0  0  0  0
  -23.8269  -21.4917   23.4486 C   0  0  2  0  0  0  0  0  0  0  0  0
  -20.6508  -18.7643   21.1490 C   0  0  0  0  0  0  0  0  0  0  0  0
  -25.1804  -25.6499   21.1738 N   0  0  0  0  0  0  0  0  0  0  0  0
  -29.9613  -17.9626   19.9822 N   0  0  0  0  0  0  0  0  0  0  0  0
  -30.1593  -19.0216   20.7855 N   0  0  0  0  0  0  0  0  0  0  0  0
  -26.2504  -25.8728   20.3917 N   0  0  0  0  0  0  0  0  0  0  0  0
  -23.3335  -16.4760   21.8060 N   0  0  0  0  0  0  0  0  0  0  0  0
  -29.0969  -23.3256   20.5318 N   0  0  0  0  0  0  0  0  0  0  0  0
  -27.4542  -27.5834   19.2802 N   0  0  0  0  0  0  0  0  0  0  0  0
  -24.0767  -29.8169   21.2801 N   0  0  0  0  0  0  0  0  0  0  0  0
  -22.6351  -12.8971   21.8185 N   0  0  0  0  0  0  0  0  0  0  0  0
  -22.5258  -19.6689   22.5877 N   0  0  0  0  0  0  0  0  0  0  0  0
  -31.2571  -22.4434   19.9907 N   0  0  0  0  0  0  0  0  0  0  0  0
  -25.2812  -21.7711   23.6157 N   0  3  0  0  0  0  0  0  0  0  0  0
  -25.9213  -30.0442   19.9368 O   0  0  0  0  0  0  0  0  0  0  0  0
  -22.0948  -14.6999   20.4472 O   0  0  0  0  0  0  0  0  0  0  0  0
  -21.7025  -17.0397   23.3739 O   0  0  0  0  0  0  0  0  0  0  0  0
  -24.3223  -20.4310   21.3351 O   0  0  0  0  0  0  0  0  0  0  0  0
  -30.7698  -24.6768   19.7043 O   0  0  0  0  0  0  0  0  0  0  0  0
  -20.0656  -27.5845   24.4365 O   0  0  0  0  0  0  0  0  0  0  0  0
  -28.0395  -15.9093   17.8583 O   0  0  0  0  0  0  0  0  0  1  0  0
  -16.1059  -30.8555   22.4302 F   0  0  0  0  0  0  0  0  0  0  0  0
  -20.5723  -30.2431   23.8729 F   0  0  0  0  0  0  0  0  0  0  0  0
  1  2  1  0  0  0  0
  1  5  2  0  0  0  0
  2  6  2  0  0  0  0
  3  8  2  0  0  0  0
  3 16  1  0  0  0  0
  4  9  1  0  0  0  0
  4 16  2  0  0  0  0
  5 18  1  0  0  0  0
  6 20  1  0  0  0  0
  7 10  2  0  0  0  0
  7 19  1  0  0  0  0
  8 22  1  0  0  0  0
  9 22  2  0  0  0  0
 10 23  1  0  0  0  0
 11 12  2  0  0  0  0
 11 24  1  0  0  0  0
 12 25  1  0  0  0  0
 13 21  1  0  0  0  0
 13 23  2  0  0  0  0
 14 25  2  0  0  0  0
 14 26  1  0  0  0  0
 15 28  1  0  0  0  0
 15 29  2  0  0  0  0
 16 27  1  0  0  0  0
 17 27  1  0  0  0  0
 17 30  2  0  0  0  0
 17 31  1  0  0  0  0
 18 20  2  0  0  0  0
 18 36  1  0  0  0  0
 19 21  2  0  0  0  0
 19 37  1  0  0  0  0
 20 45  1  0  0  0  0
 21 38  1  0  0  0  0
 22 81  1  0  0  0  0
 23 82  1  0  0  0  0
 24 26  2  0  0  0  0
 24 81  1  0  0  0  0
 25 83  1  0  0  0  0
 26 84  1  0  0  0  0
 27 64  2  0  0  0  0
 28 55  1  0  0  0  0
 28 65  2  0  0  0  0
 29 56  1  0  0  0  0
 29 66  1  0  0  0  0
 30 67  1  0  0  0  0
 30 70  1  0  0  0  0
 31 71  1  0  0  0  0
 31 76  2  0  0  0  0
 32 46  1  0  0  0  0
 32 72  1  0  0  0  0
 32 77  2  0  0  0  0
 33 61  1  0  0  0  0
 33 68  1  0  0  0  0
 33 78  2  0  0  0  0
 34 62  1  0  0  0  0
 34 73  1  0  0  0  0
 34 79  2  0  0  0  0
 35 69  1  0  0  0  0
 35 74  1  0  0  0  0
 35 80  2  0  0  0  0
 36 39  1  0  0  0  0
 37 46  1  0  0  0  0
 38 68  1  0  0  0  0
 39 41  1  0  0  0  0
 40 42  1  0  0  0  0
 40 43  1  0  0  0  0
 41 45  1  0  0  0  0
 42 47  1  0  0  0  0
 43 69  1  0  0  0  0
 44 47  1  0  0  0  0
 44 69  1  0  0  0  0
 45 72  1  0  0  0  0
 46 68  1  0  0  0  0
 47 67  1  0  0  0  0
 48 57  1  0  0  0  0
 49 62  1  0  0  0  0
 50 63  1  0  0  0  0
 51 63  1  0  0  0  0
 52 63  1  0  0  0  0
 53 66  1  0  0  0  0
 54 75  1  0  0  0  0
 55 58  1  0  0  0  0
 56 74  1  0  0  0  0
 57 59  1  0  0  0  0
 58 60  1  0  0  0  0
 59 74  1  0  0  0  0
 60 82  1  0  0  0  0
 61 63  1  0  0  0  0
 61 73  1  0  0  0  0
 62 75  1  0  0  0  0
 64 67  1  0  0  0  0
 65 66  1  0  0  0  0
M  CHG  1  75   1
M  ISO  4  35 100  60 101  74 100  82 101
M  END
> <Batch ID>
0049

> <Smiles>
CCC[100N:0](Cc1cc(CC[101CH2:1][101O:1]c2ccc3c(c2)CN(C(=O)C(NC(=O)C(C)NC)C(C)(C)C)C(C(=O)NC2CCCc4ccccc42)C3)nn1C)[100C:0](=O)N1CCCC(n2nc(-c3ccc(Oc4ccc(F)cc4F)cc3)c(C(N)=O)c2N)C1

> <Shape>
0.224

> <Color>
0.100

> <Negative vol penalty>
0.000

$$$$

  -OEChem-04052317293D

 83 91  0     1  0  0  0  0  0999 V2000
  -21.4941  -18.4793   16.7235 C   0  0  0  0  0  0  0  0  0  0  0  0
  -21.9370  -17.4115   17.4975 C   0  0  0  0  0  0  0  0  0  0  0  0
  -23.2883   -9.7997   19.9128 C   0  0  0  0  0  0  0  0  0  0  0  0
  -23.7392   -9.9399   22.2822 C   0  0  0  0  0  0  0  0  0  0  0  0
  -21.6269  -19.7841   17.1967 C   0  0  0  0  0  0  0  0  0  0  0  0
  -22.5141  -17.6480   18.7447 C   0  0  0  0  0  0  0  0  0  0  0  0
  -23.1089  -14.7373   25.2631 C   0  0  0  0  0  0  0  0  0  0  0  0
  -22.5619   -8.6272   20.1204 C   0  0  0  0  0  0  0  0  0  0  0  0
  -23.0128   -8.7674   22.4899 C   0  0  0  0  0  0  0  0  0  0  0  0
  -24.0786  -14.3826   26.1999 C   0  0  0  0  0  0  0  0  0  0  0  0
  -19.7657   -7.8565   22.7072 C   0  0  0  0  0  0  0  0  0  0  0  0
  -18.8634   -7.8347   23.7706 C   0  0  0  0  0  0  0  0  0  0  0  0
  -24.1842  -16.6732   26.9491 C   0  0  0  0  0  0  0  0  0  0  0  0
  -27.9251  -16.0079   25.5146 C   0  0  0  0  0  0  0  0  0  0  0  0
  -30.0648  -15.0275   26.0093 C   0  0  0  0  0  0  0  0  0  0  0  0
  -20.0691   -5.9872   24.7558 C   0  0  0  0  0  0  0  0  0  0  0  0
  -23.8771  -10.4561   20.9937 C   0  0  0  0  0  0  0  0  0  0  0  0
  -24.1366  -12.9861   20.7955 C   0  0  0  0  0  0  0  0  0  0  0  0
  -22.1971  -20.0360   18.4545 C   0  0  0  0  0  0  0  0  0  0  0  0
  -22.6767  -16.0669   25.1547 C   0  0  0  0  0  0  0  0  0  0  0  0
  -22.6559  -18.9574   19.2345 C   0  0  0  0  0  0  0  0  0  0  0  0
  -23.2070  -17.0417   26.0119 C   0  0  0  0  0  0  0  0  0  0  0  0
  -28.8255  -15.4892   26.4384 C   0  0  0  0  0  0  0  0  0  0  0  0
  -22.4241   -8.1111   21.4089 C   0  0  0  0  0  0  0  0  0  0  0  0
  -24.6185  -15.3511   27.0411 C   0  0  0  0  0  0  0  0  0  0  0  0
  -20.8197   -6.9436   22.6680 C   0  0  0  0  0  0  0  0  0  0  0  0
  -19.0151   -6.9001   24.7949 C   0  0  0  0  0  0  0  0  0  0  0  0
  -20.9714   -6.0090   23.6923 C   0  0  0  0  0  0  0  0  0  0  0  0
  -24.6280  -11.6670   20.7799 C   0  0  0  0  0  0  0  0  0  0  0  0
  -28.3091  -16.0426   24.1837 C   0  0  0  0  0  0  0  0  0  0  0  0
  -30.3530  -15.1059   24.6563 C   0  0  0  0  0  0  0  0  0  0  0  0
  -25.2381  -13.7660   20.5406 C   0  0  0  0  0  0  0  0  0  0  0  0
  -22.8035  -13.4637   21.0205 C   0  0  0  0  0  0  0  0  0  0  0  0
  -22.7482  -18.2691   22.8636 C   0  0  0  0  0  0  0  0  0  0  0  0
  -20.9707  -19.9678   24.9796 C   0  0  0  0  0  0  0  0  0  0  0  0
  -20.0628  -20.5080   28.2247 C   0  0  0  0  0  0  0  0  0  0  0  0
  -31.1090  -12.9226   21.3599 C   0  0  0  0  0  0  0  0  0  0  0  0
  -22.3626  -21.4664   18.9031 C   0  0  0  0  0  0  0  0  0  0  0  0
  -21.6105  -16.4284   24.1572 C   0  0  0  0  0  0  0  0  0  0  0  0
  -22.7622  -18.4793   25.9494 C   0  0  0  0  0  0  0  0  0  0  0  0
  -22.6436  -21.6076   20.3969 C   0  0  0  0  0  0  0  0  0  0  0  0
  -29.4601  -13.6625   18.2923 C   0  0  0  0  0  0  0  0  0  0  0  0
  -23.7193  -20.6181   20.8336 C   0  0  0  0  0  0  0  0  0  0  0  0
  -27.9903  -13.3540   18.5834 C   0  0  0  0  0  0  0  0  0  0  0  0
  -30.3933  -12.6830   19.0005 C   0  0  0  0  0  0  0  0  0  0  0  0
  -28.7067  -12.2534   20.7454 C   0  0  0  0  0  0  0  0  0  0  0  0
  -23.2647  -19.1718   20.6033 C   0  0  1  0  0  0  0  0  0  0  0  0
  -21.6175  -17.9078   23.7848 C   0  0  1  0  0  0  0  0  0  0  0  0
  -27.7288  -13.2488   20.0979 C   0  0  2  0  0  0  0  0  0  0  0  0
  -27.3691  -16.5941   23.1645 C   0  0  0  0  0  0  0  0  0  0  0  0
  -18.6209  -21.9905   29.6462 C   0  0  0  0  0  0  0  0  0  0  0  0
  -23.0047  -22.2232   24.6865 C   0  0  0  0  0  0  0  0  0  0  0  0
  -22.0719  -23.2420   26.7746 C   0  0  0  0  0  0  0  0  0  0  0  0
  -20.6200  -22.9726   24.7641 C   0  0  0  0  0  0  0  0  0  0  0  0
  -18.4560  -18.2170   29.1882 C   0  0  0  0  0  0  0  0  0  0  0  0
  -28.4597  -15.4286   27.9000 C   0  0  0  0  0  0  0  0  0  0  0  0
  -31.6731  -14.6178   24.1604 C   0  0  0  0  0  0  0  0  0  0  0  0
  -27.7689  -14.1257   28.3085 C   0  0  0  0  0  0  0  0  0  0  0  0
  -31.6710  -13.1359   23.7678 C   0  0  0  0  0  0  0  0  0  0  0  0
  -26.4228  -13.9159   27.6248 C   0  0  0  0  0  0  0  0  0  1  0  0
  -21.2756  -20.9301   26.1021 C   0  0  1  0  0  0  0  0  0  0  0  0
  -18.7019  -20.6827   28.8742 C   0  0  2  0  0  0  0  0  0  0  0  0
  -21.7531  -22.3153   25.5819 C   0  0  0  0  0  0  0  0  0  0  0  0
  -25.9396  -11.6083   20.5343 N   0  0  0  0  0  0  0  0  0  0  0  0
  -29.5041  -15.6034   23.7292 N   0  0  0  0  0  0  0  0  0  0  0  0
  -26.2816  -12.9003   20.3932 N   0  0  0  0  0  0  0  0  0  0  0  0
  -21.7219  -18.7842   24.9532 N   0  0  0  0  0  0  0  0  0  0  0  0
  -30.0941  -12.6313   20.4336 N   0  0  0  0  0  0  0  0  0  0  0  0
  -25.4060  -15.1009   20.4304 N   0  0  0  0  0  0  0  0  0  0  0  0
  -21.7909  -12.5268   21.2678 N   0  0  0  0  0  0  0  0  0  0  0  0
  -22.3404  -18.7616   21.6387 N   0  0  0  0  0  0  0  0  0  0  0  0
  -20.0760  -20.9840   26.9307 N   0  0  0  0  0  0  0  0  0  0  0  0
  -30.7394  -12.8568   22.6977 N   0  0  0  0  0  0  0  0  0  0  0  0
  -18.4309  -19.5620   29.8184 N   0  3  0  0  0  0  0  0  0  0  0  0
  -22.5157  -14.6842   20.9864 O   0  0  0  0  0  0  0  0  0  0  0  0
  -23.9049  -18.1140   23.2372 O   0  0  0  0  0  0  0  0  0  0  0  0
  -20.0933  -20.2524   24.1606 O   0  0  0  0  0  0  0  0  0  0  0  0
  -21.0196  -20.0034   28.8083 O   0  0  0  0  0  0  0  0  0  0  0  0
  -32.2580  -13.2243   21.0197 O   0  0  0  0  0  0  0  0  0  0  0  0
  -21.7151   -6.9671   21.6119 O   0  0  0  0  0  0  0  0  0  0  0  0
  -25.5657  -15.0077   27.9559 O   0  0  0  0  0  0  0  0  0  1  0  0
  -18.1494   -6.8803   25.8169 F   0  0  0  0  0  0  0  0  0  0  0  0
  -21.9827   -5.1303   23.6607 F   0  0  0  0  0  0  0  0  0  0  0  0
  1  2  1  0  0  0  0
  1  5  2  0  0  0  0
  2  6  2  0  0  0  0
  3  8  2  0  0  0  0
  3 17  1  0  0  0  0
  4  9  1  0  0  0  0
  4 17  2  0  0  0  0
  5 19  1  0  0  0  0
  6 21  1  0  0  0  0
  7 10  2  0  0  0  0
  7 20  1  0  0  0  0
  8 24  1  0  0  0  0
  9 24  2  0  0  0  0
 10 25  1  0  0  0  0
 11 12  2  0  0  0  0
 11 26  1  0  0  0  0
 12 27  1  0  0  0  0
 13 22  1  0  0  0  0
 13 25  2  0  0  0  0
 14 23  1  0  0  0  0
 14 30  2  0  0  0  0
 15 23  2  0  0  0  0
 15 31  1  0  0  0  0
 16 27  2  0  0  0  0
 16 28  1  0  0  0  0
 17 29  1  0  0  0  0
 18 29  1  0  0  0  0
 18 32  2  0  0  0  0
 18 33  1  0  0  0  0
 19 21  2  0  0  0  0
 19 38  1  0  0  0  0
 20 22  2  0  0  0  0
 20 39  1  0  0  0  0
 21 47  1  0  0  0  0
 22 40  1  0  0  0  0
 23 56  1  0  0  0  0
 24 80  1  0  0  0  0
 25 81  1  0  0  0  0
 26 28  2  0  0  0  0
 26 80  1  0  0  0  0
 27 82  1  0  0  0  0
 28 83  1  0  0  0  0
 29 64  2  0  0  0  0
 30 50  1  0  0  0  0
 30 65  1  0  0  0  0
 31 57  1  0  0  0  0
 31 65  2  0  0  0  0
 32 66  1  0  0  0  0
 32 69  1  0  0  0  0
 33 70  1  0  0  0  0
 33 75  2  0  0  0  0
 34 48  1  0  0  0  0
 34 71  1  0  0  0  0
 34 76  2  0  0  0  0
 35 61  1  0  0  0  0
 35 67  1  0  0  0  0
 35 77  2  0  0  0  0
 36 62  1  0  0  0  0
 36 72  1  0  0  0  0
 36 78  2  0  0  0  0
 37 68  1  0  0  0  0
 37 73  1  0  0  0  0
 37 79  2  0  0  0  0
 38 41  1  0  0  0  0
 39 48  1  0  0  0  0
 40 67  1  0  0  0  0
 41 43  1  0  0  0  0
 42 44  1  0  0  0  0
 42 45  1  0  0  0  0
 43 47  1  0  0  0  0
 44 49  1  0  0  0  0
 45 68  1  0  0  0  0
 46 49  1  0  0  0  0
 46 68  1  0  0  0  0
 47 71  1  0  0  0  0
 48 67  1  0  0  0  0
 49 66  1  0  0  0  0
 51 62  1  0  0  0  0
 52 63  1  0  0  0  0
 53 63  1  0  0  0  0
 54 63  1  0  0  0  0
 55 74  1  0  0  0  0
 56 58  1  0  0  0  0
 57 59  1  0  0  0  0
 58 60  1  0  0  0  0
 59 73  1  0  0  0  0
 60 81  1  0  0  0  0
 61 63  1  0  0  0  0
 61 72  1  0  0  0  0
 62 74  1  0  0  0  0
 64 66  1  0  0  0  0
M  CHG  1  74   1
M  ISO  4  37 100  60 101  73 100  81 101
M  END
> <Batch ID>
0049

> <Smiles>
CNC(C)C(=O)NC(C(=O)N1Cc2cc([101O:1][101CH2:1]CCc3cc(C)nc(CC[100NH:0][100C:0](=O)N4CCCC(n5nc(-c6ccc(Oc7ccc(F)cc7F)cc6)c(C(N)=O)c5N)C4)c3)ccc2CC1C(=O)NC1CCCc2ccccc21)C(C)(C)C

> <Shape>
0.136

> <Color>
0.178

> <Negative vol penalty>
0.000

$$$$

  -OEChem-04052317293D

 84 92  0     1  0  0  0  0  0999 V2000
  -21.8313  -11.8002   19.5395 C   0  0  0  0  0  0  0  0  0  0  0  0
  -21.5667  -12.8662   20.3934 C   0  0  0  0  0  0  0  0  0  0  0  0
  -28.5941  -26.0549   14.6066 C   0  0  0  0  0  0  0  0  0  0  0  0
  -26.9240  -24.3741   15.0784 C   0  0  0  0  0  0  0  0  0  0  0  0
  -23.1497  -11.4408   19.2629 C   0  0  0  0  0  0  0  0  0  0  0  0
  -22.6205  -13.5727   20.9720 C   0  0  0  0  0  0  0  0  0  0  0  0
  -22.7837  -19.5638   22.2312 C   0  0  0  0  0  0  0  0  0  0  0  0
  -29.3533  -25.1077   13.9196 C   0  0  0  0  0  0  0  0  0  0  0  0
  -27.6831  -23.4269   14.3913 C   0  0  0  0  0  0  0  0  0  0  0  0
  -22.5663  -20.2815   23.4066 C   0  0  0  0  0  0  0  0  0  0  0  0
  -29.3525  -20.4809   13.0705 C   0  0  0  0  0  0  0  0  0  0  0  0
  -29.5151  -19.2279   13.6614 C   0  0  0  0  0  0  0  0  0  0  0  0
  -24.9429  -20.3153   23.8185 C   0  0  0  0  0  0  0  0  0  0  0  0
  -30.5750  -20.2649   15.5689 C   0  0  0  0  0  0  0  0  0  0  0  0
  -20.6098  -27.5845   23.3585 C   0  0  0  0  0  0  0  0  0  0  0  0
  -27.3795  -25.6881   15.1861 C   0  0  0  0  0  0  0  0  0  0  0  0
  -25.5988  -27.5061   15.3642 C   0  0  0  0  0  0  0  0  0  0  0  0
  -24.2202  -12.1493   19.8307 C   0  0  0  0  0  0  0  0  0  0  0  0
  -24.0837  -19.2065   21.8457 C   0  0  0  0  0  0  0  0  0  0  0  0
  -23.9544  -13.2216   20.7037 C   0  0  0  0  0  0  0  0  0  0  0  0
  -25.1744  -19.5953   22.6365 C   0  0  0  0  0  0  0  0  0  0  0  0
  -28.8978  -23.7937   13.8118 C   0  0  0  0  0  0  0  0  0  0  0  0
  -23.6457  -20.6549   24.2019 C   0  0  0  0  0  0  0  0  0  0  0  0
  -29.8011  -21.6259   13.7288 C   0  0  0  0  0  0  0  0  0  0  0  0
  -30.1263  -19.1199   14.9105 C   0  0  0  0  0  0  0  0  0  0  0  0
  -30.4123  -21.5179   14.9780 C   0  0  0  0  0  0  0  0  0  0  0  0
  -26.5951  -26.6659   15.8965 C   0  0  0  0  0  0  0  0  0  0  0  0
  -20.2934  -28.1180   22.1258 C   0  0  0  0  0  0  0  0  0  0  0  0
  -19.7522  -26.6091   23.8247 C   0  0  0  0  0  0  0  0  0  0  0  0
  -25.1604  -28.2419   16.4379 C   0  0  0  0  0  0  0  0  0  0  0  0
  -18.4658  -26.7769   21.9582 C   0  0  0  0  0  0  0  0  0  0  0  0
  -25.1131  -27.6119   14.0193 C   0  0  0  0  0  0  0  0  0  0  0  0
  -25.6079  -16.4571   21.3749 C   0  0  0  0  0  0  0  0  0  0  0  0
  -27.9859  -18.4025   20.3342 C   0  0  0  0  0  0  0  0  0  0  0  0
  -29.4355  -21.4915   20.3903 C   0  0  0  0  0  0  0  0  0  0  0  0
  -23.5618  -28.5876   21.7736 C   0  0  0  0  0  0  0  0  0  0  0  0
  -25.6282  -11.6939   19.5393 C   0  0  0  0  0  0  0  0  0  0  0  0
  -24.3036  -18.4553   20.5612 C   0  0  0  0  0  0  0  0  0  0  0  0
  -26.5912  -19.2539   22.2565 C   0  0  0  0  0  0  0  0  0  0  0  0
  -26.6900  -12.7304   19.8975 C   0  0  0  0  0  0  0  0  0  0  0  0
  -27.0566  -28.7079   21.1041 C   0  0  0  0  0  0  0  0  0  0  0  0
  -26.4246  -13.3096   21.2835 C   0  0  0  0  0  0  0  0  0  0  0  0
  -27.1661  -28.2509   19.6484 C   0  0  0  0  0  0  0  0  0  0  0  0
  -25.9561  -27.9568   21.8502 C   0  0  0  0  0  0  0  0  0  0  0  0
  -24.7408  -27.5388   19.7473 C   0  0  0  0  0  0  0  0  0  0  0  0
  -25.0707  -14.0280   21.3312 C   0  0  1  0  0  0  0  0  0  0  0  0
  -25.6285  -17.6996   20.5303 C   0  0  1  0  0  0  0  0  0  0  0  0
  -25.8000  -28.3074   18.9387 C   0  0  2  0  0  0  0  0  0  0  0  0
  -17.2769  -26.3252   21.1794 C   0  0  0  0  0  0  0  0  0  0  0  0
  -31.3899  -22.7674   19.4686 C   0  0  0  0  0  0  0  0  0  0  0  0
  -29.8361  -16.9870   22.3047 C   0  0  0  0  0  0  0  0  0  0  0  0
  -31.4544  -18.8784   22.0363 C   0  0  0  0  0  0  0  0  0  0  0  0
  -30.8573  -17.4619   20.0717 C   0  0  0  0  0  0  0  0  0  0  0  0
  -27.6706  -23.4284   19.0146 C   0  0  0  0  0  0  0  0  0  0  0  0
  -21.1629  -29.1789   21.5387 C   0  0  0  0  0  0  0  0  0  0  0  0
  -20.0153  -25.9684   25.1556 C   0  0  0  0  0  0  0  0  0  0  0  0
  -22.6152  -23.3997   26.2975 C   0  0  0  0  0  0  0  0  0  0  0  0
  -21.4679  -24.3893   26.4344 C   0  0  0  0  0  0  0  0  0  0  0  0
  -22.3019  -22.2201   25.3852 C   0  0  0  0  0  0  0  0  0  1  0  0
  -29.1585  -19.0983   20.9820 C   0  0  1  0  0  0  0  0  0  0  0  0
  -29.9289  -22.3931   19.2732 C   0  0  2  0  0  0  0  0  0  0  0  0
  -30.2999  -18.1113   21.3571 C   0  0  0  0  0  0  0  0  0  0  0  0
  -26.7790  -26.8501   17.2066 N   0  0  0  0  0  0  0  0  0  0  0  0
  -19.2251  -27.7362   21.3955 N   0  0  0  0  0  0  0  0  0  0  0  0
  -18.6667  -26.1796   23.1484 N   0  0  0  0  0  0  0  0  0  0  0  0
  -25.8924  -27.8146   17.5064 N   0  0  0  0  0  0  0  0  0  0  0  0
  -26.7541  -18.5130   20.9947 N   0  0  0  0  0  0  0  0  0  0  0  0
  -24.6864  -28.0507   21.1256 N   0  0  0  0  0  0  0  0  0  0  0  0
  -24.2241  -29.2063   16.5628 N   0  0  0  0  0  0  0  0  0  0  0  0
  -25.6733  -26.7813   13.0393 N   0  0  0  0  0  0  0  0  0  0  0  0
  -25.1673  -15.3303   20.7073 N   0  0  0  0  0  0  0  0  0  0  0  0
  -29.5624  -20.1578   20.0641 N   0  0  0  0  0  0  0  0  0  0  0  0
  -22.4003  -28.6464   21.0132 N   0  0  0  0  0  0  0  0  0  0  0  0
  -29.1248  -23.6469   19.2260 N   0  3  0  0  0  0  0  0  0  0  0  0
  -21.1404  -24.9934   25.1217 N   0  3  0  0  0  0  0  0  0  0  0  0
  -24.2205  -28.4307   13.6931 O   0  0  0  0  0  0  0  0  0  0  0  0
  -25.9666  -16.5160   22.5451 O   0  0  0  0  0  0  0  0  0  0  0  0
  -28.1550  -17.7896   19.2771 O   0  0  0  0  0  0  0  0  0  0  0  0
  -28.9860  -21.9268   21.4482 O   0  0  0  0  0  0  0  0  0  0  0  0
  -23.5920  -28.9901   22.9416 O   0  0  0  0  0  0  0  0  0  0  0  0
  -29.6382  -22.8693   13.1413 O   0  0  0  0  0  0  0  0  0  0  0  0
  -23.4362  -21.3549   25.3499 O   0  0  0  0  0  0  0  0  0  1  0  0
  -30.2810  -17.9167   15.4785 F   0  0  0  0  0  0  0  0  0  0  0  0
  -30.8443  -22.6145   15.6157 F   0  0  0  0  0  0  0  0  0  0  0  0
  1  2  1  0  0  0  0
  1  5  2  0  0  0  0
  2  6  2  0  0  0  0
  3  8  2  0  0  0  0
  3 16  1  0  0  0  0
  4  9  1  0  0  0  0
  4 16  2  0  0  0  0
  5 18  1  0  0  0  0
  6 20  1  0  0  0  0
  7 10  2  0  0  0  0
  7 19  1  0  0  0  0
  8 22  1  0  0  0  0
  9 22  2  0  0  0  0
 10 23  1  0  0  0  0
 11 12  2  0  0  0  0
 11 24  1  0  0  0  0
 12 25  1  0  0  0  0
 13 21  1  0  0  0  0
 13 23  2  0  0  0  0
 14 25  2  0  0  0  0
 14 26  1  0  0  0  0
 15 28  2  0  0  0  0
 15 29  1  0  0  0  0
 16 27  1  0  0  0  0
 17 27  1  0  0  0  0
 17 30  2  0  0  0  0
 17 32  1  0  0  0  0
 18 20  2  0  0  0  0
 18 37  1  0  0  0  0
 19 21  2  0  0  0  0
 19 38  1  0  0  0  0
 20 46  1  0  0  0  0
 21 39  1  0  0  0  0
 22 81  1  0  0  0  0
 23 82  1  0  0  0  0
 24 26  2  0  0  0  0
 24 81  1  0  0  0  0
 25 83  1  0  0  0  0
 26 84  1  0  0  0  0
 27 63  2  0  0  0  0
 28 55  1  0  0  0  0
 28 64  1  0  0  0  0
 29 56  1  0  0  0  0
 29 65  2  0  0  0  0
 30 66  1  0  0  0  0
 30 69  1  0  0  0  0
 31 49  1  0  0  0  0
 31 64  2  0  0  0  0
 31 65  1  0  0  0  0
 32 70  1  0  0  0  0
 32 76  2  0  0  0  0
 33 47  1  0  0  0  0
 33 71  1  0  0  0  0
 33 77  2  0  0  0  0
 34 60  1  0  0  0  0
 34 67  1  0  0  0  0
 34 78  2  0  0  0  0
 35 61  1  0  0  0  0
 35 72  1  0  0  0  0
 35 79  2  0  0  0  0
 36 68  1  0  0  0  0
 36 73  1  0  0  0  0
 36 80  2  0  0  0  0
 37 40  1  0  0  0  0
 38 47  1  0  0  0  0
 39 67  1  0  0  0  0
 40 42  1  0  0  0  0
 41 43  1  0  0  0  0
 41 44  1  0  0  0  0
 42 46  1  0  0  0  0
 43 48  1  0  0  0  0
 44 68  1  0  0  0  0
 45 48  1  0  0  0  0
 45 68  1  0  0  0  0
 46 71  1  0  0  0  0
 47 67  1  0  0  0  0
 48 66  1  0  0  0  0
 50 61  1  0  0  0  0
 51 62  1  0  0  0  0
 52 62  1  0  0  0  0
 53 62  1  0  0  0  0
 54 74  1  0  0  0  0
 55 73  1  0  0  0  0
 56 75  1  0  0  0  0
 57 58  1  0  0  0  0
 57 59  1  0  0  0  0
 58 75  1  0  0  0  0
 59 82  1  0  0  0  0
 60 62  1  0  0  0  0
 60 72  1  0  0  0  0
 61 74  1  0  0  0  0
 63 66  1  0  0  0  0
M  CHG  2  74   1  75   1
M  ISO  4  36 100  59 101  73 100  82 101
M  END
> <Batch ID>
0049

> <Smiles>
CNC(C)C(=O)NC(C(=O)N1Cc2cc([101O:1][101CH2:1]CCNCc3cc(C[100NH:0][100C:0](=O)N4CCCC(n5nc(-c6ccc(Oc7ccc(F)cc7F)cc6)c(C(N)=O)c5N)C4)nc(C)n3)ccc2CC1C(=O)NC1CCCc2ccccc21)C(C)(C)C

> <Shape>
0.195

> <Color>
0.080

> <Negative vol penalty>
0.000

$$$$

  -OEChem-04052317293D

 87 95  0     1  0  0  0  0  0999 V2000
  -19.6628  -27.9189   26.8253 C   0  0  0  0  0  0  0  0  0  0  0  0
  -20.4491  -27.1565   25.9675 C   0  0  0  0  0  0  0  0  0  0  0  0
  -24.8329   -8.5941   21.7372 C   0  0  0  0  0  0  0  0  0  0  0  0
  -23.4243   -9.4890   19.9902 C   0  0  0  0  0  0  0  0  0  0  0  0
  -18.9671  -29.0232   26.3348 C   0  0  0  0  0  0  0  0  0  0  0  0
  -20.5394  -27.4973   24.6184 C   0  0  0  0  0  0  0  0  0  0  0  0
  -25.2947  -27.3270   22.8855 C   0  0  0  0  0  0  0  0  0  0  0  0
  -23.7026   -8.1346   22.4132 C   0  0  0  0  0  0  0  0  0  0  0  0
  -22.2940   -9.0294   20.6661 C   0  0  0  0  0  0  0  0  0  0  0  0
  -25.8221  -26.0694   22.5957 C   0  0  0  0  0  0  0  0  0  0  0  0
  -21.5547   -5.5325   22.1927 C   0  0  0  0  0  0  0  0  0  0  0  0
  -21.5891   -4.2363   22.7067 C   0  0  0  0  0  0  0  0  0  0  0  0
  -25.3736  -26.4280   20.2527 C   0  0  0  0  0  0  0  0  0  0  0  0
  -21.2436   -5.1097   24.9326 C   0  0  0  0  0  0  0  0  0  0  0  0
  -28.3839  -20.0022   20.6383 C   0  0  0  0  0  0  0  0  0  0  0  0
  -24.6937   -9.2714   20.5257 C   0  0  0  0  0  0  0  0  0  0  0  0
  -26.6159   -9.0529   18.8628 C   0  0  0  0  0  0  0  0  0  0  0  0
  -19.0566  -29.3834   24.9809 C   0  0  0  0  0  0  0  0  0  0  0  0
  -24.7920  -28.1414   21.8607 C   0  0  0  0  0  0  0  0  0  0  0  0
  -19.8432  -28.6067   24.1090 C   0  0  0  0  0  0  0  0  0  0  0  0
  -24.8427  -27.6965   20.5319 C   0  0  0  0  0  0  0  0  0  0  0  0
  -22.4332   -8.3522   21.8776 C   0  0  0  0  0  0  0  0  0  0  0  0
  -25.8590  -25.6185   21.2795 C   0  0  0  0  0  0  0  0  0  0  0  0
  -21.3648   -6.6174   23.0487 C   0  0  0  0  0  0  0  0  0  0  0  0
  -21.4335   -4.0249   24.0766 C   0  0  0  0  0  0  0  0  0  0  0  0
  -21.2092   -6.4060   24.4186 C   0  0  0  0  0  0  0  0  0  0  0  0
  -25.8609   -9.7468   19.8273 C   0  0  0  0  0  0  0  0  0  0  0  0
  -29.2032  -21.0289   21.0614 C   0  0  0  0  0  0  0  0  0  0  0  0
  -27.0284  -20.2450   20.7269 C   0  0  0  0  0  0  0  0  0  0  0  0
  -27.6111   -9.9309   18.5090 C   0  0  0  0  0  0  0  0  0  0  0  0
  -27.4043  -22.3211   21.5728 C   0  0  0  0  0  0  0  0  0  0  0  0
  -26.4339   -7.7327   18.3340 C   0  0  0  0  0  0  0  0  0  0  0  0
  -21.9468  -29.3798   21.1713 C   0  0  0  0  0  0  0  0  0  0  0  0
  -23.6054  -30.8891   18.8275 C   0  0  0  0  0  0  0  0  0  0  0  0
  -26.3404  -30.9416   16.7870 C   0  0  0  0  0  0  0  0  0  0  0  0
  -28.0287  -15.9016   18.6718 C   0  0  0  0  0  0  0  0  0  0  0  0
  -18.2488  -30.5575   24.4873 C   0  0  0  0  0  0  0  0  0  0  0  0
  -24.2509  -29.5064   22.1868 C   0  0  0  0  0  0  0  0  0  0  0  0
  -24.3343  -28.5408   19.3930 C   0  0  0  0  0  0  0  0  0  0  0  0
  -18.6952  -31.0727   23.1214 C   0  0  0  0  0  0  0  0  0  0  0  0
  -30.1965  -13.5601   20.2512 C   0  0  0  0  0  0  0  0  0  0  0  0
  -18.8908  -29.9123   22.1509 C   0  0  0  0  0  0  0  0  0  0  0  0
  -29.3993  -12.2547   20.2346 C   0  0  0  0  0  0  0  0  0  0  0  0
  -29.2929  -14.7703   20.4769 C   0  0  0  0  0  0  0  0  0  0  0  0
  -27.3604  -13.5732   19.5251 C   0  0  0  0  0  0  0  0  0  0  0  0
  -19.9861  -28.9591   22.6443 C   0  0  1  0  0  0  0  0  0  0  0  0
  -23.2956  -30.0402   21.1238 C   0  0  1  0  0  0  0  0  0  0  0  0
  -28.2213  -12.3296   19.2446 C   0  0  2  0  0  0  0  0  0  0  0  0
  -30.6844  -20.8594   21.0027 C   0  0  0  0  0  0  0  0  0  0  0  0
  -27.4021  -32.2815   14.9499 C   0  0  0  0  0  0  0  0  0  0  0  0
  -21.5697  -29.7786   16.8444 C   0  0  0  0  0  0  0  0  0  0  0  0
  -23.1715  -30.3267   14.9999 C   0  0  0  0  0  0  0  0  0  0  0  0
  -22.2452  -32.1502   16.4280 C   0  0  0  0  0  0  0  0  0  0  0  0
  -25.0999  -18.6390   15.9745 C   0  0  0  0  0  0  0  0  0  0  0  0
  -24.1824  -16.4462   16.7221 C   0  0  0  0  0  0  0  0  0  0  0  0
  -28.7628  -31.4593   18.4066 C   0  0  0  0  0  0  0  0  0  0  0  0
  -26.0634  -19.1938   20.2908 C   0  0  0  0  0  0  0  0  0  0  0  0
  -26.8563  -23.6180   22.0915 C   0  0  0  0  0  0  0  0  0  1  0  0
  -26.6727  -16.8990   16.8481 C   0  0  0  0  0  0  0  0  0  0  0  0
  -25.0236  -18.0589   18.4502 C   0  0  0  0  0  0  0  0  0  0  0  0
  -23.9646  -30.5697   17.3964 C   0  0  1  0  0  0  0  0  0  0  0  0
  -27.3250  -32.0469   16.4505 C   0  0  2  0  0  0  0  0  0  0  0  0
  -22.7456  -30.6894   16.4386 C   0  0  0  0  0  0  0  0  0  0  0  0
  -25.2600  -17.5113   17.0161 C   0  0  0  0  0  0  0  0  0  0  0  0
  -26.3358  -10.9712   20.0707 N   0  0  0  0  0  0  0  0  0  0  0  0
  -28.7455  -22.2060   21.5361 N   0  0  0  0  0  0  0  0  0  0  0  0
  -26.5019  -21.3972   21.1912 N   0  0  0  0  0  0  0  0  0  0  0  0
  -27.4001  -11.0535   19.2542 N   0  0  0  0  0  0  0  0  0  0  0  0
  -23.8089  -29.8653   19.7636 N   0  0  0  0  0  0  0  0  0  0  0  0
  -28.1972  -14.7832   19.5047 N   0  0  0  0  0  0  0  0  0  0  0  0
  -28.6373   -9.8444   17.6362 N   0  0  0  0  0  0  0  0  0  0  0  0
  -25.3607   -6.9654   18.8073 N   0  0  0  0  0  0  0  0  0  0  0  0
  -21.2961  -29.5159   22.3827 N   0  0  0  0  0  0  0  0  0  0  0  0
  -25.0828  -31.4411   17.0521 N   0  0  0  0  0  0  0  0  0  0  0  0
  -26.9700  -15.8295   17.7747 N   0  0  0  0  0  0  0  0  0  0  0  0
  -25.9741  -19.0943   18.8563 N   0  0  1  0  0  0  0  0  0  0  0  0
  -28.6872  -31.6945   16.9417 N   0  3  0  0  0  0  0  0  0  0  0  0
  -27.2098   -7.2416   17.4795 O   0  0  0  0  0  0  0  0  0  0  0  0
  -21.5269  -28.7916   20.1817 O   0  0  0  0  0  0  0  0  0  0  0  0
  -23.1672  -32.0081   19.1057 O   0  0  0  0  0  0  0  0  0  0  0  0
  -26.6545  -29.7536   16.8087 O   0  0  0  0  0  0  0  0  0  0  0  0
  -28.7702  -16.8890   18.7202 O   0  0  0  0  0  0  0  0  0  0  0  0
  -21.3301   -7.9037   22.5368 O   0  0  0  0  0  0  0  0  0  0  0  0
  -26.3726  -24.3911   20.9939 O   0  0  0  0  0  0  0  0  0  1  0  0
  -21.4651   -2.7799   24.5698 F   0  0  0  0  0  0  0  0  0  0  0  0
  -21.0252   -7.4442   25.2458 F   0  0  0  0  0  0  0  0  0  0  0  0
  -25.6154  -20.3038   18.2956 F   0  0  0  0  0  0  0  0  0  0  0  0
  1  2  1  0  0  0  0
  1  5  2  0  0  0  0
  2  6  2  0  0  0  0
  3  8  2  0  0  0  0
  3 16  1  0  0  0  0
  4  9  1  0  0  0  0
  4 16  2  0  0  0  0
  5 18  1  0  0  0  0
  6 20  1  0  0  0  0
  7 10  2  0  0  0  0
  7 19  1  0  0  0  0
  8 22  1  0  0  0  0
  9 22  2  0  0  0  0
 10 23  1  0  0  0  0
 11 12  2  0  0  0  0
 11 24  1  0  0  0  0
 12 25  1  0  0  0  0
 13 21  1  0  0  0  0
 13 23  2  0  0  0  0
 14 25  2  0  0  0  0
 14 26  1  0  0  0  0
 15 28  1  0  0  0  0
 15 29  2  0  0  0  0
 16 27  1  0  0  0  0
 17 27  1  0  0  0  0
 17 30  2  0  0  0  0
 17 32  1  0  0  0  0
 18 20  2  0  0  0  0
 18 37  1  0  0  0  0
 19 21  2  0  0  0  0
 19 38  1  0  0  0  0
 20 46  1  0  0  0  0
 21 39  1  0  0  0  0
 22 83  1  0  0  0  0
 23 84  1  0  0  0  0
 24 26  2  0  0  0  0
 24 83  1  0  0  0  0
 25 85  1  0  0  0  0
 26 86  1  0  0  0  0
 27 65  2  0  0  0  0
 28 49  1  0  0  0  0
 28 66  2  0  0  0  0
 29 57  1  0  0  0  0
 29 67  1  0  0  0  0
 30 68  1  0  0  0  0
 30 71  1  0  0  0  0
 31 58  1  0  0  0  0
 31 66  1  0  0  0  0
 31 67  2  0  0  0  0
 32 72  1  0  0  0  0
 32 78  2  0  0  0  0
 33 47  1  0  0  0  0
 33 73  1  0  0  0  0
 33 79  2  0  0  0  0
 34 61  1  0  0  0  0
 34 69  1  0  0  0  0
 34 80  2  0  0  0  0
 35 62  1  0  0  0  0
 35 74  1  0  0  0  0
 35 81  2  0  0  0  0
 36 70  1  0  0  0  0
 36 75  1  0  0  0  0
 36 82  2  0  0  0  0
 37 40  1  0  0  0  0
 38 47  1  0  0  0  0
 39 69  1  0  0  0  0
 40 42  1  0  0  0  0
 41 43  1  0  0  0  0
 41 44  1  0  0  0  0
 42 46  1  0  0  0  0
 43 48  1  0  0  0  0
 44 70  1  0  0  0  0
 45 48  1  0  0  0  0
 45 70  1  0  0  0  0
 46 73  1  0  0  0  0
 47 69  1  0  0  0  0
 48 68  1  0  0  0  0
 50 62  1  0  0  0  0
 51 63  1  0  0  0  0
 52 63  1  0  0  0  0
 53 63  1  0  0  0  0
 54 64  1  0  0  0  0
 55 64  1  0  0  0  0
 56 77  1  0  0  0  0
 57 76  1  0  0  0  0
 58 84  1  0  0  0  0
 59 64  1  0  0  0  0
 59 75  1  0  0  0  0
 60 64  1  0  0  0  0
 60 76  1  0  0  0  0
 61 63  1  0  0  0  0
 61 74  1  0  0  0  0
 62 77  1  0  0  0  0
 65 68  1  0  0  0  0
 76 87  1  0  0  0  0
M  CHG  1  77   1
M  ISO  4  36 100  58 101  75 100  84 101
M  END
> <Batch ID>
0049

> <Smiles>
CNC(C)C(=O)NC(C(=O)N1Cc2cc([101O:1][101CH2:1]c3nc(C)cc(CN(F)CC(C)(C)C[100NH:0][100C:0](=O)N4CCCC(n5nc(-c6ccc(Oc7ccc(F)cc7F)cc6)c(C(N)=O)c5N)C4)n3)ccc2CC1C(=O)NC1CCCc2ccccc21)C(C)(C)C

> <Shape>
0.224

> <Color>
0.075

> <Negative vol penalty>
0.000

$$$$

  -OEChem-04052317293D

 82 90  0     1  0  0  0  0  0999 V2000
  -21.9212  -11.7967   21.4641 C   0  0  0  0  0  0  0  0  0  0  0  0
  -21.6045  -13.1400   21.2890 C   0  0  0  0  0  0  0  0  0  0  0  0
  -29.7384  -27.4193   18.7164 C   0  0  0  0  0  0  0  0  0  0  0  0
  -29.2640  -26.1536   20.7189 C   0  0  0  0  0  0  0  0  0  0  0  0
  -23.2437  -11.4173   21.6902 C   0  0  0  0  0  0  0  0  0  0  0  0
  -22.6099  -14.1048   21.3411 C   0  0  0  0  0  0  0  0  0  0  0  0
  -22.2243  -17.5155   17.6178 C   0  0  0  0  0  0  0  0  0  0  0  0
  -31.0720  -27.0152   18.7769 C   0  0  0  0  0  0  0  0  0  0  0  0
  -30.5977  -25.7494   20.7793 C   0  0  0  0  0  0  0  0  0  0  0  0
  -21.2658  -18.5167   17.7682 C   0  0  0  0  0  0  0  0  0  0  0  0
  -33.5549  -27.0573   21.7670 C   0  0  0  0  0  0  0  0  0  0  0  0
  -34.1935  -27.1131   23.0058 C   0  0  0  0  0  0  0  0  0  0  0  0
  -22.9856  -20.0464   18.4902 C   0  0  0  0  0  0  0  0  0  0  0  0
  -19.6172  -27.1800   21.2782 C   0  0  0  0  0  0  0  0  0  0  0  0
  -34.5955  -24.7329   22.9059 C   0  0  0  0  0  0  0  0  0  0  0  0
  -18.9954  -27.0206   23.4364 C   0  0  0  0  0  0  0  0  0  0  0  0
  -28.8344  -26.9885   19.6875 C   0  0  0  0  0  0  0  0  0  0  0  0
  -26.3995  -26.7539   18.9635 C   0  0  0  0  0  0  0  0  0  0  0  0
  -24.2672  -12.3769   21.7355 C   0  0  0  0  0  0  0  0  0  0  0  0
  -23.5713  -17.7696   17.9134 C   0  0  0  0  0  0  0  0  0  0  0  0
  -23.9471  -13.7380   21.5694 C   0  0  0  0  0  0  0  0  0  0  0  0
  -23.9597  -19.0475   18.3403 C   0  0  0  0  0  0  0  0  0  0  0  0
  -19.5820  -27.8636   22.5186 C   0  0  0  0  0  0  0  0  0  0  0  0
  -31.5017  -26.1803   19.8083 C   0  0  0  0  0  0  0  0  0  0  0  0
  -21.6459  -19.7816   18.2072 C   0  0  0  0  0  0  0  0  0  0  0  0
  -33.4365  -25.8392   21.0976 C   0  0  0  0  0  0  0  0  0  0  0  0
  -34.7138  -25.9509   23.5753 C   0  0  0  0  0  0  0  0  0  0  0  0
  -33.9569  -24.6770   21.6671 C   0  0  0  0  0  0  0  0  0  0  0  0
  -27.4567  -27.4061   19.6259 C   0  0  0  0  0  0  0  0  0  0  0  0
  -19.0507  -25.9400   21.4758 C   0  0  0  0  0  0  0  0  0  0  0  0
  -25.3030  -27.5450   19.2048 C   0  0  0  0  0  0  0  0  0  0  0  0
  -26.4079  -25.5413   18.1984 C   0  0  0  0  0  0  0  0  0  0  0  0
  -25.6673  -16.6078   20.0017 C   0  0  0  0  0  0  0  0  0  0  0  0
  -27.7443  -18.4968   18.3769 C   0  0  0  0  0  0  0  0  0  0  0  0
  -28.2298  -21.2261   16.3865 C   0  0  0  0  0  0  0  0  0  0  0  0
  -22.1603  -30.5788   22.6783 C   0  0  0  0  0  0  0  0  0  0  0  0
  -25.6751  -11.9233   22.0297 C   0  0  0  0  0  0  0  0  0  0  0  0
  -24.5971  -16.6866   17.7204 C   0  0  0  0  0  0  0  0  0  0  0  0
  -25.3960  -19.3772   18.6514 C   0  0  0  0  0  0  0  0  0  0  0  0
  -26.7346  -12.9709   21.6974 C   0  0  0  0  0  0  0  0  0  0  0  0
  -24.9643  -32.1870   21.1856 C   0  0  0  0  0  0  0  0  0  0  0  0
  -26.3223  -14.3369   22.2368 C   0  0  0  0  0  0  0  0  0  0  0  0
  -25.7780  -31.0327   20.5980 C   0  0  0  0  0  0  0  0  0  0  0  0
  -24.3094  -31.7993   22.5095 C   0  0  0  0  0  0  0  0  0  0  0  0
  -24.3054  -29.4185   21.8726 C   0  0  0  0  0  0  0  0  0  0  0  0
  -25.0133  -14.8116   21.5944 C   0  0  1  0  0  0  0  0  0  0  0  0
  -25.8627  -16.9089   18.5427 C   0  0  1  0  0  0  0  0  0  0  0  0
  -24.9392  -29.7436   20.5092 C   0  0  2  0  0  0  0  0  0  0  0  0
  -30.0424  -22.5399   15.2525 C   0  0  0  0  0  0  0  0  0  0  0  0
  -28.5203  -19.7339   21.0560 C   0  0  0  0  0  0  0  0  0  0  0  0
  -29.5767  -21.6235   19.7984 C   0  0  0  0  0  0  0  0  0  0  0  0
  -30.4394  -19.3005   19.5122 C   0  0  0  0  0  0  0  0  0  0  0  0
  -18.0415  -24.7163   23.4194 C   0  0  0  0  0  0  0  0  0  0  0  0
  -27.0944  -20.6988   13.7047 C   0  0  0  0  0  0  0  0  0  0  0  0
  -20.0817  -29.2268   22.7804 C   0  0  0  0  0  0  0  0  0  0  0  0
  -18.8319  -24.8100   20.5016 C   0  0  0  0  0  0  0  0  0  0  0  0
  -20.0016  -23.8224   20.4261 C   0  0  0  0  0  0  0  0  0  0  0  0
  -19.7944  -22.7279   19.3783 C   0  0  0  0  0  0  0  0  0  0  0  0
  -20.9567  -21.7444   19.3598 C   0  0  0  0  0  0  0  0  0  1  0  0
  -28.2090  -19.9278   18.5003 C   0  0  1  0  0  0  0  0  0  0  0  0
  -29.0313  -21.4128   15.1109 C   0  0  2  0  0  0  0  0  0  0  0  0
  -29.1589  -20.1400   19.7128 C   0  0  0  0  0  0  0  0  0  0  0  0
  -27.0669  -28.5254   20.2417 N   0  0  0  0  0  0  0  0  0  0  0  0
  -18.6762  -25.8543   22.7913 N   0  0  0  0  0  0  0  0  0  0  0  0
  -25.7526  -28.5827   19.9672 N   0  0  0  0  0  0  0  0  0  0  0  0
  -26.3608  -18.2830   18.4532 N   0  0  0  0  0  0  0  0  0  0  0  0
  -23.5276  -30.5699   22.3566 N   0  0  0  0  0  0  0  0  0  0  0  0
  -24.0078  -27.4473   18.8371 N   0  0  0  0  0  0  0  0  0  0  0  0
  -27.6200  -24.8535   18.0499 N   0  0  0  0  0  0  0  0  0  0  0  0
  -25.2585  -15.3132   20.2592 N   0  0  0  0  0  0  0  0  0  0  0  0
  -28.7971  -20.2786   17.2121 N   0  0  0  0  0  0  0  0  0  0  0  0
  -21.4923  -29.3738   22.4986 N   0  0  0  0  0  0  0  0  0  0  0  0
  -28.1253  -21.7345   13.9722 N   0  3  0  0  0  0  0  0  0  0  0  0
  -25.3746  -25.0901   17.6488 O   0  0  0  0  0  0  0  0  0  0  0  0
  -25.8736  -17.4847   20.8325 O   0  0  0  0  0  0  0  0  0  0  0  0
  -28.5777  -17.6025   18.2116 O   0  0  0  0  0  0  0  0  0  0  0  0
  -27.2051  -21.8603   16.6281 O   0  0  0  0  0  0  0  0  0  0  0  0
  -21.5770  -31.5874   23.0899 O   0  0  0  0  0  0  0  0  0  0  0  0
  -32.8029  -25.7855   19.8674 O   0  0  0  0  0  0  0  0  0  0  0  0
  -20.7123  -20.7604   18.3555 O   0  0  0  0  0  0  0  0  0  1  0  0
  -35.3284  -26.0050   24.7642 F   0  0  0  0  0  0  0  0  0  0  0  0
  -33.8473  -23.5042   21.0282 F   0  0  0  0  0  0  0  0  0  0  0  0
  1  2  1  0  0  0  0
  1  5  2  0  0  0  0
  2  6  2  0  0  0  0
  3  8  2  0  0  0  0
  3 17  1  0  0  0  0
  4  9  1  0  0  0  0
  4 17  2  0  0  0  0
  5 19  1  0  0  0  0
  6 21  1  0  0  0  0
  7 10  2  0  0  0  0
  7 20  1  0  0  0  0
  8 24  1  0  0  0  0
  9 24  2  0  0  0  0
 10 25  1  0  0  0  0
 11 12  2  0  0  0  0
 11 26  1  0  0  0  0
 12 27  1  0  0  0  0
 13 22  1  0  0  0  0
 13 25  2  0  0  0  0
 14 23  1  0  0  0  0
 14 30  2  0  0  0  0
 15 27  2  0  0  0  0
 15 28  1  0  0  0  0
 16 23  2  0  0  0  0
 16 64  1  0  0  0  0
 17 29  1  0  0  0  0
 18 29  1  0  0  0  0
 18 31  2  0  0  0  0
 18 32  1  0  0  0  0
 19 21  2  0  0  0  0
 19 37  1  0  0  0  0
 20 22  2  0  0  0  0
 20 38  1  0  0  0  0
 21 46  1  0  0  0  0
 22 39  1  0  0  0  0
 23 55  1  0  0  0  0
 24 79  1  0  0  0  0
 25 80  1  0  0  0  0
 26 28  2  0  0  0  0
 26 79  1  0  0  0  0
 27 81  1  0  0  0  0
 28 82  1  0  0  0  0
 29 63  2  0  0  0  0
 30 56  1  0  0  0  0
 30 64  1  0  0  0  0
 31 65  1  0  0  0  0
 31 68  1  0  0  0  0
 32 69  1  0  0  0  0
 32 74  2  0  0  0  0
 33 47  1  0  0  0  0
 33 70  1  0  0  0  0
 33 75  2  0  0  0  0
 34 60  1  0  0  0  0
 34 66  1  0  0  0  0
 34 76  2  0  0  0  0
 35 61  1  0  0  0  0
 35 71  1  0  0  0  0
 35 77  2  0  0  0  0
 36 67  1  0  0  0  0
 36 72  1  0  0  0  0
 36 78  2  0  0  0  0
 37 40  1  0  0  0  0
 38 47  1  0  0  0  0
 39 66  1  0  0  0  0
 40 42  1  0  0  0  0
 41 43  1  0  0  0  0
 41 44  1  0  0  0  0
 42 46  1  0  0  0  0
 43 48  1  0  0  0  0
 44 67  1  0  0  0  0
 45 48  1  0  0  0  0
 45 67  1  0  0  0  0
 46 70  1  0  0  0  0
 47 66  1  0  0  0  0
 48 65  1  0  0  0  0
 49 61  1  0  0  0  0
 50 62  1  0  0  0  0
 51 62  1  0  0  0  0
 52 62  1  0  0  0  0
 53 64  1  0  0  0  0
 54 73  1  0  0  0  0
 55 72  1  0  0  0  0
 56 57  1  0  0  0  0
 57 58  1  0  0  0  0
 58 59  1  0  0  0  0
 59 80  1  0  0  0  0
 60 62  1  0  0  0  0
 60 71  1  0  0  0  0
 61 73  1  0  0  0  0
 63 65  1  0  0  0  0
M  CHG  1  73   1
M  ISO  4  36 100  59 101  72 100  80 101
M  END
> <Batch ID>
0049

> <Smiles>
CNC(C)C(=O)NC(C(=O)N1Cc2cc([101O:1][101CH2:1]CCCc3cc(C[100NH:0][100C:0](=O)N4CCCC(n5nc(-c6ccc(Oc7ccc(F)cc7F)cc6)c(C(N)=O)c5N)C4)cn3C)ccc2CC1C(=O)NC1CCCc2ccccc21)C(C)(C)C

> <Shape>
0.232

> <Color>
0.071

> <Negative vol penalty>
0.000

$$$$

  -OEChem-04052317293D

 84 92  0     1  0  0  0  0  0999 V2000
  -27.1515  -34.6906   22.3331 C   0  0  0  0  0  0  0  0  0  0  0  0
  -27.5877  -33.3769   22.1939 C   0  0  0  0  0  0  0  0  0  0  0  0
  -22.9468  -10.1266   20.0565 C   0  0  0  0  0  0  0  0  0  0  0  0
  -24.1331   -9.4250   22.0408 C   0  0  0  0  0  0  0  0  0  0  0  0
  -25.8546  -34.9502   22.7741 C   0  0  0  0  0  0  0  0  0  0  0  0
  -26.7274  -32.3220   22.4967 C   0  0  0  0  0  0  0  0  0  0  0  0
  -26.4508  -26.8791   19.7031 C   0  0  0  0  0  0  0  0  0  0  0  0
  -22.1955   -8.9519   20.0903 C   0  0  0  0  0  0  0  0  0  0  0  0
  -23.3818   -8.2503   22.0747 C   0  0  0  0  0  0  0  0  0  0  0  0
  -26.9814  -25.6310   20.0261 C   0  0  0  0  0  0  0  0  0  0  0  0
  -20.2872   -7.3019   23.0468 C   0  0  0  0  0  0  0  0  0  0  0  0
  -19.7690   -6.9011   24.2782 C   0  0  0  0  0  0  0  0  0  0  0  0
  -24.8851  -25.0104   21.0457 C   0  0  0  0  0  0  0  0  0  0  0  0
  -21.0074   -4.8322   24.1260 C   0  0  0  0  0  0  0  0  0  0  0  0
  -28.6963  -21.5333   22.3584 C   0  0  0  0  0  0  0  0  0  0  0  0
  -23.9157  -10.3631   21.0317 C   0  0  0  0  0  0  0  0  0  0  0  0
  -24.3828  -12.8020   21.6159 C   0  0  0  0  0  0  0  0  0  0  0  0
  -24.9748  -33.8980   23.0732 C   0  0  0  0  0  0  0  0  0  0  0  0
  -25.1347  -27.2068   20.0592 C   0  0  0  0  0  0  0  0  0  0  0  0
  -25.4179  -32.5679   22.9434 C   0  0  0  0  0  0  0  0  0  0  0  0
  -24.3393  -26.2624   20.7238 C   0  0  0  0  0  0  0  0  0  0  0  0
  -22.4129   -8.0137   21.0994 C   0  0  0  0  0  0  0  0  0  0  0  0
  -26.1995  -24.6974   20.7001 C   0  0  0  0  0  0  0  0  0  0  0  0
  -21.1655   -6.4678   22.3549 C   0  0  0  0  0  0  0  0  0  0  0  0
  -20.1291   -5.6663   24.8179 C   0  0  0  0  0  0  0  0  0  0  0  0
  -21.5256   -5.2330   22.8946 C   0  0  0  0  0  0  0  0  0  0  0  0
  -24.6925  -11.5761   20.9970 C   0  0  0  0  0  0  0  0  0  0  0  0
  -28.4358  -21.8284   21.0383 C   0  0  0  0  0  0  0  0  0  0  0  0
  -29.1003  -19.3550   21.7919 C   0  0  0  0  0  0  0  0  0  0  0  0
  -28.8391  -19.6498   20.4718 C   0  0  0  0  0  0  0  0  0  0  0  0
  -25.4285  -13.6282   21.2839 C   0  0  0  0  0  0  0  0  0  0  0  0
  -23.2510  -13.1617   22.4193 C   0  0  0  0  0  0  0  0  0  0  0  0
  -23.7965  -29.4093   21.9199 C   0  0  0  0  0  0  0  0  0  0  0  0
  -21.0418  -28.2000   20.7069 C   0  0  0  0  0  0  0  0  0  0  0  0
  -19.4201  -25.5625   19.2714 C   0  0  0  0  0  0  0  0  0  0  0  0
  -30.8980  -14.5448   20.6592 C   0  0  0  0  0  0  0  0  0  0  0  0
  -23.5977  -34.2283   23.5918 C   0  0  0  0  0  0  0  0  0  0  0  0
  -24.5685  -28.5477   19.6799 C   0  0  0  0  0  0  0  0  0  0  0  0
  -22.9139  -26.5576   21.1105 C   0  0  0  0  0  0  0  0  0  0  0  0
  -22.6264  -33.0521   23.5333 C   0  0  0  0  0  0  0  0  0  0  0  0
  -29.1774  -13.0139   17.9440 C   0  0  0  0  0  0  0  0  0  0  0  0
  -23.2848  -31.7886   24.0784 C   0  0  0  0  0  0  0  0  0  0  0  0
  -27.8349  -12.5992   18.5488 C   0  0  0  0  0  0  0  0  0  0  0  0
  -30.3205  -12.8535   18.9438 C   0  0  0  0  0  0  0  0  0  0  0  0
  -28.7701  -13.1181   20.8412 C   0  0  0  0  0  0  0  0  0  0  0  0
  -24.5062  -31.3966   23.2382 C   0  0  1  0  0  0  0  0  0  0  0  0
  -23.3832  -28.9625   20.5461 C   0  0  1  0  0  0  0  0  0  0  0  0
  -27.5785  -13.3152   19.8885 C   0  0  2  0  0  0  0  0  0  0  0  0
  -27.6039  -17.0773   17.8715 C   0  0  0  0  0  0  0  0  0  0  0  0
  -17.1632  -24.8599   18.4289 C   0  0  0  0  0  0  0  0  0  0  0  0
  -20.0900  -27.8199   23.5809 C   0  0  0  0  0  0  0  0  0  0  0  0
  -18.3104  -26.2864   22.7150 C   0  0  0  0  0  0  0  0  0  0  0  0
  -18.3447  -28.6787   22.0089 C   0  0  0  0  0  0  0  0  0  0  0  0
  -20.4426  -25.1602   16.5234 C   0  0  0  0  0  0  0  0  0  0  0  0
  -29.4718  -17.9769   22.2217 C   0  0  0  0  0  0  0  0  0  0  0  0
  -28.9159  -18.6043   19.4122 C   0  0  0  0  0  0  0  0  0  0  0  0
  -28.0644  -23.2233   20.6290 C   0  0  0  0  0  0  0  0  0  1  0  0
  -27.5247  -18.1186   18.9766 C   0  0  0  0  0  0  0  0  0  0  0  0
  -30.9445  -17.6017   21.9617 C   0  0  0  0  0  0  0  0  0  0  0  0
  -31.3331  -16.2076   22.4494 C   0  0  0  0  0  0  0  0  0  0  0  0
  -20.0940  -27.0938   21.1032 C   0  0  1  0  0  0  0  0  0  0  0  0
  -18.5031  -25.4799   18.0645 C   0  0  2  0  0  0  0  0  0  0  0  0
  -19.2372  -27.4645   22.3466 C   0  0  0  0  0  0  0  0  0  0  0  0
  -29.0332  -20.2913   22.7589 N   0  0  0  0  0  0  0  0  0  0  0  0
  -25.8448  -11.6156   20.3227 N   0  0  0  0  0  0  0  0  0  0  0  0
  -28.5025  -20.8919   20.0714 N   0  0  0  0  0  0  0  0  0  0  0  0
  -26.2682  -12.8764   20.5159 N   0  0  0  0  0  0  0  0  0  0  0  0
  -22.4078  -27.8848   20.7231 N   0  0  0  0  0  0  0  0  0  0  0  0
  -30.0152  -13.5572   20.1919 N   0  0  0  0  0  0  0  0  0  0  0  0
  -25.7025  -14.9172   21.5767 N   0  0  0  0  0  0  0  0  0  0  0  0
  -22.2689  -12.1918   22.6625 N   0  0  0  0  0  0  0  0  0  0  0  0
  -24.0897  -30.7568   22.0088 N   0  0  0  0  0  0  0  0  0  0  0  0
  -19.3131  -26.7790   19.9118 N   0  0  0  0  0  0  0  0  0  0  0  0
  -30.5306  -15.1671   21.8460 N   0  0  0  0  0  0  0  0  0  0  0  0
  -19.1285  -24.6522   16.9945 N   0  3  0  0  0  0  0  0  0  0  0  0
  -23.1064  -14.3141   22.8933 O   0  0  0  0  0  0  0  0  0  0  0  0
  -23.8444  -28.5924   22.8320 O   0  0  0  0  0  0  0  0  0  0  0  0
  -20.5864  -29.3011   20.3877 O   0  0  0  0  0  0  0  0  0  0  0  0
  -20.1549  -24.6389   19.6142 O   0  0  0  0  0  0  0  0  0  0  0  0
  -31.9339  -14.8531   20.0602 O   0  0  0  0  0  0  0  0  0  0  0  0
  -21.6798   -6.8675   21.1329 O   0  0  0  0  0  0  0  0  0  0  0  0
  -26.7151  -23.4787   21.0172 O   0  0  0  0  0  0  0  0  0  1  0  0
  -19.6325   -5.2823   26.0011 F   0  0  0  0  0  0  0  0  0  0  0  0
  -22.3698   -4.4279   22.2351 F   0  0  0  0  0  0  0  0  0  0  0  0
  1  2  1  0  0  0  0
  1  5  2  0  0  0  0
  2  6  2  0  0  0  0
  3  8  2  0  0  0  0
  3 16  1  0  0  0  0
  4  9  1  0  0  0  0
  4 16  2  0  0  0  0
  5 18  1  0  0  0  0
  6 20  1  0  0  0  0
  7 10  2  0  0  0  0
  7 19  1  0  0  0  0
  8 22  1  0  0  0  0
  9 22  2  0  0  0  0
 10 23  1  0  0  0  0
 11 12  2  0  0  0  0
 11 24  1  0  0  0  0
 12 25  1  0  0  0  0
 13 21  1  0  0  0  0
 13 23  2  0  0  0  0
 14 25  2  0  0  0  0
 14 26  1  0  0  0  0
 15 28  1  0  0  0  0
 15 64  2  0  0  0  0
 16 27  1  0  0  0  0
 17 27  1  0  0  0  0
 17 31  2  0  0  0  0
 17 32  1  0  0  0  0
 18 20  2  0  0  0  0
 18 37  1  0  0  0  0
 19 21  2  0  0  0  0
 19 38  1  0  0  0  0
 20 46  1  0  0  0  0
 21 39  1  0  0  0  0
 22 81  1  0  0  0  0
 23 82  1  0  0  0  0
 24 26  2  0  0  0  0
 24 81  1  0  0  0  0
 25 83  1  0  0  0  0
 26 84  1  0  0  0  0
 27 65  2  0  0  0  0
 28 57  1  0  0  0  0
 28 66  2  0  0  0  0
 29 30  2  0  0  0  0
 29 55  1  0  0  0  0
 29 64  1  0  0  0  0
 30 56  1  0  0  0  0
 30 66  1  0  0  0  0
 31 67  1  0  0  0  0
 31 70  1  0  0  0  0
 32 71  1  0  0  0  0
 32 76  2  0  0  0  0
 33 47  1  0  0  0  0
 33 72  1  0  0  0  0
 33 77  2  0  0  0  0
 34 61  1  0  0  0  0
 34 68  1  0  0  0  0
 34 78  2  0  0  0  0
 35 62  1  0  0  0  0
 35 73  1  0  0  0  0
 35 79  2  0  0  0  0
 36 69  1  0  0  0  0
 36 74  1  0  0  0  0
 36 80  2  0  0  0  0
 37 40  1  0  0  0  0
 38 47  1  0  0  0  0
 39 68  1  0  0  0  0
 40 42  1  0  0  0  0
 41 43  1  0  0  0  0
 41 44  1  0  0  0  0
 42 46  1  0  0  0  0
 43 48  1  0  0  0  0
 44 69  1  0  0  0  0
 45 48  1  0  0  0  0
 45 69  1  0  0  0  0
 46 72  1  0  0  0  0
 47 68  1  0  0  0  0
 48 67  1  0  0  0  0
 49 58  1  0  0  0  0
 50 62  1  0  0  0  0
 51 63  1  0  0  0  0
 52 63  1  0  0  0  0
 53 63  1  0  0  0  0
 54 75  1  0  0  0  0
 55 59  1  0  0  0  0
 56 58  1  0  0  0  0
 57 82  1  0  0  0  0
 59 60  1  0  0  0  0
 60 74  1  0  0  0  0
 61 63  1  0  0  0  0
 61 73  1  0  0  0  0
 62 75  1  0  0  0  0
 65 67  1  0  0  0  0
M  CHG  1  75   1
M  ISO  4  36 100  57 101  74 100  82 101
M  END
> <Batch ID>
0049

> <Smiles>
CCCc1nc([101CH2:1][101O:1]c2ccc3c(c2)CN(C(=O)C(NC(=O)C(C)NC)C(C)(C)C)C(C(=O)NC2CCCc4ccccc42)C3)cnc1CCC[100NH:0][100C:0](=O)N1CCCC(n2nc(-c3ccc(Oc4ccc(F)cc4F)cc3)c(C(N)=O)c2N)C1

> <Shape>
0.376

> <Color>
0.154

> <Negative vol penalty>
0.000

$$$$
