
  -OEChem-04052317313D

 85 92  0     1  0  0  0  0  0999 V2000
  -32.2692  -12.9398   21.5359 C   0  0  0  0  0  0  0  0  0  0  0  0
  -31.3772  -13.7037   22.2802 C   0  0  0  0  0  0  0  0  0  0  0  0
  -29.5280  -24.3003   17.5724 C   0  0  0  0  0  0  0  0  0  0  0  0
  -27.5625  -22.9401   17.9239 C   0  0  0  0  0  0  0  0  0  0  0  0
  -31.8418  -12.3230   20.3620 C   0  0  0  0  0  0  0  0  0  0  0  0
  -30.0547  -13.8412   21.8572 C   0  0  0  0  0  0  0  0  0  0  0  0
  -25.4901  -17.1674   24.1435 C   0  0  0  0  0  0  0  0  0  0  0  0
  -30.3279  -23.1589   17.6286 C   0  0  0  0  0  0  0  0  0  0  0  0
  -28.3623  -21.7987   17.9801 C   0  0  0  0  0  0  0  0  0  0  0  0
  -24.9538  -18.4415   23.9619 C   0  0  0  0  0  0  0  0  0  0  0  0
  -29.9199  -18.5692   18.5754 C   0  0  0  0  0  0  0  0  0  0  0  0
  -29.6641  -17.6476   19.5907 C   0  0  0  0  0  0  0  0  0  0  0  0
  -23.2969  -17.5244   22.4675 C   0  0  0  0  0  0  0  0  0  0  0  0
  -30.1133  -19.3479   21.2473 C   0  0  0  0  0  0  0  0  0  0  0  0
  -28.1453  -24.1909   17.7201 C   0  0  0  0  0  0  0  0  0  0  0  0
  -26.7225  -25.9350   16.5196 C   0  0  0  0  0  0  0  0  0  0  0  0
  -30.5165  -12.4638   19.9185 C   0  0  0  0  0  0  0  0  0  0  0  0
  -24.9396  -16.0621   23.4789 C   0  0  0  0  0  0  0  0  0  0  0  0
  -29.5980  -13.2067   20.6878 C   0  0  0  0  0  0  0  0  0  0  0  0
  -23.8265  -16.2370   22.6444 C   0  0  0  0  0  0  0  0  0  0  0  0
  -29.7451  -21.9082   17.8324 C   0  0  0  0  0  0  0  0  0  0  0  0
  -23.8589  -18.6206   23.1215 C   0  0  0  0  0  0  0  0  0  0  0  0
  -30.2724  -19.8802   18.8961 C   0  0  0  0  0  0  0  0  0  0  0  0
  -29.7608  -18.0369   20.9266 C   0  0  0  0  0  0  0  0  0  0  0  0
  -30.3691  -20.2695   20.2320 C   0  0  0  0  0  0  0  0  0  0  0  0
  -27.3185  -25.3695   17.6628 C   0  0  0  0  0  0  0  0  0  0  0  0
  -26.0463  -27.0330   16.9925 C   0  0  0  0  0  0  0  0  0  0  0  0
  -26.7753  -25.5061   15.1525 C   0  0  0  0  0  0  0  0  0  0  0  0
  -26.0125  -13.9660   21.3437 C   0  0  0  0  0  0  0  0  0  0  0  0
  -23.1356  -12.5583   21.8581 C   0  0  0  0  0  0  0  0  0  0  0  0
  -19.8912  -12.8810   22.8664 C   0  0  0  0  0  0  0  0  0  0  0  0
  -23.7694  -28.4224   22.3532 C   0  0  0  0  0  0  0  0  0  0  0  0
  -30.1054  -11.7681   18.6448 C   0  0  0  0  0  0  0  0  0  0  0  0
  -25.5131  -14.6903   23.7063 C   0  0  0  0  0  0  0  0  0  0  0  0
  -23.1860  -15.0799   21.9237 C   0  0  0  0  0  0  0  0  0  0  0  0
  -28.8197  -12.3313   18.0482 C   0  0  0  0  0  0  0  0  0  0  0  0
  -26.1729  -30.2843   20.5002 C   0  0  0  0  0  0  0  0  0  0  0  0
  -27.7450  -12.4224   19.1212 C   0  0  0  0  0  0  0  0  0  0  0  0
  -26.6853  -29.2868   19.4598 C   0  0  0  0  0  0  0  0  0  0  0  0
  -25.8835  -29.6061   21.8376 C   0  0  0  0  0  0  0  0  0  0  0  0
  -25.4929  -27.4452   20.7189 C   0  0  0  0  0  0  0  0  0  0  0  0
  -28.1627  -13.3955   20.2311 C   0  0  1  0  0  0  0  0  0  0  0  0
  -25.1934  -13.7145   22.5780 C   0  0  1  0  0  0  0  0  0  0  0  0
  -25.7457  -28.0722   19.3371 C   0  0  2  0  0  0  0  0  0  0  0  0
  -24.6835  -23.6112   22.6562 C   0  0  0  0  0  0  0  0  0  0  0  0
  -17.7732  -11.5634   23.1403 C   0  0  0  0  0  0  0  0  0  0  0  0
  -20.2210  -24.0605   20.6931 C   0  0  0  0  0  0  0  0  0  0  0  0
  -22.6933  -12.6466   18.8404 C   0  0  0  0  0  0  0  0  0  0  0  0
  -20.2608  -12.2234   19.2547 C   0  0  0  0  0  0  0  0  0  0  0  0
  -21.9549  -10.5260   19.9414 C   0  0  0  0  0  0  0  0  0  0  0  0
  -20.4210  -27.1249   20.6132 C   0  0  0  0  0  0  0  0  0  0  0  0
  -19.3373  -26.2679   22.6917 C   0  0  0  0  0  0  0  0  0  0  0  0
  -20.9594  -20.9933   24.1373 C   0  0  0  0  0  0  0  0  0  0  0  0
  -22.3915  -22.6541   25.3070 C   0  0  0  0  0  0  0  0  0  0  0  0
  -19.8157  -13.3881   25.7813 C   0  0  0  0  0  0  0  0  0  0  0  0
  -23.5930  -22.8263   21.9454 C   0  0  0  0  0  0  0  0  0  0  0  0
  -21.5083  -24.0303   22.8812 C   0  0  0  0  0  0  0  0  0  0  0  0
  -21.6924  -27.1255   22.7571 C   0  0  0  0  0  0  0  0  0  0  0  0
  -23.4451  -20.7794   24.0294 C   0  0  0  0  0  0  0  0  0  1  0  0
  -21.7605  -12.6820   21.2476 C   0  0  1  0  0  0  0  0  0  0  0  0
  -19.0445  -12.0531   23.8162 C   0  0  2  0  0  0  0  0  0  0  0  0
  -21.1849  -24.8499   21.5957 C   0  0  2  0  0  0  0  0  0  0  0  0
  -22.2388  -22.6642   22.6894 C   0  0  2  0  0  0  0  0  0  0  0  0
  -21.6804  -12.0418   19.8329 C   0  0  0  0  0  0  0  0  0  0  0  0
  -20.6706  -26.3177   21.9060 C   0  0  0  0  0  0  0  0  0  0  0  0
  -22.2808  -21.8026   24.0257 C   0  0  0  0  0  0  0  0  0  0  0  0
  -27.0451  -26.0520   18.7779 N   0  0  0  0  0  0  0  0  0  0  0  0
  -26.2699  -27.0577   18.3377 N   0  0  0  0  0  0  0  0  0  0  0  0
  -23.7868  -13.7593   22.1735 N   0  0  0  0  0  0  0  0  0  0  0  0
  -24.9857  -28.4636   21.6518 N   0  0  0  0  0  0  0  0  0  0  0  0
  -25.2882  -27.9702   16.3847 N   0  0  0  0  0  0  0  0  0  0  0  0
  -27.5154  -24.3574   14.8408 N   0  0  0  0  0  0  0  0  0  0  0  0
  -27.2212  -13.2966   21.3245 N   0  0  0  0  0  0  0  0  0  0  0  0
  -20.8311  -12.1099   22.2158 N   0  0  0  0  0  0  0  0  0  0  0  0
  -22.9749  -27.3077   22.1146 N   0  0  0  0  0  0  0  0  0  0  0  0
  -18.6616  -12.8619   25.0079 N   0  3  0  0  0  0  0  0  0  0  0  0
  -26.1973  -26.1326   14.2322 O   0  0  0  0  0  0  0  0  0  0  0  0
  -25.5792  -14.7109   20.4725 O   0  0  0  0  0  0  0  0  0  0  0  0
  -23.6114  -11.4374   22.0547 O   0  0  0  0  0  0  0  0  0  0  0  0
  -19.7322  -14.0902   22.7141 O   0  0  0  0  0  0  0  0  0  0  0  0
  -23.4152  -29.3156   23.1302 O   0  0  0  0  0  0  0  0  0  0  0  0
  -30.5253  -20.7942   17.8870 O   0  0  0  0  0  0  0  0  0  0  0  0
  -23.3302  -19.8718   22.9407 O   0  0  0  0  0  0  0  0  0  1  0  0
  -29.5136  -17.1522   21.9015 F   0  0  0  0  0  0  0  0  0  0  0  0
  -30.7062  -21.5279   20.5463 F   0  0  0  0  0  0  0  0  0  0  0  0
  1  2  1  0  0  0  0
  1  5  2  0  0  0  0
  2  6  2  0  0  0  0
  3  8  2  0  0  0  0
  3 15  1  0  0  0  0
  4  9  1  0  0  0  0
  4 15  2  0  0  0  0
  5 17  1  0  0  0  0
  6 19  1  0  0  0  0
  7 10  2  0  0  0  0
  7 18  1  0  0  0  0
  8 21  1  0  0  0  0
  9 21  2  0  0  0  0
 10 22  1  0  0  0  0
 11 12  2  0  0  0  0
 11 23  1  0  0  0  0
 12 24  1  0  0  0  0
 13 20  1  0  0  0  0
 13 22  2  0  0  0  0
 14 24  2  0  0  0  0
 14 25  1  0  0  0  0
 15 26  1  0  0  0  0
 16 26  1  0  0  0  0
 16 27  2  0  0  0  0
 16 28  1  0  0  0  0
 17 19  2  0  0  0  0
 17 33  1  0  0  0  0
 18 20  2  0  0  0  0
 18 34  1  0  0  0  0
 19 42  1  0  0  0  0
 20 35  1  0  0  0  0
 21 82  1  0  0  0  0
 22 83  1  0  0  0  0
 23 25  2  0  0  0  0
 23 82  1  0  0  0  0
 24 84  1  0  0  0  0
 25 85  1  0  0  0  0
 26 67  2  0  0  0  0
 27 68  1  0  0  0  0
 27 71  1  0  0  0  0
 28 72  1  0  0  0  0
 28 77  2  0  0  0  0
 29 43  1  0  0  0  0
 29 73  1  0  0  0  0
 29 78  2  0  0  0  0
 30 60  1  0  0  0  0
 30 69  1  0  0  0  0
 30 79  2  0  0  0  0
 31 61  1  0  0  0  0
 31 74  1  0  0  0  0
 31 80  2  0  0  0  0
 32 70  1  0  0  0  0
 32 75  1  0  0  0  0
 32 81  2  0  0  0  0
 33 36  1  0  0  0  0
 34 43  1  0  0  0  0
 35 69  1  0  0  0  0
 36 38  1  0  0  0  0
 37 39  1  0  0  0  0
 37 40  1  0  0  0  0
 38 42  1  0  0  0  0
 39 44  1  0  0  0  0
 40 70  1  0  0  0  0
 41 44  1  0  0  0  0
 41 70  1  0  0  0  0
 42 73  1  0  0  0  0
 43 69  1  0  0  0  0
 44 68  1  0  0  0  0
 45 56  1  0  0  0  0
 46 61  1  0  0  0  0
 47 62  1  0  0  0  0
 48 64  1  0  0  0  0
 49 64  1  0  0  0  0
 50 64  1  0  0  0  0
 51 65  1  0  0  0  0
 52 65  1  0  0  0  0
 53 66  1  0  0  0  0
 54 66  1  0  0  0  0
 55 76  1  0  0  0  0
 56 63  1  0  0  0  0
 57 62  1  0  0  0  0
 57 63  1  0  0  0  0
 58 65  1  0  0  0  0
 58 75  1  0  0  0  0
 59 66  1  0  0  0  0
 59 83  1  0  0  0  0
 60 64  1  0  0  0  0
 60 74  1  0  0  0  0
 61 76  1  0  0  0  0
 62 65  1  0  0  0  0
 63 66  1  0  0  0  0
 67 68  1  0  0  0  0
M  CHG  1  76   1
M  ISO  4  32 100  59 101  75 100  83 101
M  END
> <Batch ID>
0050

> <Smiles>
CCC(CC(C)C(C)(C)C[100NH:0][100C:0](=O)N1CCCC(n2nc(-c3ccc(Oc4ccc(F)cc4F)cc3)c(C(N)=O)c2N)C1)C(C)(C)[101CH2:1][101O:1]c1ccc2c(c1)CN(C(=O)C(NC(=O)C(C)NC)C(C)(C)C)C(C(=O)NC1CCCc3ccccc31)C2

> <Shape>
0.220

> <Color>
0.056

> <Negative vol penalty>
0.000

$$$$

  -OEChem-04052317313D

 84 92  0     1  0  0  0  0  0999 V2000
  -21.4391  -23.9391   25.2063 C   0  0  0  0  0  0  0  0  0  0  0  0
  -22.5078  -24.0730   24.3256 C   0  0  0  0  0  0  0  0  0  0  0  0
  -25.5060  -13.2809   22.1062 C   0  0  0  0  0  0  0  0  0  0  0  0
  -25.9014  -13.8831   19.8001 C   0  0  0  0  0  0  0  0  0  0  0  0
  -20.1550  -24.3027   24.8028 C   0  0  0  0  0  0  0  0  0  0  0  0
  -22.2927  -24.5697   23.0405 C   0  0  0  0  0  0  0  0  0  0  0  0
  -25.7539  -28.0077   21.6821 C   0  0  0  0  0  0  0  0  0  0  0  0
  -25.2706  -11.9611   21.7213 C   0  0  0  0  0  0  0  0  0  0  0  0
  -25.6660  -12.5632   19.4151 C   0  0  0  0  0  0  0  0  0  0  0  0
  -27.0014  -27.5313   21.2814 C   0  0  0  0  0  0  0  0  0  0  0  0
  -24.2124   -8.5072   21.3033 C   0  0  0  0  0  0  0  0  0  0  0  0
  -23.1124   -7.8543   21.8593 C   0  0  0  0  0  0  0  0  0  0  0  0
  -26.3590  -27.8085   18.9728 C   0  0  0  0  0  0  0  0  0  0  0  0
  -21.6436   -9.5222   20.9118 C   0  0  0  0  0  0  0  0  0  0  0  0
  -30.1145  -24.4751   20.6309 C   0  0  0  0  0  0  0  0  0  0  0  0
  -25.8214  -14.2419   21.1457 C   0  0  0  0  0  0  0  0  0  0  0  0
  -27.2980  -16.1791   21.9037 C   0  0  0  0  0  0  0  0  0  0  0  0
  -19.9257  -24.8131   23.5153 C   0  0  0  0  0  0  0  0  0  0  0  0
  -24.7940  -28.3784   20.7294 C   0  0  0  0  0  0  0  0  0  0  0  0
  -21.0041  -24.9392   22.6190 C   0  0  0  0  0  0  0  0  0  0  0  0
  -25.1010  -28.2917   19.3640 C   0  0  0  0  0  0  0  0  0  0  0  0
  -25.3506  -11.6022   20.3757 C   0  0  0  0  0  0  0  0  0  0  0  0
  -27.3031  -27.4290   19.9266 C   0  0  0  0  0  0  0  0  0  0  0  0
  -24.0281   -9.6677   20.5517 C   0  0  0  0  0  0  0  0  0  0  0  0
  -21.8279   -8.3618   21.6635 C   0  0  0  0  0  0  0  0  0  0  0  0
  -22.7437  -10.1752   20.3559 C   0  0  0  0  0  0  0  0  0  0  0  0
  -26.0641  -15.6056   21.5426 C   0  0  0  0  0  0  0  0  0  0  0  0
  -29.9304  -23.4678   21.5559 C   0  0  0  0  0  0  0  0  0  0  0  0
  -29.5883  -24.2381   19.3774 C   0  0  0  0  0  0  0  0  0  0  0  0
  -26.9970  -17.4876   22.1929 C   0  0  0  0  0  0  0  0  0  0  0  0
  -28.8169  -22.2022   20.0310 C   0  0  0  0  0  0  0  0  0  0  0  0
  -28.5999  -15.5823   21.9716 C   0  0  0  0  0  0  0  0  0  0  0  0
  -21.8755  -27.3694   19.9755 C   0  0  0  0  0  0  0  0  0  0  0  0
  -21.9323  -29.9226   17.9755 C   0  0  0  0  0  0  0  0  0  0  0  0
  -23.7860  -32.1560   16.1803 C   0  0  0  0  0  0  0  0  0  0  0  0
  -23.2030  -21.5119   20.0730 C   0  0  0  0  0  0  0  0  0  0  0  0
  -18.5126  -25.1483   23.1084 C   0  0  0  0  0  0  0  0  0  0  0  0
  -23.4626  -28.9156   21.1782 C   0  0  0  0  0  0  0  0  0  0  0  0
  -24.1127  -28.6960   18.3017 C   0  0  0  0  0  0  0  0  0  0  0  0
  -18.4293  -26.0180   21.8566 C   0  0  0  0  0  0  0  0  0  0  0  0
  -22.8966  -19.9486   23.4142 C   0  0  0  0  0  0  0  0  0  0  0  0
  -19.3512  -25.4770   20.7684 C   0  0  0  0  0  0  0  0  0  0  0  0
  -23.7437  -18.6853   23.2698 C   0  0  0  0  0  0  0  0  0  0  0  0
  -22.3044  -20.3900   22.0792 C   0  0  0  0  0  0  0  0  0  0  0  0
  -24.1623  -19.3081   20.8579 C   0  0  0  0  0  0  0  0  0  0  0  0
  -20.8150  -25.4974   21.2251 C   0  0  1  0  0  0  0  0  0  0  0  0
  -22.3750  -28.7794   20.1171 C   0  0  1  0  0  0  0  0  0  0  0  0
  -24.8118  -18.8630   22.1768 C   0  0  2  0  0  0  0  0  0  0  0  0
  -30.4640  -23.6335   22.9394 C   0  0  0  0  0  0  0  0  0  0  0  0
  -23.5506  -34.1018   14.6132 C   0  0  0  0  0  0  0  0  0  0  0  0
  -21.1956  -28.0100   15.7151 C   0  0  0  0  0  0  0  0  0  0  0  0
  -21.8995  -29.7755   14.0855 C   0  0  0  0  0  0  0  0  0  0  0  0
  -20.0060  -30.2088   15.6505 C   0  0  0  0  0  0  0  0  0  0  0  0
  -24.3010  -23.0989   18.5382 C   0  0  0  0  0  0  0  0  0  0  0  0
  -25.2023  -33.9728   18.0383 C   0  0  0  0  0  0  0  0  0  0  0  0
  -29.7379  -25.2830   18.2985 C   0  0  0  0  0  0  0  0  0  0  0  0
  -28.0929  -20.9416   19.6982 C   0  0  0  0  0  0  0  0  0  0  0  0
  -26.6687  -21.1503   19.1464 C   0  0  0  0  0  0  0  0  0  0  0  0
  -25.7121  -21.8362   20.1194 C   0  0  0  0  0  0  0  0  0  0  0  0
  -28.5783  -26.2730   18.2854 C   0  0  0  0  0  0  0  0  0  1  0  0
  -22.3686  -30.1536   16.5488 C   0  0  1  0  0  0  0  0  0  0  0  0
  -23.7053  -33.6673   16.0624 C   0  0  2  0  0  0  0  0  0  0  0  0
  -21.3856  -29.5275   15.5197 C   0  0  0  0  0  0  0  0  0  0  0  0
  -25.0544  -16.4783   21.5969 N   0  0  0  0  0  0  0  0  0  0  0  0
  -29.2840  -22.3140   21.2890 N   0  0  0  0  0  0  0  0  0  0  0  0
  -28.9313  -23.1086   19.0415 N   0  0  0  0  0  0  0  0  0  0  0  0
  -25.6533  -17.6134   21.9955 N   0  0  0  0  0  0  0  0  0  0  0  0
  -22.8224  -29.2092   18.7907 N   0  0  0  0  0  0  0  0  0  0  0  0
  -23.3352  -20.5092   21.0476 N   0  0  0  0  0  0  0  0  0  0  0  0
  -27.7532  -18.5314   22.5944 N   0  0  0  0  0  0  0  0  0  0  0  0
  -28.7316  -14.2267   21.6410 N   0  0  0  0  0  0  0  0  0  0  0  0
  -21.3526  -26.8383   21.1391 N   0  0  0  0  0  0  0  0  0  0  0  0
  -22.5468  -31.5944   16.4047 N   0  0  0  0  0  0  0  0  0  0  0  0
  -24.3861  -22.0487   19.5431 N   0  0  0  0  0  0  0  0  0  0  0  0
  -24.9393  -34.2964   16.6125 N   0  3  0  0  0  0  0  0  0  0  0  0
  -29.6136  -16.2279   22.3311 O   0  0  0  0  0  0  0  0  0  0  0  0
  -21.9571  -26.8056   18.8906 O   0  0  0  0  0  0  0  0  0  0  0  0
  -20.8451  -30.3653   18.3546 O   0  0  0  0  0  0  0  0  0  0  0  0
  -24.8420  -31.5354   16.0795 O   0  0  0  0  0  0  0  0  0  0  0  0
  -22.0910  -21.9117   19.7048 O   0  0  0  0  0  0  0  0  0  0  0  0
  -25.1212  -10.3144   19.9997 O   0  0  0  0  0  0  0  0  0  0  0  0
  -28.5197  -26.9637   19.5327 O   0  0  0  0  0  0  0  0  0  1  0  0
  -20.7715   -7.7338   22.1961 F   0  0  0  0  0  0  0  0  0  0  0  0
  -22.5602  -11.2891   19.6337 F   0  0  0  0  0  0  0  0  0  0  0  0
  1  2  1  0  0  0  0
  1  5  2  0  0  0  0
  2  6  2  0  0  0  0
  3  8  2  0  0  0  0
  3 16  1  0  0  0  0
  4  9  1  0  0  0  0
  4 16  2  0  0  0  0
  5 18  1  0  0  0  0
  6 20  1  0  0  0  0
  7 10  2  0  0  0  0
  7 19  1  0  0  0  0
  8 22  1  0  0  0  0
  9 22  2  0  0  0  0
 10 23  1  0  0  0  0
 11 12  2  0  0  0  0
 11 24  1  0  0  0  0
 12 25  1  0  0  0  0
 13 21  1  0  0  0  0
 13 23  2  0  0  0  0
 14 25  2  0  0  0  0
 14 26  1  0  0  0  0
 15 28  2  0  0  0  0
 15 29  1  0  0  0  0
 16 27  1  0  0  0  0
 17 27  1  0  0  0  0
 17 30  2  0  0  0  0
 17 32  1  0  0  0  0
 18 20  2  0  0  0  0
 18 37  1  0  0  0  0
 19 21  2  0  0  0  0
 19 38  1  0  0  0  0
 20 46  1  0  0  0  0
 21 39  1  0  0  0  0
 22 81  1  0  0  0  0
 23 82  1  0  0  0  0
 24 26  2  0  0  0  0
 24 81  1  0  0  0  0
 25 83  1  0  0  0  0
 26 84  1  0  0  0  0
 27 64  2  0  0  0  0
 28 49  1  0  0  0  0
 28 65  1  0  0  0  0
 29 56  1  0  0  0  0
 29 66  2  0  0  0  0
 30 67  1  0  0  0  0
 30 70  1  0  0  0  0
 31 57  1  0  0  0  0
 31 65  2  0  0  0  0
 31 66  1  0  0  0  0
 32 71  1  0  0  0  0
 32 76  2  0  0  0  0
 33 47  1  0  0  0  0
 33 72  1  0  0  0  0
 33 77  2  0  0  0  0
 34 61  1  0  0  0  0
 34 68  1  0  0  0  0
 34 78  2  0  0  0  0
 35 62  1  0  0  0  0
 35 73  1  0  0  0  0
 35 79  2  0  0  0  0
 36 69  1  0  0  0  0
 36 74  1  0  0  0  0
 36 80  2  0  0  0  0
 37 40  1  0  0  0  0
 38 47  1  0  0  0  0
 39 68  1  0  0  0  0
 40 42  1  0  0  0  0
 41 43  1  0  0  0  0
 41 44  1  0  0  0  0
 42 46  1  0  0  0  0
 43 48  1  0  0  0  0
 44 69  1  0  0  0  0
 45 48  1  0  0  0  0
 45 69  1  0  0  0  0
 46 72  1  0  0  0  0
 47 68  1  0  0  0  0
 48 67  1  0  0  0  0
 50 62  1  0  0  0  0
 51 63  1  0  0  0  0
 52 63  1  0  0  0  0
 53 63  1  0  0  0  0
 54 74  1  0  0  0  0
 55 75  1  0  0  0  0
 56 60  1  0  0  0  0
 57 58  1  0  0  0  0
 58 59  1  0  0  0  0
 59 74  1  0  0  0  0
 60 82  1  0  0  0  0
 61 63  1  0  0  0  0
 61 73  1  0  0  0  0
 62 75  1  0  0  0  0
 64 67  1  0  0  0  0
M  CHG  1  75   1
M  ISO  4  36 100  60 101  74 100  82 101
M  END
> <Batch ID>
0050

> <Smiles>
CNC(C)C(=O)NC(C(=O)N1Cc2cc([101O:1][101CH2:1]Cc3cc(C)nc(CCC[100N:0](C)[100C:0](=O)N4CCCC(n5nc(-c6ccc(Oc7ccc(F)cc7F)cc6)c(C(N)=O)c5N)C4)n3)ccc2CC1C(=O)NC1CCCc2ccccc21)C(C)(C)C

> <Shape>
0.196

> <Color>
0.087

> <Negative vol penalty>
0.000

$$$$

  -OEChem-04052317313D

 84 92  0     1  0  0  0  0  0999 V2000
  -28.6744  -18.6241   18.5622 C   0  0  0  0  0  0  0  0  0  0  0  0
  -27.5197  -19.3575   18.3087 C   0  0  0  0  0  0  0  0  0  0  0  0
  -25.5043  -16.1520   20.3067 C   0  0  0  0  0  0  0  0  0  0  0  0
  -26.4474  -17.0037   22.3615 C   0  0  0  0  0  0  0  0  0  0  0  0
  -29.5477  -19.0277   19.5714 C   0  0  0  0  0  0  0  0  0  0  0  0
  -27.2371  -20.4944   19.0651 C   0  0  0  0  0  0  0  0  0  0  0  0
  -24.1631  -26.9417   18.5179 C   0  0  0  0  0  0  0  0  0  0  0  0
  -26.7309  -15.5712   19.9845 C   0  0  0  0  0  0  0  0  0  0  0  0
  -27.6739  -16.4229   22.0393 C   0  0  0  0  0  0  0  0  0  0  0  0
  -23.2000  -27.7323   19.1434 C   0  0  0  0  0  0  0  0  0  0  0  0
  -29.5141  -13.5589   18.7931 C   0  0  0  0  0  0  0  0  0  0  0  0
  -29.5053  -12.2498   18.3118 C   0  0  0  0  0  0  0  0  0  0  0  0
  -24.8213  -28.3796   20.8082 C   0  0  0  0  0  0  0  0  0  0  0  0
  -28.4757  -11.5017   20.3654 C   0  0  0  0  0  0  0  0  0  0  0  0
  -19.6966  -28.2197   21.5277 C   0  0  0  0  0  0  0  0  0  0  0  0
  -25.3626  -16.8683   21.4952 C   0  0  0  0  0  0  0  0  0  0  0  0
  -23.0422  -16.8831   22.5550 C   0  0  0  0  0  0  0  0  0  0  0  0
  -29.2805  -20.1756   20.3340 C   0  0  0  0  0  0  0  0  0  0  0  0
  -25.4617  -26.8554   19.0401 C   0  0  0  0  0  0  0  0  0  0  0  0
  -28.1069  -20.9129   20.0863 C   0  0  0  0  0  0  0  0  0  0  0  0
  -25.7997  -27.5892   20.1861 C   0  0  0  0  0  0  0  0  0  0  0  0
  -20.3721  -28.5160   22.6863 C   0  0  0  0  0  0  0  0  0  0  0  0
  -27.8157  -15.7066   20.8508 C   0  0  0  0  0  0  0  0  0  0  0  0
  -23.5282  -28.4491   20.2903 C   0  0  0  0  0  0  0  0  0  0  0  0
  -29.0038  -13.8395   20.0607 C   0  0  0  0  0  0  0  0  0  0  0  0
  -28.9861  -11.2212   19.0979 C   0  0  0  0  0  0  0  0  0  0  0  0
  -28.4846  -12.8109   20.8468 C   0  0  0  0  0  0  0  0  0  0  0  0
  -24.0960  -17.4690   21.8283 C   0  0  0  0  0  0  0  0  0  0  0  0
  -19.9644  -27.5216   23.5955 C   0  0  0  0  0  0  0  0  0  0  0  0
  -22.0727  -17.8551   22.5980 C   0  0  0  0  0  0  0  0  0  0  0  0
  -22.9481  -15.5770   23.1390 C   0  0  0  0  0  0  0  0  0  0  0  0
  -27.2591  -24.5073   20.2062 C   0  0  0  0  0  0  0  0  0  0  0  0
  -22.3690  -23.8404   22.1502 C   0  0  0  0  0  0  0  0  0  0  0  0
  -29.5434  -26.8097   20.2631 C   0  0  0  0  0  0  0  0  0  0  0  0
  -30.3032  -30.1349   20.3763 C   0  0  0  0  0  0  0  0  0  0  0  0
  -30.2301  -20.5458   21.4457 C   0  0  0  0  0  0  0  0  0  0  0  0
  -26.4965  -26.0192   18.3384 C   0  0  0  0  0  0  0  0  0  0  0  0
  -27.1853  -27.5466   20.7750 C   0  0  0  0  0  0  0  0  0  0  0  0
  -30.0478  -21.9742   21.9521 C   0  0  0  0  0  0  0  0  0  0  0  0
  -20.4076  -21.6048   20.1515 C   0  0  0  0  0  0  0  0  0  0  0  0
  -28.5696  -22.2761   22.1775 C   0  0  0  0  0  0  0  0  0  0  0  0
  -21.0531  -20.2419   20.3988 C   0  0  0  0  0  0  0  0  0  0  0  0
  -21.4462  -22.7221   20.1472 C   0  0  0  0  0  0  0  0  0  0  0  0
  -22.9321  -21.4144   21.6317 C   0  0  0  0  0  0  0  0  0  0  0  0
  -27.7782  -22.1659   20.8687 C   0  0  1  0  0  0  0  0  0  0  0  0
  -27.6454  -25.6006   19.2506 C   0  0  1  0  0  0  0  0  0  0  0  0
  -21.9138  -20.2613   21.6745 C   0  0  2  0  0  0  0  0  0  0  0  0
  -32.2573  -31.7076   20.4497 C   0  0  0  0  0  0  0  0  0  0  0  0
  -29.9713  -26.1367   23.2083 C   0  0  0  0  0  0  0  0  0  0  0  0
  -31.1958  -28.3066   23.4543 C   0  0  0  0  0  0  0  0  0  0  0  0
  -32.0726  -26.5491   21.9164 C   0  0  0  0  0  0  0  0  0  0  0  0
  -18.0732  -26.4204   20.8902 C   0  0  0  0  0  0  0  0  0  0  0  0
  -29.5241  -31.4067   17.8200 C   0  0  0  0  0  0  0  0  0  0  0  0
  -21.3020  -24.3583   25.5339 C   0  0  0  0  0  0  0  0  0  0  0  0
  -21.3335  -29.6561   22.9192 C   0  0  0  0  0  0  0  0  0  0  0  0
  -20.3812  -27.3555   24.9990 C   0  0  0  0  0  0  0  0  0  0  0  0
  -23.2189  -23.7316   23.3911 C   0  0  0  0  0  0  0  0  0  0  0  0
  -21.7916  -26.7752   25.1882 C   0  0  0  0  0  0  0  0  0  0  0  0
  -23.2518  -25.0478   24.1466 C   0  0  0  0  0  0  0  0  0  0  0  0
  -22.7078  -29.3882   22.3154 C   0  0  0  0  0  0  0  0  0  1  0  0
  -29.9977  -27.8403   21.2684 C   0  0  1  0  0  0  0  0  0  0  0  0
  -31.2657  -30.9766   19.5580 C   0  0  2  0  0  0  0  0  0  0  0  0
  -30.7826  -27.2077   22.4521 C   0  0  0  0  0  0  0  0  0  0  0  0
  -23.8218  -18.7165   21.4377 N   0  0  0  0  0  0  0  0  0  0  0  0
  -19.0969  -26.6583   23.0607 N   0  0  0  0  0  0  0  0  0  0  0  0
  -18.9540  -27.1093   21.8028 N   0  0  0  0  0  0  0  0  0  0  0  0
  -22.5847  -18.9224   21.9206 N   0  0  0  0  0  0  0  0  0  0  0  0
  -28.1602  -26.7097   20.0563 N   0  0  0  0  0  0  0  0  0  0  0  0
  -22.2579  -22.6926   21.3652 N   0  0  0  0  0  0  0  0  0  0  0  0
  -20.8408  -17.8924   23.1488 N   0  0  0  0  0  0  0  0  0  0  0  0
  -24.0354  -14.7036   23.0011 N   0  0  0  0  0  0  0  0  0  0  0  0
  -27.9860  -23.3423   20.0519 N   0  0  0  0  0  0  0  0  0  0  0  0
  -30.7513  -28.8385   20.5174 N   0  0  0  0  0  0  0  0  0  0  0  0
  -30.5183  -31.9880   18.7583 N   0  3  0  0  0  0  0  0  0  0  0  0
  -21.8620  -25.4109   24.6090 N   0  3  1  0  0  0  0  0  0  0  0  0
  -21.9234  -15.1900   23.7504 O   0  0  0  0  0  0  0  0  0  0  0  0
  -26.3685  -24.7065   21.0240 O   0  0  0  0  0  0  0  0  0  0  0  0
  -21.8188  -24.9135   21.8895 O   0  0  0  0  0  0  0  0  0  0  0  0
  -30.3850  -26.1239   19.6776 O   0  0  0  0  0  0  0  0  0  0  0  0
  -29.2601  -30.5836   20.8466 O   0  0  0  0  0  0  0  0  0  0  0  0
  -29.0126  -15.1398   20.5368 O   0  0  0  0  0  0  0  0  0  0  0  0
  -22.5899  -29.2211   20.9032 O   0  0  0  0  0  0  0  0  0  1  0  0
  -28.9762   -9.9643   18.6349 F   0  0  0  0  0  0  0  0  0  0  0  0
  -27.9919  -13.0744   22.0648 F   0  0  0  0  0  0  0  0  0  0  0  0
  1  2  1  0  0  0  0
  1  5  2  0  0  0  0
  2  6  2  0  0  0  0
  3  8  2  0  0  0  0
  3 16  1  0  0  0  0
  4  9  1  0  0  0  0
  4 16  2  0  0  0  0
  5 18  1  0  0  0  0
  6 20  1  0  0  0  0
  7 10  2  0  0  0  0
  7 19  1  0  0  0  0
  8 23  1  0  0  0  0
  9 23  2  0  0  0  0
 10 24  1  0  0  0  0
 11 12  2  0  0  0  0
 11 25  1  0  0  0  0
 12 26  1  0  0  0  0
 13 21  1  0  0  0  0
 13 24  2  0  0  0  0
 14 26  2  0  0  0  0
 14 27  1  0  0  0  0
 15 22  2  0  0  0  0
 15 66  1  0  0  0  0
 16 28  1  0  0  0  0
 17 28  1  0  0  0  0
 17 30  2  0  0  0  0
 17 31  1  0  0  0  0
 18 20  2  0  0  0  0
 18 36  1  0  0  0  0
 19 21  2  0  0  0  0
 19 37  1  0  0  0  0
 20 45  1  0  0  0  0
 21 38  1  0  0  0  0
 22 29  1  0  0  0  0
 22 55  1  0  0  0  0
 23 81  1  0  0  0  0
 24 82  1  0  0  0  0
 25 27  2  0  0  0  0
 25 81  1  0  0  0  0
 26 83  1  0  0  0  0
 27 84  1  0  0  0  0
 28 64  2  0  0  0  0
 29 56  1  0  0  0  0
 29 65  2  0  0  0  0
 30 67  1  0  0  0  0
 30 70  1  0  0  0  0
 31 71  1  0  0  0  0
 31 76  2  0  0  0  0
 32 46  1  0  0  0  0
 32 72  1  0  0  0  0
 32 77  2  0  0  0  0
 33 57  1  0  0  0  0
 33 69  1  0  0  0  0
 33 78  2  0  0  0  0
 34 61  1  0  0  0  0
 34 68  1  0  0  0  0
 34 79  2  0  0  0  0
 35 62  1  0  0  0  0
 35 73  1  0  0  0  0
 35 80  2  0  0  0  0
 36 39  1  0  0  0  0
 37 46  1  0  0  0  0
 38 68  1  0  0  0  0
 39 41  1  0  0  0  0
 40 42  1  0  0  0  0
 40 43  1  0  0  0  0
 41 45  1  0  0  0  0
 42 47  1  0  0  0  0
 43 69  1  0  0  0  0
 44 47  1  0  0  0  0
 44 69  1  0  0  0  0
 45 72  1  0  0  0  0
 46 68  1  0  0  0  0
 47 67  1  0  0  0  0
 48 62  1  0  0  0  0
 49 63  1  0  0  0  0
 50 63  1  0  0  0  0
 51 63  1  0  0  0  0
 52 66  1  0  0  0  0
 53 74  1  0  0  0  0
 54 75  1  0  0  0  0
 55 60  1  0  0  0  0
 56 58  1  0  0  0  0
 57 59  1  0  0  0  0
 58 75  1  0  0  0  0
 59 75  1  0  0  0  0
 60 82  1  0  0  0  0
 61 63  1  0  0  0  0
 61 73  1  0  0  0  0
 62 74  1  0  0  0  0
 64 67  1  0  0  0  0
 65 66  1  0  0  0  0
M  CHG  2  74   1  75   1
M  ISO  4  33 100  57 100  60 101  82 101
M  END
> <Batch ID>
0050

> <Smiles>
CNC(C)C(=O)NC(C(=O)N1Cc2cc([101O:1][101CH2:1]Cc3cn(C)nc3CCN(C)C[100CH2:0][100C:0](=O)N3CCCC(n4nc(-c5ccc(Oc6ccc(F)cc6F)cc5)c(C(N)=O)c4N)C3)ccc2CC1C(=O)NC1CCCc2ccccc21)C(C)(C)C

> <Shape>
0.227

> <Color>
0.045

> <Negative vol penalty>
0.000

$$$$

  -OEChem-04052317313D

 81 88  0     1  0  0  0  0  0999 V2000
  -25.2277  -36.1245   17.1254 C   0  0  0  0  0  0  0  0  0  0  0  0
  -25.1662  -34.7991   16.7073 C   0  0  0  0  0  0  0  0  0  0  0  0
  -26.4200  -12.8270   21.6647 C   0  0  0  0  0  0  0  0  0  0  0  0
  -25.8251  -13.9153   19.5913 C   0  0  0  0  0  0  0  0  0  0  0  0
  -25.7930  -36.4391   18.3605 C   0  0  0  0  0  0  0  0  0  0  0  0
  -25.6709  -33.7875   17.5236 C   0  0  0  0  0  0  0  0  0  0  0  0
  -24.5270  -26.9371   19.2785 C   0  0  0  0  0  0  0  0  0  0  0  0
  -25.1729  -12.2030   21.6950 C   0  0  0  0  0  0  0  0  0  0  0  0
  -24.5780  -13.2913   19.6216 C   0  0  0  0  0  0  0  0  0  0  0  0
  -25.2026  -25.7208   19.3676 C   0  0  0  0  0  0  0  0  0  0  0  0
  -23.6743   -9.5581   20.2145 C   0  0  0  0  0  0  0  0  0  0  0  0
  -23.6367   -8.1995   20.5280 C   0  0  0  0  0  0  0  0  0  0  0  0
  -26.0848  -26.3749   21.5154 C   0  0  0  0  0  0  0  0  0  0  0  0
  -22.2449   -8.6800   22.4435 C   0  0  0  0  0  0  0  0  0  0  0  0
  -26.7461  -13.6832   20.6129 C   0  0  0  0  0  0  0  0  0  0  0  0
  -29.2141  -13.8425   19.9874 C   0  0  0  0  0  0  0  0  0  0  0  0
  -26.2962  -35.4300   19.1966 C   0  0  0  0  0  0  0  0  0  0  0  0
  -24.6341  -27.8875   20.3040 C   0  0  0  0  0  0  0  0  0  0  0  0
  -26.2447  -34.0890   18.7704 C   0  0  0  0  0  0  0  0  0  0  0  0
  -25.4075  -27.6015   21.4381 C   0  0  0  0  0  0  0  0  0  0  0  0
  -24.2519  -12.4351   20.6734 C   0  0  0  0  0  0  0  0  0  0  0  0
  -25.9840  -25.4407   20.4847 C   0  0  0  0  0  0  0  0  0  0  0  0
  -22.9973  -10.4777   21.0155 C   0  0  0  0  0  0  0  0  0  0  0  0
  -22.9220   -7.7604   21.6425 C   0  0  0  0  0  0  0  0  0  0  0  0
  -22.2826  -10.0387   22.1300 C   0  0  0  0  0  0  0  0  0  0  0  0
  -28.0340  -14.3286   20.5814 C   0  0  0  0  0  0  0  0  0  0  0  0
  -30.1486  -14.8191   20.2310 C   0  0  0  0  0  0  0  0  0  0  0  0
  -29.4450  -12.6176   19.2788 C   0  0  0  0  0  0  0  0  0  0  0  0
  -25.7351  -30.8631   20.4985 C   0  0  0  0  0  0  0  0  0  0  0  0
  -24.5309  -30.6972   23.5060 C   0  0  0  0  0  0  0  0  0  0  0  0
  -23.5921  -28.7513   26.1477 C   0  0  0  0  0  0  0  0  0  0  0  0
  -29.8149  -20.5441   21.0797 C   0  0  0  0  0  0  0  0  0  0  0  0
  -26.9409  -35.8233   20.5021 C   0  0  0  0  0  0  0  0  0  0  0  0
  -23.8777  -29.1838   20.2051 C   0  0  0  0  0  0  0  0  0  0  0  0
  -25.5390  -28.5798   22.5757 C   0  0  0  0  0  0  0  0  0  0  0  0
  -27.1138  -34.6570   21.4717 C   0  0  0  0  0  0  0  0  0  0  0  0
  -31.2570  -18.2590   23.3536 C   0  0  0  0  0  0  0  0  0  0  0  0
  -27.6969  -33.4456   20.7510 C   0  0  0  0  0  0  0  0  0  0  0  0
  -30.6975  -16.9314   22.8442 C   0  0  0  0  0  0  0  0  0  0  0  0
  -30.2170  -19.3797   23.2987 C   0  0  0  0  0  0  0  0  0  0  0  0
  -29.0341  -18.2247   21.4577 C   0  0  0  0  0  0  0  0  0  0  0  0
  -26.7592  -32.9613   19.6386 C   0  0  1  0  0  0  0  0  0  0  0  0
  -24.4707  -30.2895   21.0730 C   0  0  1  0  0  0  0  0  0  0  0  0
  -30.0768  -17.0962   21.4461 C   0  0  2  0  0  0  0  0  0  0  0  0
  -22.6817  -28.9036   28.4812 C   0  0  0  0  0  0  0  0  0  0  0  0
  -31.4496  -26.4564   18.0125 C   0  0  0  0  0  0  0  0  0  0  0  0
  -32.2231  -25.3911   20.1324 C   0  0  0  0  0  0  0  0  0  0  0  0
  -30.1510  -26.8015   20.1145 C   0  0  0  0  0  0  0  0  0  0  0  0
  -27.2773  -31.5587   24.5186 C   0  0  0  0  0  0  0  0  0  0  0  0
  -26.6018  -30.7832   26.8013 C   0  0  0  0  0  0  0  0  0  0  0  0
  -25.3483  -32.6332   25.6928 C   0  0  0  0  0  0  0  0  0  0  0  0
  -29.5021  -22.2348   22.9368 C   0  0  0  0  0  0  0  0  0  0  0  0
  -21.1644  -27.2208   25.4248 C   0  0  0  0  0  0  0  0  0  0  0  0
  -28.3368  -22.8530   19.6001 C   0  0  0  0  0  0  0  0  0  0  0  0
  -30.1514  -24.5190   18.9333 C   0  0  0  0  0  0  0  0  0  0  0  0
  -30.5925  -22.8689   20.8166 C   0  0  0  0  0  0  0  0  0  0  0  0
  -27.0599  -23.6483   19.3509 C   0  0  0  0  0  0  0  0  0  1  0  0
  -25.0668  -30.2663   24.8499 C   0  0  1  0  0  0  0  0  0  0  0  0
  -22.3405  -28.7547   27.0067 C   0  0  2  0  0  0  0  0  0  0  0  0
  -29.5187  -23.7133   20.1015 C   0  0  2  0  0  0  0  0  0  0  0  0
  -30.9767  -25.7821   19.3173 C   0  0  0  0  0  0  0  0  0  0  0  0
  -26.0728  -31.2925   25.4435 C   0  0  0  0  0  0  0  0  0  0  0  0
  -28.2009  -15.5213   21.1590 N   0  0  0  0  0  0  0  0  0  0  0  0
  -29.4969  -15.7928   20.9292 N   0  0  0  0  0  0  0  0  0  0  0  0
  -24.7853  -29.8359   22.4293 N   0  0  0  0  0  0  0  0  0  0  0  0
  -29.6160  -19.4713   21.9611 N   0  0  0  0  0  0  0  0  0  0  0  0
  -31.4560  -14.9314   19.9141 N   0  0  0  0  0  0  0  0  0  0  0  0
  -28.3751  -11.7264   19.1188 N   0  0  0  0  0  0  0  0  0  0  0  0
  -25.6565  -32.2097   20.1986 N   0  0  0  0  0  0  0  0  0  0  0  0
  -23.9024  -30.0152   25.6922 N   0  0  0  0  0  0  0  0  0  0  0  0
  -30.0396  -21.8077   21.6465 N   0  0  0  0  0  0  0  0  0  0  0  0
  -21.5843  -27.4834   26.8254 N   0  3  0  0  0  0  0  0  0  0  0  0
  -30.5708  -12.3147   18.8159 O   0  0  0  0  0  0  0  0  0  0  0  0
  -26.7103  -30.1380   20.3405 O   0  0  0  0  0  0  0  0  0  0  0  0
  -23.9034  -31.7555   23.4162 O   0  0  0  0  0  0  0  0  0  0  0  0
  -24.2327  -27.7301   25.9080 O   0  0  0  0  0  0  0  0  0  0  0  0
  -29.7854  -20.3847   19.8526 O   0  0  0  0  0  0  0  0  0  0  0  0
  -23.0350  -11.8262   20.7025 O   0  0  0  0  0  0  0  0  0  0  0  0
  -26.6495  -24.2464   20.5745 O   0  0  0  0  0  0  0  0  0  1  0  0
  -22.8847   -6.4555   21.9425 F   0  0  0  0  0  0  0  0  0  0  0  0
  -21.6292  -10.9173   22.9026 F   0  0  0  0  0  0  0  0  0  0  0  0
  1  2  1  0  0  0  0
  1  5  2  0  0  0  0
  2  6  2  0  0  0  0
  3  8  2  0  0  0  0
  3 15  1  0  0  0  0
  4  9  1  0  0  0  0
  4 15  2  0  0  0  0
  5 17  1  0  0  0  0
  6 19  1  0  0  0  0
  7 10  2  0  0  0  0
  7 18  1  0  0  0  0
  8 21  1  0  0  0  0
  9 21  2  0  0  0  0
 10 22  1  0  0  0  0
 11 12  2  0  0  0  0
 11 23  1  0  0  0  0
 12 24  1  0  0  0  0
 13 20  1  0  0  0  0
 13 22  2  0  0  0  0
 14 24  2  0  0  0  0
 14 25  1  0  0  0  0
 15 26  1  0  0  0  0
 16 26  1  0  0  0  0
 16 27  2  0  0  0  0
 16 28  1  0  0  0  0
 17 19  2  0  0  0  0
 17 33  1  0  0  0  0
 18 20  2  0  0  0  0
 18 34  1  0  0  0  0
 19 42  1  0  0  0  0
 20 35  1  0  0  0  0
 21 78  1  0  0  0  0
 22 79  1  0  0  0  0
 23 25  2  0  0  0  0
 23 78  1  0  0  0  0
 24 80  1  0  0  0  0
 25 81  1  0  0  0  0
 26 63  2  0  0  0  0
 27 64  1  0  0  0  0
 27 67  1  0  0  0  0
 28 68  1  0  0  0  0
 28 73  2  0  0  0  0
 29 43  1  0  0  0  0
 29 69  1  0  0  0  0
 29 74  2  0  0  0  0
 30 58  1  0  0  0  0
 30 65  1  0  0  0  0
 30 75  2  0  0  0  0
 31 59  1  0  0  0  0
 31 70  1  0  0  0  0
 31 76  2  0  0  0  0
 32 66  1  0  0  0  0
 32 71  1  0  0  0  0
 32 77  2  0  0  0  0
 33 36  1  0  0  0  0
 34 43  1  0  0  0  0
 35 65  1  0  0  0  0
 36 38  1  0  0  0  0
 37 39  1  0  0  0  0
 37 40  1  0  0  0  0
 38 42  1  0  0  0  0
 39 44  1  0  0  0  0
 40 66  1  0  0  0  0
 41 44  1  0  0  0  0
 41 66  1  0  0  0  0
 42 69  1  0  0  0  0
 43 65  1  0  0  0  0
 44 64  1  0  0  0  0
 45 59  1  0  0  0  0
 46 61  1  0  0  0  0
 47 61  1  0  0  0  0
 48 61  1  0  0  0  0
 49 62  1  0  0  0  0
 50 62  1  0  0  0  0
 51 62  1  0  0  0  0
 52 71  1  0  0  0  0
 53 72  1  0  0  0  0
 54 57  1  0  0  0  0
 54 60  1  0  0  0  0
 55 60  1  0  0  0  0
 55 61  1  0  0  0  0
 56 60  1  0  0  0  0
 56 71  1  0  0  0  0
 57 79  1  0  0  0  0
 58 62  1  0  0  0  0
 58 70  1  0  0  0  0
 59 72  1  0  0  0  0
 63 64  1  0  0  0  0
M  CHG  1  72   1
M  ISO  4  32 100  57 101  71 100  79 101
M  END
> <Batch ID>
0050

> <Smiles>
CNC(C)C(=O)NC(C(=O)N1Cc2cc([101O:1][101CH2:1]CC(C[100N:0](C)[100C:0](=O)N3CCCC(n4nc(-c5ccc(Oc6ccc(F)cc6F)cc5)c(C(N)=O)c4N)C3)CC(C)(C)C)ccc2CC1C(=O)NC1CCCc2ccccc21)C(C)(C)C

> <Shape>
0.298

> <Color>
0.106

> <Negative vol penalty>
0.000

$$$$

  -OEChem-04052317313D

 83 91  0     1  0  0  0  0  0999 V2000
  -24.8081  -26.0662   14.7734 C   0  0  0  0  0  0  0  0  0  0  0  0
  -25.0308  -25.2026   15.8411 C   0  0  0  0  0  0  0  0  0  0  0  0
  -23.0512   -9.8651   19.9694 C   0  0  0  0  0  0  0  0  0  0  0  0
  -23.6342  -10.0548   22.3063 C   0  0  0  0  0  0  0  0  0  0  0  0
  -23.5147  -26.5025   14.4894 C   0  0  0  0  0  0  0  0  0  0  0  0
  -23.9604  -24.7756   16.6261 C   0  0  0  0  0  0  0  0  0  0  0  0
  -24.1186  -19.8067   17.5901 C   0  0  0  0  0  0  0  0  0  0  0  0
  -22.2603   -8.7527   20.2569 C   0  0  0  0  0  0  0  0  0  0  0  0
  -22.8432   -8.9424   22.5939 C   0  0  0  0  0  0  0  0  0  0  0  0
  -25.0044  -19.3775   18.5774 C   0  0  0  0  0  0  0  0  0  0  0  0
  -19.1901   -8.1427   21.5356 C   0  0  0  0  0  0  0  0  0  0  0  0
  -17.9232   -8.0806   20.9553 C   0  0  0  0  0  0  0  0  0  0  0  0
  -23.1798  -19.2490   20.1501 C   0  0  0  0  0  0  0  0  0  0  0  0
  -18.5306   -6.0200   19.8497 C   0  0  0  0  0  0  0  0  0  0  0  0
  -27.0883  -18.6474   23.4423 C   0  0  0  0  0  0  0  0  0  0  0  0
  -23.7382  -10.5161   20.9940 C   0  0  0  0  0  0  0  0  0  0  0  0
  -24.1546  -13.0143   20.6883 C   0  0  0  0  0  0  0  0  0  0  0  0
  -22.4265  -26.0730   15.2654 C   0  0  0  0  0  0  0  0  0  0  0  0
  -22.7562  -19.9710   17.8788 C   0  0  0  0  0  0  0  0  0  0  0  0
  -22.6514  -25.2076   16.3530 C   0  0  0  0  0  0  0  0  0  0  0  0
  -22.2783  -19.6779   19.1640 C   0  0  0  0  0  0  0  0  0  0  0  0
  -22.1563   -8.2914   21.5692 C   0  0  0  0  0  0  0  0  0  0  0  0
  -24.5356  -19.1014   19.8584 C   0  0  0  0  0  0  0  0  0  0  0  0
  -20.1273   -7.1435   21.2728 C   0  0  0  0  0  0  0  0  0  0  0  0
  -17.5934   -7.0193   20.1124 C   0  0  0  0  0  0  0  0  0  0  0  0
  -19.7975   -6.0822   20.4299 C   0  0  0  0  0  0  0  0  0  0  0  0
  -24.5558  -11.6649   20.6975 C   0  0  0  0  0  0  0  0  0  0  0  0
  -25.9545  -18.0000   23.0398 C   0  0  0  0  0  0  0  0  0  0  0  0
  -25.2906  -13.7079   20.3494 C   0  0  0  0  0  0  0  0  0  0  0  0
  -27.0489  -16.6641   24.4248 C   0  0  0  0  0  0  0  0  0  0  0  0
  -22.8700  -13.5893   20.9616 C   0  0  0  0  0  0  0  0  0  0  0  0
  -20.7400  -22.4283   17.8612 C   0  0  0  0  0  0  0  0  0  0  0  0
  -30.7808  -14.5726   20.9824 C   0  0  0  0  0  0  0  0  0  0  0  0
  -18.5412  -20.1264   18.4849 C   0  0  0  0  0  0  0  0  0  0  0  0
  -17.8726  -17.0189   19.7271 C   0  0  0  0  0  0  0  0  0  0  0  0
  -21.0528  -26.6090   14.9489 C   0  0  0  0  0  0  0  0  0  0  0  0
  -21.8091  -20.4090   16.7955 C   0  0  0  0  0  0  0  0  0  0  0  0
  -20.8215  -19.8188   19.5197 C   0  0  0  0  0  0  0  0  0  0  0  0
  -19.9238  -25.8133   15.5990 C   0  0  0  0  0  0  0  0  0  0  0  0
  -29.7489  -12.0931   18.6101 C   0  0  0  0  0  0  0  0  0  0  0  0
  -20.2381  -25.5427   17.0670 C   0  0  0  0  0  0  0  0  0  0  0  0
  -28.2815  -11.8497   18.9606 C   0  0  0  0  0  0  0  0  0  0  0  0
  -30.5804  -12.3802   19.8564 C   0  0  0  0  0  0  0  0  0  0  0  0
  -28.5961  -13.2704   21.0361 C   0  0  0  0  0  0  0  0  0  0  0  0
  -21.5128  -24.7026   17.2125 C   0  0  1  0  0  0  0  0  0  0  0  0
  -20.5285  -21.0354   17.3387 C   0  0  1  0  0  0  0  0  0  0  0  0
  -27.7149  -13.0069   19.8022 C   0  0  2  0  0  0  0  0  0  0  0  0
  -27.4049  -15.4855   25.2537 C   0  0  0  0  0  0  0  0  0  0  0  0
  -15.9762  -15.4271   20.1364 C   0  0  0  0  0  0  0  0  0  0  0  0
  -17.6726  -21.7847   20.8944 C   0  0  0  0  0  0  0  0  0  0  0  0
  -16.4907  -19.7603   21.7737 C   0  0  0  0  0  0  0  0  0  0  0  0
  -15.7931  -20.7632   19.5988 C   0  0  0  0  0  0  0  0  0  0  0  0
  -19.0503  -14.9742   17.9407 C   0  0  0  0  0  0  0  0  0  0  0  0
  -31.1042  -19.1600   22.8500 C   0  0  0  0  0  0  0  0  0  0  0  0
  -24.8496  -18.4180   22.1146 C   0  0  0  0  0  0  0  0  0  1  0  0
  -30.1091  -15.6566   21.7872 C   0  0  0  0  0  0  0  0  0  0  0  0
  -29.0014  -18.0905   24.9620 C   0  0  0  0  0  0  0  0  0  0  0  0
  -31.0735  -16.7898   22.0875 C   0  0  0  0  0  0  0  0  0  0  0  0
  -30.1996  -17.3834   24.3424 C   0  0  0  0  0  0  0  0  0  0  0  0
  -17.9774  -19.4974   19.7361 C   0  0  1  0  0  0  0  0  0  0  0  0
  -17.0639  -15.8627   19.1669 C   0  0  2  0  0  0  0  0  0  0  0  0
  -17.0113  -20.4505   20.4949 C   0  0  0  0  0  0  0  0  0  0  0  0
  -25.8458  -11.5084   20.3889 N   0  0  0  0  0  0  0  0  0  0  0  0
  -27.7460  -17.7980   24.2990 N   0  0  0  0  0  0  0  0  0  0  0  0
  -26.2651  -12.7684   20.1825 N   0  0  0  0  0  0  0  0  0  0  0  0
  -25.9560  -16.7753   23.6628 N   0  3  0  0  0  0  0  0  0  0  0  0
  -19.9361  -20.2563   18.4278 N   0  0  0  0  0  0  0  0  0  0  0  0
  -29.9970  -13.4704   20.6402 N   0  0  0  0  0  0  0  0  0  0  0  0
  -25.5410  -15.0237   20.1809 N   0  0  0  0  0  0  0  0  0  0  0  0
  -21.8117  -12.7328   21.2944 N   0  0  0  0  0  0  0  0  0  0  0  0
  -21.2373  -23.3118   16.9223 N   0  0  0  0  0  0  0  0  0  0  0  0
  -17.3703  -18.2373   19.3216 N   0  0  0  0  0  0  0  0  0  0  0  0
  -17.9488  -14.6942   18.8974 N   0  3  0  0  0  0  0  0  0  0  0  0
  -30.3937  -17.8318   22.9416 N   0  3  1  0  0  0  0  0  0  0  0  0
  -22.6626  -14.8247   20.8962 O   0  0  0  0  0  0  0  0  0  0  0  0
  -20.4704  -22.6829   19.0292 O   0  0  0  0  0  0  0  0  0  0  0  0
  -31.9658  -14.7046   20.6656 O   0  0  0  0  0  0  0  0  0  0  0  0
  -17.7728  -20.4826   17.5881 O   0  0  0  0  0  0  0  0  0  0  0  0
  -18.8498  -16.8574   20.4548 O   0  0  0  0  0  0  0  0  0  0  0  0
  -21.3844   -7.2061   21.8502 O   0  0  0  0  0  0  0  0  0  0  0  0
  -25.3982  -18.6829   20.8242 O   0  0  0  0  0  0  0  0  0  1  0  0
  -16.3762   -6.9590   19.5565 F   0  0  0  0  0  0  0  0  0  0  0  0
  -20.6933   -5.1187   20.1747 F   0  0  0  0  0  0  0  0  0  0  0  0
  1  2  1  0  0  0  0
  1  5  2  0  0  0  0
  2  6  2  0  0  0  0
  3  8  2  0  0  0  0
  3 16  1  0  0  0  0
  4  9  1  0  0  0  0
  4 16  2  0  0  0  0
  5 18  1  0  0  0  0
  6 20  1  0  0  0  0
  7 10  2  0  0  0  0
  7 19  1  0  0  0  0
  8 22  1  0  0  0  0
  9 22  2  0  0  0  0
 10 23  1  0  0  0  0
 11 12  2  0  0  0  0
 11 24  1  0  0  0  0
 12 25  1  0  0  0  0
 13 21  1  0  0  0  0
 13 23  2  0  0  0  0
 14 25  2  0  0  0  0
 14 26  1  0  0  0  0
 15 28  2  0  0  0  0
 15 64  1  0  0  0  0
 16 27  1  0  0  0  0
 17 27  1  0  0  0  0
 17 29  2  0  0  0  0
 17 31  1  0  0  0  0
 18 20  2  0  0  0  0
 18 36  1  0  0  0  0
 19 21  2  0  0  0  0
 19 37  1  0  0  0  0
 20 45  1  0  0  0  0
 21 38  1  0  0  0  0
 22 80  1  0  0  0  0
 23 81  1  0  0  0  0
 24 26  2  0  0  0  0
 24 80  1  0  0  0  0
 25 82  1  0  0  0  0
 26 83  1  0  0  0  0
 27 63  2  0  0  0  0
 28 55  1  0  0  0  0
 28 66  1  0  0  0  0
 29 65  1  0  0  0  0
 29 69  1  0  0  0  0
 30 48  1  0  0  0  0
 30 64  1  0  0  0  0
 30 66  2  0  0  0  0
 31 70  1  0  0  0  0
 31 75  2  0  0  0  0
 32 46  1  0  0  0  0
 32 71  1  0  0  0  0
 32 76  2  0  0  0  0
 33 56  1  0  0  0  0
 33 68  1  0  0  0  0
 33 77  2  0  0  0  0
 34 60  1  0  0  0  0
 34 67  1  0  0  0  0
 34 78  2  0  0  0  0
 35 61  1  0  0  0  0
 35 72  1  0  0  0  0
 35 79  2  0  0  0  0
 36 39  1  0  0  0  0
 37 46  1  0  0  0  0
 38 67  1  0  0  0  0
 39 41  1  0  0  0  0
 40 42  1  0  0  0  0
 40 43  1  0  0  0  0
 41 45  1  0  0  0  0
 42 47  1  0  0  0  0
 43 68  1  0  0  0  0
 44 47  1  0  0  0  0
 44 68  1  0  0  0  0
 45 71  1  0  0  0  0
 46 67  1  0  0  0  0
 47 65  1  0  0  0  0
 49 61  1  0  0  0  0
 50 62  1  0  0  0  0
 51 62  1  0  0  0  0
 52 62  1  0  0  0  0
 53 73  1  0  0  0  0
 54 74  1  0  0  0  0
 55 81  1  0  0  0  0
 56 58  1  0  0  0  0
 57 59  1  0  0  0  0
 57 64  1  0  0  0  0
 58 74  1  0  0  0  0
 59 74  1  0  0  0  0
 60 62  1  0  0  0  0
 60 72  1  0  0  0  0
 61 73  1  0  0  0  0
 63 65  1  0  0  0  0
M  CHG  3  66   1  73   1  74   1
M  ISO  4  33 100  55 101  56 100  81 101
M  END
> <Batch ID>
0050

> <Smiles>
CNC(C)C(=O)NC(C(=O)N1Cc2cc([101O:1][101CH2:1]c3cn(CCN(C)C[100CH2:0][100C:0](=O)N4CCCC(n5nc(-c6ccc(Oc7ccc(F)cc7F)cc6)c(C(N)=O)c5N)C4)c(C)n3)ccc2CC1C(=O)NC1CCCc2ccccc21)C(C)(C)C

> <Shape>
0.141

> <Color>
0.171

> <Negative vol penalty>
0.000

$$$$

  -OEChem-04052317313D

 86 94  0     1  0  0  0  0  0999 V2000
  -16.6067  -29.9780   23.6687 C   0  0  0  0  0  0  0  0  0  0  0  0
  -17.0982  -29.2542   22.5870 C   0  0  0  0  0  0  0  0  0  0  0  0
  -26.7942  -12.7854   21.5631 C   0  0  0  0  0  0  0  0  0  0  0  0
  -25.5005  -13.8831   19.8430 C   0  0  0  0  0  0  0  0  0  0  0  0
  -17.4286  -30.8933   24.3249 C   0  0  0  0  0  0  0  0  0  0  0  0
  -18.4118  -29.4462   22.1602 C   0  0  0  0  0  0  0  0  0  0  0  0
  -23.9135  -25.8951   19.2555 C   0  0  0  0  0  0  0  0  0  0  0  0
  -25.9042  -11.7116   21.5473 C   0  0  0  0  0  0  0  0  0  0  0  0
  -24.6105  -12.8092   19.8272 C   0  0  0  0  0  0  0  0  0  0  0  0
  -24.8060  -25.9786   18.1877 C   0  0  0  0  0  0  0  0  0  0  0  0
  -21.7966  -10.5212   19.5879 C   0  0  0  0  0  0  0  0  0  0  0  0
  -20.4321  -10.8102   19.5701 C   0  0  0  0  0  0  0  0  0  0  0  0
  -26.1587  -27.5287   19.4472 C   0  0  0  0  0  0  0  0  0  0  0  0
  -20.6528  -11.9822   21.6712 C   0  0  0  0  0  0  0  0  0  0  0  0
  -30.5441  -23.7791   17.7711 C   0  0  0  0  0  0  0  0  0  0  0  0
  -26.5923  -13.8712   20.7110 C   0  0  0  0  0  0  0  0  0  0  0  0
  -28.6743  -15.1332   19.9491 C   0  0  0  0  0  0  0  0  0  0  0  0
  -18.7558  -31.0896   23.9120 C   0  0  0  0  0  0  0  0  0  0  0  0
  -24.1315  -26.6375   20.4250 C   0  0  0  0  0  0  0  0  0  0  0  0
  -19.2518  -30.3660   22.8107 C   0  0  0  0  0  0  0  0  0  0  0  0
  -25.2688  -27.4510   20.5295 C   0  0  0  0  0  0  0  0  0  0  0  0
  -24.8124  -11.7234   20.6793 C   0  0  0  0  0  0  0  0  0  0  0  0
  -25.9272  -26.7977   18.2823 C   0  0  0  0  0  0  0  0  0  0  0  0
  -22.5892  -10.9627   20.6475 C   0  0  0  0  0  0  0  0  0  0  0  0
  -19.8602  -11.5407   20.6117 C   0  0  0  0  0  0  0  0  0  0  0  0
  -22.0173  -11.6932   21.6891 C   0  0  0  0  0  0  0  0  0  0  0  0
  -27.5111  -14.9811   20.7273 C   0  0  0  0  0  0  0  0  0  0  0  0
  -29.2545  -24.2364   17.6120 C   0  0  0  0  0  0  0  0  0  0  0  0
  -28.6883  -23.3449   19.6405 C   0  0  0  0  0  0  0  0  0  0  0  0
  -29.9777  -22.8870   19.7991 C   0  0  0  0  0  0  0  0  0  0  0  0
  -29.1892  -16.3467   20.3350 C   0  0  0  0  0  0  0  0  0  0  0  0
  -29.2389  -14.2562   18.9654 C   0  0  0  0  0  0  0  0  0  0  0  0
  -22.5466  -28.9284   21.9559 C   0  0  0  0  0  0  0  0  0  0  0  0
  -24.8662  -28.5058   24.1837 C   0  0  0  0  0  0  0  0  0  0  0  0
  -28.0333  -27.4597   24.9062 C   0  0  0  0  0  0  0  0  0  0  0  0
  -26.2826  -21.0508   22.9733 C   0  0  0  0  0  0  0  0  0  0  0  0
  -19.5917  -32.1244   24.6227 C   0  0  0  0  0  0  0  0  0  0  0  0
  -23.1735  -26.5159   21.5782 C   0  0  0  0  0  0  0  0  0  0  0  0
  -25.5592  -28.2526   21.7710 C   0  0  0  0  0  0  0  0  0  0  0  0
  -21.0870  -31.9959   24.3437 C   0  0  0  0  0  0  0  0  0  0  0  0
  -29.3769  -19.3344   24.0597 C   0  0  0  0  0  0  0  0  0  0  0  0
  -21.3376  -31.8130   22.8502 C   0  0  0  0  0  0  0  0  0  0  0  0
  -29.3015  -18.0054   23.3099 C   0  0  0  0  0  0  0  0  0  0  0  0
  -27.9909  -19.9074   24.3392 C   0  0  0  0  0  0  0  0  0  0  0  0
  -27.0672  -18.7228   22.3752 C   0  0  0  0  0  0  0  0  0  0  0  0
  -20.6788  -30.5282   22.3336 C   0  0  1  0  0  0  0  0  0  0  0  0
  -23.2217  -27.7121   22.5238 C   0  0  1  0  0  0  0  0  0  0  0  0
  -28.4481  -18.1415   22.0369 C   0  0  2  0  0  0  0  0  0  0  0  0
  -31.4826  -22.8640   21.8211 C   0  0  0  0  0  0  0  0  0  0  0  0
  -30.8522  -20.6988   20.6943 C   0  0  0  0  0  0  0  0  0  0  0  0
  -29.6611  -27.2741   26.8070 C   0  0  0  0  0  0  0  0  0  0  0  0
  -25.3958  -31.5062   24.0200 C   0  0  0  0  0  0  0  0  0  0  0  0
  -27.5837  -31.1123   25.1716 C   0  0  0  0  0  0  0  0  0  0  0  0
  -25.4469  -30.5627   26.3355 C   0  0  0  0  0  0  0  0  0  0  0  0
  -24.7313  -22.0817   21.3576 C   0  0  0  0  0  0  0  0  0  0  0  0
  -28.1765  -24.5149   24.6486 C   0  0  0  0  0  0  0  0  0  0  0  0
  -28.8599  -24.9964   16.3710 C   0  0  0  0  0  0  0  0  0  0  0  0
  -27.6460  -23.1076   20.6793 C   0  0  0  0  0  0  0  0  0  0  0  0
  -29.0478  -26.5103   16.4900 C   0  0  0  0  0  0  0  0  0  0  0  0
  -27.0625  -21.6894   20.6524 C   0  0  0  0  0  0  0  0  0  0  0  0
  -28.1656  -27.1461   17.5582 C   0  0  0  0  0  0  0  0  0  1  0  0
  -30.3905  -22.1330   21.0169 C   0  0  0  0  0  0  0  0  0  0  0  0
  -26.2326  -29.0984   24.4301 C   0  0  1  0  0  0  0  0  0  0  0  0
  -28.5727  -26.5701   26.0116 C   0  0  2  0  0  0  0  0  0  0  0  0
  -26.1585  -30.5564   24.9650 C   0  0  0  0  0  0  0  0  0  0  0  0
  -30.9289  -23.0961   18.8675 N   0  0  0  0  0  0  0  0  0  0  0  0
  -27.2993  -16.0152   21.5457 N   0  0  0  0  0  0  0  0  0  0  0  0
  -28.3034  -24.0275   18.5439 N   0  0  0  0  0  0  0  0  0  0  0  0
  -28.3365  -16.8287   21.2841 N   0  0  0  0  0  0  0  0  0  0  0  0
  -24.5895  -28.1050   22.8689 N   0  0  0  0  0  0  0  0  0  0  0  0
  -27.1861  -19.9854   23.1196 N   0  0  0  0  0  0  0  0  0  0  0  0
  -30.2838  -17.0377   19.9517 N   0  0  0  0  0  0  0  0  0  0  0  0
  -28.5816  -13.0492   18.6906 N   0  0  0  0  0  0  0  0  0  0  0  0
  -21.4695  -29.3725   22.6990 N   0  0  0  0  0  0  0  0  0  0  0  0
  -26.9259  -28.1708   25.3175 N   0  0  0  0  0  0  0  0  0  0  0  0
  -26.0294  -21.5001   21.6684 N   0  0  0  0  0  0  0  0  0  0  0  0
  -29.1447  -25.3195   25.4374 N   0  3  0  0  0  0  0  0  0  0  0  0
  -30.3037  -14.5270   18.3602 O   0  0  0  0  0  0  0  0  0  0  0  0
  -22.9723  -29.4279   20.9210 O   0  0  0  0  0  0  0  0  0  0  0  0
  -24.0761  -28.3957   25.1247 O   0  0  0  0  0  0  0  0  0  0  0  0
  -28.5455  -27.5208   23.7906 O   0  0  0  0  0  0  0  0  0  0  0  0
  -25.7408  -21.5771   23.9539 O   0  0  0  0  0  0  0  0  0  0  0  0
  -23.9438  -10.6756   20.6634 O   0  0  0  0  0  0  0  0  0  0  0  0
  -26.7996  -26.8815   17.2412 O   0  0  0  0  0  0  0  0  0  1  0  0
  -18.5502  -11.8195   20.5936 F   0  0  0  0  0  0  0  0  0  0  0  0
  -22.7739  -12.1209   22.7091 F   0  0  0  0  0  0  0  0  0  0  0  0
  1  2  1  0  0  0  0
  1  5  2  0  0  0  0
  2  6  2  0  0  0  0
  3  8  2  0  0  0  0
  3 16  1  0  0  0  0
  4  9  1  0  0  0  0
  4 16  2  0  0  0  0
  5 18  1  0  0  0  0
  6 20  1  0  0  0  0
  7 10  2  0  0  0  0
  7 19  1  0  0  0  0
  8 22  1  0  0  0  0
  9 22  2  0  0  0  0
 10 23  1  0  0  0  0
 11 12  2  0  0  0  0
 11 24  1  0  0  0  0
 12 25  1  0  0  0  0
 13 21  1  0  0  0  0
 13 23  2  0  0  0  0
 14 25  2  0  0  0  0
 14 26  1  0  0  0  0
 15 28  1  0  0  0  0
 15 66  2  0  0  0  0
 16 27  1  0  0  0  0
 17 27  1  0  0  0  0
 17 31  2  0  0  0  0
 17 32  1  0  0  0  0
 18 20  2  0  0  0  0
 18 37  1  0  0  0  0
 19 21  2  0  0  0  0
 19 38  1  0  0  0  0
 20 46  1  0  0  0  0
 21 39  1  0  0  0  0
 22 83  1  0  0  0  0
 23 84  1  0  0  0  0
 24 26  2  0  0  0  0
 24 83  1  0  0  0  0
 25 85  1  0  0  0  0
 26 86  1  0  0  0  0
 27 67  2  0  0  0  0
 28 57  1  0  0  0  0
 28 68  2  0  0  0  0
 29 30  2  0  0  0  0
 29 58  1  0  0  0  0
 29 68  1  0  0  0  0
 30 62  1  0  0  0  0
 30 66  1  0  0  0  0
 31 69  1  0  0  0  0
 31 72  1  0  0  0  0
 32 73  1  0  0  0  0
 32 78  2  0  0  0  0
 33 47  1  0  0  0  0
 33 74  1  0  0  0  0
 33 79  2  0  0  0  0
 34 63  1  0  0  0  0
 34 70  1  0  0  0  0
 34 80  2  0  0  0  0
 35 64  1  0  0  0  0
 35 75  1  0  0  0  0
 35 81  2  0  0  0  0
 36 71  1  0  0  0  0
 36 76  1  0  0  0  0
 36 82  2  0  0  0  0
 37 40  1  0  0  0  0
 38 47  1  0  0  0  0
 39 70  1  0  0  0  0
 40 42  1  0  0  0  0
 41 43  1  0  0  0  0
 41 44  1  0  0  0  0
 42 46  1  0  0  0  0
 43 48  1  0  0  0  0
 44 71  1  0  0  0  0
 45 48  1  0  0  0  0
 45 71  1  0  0  0  0
 46 74  1  0  0  0  0
 47 70  1  0  0  0  0
 48 69  1  0  0  0  0
 49 62  1  0  0  0  0
 50 62  1  0  0  0  0
 51 64  1  0  0  0  0
 52 65  1  0  0  0  0
 53 65  1  0  0  0  0
 54 65  1  0  0  0  0
 55 76  1  0  0  0  0
 56 77  1  0  0  0  0
 57 59  1  0  0  0  0
 58 60  1  0  0  0  0
 59 61  1  0  0  0  0
 60 76  1  0  0  0  0
 61 84  1  0  0  0  0
 63 65  1  0  0  0  0
 63 75  1  0  0  0  0
 64 77  1  0  0  0  0
 67 69  1  0  0  0  0
M  CHG  1  77   1
M  ISO  4  36 100  61 101  76 100  84 101
M  END
> <Batch ID>
0050

> <Smiles>
CNC(C)C(=O)NC(C(=O)N1Cc2cc([101O:1][101CH2:1]CCc3cnc(C(C)C)c(CC[100N:0](C)[100C:0](=O)N4CCCC(n5nc(-c6ccc(Oc7ccc(F)cc7F)cc6)c(C(N)=O)c5N)C4)n3)ccc2CC1C(=O)NC1CCCc2ccccc21)C(C)(C)C

> <Shape>
0.256

> <Color>
0.071

> <Negative vol penalty>
0.000

$$$$

  -OEChem-04052317313D

 84 92  0     1  0  0  0  0  0999 V2000
  -21.4572  -13.0537   19.8354 C   0  0  0  0  0  0  0  0  0  0  0  0
  -21.5755  -14.1659   20.6627 C   0  0  0  0  0  0  0  0  0  0  0  0
  -25.5201  -25.7173   19.7302 C   0  0  0  0  0  0  0  0  0  0  0  0
  -26.1932  -27.6614   20.9969 C   0  0  0  0  0  0  0  0  0  0  0  0
  -22.5908  -12.3188   19.4911 C   0  0  0  0  0  0  0  0  0  0  0  0
  -22.8275  -14.5432   21.1470 C   0  0  0  0  0  0  0  0  0  0  0  0
  -23.6222  -19.5325   20.7995 C   0  0  0  0  0  0  0  0  0  0  0  0
  -26.5009  -25.9975   18.7789 C   0  0  0  0  0  0  0  0  0  0  0  0
  -27.1741  -27.9416   20.0456 C   0  0  0  0  0  0  0  0  0  0  0  0
  -23.0152  -20.3422   21.7585 C   0  0  0  0  0  0  0  0  0  0  0  0
  -30.0939  -28.9655   18.1365 C   0  0  0  0  0  0  0  0  0  0  0  0
  -31.3643  -29.3118   18.5964 C   0  0  0  0  0  0  0  0  0  0  0  0
  -25.1010  -20.4679   22.9638 C   0  0  0  0  0  0  0  0  0  0  0  0
  -31.5402  -27.1784   19.7167 C   0  0  0  0  0  0  0  0  0  0  0  0
  -19.0410  -23.6746   24.6934 C   0  0  0  0  0  0  0  0  0  0  0  0
  -25.3662  -26.5493   20.8392 C   0  0  0  0  0  0  0  0  0  0  0  0
  -24.4884  -25.4633   22.9741 C   0  0  0  0  0  0  0  0  0  0  0  0
  -23.8587  -12.6929   19.9636 C   0  0  0  0  0  0  0  0  0  0  0  0
  -24.9726  -19.1748   20.9214 C   0  0  0  0  0  0  0  0  0  0  0  0
  -23.9790  -13.8118   20.8098 C   0  0  0  0  0  0  0  0  0  0  0  0
  -25.7235  -19.6556   22.0037 C   0  0  0  0  0  0  0  0  0  0  0  0
  -27.3280  -27.1096   18.9366 C   0  0  0  0  0  0  0  0  0  0  0  0
  -23.7539  -20.8077   22.8424 C   0  0  0  0  0  0  0  0  0  0  0  0
  -29.5465  -27.7257   18.4667 C   0  0  0  0  0  0  0  0  0  0  0  0
  -32.0875  -28.4182   19.3865 C   0  0  0  0  0  0  0  0  0  0  0  0
  -30.2696  -26.8322   19.2568 C   0  0  0  0  0  0  0  0  0  0  0  0
  -24.3527  -26.2607   21.8219 C   0  0  0  0  0  0  0  0  0  0  0  0
  -18.0993  -23.9320   23.7374 C   0  0  0  0  0  0  0  0  0  0  0  0
  -23.2510  -25.5055   23.5686 C   0  0  0  0  0  0  0  0  0  0  0  0
  -18.1713  -21.7421   24.0532 C   0  0  0  0  0  0  0  0  0  0  0  0
  -25.6310  -24.7484   23.4633 C   0  0  0  0  0  0  0  0  0  0  0  0
  -17.7012  -25.2394   23.1999 C   0  0  0  0  0  0  0  0  0  0  0  0
  -26.5458  -16.4326   21.2523 C   0  0  0  0  0  0  0  0  0  0  0  0
  -29.1510  -18.3387   20.9329 C   0  0  0  0  0  0  0  0  0  0  0  0
  -30.5128  -21.4552   21.2154 C   0  0  0  0  0  0  0  0  0  0  0  0
  -25.0488  -11.8397   19.6026 C   0  0  0  0  0  0  0  0  0  0  0  0
  -25.6195  -18.3225   19.8643 C   0  0  0  0  0  0  0  0  0  0  0  0
  -27.1816  -19.3171   22.1698 C   0  0  0  0  0  0  0  0  0  0  0  0
  -26.3890  -12.5260   19.8540 C   0  0  0  0  0  0  0  0  0  0  0  0
  -19.2246  -28.4150   22.6194 C   0  0  0  0  0  0  0  0  0  0  0  0
  -26.4024  -13.1828   21.2306 C   0  0  0  0  0  0  0  0  0  0  0  0
  -20.7041  -28.0730   22.4347 C   0  0  0  0  0  0  0  0  0  0  0  0
  -18.3190  -27.3320   22.0383 C   0  0  0  0  0  0  0  0  0  0  0  0
  -20.0755  -25.6236   22.3561 C   0  0  0  0  0  0  0  0  0  0  0  0
  -25.3232  -14.2672   21.3351 C   0  0  1  0  0  0  0  0  0  0  0  0
  -26.8673  -17.5989   20.3611 C   0  0  1  0  0  0  0  0  0  0  0  0
  -21.0228  -26.6656   22.9734 C   0  0  1  0  0  0  0  0  0  0  0  0
  -17.8783  -20.2931   23.9262 C   0  0  0  0  0  0  0  0  0  0  0  0
  -32.2327  -23.2716   21.0154 C   0  0  0  0  0  0  0  0  0  0  0  0
  -18.4642  -21.9817   29.5327 C   0  0  0  0  0  0  0  0  0  0  0  0
  -18.4054  -19.9327   28.0903 C   0  0  0  0  0  0  0  0  0  0  0  0
  -17.2612  -22.0094   27.3447 C   0  0  0  0  0  0  0  0  0  0  0  0
  -30.1916  -17.1410   23.5392 C   0  0  0  0  0  0  0  0  0  0  0  0
  -31.8158  -19.0409   23.6826 C   0  0  0  0  0  0  0  0  0  0  0  0
  -31.9280  -17.4483   21.7658 C   0  0  0  0  0  0  0  0  0  0  0  0
  -29.6254  -22.1539   18.4799 C   0  0  0  0  0  0  0  0  0  0  0  0
  -21.4556  -21.7634   25.4590 C   0  0  0  0  0  0  0  0  0  0  0  0
  -19.7643  -21.9832   27.3262 C   0  0  0  0  0  0  0  0  0  0  0  0
  -21.7687  -21.4027   24.0090 C   0  0  0  0  0  0  0  0  0  1  0  0
  -30.0306  -19.1151   21.8830 C   0  0  1  0  0  0  0  0  0  0  0  0
  -31.3700  -22.2699   20.2636 C   0  0  2  0  0  0  0  0  0  0  0  0
  -19.9658  -21.5713   25.8411 C   0  0  1  0  0  0  0  0  0  0  0  0
  -18.5042  -21.4662   28.0852 C   0  0  0  0  0  0  0  0  0  0  0  0
  -30.9635  -18.1913   22.7158 C   0  0  0  0  0  0  0  0  0  0  0  0
  -23.1258  -26.7720   21.6903 N   0  0  0  0  0  0  0  0  0  0  0  0
  -19.0644  -22.3120   24.8689 N   0  0  0  0  0  0  0  0  0  0  0  0
  -22.4793  -26.2946   22.7674 N   0  0  0  0  0  0  0  0  0  0  0  0
  -17.5774  -22.7184   23.3593 N   0  3  0  0  0  0  0  0  0  0  0  0
  -18.6762  -26.0179   22.5715 N   0  0  0  0  0  0  0  0  0  0  0  0
  -27.7673  -18.4756   21.1133 N   0  0  0  0  0  0  0  0  0  0  0  0
  -22.7586  -24.9441   24.6932 N   0  0  0  0  0  0  0  0  0  0  0  0
  -26.8235  -24.8124   22.7298 N   0  0  0  0  0  0  0  0  0  0  0  0
  -25.7502  -15.4723   20.6571 N   0  0  0  0  0  0  0  0  0  0  0  0
  -30.7357  -20.1020   21.0723 N   0  0  0  0  0  0  0  0  0  0  0  0
  -30.5101  -23.0178   19.3033 N   0  3  0  0  0  0  0  0  0  0  0  0
  -25.5907  -24.0595   24.5108 O   0  0  0  0  0  0  0  0  0  0  0  0
  -16.5233  -25.5565   23.3588 O   0  0  0  0  0  0  0  0  0  0  0  0
  -26.9880  -16.4053   22.3948 O   0  0  0  0  0  0  0  0  0  0  0  0
  -29.6723  -17.6423   20.0584 O   0  0  0  0  0  0  0  0  0  0  0  0
  -29.7271  -21.9681   22.0092 O   0  0  0  0  0  0  0  0  0  0  0  0
  -28.2853  -27.3831   18.0086 O   0  0  0  0  0  0  0  0  0  0  0  0
  -23.1637  -21.5977   23.7802 O   0  0  0  0  0  0  0  0  0  1  0  0
  -33.3082  -28.7503   19.8269 F   0  0  0  0  0  0  0  0  0  0  0  0
  -29.7495  -25.6392   19.5763 F   0  0  0  0  0  0  0  0  0  0  0  0
  1  2  1  0  0  0  0
  1  5  2  0  0  0  0
  2  6  2  0  0  0  0
  3  8  2  0  0  0  0
  3 16  1  0  0  0  0
  4  9  1  0  0  0  0
  4 16  2  0  0  0  0
  5 18  1  0  0  0  0
  6 20  1  0  0  0  0
  7 10  2  0  0  0  0
  7 19  1  0  0  0  0
  8 22  1  0  0  0  0
  9 22  2  0  0  0  0
 10 23  1  0  0  0  0
 11 12  2  0  0  0  0
 11 24  1  0  0  0  0
 12 25  1  0  0  0  0
 13 21  1  0  0  0  0
 13 23  2  0  0  0  0
 14 25  2  0  0  0  0
 14 26  1  0  0  0  0
 15 28  2  0  0  0  0
 15 66  1  0  0  0  0
 16 27  1  0  0  0  0
 17 27  1  0  0  0  0
 17 29  2  0  0  0  0
 17 31  1  0  0  0  0
 18 20  2  0  0  0  0
 18 36  1  0  0  0  0
 19 21  2  0  0  0  0
 19 37  1  0  0  0  0
 20 45  1  0  0  0  0
 21 38  1  0  0  0  0
 22 81  1  0  0  0  0
 23 82  1  0  0  0  0
 24 26  2  0  0  0  0
 24 81  1  0  0  0  0
 25 83  1  0  0  0  0
 26 84  1  0  0  0  0
 27 65  2  0  0  0  0
 28 32  1  0  0  0  0
 28 68  1  0  0  0  0
 29 67  1  0  0  0  0
 29 71  1  0  0  0  0
 30 48  1  0  0  0  0
 30 66  1  0  0  0  0
 30 68  2  0  0  0  0
 31 72  1  0  0  0  0
 31 76  2  0  0  0  0
 32 69  1  0  0  0  0
 32 77  2  0  0  0  0
 33 46  1  0  0  0  0
 33 73  1  0  0  0  0
 33 78  2  0  0  0  0
 34 60  1  0  0  0  0
 34 70  1  0  0  0  0
 34 79  2  0  0  0  0
 35 61  1  0  0  0  0
 35 74  1  0  0  0  0
 35 80  2  0  0  0  0
 36 39  1  0  0  0  0
 37 46  1  0  0  0  0
 38 70  1  0  0  0  0
 39 41  1  0  0  0  0
 40 42  1  0  0  0  0
 40 43  1  0  0  0  0
 41 45  1  0  0  0  0
 42 47  1  0  0  0  0
 43 69  1  0  0  0  0
 44 47  1  0  0  0  0
 44 69  1  0  0  0  0
 45 73  1  0  0  0  0
 46 70  1  0  0  0  0
 47 67  1  0  0  0  0
 49 61  1  0  0  0  0
 50 63  1  0  0  0  0
 51 63  1  0  0  0  0
 52 63  1  0  0  0  0
 53 64  1  0  0  0  0
 54 64  1  0  0  0  0
 55 64  1  0  0  0  0
 56 75  1  0  0  0  0
 57 59  1  0  0  0  0
 57 62  1  0  0  0  0
 58 62  1  0  0  0  0
 58 63  1  0  0  0  0
 59 82  1  0  0  0  0
 60 64  1  0  0  0  0
 60 74  1  0  0  0  0
 61 75  1  0  0  0  0
 62 66  1  0  0  0  0
 65 67  1  0  0  0  0
M  CHG  2  68   1  75   1
M  ISO  4  28 100  32 100  59 101  82 101
M  END
> <Batch ID>
0050

> <Smiles>
CNC(C)C(=O)NC(C(=O)N1Cc2cc([101O:1][101CH2:1]CC(CC(C)(C)C)n3c[100c:0]([100C:0](=O)N4CCCC(n5nc(-c6ccc(Oc7ccc(F)cc7F)cc6)c(C(N)=O)c5N)C4)nc3C)ccc2CC1C(=O)NC1CCCc2ccccc21)C(C)(C)C

> <Shape>
0.180

> <Color>
0.056

> <Negative vol penalty>
0.000

$$$$

  -OEChem-04052317313D

 84 92  0     1  0  0  0  0  0999 V2000
  -19.8375  -12.9603   19.5353 C   0  0  0  0  0  0  0  0  0  0  0  0
  -20.3086  -14.2005   19.1166 C   0  0  0  0  0  0  0  0  0  0  0  0
  -23.7064  -29.7000   20.1693 C   0  0  0  0  0  0  0  0  0  0  0  0
  -25.6643  -28.5664   21.0173 C   0  0  0  0  0  0  0  0  0  0  0  0
  -20.5266  -12.2492   20.5168 C   0  0  0  0  0  0  0  0  0  0  0  0
  -21.4686  -14.7309   19.6801 C   0  0  0  0  0  0  0  0  0  0  0  0
  -27.1183  -18.8119   18.0237 C   0  0  0  0  0  0  0  0  0  0  0  0
  -24.0507  -30.8390   20.8971 C   0  0  0  0  0  0  0  0  0  0  0  0
  -26.0085  -29.7055   21.7451 C   0  0  0  0  0  0  0  0  0  0  0  0
  -27.8003  -19.9413   18.4743 C   0  0  0  0  0  0  0  0  0  0  0  0
  -25.0699  -31.1961   24.6309 C   0  0  0  0  0  0  0  0  0  0  0  0
  -25.4718  -31.0221   25.9552 C   0  0  0  0  0  0  0  0  0  0  0  0
  -28.9517  -18.5876   20.1056 C   0  0  0  0  0  0  0  0  0  0  0  0
  -27.6116  -32.0167   25.4365 C   0  0  0  0  0  0  0  0  0  0  0  0
  -26.6764  -21.2436   22.4709 C   0  0  0  0  0  0  0  0  0  0  0  0
  -24.5132  -28.5636   20.2295 C   0  0  0  0  0  0  0  0  0  0  0  0
  -24.5442  -27.0690   18.1624 C   0  0  0  0  0  0  0  0  0  0  0  0
  -21.7010  -12.7668   21.0857 C   0  0  0  0  0  0  0  0  0  0  0  0
  -27.3402  -17.5617   18.6189 C   0  0  0  0  0  0  0  0  0  0  0  0
  -22.1734  -14.0267   20.6711 C   0  0  0  0  0  0  0  0  0  0  0  0
  -28.2732  -17.4434   19.6589 C   0  0  0  0  0  0  0  0  0  0  0  0
  -25.2017  -30.8418   21.6850 C   0  0  0  0  0  0  0  0  0  0  0  0
  -28.7150  -19.8298   19.5173 C   0  0  0  0  0  0  0  0  0  0  0  0
  -25.9389  -31.7804   23.7093 C   0  0  0  0  0  0  0  0  0  0  0  0
  -26.7427  -31.4324   26.3580 C   0  0  0  0  0  0  0  0  0  0  0  0
  -27.2097  -32.1907   24.1121 C   0  0  0  0  0  0  0  0  0  0  0  0
  -24.1579  -27.3865   19.4783 C   0  0  0  0  0  0  0  0  0  0  0  0
  -27.4819  -22.3770   22.6909 C   0  0  0  0  0  0  0  0  0  0  0  0
  -25.4396  -21.6035   22.9477 C   0  0  0  0  0  0  0  0  0  0  0  0
  -23.9506  -25.8557   17.9135 C   0  0  0  0  0  0  0  0  0  0  0  0
  -25.3663  -27.8050   17.2469 C   0  0  0  0  0  0  0  0  0  0  0  0
  -25.5376  -15.4840   20.2118 C   0  0  0  0  0  0  0  0  0  0  0  0
  -28.2002  -13.6388   20.0433 C   0  0  0  0  0  0  0  0  0  0  0  0
  -31.5914  -13.4703   19.6999 C   0  0  0  0  0  0  0  0  0  0  0  0
  -22.0188  -21.6643   21.9432 C   0  0  0  0  0  0  0  0  0  0  0  0
  -22.3854  -11.9829   22.1773 C   0  0  0  0  0  0  0  0  0  0  0  0
  -26.6162  -16.3482   18.1033 C   0  0  0  0  0  0  0  0  0  0  0  0
  -28.5625  -16.1204   20.3180 C   0  0  0  0  0  0  0  0  0  0  0  0
  -23.8133  -12.4454   22.4558 C   0  0  0  0  0  0  0  0  0  0  0  0
  -20.1663  -23.2049   19.1331 C   0  0  0  0  0  0  0  0  0  0  0  0
  -23.8714  -13.9663   22.5575 C   0  0  0  0  0  0  0  0  0  0  0  0
  -20.9830  -24.4638   18.8462 C   0  0  0  0  0  0  0  0  0  0  0  0
  -20.2778  -22.7771   20.5933 C   0  0  0  0  0  0  0  0  0  0  0  0
  -22.4951  -23.8561   20.7761 C   0  0  0  0  0  0  0  0  0  0  0  0
  -23.4417  -14.6242   21.2407 C   0  0  1  0  0  0  0  0  0  0  0  0
  -26.5411  -15.2182   19.1255 C   0  0  1  0  0  0  0  0  0  0  0  0
  -22.4416  -24.2874   19.3028 C   0  0  2  0  0  0  0  0  0  0  0  0
  -24.6799  -23.7801   25.5149 C   0  0  0  0  0  0  0  0  0  0  0  0
  -24.3583  -19.3345   23.1569 C   0  0  0  0  0  0  0  0  0  0  0  0
  -33.4859  -11.8258   19.6391 C   0  0  0  0  0  0  0  0  0  0  0  0
  -28.0259  -13.3297   23.0738 C   0  0  0  0  0  0  0  0  0  0  0  0
  -30.3940  -12.5173   23.0572 C   0  0  0  0  0  0  0  0  0  0  0  0
  -28.6296  -11.2370   21.8447 C   0  0  0  0  0  0  0  0  0  0  0  0
  -23.9695  -21.0735   20.5558 C   0  0  0  0  0  0  0  0  0  0  0  0
  -32.3388  -14.2568   16.9464 C   0  0  0  0  0  0  0  0  0  0  0  0
  -28.9435  -22.5437   22.3600 C   0  0  0  0  0  0  0  0  0  0  0  0
  -29.1978  -23.1041   20.9590 C   0  0  0  0  0  0  0  0  0  0  0  0
  -24.5465  -23.7015   24.0038 C   0  0  0  0  0  0  0  0  0  0  0  0
  -28.7119  -22.1855   19.8439 C   0  0  0  0  0  0  0  0  0  1  0  0
  -24.1692  -20.8576   23.0051 C   0  0  2  0  0  0  0  0  0  0  0  0
  -29.4238  -13.4462   20.9062 C   0  0  1  0  0  0  0  0  0  0  0  0
  -32.4727  -12.6061   18.8162 C   0  0  2  0  0  0  0  0  0  0  0  0
  -29.1117  -12.6580   22.2096 C   0  0  0  0  0  0  0  0  0  0  0  0
  -23.3789  -26.4505   20.0271 N   0  0  0  0  0  0  0  0  0  0  0  0
  -26.8130  -23.3818   23.2628 N   0  0  0  0  0  0  0  0  0  0  0  0
  -25.5742  -22.8810   23.4061 N   0  0  0  0  0  0  0  0  0  0  0  0
  -23.2709  -25.5330   19.0511 N   0  0  0  0  0  0  0  0  0  0  0  0
  -27.8247  -14.9643   19.7827 N   0  0  0  0  0  0  0  0  0  0  0  0
  -21.6745  -22.6590   21.0132 N   0  0  0  0  0  0  0  0  0  0  0  0
  -23.9488  -25.0442   16.8347 N   0  0  0  0  0  0  0  0  0  0  0  0
  -25.8961  -29.0337   17.6640 N   0  0  0  0  0  0  0  0  0  0  0  0
  -24.5130  -14.5587   20.2699 N   0  0  0  0  0  0  0  0  0  0  0  0
  -30.4290  -12.8191   20.0549 N   0  0  0  0  0  0  0  0  0  0  0  0
  -23.3105  -21.1239   21.8531 N   0  0  0  0  0  0  0  0  0  0  0  0
  -33.2132  -13.4519   17.8378 N   0  3  0  0  0  0  0  0  0  0  0  0
  -25.6100  -27.3933   16.0873 O   0  0  0  0  0  0  0  0  0  0  0  0
  -25.6831  -16.4557   20.9441 O   0  0  0  0  0  0  0  0  0  0  0  0
  -27.6037  -12.6496   19.6102 O   0  0  0  0  0  0  0  0  0  0  0  0
  -31.9047  -14.6078   20.0441 O   0  0  0  0  0  0  0  0  0  0  0  0
  -21.2140  -21.2743   22.7988 O   0  0  0  0  0  0  0  0  0  0  0  0
  -25.5381  -31.9532   22.3951 O   0  0  0  0  0  0  0  0  0  0  0  0
  -29.3816  -20.9307   19.9596 O   0  0  0  0  0  0  0  0  0  1  0  0
  -27.1279  -31.2666   27.6301 F   0  0  0  0  0  0  0  0  0  0  0  0
  -28.0485  -32.7537   23.2316 F   0  0  0  0  0  0  0  0  0  0  0  0
  1  2  1  0  0  0  0
  1  5  2  0  0  0  0
  2  6  2  0  0  0  0
  3  8  2  0  0  0  0
  3 16  1  0  0  0  0
  4  9  1  0  0  0  0
  4 16  2  0  0  0  0
  5 18  1  0  0  0  0
  6 20  1  0  0  0  0
  7 10  2  0  0  0  0
  7 19  1  0  0  0  0
  8 22  1  0  0  0  0
  9 22  2  0  0  0  0
 10 23  1  0  0  0  0
 11 12  2  0  0  0  0
 11 24  1  0  0  0  0
 12 25  1  0  0  0  0
 13 21  1  0  0  0  0
 13 23  2  0  0  0  0
 14 25  2  0  0  0  0
 14 26  1  0  0  0  0
 15 28  1  0  0  0  0
 15 29  2  0  0  0  0
 16 27  1  0  0  0  0
 17 27  1  0  0  0  0
 17 30  2  0  0  0  0
 17 31  1  0  0  0  0
 18 20  2  0  0  0  0
 18 36  1  0  0  0  0
 19 21  2  0  0  0  0
 19 37  1  0  0  0  0
 20 45  1  0  0  0  0
 21 38  1  0  0  0  0
 22 81  1  0  0  0  0
 23 82  1  0  0  0  0
 24 26  2  0  0  0  0
 24 81  1  0  0  0  0
 25 83  1  0  0  0  0
 26 84  1  0  0  0  0
 27 64  2  0  0  0  0
 28 56  1  0  0  0  0
 28 65  2  0  0  0  0
 29 60  1  0  0  0  0
 29 66  1  0  0  0  0
 30 67  1  0  0  0  0
 30 70  1  0  0  0  0
 31 71  1  0  0  0  0
 31 76  2  0  0  0  0
 32 46  1  0  0  0  0
 32 72  1  0  0  0  0
 32 77  2  0  0  0  0
 33 61  1  0  0  0  0
 33 68  1  0  0  0  0
 33 78  2  0  0  0  0
 34 62  1  0  0  0  0
 34 73  1  0  0  0  0
 34 79  2  0  0  0  0
 35 69  1  0  0  0  0
 35 74  1  0  0  0  0
 35 80  2  0  0  0  0
 36 39  1  0  0  0  0
 37 46  1  0  0  0  0
 38 68  1  0  0  0  0
 39 41  1  0  0  0  0
 40 42  1  0  0  0  0
 40 43  1  0  0  0  0
 41 45  1  0  0  0  0
 42 47  1  0  0  0  0
 43 69  1  0  0  0  0
 44 47  1  0  0  0  0
 44 69  1  0  0  0  0
 45 72  1  0  0  0  0
 46 68  1  0  0  0  0
 47 67  1  0  0  0  0
 48 58  1  0  0  0  0
 49 60  1  0  0  0  0
 50 62  1  0  0  0  0
 51 63  1  0  0  0  0
 52 63  1  0  0  0  0
 53 63  1  0  0  0  0
 54 74  1  0  0  0  0
 55 75  1  0  0  0  0
 56 57  1  0  0  0  0
 57 59  1  0  0  0  0
 58 66  1  0  0  0  0
 59 82  1  0  0  0  0
 60 74  1  0  0  0  0
 61 63  1  0  0  0  0
 61 73  1  0  0  0  0
 62 75  1  0  0  0  0
 64 67  1  0  0  0  0
 65 66  1  0  0  0  0
M  CHG  1  75   1
M  ISO  4  35 100  59 101  74 100  82 101
M  END
> <Batch ID>
0050

> <Smiles>
CCn1nc(CC[101CH2:1][101O:1]c2ccc3c(c2)CN(C(=O)C(NC(=O)C(C)NC)C(C)(C)C)C(C(=O)NC2CCCc4ccccc42)C3)cc1C(C)[100N:0](C)[100C:0](=O)N1CCCC(n2nc(-c3ccc(Oc4ccc(F)cc4F)cc3)c(C(N)=O)c2N)C1

> <Shape>
0.236

> <Color>
0.060

> <Negative vol penalty>
0.000

$$$$

  -OEChem-04052317313D

 92100  0     1  0  0  0  0  0999 V2000
  -19.1471  -24.4407   22.9939 C   0  0  0  0  0  0  0  0  0  0  0  0
  -20.5289  -24.2795   22.9916 C   0  0  0  0  0  0  0  0  0  0  0  0
  -24.5713   -9.5111   21.5089 C   0  0  0  0  0  0  0  0  0  0  0  0
  -22.6483  -10.3975   20.3456 C   0  0  0  0  0  0  0  0  0  0  0  0
  -18.5848  -25.6330   22.5397 C   0  0  0  0  0  0  0  0  0  0  0  0
  -21.3492  -25.3101   22.5340 C   0  0  0  0  0  0  0  0  0  0  0  0
  -26.8969  -26.8140   24.6478 C   0  0  0  0  0  0  0  0  0  0  0  0
  -23.7925   -8.4618   21.9968 C   0  0  0  0  0  0  0  0  0  0  0  0
  -21.8694   -9.3482   20.8335 C   0  0  0  0  0  0  0  0  0  0  0  0
  -28.1834  -26.5199   24.1982 C   0  0  0  0  0  0  0  0  0  0  0  0
  -22.5694   -5.5253   20.8506 C   0  0  0  0  0  0  0  0  0  0  0  0
  -23.1060   -4.2391   20.7940 C   0  0  0  0  0  0  0  0  0  0  0  0
  -28.2535  -28.6325   23.0358 C   0  0  0  0  0  0  0  0  0  0  0  0
  -22.9330   -4.0613   23.1973 C   0  0  0  0  0  0  0  0  0  0  0  0
  -23.9992  -10.4790   20.6833 C   0  0  0  0  0  0  0  0  0  0  0  0
  -25.5401  -11.5895   18.9804 C   0  0  0  0  0  0  0  0  0  0  0  0
  -19.3991  -26.6823   22.0854 C   0  0  0  0  0  0  0  0  0  0  0  0
  -26.2738  -28.0168   24.2852 C   0  0  0  0  0  0  0  0  0  0  0  0
  -20.7972  -26.5170   22.0721 C   0  0  0  0  0  0  0  0  0  0  0  0
  -26.9601  -28.9406   23.4842 C   0  0  0  0  0  0  0  0  0  0  0  0
  -30.1616  -22.9181   20.3147 C   0  0  0  0  0  0  0  0  0  0  0  0
  -22.4416   -8.3803   21.6591 C   0  0  0  0  0  0  0  0  0  0  0  0
  -28.8608  -27.4279   23.3897 C   0  0  0  0  0  0  0  0  0  0  0  0
  -22.2147   -6.0796   22.0805 C   0  0  0  0  0  0  0  0  0  0  0  0
  -23.2878   -3.5070   21.9674 C   0  0  0  0  0  0  0  0  0  0  0  0
  -22.3965   -5.3476   23.2538 C   0  0  0  0  0  0  0  0  0  0  0  0
  -24.8030  -11.5635   20.1795 C   0  0  0  0  0  0  0  0  0  0  0  0
  -30.5402  -23.3390   21.5732 C   0  0  0  0  0  0  0  0  0  0  0  0
  -30.2725  -23.8595   19.3118 C   0  0  0  0  0  0  0  0  0  0  0  0
  -26.1230  -12.8330   18.9625 C   0  0  0  0  0  0  0  0  0  0  0  0
  -31.0558  -25.4065   20.7816 C   0  0  0  0  0  0  0  0  0  0  0  0
  -25.6848  -10.5798   17.9727 C   0  0  0  0  0  0  0  0  0  0  0  0
  -23.6568  -28.7840   22.6522 C   0  0  0  0  0  0  0  0  0  0  0  0
  -24.4115  -31.7896   23.6106 C   0  0  0  0  0  0  0  0  0  0  0  0
  -24.4968  -17.9320   21.5376 C   0  0  0  0  0  0  0  0  0  0  0  0
  -26.8089  -33.9794   24.6615 C   0  0  0  0  0  0  0  0  0  0  0  0
  -18.7433  -27.9347   21.5597 C   0  0  0  0  0  0  0  0  0  0  0  0
  -24.8960  -28.3309   24.8005 C   0  0  0  0  0  0  0  0  0  0  0  0
  -26.3433  -30.2549   23.0833 C   0  0  0  0  0  0  0  0  0  0  0  0
  -19.6989  -29.1192   21.4420 C   0  0  0  0  0  0  0  0  0  0  0  0
  -27.7159  -16.2725   21.8705 C   0  0  0  0  0  0  0  0  0  0  0  0
  -21.0018  -28.6898   20.7749 C   0  0  0  0  0  0  0  0  0  0  0  0
  -27.3839  -14.8616   21.3865 C   0  0  0  0  0  0  0  0  0  0  0  0
  -26.5462  -16.8958   22.6277 C   0  0  0  0  0  0  0  0  0  0  0  0
  -24.9341  -15.5026   21.3689 C   0  0  0  0  0  0  0  0  0  0  0  0
  -21.7214  -27.6213   21.6066 C   0  0  1  0  0  0  0  0  0  0  0  0
  -24.1586  -29.3581   23.9469 C   0  0  1  0  0  0  0  0  0  0  0  0
  -26.0773  -14.8501   20.5739 C   0  0  2  0  0  0  0  0  0  0  0  0
  -30.4636  -22.4064   22.7372 C   0  0  0  0  0  0  0  0  0  0  0  0
  -27.1302  -36.3764   25.3310 C   0  0  0  0  0  0  0  0  0  0  0  0
  -23.8836  -20.2962   21.6328 C   0  0  0  0  0  0  0  0  0  0  0  0
  -24.9420  -19.1951   23.6184 C   0  0  0  0  0  0  0  0  0  0  0  0
  -24.2755  -32.6242   20.6789 C   0  0  0  0  0  0  0  0  0  0  0  0
  -25.5042  -34.7182   21.2902 C   0  0  0  0  0  0  0  0  0  0  0  0
  -23.2598  -34.2580   22.2768 C   0  0  0  0  0  0  0  0  0  0  0  0
  -27.7070  -33.2214   27.3777 C   0  0  0  0  0  0  0  0  0  0  0  0
  -27.9926  -19.6780   18.1044 C   0  0  0  0  0  0  0  0  0  0  0  0
  -29.6681  -21.5388   20.0561 C   0  0  0  0  0  0  0  0  0  0  0  0
  -31.5611  -26.8045   21.0435 C   0  0  0  0  0  0  0  0  0  0  0  0
  -26.3087  -19.6509   21.5070 C   0  0  0  0  0  0  0  0  0  0  0  0
  -28.1533  -21.4380   19.8586 C   0  0  0  0  0  0  0  0  0  0  0  0
  -26.3579  -19.7170   19.9826 C   0  0  0  0  0  0  0  0  0  0  0  0
  -30.5028  -27.6920   21.6896 C   0  0  0  0  0  0  0  0  0  1  0  0
  -25.2539  -32.9104   23.0510 C   0  0  1  0  0  0  0  0  0  0  0  0
  -26.8365  -34.9651   25.8156 C   0  0  2  0  0  0  0  0  0  0  0  0
  -29.8909  -23.5192   17.9088 C   0  0  0  0  0  0  0  0  0  0  0  0
  -24.9287  -19.2679   22.0879 C   0  0  0  0  0  0  0  0  0  0  0  0
  -24.5845  -33.6021   21.8300 C   0  0  0  0  0  0  0  0  0  0  0  0
  -24.9067  -12.7001   20.8732 N   0  0  0  0  0  0  0  0  0  0  0  0
  -30.9935  -24.5807   21.8435 N   0  0  0  0  0  0  0  0  0  0  0  0
  -30.7172  -25.1177   19.5106 N   0  0  0  0  0  0  0  0  0  0  0  0
  -25.7158  -13.4520   20.1076 N   0  0  0  0  0  0  0  0  0  0  0  0
  -24.9918  -30.5133   23.6072 N   0  0  0  0  0  0  0  0  0  0  0  0
  -25.3147  -16.8405   21.8310 N   0  0  0  0  0  0  0  0  0  0  0  0
  -26.9391  -13.4463   18.0793 N   0  0  0  0  0  0  0  0  0  0  0  0
  -25.0173   -9.3601   18.1483 N   0  0  0  0  0  0  0  0  0  0  0  0
  -22.3946  -28.2277   22.7351 N   0  0  0  0  0  0  0  0  0  0  0  0
  -25.5333  -33.8075   24.1670 N   0  0  0  0  0  0  0  0  0  0  0  0
  -27.8851  -34.5791   26.8016 N   0  3  0  0  0  0  0  0  0  0  0  0
  -27.7682  -20.0381   19.5525 N   0  3  1  0  0  0  0  0  0  0  0  0
  -26.3985  -10.7481   16.9550 O   0  0  0  0  0  0  0  0  0  0  0  0
  -24.3619  -28.8427   21.6516 O   0  0  0  0  0  0  0  0  0  0  0  0
  -23.2829  -32.0387   24.0418 O   0  0  0  0  0  0  0  0  0  0  0  0
  -23.4647  -17.8632   20.8652 O   0  0  0  0  0  0  0  0  0  0  0  0
  -27.8185  -33.4207   24.2384 O   0  0  0  0  0  0  0  0  0  0  0  0
  -21.6814   -7.3565   22.1349 O   0  0  0  0  0  0  0  0  0  0  0  0
  -30.1164  -27.1431   22.9489 O   0  0  0  0  0  0  0  0  0  1  0  0
  -23.8016   -2.2713   21.9128 F   0  0  0  0  0  0  0  0  0  0  0  0
  -22.0565   -5.8744   24.4382 F   0  0  0  0  0  0  0  0  0  0  0  0
  -29.4470  -22.2368   17.7598 F   0  0  0  0  0  0  0  0  0  0  0  0
  -28.8912  -24.3040   17.4104 F   0  0  0  0  0  0  0  0  0  0  0  0
  -30.9317  -23.6516   17.0368 F   0  0  0  0  0  0  0  0  0  0  0  0
  1  2  1  0  0  0  0
  1  5  2  0  0  0  0
  2  6  2  0  0  0  0
  3  8  2  0  0  0  0
  3 15  1  0  0  0  0
  4  9  1  0  0  0  0
  4 15  2  0  0  0  0
  5 17  1  0  0  0  0
  6 19  1  0  0  0  0
  7 10  2  0  0  0  0
  7 18  1  0  0  0  0
  8 22  1  0  0  0  0
  9 22  2  0  0  0  0
 10 23  1  0  0  0  0
 11 12  2  0  0  0  0
 11 24  1  0  0  0  0
 12 25  1  0  0  0  0
 13 20  1  0  0  0  0
 13 23  2  0  0  0  0
 14 25  2  0  0  0  0
 14 26  1  0  0  0  0
 15 27  1  0  0  0  0
 16 27  1  0  0  0  0
 16 30  2  0  0  0  0
 16 32  1  0  0  0  0
 17 19  2  0  0  0  0
 17 37  1  0  0  0  0
 18 20  2  0  0  0  0
 18 38  1  0  0  0  0
 19 46  1  0  0  0  0
 20 39  1  0  0  0  0
 21 28  1  0  0  0  0
 21 29  2  0  0  0  0
 21 58  1  0  0  0  0
 22 86  1  0  0  0  0
 23 87  1  0  0  0  0
 24 26  2  0  0  0  0
 24 86  1  0  0  0  0
 25 88  1  0  0  0  0
 26 89  1  0  0  0  0
 27 69  2  0  0  0  0
 28 49  1  0  0  0  0
 28 70  2  0  0  0  0
 29 66  1  0  0  0  0
 29 71  1  0  0  0  0
 30 72  1  0  0  0  0
 30 75  1  0  0  0  0
 31 59  1  0  0  0  0
 31 70  1  0  0  0  0
 31 71  2  0  0  0  0
 32 76  1  0  0  0  0
 32 81  2  0  0  0  0
 33 47  1  0  0  0  0
 33 77  1  0  0  0  0
 33 82  2  0  0  0  0
 34 64  1  0  0  0  0
 34 73  1  0  0  0  0
 34 83  2  0  0  0  0
 35 67  1  0  0  0  0
 35 74  1  0  0  0  0
 35 84  2  0  0  0  0
 36 65  1  0  0  0  0
 36 78  1  0  0  0  0
 36 85  2  0  0  0  0
 37 40  1  0  0  0  0
 38 47  1  0  0  0  0
 39 73  1  0  0  0  0
 40 42  1  0  0  0  0
 41 43  1  0  0  0  0
 41 44  1  0  0  0  0
 42 46  1  0  0  0  0
 43 48  1  0  0  0  0
 44 74  1  0  0  0  0
 45 48  1  0  0  0  0
 45 74  1  0  0  0  0
 46 77  1  0  0  0  0
 47 73  1  0  0  0  0
 48 72  1  0  0  0  0
 50 65  1  0  0  0  0
 51 67  1  0  0  0  0
 52 67  1  0  0  0  0
 53 68  1  0  0  0  0
 54 68  1  0  0  0  0
 55 68  1  0  0  0  0
 56 79  1  0  0  0  0
 57 80  1  0  0  0  0
 58 61  1  0  0  0  0
 59 63  1  0  0  0  0
 60 62  1  0  0  0  0
 60 67  1  0  0  0  0
 61 80  1  0  0  0  0
 62 80  1  0  0  0  0
 63 87  1  0  0  0  0
 64 68  1  0  0  0  0
 64 78  1  0  0  0  0
 65 79  1  0  0  0  0
 66 90  1  0  0  0  0
 66 91  1  0  0  0  0
 66 92  1  0  0  0  0
 69 72  1  0  0  0  0
M  CHG  2  79   1  80   1
M  ISO  4  35 100  63 101  67 100  87 101
M  END
> <Batch ID>
0050

> <Smiles>
CNC(C)C(=O)NC(C(=O)N1Cc2cc([101O:1][101CH2:1]Cc3nc(C)c(CCN(C)CC[100C:0](C)(C)[100C:0](=O)N4CCCC(n5nc(-c6ccc(Oc7ccc(F)cc7F)cc6)c(C(N)=O)c5N)C4)c(C(F)(F)F)n3)ccc2CC1C(=O)NC1CCCc2ccccc21)C(C)(C)C

> <Shape>
0.300

> <Color>
0.098

> <Negative vol penalty>
0.000

$$$$

  -OEChem-04052317313D

 83 91  0     1  0  0  0  0  0999 V2000
  -30.2219  -12.1004   19.9748 C   0  0  0  0  0  0  0  0  0  0  0  0
  -30.1072  -13.4668   20.2099 C   0  0  0  0  0  0  0  0  0  0  0  0
  -30.2258  -24.1429   20.3059 C   0  0  0  0  0  0  0  0  0  0  0  0
  -28.3662  -23.7760   18.8078 C   0  0  0  0  0  0  0  0  0  0  0  0
  -29.1951  -11.4176   19.3241 C   0  0  0  0  0  0  0  0  0  0  0  0
  -28.9661  -14.1514   19.7933 C   0  0  0  0  0  0  0  0  0  0  0  0
  -26.2671  -18.8687   22.6161 C   0  0  0  0  0  0  0  0  0  0  0  0
  -30.3079  -22.7704   20.5401 C   0  0  0  0  0  0  0  0  0  0  0  0
  -28.4483  -22.4034   19.0420 C   0  0  0  0  0  0  0  0  0  0  0  0
  -26.3295  -20.2460   22.4091 C   0  0  0  0  0  0  0  0  0  0  0  0
  -30.3630  -19.8137   18.0183 C   0  0  0  0  0  0  0  0  0  0  0  0
  -30.2849  -18.9637   16.9152 C   0  0  0  0  0  0  0  0  0  0  0  0
  -23.4397  -26.0922   20.1720 C   0  0  0  0  0  0  0  0  0  0  0  0
  -24.3224  -20.1306   21.0760 C   0  0  0  0  0  0  0  0  0  0  0  0
  -28.3221  -17.9185   17.8596 C   0  0  0  0  0  0  0  0  0  0  0  0
  -23.5796  -27.2041   19.3780 C   0  0  0  0  0  0  0  0  0  0  0  0
  -29.2549  -24.6458   19.4397 C   0  0  0  0  0  0  0  0  0  0  0  0
  -29.8321  -26.7965   18.1951 C   0  0  0  0  0  0  0  0  0  0  0  0
  -28.0366  -12.0924   18.9080 C   0  0  0  0  0  0  0  0  0  0  0  0
  -25.2362  -18.1091   22.0447 C   0  0  0  0  0  0  0  0  0  0  0  0
  -27.9234  -13.4773   19.1352 C   0  0  0  0  0  0  0  0  0  0  0  0
  -24.2477  -18.7441   21.2794 C   0  0  0  0  0  0  0  0  0  0  0  0
  -29.4192  -21.9006   19.9082 C   0  0  0  0  0  0  0  0  0  0  0  0
  -25.3587  -20.8768   21.6366 C   0  0  0  0  0  0  0  0  0  0  0  0
  -29.4207  -19.7161   19.0422 C   0  0  0  0  0  0  0  0  0  0  0  0
  -29.2644  -18.0161   16.8358 C   0  0  0  0  0  0  0  0  0  0  0  0
  -28.4002  -18.7685   18.9628 C   0  0  0  0  0  0  0  0  0  0  0  0
  -29.1692  -26.0636   19.1977 C   0  0  0  0  0  0  0  0  0  0  0  0
  -23.4182  -26.5981   21.4856 C   0  0  0  0  0  0  0  0  0  0  0  0
  -29.4200  -28.0924   18.3878 C   0  0  0  0  0  0  0  0  0  0  0  0
  -30.7392  -26.3460   17.1802 C   0  0  0  0  0  0  0  0  0  0  0  0
  -25.1050  -15.7246   19.9468 C   0  0  0  0  0  0  0  0  0  0  0  0
  -21.9551  -15.7340   20.7214 C   0  0  0  0  0  0  0  0  0  0  0  0
  -24.5004  -30.3990   20.9547 C   0  0  0  0  0  0  0  0  0  0  0  0
  -19.2736  -17.4657   21.9287 C   0  0  0  0  0  0  0  0  0  0  0  0
  -26.9740  -11.3208   18.1662 C   0  0  0  0  0  0  0  0  0  0  0  0
  -25.1680  -16.6283   22.2996 C   0  0  0  0  0  0  0  0  0  0  0  0
  -23.1089  -17.9768   20.6606 C   0  0  0  0  0  0  0  0  0  0  0  0
  -25.6341  -12.0482   18.0905 C   0  0  0  0  0  0  0  0  0  0  0  0
  -27.9159  -31.0843   21.7944 C   0  0  0  0  0  0  0  0  0  0  0  0
  -25.8394  -13.5044   17.6855 C   0  0  0  0  0  0  0  0  0  0  0  0
  -28.6817  -29.9257   21.1567 C   0  0  0  0  0  0  0  0  0  0  0  0
  -26.5534  -30.6348   22.3127 C   0  0  0  0  0  0  0  0  0  0  0  0
  -26.4637  -28.8118   20.6424 C   0  0  0  0  0  0  0  0  0  0  0  0
  -26.6903  -14.2502   18.7205 C   0  0  1  0  0  0  0  0  0  0  0  0
  -24.3625  -15.8768   21.2442 C   0  0  1  0  0  0  0  0  0  0  0  0
  -27.8332  -29.2294   20.0780 C   0  0  2  0  0  0  0  0  0  0  0  0
  -21.8121  -25.7323   23.2053 C   0  0  0  0  0  0  0  0  0  0  0  0
  -16.8228  -17.2186   22.4082 C   0  0  0  0  0  0  0  0  0  0  0  0
  -22.3859  -30.2899   19.6743 C   0  0  0  0  0  0  0  0  0  0  0  0
  -24.5927  -29.8975   18.5785 C   0  0  0  0  0  0  0  0  0  0  0  0
  -21.3508  -15.9651   17.7396 C   0  0  0  0  0  0  0  0  0  0  0  0
  -19.0212  -16.6614   18.3366 C   0  0  0  0  0  0  0  0  0  0  0  0
  -19.8517  -14.4016   18.9897 C   0  0  0  0  0  0  0  0  0  0  0  0
  -19.6663  -17.9955   24.8139 C   0  0  0  0  0  0  0  0  0  0  0  0
  -25.4097  -24.4118   22.4536 C   0  0  0  0  0  0  0  0  0  0  0  0
  -23.8931  -24.3953   22.6938 C   0  0  0  0  0  0  0  0  0  0  0  0
  -26.0075  -23.0095   22.4652 C   0  0  0  0  0  0  0  0  0  1  0  0
  -23.2828  -25.8111   22.7777 C   0  0  1  0  0  0  0  0  0  0  0  0
  -20.7278  -16.4414   20.1995 C   0  0  1  0  0  0  0  0  0  0  0  0
  -18.2307  -17.1084   22.9724 C   0  0  2  0  0  0  0  0  0  0  0  0
  -23.7754  -29.6549   19.8617 C   0  0  0  0  0  0  0  0  0  0  0  0
  -20.2603  -15.8819   18.8263 C   0  0  0  0  0  0  0  0  0  0  0  0
  -28.3950  -26.8303   19.9702 N   0  0  0  0  0  0  0  0  0  0  0  0
  -23.5354  -27.9280   21.5278 N   0  0  0  0  0  0  0  0  0  0  0  0
  -23.6318  -28.2671   20.2310 N   0  0  0  0  0  0  0  0  0  0  0  0
  -28.5688  -28.0584   19.4529 N   0  0  0  0  0  0  0  0  0  0  0  0
  -23.0895  -16.5302   20.9335 N   0  0  0  0  0  0  0  0  0  0  0  0
  -25.7872  -29.9583   21.2646 N   0  0  0  0  0  0  0  0  0  0  0  0
  -29.7065  -29.2464   17.7485 N   0  0  0  0  0  0  0  0  0  0  0  0
  -31.0547  -24.9816   17.1239 N   0  0  0  0  0  0  0  0  0  0  0  0
  -25.8929  -14.5915   19.8790 N   0  0  0  0  0  0  0  0  0  0  0  0
  -19.7245  -16.3506   21.2547 N   0  0  0  0  0  0  0  0  0  0  0  0
  -18.3393  -18.0200   24.1464 N   0  3  0  0  0  0  0  0  0  0  0  0
  -31.2673  -27.1327   16.3582 O   0  0  0  0  0  0  0  0  0  0  0  0
  -24.9717  -16.5718   19.0715 O   0  0  0  0  0  0  0  0  0  0  0  0
  -21.9067  -14.5209   20.9399 O   0  0  0  0  0  0  0  0  0  0  0  0
  -23.9394  -31.3454   21.5132 O   0  0  0  0  0  0  0  0  0  0  0  0
  -19.6478  -18.6192   21.7287 O   0  0  0  0  0  0  0  0  0  0  0  0
  -29.4992  -20.5612   20.1364 O   0  0  0  0  0  0  0  0  0  0  0  0
  -25.4176  -22.2209   21.4324 O   0  0  0  0  0  0  0  0  0  1  0  0
  -29.1886  -17.2010   15.7756 F   0  0  0  0  0  0  0  0  0  0  0  0
  -27.4914  -18.6707   19.9427 F   0  0  0  0  0  0  0  0  0  0  0  0
  1  2  1  0  0  0  0
  1  5  2  0  0  0  0
  2  6  2  0  0  0  0
  3  8  2  0  0  0  0
  3 17  1  0  0  0  0
  4  9  1  0  0  0  0
  4 17  2  0  0  0  0
  5 19  1  0  0  0  0
  6 21  1  0  0  0  0
  7 10  2  0  0  0  0
  7 20  1  0  0  0  0
  8 23  1  0  0  0  0
  9 23  2  0  0  0  0
 10 24  1  0  0  0  0
 11 12  2  0  0  0  0
 11 25  1  0  0  0  0
 12 26  1  0  0  0  0
 13 16  2  0  0  0  0
 13 29  1  0  0  0  0
 14 22  1  0  0  0  0
 14 24  2  0  0  0  0
 15 26  2  0  0  0  0
 15 27  1  0  0  0  0
 16 66  1  0  0  0  0
 17 28  1  0  0  0  0
 18 28  1  0  0  0  0
 18 30  2  0  0  0  0
 18 31  1  0  0  0  0
 19 21  2  0  0  0  0
 19 36  1  0  0  0  0
 20 22  2  0  0  0  0
 20 37  1  0  0  0  0
 21 45  1  0  0  0  0
 22 38  1  0  0  0  0
 23 80  1  0  0  0  0
 24 81  1  0  0  0  0
 25 27  2  0  0  0  0
 25 80  1  0  0  0  0
 26 82  1  0  0  0  0
 27 83  1  0  0  0  0
 28 64  2  0  0  0  0
 29 59  1  0  0  0  0
 29 65  2  0  0  0  0
 30 67  1  0  0  0  0
 30 70  1  0  0  0  0
 31 71  1  0  0  0  0
 31 75  2  0  0  0  0
 32 46  1  0  0  0  0
 32 72  1  0  0  0  0
 32 76  2  0  0  0  0
 33 60  1  0  0  0  0
 33 68  1  0  0  0  0
 33 77  2  0  0  0  0
 34 62  1  0  0  0  0
 34 69  1  0  0  0  0
 34 78  2  0  0  0  0
 35 61  1  0  0  0  0
 35 73  1  0  0  0  0
 35 79  2  0  0  0  0
 36 39  1  0  0  0  0
 37 46  1  0  0  0  0
 38 68  1  0  0  0  0
 39 41  1  0  0  0  0
 40 42  1  0  0  0  0
 40 43  1  0  0  0  0
 41 45  1  0  0  0  0
 42 47  1  0  0  0  0
 43 69  1  0  0  0  0
 44 47  1  0  0  0  0
 44 69  1  0  0  0  0
 45 72  1  0  0  0  0
 46 68  1  0  0  0  0
 47 67  1  0  0  0  0
 48 59  1  0  0  0  0
 49 61  1  0  0  0  0
 50 62  1  0  0  0  0
 51 62  1  0  0  0  0
 52 63  1  0  0  0  0
 53 63  1  0  0  0  0
 54 63  1  0  0  0  0
 55 74  1  0  0  0  0
 56 57  1  0  0  0  0
 56 58  1  0  0  0  0
 57 59  1  0  0  0  0
 58 81  1  0  0  0  0
 60 63  1  0  0  0  0
 60 73  1  0  0  0  0
 61 74  1  0  0  0  0
 62 66  1  0  0  0  0
 64 67  1  0  0  0  0
 65 66  1  0  0  0  0
M  CHG  1  74   1
M  ISO  4  34 100  58 101  62 100  81 101
M  END
> <Batch ID>
0050

> <Smiles>
CNC(C)C(=O)NC(C(=O)N1Cc2cc([101O:1][101CH2:1]CCC(C)c3ccn([100C:0](C)(C)[100C:0](=O)N4CCCC(n5nc(-c6ccc(Oc7ccc(F)cc7F)cc6)c(C(N)=O)c5N)C4)n3)ccc2CC1C(=O)NC1CCCc2ccccc21)C(C)(C)C

> <Shape>
0.214

> <Color>
0.079

> <Negative vol penalty>
0.000

$$$$

  -OEChem-04052317313D

 87 95  0     1  0  0  0  0  0999 V2000
  -22.4047  -29.7976   24.3104 C   0  0  0  0  0  0  0  0  0  0  0  0
  -22.2096  -28.5595   23.7066 C   0  0  0  0  0  0  0  0  0  0  0  0
  -23.1059   -9.7024   20.1114 C   0  0  0  0  0  0  0  0  0  0  0  0
  -23.7079  -10.0558   22.4243 C   0  0  0  0  0  0  0  0  0  0  0  0
  -23.2736  -30.7236   23.7346 C   0  0  0  0  0  0  0  0  0  0  0  0
  -22.8826  -28.2472   22.5259 C   0  0  0  0  0  0  0  0  0  0  0  0
  -24.9851  -22.7507   20.8305 C   0  0  0  0  0  0  0  0  0  0  0  0
  -27.3226  -16.8421   17.6073 C   0  0  0  0  0  0  0  0  0  0  0  0
  -22.3709   -8.5741   20.4750 C   0  0  0  0  0  0  0  0  0  0  0  0
  -22.9729   -8.9275   22.7880 C   0  0  0  0  0  0  0  0  0  0  0  0
  -24.4696  -21.7693   19.9850 C   0  0  0  0  0  0  0  0  0  0  0  0
  -23.3701   -5.5704   22.7304 C   0  0  0  0  0  0  0  0  0  0  0  0
  -23.9566   -4.6757   23.6255 C   0  0  0  0  0  0  0  0  0  0  0  0
  -28.6289  -16.7631   18.0771 C   0  0  0  0  0  0  0  0  0  0  0  0
  -25.8052  -22.6371   18.1733 C   0  0  0  0  0  0  0  0  0  0  0  0
  -22.1399   -5.0368   25.1768 C   0  0  0  0  0  0  0  0  0  0  0  0
  -26.9509  -18.6565   19.0994 C   0  0  0  0  0  0  0  0  0  0  0  0
  -23.7744  -10.4433   21.0860 C   0  0  0  0  0  0  0  0  0  0  0  0
  -24.0710  -12.9354   20.6290 C   0  0  0  0  0  0  0  0  0  0  0  0
  -23.9649  -30.4187   22.5515 C   0  0  0  0  0  0  0  0  0  0  0  0
  -25.9077  -23.6911   20.3501 C   0  0  0  0  0  0  0  0  0  0  0  0
  -23.7605  -29.1705   21.9330 C   0  0  0  0  0  0  0  0  0  0  0  0
  -26.3327  -23.6279   19.0154 C   0  0  0  0  0  0  0  0  0  0  0  0
  -26.4612  -17.8040   18.1230 C   0  0  0  0  0  0  0  0  0  0  0  0
  -22.3044   -8.1866   21.8133 C   0  0  0  0  0  0  0  0  0  0  0  0
  -24.8775  -21.7141   18.6554 C   0  0  0  0  0  0  0  0  0  0  0  0
  -22.1685   -6.1984   23.0586 C   0  0  0  0  0  0  0  0  0  0  0  0
  -23.3415   -4.4089   24.8486 C   0  0  0  0  0  0  0  0  0  0  0  0
  -21.5534   -5.9315   24.2817 C   0  0  0  0  0  0  0  0  0  0  0  0
  -24.5343  -11.6086   20.7109 C   0  0  0  0  0  0  0  0  0  0  0  0
  -29.0216  -17.6623   19.0554 C   0  0  0  0  0  0  0  0  0  0  0  0
  -25.1695  -13.6589   20.2334 C   0  0  0  0  0  0  0  0  0  0  0  0
  -22.7645  -13.4665   20.8874 C   0  0  0  0  0  0  0  0  0  0  0  0
  -25.9325  -26.8548   20.0429 C   0  0  0  0  0  0  0  0  0  0  0  0
  -30.6210  -14.8083   20.7331 C   0  0  0  0  0  0  0  0  0  0  0  0
  -29.0117  -26.3542   19.1538 C   0  0  0  0  0  0  0  0  0  0  0  0
  -31.3491  -24.2178   17.8814 C   0  0  0  0  0  0  0  0  0  0  0  0
  -24.8576  -31.4699   21.9409 C   0  0  0  0  0  0  0  0  0  0  0  0
  -26.4745  -24.7270   21.2818 C   0  0  0  0  0  0  0  0  0  0  0  0
  -27.3364  -24.6016   18.4558 C   0  0  0  0  0  0  0  0  0  0  0  0
  -25.8186  -30.9179   20.8912 C   0  0  0  0  0  0  0  0  0  0  0  0
  -29.6761  -12.1490   18.5251 C   0  0  0  0  0  0  0  0  0  0  0  0
  -25.0824  -29.9926   19.9275 C   0  0  0  0  0  0  0  0  0  0  0  0
  -28.2260  -11.8601   18.9109 C   0  0  0  0  0  0  0  0  0  0  0  0
  -30.5086  -12.5466   19.7400 C   0  0  0  0  0  0  0  0  0  0  0  0
  -28.4997  -13.4135   20.8952 C   0  0  0  0  0  0  0  0  0  0  0  0
  -24.4913  -28.7852   20.6651 C   0  0  1  0  0  0  0  0  0  0  0  0
  -27.0195  -25.9516   20.5533 C   0  0  1  0  0  0  0  0  0  0  0  0
  -27.6167  -13.0379   19.6920 C   0  0  2  0  0  0  0  0  0  0  0  0
  -30.0695  -15.6376   22.9768 C   0  0  0  0  0  0  0  0  0  0  0  0
  -33.6132  -23.3920   17.1818 C   0  0  0  0  0  0  0  0  0  0  0  0
  -28.4064  -27.9410   16.6189 C   0  0  0  0  0  0  0  0  0  0  0  0
  -30.4997  -27.0030   15.6155 C   0  0  0  0  0  0  0  0  0  0  0  0
  -30.6289  -28.4356   17.6535 C   0  0  0  0  0  0  0  0  0  0  0  0
  -31.3949  -19.2317   17.8297 C   0  0  0  0  0  0  0  0  0  0  0  0
  -31.9186  -23.1422   20.5792 C   0  0  0  0  0  0  0  0  0  0  0  0
  -25.0389  -17.9153   17.6350 C   0  0  0  0  0  0  0  0  0  0  0  0
  -24.8686  -18.8607   16.4439 C   0  0  0  0  0  0  0  0  0  0  0  0
  -30.4857  -17.2822   21.1098 C   0  0  0  0  0  0  0  0  0  0  0  0
  -25.2183  -20.3086   16.7675 C   0  0  0  0  0  0  0  0  0  1  0  0
  -30.4166  -17.6066   19.5824 C   0  0  2  0  0  0  0  0  0  0  0  0
  -29.9097  -15.9061   21.4833 C   0  0  1  0  0  0  0  0  0  0  0  0
  -29.7167  -26.0855   17.8462 C   0  0  1  0  0  0  0  0  0  0  0  0
  -32.7539  -23.8719   18.3412 C   0  0  2  0  0  0  0  0  0  0  0  0
  -29.7925  -27.3490   16.9433 C   0  0  0  0  0  0  0  0  0  0  0  0
  -31.2349  -18.8968   19.3014 C   0  0  0  0  0  0  0  0  0  0  0  0
  -28.2134  -18.6103   19.5806 N   0  0  0  0  0  0  0  0  0  0  0  0
  -25.8264  -11.4930   20.3928 N   0  0  0  0  0  0  0  0  0  0  0  0
  -26.1843  -12.7565   20.1070 N   0  0  0  0  0  0  0  0  0  0  0  0
  -27.8568  -25.5998   19.4046 N   0  0  0  0  0  0  0  0  0  0  0  0
  -29.8850  -13.6534   20.4675 N   0  0  0  0  0  0  0  0  0  0  0  0
  -25.3566  -14.9725   19.9847 N   0  0  0  0  0  0  0  0  0  0  0  0
  -21.7512  -12.5838   21.2852 N   0  0  0  0  0  0  0  0  0  0  0  0
  -25.5240  -27.8125   20.9513 N   0  0  0  0  0  0  0  0  0  0  0  0
  -31.0161  -25.5193   18.1919 N   0  0  0  0  0  0  0  0  0  0  0  0
  -32.7116  -22.7960   19.3716 N   0  3  0  0  0  0  0  0  0  0  0  0
  -22.4994  -14.6852   20.7532 O   0  0  0  0  0  0  0  0  0  0  0  0
  -25.4977  -26.6954   18.9083 O   0  0  0  0  0  0  0  0  0  0  0  0
  -31.7947  -14.9752   20.3916 O   0  0  0  0  0  0  0  0  0  0  0  0
  -29.4728  -27.1971   19.9274 O   0  0  0  0  0  0  0  0  0  0  0  0
  -30.6215  -23.4149   17.3014 O   0  0  0  0  0  0  0  0  0  0  0  0
  -21.5871   -7.0858   22.1686 O   0  0  0  0  0  0  0  0  0  0  0  0
  -24.3755  -20.7576   17.8279 O   0  0  0  0  0  0  0  0  0  1  0  0
  -23.9040   -3.5485   25.7074 F   0  0  0  0  0  0  0  0  0  0  0  0
  -20.3984   -6.5308   24.6020 F   0  0  0  0  0  0  0  0  0  0  0  0
  -32.4846  -18.7663   19.8306 F   0  0  0  0  0  0  0  0  0  0  0  0
  -30.6687  -19.9561   19.9342 F   0  0  0  0  0  0  0  0  0  0  0  0
  1  2  1  0  0  0  0
  1  5  2  0  0  0  0
  2  6  2  0  0  0  0
  3  9  2  0  0  0  0
  3 18  1  0  0  0  0
  4 10  1  0  0  0  0
  4 18  2  0  0  0  0
  5 20  1  0  0  0  0
  6 22  1  0  0  0  0
  7 11  2  0  0  0  0
  7 21  1  0  0  0  0
  8 14  2  0  0  0  0
  8 24  1  0  0  0  0
  9 25  1  0  0  0  0
 10 25  2  0  0  0  0
 11 26  1  0  0  0  0
 12 13  2  0  0  0  0
 12 27  1  0  0  0  0
 13 28  1  0  0  0  0
 14 31  1  0  0  0  0
 15 23  1  0  0  0  0
 15 26  2  0  0  0  0
 16 28  2  0  0  0  0
 16 29  1  0  0  0  0
 17 24  2  0  0  0  0
 17 67  1  0  0  0  0
 18 30  1  0  0  0  0
 19 30  1  0  0  0  0
 19 32  2  0  0  0  0
 19 33  1  0  0  0  0
 20 22  2  0  0  0  0
 20 38  1  0  0  0  0
 21 23  2  0  0  0  0
 21 39  1  0  0  0  0
 22 47  1  0  0  0  0
 23 40  1  0  0  0  0
 24 57  1  0  0  0  0
 25 82  1  0  0  0  0
 26 83  1  0  0  0  0
 27 29  2  0  0  0  0
 27 82  1  0  0  0  0
 28 84  1  0  0  0  0
 29 85  1  0  0  0  0
 30 68  2  0  0  0  0
 31 61  1  0  0  0  0
 31 67  2  0  0  0  0
 32 69  1  0  0  0  0
 32 72  1  0  0  0  0
 33 73  1  0  0  0  0
 33 77  2  0  0  0  0
 34 48  1  0  0  0  0
 34 74  1  0  0  0  0
 34 78  2  0  0  0  0
 35 62  1  0  0  0  0
 35 71  1  0  0  0  0
 35 79  2  0  0  0  0
 36 63  1  0  0  0  0
 36 70  1  0  0  0  0
 36 80  2  0  0  0  0
 37 64  1  0  0  0  0
 37 75  1  0  0  0  0
 37 81  2  0  0  0  0
 38 41  1  0  0  0  0
 39 48  1  0  0  0  0
 40 70  1  0  0  0  0
 41 43  1  0  0  0  0
 42 44  1  0  0  0  0
 42 45  1  0  0  0  0
 43 47  1  0  0  0  0
 44 49  1  0  0  0  0
 45 71  1  0  0  0  0
 46 49  1  0  0  0  0
 46 71  1  0  0  0  0
 47 74  1  0  0  0  0
 48 70  1  0  0  0  0
 49 69  1  0  0  0  0
 50 62  1  0  0  0  0
 51 64  1  0  0  0  0
 52 65  1  0  0  0  0
 53 65  1  0  0  0  0
 54 65  1  0  0  0  0
 55 66  1  0  0  0  0
 56 76  1  0  0  0  0
 57 58  1  0  0  0  0
 58 60  1  0  0  0  0
 59 61  1  0  0  0  0
 59 62  1  0  0  0  0
 60 83  1  0  0  0  0
 61 66  1  0  0  0  0
 63 65  1  0  0  0  0
 63 75  1  0  0  0  0
 64 76  1  0  0  0  0
 66 86  1  0  0  0  0
 66 87  1  0  0  0  0
 68 69  1  0  0  0  0
M  CHG  1  76   1
M  ISO  4  35 100  60 101  62 100  83 101
M  END
> <Batch ID>
0050

> <Smiles>
CNC(C)C(=O)NC(C(=O)N1Cc2cc([101O:1][101CH2:1]CCc3ccc(C(C[100CH:0](C)[100C:0](=O)N4CCCC(n5nc(-c6ccc(Oc7ccc(F)cc7F)cc6)c(C(N)=O)c5N)C4)C(C)(F)F)nc3)ccc2CC1C(=O)NC1CCCc2ccccc21)C(C)(C)C

> <Shape>
0.321

> <Color>
0.212

> <Negative vol penalty>
0.000

$$$$

  -OEChem-04052317313D

 81 89  0     1  0  0  0  0  0999 V2000
  -24.9191  -33.0592   24.7430 C   0  0  0  0  0  0  0  0  0  0  0  0
  -24.4522  -31.7680   24.9669 C   0  0  0  0  0  0  0  0  0  0  0  0
  -24.3831   -9.4755   21.2650 C   0  0  0  0  0  0  0  0  0  0  0  0
  -24.9935  -10.4555   23.3873 C   0  0  0  0  0  0  0  0  0  0  0  0
  -25.4038  -33.4157   23.4853 C   0  0  0  0  0  0  0  0  0  0  0  0
  -24.4687  -30.8328   23.9327 C   0  0  0  0  0  0  0  0  0  0  0  0
  -25.4703  -24.8115   24.4301 C   0  0  0  0  0  0  0  0  0  0  0  0
  -24.0739   -8.2767   21.9074 C   0  0  0  0  0  0  0  0  0  0  0  0
  -24.6843   -9.2566   24.0297 C   0  0  0  0  0  0  0  0  0  0  0  0
  -24.6070  -23.7179   24.4790 C   0  0  0  0  0  0  0  0  0  0  0  0
  -22.7808   -5.0717   23.0349 C   0  0  0  0  0  0  0  0  0  0  0  0
  -21.5947   -4.4310   22.6765 C   0  0  0  0  0  0  0  0  0  0  0  0
  -24.9017  -23.3869   22.1077 C   0  0  0  0  0  0  0  0  0  0  0  0
  -20.3358   -6.3718   23.3732 C   0  0  0  0  0  0  0  0  0  0  0  0
  -25.4199  -18.0302   20.4828 C   0  0  0  0  0  0  0  0  0  0  0  0
  -24.8429  -10.5649   22.0049 C   0  0  0  0  0  0  0  0  0  0  0  0
  -24.2950  -12.8835   21.0929 C   0  0  0  0  0  0  0  0  0  0  0  0
  -25.4352  -32.4816   22.4379 C   0  0  0  0  0  0  0  0  0  0  0  0
  -26.0483  -25.2083   23.2156 C   0  0  0  0  0  0  0  0  0  0  0  0
  -24.9530  -31.1775   22.6594 C   0  0  0  0  0  0  0  0  0  0  0  0
  -25.7741  -24.4843   22.0466 C   0  0  0  0  0  0  0  0  0  0  0  0
  -24.2245   -8.1672   23.2898 C   0  0  0  0  0  0  0  0  0  0  0  0
  -24.3203  -23.0072   23.3172 C   0  0  0  0  0  0  0  0  0  0  0  0
  -22.7443   -6.3625   23.5625 C   0  0  0  0  0  0  0  0  0  0  0  0
  -20.3723   -5.0811   22.8456 C   0  0  0  0  0  0  0  0  0  0  0  0
  -21.5218   -7.0125   23.7316 C   0  0  0  0  0  0  0  0  0  0  0  0
  -25.1630  -11.8034   21.3417 C   0  0  0  0  0  0  0  0  0  0  0  0
  -26.7431  -17.7573   20.7229 C   0  0  0  0  0  0  0  0  0  0  0  0
  -25.0751  -13.8081   20.4425 C   0  0  0  0  0  0  0  0  0  0  0  0
  -22.9077  -13.0372   21.4204 C   0  0  0  0  0  0  0  0  0  0  0  0
  -25.9315  -27.8340   21.4279 C   0  0  0  0  0  0  0  0  0  0  0  0
  -28.1942  -26.2848   19.6951 C   0  0  0  0  0  0  0  0  0  0  0  0
  -29.6171  -23.3212   18.7791 C   0  0  0  0  0  0  0  0  0  0  0  0
  -30.0561  -16.5480   20.4222 C   0  0  0  0  0  0  0  0  0  0  0  0
  -25.9243  -32.9270   21.0824 C   0  0  0  0  0  0  0  0  0  0  0  0
  -26.9985  -26.3739   23.1845 C   0  0  0  0  0  0  0  0  0  0  0  0
  -26.3847  -24.8572   20.7212 C   0  0  0  0  0  0  0  0  0  0  0  0
  -26.2555  -31.7695   20.1439 C   0  0  0  0  0  0  0  0  0  0  0  0
  -29.7046  -13.4269   18.4633 C   0  0  0  0  0  0  0  0  0  0  0  0
  -25.1419  -30.7273   20.1680 C   0  0  0  0  0  0  0  0  0  0  0  0
  -28.4581  -12.7889   19.0741 C   0  0  0  0  0  0  0  0  0  0  0  0
  -30.4435  -14.3045   19.4691 C   0  0  0  0  0  0  0  0  0  0  0  0
  -28.3434  -14.7103   20.7098 C   0  0  0  0  0  0  0  0  0  0  0  0
  -24.9777  -30.1277   21.5697 C   0  0  1  0  0  0  0  0  0  0  0  0
  -27.1268  -27.0034   21.8008 C   0  0  1  0  0  0  0  0  0  0  0  0
  -27.5503  -13.8567   19.7089 C   0  0  2  0  0  0  0  0  0  0  0  0
  -31.2571  -21.7630   17.6930 C   0  0  0  0  0  0  0  0  0  0  0  0
  -26.4429  -26.7366   17.2377 C   0  0  0  0  0  0  0  0  0  0  0  0
  -27.7861  -24.9919   16.0459 C   0  0  0  0  0  0  0  0  0  0  0  0
  -28.8901  -27.0786   16.8519 C   0  0  0  0  0  0  0  0  0  0  0  0
  -29.6436  -18.9623   20.7056 C   0  0  0  0  0  0  0  0  0  0  0  0
  -31.4175  -23.3936   21.1268 C   0  0  0  0  0  0  0  0  0  0  0  0
  -27.8380  -17.5712   19.7620 C   0  0  0  0  0  0  0  0  0  0  0  0
  -23.2646  -19.5726   23.0333 C   0  0  0  0  0  0  0  0  0  0  0  0
  -23.4408  -18.3772   22.0943 C   0  0  0  0  0  0  0  0  0  0  0  0
  -23.7003  -20.8959   22.4149 C   0  0  0  0  0  0  0  0  0  1  0  0
  -28.1776  -25.3261   18.5291 C   0  0  1  0  0  0  0  0  0  0  0  0
  -31.0678  -22.8798   18.7077 C   0  0  2  0  0  0  0  0  0  0  0  0
  -27.8110  -26.0272   17.1906 C   0  0  0  0  0  0  0  0  0  0  0  0
  -26.3998  -12.0203   20.8864 N   0  0  0  0  0  0  0  0  0  0  0  0
  -26.9575  -17.6724   22.0706 N   0  0  0  0  0  0  0  0  0  0  0  0
  -25.7977  -17.8850   22.6827 N   0  0  0  0  0  0  0  0  0  0  0  0
  -24.8770  -18.0991   21.7288 N   0  0  0  0  0  0  0  0  0  0  0  0
  -26.3146  -13.2474   20.3448 N   0  0  0  0  0  0  0  0  0  0  0  0
  -27.3025  -26.0082   20.7411 N   0  0  0  0  0  0  0  0  0  0  0  0
  -29.5478  -15.2817   20.0889 N   0  0  0  0  0  0  0  0  0  0  0  0
  -24.8149  -15.0379   19.9503 N   0  0  0  0  0  0  0  0  0  0  0  0
  -22.2591  -11.9903   22.0895 N   0  0  0  0  0  0  0  0  0  0  0  0
  -26.0168  -29.1540   21.8278 N   0  0  0  0  0  0  0  0  0  0  0  0
  -29.4801  -24.6690   18.5223 N   0  0  0  0  0  0  0  0  0  0  0  0
  -29.1612  -17.6278   20.3796 N   0  0  0  0  0  0  0  0  0  0  0  0
  -31.5259  -22.3887   20.0380 N   0  3  0  0  0  0  0  0  0  0  0  0
  -22.2580  -14.0656   21.1138 O   0  0  0  0  0  0  0  0  0  0  0  0
  -25.0015  -27.3161   20.8209 O   0  0  0  0  0  0  0  0  0  0  0  0
  -28.9749  -27.2398   19.6817 O   0  0  0  0  0  0  0  0  0  0  0  0
  -28.6970  -22.5470   19.0332 O   0  0  0  0  0  0  0  0  0  0  0  0
  -31.2443  -16.7059   20.7305 O   0  0  0  0  0  0  0  0  0  0  0  0
  -23.9227   -6.9976   23.9170 O   0  0  0  0  0  0  0  0  0  0  0  0
  -23.4774  -21.9397   23.3620 O   0  0  0  0  0  0  0  0  0  1  0  0
  -19.2335   -4.4662   22.5000 F   0  0  0  0  0  0  0  0  0  0  0  0
  -21.4805   -8.2531   24.2368 F   0  0  0  0  0  0  0  0  0  0  0  0
  1  2  1  0  0  0  0
  1  5  2  0  0  0  0
  2  6  2  0  0  0  0
  3  8  2  0  0  0  0
  3 16  1  0  0  0  0
  4  9  1  0  0  0  0
  4 16  2  0  0  0  0
  5 18  1  0  0  0  0
  6 20  1  0  0  0  0
  7 10  2  0  0  0  0
  7 19  1  0  0  0  0
  8 22  1  0  0  0  0
  9 22  2  0  0  0  0
 10 23  1  0  0  0  0
 11 12  2  0  0  0  0
 11 24  1  0  0  0  0
 12 25  1  0  0  0  0
 13 21  1  0  0  0  0
 13 23  2  0  0  0  0
 14 25  2  0  0  0  0
 14 26  1  0  0  0  0
 15 28  2  0  0  0  0
 15 63  1  0  0  0  0
 16 27  1  0  0  0  0
 17 27  1  0  0  0  0
 17 29  2  0  0  0  0
 17 30  1  0  0  0  0
 18 20  2  0  0  0  0
 18 35  1  0  0  0  0
 19 21  2  0  0  0  0
 19 36  1  0  0  0  0
 20 44  1  0  0  0  0
 21 37  1  0  0  0  0
 22 78  1  0  0  0  0
 23 79  1  0  0  0  0
 24 26  2  0  0  0  0
 24 78  1  0  0  0  0
 25 80  1  0  0  0  0
 26 81  1  0  0  0  0
 27 60  2  0  0  0  0
 28 53  1  0  0  0  0
 28 61  1  0  0  0  0
 29 64  1  0  0  0  0
 29 67  1  0  0  0  0
 30 68  1  0  0  0  0
 30 73  2  0  0  0  0
 31 45  1  0  0  0  0
 31 69  1  0  0  0  0
 31 74  2  0  0  0  0
 32 57  1  0  0  0  0
 32 65  1  0  0  0  0
 32 75  2  0  0  0  0
 33 58  1  0  0  0  0
 33 70  1  0  0  0  0
 33 76  2  0  0  0  0
 34 66  1  0  0  0  0
 34 71  1  0  0  0  0
 34 77  2  0  0  0  0
 35 38  1  0  0  0  0
 36 45  1  0  0  0  0
 37 65  1  0  0  0  0
 38 40  1  0  0  0  0
 39 41  1  0  0  0  0
 39 42  1  0  0  0  0
 40 44  1  0  0  0  0
 41 46  1  0  0  0  0
 42 66  1  0  0  0  0
 43 46  1  0  0  0  0
 43 66  1  0  0  0  0
 44 69  1  0  0  0  0
 45 65  1  0  0  0  0
 46 64  1  0  0  0  0
 47 58  1  0  0  0  0
 48 59  1  0  0  0  0
 49 59  1  0  0  0  0
 50 59  1  0  0  0  0
 51 71  1  0  0  0  0
 52 72  1  0  0  0  0
 53 71  1  0  0  0  0
 54 55  1  0  0  0  0
 54 56  1  0  0  0  0
 55 63  1  0  0  0  0
 56 79  1  0  0  0  0
 57 59  1  0  0  0  0
 57 70  1  0  0  0  0
 58 72  1  0  0  0  0
 60 64  1  0  0  0  0
 61 62  2  0  0  0  0
 62 63  1  0  0  0  0
M  CHG  1  72   1
M  ISO  4  34 100  56 101  71 100  79 101
M  END
> <Batch ID>
0050

> <Smiles>
CNC(C)C(=O)NC(C(=O)N1Cc2cc([101O:1][101CH2:1]CCn3cc(C[100N:0](C)[100C:0](=O)N4CCCC(n5nc(-c6ccc(Oc7ccc(F)cc7F)cc6)c(C(N)=O)c5N)C4)nn3)ccc2CC1C(=O)NC1CCCc2ccccc21)C(C)(C)C

> <Shape>
0.272

> <Color>
0.123

> <Negative vol penalty>
0.000

$$$$

  -OEChem-04052317313D

 86 94  0     1  0  0  0  0  0999 V2000
  -19.2153  -33.8620   20.4180 C   0  0  0  0  0  0  0  0  0  0  0  0
  -20.5293  -33.4739   20.1765 C   0  0  0  0  0  0  0  0  0  0  0  0
  -27.3291  -13.4161   22.9036 C   0  0  0  0  0  0  0  0  0  0  0  0
  -25.8383  -13.9146   21.0689 C   0  0  0  0  0  0  0  0  0  0  0  0
  -18.5183  -33.3243   21.4991 C   0  0  0  0  0  0  0  0  0  0  0  0
  -21.1473  -32.5485   21.0169 C   0  0  0  0  0  0  0  0  0  0  0  0
  -25.2390  -28.2816   19.4177 C   0  0  0  0  0  0  0  0  0  0  0  0
  -26.4507  -12.4285   23.3491 C   0  0  0  0  0  0  0  0  0  0  0  0
  -24.9598  -12.9269   21.5144 C   0  0  0  0  0  0  0  0  0  0  0  0
  -26.6307  -28.2424   19.4910 C   0  0  0  0  0  0  0  0  0  0  0  0
  -22.4962  -10.2909   21.9618 C   0  0  0  0  0  0  0  0  0  0  0  0
  -21.9596   -9.4225   21.0112 C   0  0  0  0  0  0  0  0  0  0  0  0
  -26.4810  -27.0541   21.5849 C   0  0  0  0  0  0  0  0  0  0  0  0
  -24.1855   -8.6881   20.4255 C   0  0  0  0  0  0  0  0  0  0  0  0
  -28.3774  -24.6419   18.6191 C   0  0  0  0  0  0  0  0  0  0  0  0
  -30.1274  -23.3145   18.7983 C   0  0  0  0  0  0  0  0  0  0  0  0
  -27.0229  -14.1592   21.7635 C   0  0  0  0  0  0  0  0  0  0  0  0
  -28.9945  -15.0247   20.3954 C   0  0  0  0  0  0  0  0  0  0  0  0
  -19.1249  -32.3846   22.3474 C   0  0  0  0  0  0  0  0  0  0  0  0
  -24.4565  -27.7159   20.4346 C   0  0  0  0  0  0  0  0  0  0  0  0
  -20.4582  -31.9987   22.1111 C   0  0  0  0  0  0  0  0  0  0  0  0
  -25.0796  -27.0851   21.5209 C   0  0  0  0  0  0  0  0  0  0  0  0
  -25.2660  -12.1838   22.6545 C   0  0  0  0  0  0  0  0  0  0  0  0
  -27.2519  -27.6311   20.5761 C   0  0  0  0  0  0  0  0  0  0  0  0
  -23.8776  -10.3580   22.1441 C   0  0  0  0  0  0  0  0  0  0  0  0
  -22.8042   -8.6211   20.2431 C   0  0  0  0  0  0  0  0  0  0  0  0
  -24.7222   -9.5566   21.3760 C   0  0  0  0  0  0  0  0  0  0  0  0
  -27.9297  -15.1800   21.3031 C   0  0  0  0  0  0  0  0  0  0  0  0
  -28.0450  -23.3335   18.3583 C   0  0  0  0  0  0  0  0  0  0  0  0
  -29.5420  -16.2799   20.2905 C   0  0  0  0  0  0  0  0  0  0  0  0
  -29.4480  -13.8508   19.7085 C   0  0  0  0  0  0  0  0  0  0  0  0
  -22.3251  -28.8351   22.5102 C   0  0  0  0  0  0  0  0  0  0  0  0
  -21.9517  -25.6934   23.2263 C   0  0  0  0  0  0  0  0  0  0  0  0
  -23.2763  -22.5482   23.2423 C   0  0  0  0  0  0  0  0  0  0  0  0
  -27.3299  -21.7778   21.1455 C   0  0  0  0  0  0  0  0  0  0  0  0
  -18.3470  -31.8666   23.5311 C   0  0  0  0  0  0  0  0  0  0  0  0
  -22.9565  -27.7430   20.3274 C   0  0  0  0  0  0  0  0  0  0  0  0
  -24.2848  -26.4451   22.6287 C   0  0  0  0  0  0  0  0  0  0  0  0
  -18.9499  -30.6098   24.1535 C   0  0  0  0  0  0  0  0  0  0  0  0
  -30.1410  -20.3237   22.7765 C   0  0  0  0  0  0  0  0  0  0  0  0
  -20.4556  -30.7736   24.3349 C   0  0  0  0  0  0  0  0  0  0  0  0
  -29.9891  -18.8265   22.5020 C   0  0  0  0  0  0  0  0  0  0  0  0
  -28.7878  -20.9983   22.9904 C   0  0  0  0  0  0  0  0  0  0  0  0
  -27.6552  -19.2780   21.6371 C   0  0  0  0  0  0  0  0  0  0  0  0
  -21.1548  -30.9787   22.9856 C   0  0  1  0  0  0  0  0  0  0  0  0
  -22.2583  -27.5879   21.6750 C   0  0  1  0  0  0  0  0  0  0  0  0
  -28.9895  -18.5645   21.3594 C   0  0  2  0  0  0  0  0  0  0  0  0
  -23.3593  -20.0582   23.5422 C   0  0  0  0  0  0  0  0  0  0  0  0
  -31.9836  -25.6651   18.6149 C   0  0  0  0  0  0  0  0  0  0  0  0
  -26.7396  -21.4983   17.0837 C   0  0  0  0  0  0  0  0  0  0  0  0
  -25.8828  -23.8247   17.1831 C   0  0  0  0  0  0  0  0  0  0  0  0
  -22.4638  -26.4261   26.1436 C   0  0  0  0  0  0  0  0  0  0  0  0
  -22.8668  -23.9995   26.6097 C   0  0  0  0  0  0  0  0  0  0  0  0
  -20.6349  -24.7569   25.7928 C   0  0  0  0  0  0  0  0  0  0  0  0
  -31.4764  -27.4501   21.0013 C   0  0  0  0  0  0  0  0  0  0  0  0
  -31.2197  -25.0628   21.6696 C   0  0  0  0  0  0  0  0  0  0  0  0
  -22.3167  -22.0676   20.4842 C   0  0  0  0  0  0  0  0  0  0  0  0
  -25.8491  -22.4023   19.2544 C   0  0  0  0  0  0  0  0  0  0  0  0
  -29.1918  -26.4802   21.3300 C   0  0  0  0  0  0  0  0  0  1  0  0
  -22.5963  -24.7344   24.1977 C   0  0  1  0  0  0  0  0  0  0  0  0
  -22.7065  -21.2130   22.7986 C   0  0  2  0  0  0  0  0  0  0  0  0
  -30.5898  -25.8143   19.2544 C   0  0  2  0  0  0  0  0  0  0  0  0
  -26.7292  -22.7828   17.9996 C   0  0  0  0  0  0  0  0  0  0  0  0
  -22.1557  -24.9929   25.6662 C   0  0  0  0  0  0  0  0  0  0  0  0
  -30.6166  -26.1786   20.7927 C   0  0  0  0  0  0  0  0  0  0  0  0
  -29.1387  -22.5121   18.4718 N   0  0  0  0  0  0  0  0  0  0  0  0
  -27.8065  -16.4349   21.7436 N   0  0  0  0  0  0  0  0  0  0  0  0
  -29.7145  -24.6139   18.8998 N   0  0  0  0  0  0  0  0  0  0  0  0
  -28.8010  -17.0796   21.1100 N   0  0  0  0  0  0  0  0  0  0  0  0
  -22.8211  -26.5031   22.4816 N   0  0  0  0  0  0  0  0  0  0  0  0
  -27.8872  -20.7120   21.8711 N   0  0  0  0  0  0  0  0  0  0  0  0
  -30.5803  -16.7667   19.5781 N   0  0  0  0  0  0  0  0  0  0  0  0
  -28.7718  -12.6434   19.9308 N   0  0  0  0  0  0  0  0  0  0  0  0
  -21.2856  -29.7179   22.2873 N   0  0  0  0  0  0  0  0  0  0  0  0
  -22.2924  -23.3934   23.7100 N   0  0  0  0  0  0  0  0  0  0  0  0
  -26.4923  -21.4186   20.0967 N   0  0  0  0  0  0  0  0  0  0  0  0
  -22.9263  -21.0157   21.3379 N   0  3  0  0  0  0  0  0  0  0  0  0
  -30.4341  -13.8684   18.9334 O   0  0  0  0  0  0  0  0  0  0  0  0
  -23.2504  -28.9847   23.2996 O   0  0  0  0  0  0  0  0  0  0  0  0
  -20.7225  -25.7180   23.1264 O   0  0  0  0  0  0  0  0  0  0  0  0
  -24.4750  -22.8135   23.1836 O   0  0  0  0  0  0  0  0  0  0  0  0
  -27.5659  -22.9617   21.4093 O   0  0  0  0  0  0  0  0  0  0  0  0
  -24.4087  -11.2200   23.0888 O   0  0  0  0  0  0  0  0  0  0  0  0
  -28.6102  -27.5921   20.6505 O   0  0  0  0  0  0  0  0  0  1  0  0
  -22.2887   -7.7861   19.3314 F   0  0  0  0  0  0  0  0  0  0  0  0
  -26.0499   -9.6157   21.5475 F   0  0  0  0  0  0  0  0  0  0  0  0
  1  2  1  0  0  0  0
  1  5  2  0  0  0  0
  2  6  2  0  0  0  0
  3  8  2  0  0  0  0
  3 17  1  0  0  0  0
  4  9  1  0  0  0  0
  4 17  2  0  0  0  0
  5 19  1  0  0  0  0
  6 21  1  0  0  0  0
  7 10  2  0  0  0  0
  7 20  1  0  0  0  0
  8 23  1  0  0  0  0
  9 23  2  0  0  0  0
 10 24  1  0  0  0  0
 11 12  2  0  0  0  0
 11 25  1  0  0  0  0
 12 26  1  0  0  0  0
 13 22  1  0  0  0  0
 13 24  2  0  0  0  0
 14 26  2  0  0  0  0
 14 27  1  0  0  0  0
 15 29  2  0  0  0  0
 15 68  1  0  0  0  0
 16 66  2  0  0  0  0
 16 68  1  0  0  0  0
 17 28  1  0  0  0  0
 18 28  1  0  0  0  0
 18 30  2  0  0  0  0
 18 31  1  0  0  0  0
 19 21  2  0  0  0  0
 19 36  1  0  0  0  0
 20 22  2  0  0  0  0
 20 37  1  0  0  0  0
 21 45  1  0  0  0  0
 22 38  1  0  0  0  0
 23 83  1  0  0  0  0
 24 84  1  0  0  0  0
 25 27  2  0  0  0  0
 25 83  1  0  0  0  0
 26 85  1  0  0  0  0
 27 86  1  0  0  0  0
 28 67  2  0  0  0  0
 29 63  1  0  0  0  0
 29 66  1  0  0  0  0
 30 69  1  0  0  0  0
 30 72  1  0  0  0  0
 31 73  1  0  0  0  0
 31 78  2  0  0  0  0
 32 46  1  0  0  0  0
 32 74  1  0  0  0  0
 32 79  2  0  0  0  0
 33 60  1  0  0  0  0
 33 70  1  0  0  0  0
 33 80  2  0  0  0  0
 34 61  1  0  0  0  0
 34 75  1  0  0  0  0
 34 81  2  0  0  0  0
 35 71  1  0  0  0  0
 35 76  1  0  0  0  0
 35 82  2  0  0  0  0
 36 39  1  0  0  0  0
 37 46  1  0  0  0  0
 38 70  1  0  0  0  0
 39 41  1  0  0  0  0
 40 42  1  0  0  0  0
 40 43  1  0  0  0  0
 41 45  1  0  0  0  0
 42 47  1  0  0  0  0
 43 71  1  0  0  0  0
 44 47  1  0  0  0  0
 44 71  1  0  0  0  0
 45 74  1  0  0  0  0
 46 70  1  0  0  0  0
 47 69  1  0  0  0  0
 48 61  1  0  0  0  0
 49 62  1  0  0  0  0
 50 63  1  0  0  0  0
 51 63  1  0  0  0  0
 52 64  1  0  0  0  0
 53 64  1  0  0  0  0
 54 64  1  0  0  0  0
 55 65  1  0  0  0  0
 56 65  1  0  0  0  0
 57 77  1  0  0  0  0
 58 63  1  0  0  0  0
 58 76  1  0  0  0  0
 59 65  1  0  0  0  0
 59 84  1  0  0  0  0
 60 64  1  0  0  0  0
 60 75  1  0  0  0  0
 61 77  1  0  0  0  0
 62 65  1  0  0  0  0
 62 68  1  0  0  0  0
 67 69  1  0  0  0  0
M  CHG  1  77   1
M  ISO  4  35 100  59 101  76 100  84 101
M  END
> <Batch ID>
0050

> <Smiles>
CNC(C)C(=O)NC(C(=O)N1Cc2cc([101O:1][101CH2:1]C(C)(C)C(C)n3cnc(C(C)(C)C[100NH:0][100C:0](=O)N4CCCC(n5nc(-c6ccc(Oc7ccc(F)cc7F)cc6)c(C(N)=O)c5N)C4)c3)ccc2CC1C(=O)NC1CCCc2ccccc21)C(C)(C)C

> <Shape>
0.226

> <Color>
0.088

> <Negative vol penalty>
0.000

$$$$

  -OEChem-04052317313D

 88 96  0     1  0  0  0  0  0999 V2000
  -26.9826  -36.5500   25.7823 C   0  0  0  0  0  0  0  0  0  0  0  0
  -27.6677  -35.7878   24.8415 C   0  0  0  0  0  0  0  0  0  0  0  0
  -23.9091  -10.3467   21.9106 C   0  0  0  0  0  0  0  0  0  0  0  0
  -23.9200  -10.9868   19.5810 C   0  0  0  0  0  0  0  0  0  0  0  0
  -25.9629  -35.9720   26.5373 C   0  0  0  0  0  0  0  0  0  0  0  0
  -27.3340  -34.4466   24.6558 C   0  0  0  0  0  0  0  0  0  0  0  0
  -27.0291  -29.4238   19.5574 C   0  0  0  0  0  0  0  0  0  0  0  0
  -27.7976  -22.6929   20.7254 C   0  0  0  0  0  0  0  0  0  0  0  0
  -22.5500  -10.0460   21.8217 C   0  0  0  0  0  0  0  0  0  0  0  0
  -22.5608  -10.6861   19.4920 C   0  0  0  0  0  0  0  0  0  0  0  0
  -27.4653  -28.1254   19.2971 C   0  0  0  0  0  0  0  0  0  0  0  0
  -20.6288   -7.5204   20.6542 C   0  0  0  0  0  0  0  0  0  0  0  0
  -20.1899   -6.3275   21.2285 C   0  0  0  0  0  0  0  0  0  0  0  0
  -28.3882  -21.4820   20.3816 C   0  0  0  0  0  0  0  0  0  0  0  0
  -25.6329  -27.2546   20.6021 C   0  0  0  0  0  0  0  0  0  0  0  0
  -18.7202   -7.5710   22.6882 C   0  0  0  0  0  0  0  0  0  0  0  0
  -24.5941  -10.8172   20.7903 C   0  0  0  0  0  0  0  0  0  0  0  0
  -27.0789  -10.2576   20.6472 C   0  0  0  0  0  0  0  0  0  0  0  0
  -25.6101  -34.6256   26.3539 C   0  0  0  0  0  0  0  0  0  0  0  0
  -25.8959  -29.6480   20.3523 C   0  0  0  0  0  0  0  0  0  0  0  0
  -26.3095  -33.8497   25.4099 C   0  0  0  0  0  0  0  0  0  0  0  0
  -25.1829  -28.5567   20.8689 C   0  0  0  0  0  0  0  0  0  0  0  0
  -27.0703  -23.4001   19.7744 C   0  0  0  0  0  0  0  0  0  0  0  0
  -21.8758  -10.2157   20.6124 C   0  0  0  0  0  0  0  0  0  0  0  0
  -26.7689  -27.0407   19.8218 C   0  0  0  0  0  0  0  0  0  0  0  0
  -20.1135   -8.7387   21.0969 C   0  0  0  0  0  0  0  0  0  0  0  0
  -19.2356   -6.3527   22.2455 C   0  0  0  0  0  0  0  0  0  0  0  0
  -19.1591   -8.7639   22.1139 C   0  0  0  0  0  0  0  0  0  0  0  0
  -25.9980  -11.1285   20.8817 C   0  0  0  0  0  0  0  0  0  0  0  0
  -28.2233  -21.0253   19.0839 C   0  0  0  0  0  0  0  0  0  0  0  0
  -26.9645  -22.8576   18.5039 C   0  0  0  0  0  0  0  0  0  0  0  0
  -28.1945  -11.0290   20.8635 C   0  0  0  0  0  0  0  0  0  0  0  0
  -27.0749   -8.8750   20.2678 C   0  0  0  0  0  0  0  0  0  0  0  0
  -25.3521  -31.1115   23.1211 C   0  0  0  0  0  0  0  0  0  0  0  0
  -22.2530  -30.4798   22.4006 C   0  0  0  0  0  0  0  0  0  0  0  0
  -20.0090  -28.5511   20.7003 C   0  0  0  0  0  0  0  0  0  0  0  0
  -31.0645  -15.5432   20.2747 C   0  0  0  0  0  0  0  0  0  0  0  0
  -24.5327  -34.0322   27.2267 C   0  0  0  0  0  0  0  0  0  0  0  0
  -25.4228  -31.0539   20.6017 C   0  0  0  0  0  0  0  0  0  0  0  0
  -23.9485  -28.7431   21.7115 C   0  0  0  0  0  0  0  0  0  0  0  0
  -23.9884  -32.7049   26.7049 C   0  0  0  0  0  0  0  0  0  0  0  0
  -28.6904  -15.6277   22.8878 C   0  0  0  0  0  0  0  0  0  0  0  0
  -25.1325  -31.7823   26.2966 C   0  0  0  0  0  0  0  0  0  0  0  0
  -27.8519  -14.3891   22.5751 C   0  0  0  0  0  0  0  0  0  0  0  0
  -29.0861  -16.3886   21.6210 C   0  0  0  0  0  0  0  0  0  0  0  0
  -28.9175  -14.3093   20.2904 C   0  0  0  0  0  0  0  0  0  0  0  0
  -25.9600  -32.3983   25.1621 C   0  0  1  0  0  0  0  0  0  0  0  0
  -24.5544  -31.1796   21.8496 C   0  0  1  0  0  0  0  0  0  0  0  0
  -28.5574  -13.4938   21.5417 C   0  0  2  0  0  0  0  0  0  0  0  0
  -26.1929  -23.5715   17.4428 C   0  0  0  0  0  0  0  0  0  0  0  0
  -33.1982  -18.1072   22.5106 C   0  0  0  0  0  0  0  0  0  0  0  0
  -17.5436  -28.2515   20.3401 C   0  0  0  0  0  0  0  0  0  0  0  0
  -33.6332  -16.8895   18.8446 C   0  0  0  0  0  0  0  0  0  0  0  0
  -22.0156  -29.1592   25.1409 C   0  0  0  0  0  0  0  0  0  0  0  0
  -19.8998  -28.0739   24.3574 C   0  0  0  0  0  0  0  0  0  0  0  0
  -20.0510  -30.5606   24.4846 C   0  0  0  0  0  0  0  0  0  0  0  0
  -20.2492  -29.0923   17.8006 C   0  0  0  0  0  0  0  0  0  0  0  0
  -30.6848  -20.4727   17.1806 C   0  0  0  0  0  0  0  0  0  0  0  0
  -26.4317  -24.7080   20.1391 C   0  0  0  0  0  0  0  0  0  1  0  0
  -28.8422  -19.7285   18.6810 C   0  0  0  0  0  0  0  0  0  0  0  0
  -33.6615  -18.0881   21.0596 C   0  0  0  0  0  0  0  0  0  0  0  0
  -30.9986  -18.0669   20.0982 C   0  0  0  0  0  0  0  0  0  0  0  0
  -30.9944  -18.4767   18.6373 C   0  0  0  0  0  0  0  0  0  0  0  0
  -21.3062  -29.3341   22.6646 C   0  0  1  0  0  0  0  0  0  0  0  0
  -18.8148  -28.9184   19.8380 C   0  0  2  0  0  0  0  0  0  0  0  0
  -33.1450  -16.8659   20.2894 C   0  0  1  0  0  0  0  0  0  0  0  0
  -20.8425  -29.2782   24.1476 C   0  0  0  0  0  0  0  0  0  0  0  0
  -26.3914  -12.3590   21.2211 N   0  0  0  0  0  0  0  0  0  0  0  0
  -27.5241  -21.6842   18.1328 N   0  0  0  0  0  0  0  0  0  0  0  0
  -27.7320  -12.2668   21.2015 N   0  0  0  0  0  0  0  0  0  0  0  0
  -23.5294  -30.1371   21.9323 N   0  0  0  0  0  0  0  0  0  0  0  0
  -29.7123  -15.4882   20.6434 N   0  0  0  0  0  0  0  0  0  0  0  0
  -29.5162  -10.7625   20.7957 N   0  0  0  0  0  0  0  0  0  0  0  0
  -25.8410   -8.2353   20.0870 N   0  0  0  0  0  0  0  0  0  0  0  0
  -25.2717  -32.2518   23.8974 N   0  0  0  0  0  0  0  0  0  0  0  0
  -20.2179  -29.4741   21.7032 N   0  0  0  0  0  0  0  0  0  0  0  0
  -31.6907  -16.7980   20.3153 N   0  0  0  0  0  0  0  0  0  0  0  0
  -19.0435  -28.4928   18.4282 N   0  3  0  0  0  0  0  0  0  0  0  0
  -30.3154  -19.8136   18.4847 N   0  3  1  0  0  0  0  0  0  0  0  0
  -28.1340   -8.2216   20.1101 O   0  0  0  0  0  0  0  0  0  0  0  0
  -25.9919  -30.0988   23.3795 O   0  0  0  0  0  0  0  0  0  0  0  0
  -21.8718  -31.6366   22.5957 O   0  0  0  0  0  0  0  0  0  0  0  0
  -20.6862  -27.5441   20.5061 O   0  0  0  0  0  0  0  0  0  0  0  0
  -31.6783  -14.5283   19.9205 O   0  0  0  0  0  0  0  0  0  0  0  0
  -20.5497   -9.9221   20.5252 O   0  0  0  0  0  0  0  0  0  0  0  0
  -27.1928  -25.7724   19.5699 O   0  0  0  0  0  0  0  0  0  1  0  0
  -18.8130   -5.2070   22.7958 F   0  0  0  0  0  0  0  0  0  0  0  0
  -18.6595   -9.9311   22.5426 F   0  0  0  0  0  0  0  0  0  0  0  0
  1  2  1  0  0  0  0
  1  5  2  0  0  0  0
  2  6  2  0  0  0  0
  3  9  2  0  0  0  0
  3 17  1  0  0  0  0
  4 10  1  0  0  0  0
  4 17  2  0  0  0  0
  5 19  1  0  0  0  0
  6 21  1  0  0  0  0
  7 11  2  0  0  0  0
  7 20  1  0  0  0  0
  8 14  2  0  0  0  0
  8 23  1  0  0  0  0
  9 24  1  0  0  0  0
 10 24  2  0  0  0  0
 11 25  1  0  0  0  0
 12 13  2  0  0  0  0
 12 26  1  0  0  0  0
 13 27  1  0  0  0  0
 14 30  1  0  0  0  0
 15 22  1  0  0  0  0
 15 25  2  0  0  0  0
 16 27  2  0  0  0  0
 16 28  1  0  0  0  0
 17 29  1  0  0  0  0
 18 29  1  0  0  0  0
 18 32  2  0  0  0  0
 18 33  1  0  0  0  0
 19 21  2  0  0  0  0
 19 38  1  0  0  0  0
 20 22  2  0  0  0  0
 20 39  1  0  0  0  0
 21 47  1  0  0  0  0
 22 40  1  0  0  0  0
 23 31  2  0  0  0  0
 23 59  1  0  0  0  0
 24 85  1  0  0  0  0
 25 86  1  0  0  0  0
 26 28  2  0  0  0  0
 26 85  1  0  0  0  0
 27 87  1  0  0  0  0
 28 88  1  0  0  0  0
 29 68  2  0  0  0  0
 30 60  1  0  0  0  0
 30 69  2  0  0  0  0
 31 50  1  0  0  0  0
 31 69  1  0  0  0  0
 32 70  1  0  0  0  0
 32 73  1  0  0  0  0
 33 74  1  0  0  0  0
 33 80  2  0  0  0  0
 34 48  1  0  0  0  0
 34 75  1  0  0  0  0
 34 81  2  0  0  0  0
 35 64  1  0  0  0  0
 35 71  1  0  0  0  0
 35 82  2  0  0  0  0
 36 65  1  0  0  0  0
 36 76  1  0  0  0  0
 36 83  2  0  0  0  0
 37 72  1  0  0  0  0
 37 77  1  0  0  0  0
 37 84  2  0  0  0  0
 38 41  1  0  0  0  0
 39 48  1  0  0  0  0
 40 71  1  0  0  0  0
 41 43  1  0  0  0  0
 42 44  1  0  0  0  0
 42 45  1  0  0  0  0
 43 47  1  0  0  0  0
 44 49  1  0  0  0  0
 45 72  1  0  0  0  0
 46 49  1  0  0  0  0
 46 72  1  0  0  0  0
 47 75  1  0  0  0  0
 48 71  1  0  0  0  0
 49 70  1  0  0  0  0
 51 61  1  0  0  0  0
 52 65  1  0  0  0  0
 53 66  1  0  0  0  0
 54 67  1  0  0  0  0
 55 67  1  0  0  0  0
 56 67  1  0  0  0  0
 57 78  1  0  0  0  0
 58 79  1  0  0  0  0
 59 86  1  0  0  0  0
 60 79  1  0  0  0  0
 61 66  1  0  0  0  0
 62 63  1  0  0  0  0
 62 77  1  0  0  0  0
 63 79  1  0  0  0  0
 64 67  1  0  0  0  0
 64 76  1  0  0  0  0
 65 78  1  0  0  0  0
 66 77  1  0  0  0  0
 68 70  1  0  0  0  0
M  CHG  2  78   1  79   1
M  ISO  4  37 100  59 101  77 100  86 101
M  END
> <Batch ID>
0050

> <Smiles>
CCC(C)[100N:0](CCN(C)Cc1ccc([101CH2:1][101O:1]c2ccc3c(c2)CN(C(=O)C(NC(=O)C(C)NC)C(C)(C)C)C(C(=O)NC2CCCc4ccccc42)C3)c(C)n1)[100C:0](=O)N1CCCC(n2nc(-c3ccc(Oc4ccc(F)cc4F)cc3)c(C(N)=O)c2N)C1

> <Shape>
0.271

> <Color>
0.067

> <Negative vol penalty>
0.000

$$$$

  -OEChem-04052317313D

 84 91  0     1  0  0  0  0  0999 V2000
  -21.6999  -12.9680   19.6878 C   0  0  0  0  0  0  0  0  0  0  0  0
  -21.7412  -14.2089   20.3156 C   0  0  0  0  0  0  0  0  0  0  0  0
  -26.2951  -28.4234   21.6367 C   0  0  0  0  0  0  0  0  0  0  0  0
  -25.0871  -26.5641   20.6771 C   0  0  0  0  0  0  0  0  0  0  0  0
  -22.8590  -12.1995   19.5885 C   0  0  0  0  0  0  0  0  0  0  0  0
  -22.9414  -14.6814   20.8454 C   0  0  0  0  0  0  0  0  0  0  0  0
  -23.7852  -19.5439   19.7100 C   0  0  0  0  0  0  0  0  0  0  0  0
  -27.4822  -27.9329   21.0929 C   0  0  0  0  0  0  0  0  0  0  0  0
  -26.2742  -26.0736   20.1332 C   0  0  0  0  0  0  0  0  0  0  0  0
  -23.0907  -20.5002   20.4495 C   0  0  0  0  0  0  0  0  0  0  0  0
  -29.7378  -25.5189   21.8065 C   0  0  0  0  0  0  0  0  0  0  0  0
  -30.8653  -25.4970   22.6272 C   0  0  0  0  0  0  0  0  0  0  0  0
  -25.0494  -20.8617   21.8104 C   0  0  0  0  0  0  0  0  0  0  0  0
  -32.0183  -26.9532   21.0821 C   0  0  0  0  0  0  0  0  0  0  0  0
  -25.0975  -27.7390   21.4289 C   0  0  0  0  0  0  0  0  0  0  0  0
  -22.9671  -29.1417   21.3905 C   0  0  0  0  0  0  0  0  0  0  0  0
  -24.0760  -12.6671   20.1088 C   0  0  0  0  0  0  0  0  0  0  0  0
  -25.1159  -19.2309   20.0227 C   0  0  0  0  0  0  0  0  0  0  0  0
  -24.1175  -13.9178   20.7541 C   0  0  0  0  0  0  0  0  0  0  0  0
  -25.7594  -19.9029   21.0717 C   0  0  0  0  0  0  0  0  0  0  0  0
  -27.4718  -26.7580   20.3411 C   0  0  0  0  0  0  0  0  0  0  0  0
  -23.7218  -21.1572   21.5017 C   0  0  0  0  0  0  0  0  0  0  0  0
  -29.7504  -26.2578   20.6235 C   0  0  0  0  0  0  0  0  0  0  0  0
  -32.0056  -26.2141   22.2651 C   0  0  0  0  0  0  0  0  0  0  0  0
  -30.8907  -26.9750   20.2613 C   0  0  0  0  0  0  0  0  0  0  0  0
  -23.8710  -28.2449   21.9909 C   0  0  0  0  0  0  0  0  0  0  0  0
  -21.9733  -29.3043   22.3245 C   0  0  0  0  0  0  0  0  0  0  0  0
  -23.0211  -29.7715   20.1036 C   0  0  0  0  0  0  0  0  0  0  0  0
  -26.6388  -16.6095   20.9782 C   0  0  0  0  0  0  0  0  0  0  0  0
  -29.2700  -18.4653   20.5843 C   0  0  0  0  0  0  0  0  0  0  0  0
  -19.0522  -25.7854   26.0484 C   0  0  0  0  0  0  0  0  0  0  0  0
  -30.6097  -21.6012   20.4484 C   0  0  0  0  0  0  0  0  0  0  0  0
  -25.2924  -11.7799   20.0193 C   0  0  0  0  0  0  0  0  0  0  0  0
  -25.8597  -18.2162   19.1984 C   0  0  0  0  0  0  0  0  0  0  0  0
  -27.1931  -19.6180   21.4348 C   0  0  0  0  0  0  0  0  0  0  0  0
  -26.6043  -12.5173   20.2754 C   0  0  0  0  0  0  0  0  0  0  0  0
  -21.7219  -27.9526   27.1979 C   0  0  0  0  0  0  0  0  0  0  0  0
  -26.4859  -13.4041   21.5108 C   0  0  0  0  0  0  0  0  0  0  0  0
  -22.4980  -28.0910   25.8840 C   0  0  0  0  0  0  0  0  0  0  0  0
  -20.2218  -27.7406   27.0086 C   0  0  0  0  0  0  0  0  0  0  0  0
  -20.5233  -27.2216   24.5852 C   0  0  0  0  0  0  0  0  0  0  0  0
  -25.4057  -14.4756   21.3194 C   0  0  1  0  0  0  0  0  0  0  0  0
  -27.0502  -17.6068   19.9323 C   0  0  1  0  0  0  0  0  0  0  0  0
  -21.5691  -28.3459   24.6883 C   0  0  2  0  0  0  0  0  0  0  0  0
  -32.7949  -22.7986   20.1510 C   0  0  0  0  0  0  0  0  0  0  0  0
  -20.7415  -24.2274   25.6471 C   0  0  0  0  0  0  0  0  0  0  0  0
  -18.3962  -23.4385   25.6723 C   0  0  0  0  0  0  0  0  0  0  0  0
  -30.0467  -17.7540   23.4480 C   0  0  0  0  0  0  0  0  0  0  0  0
  -31.6564  -19.6712   23.4137 C   0  0  0  0  0  0  0  0  0  0  0  0
  -31.9491  -17.7707   21.8247 C   0  0  0  0  0  0  0  0  0  0  0  0
  -17.9126  -26.9697   22.2974 C   0  0  0  0  0  0  0  0  0  0  0  0
  -16.6103  -24.9071   22.7290 C   0  0  0  0  0  0  0  0  0  0  0  0
  -17.0990  -26.3739   24.6001 C   0  0  0  0  0  0  0  0  0  0  0  0
  -19.6192  -24.3784   21.0563 C   0  0  0  0  0  0  0  0  0  0  0  0
  -18.6750  -22.6235   22.5139 C   0  0  0  0  0  0  0  0  0  0  0  0
  -29.6604  -22.9682   18.0011 C   0  0  0  0  0  0  0  0  0  0  0  0
  -21.6900  -22.3440   21.8472 C   0  0  0  0  0  0  0  0  0  1  0  0
  -30.0556  -19.4070   21.4647 C   0  0  1  0  0  0  0  0  0  0  0  0
  -31.5587  -22.2490   19.4563 C   0  0  2  0  0  0  0  0  0  0  0  0
  -19.1338  -24.9880   23.6210 C   0  0  2  0  0  0  0  0  0  0  0  0
  -21.0876  -23.3932   22.7867 C   0  0  2  0  0  0  0  0  0  0  0  0
  -19.3119  -24.5741   25.1854 C   0  0  0  0  0  0  0  0  0  0  0  0
  -30.8993  -18.6549   22.5324 C   0  0  0  0  0  0  0  0  0  0  0  0
  -17.7426  -25.8089   23.2979 C   0  0  0  0  0  0  0  0  0  0  0  0
  -19.6048  -23.8538   22.5129 C   0  0  0  0  0  0  0  0  0  0  0  0
  -23.4856  -27.8644   23.2118 N   0  0  0  0  0  0  0  0  0  0  0  0
  -22.3286  -28.5255   23.3863 N   0  0  0  0  0  0  0  0  0  0  0  0
  -27.8759  -18.6131   20.6032 N   0  0  0  0  0  0  0  0  0  0  0  0
  -19.9297  -26.8596   25.8801 N   0  0  0  0  0  0  0  0  0  0  0  0
  -20.8389  -30.0360   22.3328 N   0  0  0  0  0  0  0  0  0  0  0  0
  -24.1125  -29.4941   19.2692 N   0  0  0  0  0  0  0  0  0  0  0  0
  -25.9015  -15.5497   20.4857 N   0  0  0  0  0  0  0  0  0  0  0  0
  -30.8402  -20.2469   20.5661 N   0  0  0  0  0  0  0  0  0  0  0  0
  -30.8804  -23.3705   18.7471 N   0  3  0  0  0  0  0  0  0  0  0  0
  -22.1362  -30.5697   19.7120 O   0  0  0  0  0  0  0  0  0  0  0  0
  -26.9673  -16.7876   22.1453 O   0  0  0  0  0  0  0  0  0  0  0  0
  -29.8716  -17.6342   19.8995 O   0  0  0  0  0  0  0  0  0  0  0  0
  -18.1112  -25.7736   26.8452 O   0  0  0  0  0  0  0  0  0  0  0  0
  -29.7522  -22.2340   21.0606 O   0  0  0  0  0  0  0  0  0  0  0  0
  -28.6299  -26.2792   19.8101 O   0  0  0  0  0  0  0  0  0  0  0  0
  -23.0424  -22.0956   22.2293 O   0  0  0  0  0  0  0  0  0  1  0  0
  -33.0878  -26.1943   23.0542 F   0  0  0  0  0  0  0  0  0  0  0  0
  -30.9084  -27.6877   19.1266 F   0  0  0  0  0  0  0  0  0  0  0  0
  -21.8950  -24.4963   22.7014 F   0  0  0  0  0  0  0  0  0  0  0  0
  1  2  1  0  0  0  0
  1  5  2  0  0  0  0
  2  6  2  0  0  0  0
  3  8  2  0  0  0  0
  3 15  1  0  0  0  0
  4  9  1  0  0  0  0
  4 15  2  0  0  0  0
  5 17  1  0  0  0  0
  6 19  1  0  0  0  0
  7 10  2  0  0  0  0
  7 18  1  0  0  0  0
  8 21  1  0  0  0  0
  9 21  2  0  0  0  0
 10 22  1  0  0  0  0
 11 12  2  0  0  0  0
 11 23  1  0  0  0  0
 12 24  1  0  0  0  0
 13 20  1  0  0  0  0
 13 22  2  0  0  0  0
 14 24  2  0  0  0  0
 14 25  1  0  0  0  0
 15 26  1  0  0  0  0
 16 26  1  0  0  0  0
 16 27  2  0  0  0  0
 16 28  1  0  0  0  0
 17 19  2  0  0  0  0
 17 33  1  0  0  0  0
 18 20  2  0  0  0  0
 18 34  1  0  0  0  0
 19 42  1  0  0  0  0
 20 35  1  0  0  0  0
 21 80  1  0  0  0  0
 22 81  1  0  0  0  0
 23 25  2  0  0  0  0
 23 80  1  0  0  0  0
 24 82  1  0  0  0  0
 25 83  1  0  0  0  0
 26 66  2  0  0  0  0
 27 67  1  0  0  0  0
 27 70  1  0  0  0  0
 28 71  1  0  0  0  0
 28 75  2  0  0  0  0
 29 43  1  0  0  0  0
 29 72  1  0  0  0  0
 29 76  2  0  0  0  0
 30 58  1  0  0  0  0
 30 68  1  0  0  0  0
 30 77  2  0  0  0  0
 31 62  1  0  0  0  0
 31 69  1  0  0  0  0
 31 78  2  0  0  0  0
 32 59  1  0  0  0  0
 32 73  1  0  0  0  0
 32 79  2  0  0  0  0
 33 36  1  0  0  0  0
 34 43  1  0  0  0  0
 35 68  1  0  0  0  0
 36 38  1  0  0  0  0
 37 39  1  0  0  0  0
 37 40  1  0  0  0  0
 38 42  1  0  0  0  0
 39 44  1  0  0  0  0
 40 69  1  0  0  0  0
 41 44  1  0  0  0  0
 41 69  1  0  0  0  0
 42 72  1  0  0  0  0
 43 68  1  0  0  0  0
 44 67  1  0  0  0  0
 45 59  1  0  0  0  0
 46 62  1  0  0  0  0
 47 62  1  0  0  0  0
 48 63  1  0  0  0  0
 49 63  1  0  0  0  0
 50 63  1  0  0  0  0
 51 64  1  0  0  0  0
 52 64  1  0  0  0  0
 53 64  1  0  0  0  0
 54 65  1  0  0  0  0
 55 65  1  0  0  0  0
 56 74  1  0  0  0  0
 57 61  1  0  0  0  0
 57 81  1  0  0  0  0
 58 63  1  0  0  0  0
 58 73  1  0  0  0  0
 59 74  1  0  0  0  0
 60 62  1  0  0  0  0
 60 64  1  0  0  0  0
 60 65  1  0  0  0  0
 61 65  1  0  0  0  0
 61 84  1  0  0  0  0
 66 67  1  0  0  0  0
M  CHG  1  74   1
M  ISO  4  31 100  57 101  62 100  81 101
M  END
> <Batch ID>
0050

> <Smiles>
CNC(C)C(=O)NC(C(=O)N1Cc2cc([101O:1][101CH2:1]C(F)C(C)(C)C(C(C)(C)C)[100C:0](C)(C)[100C:0](=O)N3CCCC(n4nc(-c5ccc(Oc6ccc(F)cc6F)cc5)c(C(N)=O)c4N)C3)ccc2CC1C(=O)NC1CCCc2ccccc21)C(C)(C)C

> <Shape>
0.213

> <Color>
0.078

> <Negative vol penalty>
0.000

$$$$

  -OEChem-04052317313D

 84 92  0     1  0  0  0  0  0999 V2000
  -30.7559  -11.3314   22.6544 C   0  0  0  0  0  0  0  0  0  0  0  0
  -31.2450  -12.6304   22.7494 C   0  0  0  0  0  0  0  0  0  0  0  0
  -23.7197  -28.6667   23.3178 C   0  0  0  0  0  0  0  0  0  0  0  0
  -22.4701  -28.7504   21.2517 C   0  0  0  0  0  0  0  0  0  0  0  0
  -29.8660  -10.9956   21.6350 C   0  0  0  0  0  0  0  0  0  0  0  0
  -30.8453  -13.5940   21.8241 C   0  0  0  0  0  0  0  0  0  0  0  0
  -29.5150  -20.6131   21.2955 C   0  0  0  0  0  0  0  0  0  0  0  0
  -22.6483  -29.2552   23.9896 C   0  0  0  0  0  0  0  0  0  0  0  0
  -21.3987  -29.3389   21.9235 C   0  0  0  0  0  0  0  0  0  0  0  0
  -29.8615  -21.7197   20.5215 C   0  0  0  0  0  0  0  0  0  0  0  0
  -18.8709  -28.3426   23.9331 C   0  0  0  0  0  0  0  0  0  0  0  0
  -17.5925  -27.8533   23.6653 C   0  0  0  0  0  0  0  0  0  0  0  0
  -28.2584  -21.0448   18.8500 C   0  0  0  0  0  0  0  0  0  0  0  0
  -16.9164  -30.0413   22.8954 C   0  0  0  0  0  0  0  0  0  0  0  0
  -30.5448  -25.1279   16.8355 C   0  0  0  0  0  0  0  0  0  0  0  0
  -23.6306  -28.4143   21.9488 C   0  0  0  0  0  0  0  0  0  0  0  0
  -24.9669  -26.4317   21.0593 C   0  0  0  0  0  0  0  0  0  0  0  0
  -29.4477  -11.9580   20.7026 C   0  0  0  0  0  0  0  0  0  0  0  0
  -28.5438  -19.7066   20.8468 C   0  0  0  0  0  0  0  0  0  0  0  0
  -29.9500  -13.2704   20.7905 C   0  0  0  0  0  0  0  0  0  0  0  0
  -27.8996  -19.9289   19.6214 C   0  0  0  0  0  0  0  0  0  0  0  0
  -21.4878  -29.5913   23.2925 C   0  0  0  0  0  0  0  0  0  0  0  0
  -29.2352  -21.9341   19.2971 C   0  0  0  0  0  0  0  0  0  0  0  0
  -19.1721  -29.6813   23.6821 C   0  0  0  0  0  0  0  0  0  0  0  0
  -16.6152  -28.7026   23.1464 C   0  0  0  0  0  0  0  0  0  0  0  0
  -18.1949  -30.5306   23.1632 C   0  0  0  0  0  0  0  0  0  0  0  0
  -24.7372  -27.8069   21.2541 C   0  0  0  0  0  0  0  0  0  0  0  0
  -29.4177  -24.3921   16.6005 C   0  0  0  0  0  0  0  0  0  0  0  0
  -26.1399  -26.3771   20.3467 C   0  0  0  0  0  0  0  0  0  0  0  0
  -29.4742  -26.0443   15.1283 C   0  0  0  0  0  0  0  0  0  0  0  0
  -24.1895  -25.3044   21.4843 C   0  0  0  0  0  0  0  0  0  0  0  0
  -28.5310  -16.6140   20.1123 C   0  0  0  0  0  0  0  0  0  0  0  0
  -25.3369  -17.0964   19.8169 C   0  0  0  0  0  0  0  0  0  0  0  0
  -22.7768  -19.2814   19.2525 C   0  0  0  0  0  0  0  0  0  0  0  0
  -28.6835  -30.7271   16.8616 C   0  0  0  0  0  0  0  0  0  0  0  0
  -28.5211  -11.5361   19.5899 C   0  0  0  0  0  0  0  0  0  0  0  0
  -28.1623  -18.5324   21.7060 C   0  0  0  0  0  0  0  0  0  0  0  0
  -26.8359  -18.9965   19.1040 C   0  0  0  0  0  0  0  0  0  0  0  0
  -27.8562  -12.7087   18.8734 C   0  0  0  0  0  0  0  0  0  0  0  0
  -30.2062  -28.7783   19.6158 C   0  0  0  0  0  0  0  0  0  0  0  0
  -28.8848  -13.7859   18.5443 C   0  0  0  0  0  0  0  0  0  0  0  0
  -28.9842  -28.2542   20.3682 C   0  0  0  0  0  0  0  0  0  0  0  0
  -29.9131  -30.0971   18.9068 C   0  0  0  0  0  0  0  0  0  0  0  0
  -27.5139  -29.5195   18.7502 C   0  0  0  0  0  0  0  0  0  0  0  0
  -29.5207  -14.3499   19.8206 C   0  0  1  0  0  0  0  0  0  0  0  0
  -27.5273  -17.3936   20.9138 C   0  0  1  0  0  0  0  0  0  0  0  0
  -27.7621  -28.1683   19.4374 C   0  0  2  0  0  0  0  0  0  0  0  0
  -20.2787  -19.3746   19.0332 C   0  0  0  0  0  0  0  0  0  0  0  0
  -27.7088  -24.0969   13.4927 C   0  0  0  0  0  0  0  0  0  0  0  0
  -26.4151  -25.5685   15.0949 C   0  0  0  0  0  0  0  0  0  0  0  0
  -25.5397  -15.8892   17.0220 C   0  0  0  0  0  0  0  0  0  0  0  0
  -23.2894  -16.8622   16.5142 C   0  0  0  0  0  0  0  0  0  0  0  0
  -23.5328  -15.1664   18.3275 C   0  0  0  0  0  0  0  0  0  0  0  0
  -27.3221  -31.0708   14.8348 C   0  0  0  0  0  0  0  0  0  0  0  0
  -22.5265  -21.1165   21.5609 C   0  0  0  0  0  0  0  0  0  0  0  0
  -28.8904  -23.1715   17.2957 C   0  0  0  0  0  0  0  0  0  1  0  0
  -29.1324  -26.9594   14.0111 C   0  0  0  0  0  0  0  0  0  0  0  0
  -29.0455  -28.4511   14.4022 C   0  0  0  0  0  0  0  0  0  0  0  0
  -27.9645  -28.7656   15.4340 C   0  0  0  0  0  0  0  0  0  0  0  0
  -24.4172  -17.5067   18.6923 C   0  0  1  0  0  0  0  0  0  0  0  0
  -21.4625  -19.5025   19.9792 C   0  0  2  0  0  0  0  0  0  0  0  0
  -27.5283  -24.5293   14.9492 C   0  0  0  0  0  0  0  0  0  0  0  0
  -24.2161  -16.3728   17.6475 C   0  0  0  0  0  0  0  0  0  0  0  0
  -25.6880  -28.5707   20.7095 N   0  0  0  0  0  0  0  0  0  0  0  0
  -28.7742  -24.9820   15.5393 N   0  0  0  0  0  0  0  0  0  0  0  0
  -26.5265  -27.6724   20.1654 N   0  0  0  0  0  0  0  0  0  0  0  0
  -30.5543  -26.1434   15.9098 N   0  3  0  0  0  0  0  0  0  0  0  0
  -26.5022  -17.8593   19.9776 N   0  0  0  0  0  0  0  0  0  0  0  0
  -28.7219  -29.9997   18.0626 N   0  0  0  0  0  0  0  0  0  0  0  0
  -26.8679  -25.3480   19.8638 N   0  0  0  0  0  0  0  0  0  0  0  0
  -23.0118  -25.5393   22.2069 N   0  0  0  0  0  0  0  0  0  0  0  0
  -28.6197  -15.2810   20.4653 N   0  0  0  0  0  0  0  0  0  0  0  0
  -23.1832  -17.9656   19.3209 N   0  0  0  0  0  0  0  0  0  0  0  0
  -27.9405  -30.1788   15.8052 N   0  0  0  0  0  0  0  0  0  0  0  0
  -21.4309  -20.8612   20.5907 N   0  3  0  0  0  0  0  0  0  0  0  0
  -24.5378  -24.1234   21.2449 O   0  0  0  0  0  0  0  0  0  0  0  0
  -29.1761  -17.1796   19.2373 O   0  0  0  0  0  0  0  0  0  0  0  0
  -25.0291  -16.1389   20.5311 O   0  0  0  0  0  0  0  0  0  0  0  0
  -23.3806  -20.1849   18.6782 O   0  0  0  0  0  0  0  0  0  0  0  0
  -29.2872  -31.8005   16.7375 O   0  0  0  0  0  0  0  0  0  0  0  0
  -20.4421  -30.1654   23.9478 O   0  0  0  0  0  0  0  0  0  0  0  0
  -29.5720  -23.0131   18.5393 O   0  0  0  0  0  0  0  0  0  1  0  0
  -15.3880  -28.2323   22.8879 F   0  0  0  0  0  0  0  0  0  0  0  0
  -18.4786  -31.8173   22.9189 F   0  0  0  0  0  0  0  0  0  0  0  0
  1  2  1  0  0  0  0
  1  5  2  0  0  0  0
  2  6  2  0  0  0  0
  3  8  2  0  0  0  0
  3 16  1  0  0  0  0
  4  9  1  0  0  0  0
  4 16  2  0  0  0  0
  5 18  1  0  0  0  0
  6 20  1  0  0  0  0
  7 10  2  0  0  0  0
  7 19  1  0  0  0  0
  8 22  1  0  0  0  0
  9 22  2  0  0  0  0
 10 23  1  0  0  0  0
 11 12  2  0  0  0  0
 11 24  1  0  0  0  0
 12 25  1  0  0  0  0
 13 21  1  0  0  0  0
 13 23  2  0  0  0  0
 14 25  2  0  0  0  0
 14 26  1  0  0  0  0
 15 28  2  0  0  0  0
 15 67  1  0  0  0  0
 16 27  1  0  0  0  0
 17 27  1  0  0  0  0
 17 29  2  0  0  0  0
 17 31  1  0  0  0  0
 18 20  2  0  0  0  0
 18 36  1  0  0  0  0
 19 21  2  0  0  0  0
 19 37  1  0  0  0  0
 20 45  1  0  0  0  0
 21 38  1  0  0  0  0
 22 81  1  0  0  0  0
 23 82  1  0  0  0  0
 24 26  2  0  0  0  0
 24 81  1  0  0  0  0
 25 83  1  0  0  0  0
 26 84  1  0  0  0  0
 27 64  2  0  0  0  0
 28 56  1  0  0  0  0
 28 65  1  0  0  0  0
 29 66  1  0  0  0  0
 29 70  1  0  0  0  0
 30 57  1  0  0  0  0
 30 65  1  0  0  0  0
 30 67  2  0  0  0  0
 31 71  1  0  0  0  0
 31 76  2  0  0  0  0
 32 46  1  0  0  0  0
 32 72  1  0  0  0  0
 32 77  2  0  0  0  0
 33 60  1  0  0  0  0
 33 68  1  0  0  0  0
 33 78  2  0  0  0  0
 34 61  1  0  0  0  0
 34 73  1  0  0  0  0
 34 79  2  0  0  0  0
 35 69  1  0  0  0  0
 35 74  1  0  0  0  0
 35 80  2  0  0  0  0
 36 39  1  0  0  0  0
 37 46  1  0  0  0  0
 38 68  1  0  0  0  0
 39 41  1  0  0  0  0
 40 42  1  0  0  0  0
 40 43  1  0  0  0  0
 41 45  1  0  0  0  0
 42 47  1  0  0  0  0
 43 69  1  0  0  0  0
 44 47  1  0  0  0  0
 44 69  1  0  0  0  0
 45 72  1  0  0  0  0
 46 68  1  0  0  0  0
 47 66  1  0  0  0  0
 48 61  1  0  0  0  0
 49 62  1  0  0  0  0
 50 62  1  0  0  0  0
 51 63  1  0  0  0  0
 52 63  1  0  0  0  0
 53 63  1  0  0  0  0
 54 74  1  0  0  0  0
 55 75  1  0  0  0  0
 56 82  1  0  0  0  0
 57 58  1  0  0  0  0
 58 59  1  0  0  0  0
 59 74  1  0  0  0  0
 60 63  1  0  0  0  0
 60 73  1  0  0  0  0
 61 75  1  0  0  0  0
 62 65  1  0  0  0  0
 64 66  1  0  0  0  0
M  CHG  2  67   1  75   1
M  ISO  4  35 100  56 101  74 100  82 101
M  END
> <Batch ID>
0050

> <Smiles>
CNC(C)C(=O)NC(C(=O)N1Cc2cc([101O:1][101CH2:1]c3cnc(CCC[100N:0](C)[100C:0](=O)N4CCCC(n5nc(-c6ccc(Oc7ccc(F)cc7F)cc6)c(C(N)=O)c5N)C4)n3C(C)C)ccc2CC1C(=O)NC1CCCc2ccccc21)C(C)(C)C

> <Shape>
0.208

> <Color>
0.063

> <Negative vol penalty>
0.000

$$$$

  -OEChem-04052317313D

 88 96  0     1  0  0  0  0  0999 V2000
  -20.6196  -10.6216   18.0686 C   0  0  0  0  0  0  0  0  0  0  0  0
  -20.7949  -11.9963   17.9456 C   0  0  0  0  0  0  0  0  0  0  0  0
  -19.4597  -28.5256   23.7343 C   0  0  0  0  0  0  0  0  0  0  0  0
  -19.4008  -27.3435   21.6281 C   0  0  0  0  0  0  0  0  0  0  0  0
  -21.4306   -9.8915   18.9364 C   0  0  0  0  0  0  0  0  0  0  0  0
  -21.7806  -12.6418   18.6913 C   0  0  0  0  0  0  0  0  0  0  0  0
  -26.3463  -18.1498   18.3276 C   0  0  0  0  0  0  0  0  0  0  0  0
  -28.0568  -23.7801   23.3314 C   0  0  0  0  0  0  0  0  0  0  0  0
  -18.0732  -28.6714   23.6913 C   0  0  0  0  0  0  0  0  0  0  0  0
  -18.0143  -27.4892   21.5851 C   0  0  0  0  0  0  0  0  0  0  0  0
  -26.7290  -19.2809   19.0474 C   0  0  0  0  0  0  0  0  0  0  0  0
  -15.8249  -30.6537   22.1293 C   0  0  0  0  0  0  0  0  0  0  0  0
  -15.2956  -31.9056   22.4428 C   0  0  0  0  0  0  0  0  0  0  0  0
  -27.5246  -22.7508   22.5630 C   0  0  0  0  0  0  0  0  0  0  0  0
  -28.1235  -17.9055   20.4555 C   0  0  0  0  0  0  0  0  0  0  0  0
  -14.0576  -30.9243   24.2709 C   0  0  0  0  0  0  0  0  0  0  0  0
  -29.4166  -24.3906   21.4781 C   0  0  0  0  0  0  0  0  0  0  0  0
  -20.1236  -27.8617   22.7027 C   0  0  0  0  0  0  0  0  0  0  0  0
  -22.2822  -26.6510   23.3209 C   0  0  0  0  0  0  0  0  0  0  0  0
  -22.4332  -10.5269   19.6859 C   0  0  0  0  0  0  0  0  0  0  0  0
  -26.8416  -16.8845   18.6739 C   0  0  0  0  0  0  0  0  0  0  0  0
  -22.6049  -11.9197   19.5710 C   0  0  0  0  0  0  0  0  0  0  0  0
  -27.7475  -16.7603   19.7370 C   0  0  0  0  0  0  0  0  0  0  0  0
  -29.0213  -24.6202   22.7861 C   0  0  0  0  0  0  0  0  0  0  0  0
  -17.3505  -28.1532   22.6167 C   0  0  0  0  0  0  0  0  0  0  0  0
  -27.6155  -19.1584   20.1133 C   0  0  0  0  0  0  0  0  0  0  0  0
  -15.4705  -29.5371   22.8866 C   0  0  0  0  0  0  0  0  0  0  0  0
  -14.4120  -32.0409   23.5136 C   0  0  0  0  0  0  0  0  0  0  0  0
  -14.5869  -29.6725   23.9573 C   0  0  0  0  0  0  0  0  0  0  0  0
  -21.5559  -27.7112   22.7463 C   0  0  0  0  0  0  0  0  0  0  0  0
  -27.9868  -22.6050   21.2649 C   0  0  0  0  0  0  0  0  0  0  0  0
  -23.5981  -26.9769   23.1002 C   0  0  0  0  0  0  0  0  0  0  0  0
  -21.8097  -25.4764   23.9939 C   0  0  0  0  0  0  0  0  0  0  0  0
  -25.5397  -14.1623   19.6731 C   0  0  0  0  0  0  0  0  0  0  0  0
  -28.5669  -13.0456   19.3402 C   0  0  0  0  0  0  0  0  0  0  0  0
  -31.9097  -13.7244   19.2300 C   0  0  0  0  0  0  0  0  0  0  0  0
  -27.3964  -28.7896   19.2786 C   0  0  0  0  0  0  0  0  0  0  0  0
  -23.2539   -9.7030   20.6462 C   0  0  0  0  0  0  0  0  0  0  0  0
  -26.4398  -15.6779   17.8707 C   0  0  0  0  0  0  0  0  0  0  0  0
  -28.3239  -15.4273   20.1362 C   0  0  0  0  0  0  0  0  0  0  0  0
  -24.5235  -10.4054   21.1205 C   0  0  0  0  0  0  0  0  0  0  0  0
  -25.7188  -31.2585   21.4677 C   0  0  0  0  0  0  0  0  0  0  0  0
  -24.2172  -11.8423   21.5307 C   0  0  0  0  0  0  0  0  0  0  0  0
  -24.5084  -30.4804   21.9809 C   0  0  0  0  0  0  0  0  0  0  0  0
  -26.1673  -30.7685   20.0942 C   0  0  0  0  0  0  0  0  0  0  0  0
  -25.2253  -28.5277   20.5479 C   0  0  0  0  0  0  0  0  0  0  0  0
  -23.6798  -12.6521   20.3445 C   0  0  1  0  0  0  0  0  0  0  0  0
  -26.6066  -14.3684   18.6354 C   0  0  1  0  0  0  0  0  0  0  0  0
  -24.7767  -28.9657   21.9502 C   0  0  2  0  0  0  0  0  0  0  0  0
  -26.5497  -28.3058   23.9481 C   0  0  0  0  0  0  0  0  0  0  0  0
  -29.7341  -27.9669   25.9047 C   0  0  0  0  0  0  0  0  0  0  0  0
  -34.1406  -12.6020   18.9840 C   0  0  0  0  0  0  0  0  0  0  0  0
  -28.3887  -12.0646   22.2239 C   0  0  0  0  0  0  0  0  0  0  0  0
  -30.8813  -11.8306   22.2250 C   0  0  0  0  0  0  0  0  0  0  0  0
  -29.5037  -10.4746   20.6482 C   0  0  0  0  0  0  0  0  0  0  0  0
  -29.0862  -27.0281   18.9308 C   0  0  0  0  0  0  0  0  0  0  0  0
  -32.5241  -15.2291   16.7567 C   0  0  0  0  0  0  0  0  0  0  0  0
  -27.4373  -21.5112   20.4115 C   0  0  0  0  0  0  0  0  0  1  0  0
  -27.3974  -27.0383   24.0028 C   0  0  0  0  0  0  0  0  0  0  0  0
  -29.6348  -28.2279   24.4036 C   0  0  0  0  0  0  0  0  0  0  0  0
  -28.9243  -27.6116   22.0078 C   0  0  0  0  0  0  0  0  0  0  0  0
  -27.8550  -27.0606   21.0683 C   0  0  0  0  0  0  0  0  0  0  0  0
  -29.6246  -25.7572   23.6018 C   0  0  2  0  0  0  0  0  0  0  0  0
  -29.7775  -12.9542   20.2375 C   0  0  1  0  0  0  0  0  0  0  0  0
  -32.9941  -13.2908   18.2603 C   0  0  2  0  0  0  0  0  0  0  0  0
  -29.6256  -11.8560   21.3276 C   0  0  0  0  0  0  0  0  0  0  0  0
  -28.8821  -27.1712   23.5175 C   0  0  0  0  0  0  0  0  0  0  0  0
  -28.9224  -23.4012   20.7007 N   0  0  0  0  0  0  0  0  0  0  0  0
  -22.3449  -28.6412   22.2017 N   0  0  0  0  0  0  0  0  0  0  0  0
  -23.5807  -28.1664   22.4331 N   0  0  0  0  0  0  0  0  0  0  0  0
  -27.8956  -14.2763   19.3242 N   0  0  0  0  0  0  0  0  0  0  0  0
  -26.3734  -29.3198   20.0819 N   0  0  0  0  0  0  0  0  0  0  0  0
  -24.7568  -26.3592   23.4137 N   0  0  0  0  0  0  0  0  0  0  0  0
  -20.4267  -25.2975   24.1338 N   0  0  0  0  0  0  0  0  0  0  0  0
  -24.7620  -13.0392   19.4651 N   0  0  0  0  0  0  0  0  0  0  0  0
  -30.9253  -12.7671   19.3567 N   0  0  0  0  0  0  0  0  0  0  0  0
  -28.0124  -27.6101   19.7234 N   0  0  0  0  0  0  0  0  0  0  0  0
  -31.0985  -25.9034   23.3370 N   0  3  0  0  0  0  0  0  0  0  0  0
  -33.5396  -14.4709   17.5318 N   0  3  0  0  0  0  0  0  0  0  0  0
  -22.5911  -24.6194   24.4718 O   0  0  0  0  0  0  0  0  0  0  0  0
  -25.4310  -14.9622   20.5951 O   0  0  0  0  0  0  0  0  0  0  0  0
  -28.2336  -12.0634   18.6725 O   0  0  0  0  0  0  0  0  0  0  0  0
  -31.9352  -14.8026   19.8192 O   0  0  0  0  0  0  0  0  0  0  0  0
  -27.7460  -29.3445   18.2290 O   0  0  0  0  0  0  0  0  0  0  0  0
  -15.9974  -28.2951   22.5745 O   0  0  0  0  0  0  0  0  0  0  0  0
  -27.9928  -20.2684   20.8228 O   0  0  0  0  0  0  0  0  0  1  0  0
  -13.9050  -33.2434   23.8155 F   0  0  0  0  0  0  0  0  0  0  0  0
  -14.2437  -28.6036   24.6892 F   0  0  0  0  0  0  0  0  0  0  0  0
  1  2  1  0  0  0  0
  1  5  2  0  0  0  0
  2  6  2  0  0  0  0
  3  9  2  0  0  0  0
  3 18  1  0  0  0  0
  4 10  1  0  0  0  0
  4 18  2  0  0  0  0
  5 20  1  0  0  0  0
  6 22  1  0  0  0  0
  7 11  2  0  0  0  0
  7 21  1  0  0  0  0
  8 14  2  0  0  0  0
  8 24  1  0  0  0  0
  9 25  1  0  0  0  0
 10 25  2  0  0  0  0
 11 26  1  0  0  0  0
 12 13  2  0  0  0  0
 12 27  1  0  0  0  0
 13 28  1  0  0  0  0
 14 31  1  0  0  0  0
 15 23  1  0  0  0  0
 15 26  2  0  0  0  0
 16 28  2  0  0  0  0
 16 29  1  0  0  0  0
 17 24  2  0  0  0  0
 17 68  1  0  0  0  0
 18 30  1  0  0  0  0
 19 30  1  0  0  0  0
 19 32  2  0  0  0  0
 19 33  1  0  0  0  0
 20 22  2  0  0  0  0
 20 38  1  0  0  0  0
 21 23  2  0  0  0  0
 21 39  1  0  0  0  0
 22 47  1  0  0  0  0
 23 40  1  0  0  0  0
 24 63  1  0  0  0  0
 25 85  1  0  0  0  0
 26 86  1  0  0  0  0
 27 29  2  0  0  0  0
 27 85  1  0  0  0  0
 28 87  1  0  0  0  0
 29 88  1  0  0  0  0
 30 69  2  0  0  0  0
 31 58  1  0  0  0  0
 31 68  2  0  0  0  0
 32 70  1  0  0  0  0
 32 73  1  0  0  0  0
 33 74  1  0  0  0  0
 33 80  2  0  0  0  0
 34 48  1  0  0  0  0
 34 75  1  0  0  0  0
 34 81  2  0  0  0  0
 35 64  1  0  0  0  0
 35 71  1  0  0  0  0
 35 82  2  0  0  0  0
 36 65  1  0  0  0  0
 36 76  1  0  0  0  0
 36 83  2  0  0  0  0
 37 72  1  0  0  0  0
 37 77  1  0  0  0  0
 37 84  2  0  0  0  0
 38 41  1  0  0  0  0
 39 48  1  0  0  0  0
 40 71  1  0  0  0  0
 41 43  1  0  0  0  0
 42 44  1  0  0  0  0
 42 45  1  0  0  0  0
 43 47  1  0  0  0  0
 44 49  1  0  0  0  0
 45 72  1  0  0  0  0
 46 49  1  0  0  0  0
 46 72  1  0  0  0  0
 47 75  1  0  0  0  0
 48 71  1  0  0  0  0
 49 70  1  0  0  0  0
 50 59  1  0  0  0  0
 51 60  1  0  0  0  0
 52 65  1  0  0  0  0
 53 66  1  0  0  0  0
 54 66  1  0  0  0  0
 55 66  1  0  0  0  0
 56 77  1  0  0  0  0
 57 79  1  0  0  0  0
 58 86  1  0  0  0  0
 59 67  1  0  0  0  0
 60 67  1  0  0  0  0
 61 62  1  0  0  0  0
 61 67  1  0  0  0  0
 62 77  1  0  0  0  0
 63 67  1  0  0  0  0
 63 78  1  0  0  0  0
 64 66  1  0  0  0  0
 64 76  1  0  0  0  0
 65 79  1  0  0  0  0
 69 70  1  0  0  0  0
M  CHG  2  78   1  79   1
M  ISO  4  37 100  58 101  77 100  86 101
M  END
> <Batch ID>
0050

> <Smiles>
CCC(CC)(CC[100N:0](C)[100C:0](=O)N1CCCC(n2nc(-c3ccc(Oc4ccc(F)cc4F)cc3)c(C(N)=O)c2N)C1)C(N)c1ccc([101CH2:1][101O:1]c2ccc3c(c2)CN(C(=O)C(NC(=O)C(C)NC)C(C)(C)C)C(C(=O)NC2CCCc4ccccc42)C3)nc1

> <Shape>
0.264

> <Color>
0.058

> <Negative vol penalty>
0.000

$$$$

  -OEChem-04052317313D

 86 94  0     1  0  0  0  0  0999 V2000
  -17.1952  -30.2865   24.1913 C   0  0  0  0  0  0  0  0  0  0  0  0
  -17.7167  -29.1617   24.8223 C   0  0  0  0  0  0  0  0  0  0  0  0
  -29.2207  -19.1164   18.5823 C   0  0  0  0  0  0  0  0  0  0  0  0
  -29.4936  -19.5669   20.9401 C   0  0  0  0  0  0  0  0  0  0  0  0
  -17.4900  -30.5321   22.8509 C   0  0  0  0  0  0  0  0  0  0  0  0
  -18.5325  -28.2810   24.1128 C   0  0  0  0  0  0  0  0  0  0  0  0
  -24.1260  -23.8973   25.0135 C   0  0  0  0  0  0  0  0  0  0  0  0
  -29.9767  -20.2485   18.2784 C   0  0  0  0  0  0  0  0  0  0  0  0
  -30.2496  -20.6990   20.6363 C   0  0  0  0  0  0  0  0  0  0  0  0
  -24.5102  -22.5784   24.7749 C   0  0  0  0  0  0  0  0  0  0  0  0
  -29.5106  -23.5938   18.1508 C   0  0  0  0  0  0  0  0  0  0  0  0
  -29.0348  -24.4404   17.1496 C   0  0  0  0  0  0  0  0  0  0  0  0
  -25.0162  -23.1463   22.4857 C   0  0  0  0  0  0  0  0  0  0  0  0
  -31.0545  -24.0703   15.8765 C   0  0  0  0  0  0  0  0  0  0  0  0
  -22.7934  -11.5876   21.5252 C   0  0  0  0  0  0  0  0  0  0  0  0
  -28.9791  -18.7756   19.9131 C   0  0  0  0  0  0  0  0  0  0  0  0
  -26.8641  -17.3504   19.8566 C   0  0  0  0  0  0  0  0  0  0  0  0
  -18.3177  -29.6592   22.1273 C   0  0  0  0  0  0  0  0  0  0  0  0
  -24.1738  -24.8496   23.9853 C   0  0  0  0  0  0  0  0  0  0  0  0
  -18.8376  -28.5144   22.7611 C   0  0  0  0  0  0  0  0  0  0  0  0
  -24.6345  -24.4771   22.7144 C   0  0  0  0  0  0  0  0  0  0  0  0
  -30.4912  -21.0398   19.3054 C   0  0  0  0  0  0  0  0  0  0  0  0
  -24.9527  -22.2021   23.5101 C   0  0  0  0  0  0  0  0  0  0  0  0
  -30.7585  -22.9854   18.0149 C   0  0  0  0  0  0  0  0  0  0  0  0
  -29.8067  -24.6787   16.0125 C   0  0  0  0  0  0  0  0  0  0  0  0
  -31.5304  -23.2236   16.8777 C   0  0  0  0  0  0  0  0  0  0  0  0
  -28.1977  -17.6066   20.2276 C   0  0  0  0  0  0  0  0  0  0  0  0
  -21.7404  -12.4485   21.7580 C   0  0  0  0  0  0  0  0  0  0  0  0
  -23.9923  -11.9385   22.1116 C   0  0  0  0  0  0  0  0  0  0  0  0
  -26.5885  -16.1175   20.3957 C   0  0  0  0  0  0  0  0  0  0  0  0
  -23.0597  -13.8010   23.0219 C   0  0  0  0  0  0  0  0  0  0  0  0
  -25.9556  -18.1549   19.0929 C   0  0  0  0  0  0  0  0  0  0  0  0
  -22.0219  -26.6583   22.5013 C   0  0  0  0  0  0  0  0  0  0  0  0
  -24.6462  -27.9392   21.0889 C   0  0  0  0  0  0  0  0  0  0  0  0
  -27.9078  -27.5659   20.1565 C   0  0  0  0  0  0  0  0  0  0  0  0
  -28.4402  -10.7869   21.0834 C   0  0  0  0  0  0  0  0  0  0  0  0
  -18.5698  -29.9410   20.6673 C   0  0  0  0  0  0  0  0  0  0  0  0
  -23.7812  -26.2742   24.2658 C   0  0  0  0  0  0  0  0  0  0  0  0
  -24.7237  -25.4660   21.5820 C   0  0  0  0  0  0  0  0  0  0  0  0
  -19.7467  -29.1586   20.0903 C   0  0  0  0  0  0  0  0  0  0  0  0
  -29.1620  -13.3007   23.7029 C   0  0  0  0  0  0  0  0  0  0  0  0
  -19.6694  -27.6933   20.5073 C   0  0  0  0  0  0  0  0  0  0  0  0
  -28.9317  -14.6212   22.9698 C   0  0  0  0  0  0  0  0  0  0  0  0
  -29.5979  -12.1916   22.7501 C   0  0  0  0  0  0  0  0  0  0  0  0
  -28.4431  -13.3063   20.8691 C   0  0  0  0  0  0  0  0  0  0  0  0
  -19.7466  -27.5489   22.0320 C   0  0  1  0  0  0  0  0  0  0  0  0
  -23.3827  -27.0426   23.0096 C   0  0  1  0  0  0  0  0  0  0  0  0
  -27.9579  -14.4330   21.7935 C   0  0  2  0  0  0  0  0  0  0  0  0
  -20.4035  -12.1520   21.1656 C   0  0  0  0  0  0  0  0  0  0  0  0
  -29.7720  -28.7702   18.9853 C   0  0  0  0  0  0  0  0  0  0  0  0
  -23.3268  -27.3605   18.3992 C   0  0  0  0  0  0  0  0  0  0  0  0
  -25.5593  -27.6841   17.3132 C   0  0  0  0  0  0  0  0  0  0  0  0
  -24.4850  -29.5727   18.5386 C   0  0  0  0  0  0  0  0  0  0  0  0
  -26.8779   -9.2450   19.9604 C   0  0  0  0  0  0  0  0  0  0  0  0
  -29.6178  -27.5082   22.5713 C   0  0  0  0  0  0  0  0  0  0  0  0
  -25.1881  -11.0674   21.9177 C   0  0  0  0  0  0  0  0  0  0  0  0
  -23.2091  -15.0420   23.8656 C   0  0  0  0  0  0  0  0  0  0  0  0
  -23.8731  -16.2131   23.1327 C   0  0  0  0  0  0  0  0  0  0  0  0
  -23.9460  -17.4869   23.9806 C   0  0  0  0  0  0  0  0  0  0  0  0
  -24.6413  -18.6168   23.2230 C   0  0  0  0  0  0  0  0  0  0  0  0
  -26.0280  -11.4425   20.6911 C   0  0  0  0  0  0  0  0  0  0  0  0
  -24.6816  -19.8998   24.0410 C   0  0  0  0  0  0  0  0  0  1  0  0
  -25.4474  -27.6347   19.8462 C   0  0  1  0  0  0  0  0  0  0  0  0
  -29.1133  -28.4732   20.3234 C   0  0  2  0  0  0  0  0  0  0  0  0
  -24.7012  -28.0437   18.5449 C   0  0  0  0  0  0  0  0  0  0  0  0
  -28.7321  -16.6161   20.9469 N   0  0  0  0  0  0  0  0  0  0  0  0
  -21.8385  -13.5683   22.5042 N   0  0  0  0  0  0  0  0  0  0  0  0
  -24.1618  -13.0422   22.8688 N   0  0  0  0  0  0  0  0  0  0  0  0
  -27.7292  -15.7256   21.0323 N   0  0  0  0  0  0  0  0  0  0  0  0
  -24.3227  -26.8455   21.9044 N   0  0  0  0  0  0  0  0  0  0  0  0
  -28.6786  -12.0633   21.6190 N   0  0  0  0  0  0  0  0  0  0  0  0
  -25.4841  -15.3413   20.3826 N   0  0  0  0  0  0  0  0  0  0  0  0
  -25.9242  -17.9893   17.7016 N   0  0  0  0  0  0  0  0  0  0  0  0
  -21.1127  -27.6987   22.4853 N   0  0  0  0  0  0  0  0  0  0  0  0
  -26.7401  -28.2871   20.0239 N   0  0  0  0  0  0  0  0  0  0  0  0
  -27.1768  -10.5562   20.5183 N   0  0  0  0  0  0  0  0  0  0  0  0
  -30.1237  -27.8338   21.2130 N   0  3  0  0  0  0  0  0  0  0  0  0
  -25.2060  -19.0073   19.6269 O   0  0  0  0  0  0  0  0  0  0  0  0
  -21.8128  -25.5035   22.1483 O   0  0  0  0  0  0  0  0  0  0  0  0
  -24.3254  -29.1054   21.3309 O   0  0  0  0  0  0  0  0  0  0  0  0
  -27.9938  -26.3399   20.1412 O   0  0  0  0  0  0  0  0  0  0  0  0
  -29.3039   -9.9010   21.1174 O   0  0  0  0  0  0  0  0  0  0  0  0
  -31.2292  -22.1445   19.0093 O   0  0  0  0  0  0  0  0  0  0  0  0
  -25.3276  -20.9154   23.2744 O   0  0  0  0  0  0  0  0  0  1  0  0
  -29.3489  -25.4905   15.0505 F   0  0  0  0  0  0  0  0  0  0  0  0
  -32.7294  -22.6411   16.7410 F   0  0  0  0  0  0  0  0  0  0  0  0
  1  2  1  0  0  0  0
  1  5  2  0  0  0  0
  2  6  2  0  0  0  0
  3  8  2  0  0  0  0
  3 16  1  0  0  0  0
  4  9  1  0  0  0  0
  4 16  2  0  0  0  0
  5 18  1  0  0  0  0
  6 20  1  0  0  0  0
  7 10  2  0  0  0  0
  7 19  1  0  0  0  0
  8 22  1  0  0  0  0
  9 22  2  0  0  0  0
 10 23  1  0  0  0  0
 11 12  2  0  0  0  0
 11 24  1  0  0  0  0
 12 25  1  0  0  0  0
 13 21  1  0  0  0  0
 13 23  2  0  0  0  0
 14 25  2  0  0  0  0
 14 26  1  0  0  0  0
 15 28  1  0  0  0  0
 15 29  2  0  0  0  0
 16 27  1  0  0  0  0
 17 27  1  0  0  0  0
 17 30  2  0  0  0  0
 17 32  1  0  0  0  0
 18 20  2  0  0  0  0
 18 37  1  0  0  0  0
 19 21  2  0  0  0  0
 19 38  1  0  0  0  0
 20 46  1  0  0  0  0
 21 39  1  0  0  0  0
 22 83  1  0  0  0  0
 23 84  1  0  0  0  0
 24 26  2  0  0  0  0
 24 83  1  0  0  0  0
 25 85  1  0  0  0  0
 26 86  1  0  0  0  0
 27 66  2  0  0  0  0
 28 49  1  0  0  0  0
 28 67  2  0  0  0  0
 29 56  1  0  0  0  0
 29 68  1  0  0  0  0
 30 69  1  0  0  0  0
 30 72  1  0  0  0  0
 31 57  1  0  0  0  0
 31 67  1  0  0  0  0
 31 68  2  0  0  0  0
 32 73  1  0  0  0  0
 32 78  2  0  0  0  0
 33 47  1  0  0  0  0
 33 74  1  0  0  0  0
 33 79  2  0  0  0  0
 34 63  1  0  0  0  0
 34 70  1  0  0  0  0
 34 80  2  0  0  0  0
 35 64  1  0  0  0  0
 35 75  1  0  0  0  0
 35 81  2  0  0  0  0
 36 71  1  0  0  0  0
 36 76  1  0  0  0  0
 36 82  2  0  0  0  0
 37 40  1  0  0  0  0
 38 47  1  0  0  0  0
 39 70  1  0  0  0  0
 40 42  1  0  0  0  0
 41 43  1  0  0  0  0
 41 44  1  0  0  0  0
 42 46  1  0  0  0  0
 43 48  1  0  0  0  0
 44 71  1  0  0  0  0
 45 48  1  0  0  0  0
 45 71  1  0  0  0  0
 46 74  1  0  0  0  0
 47 70  1  0  0  0  0
 48 69  1  0  0  0  0
 50 64  1  0  0  0  0
 51 65  1  0  0  0  0
 52 65  1  0  0  0  0
 53 65  1  0  0  0  0
 54 76  1  0  0  0  0
 55 77  1  0  0  0  0
 56 61  1  0  0  0  0
 57 58  1  0  0  0  0
 58 59  1  0  0  0  0
 59 60  1  0  0  0  0
 60 62  1  0  0  0  0
 61 76  1  0  0  0  0
 62 84  1  0  0  0  0
 63 65  1  0  0  0  0
 63 75  1  0  0  0  0
 64 77  1  0  0  0  0
 66 69  1  0  0  0  0
M  CHG  1  77   1
M  ISO  4  36 100  62 101  76 100  84 101
M  END
> <Batch ID>
0050

> <Smiles>
CNC(C)C(=O)NC(C(=O)N1Cc2cc([101O:1][101CH2:1]CCCCc3nc(C)cc(CC[100N:0](C)[100C:0](=O)N4CCCC(n5nc(-c6ccc(Oc7ccc(F)cc7F)cc6)c(C(N)=O)c5N)C4)n3)ccc2CC1C(=O)NC1CCCc2ccccc21)C(C)(C)C

> <Shape>
0.225

> <Color>
0.072

> <Negative vol penalty>
0.000

$$$$

  -OEChem-04052317313D

 90 98  0     1  0  0  0  0  0999 V2000
  -30.0828  -26.4426   24.8125 C   0  0  0  0  0  0  0  0  0  0  0  0
  -29.0008  -25.7593   24.2667 C   0  0  0  0  0  0  0  0  0  0  0  0
  -23.4277   -9.8275   21.4599 C   0  0  0  0  0  0  0  0  0  0  0  0
  -24.0627  -10.8415   23.5589 C   0  0  0  0  0  0  0  0  0  0  0  0
  -29.9074  -27.7269   25.3262 C   0  0  0  0  0  0  0  0  0  0  0  0
  -27.7426  -26.3595   24.2352 C   0  0  0  0  0  0  0  0  0  0  0  0
  -25.4177  -25.7652   19.7758 C   0  0  0  0  0  0  0  0  0  0  0  0
  -22.7860   -8.7995   22.1506 C   0  0  0  0  0  0  0  0  0  0  0  0
  -23.4210   -9.8135   24.2496 C   0  0  0  0  0  0  0  0  0  0  0  0
  -24.8257  -24.5279   19.5262 C   0  0  0  0  0  0  0  0  0  0  0  0
  -19.8562   -8.3398   23.7747 C   0  0  0  0  0  0  0  0  0  0  0  0
  -18.5870   -7.9596   23.3388 C   0  0  0  0  0  0  0  0  0  0  0  0
  -22.6727  -25.4474   20.1078 C   0  0  0  0  0  0  0  0  0  0  0  0
  -19.3990   -5.7220   22.9256 C   0  0  0  0  0  0  0  0  0  0  0  0
  -24.0661  -10.8485   22.1641 C   0  0  0  0  0  0  0  0  0  0  0  0
  -24.1696  -13.1316   21.0308 C   0  0  0  0  0  0  0  0  0  0  0  0
  -28.6484  -28.3469   25.2922 C   0  0  0  0  0  0  0  0  0  0  0  0
  -24.6419  -26.8519   20.2044 C   0  0  0  0  0  0  0  0  0  0  0  0
  -27.5499  -27.6528   24.7501 C   0  0  0  0  0  0  0  0  0  0  0  0
  -23.2569  -26.6982   20.3596 C   0  0  0  0  0  0  0  0  0  0  0  0
  -22.9580  -19.3457   21.0504 C   0  0  0  0  0  0  0  0  0  0  0  0
  -22.7826   -8.7925   23.5454 C   0  0  0  0  0  0  0  0  0  0  0  0
  -23.4535  -24.3680   19.6950 C   0  0  0  0  0  0  0  0  0  0  0  0
  -20.8969   -7.4110   23.7860 C   0  0  0  0  0  0  0  0  0  0  0  0
  -18.3583   -6.6508   22.9143 C   0  0  0  0  0  0  0  0  0  0  0  0
  -20.6683   -6.1021   23.3615 C   0  0  0  0  0  0  0  0  0  0  0  0
  -24.7297  -11.9104   21.4511 C   0  0  0  0  0  0  0  0  0  0  0  0
  -24.0664  -18.8946   21.7377 C   0  0  0  0  0  0  0  0  0  0  0  0
  -22.7646  -20.7120   21.0604 C   0  0  0  0  0  0  0  0  0  0  0  0
  -25.2022  -13.7851   20.4037 C   0  0  0  0  0  0  0  0  0  0  0  0
  -24.6293  -21.0175   22.3239 C   0  0  0  0  0  0  0  0  0  0  0  0
  -22.8353  -13.6308   21.1928 C   0  0  0  0  0  0  0  0  0  0  0  0
  -24.5730  -28.6690   22.8116 C   0  0  0  0  0  0  0  0  0  0  0  0
  -22.3726  -30.3420   21.1140 C   0  0  0  0  0  0  0  0  0  0  0  0
  -20.0490  -30.3674   18.6146 C   0  0  0  0  0  0  0  0  0  0  0  0
  -30.8311  -14.5954   20.6797 C   0  0  0  0  0  0  0  0  0  0  0  0
  -28.4977  -29.7179   25.9024 C   0  0  0  0  0  0  0  0  0  0  0  0
  -25.2917  -28.1872   20.4436 C   0  0  0  0  0  0  0  0  0  0  0  0
  -22.3766  -27.8389   20.7983 C   0  0  0  0  0  0  0  0  0  0  0  0
  -27.2115  -30.4297   25.4911 C   0  0  0  0  0  0  0  0  0  0  0  0
  -29.4744  -12.4128   18.3513 C   0  0  0  0  0  0  0  0  0  0  0  0
  -26.0184  -29.4866   25.6088 C   0  0  0  0  0  0  0  0  0  0  0  0
  -28.0547  -12.1680   18.8607 C   0  0  0  0  0  0  0  0  0  0  0  0
  -30.4687  -12.4467   19.5059 C   0  0  0  0  0  0  0  0  0  0  0  0
  -28.7234  -13.2356   21.0720 C   0  0  0  0  0  0  0  0  0  0  0  0
  -26.1748  -28.2800   24.6754 C   0  0  1  0  0  0  0  0  0  0  0  0
  -24.4823  -29.0879   21.3715 C   0  0  1  0  0  0  0  0  0  0  0  0
  -27.6731  -13.1929   19.9431 C   0  0  2  0  0  0  0  0  0  0  0  0
  -22.0334  -18.4193   20.3435 C   0  0  0  0  0  0  0  0  0  0  0  0
  -25.5590  -21.9461   23.0287 C   0  0  0  0  0  0  0  0  0  0  0  0
  -32.2740  -16.5279   22.9056 C   0  0  0  0  0  0  0  0  0  0  0  0
  -18.3850  -31.8698   17.4871 C   0  0  0  0  0  0  0  0  0  0  0  0
  -20.4885  -30.0378   23.4946 C   0  0  0  0  0  0  0  0  0  0  0  0
  -18.5957  -30.6889   21.9907 C   0  0  0  0  0  0  0  0  0  0  0  0
  -20.4550  -32.2956   22.4196 C   0  0  0  0  0  0  0  0  0  0  0  0
  -21.4158  -30.1134   16.0019 C   0  0  0  0  0  0  0  0  0  0  0  0
  -24.5381  -14.8682   23.6530 C   0  0  0  0  0  0  0  0  0  0  0  0
  -24.3777  -17.4351   21.7958 C   0  0  0  0  0  0  0  0  0  0  0  0
  -21.5851  -21.3229   20.3436 C   0  0  0  0  0  0  0  0  0  0  0  0
  -28.0068  -15.5051   22.2726 C   0  0  0  0  0  0  0  0  0  0  0  0
  -31.1763  -16.7215   21.8791 C   0  0  0  0  0  0  0  0  0  0  0  0
  -29.4331  -15.1837   22.7057 C   0  0  0  0  0  0  0  0  0  0  0  0
  -25.4129  -17.0591   22.8558 C   0  0  0  0  0  0  0  0  0  0  0  0
  -26.9894  -15.1998   23.3645 C   0  0  0  0  0  0  0  0  0  0  0  0
  -21.7082  -22.8369   20.2104 C   0  0  0  0  0  0  0  0  0  1  0  0
  -20.8730  -30.2791   20.9530 C   0  0  1  0  0  0  0  0  0  0  0  0
  -19.8095  -31.3374   17.4718 C   0  0  2  0  0  0  0  0  0  0  0  0
  -20.1196  -30.8032   22.2081 C   0  0  0  0  0  0  0  0  0  0  0  0
  -26.0180  -11.7925   21.1189 N   0  0  0  0  0  0  0  0  0  0  0  0
  -24.9265  -19.7056   22.3881 N   0  0  0  0  0  0  0  0  0  0  0  0
  -23.5833  -21.5805   21.6895 N   0  0  0  0  0  0  0  0  0  0  0  0
  -26.2760  -12.9480   20.4832 N   0  0  0  0  0  0  0  0  0  0  0  0
  -23.0598  -29.1231   21.0258 N   0  0  0  0  0  0  0  0  0  0  0  0
  -30.0724  -13.4268   20.5174 N   0  0  0  0  0  0  0  0  0  0  0  0
  -25.2873  -14.9883   19.7975 N   0  0  0  0  0  0  0  0  0  0  0  0
  -21.8992  -12.8305   21.8617 N   0  0  0  0  0  0  0  0  0  0  0  0
  -25.8608  -28.6514   23.3123 N   0  0  0  0  0  0  0  0  0  0  0  0
  -20.5636  -31.0031   19.7247 N   0  0  0  0  0  0  0  0  0  0  0  0
  -30.4141  -15.4989   21.6689 N   0  0  0  0  0  0  0  0  0  0  0  0
  -20.0457  -30.6645   16.1632 N   0  3  0  0  0  0  0  0  0  0  0  0
  -25.6145  -15.5892   22.8793 N   0  3  1  0  0  0  0  0  0  0  0  0
  -22.4793  -14.7462   20.7428 O   0  0  0  0  0  0  0  0  0  0  0  0
  -23.5502  -28.3842   23.4235 O   0  0  0  0  0  0  0  0  0  0  0  0
  -22.9152  -31.4335   21.3037 O   0  0  0  0  0  0  0  0  0  0  0  0
  -19.8007  -29.1665   18.5322 O   0  0  0  0  0  0  0  0  0  0  0  0
  -31.8312  -14.8172   19.9848 O   0  0  0  0  0  0  0  0  0  0  0  0
  -22.1563   -7.7897   24.2198 O   0  0  0  0  0  0  0  0  0  0  0  0
  -22.8732  -23.1612   19.4528 O   0  0  0  0  0  0  0  0  0  1  0  0
  -17.1390   -6.2855   22.4972 F   0  0  0  0  0  0  0  0  0  0  0  0
  -21.6638   -5.2052   23.3712 F   0  0  0  0  0  0  0  0  0  0  0  0
  1  2  1  0  0  0  0
  1  5  2  0  0  0  0
  2  6  2  0  0  0  0
  3  8  2  0  0  0  0
  3 15  1  0  0  0  0
  4  9  1  0  0  0  0
  4 15  2  0  0  0  0
  5 17  1  0  0  0  0
  6 19  1  0  0  0  0
  7 10  2  0  0  0  0
  7 18  1  0  0  0  0
  8 22  1  0  0  0  0
  9 22  2  0  0  0  0
 10 23  1  0  0  0  0
 11 12  2  0  0  0  0
 11 24  1  0  0  0  0
 12 25  1  0  0  0  0
 13 20  1  0  0  0  0
 13 23  2  0  0  0  0
 14 25  2  0  0  0  0
 14 26  1  0  0  0  0
 15 27  1  0  0  0  0
 16 27  1  0  0  0  0
 16 30  2  0  0  0  0
 16 32  1  0  0  0  0
 17 19  2  0  0  0  0
 17 37  1  0  0  0  0
 18 20  2  0  0  0  0
 18 38  1  0  0  0  0
 19 46  1  0  0  0  0
 20 39  1  0  0  0  0
 21 28  2  0  0  0  0
 21 29  1  0  0  0  0
 21 49  1  0  0  0  0
 22 87  1  0  0  0  0
 23 88  1  0  0  0  0
 24 26  2  0  0  0  0
 24 87  1  0  0  0  0
 25 89  1  0  0  0  0
 26 90  1  0  0  0  0
 27 69  2  0  0  0  0
 28 58  1  0  0  0  0
 28 70  1  0  0  0  0
 29 59  1  0  0  0  0
 29 71  2  0  0  0  0
 30 72  1  0  0  0  0
 30 75  1  0  0  0  0
 31 50  1  0  0  0  0
 31 70  2  0  0  0  0
 31 71  1  0  0  0  0
 32 76  1  0  0  0  0
 32 82  2  0  0  0  0
 33 47  1  0  0  0  0
 33 77  1  0  0  0  0
 33 83  2  0  0  0  0
 34 66  1  0  0  0  0
 34 73  1  0  0  0  0
 34 84  2  0  0  0  0
 35 67  1  0  0  0  0
 35 78  1  0  0  0  0
 35 85  2  0  0  0  0
 36 74  1  0  0  0  0
 36 79  1  0  0  0  0
 36 86  2  0  0  0  0
 37 40  1  0  0  0  0
 38 47  1  0  0  0  0
 39 73  1  0  0  0  0
 40 42  1  0  0  0  0
 41 43  1  0  0  0  0
 41 44  1  0  0  0  0
 42 46  1  0  0  0  0
 43 48  1  0  0  0  0
 44 74  1  0  0  0  0
 45 48  1  0  0  0  0
 45 74  1  0  0  0  0
 46 77  1  0  0  0  0
 47 73  1  0  0  0  0
 48 72  1  0  0  0  0
 51 61  1  0  0  0  0
 52 67  1  0  0  0  0
 53 68  1  0  0  0  0
 54 68  1  0  0  0  0
 55 68  1  0  0  0  0
 56 80  1  0  0  0  0
 57 81  1  0  0  0  0
 58 63  1  0  0  0  0
 59 65  1  0  0  0  0
 60 62  1  0  0  0  0
 60 64  1  0  0  0  0
 61 79  1  0  0  0  0
 62 79  1  0  0  0  0
 63 81  1  0  0  0  0
 64 81  1  0  0  0  0
 65 88  1  0  0  0  0
 66 68  1  0  0  0  0
 66 78  1  0  0  0  0
 67 80  1  0  0  0  0
 69 72  1  0  0  0  0
M  CHG  2  80   1  81   1
M  ISO  4  36 100  65 101  79 100  88 101
M  END
> <Batch ID>
0050

> <Smiles>
CC[100N:0](CCCN(C)CCc1nc(C)nc(C[101CH2:1][101O:1]c2ccc3c(c2)CN(C(=O)C(NC(=O)C(C)NC)C(C)(C)C)C(C(=O)NC2CCCc4ccccc42)C3)c1C)[100C:0](=O)N1CCCC(n2nc(-c3ccc(Oc4ccc(F)cc4F)cc3)c(C(N)=O)c2N)C1

> <Shape>
0.220

> <Color>
0.156

> <Negative vol penalty>
0.000

$$$$

  -OEChem-04052317313D

 85 93  0     1  0  0  0  0  0999 V2000
  -16.7746  -29.4091   24.2180 C   0  0  0  0  0  0  0  0  0  0  0  0
  -17.1063  -28.5762   23.1542 C   0  0  0  0  0  0  0  0  0  0  0  0
  -24.0618  -13.8925   21.7123 C   0  0  0  0  0  0  0  0  0  0  0  0
  -26.1792  -14.0099   20.5549 C   0  0  0  0  0  0  0  0  0  0  0  0
  -17.6089  -30.4744   24.5542 C   0  0  0  0  0  0  0  0  0  0  0  0
  -18.2722  -28.8087   22.4254 C   0  0  0  0  0  0  0  0  0  0  0  0
  -21.9266  -24.6016   19.8854 C   0  0  0  0  0  0  0  0  0  0  0  0
  -23.7818  -12.6825   21.0774 C   0  0  0  0  0  0  0  0  0  0  0  0
  -25.8993  -12.7999   19.9200 C   0  0  0  0  0  0  0  0  0  0  0  0
  -22.0319  -24.1136   18.5837 C   0  0  0  0  0  0  0  0  0  0  0  0
  -24.6558   -9.4333   21.4117 C   0  0  0  0  0  0  0  0  0  0  0  0
  -24.1445   -8.3956   22.1909 C   0  0  0  0  0  0  0  0  0  0  0  0
  -23.8253  -25.6682   18.1523 C   0  0  0  0  0  0  0  0  0  0  0  0
  -22.1584   -8.3419   20.8162 C   0  0  0  0  0  0  0  0  0  0  0  0
  -25.8963  -23.3064   14.9233 C   0  0  0  0  0  0  0  0  0  0  0  0
  -25.2605  -14.5562   21.4510 C   0  0  0  0  0  0  0  0  0  0  0  0
  -26.2120  -15.9889   23.3351 C   0  0  0  0  0  0  0  0  0  0  0  0
  -18.7905  -30.7142   23.8353 C   0  0  0  0  0  0  0  0  0  0  0  0
  -22.7640  -25.6359   20.3277 C   0  0  0  0  0  0  0  0  0  0  0  0
  -19.1224  -29.8789   22.7515 C   0  0  0  0  0  0  0  0  0  0  0  0
  -23.7304  -26.1658   19.4609 C   0  0  0  0  0  0  0  0  0  0  0  0
  -24.7005  -12.1362   20.1813 C   0  0  0  0  0  0  0  0  0  0  0  0
  -22.9794  -24.6488   17.7160 C   0  0  0  0  0  0  0  0  0  0  0  0
  -23.9184   -9.9255   20.3348 C   0  0  0  0  0  0  0  0  0  0  0  0
  -22.8959   -7.8498   21.8931 C   0  0  0  0  0  0  0  0  0  0  0  0
  -22.6697   -9.3798   20.0371 C   0  0  0  0  0  0  0  0  0  0  0  0
  -25.5501  -15.8065   22.1061 C   0  0  0  0  0  0  0  0  0  0  0  0
  -24.9996  -22.3207   15.2252 C   0  0  0  0  0  0  0  0  0  0  0  0
  -26.2352  -17.3505   23.5138 C   0  0  0  0  0  0  0  0  0  0  0  0
  -27.0113  -21.6231   15.8311 C   0  0  0  0  0  0  0  0  0  0  0  0
  -26.7572  -15.0147   24.2347 C   0  0  0  0  0  0  0  0  0  0  0  0
  -22.3043  -28.6020   21.3740 C   0  0  0  0  0  0  0  0  0  0  0  0
  -25.4957  -28.4800   21.9421 C   0  0  0  0  0  0  0  0  0  0  0  0
  -28.5195  -27.0835   21.1986 C   0  0  0  0  0  0  0  0  0  0  0  0
  -26.0096  -21.9669   19.7073 C   0  0  0  0  0  0  0  0  0  0  0  0
  -19.6365  -31.9064   24.2061 C   0  0  0  0  0  0  0  0  0  0  0  0
  -22.6558  -26.1329   21.7432 C   0  0  0  0  0  0  0  0  0  0  0  0
  -24.6669  -27.2633   19.8932 C   0  0  0  0  0  0  0  0  0  0  0  0
  -21.0454  -31.8595   23.6202 C   0  0  0  0  0  0  0  0  0  0  0  0
  -23.7906  -21.3135   22.4140 C   0  0  0  0  0  0  0  0  0  0  0  0
  -20.9970  -31.4796   22.1437 C   0  0  0  0  0  0  0  0  0  0  0  0
  -24.0497  -19.8445   22.7529 C   0  0  0  0  0  0  0  0  0  0  0  0
  -23.8813  -21.5705   20.9114 C   0  0  0  0  0  0  0  0  0  0  0  0
  -25.3929  -19.6462   20.6186 C   0  0  0  0  0  0  0  0  0  0  0  0
  -20.3912  -30.0839   21.9526 C   0  0  1  0  0  0  0  0  0  0  0  0
  -23.2137  -27.5410   21.9263 C   0  0  1  0  0  0  0  0  0  0  0  0
  -25.3674  -19.3488   22.1277 C   0  0  2  0  0  0  0  0  0  0  0  0
  -25.4152  -18.8955   15.2838 C   0  0  0  0  0  0  0  0  0  0  0  0
  -30.9520  -27.2159   21.8009 C   0  0  0  0  0  0  0  0  0  0  0  0
  -25.7573  -31.0457   20.3116 C   0  0  0  0  0  0  0  0  0  0  0  0
  -28.2165  -30.6065   20.1450 C   0  0  0  0  0  0  0  0  0  0  0  0
  -27.1654  -30.9742   22.3772 C   0  0  0  0  0  0  0  0  0  0  0  0
  -29.7621  -20.2889   18.2624 C   0  0  0  0  0  0  0  0  0  0  0  0
  -30.0789  -22.3266   16.8692 C   0  0  0  0  0  0  0  0  0  0  0  0
  -28.5600  -24.2759   22.1339 C   0  0  0  0  0  0  0  0  0  0  0  0
  -23.5042  -22.2644   15.0283 C   0  0  0  0  0  0  0  0  0  0  0  0
  -28.1253  -20.7978   16.3604 C   0  0  0  0  0  0  0  0  0  0  0  0
  -25.1646  -20.0350   16.2566 C   0  0  0  0  0  0  0  0  0  0  0  0
  -28.1836  -22.2097   18.5353 C   0  0  0  0  0  0  0  0  0  0  0  0
  -22.7402  -22.8062   16.2316 C   0  0  0  0  0  0  0  0  0  1  0  0
  -26.7364  -28.8075   21.1470 C   0  0  1  0  0  0  0  0  0  0  0  0
  -29.6220  -26.5362   22.0870 C   0  0  2  0  0  0  0  0  0  0  0  0
  -26.9501  -30.3392   20.9861 C   0  0  0  0  0  0  0  0  0  0  0  0
  -29.0131  -21.4052   17.5061 C   0  0  0  0  0  0  0  0  0  0  0  0
  -25.1794  -16.9599   21.5439 N   0  0  0  0  0  0  0  0  0  0  0  0
  -25.7170  -21.2911   15.7851 N   0  0  0  0  0  0  0  0  0  0  0  0
  -25.6098  -17.8802   22.4236 N   0  0  0  0  0  0  0  0  0  0  0  0
  -27.1328  -22.8480   15.3092 N   0  3  0  0  0  0  0  0  0  0  0  0
  -24.5178  -27.7201   21.2848 N   0  0  0  0  0  0  0  0  0  0  0  0
  -25.1551  -21.0786   20.3809 N   0  0  0  0  0  0  0  0  0  0  0  0
  -26.7292  -18.1344   24.4956 N   0  0  0  0  0  0  0  0  0  0  0  0
  -26.6473  -13.6587   23.8977 N   0  0  0  0  0  0  0  0  0  0  0  0
  -21.3639  -29.0622   22.2758 N   0  0  0  0  0  0  0  0  0  0  0  0
  -27.8386  -28.1165   21.8073 N   0  0  0  0  0  0  0  0  0  0  0  0
  -27.1994  -21.4206   19.2419 N   0  0  0  0  0  0  0  0  0  0  0  0
  -29.7858  -25.0714   21.8664 N   0  3  0  0  0  0  0  0  0  0  0  0
  -27.3105  -15.3362   25.3136 O   0  0  0  0  0  0  0  0  0  0  0  0
  -22.4464  -28.9765   20.2159 O   0  0  0  0  0  0  0  0  0  0  0  0
  -25.4009  -28.8775   23.1060 O   0  0  0  0  0  0  0  0  0  0  0  0
  -28.2881  -26.6415   20.0753 O   0  0  0  0  0  0  0  0  0  0  0  0
  -25.7350  -23.1598   19.5382 O   0  0  0  0  0  0  0  0  0  0  0  0
  -24.4277  -10.9554   19.5617 O   0  0  0  0  0  0  0  0  0  0  0  0
  -23.0838  -24.1747   16.4447 O   0  0  0  0  0  0  0  0  0  1  0  0
  -22.4057   -6.8522   22.6405 F   0  0  0  0  0  0  0  0  0  0  0  0
  -21.9572   -9.8477   19.0030 F   0  0  0  0  0  0  0  0  0  0  0  0
  1  2  1  0  0  0  0
  1  5  2  0  0  0  0
  2  6  2  0  0  0  0
  3  8  2  0  0  0  0
  3 16  1  0  0  0  0
  4  9  1  0  0  0  0
  4 16  2  0  0  0  0
  5 18  1  0  0  0  0
  6 20  1  0  0  0  0
  7 10  2  0  0  0  0
  7 19  1  0  0  0  0
  8 22  1  0  0  0  0
  9 22  2  0  0  0  0
 10 23  1  0  0  0  0
 11 12  2  0  0  0  0
 11 24  1  0  0  0  0
 12 25  1  0  0  0  0
 13 21  1  0  0  0  0
 13 23  2  0  0  0  0
 14 25  2  0  0  0  0
 14 26  1  0  0  0  0
 15 28  2  0  0  0  0
 15 68  1  0  0  0  0
 16 27  1  0  0  0  0
 17 27  1  0  0  0  0
 17 29  2  0  0  0  0
 17 31  1  0  0  0  0
 18 20  2  0  0  0  0
 18 36  1  0  0  0  0
 19 21  2  0  0  0  0
 19 37  1  0  0  0  0
 20 45  1  0  0  0  0
 21 38  1  0  0  0  0
 22 82  1  0  0  0  0
 23 83  1  0  0  0  0
 24 26  2  0  0  0  0
 24 82  1  0  0  0  0
 25 84  1  0  0  0  0
 26 85  1  0  0  0  0
 27 65  2  0  0  0  0
 28 56  1  0  0  0  0
 28 66  1  0  0  0  0
 29 67  1  0  0  0  0
 29 71  1  0  0  0  0
 30 57  1  0  0  0  0
 30 66  1  0  0  0  0
 30 68  2  0  0  0  0
 31 72  1  0  0  0  0
 31 77  2  0  0  0  0
 32 46  1  0  0  0  0
 32 73  1  0  0  0  0
 32 78  2  0  0  0  0
 33 61  1  0  0  0  0
 33 69  1  0  0  0  0
 33 79  2  0  0  0  0
 34 62  1  0  0  0  0
 34 74  1  0  0  0  0
 34 80  2  0  0  0  0
 35 70  1  0  0  0  0
 35 75  1  0  0  0  0
 35 81  2  0  0  0  0
 36 39  1  0  0  0  0
 37 46  1  0  0  0  0
 38 69  1  0  0  0  0
 39 41  1  0  0  0  0
 40 42  1  0  0  0  0
 40 43  1  0  0  0  0
 41 45  1  0  0  0  0
 42 47  1  0  0  0  0
 43 70  1  0  0  0  0
 44 47  1  0  0  0  0
 44 70  1  0  0  0  0
 45 73  1  0  0  0  0
 46 69  1  0  0  0  0
 47 67  1  0  0  0  0
 48 58  1  0  0  0  0
 49 62  1  0  0  0  0
 50 63  1  0  0  0  0
 51 63  1  0  0  0  0
 52 63  1  0  0  0  0
 53 64  1  0  0  0  0
 54 64  1  0  0  0  0
 55 76  1  0  0  0  0
 56 60  1  0  0  0  0
 57 64  1  0  0  0  0
 58 66  1  0  0  0  0
 59 64  1  0  0  0  0
 59 75  1  0  0  0  0
 60 83  1  0  0  0  0
 61 63  1  0  0  0  0
 61 74  1  0  0  0  0
 62 76  1  0  0  0  0
 65 67  1  0  0  0  0
M  CHG  2  68   1  76   1
M  ISO  4  35 100  60 101  75 100  83 101
M  END
> <Batch ID>
0050

> <Smiles>
CCn1c(C[101CH2:1][101O:1]c2ccc3c(c2)CN(C(=O)C(NC(=O)C(C)NC)C(C)(C)C)C(C(=O)NC2CCCc4ccccc42)C3)cnc1CC(C)(C)C[100NH:0][100C:0](=O)N1CCCC(n2nc(-c3ccc(Oc4ccc(F)cc4F)cc3)c(C(N)=O)c2N)C1

> <Shape>
0.200

> <Color>
0.081

> <Negative vol penalty>
0.000

$$$$

  -OEChem-04052317313D

 83 91  0     1  0  0  0  0  0999 V2000
  -21.8383  -11.4795   20.4448 C   0  0  0  0  0  0  0  0  0  0  0  0
  -21.7381  -12.5998   21.2635 C   0  0  0  0  0  0  0  0  0  0  0  0
  -24.2690  -29.3801   20.0262 C   0  0  0  0  0  0  0  0  0  0  0  0
  -24.6528  -30.1183   22.2943 C   0  0  0  0  0  0  0  0  0  0  0  0
  -23.0738  -11.1161   19.9107 C   0  0  0  0  0  0  0  0  0  0  0  0
  -22.8738  -13.3568   21.5494 C   0  0  0  0  0  0  0  0  0  0  0  0
  -22.0343  -18.3367   21.1737 C   0  0  0  0  0  0  0  0  0  0  0  0
  -25.2025  -30.3086   19.5659 C   0  0  0  0  0  0  0  0  0  0  0  0
  -25.5864  -31.0469   21.8341 C   0  0  0  0  0  0  0  0  0  0  0  0
  -21.3669  -18.9515   22.2322 C   0  0  0  0  0  0  0  0  0  0  0  0
  -28.8087  -31.0416   20.8157 C   0  0  0  0  0  0  0  0  0  0  0  0
  -30.0150  -31.1435   21.5086 C   0  0  0  0  0  0  0  0  0  0  0  0
  -23.4757  -19.7465   23.0923 C   0  0  0  0  0  0  0  0  0  0  0  0
  -29.5439  -33.4642   21.9875 C   0  0  0  0  0  0  0  0  0  0  0  0
  -16.2424  -22.4407   24.7683 C   0  0  0  0  0  0  0  0  0  0  0  0
  -23.9941  -29.2849   21.3904 C   0  0  0  0  0  0  0  0  0  0  0  0
  -23.2744  -26.9965   22.2580 C   0  0  0  0  0  0  0  0  0  0  0  0
  -24.2234  -11.8745   20.1823 C   0  0  0  0  0  0  0  0  0  0  0  0
  -23.4309  -18.4131   21.0724 C   0  0  0  0  0  0  0  0  0  0  0  0
  -24.1261  -13.0024   21.0195 C   0  0  0  0  0  0  0  0  0  0  0  0
  -24.1583  -19.1340   22.0302 C   0  0  0  0  0  0  0  0  0  0  0  0
  -25.8612  -31.1420   20.4698 C   0  0  0  0  0  0  0  0  0  0  0  0
  -22.0878  -19.6541   23.1932 C   0  0  0  0  0  0  0  0  0  0  0  0
  -27.9701  -32.1510   20.7086 C   0  0  0  0  0  0  0  0  0  0  0  0
  -30.3826  -32.3547   22.0945 C   0  0  0  0  0  0  0  0  0  0  0  0
  -28.3377  -33.3623   21.2946 C   0  0  0  0  0  0  0  0  0  0  0  0
  -23.0294  -28.3263   21.8664 C   0  0  0  0  0  0  0  0  0  0  0  0
  -17.9391  -22.7961   26.0033 C   0  0  0  0  0  0  0  0  0  0  0  0
  -17.7158  -23.9777   25.3366 C   0  0  0  0  0  0  0  0  0  0  0  0
  -22.0418  -26.5139   22.6246 C   0  0  0  0  0  0  0  0  0  0  0  0
  -24.5060  -26.2631   22.2878 C   0  0  0  0  0  0  0  0  0  0  0  0
  -25.8009  -16.2951   21.0970 C   0  0  0  0  0  0  0  0  0  0  0  0
  -27.6114  -18.8956   20.4030 C   0  0  0  0  0  0  0  0  0  0  0  0
  -27.9780  -22.2865   20.5237 C   0  0  0  0  0  0  0  0  0  0  0  0
  -17.3061  -27.5389   25.5976 C   0  0  0  0  0  0  0  0  0  0  0  0
  -25.5456  -11.4153   19.6205 C   0  0  0  0  0  0  0  0  0  0  0  0
  -24.1334  -17.7669   19.9100 C   0  0  0  0  0  0  0  0  0  0  0  0
  -25.6570  -19.2630   21.9558 C   0  0  0  0  0  0  0  0  0  0  0  0
  -26.6325  -12.4861   19.6682 C   0  0  0  0  0  0  0  0  0  0  0  0
  -17.4156  -28.4413   22.0094 C   0  0  0  0  0  0  0  0  0  0  0  0
  -26.6601  -13.1582   21.0373 C   0  0  0  0  0  0  0  0  0  0  0  0
  -18.9145  -28.4492   21.7136 C   0  0  0  0  0  0  0  0  0  0  0  0
  -17.1239  -28.7752   23.4693 C   0  0  0  0  0  0  0  0  0  0  0  0
  -19.3413  -27.9146   24.1452 C   0  0  0  0  0  0  0  0  0  0  0  0
  -25.3307  -13.8632   21.3326 C   0  0  1  0  0  0  0  0  0  0  0  0
  -25.6048  -17.4754   20.1882 C   0  0  1  0  0  0  0  0  0  0  0  0
  -19.6719  -27.5364   22.6935 C   0  0  2  0  0  0  0  0  0  0  0  0
  -29.5806  -24.1177   19.9107 C   0  0  0  0  0  0  0  0  0  0  0  0
  -29.3654  -18.1554   22.7874 C   0  0  0  0  0  0  0  0  0  0  0  0
  -30.3297  -20.4644   22.7061 C   0  0  0  0  0  0  0  0  0  0  0  0
  -30.6223  -18.9236   20.7664 C   0  0  0  0  0  0  0  0  0  0  0  0
  -15.9830  -24.6612   23.6477 C   0  0  0  0  0  0  0  0  0  0  0  0
  -17.0977  -25.8484   27.3804 C   0  0  0  0  0  0  0  0  0  0  0  0
  -26.0179  -23.5505   18.7018 C   0  0  0  0  0  0  0  0  0  0  0  0
  -19.0146  -22.4760   27.0106 C   0  0  0  0  0  0  0  0  0  0  0  0
  -18.4140  -25.2750   25.3744 C   0  0  0  0  0  0  0  0  0  0  0  0
  -20.1566  -21.6230   26.4471 C   0  0  0  0  0  0  0  0  0  0  0  0
  -20.9339  -22.3244   25.3324 C   0  0  0  0  0  0  0  0  0  0  0  0
  -22.0331  -21.4328   24.7710 C   0  0  0  0  0  0  0  0  0  1  0  0
  -28.3482  -19.9330   21.2154 C   0  0  1  0  0  0  0  0  0  0  0  0
  -28.3829  -23.2942   19.4631 C   0  0  2  0  0  0  0  0  0  0  0  0
  -29.6383  -19.3652   21.8716 C   0  0  0  0  0  0  0  0  0  0  0  0
  -17.0187  -21.8432   25.6449 N   0  0  0  0  0  0  0  0  0  0  0  0
  -21.7423  -28.6667   21.9740 N   0  0  0  0  0  0  0  0  0  0  0  0
  -16.6260  -23.7345   24.5489 N   0  0  0  0  0  0  0  0  0  0  0  0
  -21.1675  -27.5438   22.4372 N   0  0  0  0  0  0  0  0  0  0  0  0
  -26.2989  -18.6083   20.8038 N   0  0  0  0  0  0  0  0  0  0  0  0
  -17.8894  -27.9217   24.3786 N   0  0  0  0  0  0  0  0  0  0  0  0
  -21.6314  -25.3133   23.0856 N   0  0  0  0  0  0  0  0  0  0  0  0
  -25.6794  -26.9106   21.8777 N   0  0  0  0  0  0  0  0  0  0  0  0
  -25.2552  -15.1194   20.6180 N   0  0  0  0  0  0  0  0  0  0  0  0
  -28.5798  -21.0625   20.3215 N   0  0  0  0  0  0  0  0  0  0  0  0
  -17.6839  -26.2946   26.1246 N   0  0  0  0  0  0  0  0  0  0  0  0
  -27.2547  -24.2242   19.1745 N   0  3  0  0  0  0  0  0  0  0  0  0
  -24.5616  -25.0638   22.6514 O   0  0  0  0  0  0  0  0  0  0  0  0
  -26.4040  -16.4400   22.1539 O   0  0  0  0  0  0  0  0  0  0  0  0
  -28.1770  -18.3652   19.4437 O   0  0  0  0  0  0  0  0  0  0  0  0
  -27.2078  -22.5590   21.4420 O   0  0  0  0  0  0  0  0  0  0  0  0
  -16.4867  -28.2635   26.1769 O   0  0  0  0  0  0  0  0  0  0  0  0
  -26.7724  -32.0481   20.0211 O   0  0  0  0  0  0  0  0  0  0  0  0
  -21.4389  -20.2546   24.2277 O   0  0  0  0  0  0  0  0  0  1  0  0
  -31.5403  -32.4520   22.7612 F   0  0  0  0  0  0  0  0  0  0  0  0
  -27.5355  -34.4313   21.1961 F   0  0  0  0  0  0  0  0  0  0  0  0
  1  2  1  0  0  0  0
  1  5  2  0  0  0  0
  2  6  2  0  0  0  0
  3  8  2  0  0  0  0
  3 16  1  0  0  0  0
  4  9  1  0  0  0  0
  4 16  2  0  0  0  0
  5 18  1  0  0  0  0
  6 20  1  0  0  0  0
  7 10  2  0  0  0  0
  7 19  1  0  0  0  0
  8 22  1  0  0  0  0
  9 22  2  0  0  0  0
 10 23  1  0  0  0  0
 11 12  2  0  0  0  0
 11 24  1  0  0  0  0
 12 25  1  0  0  0  0
 13 21  1  0  0  0  0
 13 23  2  0  0  0  0
 14 25  2  0  0  0  0
 14 26  1  0  0  0  0
 15 63  2  0  0  0  0
 15 65  1  0  0  0  0
 16 27  1  0  0  0  0
 17 27  1  0  0  0  0
 17 30  2  0  0  0  0
 17 31  1  0  0  0  0
 18 20  2  0  0  0  0
 18 36  1  0  0  0  0
 19 21  2  0  0  0  0
 19 37  1  0  0  0  0
 20 45  1  0  0  0  0
 21 38  1  0  0  0  0
 22 80  1  0  0  0  0
 23 81  1  0  0  0  0
 24 26  2  0  0  0  0
 24 80  1  0  0  0  0
 25 82  1  0  0  0  0
 26 83  1  0  0  0  0
 27 64  2  0  0  0  0
 28 29  2  0  0  0  0
 28 55  1  0  0  0  0
 28 63  1  0  0  0  0
 29 56  1  0  0  0  0
 29 65  1  0  0  0  0
 30 66  1  0  0  0  0
 30 69  1  0  0  0  0
 31 70  1  0  0  0  0
 31 75  2  0  0  0  0
 32 46  1  0  0  0  0
 32 71  1  0  0  0  0
 32 76  2  0  0  0  0
 33 60  1  0  0  0  0
 33 67  1  0  0  0  0
 33 77  2  0  0  0  0
 34 61  1  0  0  0  0
 34 72  1  0  0  0  0
 34 78  2  0  0  0  0
 35 68  1  0  0  0  0
 35 73  1  0  0  0  0
 35 79  2  0  0  0  0
 36 39  1  0  0  0  0
 37 46  1  0  0  0  0
 38 67  1  0  0  0  0
 39 41  1  0  0  0  0
 40 42  1  0  0  0  0
 40 43  1  0  0  0  0
 41 45  1  0  0  0  0
 42 47  1  0  0  0  0
 43 68  1  0  0  0  0
 44 47  1  0  0  0  0
 44 68  1  0  0  0  0
 45 71  1  0  0  0  0
 46 67  1  0  0  0  0
 47 66  1  0  0  0  0
 48 61  1  0  0  0  0
 49 62  1  0  0  0  0
 50 62  1  0  0  0  0
 51 62  1  0  0  0  0
 52 65  1  0  0  0  0
 53 73  1  0  0  0  0
 54 74  1  0  0  0  0
 55 57  1  0  0  0  0
 56 73  1  0  0  0  0
 57 58  1  0  0  0  0
 58 59  1  0  0  0  0
 59 81  1  0  0  0  0
 60 62  1  0  0  0  0
 60 72  1  0  0  0  0
 61 74  1  0  0  0  0
 64 66  1  0  0  0  0
M  CHG  1  74   1
M  ISO  4  35 100  59 101  73 100  81 101
M  END
> <Batch ID>
0050

> <Smiles>
CNC(C)C(=O)NC(C(=O)N1Cc2cc([101O:1][101CH2:1]CCCc3ncn(C)c3C[100N:0](C)[100C:0](=O)N3CCCC(n4nc(-c5ccc(Oc6ccc(F)cc6F)cc5)c(C(N)=O)c4N)C3)ccc2CC1C(=O)NC1CCCc2ccccc21)C(C)(C)C

> <Shape>
0.195

> <Color>
0.062

> <Negative vol penalty>
0.000

$$$$

  -OEChem-04052317313D

 86 94  0     1  0  0  0  0  0999 V2000
  -29.3759  -37.0724   20.9266 C   0  0  0  0  0  0  0  0  0  0  0  0
  -29.5929  -35.7319   20.6243 C   0  0  0  0  0  0  0  0  0  0  0  0
  -24.7072   -8.9451   22.2374 C   0  0  0  0  0  0  0  0  0  0  0  0
  -26.4411   -7.6296   21.1885 C   0  0  0  0  0  0  0  0  0  0  0  0
  -28.4562  -37.4232   21.9141 C   0  0  0  0  0  0  0  0  0  0  0  0
  -28.8910  -34.7412   21.3101 C   0  0  0  0  0  0  0  0  0  0  0  0
  -26.9231  -29.3960   19.0602 C   0  0  0  0  0  0  0  0  0  0  0  0
  -23.8199   -7.8763   22.1111 C   0  0  0  0  0  0  0  0  0  0  0  0
  -25.5538   -6.5608   21.0623 C   0  0  0  0  0  0  0  0  0  0  0  0
  -27.4428  -28.1038   19.1224 C   0  0  0  0  0  0  0  0  0  0  0  0
  -23.1922   -4.9587   23.7007 C   0  0  0  0  0  0  0  0  0  0  0  0
  -22.4021   -4.6382   24.8046 C   0  0  0  0  0  0  0  0  0  0  0  0
  -26.0165  -27.6275   21.0087 C   0  0  0  0  0  0  0  0  0  0  0  0
  -30.2140  -23.8460   19.7045 C   0  0  0  0  0  0  0  0  0  0  0  0
  -20.4113   -5.0477   23.4985 C   0  0  0  0  0  0  0  0  0  0  0  0
  -27.9713  -23.1511   19.3246 C   0  0  0  0  0  0  0  0  0  0  0  0
  -26.0178   -8.8218   21.7761 C   0  0  0  0  0  0  0  0  0  0  0  0
  -27.7937  -10.1946   22.9881 C   0  0  0  0  0  0  0  0  0  0  0  0
  -27.7356  -36.4367   22.6056 C   0  0  0  0  0  0  0  0  0  0  0  0
  -25.9524  -29.8179   19.9802 C   0  0  0  0  0  0  0  0  0  0  0  0
  -27.9617  -35.0791   22.3087 C   0  0  0  0  0  0  0  0  0  0  0  0
  -25.4842  -28.9247   20.9544 C   0  0  0  0  0  0  0  0  0  0  0  0
  -28.8961  -24.1791   19.4119 C   0  0  0  0  0  0  0  0  0  0  0  0
  -24.2432   -6.6841   21.5236 C   0  0  0  0  0  0  0  0  0  0  0  0
  -26.9916  -27.2202   20.0986 C   0  0  0  0  0  0  0  0  0  0  0  0
  -22.5919   -5.3238   22.4957 C   0  0  0  0  0  0  0  0  0  0  0  0
  -21.0116   -4.6827   24.7035 C   0  0  0  0  0  0  0  0  0  0  0  0
  -21.2014   -5.3682   22.3946 C   0  0  0  0  0  0  0  0  0  0  0  0
  -30.5618  -22.5137   19.8982 C   0  0  0  0  0  0  0  0  0  0  0  0
  -26.9346   -9.9257   21.9057 C   0  0  0  0  0  0  0  0  0  0  0  0
  -29.5624  -21.5602   19.7893 C   0  0  0  0  0  0  0  0  0  0  0  0
  -28.4502  -11.3459   22.6275 C   0  0  0  0  0  0  0  0  0  0  0  0
  -27.9815   -9.4686   24.2101 C   0  0  0  0  0  0  0  0  0  0  0  0
  -25.8075  -32.0787   22.2099 C   0  0  0  0  0  0  0  0  0  0  0  0
  -22.7188  -31.1134   22.4344 C   0  0  0  0  0  0  0  0  0  0  0  0
  -20.4144  -28.6410   21.9615 C   0  0  0  0  0  0  0  0  0  0  0  0
  -31.1228  -14.4140   19.1054 C   0  0  0  0  0  0  0  0  0  0  0  0
  -26.7866  -36.8625   23.6977 C   0  0  0  0  0  0  0  0  0  0  0  0
  -25.3824  -31.2064   19.8830 C   0  0  0  0  0  0  0  0  0  0  0  0
  -24.4288  -29.3220   21.9528 C   0  0  0  0  0  0  0  0  0  0  0  0
  -25.8098  -35.7670   24.1172 C   0  0  0  0  0  0  0  0  0  0  0  0
  -27.6047  -14.5870   18.8497 C   0  0  0  0  0  0  0  0  0  0  0  0
  -26.5440  -34.4450   24.3171 C   0  0  0  0  0  0  0  0  0  0  0  0
  -27.1800  -13.3974   19.7094 C   0  0  0  0  0  0  0  0  0  0  0  0
  -28.8404  -14.2729   18.0043 C   0  0  0  0  0  0  0  0  0  0  0  0
  -29.5618  -12.5698   19.6479 C   0  0  0  0  0  0  0  0  0  0  0  0
  -27.2016  -33.9765   23.0134 C   0  0  1  0  0  0  0  0  0  0  0  0
  -24.7707  -31.6942   21.1926 C   0  0  1  0  0  0  0  0  0  0  0  0
  -28.3583  -12.8787   20.5518 C   0  0  2  0  0  0  0  0  0  0  0  0
  -17.9766  -28.1342   22.2743 C   0  0  0  0  0  0  0  0  0  0  0  0
  -23.1812  -30.7487   25.4282 C   0  0  0  0  0  0  0  0  0  0  0  0
  -21.0885  -29.3771   25.5136 C   0  0  0  0  0  0  0  0  0  0  0  0
  -20.9799  -31.7736   24.8299 C   0  0  0  0  0  0  0  0  0  0  0  0
  -31.3592  -15.1153   16.6853 C   0  0  0  0  0  0  0  0  0  0  0  0
  -20.0111  -28.2177   19.0603 C   0  0  0  0  0  0  0  0  0  0  0  0
  -29.8215  -19.6571   17.5355 C   0  0  0  0  0  0  0  0  0  0  0  0
  -28.4884  -25.6070   19.1969 C   0  0  0  0  0  0  0  0  0  1  0  0
  -29.8627  -20.1093   19.9838 C   0  0  0  0  0  0  0  0  0  0  0  0
  -32.1576  -17.6983   18.2342 C   0  0  0  0  0  0  0  0  0  0  0  0
  -32.6215  -16.2643   18.4663 C   0  0  0  0  0  0  0  0  0  0  0  0
  -30.9413  -18.0554   19.0790 C   0  0  0  0  0  0  0  0  0  0  0  0
  -21.9789  -30.0765   23.2445 C   0  0  1  0  0  0  0  0  0  0  0  0
  -19.0391  -28.6553   21.3191 C   0  0  2  0  0  0  0  0  0  0  0  0
  -21.8284  -30.4868   24.7366 C   0  0  0  0  0  0  0  0  0  0  0  0
  -28.2716  -21.8455   19.5064 N   0  0  0  0  0  0  0  0  0  0  0  0
  -27.0340  -10.8332   20.9307 N   0  0  0  0  0  0  0  0  0  0  0  0
  -27.9632  -11.6836   21.3991 N   0  0  0  0  0  0  0  0  0  0  0  0
  -23.9071  -30.6923   21.8208 N   0  0  0  0  0  0  0  0  0  0  0  0
  -29.9238  -13.7365   18.8394 N   0  0  0  0  0  0  0  0  0  0  0  0
  -29.3907  -12.0923   23.2446 N   0  0  0  0  0  0  0  0  0  0  0  0
  -27.2261   -8.3069   24.4199 N   0  0  0  0  0  0  0  0  0  0  0  0
  -26.2136  -33.3970   22.1288 N   0  0  0  0  0  0  0  0  0  0  0  0
  -20.7126  -29.8484   22.5568 N   0  0  0  0  0  0  0  0  0  0  0  0
  -31.5999  -15.2875   18.1166 N   0  0  0  0  0  0  0  0  0  0  0  0
  -19.0297  -27.8039   20.0960 N   0  3  0  0  0  0  0  0  0  0  0  0
  -30.5759  -19.4967   18.8307 N   0  3  1  0  0  0  0  0  0  0  0  0
  -28.7833   -9.8481   25.0970 O   0  0  0  0  0  0  0  0  0  0  0  0
  -26.2083  -31.2416   23.0101 O   0  0  0  0  0  0  0  0  0  0  0  0
  -22.2556  -32.2531   22.3432 O   0  0  0  0  0  0  0  0  0  0  0  0
  -21.1490  -27.6559   21.9408 O   0  0  0  0  0  0  0  0  0  0  0  0
  -31.7390  -14.2427   20.1652 O   0  0  0  0  0  0  0  0  0  0  0  0
  -23.3777   -5.6409   21.4004 O   0  0  0  0  0  0  0  0  0  0  0  0
  -27.4977  -25.9586   20.1619 O   0  0  0  0  0  0  0  0  0  1  0  0
  -20.2530   -4.3734   25.7632 F   0  0  0  0  0  0  0  0  0  0  0  0
  -20.6189   -5.7171   21.2393 F   0  0  0  0  0  0  0  0  0  0  0  0
  -32.1929  -22.1043   20.2609 Cl  0  0  0  0  0  0  0  0  0  0  0  0
  1  2  1  0  0  0  0
  1  5  2  0  0  0  0
  2  6  2  0  0  0  0
  3  8  2  0  0  0  0
  3 17  1  0  0  0  0
  4  9  1  0  0  0  0
  4 17  2  0  0  0  0
  5 19  1  0  0  0  0
  6 21  1  0  0  0  0
  7 10  2  0  0  0  0
  7 20  1  0  0  0  0
  8 24  1  0  0  0  0
  9 24  2  0  0  0  0
 10 25  1  0  0  0  0
 11 12  2  0  0  0  0
 11 26  1  0  0  0  0
 12 27  1  0  0  0  0
 13 22  1  0  0  0  0
 13 25  2  0  0  0  0
 14 23  2  0  0  0  0
 14 29  1  0  0  0  0
 15 27  2  0  0  0  0
 15 28  1  0  0  0  0
 16 23  1  0  0  0  0
 16 65  2  0  0  0  0
 17 30  1  0  0  0  0
 18 30  1  0  0  0  0
 18 32  2  0  0  0  0
 18 33  1  0  0  0  0
 19 21  2  0  0  0  0
 19 38  1  0  0  0  0
 20 22  2  0  0  0  0
 20 39  1  0  0  0  0
 21 47  1  0  0  0  0
 22 40  1  0  0  0  0
 23 57  1  0  0  0  0
 24 82  1  0  0  0  0
 25 83  1  0  0  0  0
 26 28  2  0  0  0  0
 26 82  1  0  0  0  0
 27 84  1  0  0  0  0
 28 85  1  0  0  0  0
 29 31  2  0  0  0  0
 29 86  1  0  0  0  0
 30 66  2  0  0  0  0
 31 58  1  0  0  0  0
 31 65  1  0  0  0  0
 32 67  1  0  0  0  0
 32 70  1  0  0  0  0
 33 71  1  0  0  0  0
 33 77  2  0  0  0  0
 34 48  1  0  0  0  0
 34 72  1  0  0  0  0
 34 78  2  0  0  0  0
 35 62  1  0  0  0  0
 35 68  1  0  0  0  0
 35 79  2  0  0  0  0
 36 63  1  0  0  0  0
 36 73  1  0  0  0  0
 36 80  2  0  0  0  0
 37 69  1  0  0  0  0
 37 74  1  0  0  0  0
 37 81  2  0  0  0  0
 38 41  1  0  0  0  0
 39 48  1  0  0  0  0
 40 68  1  0  0  0  0
 41 43  1  0  0  0  0
 42 44  1  0  0  0  0
 42 45  1  0  0  0  0
 43 47  1  0  0  0  0
 44 49  1  0  0  0  0
 45 69  1  0  0  0  0
 46 49  1  0  0  0  0
 46 69  1  0  0  0  0
 47 72  1  0  0  0  0
 48 68  1  0  0  0  0
 49 67  1  0  0  0  0
 50 63  1  0  0  0  0
 51 64  1  0  0  0  0
 52 64  1  0  0  0  0
 53 64  1  0  0  0  0
 54 74  1  0  0  0  0
 55 75  1  0  0  0  0
 56 76  1  0  0  0  0
 57 83  1  0  0  0  0
 58 76  1  0  0  0  0
 59 60  1  0  0  0  0
 59 61  1  0  0  0  0
 60 74  1  0  0  0  0
 61 76  1  0  0  0  0
 62 64  1  0  0  0  0
 62 73  1  0  0  0  0
 63 75  1  0  0  0  0
 66 67  1  0  0  0  0
M  CHG  2  75   1  76   1
M  ISO  4  37 100  57 101  74 100  83 101
M  END
> <Batch ID>
0050

> <Smiles>
CNC(C)C(=O)NC(C(=O)N1Cc2cc([101O:1][101CH2:1]c3cnc(CN(C)CCC[100N:0](C)[100C:0](=O)N4CCCC(n5nc(-c6ccc(Oc7ccc(F)cc7F)cc6)c(C(N)=O)c5N)C4)c(Cl)c3)ccc2CC1C(=O)NC1CCCc2ccccc21)C(C)(C)C

> <Shape>
0.279

> <Color>
0.094

> <Negative vol penalty>
0.000

$$$$

  -OEChem-04052317313D

 85 94  0     1  0  0  0  0  0999 V2000
  -35.5330  -24.9697   22.1682 C   0  0  0  0  0  0  0  0  0  0  0  0
  -34.3968  -24.4625   21.5461 C   0  0  0  0  0  0  0  0  0  0  0  0
  -23.2883   -9.7944   19.9071 C   0  0  0  0  0  0  0  0  0  0  0  0
  -23.7151   -9.9357   22.2809 C   0  0  0  0  0  0  0  0  0  0  0  0
  -35.4145  -25.9968   23.1036 C   0  0  0  0  0  0  0  0  0  0  0  0
  -33.1411  -24.9814   21.8598 C   0  0  0  0  0  0  0  0  0  0  0  0
  -30.3037  -25.8202   17.7500 C   0  0  0  0  0  0  0  0  0  0  0  0
  -27.8978  -16.8068   15.2781 C   0  0  0  0  0  0  0  0  0  0  0  0
  -22.5547   -8.6254   20.1085 C   0  0  0  0  0  0  0  0  0  0  0  0
  -22.9814   -8.7666   22.4824 C   0  0  0  0  0  0  0  0  0  0  0  0
  -29.6917  -24.7140   17.1622 C   0  0  0  0  0  0  0  0  0  0  0  0
  -19.7283   -7.8700   22.6670 C   0  0  0  0  0  0  0  0  0  0  0  0
  -18.8149   -7.8535   23.7210 C   0  0  0  0  0  0  0  0  0  0  0  0
  -28.8477  -15.9060   15.7466 C   0  0  0  0  0  0  0  0  0  0  0  0
  -27.6193  -25.2869   18.2559 C   0  0  0  0  0  0  0  0  0  0  0  0
  -20.0023   -6.0021   24.7209 C   0  0  0  0  0  0  0  0  0  0  0  0
  -23.8685  -10.4496   20.9932 C   0  0  0  0  0  0  0  0  0  0  0  0
  -24.1411  -12.9782   20.7946 C   0  0  0  0  0  0  0  0  0  0  0  0
  -34.1577  -26.5352   23.4218 C   0  0  0  0  0  0  0  0  0  0  0  0
  -29.5797  -26.6633   18.6052 C   0  0  0  0  0  0  0  0  0  0  0  0
  -33.0055  -26.0158   22.8013 C   0  0  0  0  0  0  0  0  0  0  0  0
  -28.2238  -26.4046   18.8513 C   0  0  0  0  0  0  0  0  0  0  0  0
  -27.0608  -17.4570   16.1782 C   0  0  0  0  0  0  0  0  0  0  0  0
  -22.4012   -8.1114   21.3962 C   0  0  0  0  0  0  0  0  0  0  0  0
  -28.3501  -24.4456   17.4174 C   0  0  0  0  0  0  0  0  0  0  0  0
  -20.7787   -6.9526   22.6399 C   0  0  0  0  0  0  0  0  0  0  0  0
  -18.9519   -6.9196   24.7480 C   0  0  0  0  0  0  0  0  0  0  0  0
  -20.9157   -6.0187   23.6668 C   0  0  0  0  0  0  0  0  0  0  0  0
  -24.6270  -11.6570   20.7857 C   0  0  0  0  0  0  0  0  0  0  0  0
  -28.9198  -15.6921   17.1137 C   0  0  0  0  0  0  0  0  0  0  0  0
  -27.2130  -17.1739   17.5260 C   0  0  0  0  0  0  0  0  0  0  0  0
  -25.2486  -13.7530   20.5503 C   0  0  0  0  0  0  0  0  0  0  0  0
  -27.7131  -21.4388   15.4424 C   0  0  0  0  0  0  0  0  0  0  0  0
  -26.5852  -20.3150   14.0925 C   0  0  0  0  0  0  0  0  0  0  0  0
  -22.8079  -13.4619   21.0051 C   0  0  0  0  0  0  0  0  0  0  0  0
  -29.9051  -14.7525   17.6644 C   0  0  0  0  0  0  0  0  0  0  0  0
  -29.8141  -27.4913   21.6652 C   0  0  0  0  0  0  0  0  0  0  0  0
  -27.4196  -29.5383   20.8913 C   0  0  0  0  0  0  0  0  0  0  0  0
  -24.8144  -30.3000   18.8226 C   0  0  0  0  0  0  0  0  0  0  0  0
  -34.0747  -27.6124   24.4741 C   0  0  0  0  0  0  0  0  0  0  0  0
  -30.2474  -27.8677   19.2103 C   0  0  0  0  0  0  0  0  0  0  0  0
  -27.3970  -27.2905   19.7458 C   0  0  0  0  0  0  0  0  0  0  0  0
  -32.7455  -28.3630   24.4739 C   0  0  0  0  0  0  0  0  0  0  0  0
  -30.1636  -12.5643   20.4727 C   0  0  0  0  0  0  0  0  0  0  0  0
  -31.5791  -27.3830   24.3956 C   0  0  0  0  0  0  0  0  0  0  0  0
  -28.7076  -12.2240   20.7957 C   0  0  0  0  0  0  0  0  0  0  0  0
  -30.3883  -12.7098   18.9697 C   0  0  0  0  0  0  0  0  0  0  0  0
  -28.0214  -13.3298   18.6262 C   0  0  0  0  0  0  0  0  0  0  0  0
  -31.6284  -26.5695   23.0967 C   0  0  1  0  0  0  0  0  0  0  0  0
  -29.5504  -28.3663   20.4724 C   0  0  1  0  0  0  0  0  0  0  0  0
  -27.7411  -13.2244   20.1342 C   0  0  1  0  0  0  0  0  0  0  0  0
  -26.3413  -17.8420   18.5379 C   0  0  0  0  0  0  0  0  0  0  0  0
  -25.8601  -19.7745   12.9287 C   0  0  0  0  0  0  0  0  0  0  0  0
  -23.0212  -32.0184   18.4639 C   0  0  0  0  0  0  0  0  0  0  0  0
  -25.8341  -28.3664   23.2201 C   0  0  0  0  0  0  0  0  0  0  0  0
  -23.7726  -29.4007   22.2460 C   0  0  0  0  0  0  0  0  0  0  0  0
  -25.6627  -30.8505   22.9865 C   0  0  0  0  0  0  0  0  0  0  0  0
  -25.8611  -31.0019   16.1448 C   0  0  0  0  0  0  0  0  0  0  0  0
  -26.0302  -18.4323   15.6770 C   0  0  0  0  0  0  0  0  0  0  0  0
  -28.5553  -22.5511   15.9944 C   0  0  0  0  0  0  0  0  0  1  0  0
  -25.9117  -29.4664   20.8855 C   0  0  1  0  0  0  0  0  0  0  0  0
  -24.4360  -31.5864   18.1111 C   0  0  2  0  0  0  0  0  0  0  0  0
  -25.3111  -29.5030   22.3192 C   0  0  0  0  0  0  0  0  0  0  0  0
  -25.9408  -11.5924   20.5539 N   0  0  0  0  0  0  0  0  0  0  0  0
  -28.1241  -16.3050   18.0186 N   0  0  0  0  0  0  0  0  0  0  0  0
  -27.2651  -21.4365   14.1525 N   0  0  0  0  0  0  0  0  0  0  0  0
  -27.3533  -20.3892   16.1843 N   0  0  0  0  0  0  0  0  0  0  0  0
  -26.2898  -12.8827   20.4147 N   0  0  0  0  0  0  0  0  0  0  0  0
  -26.6329  -19.6860   15.2974 N   0  0  0  0  0  0  0  0  0  0  0  0
  -29.4351  -13.6575   18.3935 N   0  0  0  0  0  0  0  0  0  0  0  0
  -28.0967  -28.4522   20.3189 N   0  0  0  0  0  0  0  0  0  0  0  0
  -25.4235  -15.0871   20.4401 N   0  0  0  0  0  0  0  0  0  0  0  0
  -21.7887  -12.5298   21.2430 N   0  0  0  0  0  0  0  0  0  0  0  0
  -31.1525  -27.3637   21.9844 N   0  0  0  0  0  0  0  0  0  0  0  0
  -25.4549  -30.5471   20.0185 N   0  0  0  0  0  0  0  0  0  0  0  0
  -24.5175  -31.4047   16.6342 N   0  3  0  0  0  0  0  0  0  0  0  0
  -22.5257  -14.6836   20.9665 O   0  0  0  0  0  0  0  0  0  0  0  0
  -31.0870  -15.0148   17.4467 O   0  0  0  0  0  0  0  0  0  0  0  0
  -28.8729  -26.9718   22.2532 O   0  0  0  0  0  0  0  0  0  0  0  0
  -27.9761  -30.5252   21.3792 O   0  0  0  0  0  0  0  0  0  0  0  0
  -24.5634  -29.1872   18.3652 O   0  0  0  0  0  0  0  0  0  0  0  0
  -21.6852   -6.9708   21.5931 O   0  0  0  0  0  0  0  0  0  0  0  0
  -27.7504  -23.3661   16.8454 O   0  0  0  0  0  0  0  0  0  1  0  0
  -18.0755   -6.9048   25.7609 F   0  0  0  0  0  0  0  0  0  0  0  0
  -21.9234   -5.1356   23.6469 F   0  0  0  0  0  0  0  0  0  0  0  0
  1  2  1  0  0  0  0
  1  5  2  0  0  0  0
  2  6  2  0  0  0  0
  3  9  2  0  0  0  0
  3 17  1  0  0  0  0
  4 10  1  0  0  0  0
  4 17  2  0  0  0  0
  5 19  1  0  0  0  0
  6 21  1  0  0  0  0
  7 11  2  0  0  0  0
  7 20  1  0  0  0  0
  8 14  2  0  0  0  0
  8 23  1  0  0  0  0
  9 24  1  0  0  0  0
 10 24  2  0  0  0  0
 11 25  1  0  0  0  0
 12 13  2  0  0  0  0
 12 26  1  0  0  0  0
 13 27  1  0  0  0  0
 14 30  1  0  0  0  0
 15 22  1  0  0  0  0
 15 25  2  0  0  0  0
 16 27  2  0  0  0  0
 16 28  1  0  0  0  0
 17 29  1  0  0  0  0
 18 29  1  0  0  0  0
 18 32  2  0  0  0  0
 18 35  1  0  0  0  0
 19 21  2  0  0  0  0
 19 40  1  0  0  0  0
 20 22  2  0  0  0  0
 20 41  1  0  0  0  0
 21 49  1  0  0  0  0
 22 42  1  0  0  0  0
 23 31  2  0  0  0  0
 23 59  1  0  0  0  0
 24 82  1  0  0  0  0
 25 83  1  0  0  0  0
 26 28  2  0  0  0  0
 26 82  1  0  0  0  0
 27 84  1  0  0  0  0
 28 85  1  0  0  0  0
 29 64  2  0  0  0  0
 30 36  1  0  0  0  0
 30 65  2  0  0  0  0
 31 52  1  0  0  0  0
 31 65  1  0  0  0  0
 32 68  1  0  0  0  0
 32 72  1  0  0  0  0
 33 60  1  0  0  0  0
 33 66  1  0  0  0  0
 33 67  2  0  0  0  0
 34 53  1  0  0  0  0
 34 66  2  0  0  0  0
 34 69  1  0  0  0  0
 35 73  1  0  0  0  0
 35 77  2  0  0  0  0
 36 70  1  0  0  0  0
 36 78  2  0  0  0  0
 37 50  1  0  0  0  0
 37 74  1  0  0  0  0
 37 79  2  0  0  0  0
 38 61  1  0  0  0  0
 38 71  1  0  0  0  0
 38 80  2  0  0  0  0
 39 62  1  0  0  0  0
 39 75  1  0  0  0  0
 39 81  2  0  0  0  0
 40 43  1  0  0  0  0
 41 50  1  0  0  0  0
 42 71  1  0  0  0  0
 43 45  1  0  0  0  0
 44 46  1  0  0  0  0
 44 47  1  0  0  0  0
 45 49  1  0  0  0  0
 46 51  1  0  0  0  0
 47 70  1  0  0  0  0
 48 51  1  0  0  0  0
 48 70  1  0  0  0  0
 49 74  1  0  0  0  0
 50 71  1  0  0  0  0
 51 68  1  0  0  0  0
 54 62  1  0  0  0  0
 55 63  1  0  0  0  0
 56 63  1  0  0  0  0
 57 63  1  0  0  0  0
 58 76  1  0  0  0  0
 59 69  1  0  0  0  0
 60 83  1  0  0  0  0
 61 63  1  0  0  0  0
 61 75  1  0  0  0  0
 62 76  1  0  0  0  0
 64 68  1  0  0  0  0
 67 69  1  0  0  0  0
M  CHG  1  76   1
M  ISO  4  30 100  36 100  60 101  83 101
M  END
> <Batch ID>
0050

> <Smiles>
CNC(C)C(=O)NC(C(=O)N1Cc2cc([101O:1][101CH2:1]c3nc(C)n(Cc4cc[100c:0]([100C:0](=O)N5CCCC(n6nc(-c7ccc(Oc8ccc(F)cc8F)cc7)c(C(N)=O)c6N)C5)nc4C)n3)ccc2CC1C(=O)NC1CCCc2ccccc21)C(C)(C)C

> <Shape>
0.237

> <Color>
0.170

> <Negative vol penalty>
0.000

$$$$

  -OEChem-04052317313D

 87 95  0     1  0  0  0  0  0999 V2000
  -16.5729  -30.6602   23.8870 C   0  0  0  0  0  0  0  0  0  0  0  0
  -17.9639  -30.6707   23.9077 C   0  0  0  0  0  0  0  0  0  0  0  0
  -23.8771  -12.3901   20.4248 C   0  0  0  0  0  0  0  0  0  0  0  0
  -22.7864  -13.9832   21.8772 C   0  0  0  0  0  0  0  0  0  0  0  0
  -15.8893  -29.4682   23.6508 C   0  0  0  0  0  0  0  0  0  0  0  0
  -18.6721  -29.4888   23.6933 C   0  0  0  0  0  0  0  0  0  0  0  0
  -24.0525  -28.8890   20.8302 C   0  0  0  0  0  0  0  0  0  0  0  0
  -23.3036  -11.3417   21.1441 C   0  0  0  0  0  0  0  0  0  0  0  0
  -22.2128  -12.9348   22.5965 C   0  0  0  0  0  0  0  0  0  0  0  0
  -25.3592  -28.7757   21.3030 C   0  0  0  0  0  0  0  0  0  0  0  0
  -20.3015   -9.7970   21.3292 C   0  0  0  0  0  0  0  0  0  0  0  0
  -19.7358   -8.7475   20.6053 C   0  0  0  0  0  0  0  0  0  0  0  0
  -25.2065  -26.3743   21.1318 C   0  0  0  0  0  0  0  0  0  0  0  0
  -21.2695   -7.2003   21.6498 C   0  0  0  0  0  0  0  0  0  0  0  0
  -28.9310  -25.8120   18.6709 C   0  0  0  0  0  0  0  0  0  0  0  0
  -23.6186  -13.7109   20.7914 C   0  0  0  0  0  0  0  0  0  0  0  0
  -23.6725  -15.4500   18.9258 C   0  0  0  0  0  0  0  0  0  0  0  0
  -16.5897  -28.2730   23.4238 C   0  0  0  0  0  0  0  0  0  0  0  0
  -23.3080  -27.7434   20.5144 C   0  0  0  0  0  0  0  0  0  0  0  0
  -17.9973  -28.2794   23.4551 C   0  0  0  0  0  0  0  0  0  0  0  0
  -23.8915  -26.4759   20.6527 C   0  0  0  0  0  0  0  0  0  0  0  0
  -22.4714  -11.6140   22.2299 C   0  0  0  0  0  0  0  0  0  0  0  0
  -25.9354  -27.5181   21.4566 C   0  0  0  0  0  0  0  0  0  0  0  0
  -21.3513   -9.5482   22.2134 C   0  0  0  0  0  0  0  0  0  0  0  0
  -20.2197   -7.4491   20.7657 C   0  0  0  0  0  0  0  0  0  0  0  0
  -21.8353   -8.2499   22.3737 C   0  0  0  0  0  0  0  0  0  0  0  0
  -24.2112  -14.7944   20.0491 C   0  0  0  0  0  0  0  0  0  0  0  0
  -30.0664  -25.0329   18.6333 C   0  0  0  0  0  0  0  0  0  0  0  0
  -30.8700  -26.1150   20.4808 C   0  0  0  0  0  0  0  0  0  0  0  0
  -29.7348  -26.8945   20.5179 C   0  0  0  0  0  0  0  0  0  0  0  0
  -24.6128  -16.3954   18.5963 C   0  0  0  0  0  0  0  0  0  0  0  0
  -22.4330  -15.2246   18.2414 C   0  0  0  0  0  0  0  0  0  0  0  0
  -20.6157  -26.4482   21.5995 C   0  0  0  0  0  0  0  0  0  0  0  0
  -21.0676  -24.3932   19.1307 C   0  0  0  0  0  0  0  0  0  0  0  0
  -28.0129  -20.4308   20.1562 C   0  0  0  0  0  0  0  0  0  0  0  0
  -23.2373  -22.9234   16.9447 C   0  0  0  0  0  0  0  0  0  0  0  0
  -15.8066  -27.0003   23.2197 C   0  0  0  0  0  0  0  0  0  0  0  0
  -21.9090  -27.8837   19.9801 C   0  0  0  0  0  0  0  0  0  0  0  0
  -23.1417  -25.2159   20.3083 C   0  0  0  0  0  0  0  0  0  0  0  0
  -16.6361  -25.8626   22.6299 C   0  0  0  0  0  0  0  0  0  0  0  0
  -29.3493  -17.0490   20.2223 C   0  0  0  0  0  0  0  0  0  0  0  0
  -17.9713  -25.7426   23.3578 C   0  0  0  0  0  0  0  0  0  0  0  0
  -28.0736  -16.2141   20.1200 C   0  0  0  0  0  0  0  0  0  0  0  0
  -29.1242  -18.3207   21.0361 C   0  0  0  0  0  0  0  0  0  0  0  0
  -26.7254  -18.3356   20.4279 C   0  0  0  0  0  0  0  0  0  0  0  0
  -18.8014  -27.0226   23.2023 C   0  0  1  0  0  0  0  0  0  0  0  0
  -21.0654  -26.6280   20.1772 C   0  0  1  0  0  0  0  0  0  0  0  0
  -26.9023  -17.0589   19.5890 C   0  0  2  0  0  0  0  0  0  0  0  0
  -31.9571  -26.2769   21.4876 C   0  0  0  0  0  0  0  0  0  0  0  0
  -23.3180  -21.2578   15.0693 C   0  0  0  0  0  0  0  0  0  0  0  0
  -28.3821  -21.4748   17.3262 C   0  0  0  0  0  0  0  0  0  0  0  0
  -30.1053  -21.4796   20.8527 C   0  0  0  0  0  0  0  0  0  0  0  0
  -20.8277  -22.1153   21.1466 C   0  0  0  0  0  0  0  0  0  0  0  0
  -21.8415  -20.5905   19.4392 C   0  0  0  0  0  0  0  0  0  0  0  0
  -19.6622  -21.7104   18.9714 C   0  0  0  0  0  0  0  0  0  0  0  0
  -24.2261  -24.9524   15.0305 C   0  0  0  0  0  0  0  0  0  0  0  0
  -31.0990  -21.7011   17.1536 C   0  0  0  0  0  0  0  0  0  0  0  0
  -29.5386  -27.9492   21.5798 C   0  0  0  0  0  0  0  0  0  0  0  0
  -30.2384  -23.9992   17.5761 C   0  0  0  0  0  0  0  0  0  0  0  0
  -28.1073  -28.4733   21.6189 C   0  0  0  0  0  0  0  0  0  1  0  0
  -21.7881  -23.0786   18.9521 C   0  0  1  0  0  0  0  0  0  0  0  0
  -23.1725  -22.7253   15.4410 C   0  0  2  0  0  0  0  0  0  0  0  0
  -29.0757  -22.0329   18.5672 C   0  0  1  0  0  0  0  0  0  0  0  0
  -29.3269  -20.9655   19.6449 C   0  0  2  0  0  0  0  0  0  0  0  0
  -21.0436  -21.8972   19.6358 C   0  0  0  0  0  0  0  0  0  0  0  0
  -28.7448  -26.7568   19.6139 N   0  0  0  0  0  0  0  0  0  0  0  0
  -25.4015  -15.2820   20.4090 N   0  0  0  0  0  0  0  0  0  0  0  0
  -31.0563  -25.1704   19.5376 N   0  0  0  0  0  0  0  0  0  0  0  0
  -25.6185  -16.2539   19.5067 N   0  0  0  0  0  0  0  0  0  0  0  0
  -21.7746  -25.4050   19.7957 N   0  0  0  0  0  0  0  0  0  0  0  0
  -27.9831  -19.0831   20.5154 N   0  0  0  0  0  0  0  0  0  0  0  0
  -24.6692  -17.3256   17.6196 N   0  0  0  0  0  0  0  0  0  0  0  0
  -21.5842  -14.2134   18.7120 N   0  0  0  0  0  0  0  0  0  0  0  0
  -19.4171  -27.0698   21.8935 N   0  0  0  0  0  0  0  0  0  0  0  0
  -21.9824  -22.9115   17.5159 N   0  0  0  0  0  0  0  0  0  0  0  0
  -24.2616  -23.4902   14.7703 N   0  3  0  0  0  0  0  0  0  0  0  0
  -30.3883  -22.6180   18.1149 N   0  3  1  0  0  0  0  0  0  0  0  0
  -22.0957  -15.8890   17.2323 O   0  0  0  0  0  0  0  0  0  0  0  0
  -21.3044  -25.7927   22.3726 O   0  0  0  0  0  0  0  0  0  0  0  0
  -19.9225  -24.5200   18.6899 O   0  0  0  0  0  0  0  0  0  0  0  0
  -27.0425  -21.1890   20.2307 O   0  0  0  0  0  0  0  0  0  0  0  0
  -24.2956  -23.0700   17.5522 O   0  0  0  0  0  0  0  0  0  0  0  0
  -21.9114  -10.5911   22.9319 O   0  0  0  0  0  0  0  0  0  0  0  0
  -27.2104  -27.4047   21.9186 O   0  0  0  0  0  0  0  0  0  1  0  0
  -19.6753   -6.4411   20.0716 F   0  0  0  0  0  0  0  0  0  0  0  0
  -22.8429   -8.0045   23.2225 F   0  0  0  0  0  0  0  0  0  0  0  0
  -30.0508  -19.9486   19.0935 F   0  0  0  0  0  0  0  0  0  0  0  0
  1  2  1  0  0  0  0
  1  5  2  0  0  0  0
  2  6  2  0  0  0  0
  3  8  2  0  0  0  0
  3 16  1  0  0  0  0
  4  9  1  0  0  0  0
  4 16  2  0  0  0  0
  5 18  1  0  0  0  0
  6 20  1  0  0  0  0
  7 10  2  0  0  0  0
  7 19  1  0  0  0  0
  8 22  1  0  0  0  0
  9 22  2  0  0  0  0
 10 23  1  0  0  0  0
 11 12  2  0  0  0  0
 11 24  1  0  0  0  0
 12 25  1  0  0  0  0
 13 21  1  0  0  0  0
 13 23  2  0  0  0  0
 14 25  2  0  0  0  0
 14 26  1  0  0  0  0
 15 28  1  0  0  0  0
 15 66  2  0  0  0  0
 16 27  1  0  0  0  0
 17 27  1  0  0  0  0
 17 31  2  0  0  0  0
 17 32  1  0  0  0  0
 18 20  2  0  0  0  0
 18 37  1  0  0  0  0
 19 21  2  0  0  0  0
 19 38  1  0  0  0  0
 20 46  1  0  0  0  0
 21 39  1  0  0  0  0
 22 83  1  0  0  0  0
 23 84  1  0  0  0  0
 24 26  2  0  0  0  0
 24 83  1  0  0  0  0
 25 85  1  0  0  0  0
 26 86  1  0  0  0  0
 27 67  2  0  0  0  0
 28 59  1  0  0  0  0
 28 68  2  0  0  0  0
 29 30  2  0  0  0  0
 29 49  1  0  0  0  0
 29 68  1  0  0  0  0
 30 58  1  0  0  0  0
 30 66  1  0  0  0  0
 31 69  1  0  0  0  0
 31 72  1  0  0  0  0
 32 73  1  0  0  0  0
 32 78  2  0  0  0  0
 33 47  1  0  0  0  0
 33 74  1  0  0  0  0
 33 79  2  0  0  0  0
 34 61  1  0  0  0  0
 34 70  1  0  0  0  0
 34 80  2  0  0  0  0
 35 64  1  0  0  0  0
 35 71  1  0  0  0  0
 35 81  2  0  0  0  0
 36 62  1  0  0  0  0
 36 75  1  0  0  0  0
 36 82  2  0  0  0  0
 37 40  1  0  0  0  0
 38 47  1  0  0  0  0
 39 70  1  0  0  0  0
 40 42  1  0  0  0  0
 41 43  1  0  0  0  0
 41 44  1  0  0  0  0
 42 46  1  0  0  0  0
 43 48  1  0  0  0  0
 44 71  1  0  0  0  0
 45 48  1  0  0  0  0
 45 71  1  0  0  0  0
 46 74  1  0  0  0  0
 47 70  1  0  0  0  0
 48 69  1  0  0  0  0
 50 62  1  0  0  0  0
 51 63  1  0  0  0  0
 52 64  1  0  0  0  0
 53 65  1  0  0  0  0
 54 65  1  0  0  0  0
 55 65  1  0  0  0  0
 56 76  1  0  0  0  0
 57 77  1  0  0  0  0
 58 60  1  0  0  0  0
 59 77  1  0  0  0  0
 60 84  1  0  0  0  0
 61 65  1  0  0  0  0
 61 75  1  0  0  0  0
 62 76  1  0  0  0  0
 63 64  1  0  0  0  0
 63 77  1  0  0  0  0
 64 87  1  0  0  0  0
 67 69  1  0  0  0  0
M  CHG  2  76   1  77   1
M  ISO  4  35 100  60 101  64 100  84 101
M  END
> <Batch ID>
0050

> <Smiles>
CNC(C)C(=O)NC(C(=O)N1Cc2cc([101O:1][101CH2:1]Cc3ncc(CN(C)C(C)[100C:0](C)(F)[100C:0](=O)N4CCCC(n5nc(-c6ccc(Oc7ccc(F)cc7F)cc6)c(C(N)=O)c5N)C4)nc3C)ccc2CC1C(=O)NC1CCCc2ccccc21)C(C)(C)C

> <Shape>
0.256

> <Color>
0.064

> <Negative vol penalty>
0.000

$$$$

  -OEChem-04052317313D

 86 94  0     1  0  0  0  0  0999 V2000
  -23.7146  -27.7512   14.2278 C   0  0  0  0  0  0  0  0  0  0  0  0
  -24.3473  -26.8214   15.0468 C   0  0  0  0  0  0  0  0  0  0  0  0
  -23.0735   -9.8705   19.9434 C   0  0  0  0  0  0  0  0  0  0  0  0
  -23.8367   -9.8790   22.2356 C   0  0  0  0  0  0  0  0  0  0  0  0
  -22.8345  -28.6806   14.7806 C   0  0  0  0  0  0  0  0  0  0  0  0
  -24.1011  -26.8213   16.4193 C   0  0  0  0  0  0  0  0  0  0  0  0
  -23.8738  -21.9457   20.1182 C   0  0  0  0  0  0  0  0  0  0  0  0
  -22.3300   -8.7175   20.1952 C   0  0  0  0  0  0  0  0  0  0  0  0
  -23.0932   -8.7260   22.4875 C   0  0  0  0  0  0  0  0  0  0  0  0
  -24.8093  -21.3807   20.9839 C   0  0  0  0  0  0  0  0  0  0  0  0
  -19.8659   -7.9286   23.0952 C   0  0  0  0  0  0  0  0  0  0  0  0
  -19.1106   -7.8894   24.2672 C   0  0  0  0  0  0  0  0  0  0  0  0
  -23.8307  -22.5950   22.8243 C   0  0  0  0  0  0  0  0  0  0  0  0
  -20.3531   -5.9525   25.0032 C   0  0  0  0  0  0  0  0  0  0  0  0
  -29.7240  -17.4551   24.0592 C   0  0  0  0  0  0  0  0  0  0  0  0
  -28.6311  -19.6236   22.9499 C   0  0  0  0  0  0  0  0  0  0  0  0
  -23.8269  -10.4512   20.9636 C   0  0  0  0  0  0  0  0  0  0  0  0
  -24.1685  -12.9763   20.8413 C   0  0  0  0  0  0  0  0  0  0  0  0
  -22.5700  -28.6856   16.1592 C   0  0  0  0  0  0  0  0  0  0  0  0
  -22.9150  -22.8495   20.5980 C   0  0  0  0  0  0  0  0  0  0  0  0
  -23.2177  -27.7525   16.9912 C   0  0  0  0  0  0  0  0  0  0  0  0
  -22.8825  -23.1681   21.9631 C   0  0  0  0  0  0  0  0  0  0  0  0
  -22.3398   -8.1453   21.4672 C   0  0  0  0  0  0  0  0  0  0  0  0
  -24.7896  -21.7075   22.3367 C   0  0  0  0  0  0  0  0  0  0  0  0
  -20.8648   -6.9796   22.8771 C   0  0  0  0  0  0  0  0  0  0  0  0
  -19.3543   -6.9014   25.2212 C   0  0  0  0  0  0  0  0  0  0  0  0
  -21.1084   -5.9916   23.8311 C   0  0  0  0  0  0  0  0  0  0  0  0
  -24.5956  -11.6419   20.7039 C   0  0  0  0  0  0  0  0  0  0  0  0
  -29.9487  -17.7668   22.7363 C   0  0  0  0  0  0  0  0  0  0  0  0
  -28.4057  -19.3116   24.2725 C   0  0  0  0  0  0  0  0  0  0  0  0
  -25.2601  -13.7256   20.4760 C   0  0  0  0  0  0  0  0  0  0  0  0
  -22.8986  -13.4924   21.2617 C   0  0  0  0  0  0  0  0  0  0  0  0
  -22.2270  -25.9006   20.0313 C   0  0  0  0  0  0  0  0  0  0  0  0
  -19.6971  -25.2850   21.9659 C   0  0  0  0  0  0  0  0  0  0  0  0
  -18.3472  -23.3739   24.4503 C   0  0  0  0  0  0  0  0  0  0  0  0
  -30.7441  -14.7448   20.6558 C   0  0  0  0  0  0  0  0  0  0  0  0
  -21.6473  -29.7400   16.7175 C   0  0  0  0  0  0  0  0  0  0  0  0
  -21.8960  -23.4297   19.6559 C   0  0  0  0  0  0  0  0  0  0  0  0
  -21.8608  -24.1174   22.5318 C   0  0  0  0  0  0  0  0  0  0  0  0
  -21.1536  -29.4319   18.1288 C   0  0  0  0  0  0  0  0  0  0  0  0
  -29.6031  -12.3587   18.2723 C   0  0  0  0  0  0  0  0  0  0  0  0
  -22.3135  -28.9897   19.0154 C   0  0  0  0  0  0  0  0  0  0  0  0
  -28.1663  -12.0652   18.7075 C   0  0  0  0  0  0  0  0  0  0  0  0
  -30.5220  -12.5803   19.4717 C   0  0  0  0  0  0  0  0  0  0  0  0
  -28.6222  -13.3123   20.8605 C   0  0  0  0  0  0  0  0  0  0  0  0
  -22.9575  -27.7047   18.4812 C   0  0  1  0  0  0  0  0  0  0  0  0
  -21.2887  -24.7344   20.1623 C   0  0  1  0  0  0  0  0  0  0  0  0
  -27.6464  -13.1369   19.6844 C   0  0  2  0  0  0  0  0  0  0  0  0
  -25.8378  -18.5918   25.6578 C   0  0  0  0  0  0  0  0  0  0  0  0
  -16.2765  -23.1354   25.8476 C   0  0  0  0  0  0  0  0  0  0  0  0
  -27.9901  -23.9101   25.6467 C   0  0  0  0  0  0  0  0  0  0  0  0
  -29.3803  -21.9944   26.4755 C   0  0  0  0  0  0  0  0  0  0  0  0
  -20.5549  -27.6855   23.6427 C   0  0  0  0  0  0  0  0  0  0  0  0
  -19.0806  -26.8400   25.4811 C   0  0  0  0  0  0  0  0  0  0  0  0
  -18.0872  -27.4897   23.2871 C   0  0  0  0  0  0  0  0  0  0  0  0
  -17.8246  -20.6498   23.4184 C   0  0  0  0  0  0  0  0  0  0  0  0
  -30.8117  -16.8963   21.8911 C   0  0  0  0  0  0  0  0  0  0  0  0
  -26.7915  -19.6360   26.1297 C   0  0  0  0  0  0  0  0  0  0  0  0
  -26.0881  -21.9359   24.3160 C   0  0  0  0  0  0  0  0  0  1  0  0
  -19.4439  -25.3627   23.4521 C   0  0  1  0  0  0  0  0  0  0  0  0
  -16.9935  -22.6992   24.5794 C   0  0  2  0  0  0  0  0  0  0  0  0
  -28.0007  -22.4082   25.9534 C   0  0  0  0  0  0  0  0  0  0  0  0
  -27.5173  -21.5818   24.7385 C   0  0  1  0  0  0  0  0  0  0  0  0
  -19.3123  -26.8280   23.9550 C   0  0  0  0  0  0  0  0  0  0  0  0
  -29.4066  -18.8568   22.1580 N   0  0  0  0  0  0  0  0  0  0  0  0
  -28.9482  -18.2218   24.8509 N   0  0  0  0  0  0  0  0  0  0  0  0
  -25.8599  -11.5458   20.2839 N   0  0  0  0  0  0  0  0  0  0  0  0
  -26.2365  -12.8293   20.1541 N   0  0  0  0  0  0  0  0  0  0  0  0
  -20.8897  -24.6634   21.5694 N   0  0  0  0  0  0  0  0  0  0  0  0
  -29.9727  -13.6095   20.3578 N   0  0  0  0  0  0  0  0  0  0  0  0
  -25.4704  -15.0570   20.4018 N   0  0  0  0  0  0  0  0  0  0  0  0
  -21.8872  -12.5834   21.6011 N   0  0  0  0  0  0  0  0  0  0  0  0
  -22.1452  -26.5549   18.8169 N   0  0  0  0  0  0  0  0  0  0  0  0
  -18.2707  -24.5348   23.7101 N   0  0  0  0  0  0  0  0  0  0  0  0
  -30.1461  -15.6742   21.4981 N   0  0  0  0  0  0  0  0  0  0  0  0
  -27.5880  -20.1602   25.0241 N   0  0  3  0  0  0  0  0  0  0  0  0
  -17.1544  -21.2181   24.6163 N   0  3  0  0  0  0  0  0  0  0  0  0
  -22.6624  -14.7230   21.3186 O   0  0  0  0  0  0  0  0  0  0  0  0
  -22.9692  -26.1866   20.9635 O   0  0  0  0  0  0  0  0  0  0  0  0
  -18.8639  -25.7520   21.1852 O   0  0  0  0  0  0  0  0  0  0  0  0
  -19.3695  -22.9189   24.9586 O   0  0  0  0  0  0  0  0  0  0  0  0
  -31.8794  -14.9200   20.2004 O   0  0  0  0  0  0  0  0  0  0  0  0
  -21.6143   -7.0203   21.7134 O   0  0  0  0  0  0  0  0  0  0  0  0
  -25.7020  -21.1579   23.1837 O   0  0  0  0  0  0  0  0  0  1  0  0
  -18.6299   -6.8649   26.3473 F   0  0  0  0  0  0  0  0  0  0  0  0
  -22.0674   -5.0780   23.6277 F   0  0  0  0  0  0  0  0  0  0  0  0
  1  2  1  0  0  0  0
  1  5  2  0  0  0  0
  2  6  2  0  0  0  0
  3  8  2  0  0  0  0
  3 17  1  0  0  0  0
  4  9  1  0  0  0  0
  4 17  2  0  0  0  0
  5 19  1  0  0  0  0
  6 21  1  0  0  0  0
  7 10  2  0  0  0  0
  7 20  1  0  0  0  0
  8 23  1  0  0  0  0
  9 23  2  0  0  0  0
 10 24  1  0  0  0  0
 11 12  2  0  0  0  0
 11 25  1  0  0  0  0
 12 26  1  0  0  0  0
 13 22  1  0  0  0  0
 13 24  2  0  0  0  0
 14 26  2  0  0  0  0
 14 27  1  0  0  0  0
 15 29  2  0  0  0  0
 15 66  1  0  0  0  0
 16 30  1  0  0  0  0
 16 65  2  0  0  0  0
 17 28  1  0  0  0  0
 18 28  1  0  0  0  0
 18 31  2  0  0  0  0
 18 32  1  0  0  0  0
 19 21  2  0  0  0  0
 19 37  1  0  0  0  0
 20 22  2  0  0  0  0
 20 38  1  0  0  0  0
 21 46  1  0  0  0  0
 22 39  1  0  0  0  0
 23 83  1  0  0  0  0
 24 84  1  0  0  0  0
 25 27  2  0  0  0  0
 25 83  1  0  0  0  0
 26 85  1  0  0  0  0
 27 86  1  0  0  0  0
 28 67  2  0  0  0  0
 29 57  1  0  0  0  0
 29 65  1  0  0  0  0
 30 66  2  0  0  0  0
 30 76  1  0  0  0  0
 31 68  1  0  0  0  0
 31 71  1  0  0  0  0
 32 72  1  0  0  0  0
 32 78  2  0  0  0  0
 33 47  1  0  0  0  0
 33 73  1  0  0  0  0
 33 79  2  0  0  0  0
 34 60  1  0  0  0  0
 34 69  1  0  0  0  0
 34 80  2  0  0  0  0
 35 61  1  0  0  0  0
 35 74  1  0  0  0  0
 35 81  2  0  0  0  0
 36 70  1  0  0  0  0
 36 75  1  0  0  0  0
 36 82  2  0  0  0  0
 37 40  1  0  0  0  0
 38 47  1  0  0  0  0
 39 69  1  0  0  0  0
 40 42  1  0  0  0  0
 41 43  1  0  0  0  0
 41 44  1  0  0  0  0
 42 46  1  0  0  0  0
 43 48  1  0  0  0  0
 44 70  1  0  0  0  0
 45 48  1  0  0  0  0
 45 70  1  0  0  0  0
 46 73  1  0  0  0  0
 47 69  1  0  0  0  0
 48 68  1  0  0  0  0
 49 58  1  0  0  0  0
 50 61  1  0  0  0  0
 51 62  1  0  0  0  0
 52 62  1  0  0  0  0
 53 64  1  0  0  0  0
 54 64  1  0  0  0  0
 55 64  1  0  0  0  0
 56 77  1  0  0  0  0
 57 75  1  0  0  0  0
 58 76  1  0  0  0  0
 59 63  1  0  0  0  0
 59 84  1  0  0  0  0
 60 64  1  0  0  0  0
 60 74  1  0  0  0  0
 61 77  1  0  0  0  0
 62 63  1  0  0  0  0
 63 76  1  0  0  0  0
 67 68  1  0  0  0  0
M  CHG  1  77   1
M  ISO  4  36 100  59 101  75 100  84 101
M  END
> <Batch ID>
0050

> <Smiles>
CCN(c1cnc(C[100NH:0][100C:0](=O)N2CCCC(n3nc(-c4ccc(Oc5ccc(F)cc5F)cc4)c(C(N)=O)c3N)C2)cn1)C(C(C)C)[101CH2:1][101O:1]c1ccc2c(c1)CN(C(=O)C(NC(=O)C(C)NC)C(C)(C)C)C(C(=O)NC1CCCc3ccccc31)C2

> <Shape>
0.208

> <Color>
0.188

> <Negative vol penalty>
0.000

$$$$

  -OEChem-04052317313D

 86 94  0     1  0  0  0  0  0999 V2000
  -32.0155  -30.2484   25.1219 C   0  0  0  0  0  0  0  0  0  0  0  0
  -31.4637  -29.3121   24.2533 C   0  0  0  0  0  0  0  0  0  0  0  0
  -22.7701  -10.6351   21.3763 C   0  0  0  0  0  0  0  0  0  0  0  0
  -24.6272   -9.1091   21.6201 C   0  0  0  0  0  0  0  0  0  0  0  0
  -31.2106  -30.8752   26.0722 C   0  0  0  0  0  0  0  0  0  0  0  0
  -30.1069  -29.0013   24.3354 C   0  0  0  0  0  0  0  0  0  0  0  0
  -26.3675  -27.5845   19.6969 C   0  0  0  0  0  0  0  0  0  0  0  0
  -21.8880   -9.5553   21.3365 C   0  0  0  0  0  0  0  0  0  0  0  0
  -23.7452   -8.0293   21.5804 C   0  0  0  0  0  0  0  0  0  0  0  0
  -25.9107  -26.3649   19.1992 C   0  0  0  0  0  0  0  0  0  0  0  0
  -21.9476   -4.8858   21.9056 C   0  0  0  0  0  0  0  0  0  0  0  0
  -22.1249   -3.8679   22.8426 C   0  0  0  0  0  0  0  0  0  0  0  0
  -23.8998  -26.5888   20.5128 C   0  0  0  0  0  0  0  0  0  0  0  0
  -21.7900   -5.4565   24.6318 C   0  0  0  0  0  0  0  0  0  0  0  0
  -24.1397  -10.4120   21.5180 C   0  0  0  0  0  0  0  0  0  0  0  0
  -25.4816  -12.2324   22.6983 C   0  0  0  0  0  0  0  0  0  0  0  0
  -29.8412  -30.5790   26.1596 C   0  0  0  0  0  0  0  0  0  0  0  0
  -25.5974  -28.3114   20.6162 C   0  0  0  0  0  0  0  0  0  0  0  0
  -29.2832  -29.6238   25.2887 C   0  0  0  0  0  0  0  0  0  0  0  0
  -24.3479  -27.8186   21.0187 C   0  0  0  0  0  0  0  0  0  0  0  0
  -22.3755   -8.2524   21.4386 C   0  0  0  0  0  0  0  0  0  0  0  0
  -24.6781  -25.8655   19.6094 C   0  0  0  0  0  0  0  0  0  0  0  0
  -21.6916   -6.1892   22.3317 C   0  0  0  0  0  0  0  0  0  0  0  0
  -22.0460   -4.1532   24.2057 C   0  0  0  0  0  0  0  0  0  0  0  0
  -21.6127   -6.4745   23.6948 C   0  0  0  0  0  0  0  0  0  0  0  0
  -25.0515  -11.5270   21.5585 C   0  0  0  0  0  0  0  0  0  0  0  0
  -26.3345  -13.1906   22.2075 C   0  0  0  0  0  0  0  0  0  0  0  0
  -25.1408  -12.0387   24.0774 C   0  0  0  0  0  0  0  0  0  0  0  0
  -26.0064  -29.2772   23.6168 C   0  0  0  0  0  0  0  0  0  0  0  0
  -23.2042  -30.8239   23.0896 C   0  0  0  0  0  0  0  0  0  0  0  0
  -20.2933  -31.0229   21.3194 C   0  0  0  0  0  0  0  0  0  0  0  0
  -27.7052  -17.0568   18.5444 C   0  0  0  0  0  0  0  0  0  0  0  0
  -29.0211  -31.2474   27.2344 C   0  0  0  0  0  0  0  0  0  0  0  0
  -26.0922  -29.6383   21.1232 C   0  0  0  0  0  0  0  0  0  0  0  0
  -23.4739  -28.5702   21.9881 C   0  0  0  0  0  0  0  0  0  0  0  0
  -27.5154  -31.1378   27.0084 C   0  0  0  0  0  0  0  0  0  0  0  0
  -28.3644  -13.7728   17.6203 C   0  0  0  0  0  0  0  0  0  0  0  0
  -27.0024  -20.1414   20.5922 C   0  0  0  0  0  0  0  0  0  0  0  0
  -27.1340  -29.7082   26.6376 C   0  0  0  0  0  0  0  0  0  0  0  0
  -27.5984  -12.9402   18.6474 C   0  0  0  0  0  0  0  0  0  0  0  0
  -25.5652  -20.6390   20.4417 C   0  0  0  0  0  0  0  0  0  0  0  0
  -24.8104  -18.1689   20.5557 C   0  0  0  0  0  0  0  0  0  0  0  0
  -27.5526  -14.9893   17.1911 C   0  0  0  0  0  0  0  0  0  0  0  0
  -27.4979  -19.3543   19.3790 C   0  0  0  0  0  0  0  0  0  0  0  0
  -25.4315  -17.9403   19.1783 C   0  0  0  0  0  0  0  0  0  0  0  0
  -26.3780  -15.0538   19.3653 C   0  0  0  0  0  0  0  0  0  0  0  0
  -27.8105  -29.2781   25.3303 C   0  0  1  0  0  0  0  0  0  0  0  0
  -25.4567  -30.0461   22.4488 C   0  0  1  0  0  0  0  0  0  0  0  0
  -27.1537  -13.8078   19.8377 C   0  0  1  0  0  0  0  0  0  0  0  0
  -24.4749  -19.6398   20.8949 C   0  0  2  0  0  0  0  0  0  0  0  0
  -18.1844  -32.3714   21.1410 C   0  0  0  0  0  0  0  0  0  0  0  0
  -21.2263  -21.7040   20.3152 C   0  0  0  0  0  0  0  0  0  0  0  0
  -22.1268  -29.4665   25.6009 C   0  0  0  0  0  0  0  0  0  0  0  0
  -19.8156  -30.0717   24.8522 C   0  0  0  0  0  0  0  0  0  0  0  0
  -21.4736  -31.8676   25.3510 C   0  0  0  0  0  0  0  0  0  0  0  0
  -20.8935  -31.8078   18.5296 C   0  0  0  0  0  0  0  0  0  0  0  0
  -23.1422  -20.0390   20.2269 C   0  0  0  0  0  0  0  0  0  0  0  0
  -23.5733  -22.4263   19.6593 C   0  0  0  0  0  0  0  0  0  0  0  0
  -23.3829  -23.9050   19.9771 C   0  0  0  0  0  0  0  0  0  1  0  0
  -21.7442  -30.4779   23.2564 C   0  0  1  0  0  0  0  0  0  0  0  0
  -19.6078  -32.1925   20.6362 C   0  0  2  0  0  0  0  0  0  0  0  0
  -22.7257  -21.4821   20.5353 C   0  0  1  0  0  0  0  0  0  0  0  0
  -24.2804  -19.7460   22.4230 C   0  0  0  0  0  0  0  0  0  0  0  0
  -21.3072  -30.4556   24.7483 C   0  0  0  0  0  0  0  0  0  0  0  0
  -25.5868  -11.9971   20.4287 N   0  0  0  0  0  0  0  0  0  0  0  0
  -26.3620  -13.0082   20.8561 N   0  0  0  0  0  0  0  0  0  0  0  0
  -24.0044  -29.8598   22.4603 N   0  0  0  0  0  0  0  0  0  0  0  0
  -26.9033  -18.0286   19.1873 N   0  0  0  0  0  0  0  0  0  0  0  0
  -27.1421  -15.7870   18.3473 N   0  0  0  0  0  0  0  0  0  0  0  0
  -27.0561  -14.1630   22.8043 N   0  0  0  0  0  0  0  0  0  0  0  0
  -24.2499  -11.0082   24.4072 N   0  0  0  0  0  0  0  0  0  0  0  0
  -27.1232  -29.8517   24.1931 N   0  0  0  0  0  0  0  0  0  0  0  0
  -21.0033  -31.4254   22.4307 N   0  0  0  0  0  0  0  0  0  0  0  0
  -19.5600  -31.9760   19.1625 N   0  3  0  0  0  0  0  0  0  0  0  0
  -25.5997  -12.7685   24.9887 O   0  0  0  0  0  0  0  0  0  0  0  0
  -25.4570  -28.2404   23.9700 O   0  0  0  0  0  0  0  0  0  0  0  0
  -23.6179  -31.9126   23.4961 O   0  0  0  0  0  0  0  0  0  0  0  0
  -20.2045  -29.8674   20.9103 O   0  0  0  0  0  0  0  0  0  0  0  0
  -28.8540  -17.3166   18.1631 O   0  0  0  0  0  0  0  0  0  0  0  0
  -21.5151   -7.1985   21.4002 O   0  0  0  0  0  0  0  0  0  0  0  0
  -24.2271  -24.6669   19.1223 O   0  0  0  0  0  0  0  0  0  1  0  0
  -22.2147   -3.1753   25.1054 F   0  0  0  0  0  0  0  0  0  0  0  0
  -21.3659   -7.7244   24.1101 F   0  0  0  0  0  0  0  0  0  0  0  0
  -23.9039  -20.9890   22.7375 F   0  0  0  0  0  0  0  0  0  0  0  0
  -23.3384  -18.8817   22.8120 F   0  0  0  0  0  0  0  0  0  0  0  0
  -25.4316  -19.4589   23.0381 F   0  0  0  0  0  0  0  0  0  0  0  0
  1  2  1  0  0  0  0
  1  5  2  0  0  0  0
  2  6  2  0  0  0  0
  3  8  2  0  0  0  0
  3 15  1  0  0  0  0
  4  9  1  0  0  0  0
  4 15  2  0  0  0  0
  5 17  1  0  0  0  0
  6 19  1  0  0  0  0
  7 10  2  0  0  0  0
  7 18  1  0  0  0  0
  8 21  1  0  0  0  0
  9 21  2  0  0  0  0
 10 22  1  0  0  0  0
 11 12  2  0  0  0  0
 11 23  1  0  0  0  0
 12 24  1  0  0  0  0
 13 20  1  0  0  0  0
 13 22  2  0  0  0  0
 14 24  2  0  0  0  0
 14 25  1  0  0  0  0
 15 26  1  0  0  0  0
 16 26  1  0  0  0  0
 16 27  2  0  0  0  0
 16 28  1  0  0  0  0
 17 19  2  0  0  0  0
 17 33  1  0  0  0  0
 18 20  2  0  0  0  0
 18 34  1  0  0  0  0
 19 47  1  0  0  0  0
 20 35  1  0  0  0  0
 21 80  1  0  0  0  0
 22 81  1  0  0  0  0
 23 25  2  0  0  0  0
 23 80  1  0  0  0  0
 24 82  1  0  0  0  0
 25 83  1  0  0  0  0
 26 65  2  0  0  0  0
 27 66  1  0  0  0  0
 27 70  1  0  0  0  0
 28 71  1  0  0  0  0
 28 75  2  0  0  0  0
 29 48  1  0  0  0  0
 29 72  1  0  0  0  0
 29 76  2  0  0  0  0
 30 60  1  0  0  0  0
 30 67  1  0  0  0  0
 30 77  2  0  0  0  0
 31 61  1  0  0  0  0
 31 73  1  0  0  0  0
 31 78  2  0  0  0  0
 32 68  1  0  0  0  0
 32 69  1  0  0  0  0
 32 79  2  0  0  0  0
 33 36  1  0  0  0  0
 34 48  1  0  0  0  0
 35 67  1  0  0  0  0
 36 39  1  0  0  0  0
 37 40  1  0  0  0  0
 37 43  1  0  0  0  0
 38 41  1  0  0  0  0
 38 44  1  0  0  0  0
 39 47  1  0  0  0  0
 40 49  1  0  0  0  0
 41 50  1  0  0  0  0
 42 45  1  0  0  0  0
 42 50  1  0  0  0  0
 43 69  1  0  0  0  0
 44 68  1  0  0  0  0
 45 68  1  0  0  0  0
 46 49  1  0  0  0  0
 46 69  1  0  0  0  0
 47 72  1  0  0  0  0
 48 67  1  0  0  0  0
 49 66  1  0  0  0  0
 50 57  1  0  0  0  0
 50 63  1  0  0  0  0
 51 61  1  0  0  0  0
 52 62  1  0  0  0  0
 53 64  1  0  0  0  0
 54 64  1  0  0  0  0
 55 64  1  0  0  0  0
 56 74  1  0  0  0  0
 57 62  1  0  0  0  0
 58 59  1  0  0  0  0
 58 62  1  0  0  0  0
 59 81  1  0  0  0  0
 60 64  1  0  0  0  0
 60 73  1  0  0  0  0
 61 74  1  0  0  0  0
 63 84  1  0  0  0  0
 63 85  1  0  0  0  0
 63 86  1  0  0  0  0
 65 66  1  0  0  0  0
M  CHG  1  74   1
M  ISO  4  32 100  59 101  68 100  81 101
M  END
> <Batch ID>
0050

> <Smiles>
CNC(C)C(=O)NC(C(=O)N1Cc2cc([101O:1][101CH2:1]CC(C)CC3(C(F)(F)F)CCC[100N:0]([100C:0](=O)N4CCCC(n5nc(-c6ccc(Oc7ccc(F)cc7F)cc6)c(C(N)=O)c5N)C4)CC3)ccc2CC1C(=O)NC1CCCc2ccccc21)C(C)(C)C

> <Shape>
0.218

> <Color>
0.102

> <Negative vol penalty>
0.000

$$$$

  -OEChem-04052317313D

 89 97  0     1  0  0  0  0  0999 V2000
  -31.3188  -27.4397   23.2293 C   0  0  0  0  0  0  0  0  0  0  0  0
  -30.3826  -27.8650   22.2922 C   0  0  0  0  0  0  0  0  0  0  0  0
  -24.6967  -13.5888   21.8488 C   0  0  0  0  0  0  0  0  0  0  0  0
  -26.8625  -13.2073   20.8483 C   0  0  0  0  0  0  0  0  0  0  0  0
  -30.9529  -26.5190   24.2103 C   0  0  0  0  0  0  0  0  0  0  0  0
  -29.0800  -27.3689   22.3350 C   0  0  0  0  0  0  0  0  0  0  0  0
  -25.5985  -30.9989   21.7457 C   0  0  0  0  0  0  0  0  0  0  0  0
  -24.1805  -12.4997   21.1467 C   0  0  0  0  0  0  0  0  0  0  0  0
  -26.3463  -12.1180   20.1463 C   0  0  0  0  0  0  0  0  0  0  0  0
  -25.3726  -31.4601   20.4495 C   0  0  0  0  0  0  0  0  0  0  0  0
  -24.2071   -9.1286   21.4080 C   0  0  0  0  0  0  0  0  0  0  0  0
  -23.3990   -8.2314   22.1063 C   0  0  0  0  0  0  0  0  0  0  0  0
  -23.4089  -30.0667   20.3026 C   0  0  0  0  0  0  0  0  0  0  0  0
  -30.7481  -24.7971   18.2878 C   0  0  0  0  0  0  0  0  0  0  0  0
  -28.3480  -24.8105   18.1343 C   0  0  0  0  0  0  0  0  0  0  0  0
  -21.5732   -8.6994   20.5948 C   0  0  0  0  0  0  0  0  0  0  0  0
  -26.0377  -13.9427   21.6995 C   0  0  0  0  0  0  0  0  0  0  0  0
  -27.1599  -15.0541   23.7027 C   0  0  0  0  0  0  0  0  0  0  0  0
  -29.6426  -26.0187   24.2710 C   0  0  0  0  0  0  0  0  0  0  0  0
  -24.7360  -30.0584   22.3270 C   0  0  0  0  0  0  0  0  0  0  0  0
  -28.6966  -26.4397   23.3170 C   0  0  0  0  0  0  0  0  0  0  0  0
  -23.6246  -29.5972   21.6072 C   0  0  0  0  0  0  0  0  0  0  0  0
  -29.5352  -24.1204   18.3525 C   0  0  0  0  0  0  0  0  0  0  0  0
  -25.0052  -11.7642   20.2955 C   0  0  0  0  0  0  0  0  0  0  0  0
  -24.2793  -30.9918   19.7267 C   0  0  0  0  0  0  0  0  0  0  0  0
  -23.6982   -9.8113   20.3032 C   0  0  0  0  0  0  0  0  0  0  0  0
  -22.0821   -8.0167   21.6997 C   0  0  0  0  0  0  0  0  0  0  0  0
  -22.3813   -9.5967   19.8966 C   0  0  0  0  0  0  0  0  0  0  0  0
  -26.5714  -15.0680   22.4240 C   0  0  0  0  0  0  0  0  0  0  0  0
  -30.7200  -26.1530   18.0038 C   0  0  0  0  0  0  0  0  0  0  0  0
  -28.4272  -26.1658   17.8574 C   0  0  0  0  0  0  0  0  0  0  0  0
  -27.5003  -16.3637   23.9383 C   0  0  0  0  0  0  0  0  0  0  0  0
  -27.3792  -13.9556   24.5976 C   0  0  0  0  0  0  0  0  0  0  0  0
  -25.0610  -27.0912   23.4197 C   0  0  0  0  0  0  0  0  0  0  0  0
  -28.6985  -20.8097   20.1869 C   0  0  0  0  0  0  0  0  0  0  0  0
  -21.9907  -27.5221   24.3736 C   0  0  0  0  0  0  0  0  0  0  0  0
  -19.0321  -29.1716   23.9579 C   0  0  0  0  0  0  0  0  0  0  0  0
  -29.3066  -24.9893   25.3207 C   0  0  0  0  0  0  0  0  0  0  0  0
  -24.9784  -29.5910   23.7360 C   0  0  0  0  0  0  0  0  0  0  0  0
  -22.6572  -28.6026   22.1933 C   0  0  0  0  0  0  0  0  0  0  0  0
  -27.8064  -24.7964   25.5265 C   0  0  0  0  0  0  0  0  0  0  0  0
  -26.2120  -20.8314   22.8410 C   0  0  0  0  0  0  0  0  0  0  0  0
  -27.0952  -24.6701   24.1829 C   0  0  0  0  0  0  0  0  0  0  0  0
  -26.0593  -19.3385   23.1289 C   0  0  0  0  0  0  0  0  0  0  0  0
  -26.4604  -21.0945   21.3580 C   0  0  0  0  0  0  0  0  0  0  0  0
  -27.4784  -18.8550   21.0880 C   0  0  0  0  0  0  0  0  0  0  0  0
  -27.2673  -25.9434   23.3458 C   0  0  1  0  0  0  0  0  0  0  0  0
  -24.3262  -28.2458   24.0399 C   0  0  1  0  0  0  0  0  0  0  0  0
  -27.2568  -18.5448   22.5778 C   0  0  2  0  0  0  0  0  0  0  0  0
  -32.5867  -26.9175   16.5148 C   0  0  0  0  0  0  0  0  0  0  0  0
  -28.9513  -21.8693   17.4445 C   0  0  0  0  0  0  0  0  0  0  0  0
  -29.3334  -22.9335   21.2029 C   0  0  0  0  0  0  0  0  0  0  0  0
  -16.6934  -29.2803   24.8614 C   0  0  0  0  0  0  0  0  0  0  0  0
  -21.2991  -24.9494   22.8861 C   0  0  0  0  0  0  0  0  0  0  0  0
  -18.8871  -25.6091   23.0088 C   0  0  0  0  0  0  0  0  0  0  0  0
  -20.1761  -25.2050   25.1060 C   0  0  0  0  0  0  0  0  0  0  0  0
  -19.3584  -31.9947   24.7843 C   0  0  0  0  0  0  0  0  0  0  0  0
  -32.0027  -26.9113   17.9248 C   0  0  0  0  0  0  0  0  0  0  0  0
  -27.1596  -26.9462   17.6173 C   0  0  0  0  0  0  0  0  0  0  0  0
  -26.7224  -26.9839   16.1470 C   0  0  0  0  0  0  0  0  0  0  0  0
  -24.9008  -31.5792   16.2202 C   0  0  0  0  0  0  0  0  0  0  0  0
  -25.4742  -27.8114   15.8559 C   0  0  0  0  0  0  0  0  0  0  0  0
  -24.5571  -30.1344   15.8905 C   0  0  0  0  0  0  0  0  0  0  0  0
  -25.2003  -31.8169   17.6952 C   0  0  0  0  0  0  0  0  0  1  0  0
  -29.5078  -22.6602   18.6536 C   0  0  2  0  0  0  0  0  0  0  0  0
  -28.7206  -22.2993   19.9531 C   0  0  1  0  0  0  0  0  0  0  0  0
  -20.6352  -27.2896   23.7511 C   0  0  1  0  0  0  0  0  0  0  0  0
  -18.1037  -29.8417   24.9547 C   0  0  2  0  0  0  0  0  0  0  0  0
  -20.2685  -25.7806   23.6760 C   0  0  0  0  0  0  0  0  0  0  0  0
  -26.5381  -16.2896   21.8849 N   0  0  0  0  0  0  0  0  0  0  0  0
  -29.5868  -26.8573   17.7861 N   0  0  0  0  0  0  0  0  0  0  0  0
  -27.1100  -17.0555   22.8296 N   0  0  0  0  0  0  0  0  0  0  0  0
  -22.9406  -28.1709   23.5720 N   0  0  0  0  0  0  0  0  0  0  0  0
  -27.5913  -20.2993   20.8650 N   0  0  0  0  0  0  0  0  0  0  0  0
  -28.0925  -16.9795   24.9835 N   0  0  0  0  0  0  0  0  0  0  0  0
  -26.9687  -12.6764   24.1985 N   0  0  0  0  0  0  0  0  0  0  0  0
  -26.3794  -26.9834   23.8193 N   0  0  0  0  0  0  0  0  0  0  0  0
  -19.6908  -28.0966   24.5162 N   0  0  0  0  0  0  0  0  0  0  0  0
  -18.0432  -31.3089   24.7009 N   0  3  0  0  0  0  0  0  0  0  0  0
  -25.6989  -29.2425   16.2007 N   0  3  0  0  0  0  0  0  0  0  0  0
  -27.9084  -14.1066   25.7249 O   0  0  0  0  0  0  0  0  0  0  0  0
  -24.4748  -26.3519   22.6377 O   0  0  0  0  0  0  0  0  0  0  0  0
  -29.6392  -20.1226   19.7808 O   0  0  0  0  0  0  0  0  0  0  0  0
  -22.1968  -27.1484   25.5310 O   0  0  0  0  0  0  0  0  0  0  0  0
  -19.1574  -29.5606   22.7988 O   0  0  0  0  0  0  0  0  0  0  0  0
  -24.5019  -10.7012   19.6105 O   0  0  0  0  0  0  0  0  0  0  0  0
  -24.0568  -31.4398   18.4611 O   0  0  0  0  0  0  0  0  0  1  0  0
  -21.3067   -7.1539   22.3694 F   0  0  0  0  0  0  0  0  0  0  0  0
  -21.8872  -10.2488   18.8352 F   0  0  0  0  0  0  0  0  0  0  0  0
  1  2  1  0  0  0  0
  1  5  2  0  0  0  0
  2  6  2  0  0  0  0
  3  8  2  0  0  0  0
  3 17  1  0  0  0  0
  4  9  1  0  0  0  0
  4 17  2  0  0  0  0
  5 19  1  0  0  0  0
  6 21  1  0  0  0  0
  7 10  2  0  0  0  0
  7 20  1  0  0  0  0
  8 24  1  0  0  0  0
  9 24  2  0  0  0  0
 10 25  1  0  0  0  0
 11 12  2  0  0  0  0
 11 26  1  0  0  0  0
 12 27  1  0  0  0  0
 13 22  1  0  0  0  0
 13 25  2  0  0  0  0
 14 23  2  0  0  0  0
 14 30  1  0  0  0  0
 15 23  1  0  0  0  0
 15 31  2  0  0  0  0
 16 27  2  0  0  0  0
 16 28  1  0  0  0  0
 17 29  1  0  0  0  0
 18 29  1  0  0  0  0
 18 32  2  0  0  0  0
 18 33  1  0  0  0  0
 19 21  2  0  0  0  0
 19 38  1  0  0  0  0
 20 22  2  0  0  0  0
 20 39  1  0  0  0  0
 21 47  1  0  0  0  0
 22 40  1  0  0  0  0
 23 65  1  0  0  0  0
 24 86  1  0  0  0  0
 25 87  1  0  0  0  0
 26 28  2  0  0  0  0
 26 86  1  0  0  0  0
 27 88  1  0  0  0  0
 28 89  1  0  0  0  0
 29 70  2  0  0  0  0
 30 58  1  0  0  0  0
 30 71  2  0  0  0  0
 31 59  1  0  0  0  0
 31 71  1  0  0  0  0
 32 72  1  0  0  0  0
 32 75  1  0  0  0  0
 33 76  1  0  0  0  0
 33 81  2  0  0  0  0
 34 48  1  0  0  0  0
 34 77  1  0  0  0  0
 34 82  2  0  0  0  0
 35 66  1  0  0  0  0
 35 74  1  0  0  0  0
 35 83  2  0  0  0  0
 36 67  1  0  0  0  0
 36 73  1  0  0  0  0
 36 84  2  0  0  0  0
 37 68  1  0  0  0  0
 37 78  1  0  0  0  0
 37 85  2  0  0  0  0
 38 41  1  0  0  0  0
 39 48  1  0  0  0  0
 40 73  1  0  0  0  0
 41 43  1  0  0  0  0
 42 44  1  0  0  0  0
 42 45  1  0  0  0  0
 43 47  1  0  0  0  0
 44 49  1  0  0  0  0
 45 74  1  0  0  0  0
 46 49  1  0  0  0  0
 46 74  1  0  0  0  0
 47 77  1  0  0  0  0
 48 73  1  0  0  0  0
 49 72  1  0  0  0  0
 50 58  1  0  0  0  0
 51 65  1  0  0  0  0
 52 66  1  0  0  0  0
 53 68  1  0  0  0  0
 54 69  1  0  0  0  0
 55 69  1  0  0  0  0
 56 69  1  0  0  0  0
 57 79  1  0  0  0  0
 59 60  1  0  0  0  0
 60 62  1  0  0  0  0
 61 63  1  0  0  0  0
 61 64  1  0  0  0  0
 62 80  1  0  0  0  0
 63 80  1  0  0  0  0
 64 87  1  0  0  0  0
 65 66  1  0  0  0  0
 67 69  1  0  0  0  0
 67 78  1  0  0  0  0
 68 79  1  0  0  0  0
 70 72  1  0  0  0  0
M  CHG  2  79   1  80   1
M  ISO  4  35 100  64 101  66 100  87 101
M  END
> <Batch ID>
0050

> <Smiles>
CCc1cc(C(C)[100CH:0](C)[100C:0](=O)N2CCCC(n3nc(-c4ccc(Oc5ccc(F)cc5F)cc4)c(C(N)=O)c3N)C2)cc(CCCNCC[101CH2:1][101O:1]c2ccc3c(c2)CN(C(=O)C(NC(=O)C(C)NC)C(C)(C)C)C(C(=O)NC2CCCc4ccccc42)C3)n1

> <Shape>
0.236

> <Color>
0.059

> <Negative vol penalty>
0.000

$$$$

  -OEChem-04052317313D

 87 95  0     1  0  0  0  0  0999 V2000
  -14.8856  -26.5629   23.6581 C   0  0  0  0  0  0  0  0  0  0  0  0
  -15.6610  -26.0405   22.6279 C   0  0  0  0  0  0  0  0  0  0  0  0
  -26.2996  -15.1807   22.0060 C   0  0  0  0  0  0  0  0  0  0  0  0
  -27.7561  -14.9215   20.0959 C   0  0  0  0  0  0  0  0  0  0  0  0
  -15.2502  -27.7653   24.2625 C   0  0  0  0  0  0  0  0  0  0  0  0
  -16.8008  -26.7207   22.2008 C   0  0  0  0  0  0  0  0  0  0  0  0
  -20.7699  -23.6438   21.5499 C   0  0  0  0  0  0  0  0  0  0  0  0
  -25.8259  -13.8819   21.8211 C   0  0  0  0  0  0  0  0  0  0  0  0
  -27.2825  -13.6226   19.9110 C   0  0  0  0  0  0  0  0  0  0  0  0
  -20.7983  -22.8791   20.3844 C   0  0  0  0  0  0  0  0  0  0  0  0
  -23.6315  -12.2957   19.7981 C   0  0  0  0  0  0  0  0  0  0  0  0
  -22.2541  -12.0911   19.8797 C   0  0  0  0  0  0  0  0  0  0  0  0
  -22.3296  -24.4576   19.3932 C   0  0  0  0  0  0  0  0  0  0  0  0
  -21.0599  -21.8673   15.3410 C   0  0  0  0  0  0  0  0  0  0  0  0
  -23.4243  -21.4369   15.4347 C   0  0  0  0  0  0  0  0  0  0  0  0
  -22.5908  -10.5564   21.7150 C   0  0  0  0  0  0  0  0  0  0  0  0
  -27.2646  -15.7006   21.1433 C   0  0  0  0  0  0  0  0  0  0  0  0
  -28.8527  -17.4437   22.1167 C   0  0  0  0  0  0  0  0  0  0  0  0
  -16.4004  -28.4558   23.8491 C   0  0  0  0  0  0  0  0  0  0  0  0
  -21.5138  -24.8289   21.6419 C   0  0  0  0  0  0  0  0  0  0  0  0
  -17.1804  -27.9342   22.7993 C   0  0  0  0  0  0  0  0  0  0  0  0
  -22.3109  -25.2342   20.5619 C   0  0  0  0  0  0  0  0  0  0  0  0
  -22.2996  -22.0864   15.9313 C   0  0  0  0  0  0  0  0  0  0  0  0
  -26.3174  -13.1028   20.7737 C   0  0  0  0  0  0  0  0  0  0  0  0
  -21.5760  -23.2875   19.3048 C   0  0  0  0  0  0  0  0  0  0  0  0
  -24.4885  -11.6305   20.6749 C   0  0  0  0  0  0  0  0  0  0  0  0
  -21.7338  -11.2215   20.8381 C   0  0  0  0  0  0  0  0  0  0  0  0
  -23.9682  -10.7609   21.6333 C   0  0  0  0  0  0  0  0  0  0  0  0
  -27.7539  -17.0425   21.3334 C   0  0  0  0  0  0  0  0  0  0  0  0
  -20.9987  -20.9963   14.2652 C   0  0  0  0  0  0  0  0  0  0  0  0
  -23.2572  -20.5850   14.3549 C   0  0  0  0  0  0  0  0  0  0  0  0
  -28.9009  -18.8082   21.9672 C   0  0  0  0  0  0  0  0  0  0  0  0
  -29.7497  -16.6536   22.9084 C   0  0  0  0  0  0  0  0  0  0  0  0
  -20.8011  -27.8978   22.0632 C   0  0  0  0  0  0  0  0  0  0  0  0
  -24.0246  -28.2222   22.2242 C   0  0  0  0  0  0  0  0  0  0  0  0
  -27.1041  -26.9920   21.4181 C   0  0  0  0  0  0  0  0  0  0  0  0
  -26.9883  -22.5089   17.6663 C   0  0  0  0  0  0  0  0  0  0  0  0
  -16.7281  -29.7759   24.5005 C   0  0  0  0  0  0  0  0  0  0  0  0
  -21.4933  -25.6284   22.9158 C   0  0  0  0  0  0  0  0  0  0  0  0
  -23.1438  -26.4879   20.6175 C   0  0  0  0  0  0  0  0  0  0  0  0
  -18.1579  -30.2443   24.2424 C   0  0  0  0  0  0  0  0  0  0  0  0
  -26.0886  -22.5828   21.1104 C   0  0  0  0  0  0  0  0  0  0  0  0
  -18.5094  -30.0971   22.7654 C   0  0  0  0  0  0  0  0  0  0  0  0
  -26.5125  -21.2075   21.6287 C   0  0  0  0  0  0  0  0  0  0  0  0
  -25.5503  -22.5067   19.6833 C   0  0  0  0  0  0  0  0  0  0  0  0
  -26.8750  -20.4777   19.2340 C   0  0  0  0  0  0  0  0  0  0  0  0
  -18.4376  -28.6301   22.3248 C   0  0  1  0  0  0  0  0  0  0  0  0
  -21.8880  -27.0879   22.7116 C   0  0  1  0  0  0  0  0  0  0  0  0
  -27.4769  -20.5119   20.6493 C   0  0  2  0  0  0  0  0  0  0  0  0
  -19.6852  -20.7383   13.6058 C   0  0  0  0  0  0  0  0  0  0  0  0
  -29.6072  -26.8136   21.3945 C   0  0  0  0  0  0  0  0  0  0  0  0
  -26.6661  -18.7135   12.6825 C   0  0  0  0  0  0  0  0  0  0  0  0
  -23.7935  -30.3515   20.0511 C   0  0  0  0  0  0  0  0  0  0  0  0
  -26.2572  -30.1269   19.6664 C   0  0  0  0  0  0  0  0  0  0  0  0
  -25.4077  -30.8994   21.8810 C   0  0  0  0  0  0  0  0  0  0  0  0
  -27.1215  -25.2895   23.8389 C   0  0  0  0  0  0  0  0  0  0  0  0
  -24.7783  -21.0327   11.6212 C   0  0  0  0  0  0  0  0  0  0  0  0
  -22.4234  -23.0207   17.0988 C   0  0  0  0  0  0  0  0  0  1  0  0
  -24.4424  -19.8700   13.7974 C   0  0  0  0  0  0  0  0  0  0  0  0
  -27.6641  -22.0578   14.4443 C   0  0  0  0  0  0  0  0  0  0  0  0
  -27.5020  -20.5509   14.2044 C   0  0  0  0  0  0  0  0  0  0  0  0
  -28.4864  -22.3656   15.6928 C   0  0  0  0  0  0  0  0  0  0  0  0
  -25.1251  -28.4750   21.2222 C   0  0  1  0  0  0  0  0  0  0  0  0
  -28.3529  -26.7760   22.2538 C   0  0  2  0  0  0  0  0  0  0  0  0
  -26.7445  -20.2171   12.9138 C   0  0  2  0  0  0  0  0  0  0  0  0
  -25.1287  -29.9405   20.7031 C   0  0  0  0  0  0  0  0  0  0  0  0
  -27.1477  -18.0691   20.7312 N   0  0  0  0  0  0  0  0  0  0  0  0
  -22.0692  -20.3472   13.7551 N   0  0  0  0  0  0  0  0  0  0  0  0
  -27.8680  -19.1289   21.1362 N   0  0  0  0  0  0  0  0  0  0  0  0
  -23.0854  -27.2389   21.8824 N   0  0  0  0  0  0  0  0  0  0  0  0
  -26.5130  -21.8377   18.8049 N   0  0  0  0  0  0  0  0  0  0  0  0
  -29.7255  -19.7530   22.4669 N   0  0  0  0  0  0  0  0  0  0  0  0
  -29.5576  -15.2660   22.9512 N   0  0  0  0  0  0  0  0  0  0  0  0
  -19.6127  -27.9111   22.7682 N   0  0  0  0  0  0  0  0  0  0  0  0
  -26.3676  -28.0669   21.8688 N   0  0  0  0  0  0  0  0  0  0  0  0
  -27.9028  -21.8058   16.8915 N   0  0  0  0  0  0  0  0  0  0  0  0
  -28.2939  -25.4553   22.9416 N   0  3  0  0  0  0  0  0  0  0  0  0
  -25.3358  -20.7472   12.9920 N   0  3  1  0  0  0  0  0  0  0  0  0
  -30.6835  -17.1649   23.5718 O   0  0  0  0  0  0  0  0  0  0  0  0
  -21.0246  -28.4696   21.0027 O   0  0  0  0  0  0  0  0  0  0  0  0
  -24.0033  -28.8682   23.2749 O   0  0  0  0  0  0  0  0  0  0  0  0
  -26.8133  -26.2806   20.4590 O   0  0  0  0  0  0  0  0  0  0  0  0
  -26.6288  -23.6522   17.3655 O   0  0  0  0  0  0  0  0  0  0  0  0
  -25.8556  -11.8352   20.5931 O   0  0  0  0  0  0  0  0  0  0  0  0
  -21.6050  -22.5433   18.1659 O   0  0  0  0  0  0  0  0  0  1  0  0
  -20.4110  -11.0264   20.9174 F   0  0  0  0  0  0  0  0  0  0  0  0
  -24.7864  -10.1200   22.4792 F   0  0  0  0  0  0  0  0  0  0  0  0
  1  2  1  0  0  0  0
  1  5  2  0  0  0  0
  2  6  2  0  0  0  0
  3  8  2  0  0  0  0
  3 17  1  0  0  0  0
  4  9  1  0  0  0  0
  4 17  2  0  0  0  0
  5 19  1  0  0  0  0
  6 21  1  0  0  0  0
  7 10  2  0  0  0  0
  7 20  1  0  0  0  0
  8 24  1  0  0  0  0
  9 24  2  0  0  0  0
 10 25  1  0  0  0  0
 11 12  2  0  0  0  0
 11 26  1  0  0  0  0
 12 27  1  0  0  0  0
 13 22  1  0  0  0  0
 13 25  2  0  0  0  0
 14 23  1  0  0  0  0
 14 30  2  0  0  0  0
 15 23  2  0  0  0  0
 15 31  1  0  0  0  0
 16 27  2  0  0  0  0
 16 28  1  0  0  0  0
 17 29  1  0  0  0  0
 18 29  1  0  0  0  0
 18 32  2  0  0  0  0
 18 33  1  0  0  0  0
 19 21  2  0  0  0  0
 19 38  1  0  0  0  0
 20 22  2  0  0  0  0
 20 39  1  0  0  0  0
 21 47  1  0  0  0  0
 22 40  1  0  0  0  0
 23 58  1  0  0  0  0
 24 84  1  0  0  0  0
 25 85  1  0  0  0  0
 26 28  2  0  0  0  0
 26 84  1  0  0  0  0
 27 86  1  0  0  0  0
 28 87  1  0  0  0  0
 29 67  2  0  0  0  0
 30 50  1  0  0  0  0
 30 68  1  0  0  0  0
 31 59  1  0  0  0  0
 31 68  2  0  0  0  0
 32 69  1  0  0  0  0
 32 72  1  0  0  0  0
 33 73  1  0  0  0  0
 33 79  2  0  0  0  0
 34 48  1  0  0  0  0
 34 74  1  0  0  0  0
 34 80  2  0  0  0  0
 35 63  1  0  0  0  0
 35 70  1  0  0  0  0
 35 81  2  0  0  0  0
 36 64  1  0  0  0  0
 36 75  1  0  0  0  0
 36 82  2  0  0  0  0
 37 71  1  0  0  0  0
 37 76  1  0  0  0  0
 37 83  2  0  0  0  0
 38 41  1  0  0  0  0
 39 48  1  0  0  0  0
 40 70  1  0  0  0  0
 41 43  1  0  0  0  0
 42 44  1  0  0  0  0
 42 45  1  0  0  0  0
 43 47  1  0  0  0  0
 44 49  1  0  0  0  0
 45 71  1  0  0  0  0
 46 49  1  0  0  0  0
 46 71  1  0  0  0  0
 47 74  1  0  0  0  0
 48 70  1  0  0  0  0
 49 69  1  0  0  0  0
 51 64  1  0  0  0  0
 52 65  1  0  0  0  0
 53 66  1  0  0  0  0
 54 66  1  0  0  0  0
 55 66  1  0  0  0  0
 56 77  1  0  0  0  0
 57 78  1  0  0  0  0
 58 85  1  0  0  0  0
 59 78  1  0  0  0  0
 60 61  1  0  0  0  0
 60 62  1  0  0  0  0
 61 65  1  0  0  0  0
 62 76  1  0  0  0  0
 63 66  1  0  0  0  0
 63 75  1  0  0  0  0
 64 77  1  0  0  0  0
 65 78  1  0  0  0  0
 67 69  1  0  0  0  0
M  CHG  2  77   1  78   1
M  ISO  4  37 100  58 101  76 100  85 101
M  END
> <Batch ID>
0050

> <Smiles>
CNC(C)C(=O)NC(C(=O)N1Cc2cc([101O:1][101CH2:1]c3cc(C)nc(CN(C)C(C)CCC[100NH:0][100C:0](=O)N4CCCC(n5nc(-c6ccc(Oc7ccc(F)cc7F)cc6)c(C(N)=O)c5N)C4)c3)ccc2CC1C(=O)NC1CCCc2ccccc21)C(C)(C)C

> <Shape>
0.201

> <Color>
0.049

> <Negative vol penalty>
0.000

$$$$

  -OEChem-04052317313D

 80 88  0     1  0  0  0  0  0999 V2000
  -25.6122  -18.0657   12.9912 C   0  0  0  0  0  0  0  0  0  0  0  0
  -26.3235  -17.5943   14.0900 C   0  0  0  0  0  0  0  0  0  0  0  0
  -26.3773  -29.0257   19.0773 C   0  0  0  0  0  0  0  0  0  0  0  0
  -26.1130  -28.0926   21.2901 C   0  0  0  0  0  0  0  0  0  0  0  0
  -24.2614  -18.3855   13.1217 C   0  0  0  0  0  0  0  0  0  0  0  0
  -25.6846  -17.4434   15.3202 C   0  0  0  0  0  0  0  0  0  0  0  0
  -26.8221  -13.0539   17.5747 C   0  0  0  0  0  0  0  0  0  0  0  0
  -25.4567  -30.0261   19.3892 C   0  0  0  0  0  0  0  0  0  0  0  0
  -25.1924  -29.0930   21.6020 C   0  0  0  0  0  0  0  0  0  0  0  0
  -28.0580  -12.9680   18.2142 C   0  0  0  0  0  0  0  0  0  0  0  0
  -25.2645  -32.3507   22.4978 C   0  0  0  0  0  0  0  0  0  0  0  0
  -25.3923  -32.9844   23.7338 C   0  0  0  0  0  0  0  0  0  0  0  0
  -26.9796  -13.3539   20.3372 C   0  0  0  0  0  0  0  0  0  0  0  0
  -23.1732  -32.2470   24.3412 C   0  0  0  0  0  0  0  0  0  0  0  0
  -29.4989  -17.0732   20.1259 C   0  0  0  0  0  0  0  0  0  0  0  0
  -31.0886  -17.9795   18.8978 C   0  0  0  0  0  0  0  0  0  0  0  0
  -26.7055  -28.0589   20.0277 C   0  0  0  0  0  0  0  0  0  0  0  0
  -29.0511  -27.0655   19.8899 C   0  0  0  0  0  0  0  0  0  0  0  0
  -23.6033  -18.2294   14.3518 C   0  0  0  0  0  0  0  0  0  0  0  0
  -25.6551  -13.3017   18.3117 C   0  0  0  0  0  0  0  0  0  0  0  0
  -24.3241  -17.7627   15.4676 C   0  0  0  0  0  0  0  0  0  0  0  0
  -25.7298  -13.4399   19.7050 C   0  0  0  0  0  0  0  0  0  0  0  0
  -24.8643  -30.0598   20.6515 C   0  0  0  0  0  0  0  0  0  0  0  0
  -28.1373  -13.1209   19.5953 C   0  0  0  0  0  0  0  0  0  0  0  0
  -24.0910  -31.6652   22.1835 C   0  0  0  0  0  0  0  0  0  0  0  0
  -24.3466  -32.9326   24.6555 C   0  0  0  0  0  0  0  0  0  0  0  0
  -23.0454  -31.6134   23.1052 C   0  0  0  0  0  0  0  0  0  0  0  0
  -27.6560  -27.0249   19.7059 C   0  0  0  0  0  0  0  0  0  0  0  0
  -30.7027  -16.4351   20.3107 C   0  0  0  0  0  0  0  0  0  0  0  0
  -29.4935  -25.8491   19.4307 C   0  0  0  0  0  0  0  0  0  0  0  0
  -29.8735  -28.1095   20.4279 C   0  0  0  0  0  0  0  0  0  0  0  0
  -23.4803  -15.6194   18.3568 C   0  0  0  0  0  0  0  0  0  0  0  0
  -28.9958  -20.3703   19.3138 C   0  0  0  0  0  0  0  0  0  0  0  0
  -21.9831  -13.6414   20.4468 C   0  0  0  0  0  0  0  0  0  0  0  0
  -22.2258  -11.1025   22.7144 C   0  0  0  0  0  0  0  0  0  0  0  0
  -22.1538  -18.6330   14.4560 C   0  0  0  0  0  0  0  0  0  0  0  0
  -24.3261  -13.3648   17.6101 C   0  0  0  0  0  0  0  0  0  0  0  0
  -24.5038  -13.6871   20.5443 C   0  0  0  0  0  0  0  0  0  0  0  0
  -21.4582  -18.0896   15.7014 C   0  0  0  0  0  0  0  0  0  0  0  0
  -27.1111  -22.2372   16.8259 C   0  0  0  0  0  0  0  0  0  0  0  0
  -22.3264  -18.3088   16.9363 C   0  0  0  0  0  0  0  0  0  0  0  0
  -27.1778  -23.6549   17.3924 C   0  0  0  0  0  0  0  0  0  0  0  0
  -27.0244  -21.1928   17.9358 C   0  0  0  0  0  0  0  0  0  0  0  0
  -28.1962  -22.7037   19.5069 C   0  0  0  0  0  0  0  0  0  0  0  0
  -23.6601  -17.5621   16.8126 C   0  0  1  0  0  0  0  0  0  0  0  0
  -23.2698  -14.1323   18.3991 C   0  0  1  0  0  0  0  0  0  0  0  0
  -28.3153  -23.7855   18.4204 C   0  0  2  0  0  0  0  0  0  0  0  0
  -32.0175  -15.6585   22.3003 C   0  0  0  0  0  0  0  0  0  0  0  0
  -20.8366   -9.7273   24.2880 C   0  0  0  0  0  0  0  0  0  0  0  0
  -21.8664  -15.9895   22.3918 C   0  0  0  0  0  0  0  0  0  0  0  0
  -21.3640  -14.3576   24.2229 C   0  0  0  0  0  0  0  0  0  0  0  0
  -19.7874  -14.6022   22.3053 C   0  0  0  0  0  0  0  0  0  0  0  0
  -22.9073   -8.5907   21.3054 C   0  0  0  0  0  0  0  0  0  0  0  0
  -28.8133  -19.0098   18.6897 C   0  0  0  0  0  0  0  0  0  0  0  0
  -31.5210  -14.0206   20.4459 C   0  0  0  0  0  0  0  0  0  0  0  0
  -30.4903  -13.4462   19.4786 C   0  0  0  0  0  0  0  0  0  1  0  0
  -31.0118  -15.2547   21.2154 C   0  0  2  0  0  0  0  0  0  0  0  0
  -22.0090  -13.4507   21.9441 C   0  0  1  0  0  0  0  0  0  0  0  0
  -21.4217   -9.8266   22.8878 C   0  0  2  0  0  0  0  0  0  0  0  0
  -21.2802  -14.5973   22.7003 C   0  0  0  0  0  0  0  0  0  0  0  0
  -31.6883  -17.0042   19.5437 N   0  0  0  0  0  0  0  0  0  0  0  0
  -27.2397  -25.8739   19.1713 N   0  0  0  0  0  0  0  0  0  0  0  0
  -29.7620  -18.0605   19.2185 N   0  0  0  0  0  0  0  0  0  0  0  0
  -28.3799  -25.1800   19.0154 N   0  0  0  0  0  0  0  0  0  0  0  0
  -23.2284  -13.7470   19.8112 N   0  0  0  0  0  0  0  0  0  0  0  0
  -28.1091  -21.3684   18.9089 N   0  0  0  0  0  0  0  0  0  0  0  0
  -30.7226  -25.2972   19.3455 N   0  0  0  0  0  0  0  0  0  0  0  0
  -29.2566  -29.2940   20.8530 N   0  0  0  0  0  0  0  0  0  0  0  0
  -23.4767  -16.1520   17.0817 N   0  0  0  0  0  0  0  0  0  0  0  0
  -21.4577  -12.1237   22.1962 N   0  0  0  0  0  0  0  0  0  0  0  0
  -22.2848   -8.6345   22.6535 N   0  3  0  0  0  0  0  0  0  0  0  0
  -31.1203  -28.0017   20.5136 O   0  0  0  0  0  0  0  0  0  0  0  0
  -23.6332  -16.2381   19.4035 O   0  0  0  0  0  0  0  0  0  0  0  0
  -29.9015  -20.5397   20.1343 O   0  0  0  0  0  0  0  0  0  0  0  0
  -20.8981  -13.6877   19.8618 O   0  0  0  0  0  0  0  0  0  0  0  0
  -23.4152  -11.1860   23.0125 O   0  0  0  0  0  0  0  0  0  0  0  0
  -23.9660  -31.0359   20.9563 O   0  0  0  0  0  0  0  0  0  0  0  0
  -29.3425  -13.0382   20.2218 O   0  0  0  0  0  0  0  0  0  1  0  0
  -24.4701  -33.5398   25.8430 F   0  0  0  0  0  0  0  0  0  0  0  0
  -21.9161  -30.9553   22.8094 F   0  0  0  0  0  0  0  0  0  0  0  0
  1  2  1  0  0  0  0
  1  5  2  0  0  0  0
  2  6  2  0  0  0  0
  3  8  2  0  0  0  0
  3 17  1  0  0  0  0
  4  9  1  0  0  0  0
  4 17  2  0  0  0  0
  5 19  1  0  0  0  0
  6 21  1  0  0  0  0
  7 10  2  0  0  0  0
  7 20  1  0  0  0  0
  8 23  1  0  0  0  0
  9 23  2  0  0  0  0
 10 24  1  0  0  0  0
 11 12  2  0  0  0  0
 11 25  1  0  0  0  0
 12 26  1  0  0  0  0
 13 22  1  0  0  0  0
 13 24  2  0  0  0  0
 14 26  2  0  0  0  0
 14 27  1  0  0  0  0
 15 29  2  0  0  0  0
 15 63  1  0  0  0  0
 16 61  2  0  0  0  0
 16 63  1  0  0  0  0
 17 28  1  0  0  0  0
 18 28  1  0  0  0  0
 18 30  2  0  0  0  0
 18 31  1  0  0  0  0
 19 21  2  0  0  0  0
 19 36  1  0  0  0  0
 20 22  2  0  0  0  0
 20 37  1  0  0  0  0
 21 45  1  0  0  0  0
 22 38  1  0  0  0  0
 23 77  1  0  0  0  0
 24 78  1  0  0  0  0
 25 27  2  0  0  0  0
 25 77  1  0  0  0  0
 26 79  1  0  0  0  0
 27 80  1  0  0  0  0
 28 62  2  0  0  0  0
 29 57  1  0  0  0  0
 29 61  1  0  0  0  0
 30 64  1  0  0  0  0
 30 67  1  0  0  0  0
 31 68  1  0  0  0  0
 31 72  2  0  0  0  0
 32 46  1  0  0  0  0
 32 69  1  0  0  0  0
 32 73  2  0  0  0  0
 33 54  1  0  0  0  0
 33 66  1  0  0  0  0
 33 74  2  0  0  0  0
 34 58  1  0  0  0  0
 34 65  1  0  0  0  0
 34 75  2  0  0  0  0
 35 59  1  0  0  0  0
 35 70  1  0  0  0  0
 35 76  2  0  0  0  0
 36 39  1  0  0  0  0
 37 46  1  0  0  0  0
 38 65  1  0  0  0  0
 39 41  1  0  0  0  0
 40 42  1  0  0  0  0
 40 43  1  0  0  0  0
 41 45  1  0  0  0  0
 42 47  1  0  0  0  0
 43 66  1  0  0  0  0
 44 47  1  0  0  0  0
 44 66  1  0  0  0  0
 45 69  1  0  0  0  0
 46 65  1  0  0  0  0
 47 64  1  0  0  0  0
 48 57  1  0  0  0  0
 49 59  1  0  0  0  0
 50 60  1  0  0  0  0
 51 60  1  0  0  0  0
 52 60  1  0  0  0  0
 53 71  1  0  0  0  0
 54 63  1  0  0  0  0
 55 56  1  0  0  0  0
 55 57  1  0  0  0  0
 56 78  1  0  0  0  0
 58 60  1  0  0  0  0
 58 70  1  0  0  0  0
 59 71  1  0  0  0  0
 62 64  1  0  0  0  0
M  CHG  1  71   1
M  ISO  4  33 100  54 100  56 101  78 101
M  END
> <Batch ID>
0050

> <Smiles>
CNC(C)C(=O)NC(C(=O)N1Cc2cc([101O:1][101CH2:1]CC(C)c3cn([100CH2:0][100C:0](=O)N4CCCC(n5nc(-c6ccc(Oc7ccc(F)cc7F)cc6)c(C(N)=O)c5N)C4)cn3)ccc2CC1C(=O)NC1CCCc2ccccc21)C(C)(C)C

> <Shape>
0.264

> <Color>
0.054

> <Negative vol penalty>
0.000

$$$$

  -OEChem-04052317313D

 75 82  0     1  0  0  0  0  0999 V2000
  -33.4053  -34.5237   19.3153 C   0  0  0  0  0  0  0  0  0  0  0  0
  -33.1033  -33.3099   18.7063 C   0  0  0  0  0  0  0  0  0  0  0  0
  -26.7162  -12.4376   21.7503 C   0  0  0  0  0  0  0  0  0  0  0  0
  -26.0387  -13.8556   19.9152 C   0  0  0  0  0  0  0  0  0  0  0  0
  -33.0576  -34.7391   20.6483 C   0  0  0  0  0  0  0  0  0  0  0  0
  -32.4544  -32.3103   19.4303 C   0  0  0  0  0  0  0  0  0  0  0  0
  -27.7605  -26.9638   18.5939 C   0  0  0  0  0  0  0  0  0  0  0  0
  -25.4356  -11.8868   21.7975 C   0  0  0  0  0  0  0  0  0  0  0  0
  -24.7581  -13.3048   19.9624 C   0  0  0  0  0  0  0  0  0  0  0  0
  -27.6203  -25.6023   18.8592 C   0  0  0  0  0  0  0  0  0  0  0  0
  -23.6509   -9.5813   20.0851 C   0  0  0  0  0  0  0  0  0  0  0  0
  -23.5453   -8.1953   20.2009 C   0  0  0  0  0  0  0  0  0  0  0  0
  -26.9972  -26.1157   21.1324 C   0  0  0  0  0  0  0  0  0  0  0  0
  -22.3412   -8.4608   22.2786 C   0  0  0  0  0  0  0  0  0  0  0  0
  -27.0178  -13.4221   20.8092 C   0  0  0  0  0  0  0  0  0  0  0  0
  -29.4353  -13.5349   20.0027 C   0  0  0  0  0  0  0  0  0  0  0  0
  -32.3955  -33.7452   21.3861 C   0  0  0  0  0  0  0  0  0  0  0  0
  -27.5304  -27.9126   19.6006 C   0  0  0  0  0  0  0  0  0  0  0  0
  -32.0988  -32.5121   20.7747 C   0  0  0  0  0  0  0  0  0  0  0  0
  -27.1327  -27.4887   20.8766 C   0  0  0  0  0  0  0  0  0  0  0  0
  -24.4565  -12.3204   20.9036 C   0  0  0  0  0  0  0  0  0  0  0  0
  -27.2414  -25.1779   20.1294 C   0  0  0  0  0  0  0  0  0  0  0  0
  -23.1018  -10.4071   21.0660 C   0  0  0  0  0  0  0  0  0  0  0  0
  -22.8904   -7.6351   21.2977 C   0  0  0  0  0  0  0  0  0  0  0  0
  -22.4470   -9.8468   22.1628 C   0  0  0  0  0  0  0  0  0  0  0  0
  -28.3403  -13.9918   20.7603 C   0  0  0  0  0  0  0  0  0  0  0  0
  -30.4501  -14.4103   20.3033 C   0  0  0  0  0  0  0  0  0  0  0  0
  -29.5270  -12.4189   19.1071 C   0  0  0  0  0  0  0  0  0  0  0  0
  -29.3027  -30.1130   21.0568 C   0  0  0  0  0  0  0  0  0  0  0  0
  -30.4000  -20.0855   22.2785 C   0  0  0  0  0  0  0  0  0  0  0  0
  -26.4757  -30.9236   22.4253 C   0  0  0  0  0  0  0  0  0  0  0  0
  -23.3274  -29.9820   23.3466 C   0  0  0  0  0  0  0  0  0  0  0  0
  -32.0821  -34.0065   22.8380 C   0  0  0  0  0  0  0  0  0  0  0  0
  -27.6600  -29.3788   19.2909 C   0  0  0  0  0  0  0  0  0  0  0  0
  -26.8540  -28.4680   21.9865 C   0  0  0  0  0  0  0  0  0  0  0  0
  -31.0616  -33.0349   23.4253 C   0  0  0  0  0  0  0  0  0  0  0  0
  -32.0275  -17.2722   23.7875 C   0  0  0  0  0  0  0  0  0  0  0  0
  -31.4082  -31.6000   23.0412 C   0  0  0  0  0  0  0  0  0  0  0  0
  -31.3461  -16.0705   23.1342 C   0  0  0  0  0  0  0  0  0  0  0  0
  -31.0499  -18.4254   23.9919 C   0  0  0  0  0  0  0  0  0  0  0  0
  -29.6677  -17.6566   22.0892 C   0  0  0  0  0  0  0  0  0  0  0  0
  -31.3735  -31.4124   21.5196 C   0  0  1  0  0  0  0  0  0  0  0  0
  -27.8998  -30.2326   20.5322 C   0  0  1  0  0  0  0  0  0  0  0  0
  -30.6274  -16.4804   21.8366 C   0  0  2  0  0  0  0  0  0  0  0  0
  -30.6561  -20.1014   19.8374 C   0  0  0  0  0  0  0  0  0  0  0  0
  -21.2639  -30.8507   24.4801 C   0  0  0  0  0  0  0  0  0  0  0  0
  -27.8520  -30.6504   25.1348 C   0  0  0  0  0  0  0  0  0  0  0  0
  -25.5873  -30.5845   26.2003 C   0  0  0  0  0  0  0  0  0  0  0  0
  -26.3122  -32.6114   24.9398 C   0  0  0  0  0  0  0  0  0  0  0  0
  -21.6800  -29.5642   20.9237 C   0  0  0  0  0  0  0  0  0  0  0  0
  -27.8663  -21.9788   21.7466 C   0  0  0  0  0  0  0  0  0  0  0  0
  -29.1638  -21.8050   20.9457 C   0  0  0  0  0  0  0  0  0  0  0  0
  -27.3678  -23.4202   21.7264 C   0  0  0  0  0  0  0  0  0  1  0  0
  -29.6821  -20.3622   20.9816 C   0  0  2  0  0  0  0  0  0  0  0  0
  -25.7311  -30.5040   23.6697 C   0  0  1  0  0  0  0  0  0  0  0  0
  -21.9786  -30.6511   23.1527 C   0  0  2  0  0  0  0  0  0  0  0  0
  -26.3777  -31.0688   24.9660 C   0  0  0  0  0  0  0  0  0  0  0  0
  -28.6320  -15.0734   21.4876 N   0  0  0  0  0  0  0  0  0  0  0  0
  -29.9219  -15.3033   21.1885 N   0  0  0  0  0  0  0  0  0  0  0  0
  -27.0006  -29.8904   21.6360 N   0  0  0  0  0  0  0  0  0  0  0  0
  -30.3714  -18.7698   22.7412 N   0  0  0  0  0  0  0  0  0  0  0  0
  -31.7338  -14.4955   19.8943 N   0  0  0  0  0  0  0  0  0  0  0  0
  -28.3899  -11.6230   18.9129 N   0  0  0  0  0  0  0  0  0  0  0  0
  -30.0073  -31.3017   21.0551 N   0  0  0  0  0  0  0  0  0  0  0  0
  -24.3431  -30.9064   23.4701 N   0  0  0  0  0  0  0  0  0  0  0  0
  -21.1102  -29.8202   22.2716 N   0  3  0  0  0  0  0  0  0  0  0  0
  -30.5905  -12.1263   18.5098 O   0  0  0  0  0  0  0  0  0  0  0  0
  -29.7149  -29.0232   21.4364 O   0  0  0  0  0  0  0  0  0  0  0  0
  -30.9712  -21.0117   22.8599 O   0  0  0  0  0  0  0  0  0  0  0  0
  -26.5813  -32.1235   22.1595 O   0  0  0  0  0  0  0  0  0  0  0  0
  -23.4656  -28.7615   23.3884 O   0  0  0  0  0  0  0  0  0  0  0  0
  -23.2069  -11.7830   20.9492 O   0  0  0  0  0  0  0  0  0  0  0  0
  -27.1044  -23.8495   20.3913 O   0  0  0  0  0  0  0  0  0  1  0  0
  -22.7877   -6.3041   21.4080 F   0  0  0  0  0  0  0  0  0  0  0  0
  -21.9164  -10.6351   23.1078 F   0  0  0  0  0  0  0  0  0  0  0  0
  1  2  1  0  0  0  0
  1  5  2  0  0  0  0
  2  6  2  0  0  0  0
  3  8  2  0  0  0  0
  3 15  1  0  0  0  0
  4  9  1  0  0  0  0
  4 15  2  0  0  0  0
  5 17  1  0  0  0  0
  6 19  1  0  0  0  0
  7 10  2  0  0  0  0
  7 18  1  0  0  0  0
  8 21  1  0  0  0  0
  9 21  2  0  0  0  0
 10 22  1  0  0  0  0
 11 12  2  0  0  0  0
 11 23  1  0  0  0  0
 12 24  1  0  0  0  0
 13 20  1  0  0  0  0
 13 22  2  0  0  0  0
 14 24  2  0  0  0  0
 14 25  1  0  0  0  0
 15 26  1  0  0  0  0
 16 26  1  0  0  0  0
 16 27  2  0  0  0  0
 16 28  1  0  0  0  0
 17 19  2  0  0  0  0
 17 33  1  0  0  0  0
 18 20  2  0  0  0  0
 18 34  1  0  0  0  0
 19 42  1  0  0  0  0
 20 35  1  0  0  0  0
 21 72  1  0  0  0  0
 22 73  1  0  0  0  0
 23 25  2  0  0  0  0
 23 72  1  0  0  0  0
 24 74  1  0  0  0  0
 25 75  1  0  0  0  0
 26 58  2  0  0  0  0
 27 59  1  0  0  0  0
 27 62  1  0  0  0  0
 28 63  1  0  0  0  0
 28 67  2  0  0  0  0
 29 43  1  0  0  0  0
 29 64  1  0  0  0  0
 29 68  2  0  0  0  0
 30 54  1  0  0  0  0
 30 61  1  0  0  0  0
 30 69  2  0  0  0  0
 31 55  1  0  0  0  0
 31 60  1  0  0  0  0
 31 70  2  0  0  0  0
 32 56  1  0  0  0  0
 32 65  1  0  0  0  0
 32 71  2  0  0  0  0
 33 36  1  0  0  0  0
 34 43  1  0  0  0  0
 35 60  1  0  0  0  0
 36 38  1  0  0  0  0
 37 39  1  0  0  0  0
 37 40  1  0  0  0  0
 38 42  1  0  0  0  0
 39 44  1  0  0  0  0
 40 61  1  0  0  0  0
 41 44  1  0  0  0  0
 41 61  1  0  0  0  0
 42 64  1  0  0  0  0
 43 60  1  0  0  0  0
 44 59  1  0  0  0  0
 45 54  1  0  0  0  0
 46 56  1  0  0  0  0
 47 57  1  0  0  0  0
 48 57  1  0  0  0  0
 49 57  1  0  0  0  0
 50 66  1  0  0  0  0
 51 52  1  0  0  0  0
 51 53  1  0  0  0  0
 52 54  1  0  0  0  0
 53 73  1  0  0  0  0
 55 57  1  0  0  0  0
 55 65  1  0  0  0  0
 56 66  1  0  0  0  0
 58 59  1  0  0  0  0
M  CHG  1  66   1
M  ISO  4  30 100  53 101  54 100  73 101
M  END
> <Batch ID>
0050

> <Smiles>
CNC(C)C(=O)NC(C(=O)N1Cc2cc([101O:1][101CH2:1]CC[100CH:0](C)[100C:0](=O)N3CCCC(n4nc(-c5ccc(Oc6ccc(F)cc6F)cc5)c(C(N)=O)c4N)C3)ccc2CC1C(=O)NC1CCCc2ccccc21)C(C)(C)C

> <Shape>
0.276

> <Color>
0.113

> <Negative vol penalty>
0.000

$$$$

  -OEChem-04052317313D

 87 95  0     1  0  0  0  0  0999 V2000
  -16.9708  -28.5156   20.4585 C   0  0  0  0  0  0  0  0  0  0  0  0
  -18.1996  -28.4727   19.8077 C   0  0  0  0  0  0  0  0  0  0  0  0
  -27.1779  -12.1968   20.9407 C   0  0  0  0  0  0  0  0  0  0  0  0
  -26.9276  -12.9601   18.6621 C   0  0  0  0  0  0  0  0  0  0  0  0
  -16.8385  -29.2286   21.6493 C   0  0  0  0  0  0  0  0  0  0  0  0
  -19.2966  -29.1438   20.3468 C   0  0  0  0  0  0  0  0  0  0  0  0
  -23.5163  -26.3450   20.2694 C   0  0  0  0  0  0  0  0  0  0  0  0
  -26.5636  -10.9906   20.6042 C   0  0  0  0  0  0  0  0  0  0  0  0
  -26.3132  -11.7538   18.3256 C   0  0  0  0  0  0  0  0  0  0  0  0
  -24.1881  -26.2395   19.0523 C   0  0  0  0  0  0  0  0  0  0  0  0
  -24.7366   -7.8514   20.4268 C   0  0  0  0  0  0  0  0  0  0  0  0
  -23.7633   -7.3538   21.2931 C   0  0  0  0  0  0  0  0  0  0  0  0
  -27.0400  -24.2771   14.8807 C   0  0  0  0  0  0  0  0  0  0  0  0
  -25.7582  -27.9200   19.7802 C   0  0  0  0  0  0  0  0  0  0  0  0
  -28.4292  -25.9711   15.8731 C   0  0  0  0  0  0  0  0  0  0  0  0
  -22.4469   -9.3525   20.9625 C   0  0  0  0  0  0  0  0  0  0  0  0
  -28.1131  -23.4079   14.9924 C   0  0  0  0  0  0  0  0  0  0  0  0
  -27.3599  -13.1816   19.9697 C   0  0  0  0  0  0  0  0  0  0  0  0
  -29.3689  -14.7256   20.2652 C   0  0  0  0  0  0  0  0  0  0  0  0
  -17.9368  -29.9008   22.2083 C   0  0  0  0  0  0  0  0  0  0  0  0
  -23.9547  -27.2482   21.2484 C   0  0  0  0  0  0  0  0  0  0  0  0
  -19.1785  -29.8676   21.5455 C   0  0  0  0  0  0  0  0  0  0  0  0
  -25.0918  -28.0332   21.0099 C   0  0  0  0  0  0  0  0  0  0  0  0
  -27.2092  -25.5814   15.3318 C   0  0  0  0  0  0  0  0  0  0  0  0
  -26.1313  -10.7691   19.2966 C   0  0  0  0  0  0  0  0  0  0  0  0
  -25.3075  -27.0291   18.8064 C   0  0  0  0  0  0  0  0  0  0  0  0
  -24.5651   -9.0997   19.8283 C   0  0  0  0  0  0  0  0  0  0  0  0
  -22.6184   -8.1043   21.5609 C   0  0  0  0  0  0  0  0  0  0  0  0
  -23.4203   -9.8502   20.0961 C   0  0  0  0  0  0  0  0  0  0  0  0
  -27.9939  -14.4280   20.3168 C   0  0  0  0  0  0  0  0  0  0  0  0
  -29.4401  -25.0259   15.9406 C   0  0  0  0  0  0  0  0  0  0  0  0
  -29.4544  -16.0285   20.6914 C   0  0  0  0  0  0  0  0  0  0  0  0
  -30.4704  -13.8984   19.8676 C   0  0  0  0  0  0  0  0  0  0  0  0
  -22.6941  -29.7906   22.6804 C   0  0  0  0  0  0  0  0  0  0  0  0
  -25.3965  -29.6384   24.4680 C   0  0  0  0  0  0  0  0  0  0  0  0
  -28.6424  -28.6176   24.7313 C   0  0  0  0  0  0  0  0  0  0  0  0
  -27.8409  -21.1625   20.7048 C   0  0  0  0  0  0  0  0  0  0  0  0
  -17.7335  -30.6975   23.4727 C   0  0  0  0  0  0  0  0  0  0  0  0
  -23.2349  -27.3308   22.5665 C   0  0  0  0  0  0  0  0  0  0  0  0
  -25.6150  -29.0036   22.0360 C   0  0  0  0  0  0  0  0  0  0  0  0
  -19.0372  -31.0709   24.1736 C   0  0  0  0  0  0  0  0  0  0  0  0
  -26.0173  -19.0312   22.8505 C   0  0  0  0  0  0  0  0  0  0  0  0
  -20.0464  -31.6165   23.1684 C   0  0  0  0  0  0  0  0  0  0  0  0
  -26.4760  -17.6547   22.3711 C   0  0  0  0  0  0  0  0  0  0  0  0
  -25.8082  -20.0041   21.6885 C   0  0  0  0  0  0  0  0  0  0  0  0
  -27.4394  -18.7504   20.3137 C   0  0  0  0  0  0  0  0  0  0  0  0
  -20.3979  -30.5622   22.1118 C   0  0  1  0  0  0  0  0  0  0  0  0
  -23.4642  -28.6539   23.2906 C   0  0  1  0  0  0  0  0  0  0  0  0
  -27.7145  -17.7719   21.4659 C   0  0  2  0  0  0  0  0  0  0  0  0
  -30.6035  -28.6712   26.2961 C   0  0  0  0  0  0  0  0  0  0  0  0
  -25.8879  -32.5624   23.7480 C   0  0  0  0  0  0  0  0  0  0  0  0
  -28.2553  -32.2803   24.5123 C   0  0  0  0  0  0  0  0  0  0  0  0
  -26.3801  -31.9774   26.1292 C   0  0  0  0  0  0  0  0  0  0  0  0
  -25.8724  -22.7467   20.5626 C   0  0  0  0  0  0  0  0  0  0  0  0
  -28.7308  -25.6646   24.9072 C   0  0  0  0  0  0  0  0  0  0  0  0
  -30.3594  -27.4605   18.9023 C   0  0  0  0  0  0  0  0  0  0  0  0
  -26.0728  -26.5699   15.2333 C   0  0  0  0  0  0  0  0  0  0  0  0
  -30.7628  -25.4091   16.5157 C   0  0  0  0  0  0  0  0  0  0  0  0
  -28.5536  -24.2606   19.8203 C   0  0  0  0  0  0  0  0  0  0  0  0
  -28.1290  -23.5763   21.1152 C   0  0  0  0  0  0  0  0  0  0  0  0
  -30.8767  -25.1884   18.0244 C   0  0  0  0  0  0  0  0  0  0  0  0
  -29.4794  -25.4443   20.0696 C   0  0  0  0  0  0  0  0  0  0  0  0
  -25.1904  -26.5648   16.4769 C   0  0  0  0  0  0  0  0  0  1  0  0
  -26.7854  -30.2196   24.3578 C   0  0  1  0  0  0  0  0  0  0  0  0
  -29.3824  -27.8887   25.8384 C   0  0  2  0  0  0  0  0  0  0  0  0
  -26.8164  -31.7432   24.6665 C   0  0  0  0  0  0  0  0  0  0  0  0
  -29.3131  -23.7499   15.5126 N   0  0  0  0  0  0  0  0  0  0  0  0
  -27.2588  -15.4588   20.7424 N   0  0  0  0  0  0  0  0  0  0  0  0
  -28.1753  -16.4168   20.9622 N   0  0  0  0  0  0  0  0  0  0  0  0
  -24.8731  -29.0526   23.3067 N   0  0  0  0  0  0  0  0  0  0  0  0
  -26.9952  -20.0498   20.8238 N   0  0  0  0  0  0  0  0  0  0  0  0
  -30.4982  -16.8684   20.8573 N   0  0  0  0  0  0  0  0  0  0  0  0
  -30.2053  -12.5847   19.4574 N   0  0  0  0  0  0  0  0  0  0  0  0
  -21.3266  -29.5936   22.6538 N   0  0  0  0  0  0  0  0  0  0  0  0
  -27.6347  -29.4158   25.2301 N   0  0  0  0  0  0  0  0  0  0  0  0
  -27.2637  -22.4294   20.8785 N   0  0  0  0  0  0  0  0  0  0  0  0
  -29.8328  -26.5491   25.3657 N   0  3  0  0  0  0  0  0  0  0  0  0
  -29.8923  -26.0343   18.7435 N   0  3  1  0  0  0  0  0  0  0  0  0
  -31.6562  -14.3067   19.8913 O   0  0  0  0  0  0  0  0  0  0  0  0
  -23.2958  -30.7743   22.2657 O   0  0  0  0  0  0  0  0  0  0  0  0
  -24.8010  -29.6954   25.5468 O   0  0  0  0  0  0  0  0  0  0  0  0
  -28.9318  -28.4942   23.5433 O   0  0  0  0  0  0  0  0  0  0  0  0
  -29.0451  -21.0329   20.4491 O   0  0  0  0  0  0  0  0  0  0  0  0
  -25.5320   -9.5921   18.9678 O   0  0  0  0  0  0  0  0  0  0  0  0
  -25.9647  -26.9285   17.6190 O   0  0  0  0  0  0  0  0  0  1  0  0
  -21.6831   -7.6255   22.3917 F   0  0  0  0  0  0  0  0  0  0  0  0
  -23.2494  -11.0496   19.5232 F   0  0  0  0  0  0  0  0  0  0  0  0
  1  2  1  0  0  0  0
  1  5  2  0  0  0  0
  2  6  2  0  0  0  0
  3  8  2  0  0  0  0
  3 18  1  0  0  0  0
  4  9  1  0  0  0  0
  4 18  2  0  0  0  0
  5 20  1  0  0  0  0
  6 22  1  0  0  0  0
  7 10  2  0  0  0  0
  7 21  1  0  0  0  0
  8 25  1  0  0  0  0
  9 25  2  0  0  0  0
 10 26  1  0  0  0  0
 11 12  2  0  0  0  0
 11 27  1  0  0  0  0
 12 28  1  0  0  0  0
 13 17  2  0  0  0  0
 13 24  1  0  0  0  0
 14 23  1  0  0  0  0
 14 26  2  0  0  0  0
 15 24  2  0  0  0  0
 15 31  1  0  0  0  0
 16 28  2  0  0  0  0
 16 29  1  0  0  0  0
 17 67  1  0  0  0  0
 18 30  1  0  0  0  0
 19 30  1  0  0  0  0
 19 32  2  0  0  0  0
 19 33  1  0  0  0  0
 20 22  2  0  0  0  0
 20 38  1  0  0  0  0
 21 23  2  0  0  0  0
 21 39  1  0  0  0  0
 22 47  1  0  0  0  0
 23 40  1  0  0  0  0
 24 57  1  0  0  0  0
 25 84  1  0  0  0  0
 26 85  1  0  0  0  0
 27 29  2  0  0  0  0
 27 84  1  0  0  0  0
 28 86  1  0  0  0  0
 29 87  1  0  0  0  0
 30 68  2  0  0  0  0
 31 58  1  0  0  0  0
 31 67  2  0  0  0  0
 32 69  1  0  0  0  0
 32 72  1  0  0  0  0
 33 73  1  0  0  0  0
 33 79  2  0  0  0  0
 34 48  1  0  0  0  0
 34 74  1  0  0  0  0
 34 80  2  0  0  0  0
 35 64  1  0  0  0  0
 35 70  1  0  0  0  0
 35 81  2  0  0  0  0
 36 65  1  0  0  0  0
 36 75  1  0  0  0  0
 36 82  2  0  0  0  0
 37 71  1  0  0  0  0
 37 76  1  0  0  0  0
 37 83  2  0  0  0  0
 38 41  1  0  0  0  0
 39 48  1  0  0  0  0
 40 70  1  0  0  0  0
 41 43  1  0  0  0  0
 42 44  1  0  0  0  0
 42 45  1  0  0  0  0
 43 47  1  0  0  0  0
 44 49  1  0  0  0  0
 45 71  1  0  0  0  0
 46 49  1  0  0  0  0
 46 71  1  0  0  0  0
 47 74  1  0  0  0  0
 48 70  1  0  0  0  0
 49 69  1  0  0  0  0
 50 65  1  0  0  0  0
 51 66  1  0  0  0  0
 52 66  1  0  0  0  0
 53 66  1  0  0  0  0
 54 76  1  0  0  0  0
 55 77  1  0  0  0  0
 56 78  1  0  0  0  0
 57 63  1  0  0  0  0
 58 61  1  0  0  0  0
 59 60  1  0  0  0  0
 59 62  1  0  0  0  0
 60 76  1  0  0  0  0
 61 78  1  0  0  0  0
 62 78  1  0  0  0  0
 63 85  1  0  0  0  0
 64 66  1  0  0  0  0
 64 75  1  0  0  0  0
 65 77  1  0  0  0  0
 68 69  1  0  0  0  0
M  CHG  2  77   1  78   1
M  ISO  4  37 100  63 101  76 100  85 101
M  END
> <Batch ID>
0050

> <Smiles>
CNC(C)C(=O)NC(C(=O)N1Cc2cc([101O:1][101CH2:1]Cc3ccnc(CCN(C)CCC[100N:0](C)[100C:0](=O)N4CCCC(n5nc(-c6ccc(Oc7ccc(F)cc7F)cc6)c(C(N)=O)c5N)C4)c3)ccc2CC1C(=O)NC1CCCc2ccccc21)C(C)(C)C

> <Shape>
0.282

> <Color>
0.065

> <Negative vol penalty>
0.000

$$$$

  -OEChem-04052317313D

 81 89  0     1  0  0  0  0  0999 V2000
  -17.4815  -28.8276   25.5198 C   0  0  0  0  0  0  0  0  0  0  0  0
  -18.1213  -27.7107   26.0475 C   0  0  0  0  0  0  0  0  0  0  0  0
  -23.8301   -9.7877   21.6673 C   0  0  0  0  0  0  0  0  0  0  0  0
  -24.4005  -10.9347   23.7157 C   0  0  0  0  0  0  0  0  0  0  0  0
  -17.6812  -29.1783   24.1852 C   0  0  0  0  0  0  0  0  0  0  0  0
  -18.9604  -26.9431   25.2406 C   0  0  0  0  0  0  0  0  0  0  0  0
  -24.9118  -22.9690   25.5625 C   0  0  0  0  0  0  0  0  0  0  0  0
  -23.3026   -8.7293   22.4068 C   0  0  0  0  0  0  0  0  0  0  0  0
  -23.8729   -9.8763   24.4553 C   0  0  0  0  0  0  0  0  0  0  0  0
  -25.3809  -21.7021   25.2180 C   0  0  0  0  0  0  0  0  0  0  0  0
  -20.4592   -8.0515   24.1065 C   0  0  0  0  0  0  0  0  0  0  0  0
  -19.2252   -7.5357   23.7107 C   0  0  0  0  0  0  0  0  0  0  0  0
  -25.7132  -22.4489   22.9484 C   0  0  0  0  0  0  0  0  0  0  0  0
  -20.2419   -5.3724   23.3596 C   0  0  0  0  0  0  0  0  0  0  0  0
  -26.1914  -17.0178   23.2075 C   0  0  0  0  0  0  0  0  0  0  0  0
  -28.0943  -17.4248   24.2315 C   0  0  0  0  0  0  0  0  0  0  0  0
  -24.3792  -10.8904   22.3217 C   0  0  0  0  0  0  0  0  0  0  0  0
  -24.2424  -13.1295   21.1070 C   0  0  0  0  0  0  0  0  0  0  0  0
  -18.5308  -28.4202   23.3642 C   0  0  0  0  0  0  0  0  0  0  0  0
  -24.8295  -23.9839   24.5984 C   0  0  0  0  0  0  0  0  0  0  0  0
  -19.1707  -27.2832   23.8935 C   0  0  0  0  0  0  0  0  0  0  0  0
  -25.2451  -23.7285   23.2838 C   0  0  0  0  0  0  0  0  0  0  0  0
  -26.8377  -17.9470   24.0445 C   0  0  0  0  0  0  0  0  0  0  0  0
  -23.3239   -8.7736   23.8008 C   0  0  0  0  0  0  0  0  0  0  0  0
  -25.7789  -21.4410   23.9101 C   0  0  0  0  0  0  0  0  0  0  0  0
  -21.5847   -7.2277   24.1288 C   0  0  0  0  0  0  0  0  0  0  0  0
  -19.1165   -6.1962   23.3373 C   0  0  0  0  0  0  0  0  0  0  0  0
  -21.4760   -5.8881   23.7554 C   0  0  0  0  0  0  0  0  0  0  0  0
  -24.9248  -11.9839   21.5583 C   0  0  0  0  0  0  0  0  0  0  0  0
  -25.1962  -13.8552   20.4360 C   0  0  0  0  0  0  0  0  0  0  0  0
  -22.8692  -13.5043   21.2790 C   0  0  0  0  0  0  0  0  0  0  0  0
  -22.4669  -25.7048   23.3492 C   0  0  0  0  0  0  0  0  0  0  0  0
  -24.9032  -27.2747   21.8922 C   0  0  0  0  0  0  0  0  0  0  0  0
  -28.1263  -27.2194   20.7717 C   0  0  0  0  0  0  0  0  0  0  0  0
  -31.2893  -13.5976   21.0248 C   0  0  0  0  0  0  0  0  0  0  0  0
  -18.6785  -28.8110   21.9150 C   0  0  0  0  0  0  0  0  0  0  0  0
  -24.3465  -25.3529   24.9922 C   0  0  0  0  0  0  0  0  0  0  0  0
  -25.1955  -24.7897   22.2161 C   0  0  0  0  0  0  0  0  0  0  0  0
  -19.8771  -28.1615   21.2281 C   0  0  0  0  0  0  0  0  0  0  0  0
  -29.2448  -13.3446   17.9494 C   0  0  0  0  0  0  0  0  0  0  0  0
  -19.9346  -26.6718   21.5508 C   0  0  0  0  0  0  0  0  0  0  0  0
  -27.8624  -12.9928   18.4965 C   0  0  0  0  0  0  0  0  0  0  0  0
  -30.3600  -12.8482   18.8646 C   0  0  0  0  0  0  0  0  0  0  0  0
  -28.8514  -12.9589   20.8206 C   0  0  0  0  0  0  0  0  0  0  0  0
  -20.1079  -26.4397   23.0566 C   0  0  1  0  0  0  0  0  0  0  0  0
  -23.8210  -26.1636   23.8116 C   0  0  1  0  0  0  0  0  0  0  0  0
  -27.7041  -13.4856   19.9454 C   0  0  2  0  0  0  0  0  0  0  0  0
  -33.0890  -16.0673   22.2229 C   0  0  0  0  0  0  0  0  0  0  0  0
  -29.8252  -28.6379   19.5889 C   0  0  0  0  0  0  0  0  0  0  0  0
  -23.4827  -26.7610   19.2411 C   0  0  0  0  0  0  0  0  0  0  0  0
  -25.6198  -27.3271   18.0662 C   0  0  0  0  0  0  0  0  0  0  0  0
  -24.4758  -29.0451   19.4671 C   0  0  0  0  0  0  0  0  0  0  0  0
  -29.9685  -27.1480   23.0869 C   0  0  0  0  0  0  0  0  0  0  0  0
  -26.2823  -19.2231   24.6053 C   0  0  0  0  0  0  0  0  0  1  0  0
  -29.2392  -15.3516   23.4132 C   0  0  0  0  0  0  0  0  0  0  0  0
  -32.2819  -14.9419   22.8379 C   0  0  0  0  0  0  0  0  0  0  0  0
  -29.9947  -15.4906   22.0941 C   0  0  0  0  0  0  0  0  0  0  0  0
  -25.6542  -27.1122   20.5928 C   0  0  1  0  0  0  0  0  0  0  0  0
  -29.2670  -28.2074   20.9364 C   0  0  2  0  0  0  0  0  0  0  0  0
  -24.8074  -27.5406   19.3612 C   0  0  0  0  0  0  0  0  0  0  0  0
  -26.9728  -15.9837   22.8849 N   0  0  0  0  0  0  0  0  0  0  0  0
  -26.2125  -11.9776   21.2038 N   0  0  0  0  0  0  0  0  0  0  0  0
  -28.1231  -16.2601   23.5224 N   0  0  0  0  0  0  0  0  0  0  0  0
  -26.3470  -13.1283   20.5226 N   0  0  0  0  0  0  0  0  0  0  0  0
  -24.7098  -26.1104   22.6491 N   0  0  0  0  0  0  0  0  0  0  0  0
  -30.1617  -13.2950   20.2438 N   0  0  0  0  0  0  0  0  0  0  0  0
  -25.1544  -15.0378   19.7863 N   0  0  0  0  0  0  0  0  0  0  0  0
  -22.0263  -12.6433   21.9949 N   0  0  0  0  0  0  0  0  0  0  0  0
  -21.4820  -26.6690   23.4485 N   0  0  0  0  0  0  0  0  0  0  0  0
  -26.9017  -27.8527   20.7470 N   0  0  0  0  0  0  0  0  0  0  0  0
  -31.1383  -14.5849   22.0103 N   0  0  0  0  0  0  0  0  0  0  0  0
  -30.3712  -27.5962   21.7289 N   0  3  0  0  0  0  0  0  0  0  0  0
  -22.3996  -14.5632   20.7976 O   0  0  0  0  0  0  0  0  0  0  0  0
  -22.3265  -24.5613   22.9318 O   0  0  0  0  0  0  0  0  0  0  0  0
  -24.5090  -28.3946   22.2269 O   0  0  0  0  0  0  0  0  0  0  0  0
  -28.3040  -26.0075   20.6711 O   0  0  0  0  0  0  0  0  0  0  0  0
  -32.3718  -13.0252   20.8447 O   0  0  0  0  0  0  0  0  0  0  0  0
  -22.8090   -7.7410   24.5228 O   0  0  0  0  0  0  0  0  0  0  0  0
  -26.2366  -20.2051   23.5710 O   0  0  0  0  0  0  0  0  0  1  0  0
  -17.9310   -5.7007   22.9587 F   0  0  0  0  0  0  0  0  0  0  0  0
  -22.5534   -5.0916   23.7760 F   0  0  0  0  0  0  0  0  0  0  0  0
  1  2  1  0  0  0  0
  1  5  2  0  0  0  0
  2  6  2  0  0  0  0
  3  8  2  0  0  0  0
  3 17  1  0  0  0  0
  4  9  1  0  0  0  0
  4 17  2  0  0  0  0
  5 19  1  0  0  0  0
  6 21  1  0  0  0  0
  7 10  2  0  0  0  0
  7 20  1  0  0  0  0
  8 24  1  0  0  0  0
  9 24  2  0  0  0  0
 10 25  1  0  0  0  0
 11 12  2  0  0  0  0
 11 26  1  0  0  0  0
 12 27  1  0  0  0  0
 13 22  1  0  0  0  0
 13 25  2  0  0  0  0
 14 27  2  0  0  0  0
 14 28  1  0  0  0  0
 15 23  1  0  0  0  0
 15 61  2  0  0  0  0
 16 23  2  0  0  0  0
 16 63  1  0  0  0  0
 17 29  1  0  0  0  0
 18 29  1  0  0  0  0
 18 30  2  0  0  0  0
 18 31  1  0  0  0  0
 19 21  2  0  0  0  0
 19 36  1  0  0  0  0
 20 22  2  0  0  0  0
 20 37  1  0  0  0  0
 21 45  1  0  0  0  0
 22 38  1  0  0  0  0
 23 54  1  0  0  0  0
 24 78  1  0  0  0  0
 25 79  1  0  0  0  0
 26 28  2  0  0  0  0
 26 78  1  0  0  0  0
 27 80  1  0  0  0  0
 28 81  1  0  0  0  0
 29 62  2  0  0  0  0
 30 64  1  0  0  0  0
 30 67  1  0  0  0  0
 31 68  1  0  0  0  0
 31 73  2  0  0  0  0
 32 46  1  0  0  0  0
 32 69  1  0  0  0  0
 32 74  2  0  0  0  0
 33 58  1  0  0  0  0
 33 65  1  0  0  0  0
 33 75  2  0  0  0  0
 34 59  1  0  0  0  0
 34 70  1  0  0  0  0
 34 76  2  0  0  0  0
 35 66  1  0  0  0  0
 35 71  1  0  0  0  0
 35 77  2  0  0  0  0
 36 39  1  0  0  0  0
 37 46  1  0  0  0  0
 38 65  1  0  0  0  0
 39 41  1  0  0  0  0
 40 42  1  0  0  0  0
 40 43  1  0  0  0  0
 41 45  1  0  0  0  0
 42 47  1  0  0  0  0
 43 66  1  0  0  0  0
 44 47  1  0  0  0  0
 44 66  1  0  0  0  0
 45 69  1  0  0  0  0
 46 65  1  0  0  0  0
 47 64  1  0  0  0  0
 48 56  1  0  0  0  0
 49 59  1  0  0  0  0
 50 60  1  0  0  0  0
 51 60  1  0  0  0  0
 52 60  1  0  0  0  0
 53 72  1  0  0  0  0
 54 79  1  0  0  0  0
 55 57  1  0  0  0  0
 55 63  1  0  0  0  0
 56 71  1  0  0  0  0
 57 71  1  0  0  0  0
 58 60  1  0  0  0  0
 58 70  1  0  0  0  0
 59 72  1  0  0  0  0
 61 63  1  0  0  0  0
 62 64  1  0  0  0  0
M  CHG  1  72   1
M  ISO  4  35 100  54 101  71 100  79 101
M  END
> <Batch ID>
0050

> <Smiles>
CC[100N:0](CCn1cc([101CH2:1][101O:1]c2ccc3c(c2)CN(C(=O)C(NC(=O)C(C)NC)C(C)(C)C)C(C(=O)NC2CCCc4ccccc42)C3)cn1)[100C:0](=O)N1CCCC(n2nc(-c3ccc(Oc4ccc(F)cc4F)cc3)c(C(N)=O)c2N)C1

> <Shape>
0.241

> <Color>
0.149

> <Negative vol penalty>
0.000

$$$$

  -OEChem-04052317313D

 83 91  0     1  0  0  0  0  0999 V2000
  -27.2100  -19.1020   29.0548 C   0  0  0  0  0  0  0  0  0  0  0  0
  -27.0933  -19.3520   27.6913 C   0  0  0  0  0  0  0  0  0  0  0  0
  -23.0736   -9.8701   19.9414 C   0  0  0  0  0  0  0  0  0  0  0  0
  -23.8383   -9.8745   22.2332 C   0  0  0  0  0  0  0  0  0  0  0  0
  -26.2121  -18.3907   29.7199 C   0  0  0  0  0  0  0  0  0  0  0  0
  -25.9790  -18.8900   26.9917 C   0  0  0  0  0  0  0  0  0  0  0  0
  -24.0594  -22.3843   23.8693 C   0  0  0  0  0  0  0  0  0  0  0  0
  -22.3305   -8.7165   20.1915 C   0  0  0  0  0  0  0  0  0  0  0  0
  -23.0952   -8.7209   22.4834 C   0  0  0  0  0  0  0  0  0  0  0  0
  -24.7230  -22.5918   22.6608 C   0  0  0  0  0  0  0  0  0  0  0  0
  -19.8684   -7.9219   23.0917 C   0  0  0  0  0  0  0  0  0  0  0  0
  -19.1139   -7.8804   24.2642 C   0  0  0  0  0  0  0  0  0  0  0  0
  -23.0882  -21.2213   21.5347 C   0  0  0  0  0  0  0  0  0  0  0  0
  -20.3572   -5.9423   24.9957 C   0  0  0  0  0  0  0  0  0  0  0  0
  -26.9752  -18.1839   21.6826 C   0  0  0  0  0  0  0  0  0  0  0  0
  -23.8276  -10.4491   20.9622 C   0  0  0  0  0  0  0  0  0  0  0  0
  -24.1688  -12.9744   20.8444 C   0  0  0  0  0  0  0  0  0  0  0  0
  -25.0804  -17.9281   29.0301 C   0  0  0  0  0  0  0  0  0  0  0  0
  -22.9094  -21.5835   23.9214 C   0  0  0  0  0  0  0  0  0  0  0  0
  -24.9657  -18.1708   27.6479 C   0  0  0  0  0  0  0  0  0  0  0  0
  -22.4103  -21.0073   22.7445 C   0  0  0  0  0  0  0  0  0  0  0  0
  -28.6233  -19.2486   19.8497 C   0  0  0  0  0  0  0  0  0  0  0  0
  -22.3412   -8.1419   21.4625 C   0  0  0  0  0  0  0  0  0  0  0  0
  -24.2391  -22.0079   21.4938 C   0  0  0  0  0  0  0  0  0  0  0  0
  -20.8673   -6.9735   22.8712 C   0  0  0  0  0  0  0  0  0  0  0  0
  -19.3583   -6.8907   25.2162 C   0  0  0  0  0  0  0  0  0  0  0  0
  -21.1117   -5.9838   23.8232 C   0  0  0  0  0  0  0  0  0  0  0  0
  -24.5960  -11.6404   20.7042 C   0  0  0  0  0  0  0  0  0  0  0  0
  -27.2686  -19.5108   19.8605 C   0  0  0  0  0  0  0  0  0  0  0  0
  -29.0758  -18.4036   20.8424 C   0  0  0  0  0  0  0  0  0  0  0  0
  -25.2600  -13.7245   20.4797 C   0  0  0  0  0  0  0  0  0  0  0  0
  -22.8991  -13.4895   21.2666 C   0  0  0  0  0  0  0  0  0  0  0  0
  -22.1260  -18.8763   25.3915 C   0  0  0  0  0  0  0  0  0  0  0  0
  -19.1892  -19.5209   24.1741 C   0  0  0  0  0  0  0  0  0  0  0  0
  -17.3230  -21.0981   21.7915 C   0  0  0  0  0  0  0  0  0  0  0  0
  -30.7440  -14.7442   20.6577 C   0  0  0  0  0  0  0  0  0  0  0  0
  -24.0506  -17.1229   29.7823 C   0  0  0  0  0  0  0  0  0  0  0  0
  -22.1899  -21.3913   25.2282 C   0  0  0  0  0  0  0  0  0  0  0  0
  -21.1681  -20.1557   22.7435 C   0  0  0  0  0  0  0  0  0  0  0  0
  -22.7212  -16.9921   29.0435 C   0  0  0  0  0  0  0  0  0  0  0  0
  -29.6018  -12.3623   18.2705 C   0  0  0  0  0  0  0  0  0  0  0  0
  -22.9564  -16.6202   27.5830 C   0  0  0  0  0  0  0  0  0  0  0  0
  -28.1653  -12.0678   18.7061 C   0  0  0  0  0  0  0  0  0  0  0  0
  -30.5214  -12.5819   19.4697 C   0  0  0  0  0  0  0  0  0  0  0  0
  -28.6225  -13.3110   20.8612 C   0  0  0  0  0  0  0  0  0  0  0  0
  -23.7600  -17.7075   26.8594 C   0  0  1  0  0  0  0  0  0  0  0  0
  -21.3211  -20.1375   25.2532 C   0  0  1  0  0  0  0  0  0  0  0  0
  -27.6458  -13.1376   19.6854 C   0  0  2  0  0  0  0  0  0  0  0  0
  -29.5365  -19.8383   18.8341 C   0  0  0  0  0  0  0  0  0  0  0  0
  -14.9511  -21.4074   21.0325 C   0  0  0  0  0  0  0  0  0  0  0  0
  -19.2139  -16.7202   22.9637 C   0  0  0  0  0  0  0  0  0  0  0  0
  -17.3261  -17.4219   21.4765 C   0  0  0  0  0  0  0  0  0  0  0  0
  -17.0228  -17.4101   23.9525 C   0  0  0  0  0  0  0  0  0  0  0  0
  -17.4420  -24.0227   22.2292 C   0  0  0  0  0  0  0  0  0  0  0  0
  -26.6584  -20.4206   18.8244 C   0  0  0  0  0  0  0  0  0  0  0  0
  -30.5234  -18.0474   20.9307 C   0  0  0  0  0  0  0  0  0  0  0  0
  -26.9204  -21.9067   19.0786 C   0  0  0  0  0  0  0  0  0  0  0  0
  -30.8121  -16.8933   21.8969 C   0  0  0  0  0  0  0  0  0  0  0  0
  -26.2957  -22.4173   20.3718 C   0  0  0  0  0  0  0  0  0  1  0  0
  -18.4685  -19.1910   22.8893 C   0  0  1  0  0  0  0  0  0  0  0  0
  -16.0764  -21.9583   21.8946 C   0  0  2  0  0  0  0  0  0  0  0  0
  -18.0323  -17.7002   22.8205 C   0  0  0  0  0  0  0  0  0  0  0  0
  -26.4121  -18.9936   20.7656 N   0  0  0  0  0  0  0  0  0  0  0  0
  -28.2766  -17.8514   21.7787 N   0  0  0  0  0  0  0  0  0  0  0  0
  -25.8600  -11.5452   20.2831 N   0  0  0  0  0  0  0  0  0  0  0  0
  -26.2364  -12.8290   20.1555 N   0  0  0  0  0  0  0  0  0  0  0  0
  -20.5036  -19.9922   24.0470 N   0  0  0  0  0  0  0  0  0  0  0  0
  -29.9725  -13.6093   20.3581 N   0  0  0  0  0  0  0  0  0  0  0  0
  -25.4701  -15.0561   20.4078 N   0  0  0  0  0  0  0  0  0  0  0  0
  -21.8880  -12.5798   21.6049 N   0  0  0  0  0  0  0  0  0  0  0  0
  -22.9085  -18.8302   26.5295 N   0  0  0  0  0  0  0  0  0  0  0  0
  -17.3668  -20.1414   22.7836 N   0  0  0  0  0  0  0  0  0  0  0  0
  -30.1465  -15.6720   21.5021 N   0  0  0  0  0  0  0  0  0  0  0  0
  -16.3697  -23.3505   21.4512 N   0  3  0  0  0  0  0  0  0  0  0  0
  -22.6628  -14.7200   21.3258 O   0  0  0  0  0  0  0  0  0  0  0  0
  -22.0422  -18.0086   24.5302 O   0  0  0  0  0  0  0  0  0  0  0  0
  -18.6050  -19.3730   25.2504 O   0  0  0  0  0  0  0  0  0  0  0  0
  -18.1710  -21.2564   20.9162 O   0  0  0  0  0  0  0  0  0  0  0  0
  -31.8790  -14.9204   20.2019 O   0  0  0  0  0  0  0  0  0  0  0  0
  -21.6160   -7.0164   21.7071 O   0  0  0  0  0  0  0  0  0  0  0  0
  -24.8853  -22.2083   20.3130 O   0  0  0  0  0  0  0  0  0  1  0  0
  -18.6348   -6.8520   26.3427 F   0  0  0  0  0  0  0  0  0  0  0  0
  -22.0707   -5.0707   23.6175 F   0  0  0  0  0  0  0  0  0  0  0  0
  1  2  1  0  0  0  0
  1  5  2  0  0  0  0
  2  6  2  0  0  0  0
  3  8  2  0  0  0  0
  3 16  1  0  0  0  0
  4  9  1  0  0  0  0
  4 16  2  0  0  0  0
  5 18  1  0  0  0  0
  6 20  1  0  0  0  0
  7 10  2  0  0  0  0
  7 19  1  0  0  0  0
  8 23  1  0  0  0  0
  9 23  2  0  0  0  0
 10 24  1  0  0  0  0
 11 12  2  0  0  0  0
 11 25  1  0  0  0  0
 12 26  1  0  0  0  0
 13 21  1  0  0  0  0
 13 24  2  0  0  0  0
 14 26  2  0  0  0  0
 14 27  1  0  0  0  0
 15 63  2  0  0  0  0
 15 64  1  0  0  0  0
 16 28  1  0  0  0  0
 17 28  1  0  0  0  0
 17 31  2  0  0  0  0
 17 32  1  0  0  0  0
 18 20  2  0  0  0  0
 18 37  1  0  0  0  0
 19 21  2  0  0  0  0
 19 38  1  0  0  0  0
 20 46  1  0  0  0  0
 21 39  1  0  0  0  0
 22 29  2  0  0  0  0
 22 30  1  0  0  0  0
 22 49  1  0  0  0  0
 23 80  1  0  0  0  0
 24 81  1  0  0  0  0
 25 27  2  0  0  0  0
 25 80  1  0  0  0  0
 26 82  1  0  0  0  0
 27 83  1  0  0  0  0
 28 65  2  0  0  0  0
 29 55  1  0  0  0  0
 29 63  1  0  0  0  0
 30 56  1  0  0  0  0
 30 64  2  0  0  0  0
 31 66  1  0  0  0  0
 31 69  1  0  0  0  0
 32 70  1  0  0  0  0
 32 75  2  0  0  0  0
 33 47  1  0  0  0  0
 33 71  1  0  0  0  0
 33 76  2  0  0  0  0
 34 60  1  0  0  0  0
 34 67  1  0  0  0  0
 34 77  2  0  0  0  0
 35 61  1  0  0  0  0
 35 72  1  0  0  0  0
 35 78  2  0  0  0  0
 36 68  1  0  0  0  0
 36 73  1  0  0  0  0
 36 79  2  0  0  0  0
 37 40  1  0  0  0  0
 38 47  1  0  0  0  0
 39 67  1  0  0  0  0
 40 42  1  0  0  0  0
 41 43  1  0  0  0  0
 41 44  1  0  0  0  0
 42 46  1  0  0  0  0
 43 48  1  0  0  0  0
 44 68  1  0  0  0  0
 45 48  1  0  0  0  0
 45 68  1  0  0  0  0
 46 71  1  0  0  0  0
 47 67  1  0  0  0  0
 48 66  1  0  0  0  0
 50 61  1  0  0  0  0
 51 62  1  0  0  0  0
 52 62  1  0  0  0  0
 53 62  1  0  0  0  0
 54 74  1  0  0  0  0
 55 57  1  0  0  0  0
 56 58  1  0  0  0  0
 57 59  1  0  0  0  0
 58 73  1  0  0  0  0
 59 81  1  0  0  0  0
 60 62  1  0  0  0  0
 60 72  1  0  0  0  0
 61 74  1  0  0  0  0
 65 66  1  0  0  0  0
M  CHG  1  74   1
M  ISO  4  36 100  59 101  73 100  81 101
M  END
> <Batch ID>
0050

> <Smiles>
CNC(C)C(=O)NC(C(=O)N1Cc2cc([101O:1][101CH2:1]CCc3ncnc(CC[100NH:0][100C:0](=O)N4CCCC(n5nc(-c6ccc(Oc7ccc(F)cc7F)cc6)c(C(N)=O)c5N)C4)c3C)ccc2CC1C(=O)NC1CCCc2ccccc21)C(C)(C)C

> <Shape>
0.200

> <Color>
0.191

> <Negative vol penalty>
0.000

$$$$

  -OEChem-04052317313D

 89 97  0     1  0  0  0  0  0999 V2000
  -30.2819  -23.3437   18.0747 C   0  0  0  0  0  0  0  0  0  0  0  0
  -29.0455  -23.4046   18.7095 C   0  0  0  0  0  0  0  0  0  0  0  0
  -21.3623  -10.3238   21.8993 C   0  0  0  0  0  0  0  0  0  0  0  0
  -23.7147  -10.5995   21.4226 C   0  0  0  0  0  0  0  0  0  0  0  0
  -31.3161  -24.1849   18.4829 C   0  0  0  0  0  0  0  0  0  0  0  0
  -28.8430  -24.3062   19.7539 C   0  0  0  0  0  0  0  0  0  0  0  0
  -24.4344  -26.7680   19.3677 C   0  0  0  0  0  0  0  0  0  0  0  0
  -21.1677  -22.6914   20.9728 C   0  0  0  0  0  0  0  0  0  0  0  0
  -21.5057   -8.9394   21.8066 C   0  0  0  0  0  0  0  0  0  0  0  0
  -23.8581   -9.2151   21.3299 C   0  0  0  0  0  0  0  0  0  0  0  0
  -23.2845  -26.0783   19.7496 C   0  0  0  0  0  0  0  0  0  0  0  0
  -21.3266   -5.3169   22.0521 C   0  0  0  0  0  0  0  0  0  0  0  0
  -20.7194   -4.5348   23.0345 C   0  0  0  0  0  0  0  0  0  0  0  0
  -21.7536  -21.5617   20.4126 C   0  0  0  0  0  0  0  0  0  0  0  0
  -23.3127  -27.2201   21.8744 C   0  0  0  0  0  0  0  0  0  0  0  0
  -22.0442   -5.6350   24.7292 C   0  0  0  0  0  0  0  0  0  0  0  0
  -22.4667  -11.1538   21.7072 C   0  0  0  0  0  0  0  0  0  0  0  0
  -22.4600  -13.3783   22.9559 C   0  0  0  0  0  0  0  0  0  0  0  0
  -31.1232  -25.1039   19.5264 C   0  0  0  0  0  0  0  0  0  0  0  0
  -25.0394  -27.6823   20.2420 C   0  0  0  0  0  0  0  0  0  0  0  0
  -29.8760  -25.1595   20.1774 C   0  0  0  0  0  0  0  0  0  0  0  0
  -24.4688  -27.9219   21.5002 C   0  0  0  0  0  0  0  0  0  0  0  0
  -21.2262  -22.8885   22.3480 C   0  0  0  0  0  0  0  0  0  0  0  0
  -22.7536   -8.3851   21.5220 C   0  0  0  0  0  0  0  0  0  0  0  0
  -22.7251  -26.3022   21.0042 C   0  0  0  0  0  0  0  0  0  0  0  0
  -22.2927   -6.2580   22.4082 C   0  0  0  0  0  0  0  0  0  0  0  0
  -21.0782   -4.6938   24.3731 C   0  0  0  0  0  0  0  0  0  0  0  0
  -22.6514   -6.4171   23.7467 C   0  0  0  0  0  0  0  0  0  0  0  0
  -22.3191  -12.5840   21.8023 C   0  0  0  0  0  0  0  0  0  0  0  0
  -22.3808  -20.6665   21.2640 C   0  0  0  0  0  0  0  0  0  0  0  0
  -21.8768  -21.9338   23.1128 C   0  0  0  0  0  0  0  0  0  0  0  0
  -22.2227  -14.6596   22.5217 C   0  0  0  0  0  0  0  0  0  0  0  0
  -22.7771  -12.9926   24.2999 C   0  0  0  0  0  0  0  0  0  0  0  0
  -27.8747  -27.8865   21.6643 C   0  0  0  0  0  0  0  0  0  0  0  0
  -26.7547  -30.7790   22.6139 C   0  0  0  0  0  0  0  0  0  0  0  0
  -24.0617  -32.7735   23.2594 C   0  0  0  0  0  0  0  0  0  0  0  0
  -22.7289  -17.3133   17.1782 C   0  0  0  0  0  0  0  0  0  0  0  0
  -32.2854  -25.9597   19.9641 C   0  0  0  0  0  0  0  0  0  0  0  0
  -26.2642  -28.4379   19.8046 C   0  0  0  0  0  0  0  0  0  0  0  0
  -25.0681  -28.9083   22.4679 C   0  0  0  0  0  0  0  0  0  0  0  0
  -31.8747  -27.1481   20.8297 C   0  0  0  0  0  0  0  0  0  0  0  0
  -19.8007  -17.0965   19.1920 C   0  0  0  0  0  0  0  0  0  0  0  0
  -30.8958  -26.7064   21.9131 C   0  0  0  0  0  0  0  0  0  0  0  0
  -20.1268  -15.9871   20.1934 C   0  0  0  0  0  0  0  0  0  0  0  0
  -20.3895  -16.8036   17.8138 C   0  0  0  0  0  0  0  0  0  0  0  0
  -22.1629  -15.4103   18.8076 C   0  0  0  0  0  0  0  0  0  0  0  0
  -29.6099  -26.1415   21.2977 C   0  0  1  0  0  0  0  0  0  0  0  0
  -27.0898  -28.9658   20.9739 C   0  0  1  0  0  0  0  0  0  0  0  0
  -21.6377  -15.6879   20.2265 C   0  0  2  0  0  0  0  0  0  0  0  0
  -22.9801  -21.1318   25.2166 C   0  0  0  0  0  0  0  0  0  0  0  0
  -23.4617  -35.0756   24.0580 C   0  0  0  0  0  0  0  0  0  0  0  0
  -27.0723  -19.6775   19.3828 C   0  0  0  0  0  0  0  0  0  0  0  0
  -27.4179  -29.9563   25.4763 C   0  0  0  0  0  0  0  0  0  0  0  0
  -25.9614  -31.8282   26.2779 C   0  0  0  0  0  0  0  0  0  0  0  0
  -27.9893  -32.3249   24.9127 C   0  0  0  0  0  0  0  0  0  0  0  0
  -22.6912  -33.4238   20.7182 C   0  0  0  0  0  0  0  0  0  0  0  0
  -25.4535  -17.4193   20.9262 C   0  0  0  0  0  0  0  0  0  0  0  0
  -20.5909  -24.1122   22.9622 C   0  0  0  0  0  0  0  0  0  0  0  0
  -23.0217  -19.4441   20.6964 C   0  0  0  0  0  0  0  0  0  0  0  0
  -21.9734  -22.0947   24.5946 C   0  0  0  0  0  0  0  0  0  0  0  0
  -25.6361  -18.9053   17.4511 C   0  0  0  0  0  0  0  0  0  0  0  0
  -25.1208  -17.7110   16.6494 C   0  0  0  0  0  0  0  0  0  0  0  0
  -24.4887  -19.6299   20.3075 C   0  0  0  0  0  0  0  0  0  0  0  0
  -21.4408  -25.3639   22.7723 C   0  0  0  0  0  0  0  0  0  1  0  0
  -25.9709  -31.2848   23.8009 C   0  0  1  0  0  0  0  0  0  0  0  0
  -23.7423  -34.1992   22.8472 C   0  0  2  0  0  0  0  0  0  0  0  0
  -26.1913  -18.5598   18.8390 C   0  0  2  0  0  0  0  0  0  0  0  0
  -26.8244  -31.3284   25.0997 C   0  0  0  0  0  0  0  0  0  0  0  0
  -22.0156  -13.3005   20.7167 N   0  0  0  0  0  0  0  0  0  0  0  0
  -22.4578  -20.8240   22.6045 N   0  0  0  0  0  0  0  0  0  0  0  0
  -21.9638  -14.5586   21.1864 N   0  0  0  0  0  0  0  0  0  0  0  0
  -26.2690  -29.6176   21.9965 N   0  0  0  0  0  0  0  0  0  0  0  0
  -21.8251  -16.5300   17.9148 N   0  0  0  0  0  0  0  0  0  0  0  0
  -22.2122  -15.8514   23.1556 N   0  0  0  0  0  0  0  0  0  0  0  0
  -22.9907  -11.6345   24.5724 N   0  0  0  0  0  0  0  0  0  0  0  0
  -28.7555  -27.2152   20.8379 N   0  0  0  0  0  0  0  0  0  0  0  0
  -25.4185  -32.5758   23.4051 N   0  0  0  0  0  0  0  0  0  0  0  0
  -24.0714  -16.9915   17.3363 N   0  0  0  0  0  0  0  0  0  0  0  0
  -22.5452  -34.2260   21.9600 N   0  3  0  0  0  0  0  0  0  0  0  0
  -25.0543  -18.3519   19.8091 N   0  3  1  0  0  0  0  0  0  0  0  0
  -22.8521  -13.8255   25.2348 O   0  0  0  0  0  0  0  0  0  0  0  0
  -27.6955  -27.6792   22.8587 O   0  0  0  0  0  0  0  0  0  0  0  0
  -27.7567  -31.3958   22.2437 O   0  0  0  0  0  0  0  0  0  0  0  0
  -23.1941  -31.9215   23.4381 O   0  0  0  0  0  0  0  0  0  0  0  0
  -22.3667  -18.2347   16.4389 O   0  0  0  0  0  0  0  0  0  0  0  0
  -22.8940   -7.0343   21.4317 O   0  0  0  0  0  0  0  0  0  0  0  0
  -21.6031  -25.6300   21.3797 O   0  0  0  0  0  0  0  0  0  1  0  0
  -20.4939   -3.9438   25.3165 F   0  0  0  0  0  0  0  0  0  0  0  0
  -23.5780   -7.3204   24.0950 F   0  0  0  0  0  0  0  0  0  0  0  0
  1  2  1  0  0  0  0
  1  5  2  0  0  0  0
  2  6  2  0  0  0  0
  3  9  2  0  0  0  0
  3 17  1  0  0  0  0
  4 10  1  0  0  0  0
  4 17  2  0  0  0  0
  5 19  1  0  0  0  0
  6 21  1  0  0  0  0
  7 11  2  0  0  0  0
  7 20  1  0  0  0  0
  8 14  2  0  0  0  0
  8 23  1  0  0  0  0
  9 24  1  0  0  0  0
 10 24  2  0  0  0  0
 11 25  1  0  0  0  0
 12 13  2  0  0  0  0
 12 26  1  0  0  0  0
 13 27  1  0  0  0  0
 14 30  1  0  0  0  0
 15 22  1  0  0  0  0
 15 25  2  0  0  0  0
 16 27  2  0  0  0  0
 16 28  1  0  0  0  0
 17 29  1  0  0  0  0
 18 29  1  0  0  0  0
 18 32  2  0  0  0  0
 18 33  1  0  0  0  0
 19 21  2  0  0  0  0
 19 38  1  0  0  0  0
 20 22  2  0  0  0  0
 20 39  1  0  0  0  0
 21 47  1  0  0  0  0
 22 40  1  0  0  0  0
 23 31  2  0  0  0  0
 23 58  1  0  0  0  0
 24 86  1  0  0  0  0
 25 87  1  0  0  0  0
 26 28  2  0  0  0  0
 26 86  1  0  0  0  0
 27 88  1  0  0  0  0
 28 89  1  0  0  0  0
 29 69  2  0  0  0  0
 30 59  1  0  0  0  0
 30 70  2  0  0  0  0
 31 60  1  0  0  0  0
 31 70  1  0  0  0  0
 32 71  1  0  0  0  0
 32 74  1  0  0  0  0
 33 75  1  0  0  0  0
 33 81  2  0  0  0  0
 34 48  1  0  0  0  0
 34 76  1  0  0  0  0
 34 82  2  0  0  0  0
 35 65  1  0  0  0  0
 35 72  1  0  0  0  0
 35 83  2  0  0  0  0
 36 66  1  0  0  0  0
 36 77  1  0  0  0  0
 36 84  2  0  0  0  0
 37 73  1  0  0  0  0
 37 78  1  0  0  0  0
 37 85  2  0  0  0  0
 38 41  1  0  0  0  0
 39 48  1  0  0  0  0
 40 72  1  0  0  0  0
 41 43  1  0  0  0  0
 42 44  1  0  0  0  0
 42 45  1  0  0  0  0
 43 47  1  0  0  0  0
 44 49  1  0  0  0  0
 45 73  1  0  0  0  0
 46 49  1  0  0  0  0
 46 73  1  0  0  0  0
 47 76  1  0  0  0  0
 48 72  1  0  0  0  0
 49 71  1  0  0  0  0
 50 60  1  0  0  0  0
 51 66  1  0  0  0  0
 52 67  1  0  0  0  0
 53 68  1  0  0  0  0
 54 68  1  0  0  0  0
 55 68  1  0  0  0  0
 56 79  1  0  0  0  0
 57 80  1  0  0  0  0
 58 64  1  0  0  0  0
 59 63  1  0  0  0  0
 61 62  1  0  0  0  0
 61 67  1  0  0  0  0
 62 78  1  0  0  0  0
 63 80  1  0  0  0  0
 64 87  1  0  0  0  0
 65 68  1  0  0  0  0
 65 77  1  0  0  0  0
 66 79  1  0  0  0  0
 67 80  1  0  0  0  0
 69 71  1  0  0  0  0
M  CHG  2  79   1  80   1
M  ISO  4  37 100  64 101  78 100  87 101
M  END
> <Batch ID>
0050

> <Smiles>
CCc1nc(CCN(C)C(C)CC[100NH:0][100C:0](=O)N2CCCC(n3nc(-c4ccc(Oc5ccc(F)cc5F)cc4)c(C(N)=O)c3N)C2)ccc1C[101CH2:1][101O:1]c1ccc2c(c1)CN(C(=O)C(NC(=O)C(C)NC)C(C)(C)C)C(C(=O)NC1CCCc3ccccc31)C2

> <Shape>
0.239

> <Color>
0.068

> <Negative vol penalty>
0.000

$$$$

  -OEChem-04052317313D

 85 93  0     1  0  0  0  0  0999 V2000
  -21.8706  -35.1973   22.4683 C   0  0  0  0  0  0  0  0  0  0  0  0
  -23.0157  -34.4334   22.2665 C   0  0  0  0  0  0  0  0  0  0  0  0
  -22.6795  -10.4804   22.1612 C   0  0  0  0  0  0  0  0  0  0  0  0
  -23.4454   -9.7854   19.9778 C   0  0  0  0  0  0  0  0  0  0  0  0
  -20.7356  -34.6148   23.0308 C   0  0  0  0  0  0  0  0  0  0  0  0
  -23.0268  -33.0868   22.6283 C   0  0  0  0  0  0  0  0  0  0  0  0
  -25.9649  -28.5328   19.7762 C   0  0  0  0  0  0  0  0  0  0  0  0
  -22.3975   -9.1533   22.4848 C   0  0  0  0  0  0  0  0  0  0  0  0
  -23.1634   -8.4582   20.3013 C   0  0  0  0  0  0  0  0  0  0  0  0
  -27.1810  -27.8988   20.0272 C   0  0  0  0  0  0  0  0  0  0  0  0
  -24.1135   -6.4094   23.4643 C   0  0  0  0  0  0  0  0  0  0  0  0
  -24.5168   -5.9479   24.7173 C   0  0  0  0  0  0  0  0  0  0  0  0
  -26.0187  -26.1561   21.2235 C   0  0  0  0  0  0  0  0  0  0  0  0
  -22.2195   -5.4457   25.2716 C   0  0  0  0  0  0  0  0  0  0  0  0
  -29.0825  -23.0099   20.7393 C   0  0  0  0  0  0  0  0  0  0  0  0
  -28.9692  -22.2327   18.1877 C   0  0  0  0  0  0  0  0  0  0  0  0
  -23.2034  -10.7965   20.9077 C   0  0  0  0  0  0  0  0  0  0  0  0
  -24.7059  -12.8541   20.7788 C   0  0  0  0  0  0  0  0  0  0  0  0
  -20.7296  -33.2580   23.3907 C   0  0  0  0  0  0  0  0  0  0  0  0
  -24.7656  -27.9879   20.2572 C   0  0  0  0  0  0  0  0  0  0  0  0
  -21.8911  -32.4859   23.1974 C   0  0  0  0  0  0  0  0  0  0  0  0
  -24.7885  -26.7837   20.9751 C   0  0  0  0  0  0  0  0  0  0  0  0
  -22.6394   -8.1422   21.5548 C   0  0  0  0  0  0  0  0  0  0  0  0
  -27.2084  -26.7118   20.7534 C   0  0  0  0  0  0  0  0  0  0  0  0
  -22.7632   -6.3892   23.1149 C   0  0  0  0  0  0  0  0  0  0  0  0
  -23.5698   -5.4660   25.6209 C   0  0  0  0  0  0  0  0  0  0  0  0
  -21.8162   -5.9072   24.0186 C   0  0  0  0  0  0  0  0  0  0  0  0
  -23.4944  -12.1674   20.5727 C   0  0  0  0  0  0  0  0  0  0  0  0
  -29.6565  -23.7647   19.7402 C   0  0  0  0  0  0  0  0  0  0  0  0
  -28.3958  -21.4775   19.1869 C   0  0  0  0  0  0  0  0  0  0  0  0
  -24.4714  -14.1174   20.2935 C   0  0  0  0  0  0  0  0  0  0  0  0
  -25.9335  -12.3914   21.3572 C   0  0  0  0  0  0  0  0  0  0  0  0
  -22.5079  -28.9625   22.2713 C   0  0  0  0  0  0  0  0  0  0  0  0
  -21.0142  -26.2536   21.2949 C   0  0  0  0  0  0  0  0  0  0  0  0
  -21.2727  -23.1201   19.9678 C   0  0  0  0  0  0  0  0  0  0  0  0
  -22.4165  -17.5234   16.3791 C   0  0  0  0  0  0  0  0  0  0  0  0
  -19.4946  -32.6844   24.0391 C   0  0  0  0  0  0  0  0  0  0  0  0
  -23.4595  -28.6700   19.9551 C   0  0  0  0  0  0  0  0  0  0  0  0
  -23.5269  -26.1470   21.4961 C   0  0  0  0  0  0  0  0  0  0  0  0
  -19.4649  -31.1582   24.0492 C   0  0  0  0  0  0  0  0  0  0  0  0
  -20.1610  -16.3504   18.8718 C   0  0  0  0  0  0  0  0  0  0  0  0
  -20.8083  -30.6011   24.5093 C   0  0  0  0  0  0  0  0  0  0  0  0
  -20.9245  -15.2108   19.5488 C   0  0  0  0  0  0  0  0  0  0  0  0
  -20.4417  -16.4048   17.3717 C   0  0  0  0  0  0  0  0  0  0  0  0
  -22.6339  -15.3241   17.6877 C   0  0  0  0  0  0  0  0  0  0  0  0
  -21.9339  -31.0158   23.5539 C   0  0  1  0  0  0  0  0  0  0  0  0
  -22.3502  -28.2967   20.9335 C   0  0  1  0  0  0  0  0  0  0  0  0
  -22.4265  -15.2636   19.2108 C   0  0  2  0  0  0  0  0  0  0  0  0
  -19.8824  -21.1328   19.3235 C   0  0  0  0  0  0  0  0  0  0  0  0
  -20.7472  -25.4897   24.2368 C   0  0  0  0  0  0  0  0  0  0  0  0
  -20.2433  -23.1472   23.5109 C   0  0  0  0  0  0  0  0  0  0  0  0
  -18.7240  -25.0109   22.8469 C   0  0  0  0  0  0  0  0  0  0  0  0
  -22.0918  -23.3207   17.1309 C   0  0  0  0  0  0  0  0  0  0  0  0
  -25.3092  -20.8025   19.2495 C   0  0  0  0  0  0  0  0  0  0  0  0
  -30.3662  -25.0562   20.0669 C   0  0  0  0  0  0  0  0  0  0  0  0
  -27.6954  -20.2039   18.8645 C   0  0  0  0  0  0  0  0  0  0  0  0
  -24.9443  -19.6757   16.3543 C   0  0  0  0  0  0  0  0  0  0  0  0
  -24.4884  -18.5307   15.4563 C   0  0  0  0  0  0  0  0  0  0  0  0
  -25.9166  -19.2124   17.4317 C   0  0  0  0  0  0  0  0  0  0  0  0
  -29.4285  -26.2580   20.0316 C   0  0  0  0  0  0  0  0  0  1  0  0
  -20.9968  -24.8165   21.7568 C   0  0  1  0  0  0  0  0  0  0  0  0
  -20.5102  -22.4340   18.8487 C   0  0  2  0  0  0  0  0  0  0  0  0
  -20.2020  -24.6288   23.0798 C   0  0  0  0  0  0  0  0  0  0  0  0
  -29.6099  -23.3898   18.4464 N   0  0  0  0  0  0  0  0  0  0  0  0
  -28.4421  -21.8525   20.4806 N   0  0  0  0  0  0  0  0  0  0  0  0
  -22.5595  -12.9312   20.0011 N   0  0  0  0  0  0  0  0  0  0  0  0
  -23.1837  -14.1109   19.8440 N   0  0  0  0  0  0  0  0  0  0  0  0
  -22.2755  -26.8552   21.1802 N   0  0  0  0  0  0  0  0  0  0  0  0
  -21.8838  -16.4550   17.1193 N   0  0  0  0  0  0  0  0  0  0  0  0
  -25.2430  -15.2221   20.2118 N   0  0  0  0  0  0  0  0  0  0  0  0
  -26.0032  -11.0650   21.8046 N   0  0  0  0  0  0  0  0  0  0  0  0
  -21.9056  -30.2032   22.3567 N   0  0  0  0  0  0  0  0  0  0  0  0
  -20.4859  -24.0338   20.6366 N   0  0  0  0  0  0  0  0  0  0  0  0
  -23.7930  -17.4977   16.1912 N   0  0  0  0  0  0  0  0  0  0  0  0
  -21.4233  -22.1278   17.7115 N   0  3  0  0  0  0  0  0  0  0  0  0
  -26.3563  -20.4038   18.2423 N   0  3  1  0  0  0  0  0  0  0  0  0
  -26.9337  -13.1370   21.4887 O   0  0  0  0  0  0  0  0  0  0  0  0
  -23.1286  -28.3920   23.1606 O   0  0  0  0  0  0  0  0  0  0  0  0
  -19.9485  -26.8192   21.0382 O   0  0  0  0  0  0  0  0  0  0  0  0
  -22.4477  -22.8677   20.2254 O   0  0  0  0  0  0  0  0  0  0  0  0
  -21.7179  -18.4356   15.9243 O   0  0  0  0  0  0  0  0  0  0  0  0
  -22.3646   -6.8470   21.8703 O   0  0  0  0  0  0  0  0  0  0  0  0
  -28.3941  -26.0913   21.0003 O   0  0  0  0  0  0  0  0  0  1  0  0
  -23.9573   -5.0214   26.8235 F   0  0  0  0  0  0  0  0  0  0  0  0
  -20.5177   -5.8842   23.6882 F   0  0  0  0  0  0  0  0  0  0  0  0
  1  2  1  0  0  0  0
  1  5  2  0  0  0  0
  2  6  2  0  0  0  0
  3  8  2  0  0  0  0
  3 17  1  0  0  0  0
  4  9  1  0  0  0  0
  4 17  2  0  0  0  0
  5 19  1  0  0  0  0
  6 21  1  0  0  0  0
  7 10  2  0  0  0  0
  7 20  1  0  0  0  0
  8 23  1  0  0  0  0
  9 23  2  0  0  0  0
 10 24  1  0  0  0  0
 11 12  2  0  0  0  0
 11 25  1  0  0  0  0
 12 26  1  0  0  0  0
 13 22  1  0  0  0  0
 13 24  2  0  0  0  0
 14 26  2  0  0  0  0
 14 27  1  0  0  0  0
 15 29  1  0  0  0  0
 15 65  2  0  0  0  0
 16 30  2  0  0  0  0
 16 64  1  0  0  0  0
 17 28  1  0  0  0  0
 18 28  1  0  0  0  0
 18 31  2  0  0  0  0
 18 32  1  0  0  0  0
 19 21  2  0  0  0  0
 19 37  1  0  0  0  0
 20 22  2  0  0  0  0
 20 38  1  0  0  0  0
 21 46  1  0  0  0  0
 22 39  1  0  0  0  0
 23 82  1  0  0  0  0
 24 83  1  0  0  0  0
 25 27  2  0  0  0  0
 25 82  1  0  0  0  0
 26 84  1  0  0  0  0
 27 85  1  0  0  0  0
 28 66  2  0  0  0  0
 29 55  1  0  0  0  0
 29 64  2  0  0  0  0
 30 56  1  0  0  0  0
 30 65  1  0  0  0  0
 31 67  1  0  0  0  0
 31 70  1  0  0  0  0
 32 71  1  0  0  0  0
 32 77  2  0  0  0  0
 33 47  1  0  0  0  0
 33 72  1  0  0  0  0
 33 78  2  0  0  0  0
 34 61  1  0  0  0  0
 34 68  1  0  0  0  0
 34 79  2  0  0  0  0
 35 62  1  0  0  0  0
 35 73  1  0  0  0  0
 35 80  2  0  0  0  0
 36 69  1  0  0  0  0
 36 74  1  0  0  0  0
 36 81  2  0  0  0  0
 37 40  1  0  0  0  0
 38 47  1  0  0  0  0
 39 68  1  0  0  0  0
 40 42  1  0  0  0  0
 41 43  1  0  0  0  0
 41 44  1  0  0  0  0
 42 46  1  0  0  0  0
 43 48  1  0  0  0  0
 44 69  1  0  0  0  0
 45 48  1  0  0  0  0
 45 69  1  0  0  0  0
 46 72  1  0  0  0  0
 47 68  1  0  0  0  0
 48 67  1  0  0  0  0
 49 62  1  0  0  0  0
 50 63  1  0  0  0  0
 51 63  1  0  0  0  0
 52 63  1  0  0  0  0
 53 75  1  0  0  0  0
 54 76  1  0  0  0  0
 55 60  1  0  0  0  0
 56 76  1  0  0  0  0
 57 58  1  0  0  0  0
 57 59  1  0  0  0  0
 58 74  1  0  0  0  0
 59 76  1  0  0  0  0
 60 83  1  0  0  0  0
 61 63  1  0  0  0  0
 61 73  1  0  0  0  0
 62 75  1  0  0  0  0
 66 67  1  0  0  0  0
M  CHG  2  75   1  76   1
M  ISO  4  36 100  60 101  74 100  83 101
M  END
> <Batch ID>
0050

> <Smiles>
CNC(C)C(=O)NC(C(=O)N1Cc2cc([101O:1][101CH2:1]Cc3cnc(CN(C)CCC[100NH:0][100C:0](=O)N4CCCC(n5nc(-c6ccc(Oc7ccc(F)cc7F)cc6)c(C(N)=O)c5N)C4)cn3)ccc2CC1C(=O)NC1CCCc2ccccc21)C(C)(C)C

> <Shape>
0.223

> <Color>
0.109

> <Negative vol penalty>
0.000

$$$$

  -OEChem-04052317312D

  0  0  0     0  0  0  0  0  0999 V2000
M  END
$$$$

  -OEChem-04052317313D

 86 95  0     1  0  0  0  0  0999 V2000
  -21.2906  -24.1375   31.8243 C   0  0  0  0  0  0  0  0  0  0  0  0
  -21.0751  -25.2745   31.0522 C   0  0  0  0  0  0  0  0  0  0  0  0
  -28.9771  -17.7168   19.4705 C   0  0  0  0  0  0  0  0  0  0  0  0
  -30.3952  -18.0813   21.3922 C   0  0  0  0  0  0  0  0  0  0  0  0
  -21.8536  -23.0003   31.2466 C   0  0  0  0  0  0  0  0  0  0  0  0
  -21.4235  -25.2753   29.7020 C   0  0  0  0  0  0  0  0  0  0  0  0
  -19.3729  -28.0152   23.4088 C   0  0  0  0  0  0  0  0  0  0  0  0
  -29.5103  -16.4368   19.3197 C   0  0  0  0  0  0  0  0  0  0  0  0
  -30.9285  -16.8013   21.2415 C   0  0  0  0  0  0  0  0  0  0  0  0
  -19.8868  -28.7246   22.3242 C   0  0  0  0  0  0  0  0  0  0  0  0
  -30.2381  -12.9394   18.6462 C   0  0  0  0  0  0  0  0  0  0  0  0
  -29.3505  -11.8918   18.4007 C   0  0  0  0  0  0  0  0  0  0  0  0
  -20.7793  -26.6762   21.4150 C   0  0  0  0  0  0  0  0  0  0  0  0
  -28.2363  -12.3449   20.4961 C   0  0  0  0  0  0  0  0  0  0  0  0
  -24.8204  -29.3107   18.8145 C   0  0  0  0  0  0  0  0  0  0  0  0
  -29.4195  -18.5391   20.5067 C   0  0  0  0  0  0  0  0  0  0  0  0
  -27.7438  -20.2299   21.4236 C   0  0  0  0  0  0  0  0  0  0  0  0
  -22.2002  -22.9839   29.8864 C   0  0  0  0  0  0  0  0  0  0  0  0
  -19.5680  -26.6303   23.5104 C   0  0  0  0  0  0  0  0  0  0  0  0
  -21.9929  -24.1373   29.1058 C   0  0  0  0  0  0  0  0  0  0  0  0
  -20.2646  -25.9511   22.5006 C   0  0  0  0  0  0  0  0  0  0  0  0
  -30.4860  -15.9790   20.2052 C   0  0  0  0  0  0  0  0  0  0  0  0
  -20.5926  -28.0556   21.3285 C   0  0  0  0  0  0  0  0  0  0  0  0
  -30.1249  -13.6897   19.8167 C   0  0  0  0  0  0  0  0  0  0  0  0
  -28.3495  -11.5946   19.3257 C   0  0  0  0  0  0  0  0  0  0  0  0
  -29.1240  -13.3924   20.7416 C   0  0  0  0  0  0  0  0  0  0  0  0
  -28.8694  -19.8617   20.6626 C   0  0  0  0  0  0  0  0  0  0  0  0
  -23.8355  -29.6751   19.6962 C   0  0  0  0  0  0  0  0  0  0  0  0
  -27.6380  -21.5877   21.2452 C   0  0  0  0  0  0  0  0  0  0  0  0
  -25.2812  -28.4101   20.7954 C   0  0  0  0  0  0  0  0  0  0  0  0
  -26.0667  -27.6125   21.7526 C   0  0  0  0  0  0  0  0  0  0  0  0
  -26.8441  -27.9193   19.1086 C   0  0  0  0  0  0  0  0  0  0  0  0
  -27.1795  -27.0529   21.2378 C   0  0  0  0  0  0  0  0  0  0  0  0
  -26.8719  -19.4174   22.2206 C   0  0  0  0  0  0  0  0  0  0  0  0
  -21.0289  -24.7171   25.5863 C   0  0  0  0  0  0  0  0  0  0  0  0
  -19.7233  -22.3790   23.7556 C   0  0  0  0  0  0  0  0  0  0  0  0
  -18.4676  -21.4320   20.7269 C   0  0  0  0  0  0  0  0  0  0  0  0
  -30.4340  -26.5372   21.2000 C   0  0  0  0  0  0  0  0  0  0  0  0
  -22.8496  -21.7473   29.3175 C   0  0  0  0  0  0  0  0  0  0  0  0
  -18.9843  -25.8755   24.6731 C   0  0  0  0  0  0  0  0  0  0  0  0
  -20.4841  -24.4620   22.5524 C   0  0  0  0  0  0  0  0  0  0  0  0
  -22.8449  -21.7038   27.7916 C   0  0  0  0  0  0  0  0  0  0  0  0
  -29.9737  -24.6948   18.0226 C   0  0  0  0  0  0  0  0  0  0  0  0
  -23.2921  -23.0446   27.2180 C   0  0  0  0  0  0  0  0  0  0  0  0
  -29.6230  -23.2871   18.5016 C   0  0  0  0  0  0  0  0  0  0  0  0
  -30.8474  -25.4356   19.0303 C   0  0  0  0  0  0  0  0  0  0  0  0
  -29.9211  -24.0820   20.8807 C   0  0  0  0  0  0  0  0  0  0  0  0
  -22.3347  -24.1686   27.6319 C   0  0  1  0  0  0  0  0  0  0  0  0
  -19.6855  -24.5462   24.9352 C   0  0  1  0  0  0  0  0  0  0  0  0
  -29.0029  -23.3252   19.9092 C   0  0  2  0  0  0  0  0  0  0  0  0
  -17.5137  -19.4474   19.5233 C   0  0  0  0  0  0  0  0  0  0  0  0
  -21.9941  -30.4842   18.0734 C   0  0  0  0  0  0  0  0  0  0  0  0
  -22.9346  -32.0203   19.7861 C   0  0  0  0  0  0  0  0  0  0  0  0
  -22.5246  -21.2003   23.4842 C   0  0  0  0  0  0  0  0  0  0  0  0
  -21.6882  -19.8356   21.5591 C   0  0  0  0  0  0  0  0  0  0  0  0
  -20.7119  -19.5128   23.8318 C   0  0  0  0  0  0  0  0  0  0  0  0
  -29.5463  -27.9753   22.9953 C   0  0  0  0  0  0  0  0  0  0  0  0
  -15.8892  -22.8080   20.2605 C   0  0  0  0  0  0  0  0  0  0  0  0
  -28.0857  -26.2088   22.0833 C   0  0  0  0  0  0  0  0  0  0  0  0
  -21.4676  -30.1045   20.4966 C   0  0  0  0  0  0  0  0  0  1  0  0
  -20.1599  -21.6100   22.5321 C   0  0  1  0  0  0  0  0  0  0  0  0
  -17.2010  -20.6844   20.3508 C   0  0  2  0  0  0  0  0  0  0  0  0
  -22.5770  -30.5425   19.5059 C   0  0  0  0  0  0  0  0  0  0  0  0
  -21.2689  -20.5680   22.8515 C   0  0  0  0  0  0  0  0  0  0  0  0
  -29.4379  -20.9015   20.0465 N   0  0  0  0  0  0  0  0  0  0  0  0
  -27.5753  -27.2025   19.9137 N   0  0  0  0  0  0  0  0  0  0  0  0
  -25.6866  -28.5351   19.5318 N   0  0  0  0  0  0  0  0  0  0  0  0
  -28.6664  -21.9365   20.4201 N   0  0  0  0  0  0  0  0  0  0  0  0
  -24.1454  -29.1038   20.9156 N   0  3  0  0  0  0  0  0  0  0  0  0
  -19.8994  -23.7693   23.7125 N   0  0  0  0  0  0  0  0  0  0  0  0
  -30.2555  -25.4193   20.3685 N   0  0  0  0  0  0  0  0  0  0  0  0
  -26.7665  -22.5053   21.7152 N   0  0  0  0  0  0  0  0  0  0  0  0
  -27.1240  -18.0407   22.2948 N   0  0  0  0  0  0  0  0  0  0  0  0
  -21.1297  -24.1266   26.8315 N   0  0  0  0  0  0  0  0  0  0  0  0
  -18.9483  -21.0358   21.9570 N   0  0  0  0  0  0  0  0  0  0  0  0
  -29.4125  -26.8199   22.1194 N   0  0  0  0  0  0  0  0  0  0  0  0
  -16.2964  -21.5640   19.5578 N   0  3  0  0  0  0  0  0  0  0  0  0
  -25.8884  -19.8954   22.8352 O   0  0  0  0  0  0  0  0  0  0  0  0
  -21.9092  -25.3374   25.0015 O   0  0  0  0  0  0  0  0  0  0  0  0
  -19.2372  -21.7694   24.7115 O   0  0  0  0  0  0  0  0  0  0  0  0
  -18.9813  -22.2798   20.0004 O   0  0  0  0  0  0  0  0  0  0  0  0
  -31.4440  -27.2478   21.1182 O   0  0  0  0  0  0  0  0  0  0  0  0
  -31.0064  -14.7299   20.0586 O   0  0  0  0  0  0  0  0  0  0  0  0
  -21.0958  -28.7457   20.2691 O   0  0  0  0  0  0  0  0  0  1  0  0
  -27.4962  -10.5895   19.0891 F   0  0  0  0  0  0  0  0  0  0  0  0
  -29.0095  -14.1105   21.8672 F   0  0  0  0  0  0  0  0  0  0  0  0
  1  2  1  0  0  0  0
  1  5  2  0  0  0  0
  2  6  2  0  0  0  0
  3  8  2  0  0  0  0
  3 16  1  0  0  0  0
  4  9  1  0  0  0  0
  4 16  2  0  0  0  0
  5 18  1  0  0  0  0
  6 20  1  0  0  0  0
  7 10  2  0  0  0  0
  7 19  1  0  0  0  0
  8 22  1  0  0  0  0
  9 22  2  0  0  0  0
 10 23  1  0  0  0  0
 11 12  2  0  0  0  0
 11 24  1  0  0  0  0
 12 25  1  0  0  0  0
 13 21  1  0  0  0  0
 13 23  2  0  0  0  0
 14 25  2  0  0  0  0
 14 26  1  0  0  0  0
 15 28  2  0  0  0  0
 15 67  1  0  0  0  0
 16 27  1  0  0  0  0
 17 27  1  0  0  0  0
 17 29  2  0  0  0  0
 17 34  1  0  0  0  0
 18 20  2  0  0  0  0
 18 39  1  0  0  0  0
 19 21  2  0  0  0  0
 19 40  1  0  0  0  0
 20 48  1  0  0  0  0
 21 41  1  0  0  0  0
 22 83  1  0  0  0  0
 23 84  1  0  0  0  0
 24 26  2  0  0  0  0
 24 83  1  0  0  0  0
 25 85  1  0  0  0  0
 26 86  1  0  0  0  0
 27 65  2  0  0  0  0
 28 63  1  0  0  0  0
 28 69  1  0  0  0  0
 29 68  1  0  0  0  0
 29 72  1  0  0  0  0
 30 31  1  0  0  0  0
 30 67  1  0  0  0  0
 30 69  2  0  0  0  0
 31 33  2  0  0  0  0
 32 66  2  0  0  0  0
 32 67  1  0  0  0  0
 33 59  1  0  0  0  0
 33 66  1  0  0  0  0
 34 73  1  0  0  0  0
 34 78  2  0  0  0  0
 35 49  1  0  0  0  0
 35 74  1  0  0  0  0
 35 79  2  0  0  0  0
 36 61  1  0  0  0  0
 36 70  1  0  0  0  0
 36 80  2  0  0  0  0
 37 62  1  0  0  0  0
 37 75  1  0  0  0  0
 37 81  2  0  0  0  0
 38 71  1  0  0  0  0
 38 76  1  0  0  0  0
 38 82  2  0  0  0  0
 39 42  1  0  0  0  0
 40 49  1  0  0  0  0
 41 70  1  0  0  0  0
 42 44  1  0  0  0  0
 43 45  1  0  0  0  0
 43 46  1  0  0  0  0
 44 48  1  0  0  0  0
 45 50  1  0  0  0  0
 46 71  1  0  0  0  0
 47 50  1  0  0  0  0
 47 71  1  0  0  0  0
 48 74  1  0  0  0  0
 49 70  1  0  0  0  0
 50 68  1  0  0  0  0
 51 62  1  0  0  0  0
 52 63  1  0  0  0  0
 53 63  1  0  0  0  0
 54 64  1  0  0  0  0
 55 64  1  0  0  0  0
 56 64  1  0  0  0  0
 57 76  1  0  0  0  0
 58 77  1  0  0  0  0
 59 76  1  0  0  0  0
 60 63  1  0  0  0  0
 60 84  1  0  0  0  0
 61 64  1  0  0  0  0
 61 75  1  0  0  0  0
 62 77  1  0  0  0  0
 65 68  1  0  0  0  0
M  CHG  2  69   1  77   1
M  ISO  4  38 100  60 101  76 100  84 101
M  END
> <Batch ID>
0050

> <Smiles>
CNC(C)C(=O)NC(C(=O)N1Cc2cc([101O:1][101CH2:1]C(C)(C)c3cn4cnc(C[100N:0](C)[100C:0](=O)N5CCCC(n6nc(-c7ccc(Oc8ccc(F)cc8F)cc7)c(C(N)=O)c6N)C5)cc4n3)ccc2CC1C(=O)NC1CCCc2ccccc21)C(C)(C)C

> <Shape>
0.241

> <Color>
0.075

> <Negative vol penalty>
0.000

$$$$

  -OEChem-04052317313D

 85 93  0     1  0  0  0  0  0999 V2000
  -30.5075  -22.3200   17.1989 C   0  0  0  0  0  0  0  0  0  0  0  0
  -29.2604  -22.7750   17.6120 C   0  0  0  0  0  0  0  0  0  0  0  0
  -27.5546  -17.1941   18.9381 C   0  0  0  0  0  0  0  0  0  0  0  0
  -27.6093  -17.3994   21.3447 C   0  0  0  0  0  0  0  0  0  0  0  0
  -31.6607  -22.9748   17.6263 C   0  0  0  0  0  0  0  0  0  0  0  0
  -29.1654  -23.8919   18.4429 C   0  0  0  0  0  0  0  0  0  0  0  0
  -24.6520  -25.6292   19.3450 C   0  0  0  0  0  0  0  0  0  0  0  0
  -28.1825  -18.4338   18.8180 C   0  0  0  0  0  0  0  0  0  0  0  0
  -28.2373  -18.6391   21.2247 C   0  0  0  0  0  0  0  0  0  0  0  0
  -23.7394  -24.9670   20.1650 C   0  0  0  0  0  0  0  0  0  0  0  0
  -27.3478  -21.8249   20.5243 C   0  0  0  0  0  0  0  0  0  0  0  0
  -26.8786  -22.8689   21.3215 C   0  0  0  0  0  0  0  0  0  0  0  0
  -24.1922  -26.5448   21.9327 C   0  0  0  0  0  0  0  0  0  0  0  0
  -29.0583  -23.0674   22.3445 C   0  0  0  0  0  0  0  0  0  0  0  0
  -21.5924  -17.0030   24.1834 C   0  0  0  0  0  0  0  0  0  0  0  0
  -19.9494  -18.4618   24.2684 C   0  0  0  0  0  0  0  0  0  0  0  0
  -27.2680  -16.6769   20.2014 C   0  0  0  0  0  0  0  0  0  0  0  0
  -27.2373  -14.1354   20.4197 C   0  0  0  0  0  0  0  0  0  0  0  0
  -31.5795  -24.0926   18.4729 C   0  0  0  0  0  0  0  0  0  0  0  0
  -25.3507  -26.7496   19.8171 C   0  0  0  0  0  0  0  0  0  0  0  0
  -30.3166  -24.5808   18.8657 C   0  0  0  0  0  0  0  0  0  0  0  0
  -25.1112  -27.2210   21.1158 C   0  0  0  0  0  0  0  0  0  0  0  0
  -20.1897  -17.1151   24.1453 C   0  0  0  0  0  0  0  0  0  0  0  0
  -28.5239  -19.1563   19.9613 C   0  0  0  0  0  0  0  0  0  0  0  0
  -23.5116  -25.4230   21.4601 C   0  0  0  0  0  0  0  0  0  0  0  0
  -28.6723  -21.4021   20.6373 C   0  0  0  0  0  0  0  0  0  0  0  0
  -27.7338  -23.4901   22.2316 C   0  0  0  0  0  0  0  0  0  0  0  0
  -29.5275  -22.0233   21.5473 C   0  0  0  0  0  0  0  0  0  0  0  0
  -26.6188  -15.3966   20.3260 C   0  0  0  0  0  0  0  0  0  0  0  0
  -26.1939  -13.2479   20.5200 C   0  0  0  0  0  0  0  0  0  0  0  0
  -28.6304  -13.7965   20.4165 C   0  0  0  0  0  0  0  0  0  0  0  0
  -28.4150  -27.4420   20.3010 C   0  0  0  0  0  0  0  0  0  0  0  0
  -20.6474  -13.9699   22.5175 C   0  0  0  0  0  0  0  0  0  0  0  0
  -27.2414  -30.3936   20.9589 C   0  0  0  0  0  0  0  0  0  0  0  0
  -24.5936  -32.3030   21.9540 C   0  0  0  0  0  0  0  0  0  0  0  0
  -32.8592  -24.7680   18.8989 C   0  0  0  0  0  0  0  0  0  0  0  0
  -26.3120  -27.4687   18.9109 C   0  0  0  0  0  0  0  0  0  0  0  0
  -25.8206  -28.4314   21.6635 C   0  0  0  0  0  0  0  0  0  0  0  0
  -32.6817  -25.6595   20.1237 C   0  0  0  0  0  0  0  0  0  0  0  0
  -21.6210  -12.6749   19.2614 C   0  0  0  0  0  0  0  0  0  0  0  0
  -31.4881  -26.5821   19.9265 C   0  0  0  0  0  0  0  0  0  0  0  0
  -23.0727  -13.1427   19.1680 C   0  0  0  0  0  0  0  0  0  0  0  0
  -20.7493  -13.6924   19.9927 C   0  0  0  0  0  0  0  0  0  0  0  0
  -22.7064  -14.5205   21.2610 C   0  0  0  0  0  0  0  0  0  0  0  0
  -30.1903  -25.7752   19.7940 C   0  0  1  0  0  0  0  0  0  0  0  0
  -27.3478  -28.2915   19.6709 C   0  0  1  0  0  0  0  0  0  0  0  0
  -23.6252  -13.5081   20.5569 C   0  0  2  0  0  0  0  0  0  0  0  0
  -23.9495  -34.6804   22.4343 C   0  0  0  0  0  0  0  0  0  0  0  0
  -28.7397  -30.2607   23.6136 C   0  0  0  0  0  0  0  0  0  0  0  0
  -27.3306  -32.1646   24.4245 C   0  0  0  0  0  0  0  0  0  0  0  0
  -28.8440  -32.4807   22.4669 C   0  0  0  0  0  0  0  0  0  0  0  0
  -17.2572  -15.8819   22.6519 C   0  0  0  0  0  0  0  0  0  0  0  0
  -19.4419  -16.5399   21.6183 C   0  0  0  0  0  0  0  0  0  0  0  0
  -18.7000  -15.4234   25.1842 C   0  0  0  0  0  0  0  0  0  0  0  0
  -22.5261  -32.2927   19.8364 C   0  0  0  0  0  0  0  0  0  0  0  0
  -19.1579  -14.2017   22.4768 C   0  0  0  0  0  0  0  0  0  0  0  0
  -21.8808  -21.2135   23.2192 C   0  0  0  0  0  0  0  0  0  0  0  0
  -22.0611  -22.7247   23.3715 C   0  0  0  0  0  0  0  0  0  0  0  0
  -21.4495  -20.5266   24.5200 C   0  0  0  0  0  0  0  0  0  0  0  0
  -22.4547  -23.3766   22.0527 C   0  0  0  0  0  0  0  0  0  1  0  0
  -26.7463  -31.0949   22.2007 C   0  0  1  0  0  0  0  0  0  0  0  0
  -24.0029  -33.5806   21.3853 C   0  0  2  0  0  0  0  0  0  0  0  0
  -27.9030  -31.4762   23.1671 C   0  0  0  0  0  0  0  0  0  0  0  0
  -18.7766  -15.6764   22.6985 C   0  0  0  0  0  0  0  0  0  0  0  0
  -22.2006  -18.1843   24.3198 N   0  0  0  0  0  0  0  0  0  0  0  0
  -25.2858  -15.3212   20.3633 N   0  0  0  0  0  0  0  0  0  0  0  0
  -21.1752  -19.0515   24.3684 N   0  0  0  0  0  0  0  0  0  0  0  0
  -25.0581  -14.0020   20.4814 N   0  0  0  0  0  0  0  0  0  0  0  0
  -26.7556  -29.0966   20.7411 N   0  0  0  0  0  0  0  0  0  0  0  0
  -21.3240  -14.0346   21.2992 N   0  0  0  0  0  0  0  0  0  0  0  0
  -26.1463  -11.9038   20.6364 N   0  0  0  0  0  0  0  0  0  0  0  0
  -29.5695  -14.8311   20.3061 N   0  0  0  0  0  0  0  0  0  0  0  0
  -29.1194  -26.6646   19.4016 N   0  0  0  0  0  0  0  0  0  0  0  0
  -25.9538  -32.2299   21.7401 N   0  0  0  0  0  0  0  0  0  0  0  0
  -19.2817  -16.1295   24.0171 N   0  0  3  0  0  0  0  0  0  0  0  0
  -22.6187  -33.3357   20.8903 N   0  3  0  0  0  0  0  0  0  0  0  0
  -29.0303  -12.6100   20.4922 O   0  0  0  0  0  0  0  0  0  0  0  0
  -28.5877  -27.4895   21.5133 O   0  0  0  0  0  0  0  0  0  0  0  0
  -21.1908  -13.7356   23.6000 O   0  0  0  0  0  0  0  0  0  0  0  0
  -28.0247  -30.9780   20.2061 O   0  0  0  0  0  0  0  0  0  0  0  0
  -23.9168  -31.4565   22.5335 O   0  0  0  0  0  0  0  0  0  0  0  0
  -29.1368  -20.3660   19.8446 O   0  0  0  0  0  0  0  0  0  0  0  0
  -22.6219  -24.7781   22.2629 O   0  0  0  0  0  0  0  0  0  1  0  0
  -27.2835  -24.4937   22.9960 F   0  0  0  0  0  0  0  0  0  0  0  0
  -30.8013  -21.6223   21.6595 F   0  0  0  0  0  0  0  0  0  0  0  0
  1  2  1  0  0  0  0
  1  5  2  0  0  0  0
  2  6  2  0  0  0  0
  3  8  2  0  0  0  0
  3 17  1  0  0  0  0
  4  9  1  0  0  0  0
  4 17  2  0  0  0  0
  5 19  1  0  0  0  0
  6 21  1  0  0  0  0
  7 10  2  0  0  0  0
  7 20  1  0  0  0  0
  8 24  1  0  0  0  0
  9 24  2  0  0  0  0
 10 25  1  0  0  0  0
 11 12  2  0  0  0  0
 11 26  1  0  0  0  0
 12 27  1  0  0  0  0
 13 22  1  0  0  0  0
 13 25  2  0  0  0  0
 14 27  2  0  0  0  0
 14 28  1  0  0  0  0
 15 23  1  0  0  0  0
 15 65  2  0  0  0  0
 16 23  2  0  0  0  0
 16 67  1  0  0  0  0
 17 29  1  0  0  0  0
 18 29  1  0  0  0  0
 18 30  2  0  0  0  0
 18 31  1  0  0  0  0
 19 21  2  0  0  0  0
 19 36  1  0  0  0  0
 20 22  2  0  0  0  0
 20 37  1  0  0  0  0
 21 45  1  0  0  0  0
 22 38  1  0  0  0  0
 23 75  1  0  0  0  0
 24 82  1  0  0  0  0
 25 83  1  0  0  0  0
 26 28  2  0  0  0  0
 26 82  1  0  0  0  0
 27 84  1  0  0  0  0
 28 85  1  0  0  0  0
 29 66  2  0  0  0  0
 30 68  1  0  0  0  0
 30 71  1  0  0  0  0
 31 72  1  0  0  0  0
 31 77  2  0  0  0  0
 32 46  1  0  0  0  0
 32 73  1  0  0  0  0
 32 78  2  0  0  0  0
 33 56  1  0  0  0  0
 33 70  1  0  0  0  0
 33 79  2  0  0  0  0
 34 61  1  0  0  0  0
 34 69  1  0  0  0  0
 34 80  2  0  0  0  0
 35 62  1  0  0  0  0
 35 74  1  0  0  0  0
 35 81  2  0  0  0  0
 36 39  1  0  0  0  0
 37 46  1  0  0  0  0
 38 69  1  0  0  0  0
 39 41  1  0  0  0  0
 40 42  1  0  0  0  0
 40 43  1  0  0  0  0
 41 45  1  0  0  0  0
 42 47  1  0  0  0  0
 43 70  1  0  0  0  0
 44 47  1  0  0  0  0
 44 70  1  0  0  0  0
 45 73  1  0  0  0  0
 46 69  1  0  0  0  0
 47 68  1  0  0  0  0
 48 62  1  0  0  0  0
 49 63  1  0  0  0  0
 50 63  1  0  0  0  0
 51 63  1  0  0  0  0
 52 64  1  0  0  0  0
 53 64  1  0  0  0  0
 54 75  1  0  0  0  0
 55 76  1  0  0  0  0
 56 64  1  0  0  0  0
 57 58  1  0  0  0  0
 57 59  1  0  0  0  0
 58 60  1  0  0  0  0
 59 67  1  0  0  0  0
 60 83  1  0  0  0  0
 61 63  1  0  0  0  0
 61 74  1  0  0  0  0
 62 76  1  0  0  0  0
 64 75  1  0  0  0  0
 65 67  1  0  0  0  0
 66 68  1  0  0  0  0
M  CHG  1  76   1
M  ISO  4  33 100  56 100  60 101  83 101
M  END
> <Batch ID>
0050

> <Smiles>
CNC(C)C(=O)NC(C(=O)N1Cc2cc([101O:1][101CH2:1]CCCn3cc(N(C)C(C)(C)[100CH2:0][100C:0](=O)N4CCCC(n5nc(-c6ccc(Oc7ccc(F)cc7F)cc6)c(C(N)=O)c5N)C4)cn3)ccc2CC1C(=O)NC1CCCc2ccccc21)C(C)(C)C

> <Shape>
0.247

> <Color>
0.075

> <Negative vol penalty>
0.000

$$$$

  -OEChem-04052317313D

 81 89  0     1  0  0  0  0  0999 V2000
  -21.6264  -28.2732   14.6280 C   0  0  0  0  0  0  0  0  0  0  0  0
  -22.8547  -27.6243   14.7040 C   0  0  0  0  0  0  0  0  0  0  0  0
  -22.8051  -10.0894   19.9470 C   0  0  0  0  0  0  0  0  0  0  0  0
  -24.2304   -9.7869   21.8742 C   0  0  0  0  0  0  0  0  0  0  0  0
  -20.6748  -28.0810   15.6287 C   0  0  0  0  0  0  0  0  0  0  0  0
  -23.1324  -26.7836   15.7813 C   0  0  0  0  0  0  0  0  0  0  0  0
  -26.7259  -20.8063   17.4169 C   0  0  0  0  0  0  0  0  0  0  0  0
  -22.1377   -8.9038   20.2544 C   0  0  0  0  0  0  0  0  0  0  0  0
  -23.5630   -8.6013   22.1816 C   0  0  0  0  0  0  0  0  0  0  0  0
  -27.6667  -20.3308   18.3293 C   0  0  0  0  0  0  0  0  0  0  0  0
  -20.6509   -7.6885   23.6333 C   0  0  0  0  0  0  0  0  0  0  0  0
  -20.2879   -7.4772   24.9634 C   0  0  0  0  0  0  0  0  0  0  0  0
  -25.9165  -20.0123   19.9587 C   0  0  0  0  0  0  0  0  0  0  0  0
  -21.6338   -5.4713   25.0119 C   0  0  0  0  0  0  0  0  0  0  0  0
  -31.4180  -15.3906   21.4011 C   0  0  0  0  0  0  0  0  0  0  0  0
  -30.0113  -13.7150   21.6224 C   0  0  0  0  0  0  0  0  0  0  0  0
  -23.8515  -10.5309   20.7568 C   0  0  0  0  0  0  0  0  0  0  0  0
  -24.2191  -13.0522   20.8818 C   0  0  0  0  0  0  0  0  0  0  0  0
  -20.9373  -27.2301   16.7139 C   0  0  0  0  0  0  0  0  0  0  0  0
  -25.3727  -20.8989   17.7728 C   0  0  0  0  0  0  0  0  0  0  0  0
  -22.1839  -26.5810   16.7981 C   0  0  0  0  0  0  0  0  0  0  0  0
  -24.9602  -20.4870   19.0480 C   0  0  0  0  0  0  0  0  0  0  0  0
  -30.3165  -14.9436   22.1553 C   0  0  0  0  0  0  0  0  0  0  0  0
  -22.5166   -8.1598   21.3717 C   0  0  0  0  0  0  0  0  0  0  0  0
  -27.2625  -19.9364   19.6014 C   0  0  0  0  0  0  0  0  0  0  0  0
  -21.5053   -6.7913   22.9925 C   0  0  0  0  0  0  0  0  0  0  0  0
  -20.7793   -6.3686   25.6527 C   0  0  0  0  0  0  0  0  0  0  0  0
  -21.9968   -5.6827   23.6818 C   0  0  0  0  0  0  0  0  0  0  0  0
  -24.5417  -11.7553   20.4394 C   0  0  0  0  0  0  0  0  0  0  0  0
  -25.1706  -13.8580   20.3057 C   0  0  0  0  0  0  0  0  0  0  0  0
  -23.1547  -13.4894   21.7371 C   0  0  0  0  0  0  0  0  0  0  0  0
  -23.2804  -23.2771   18.0372 C   0  0  0  0  0  0  0  0  0  0  0  0
  -30.7298  -12.7196   18.3280 C   0  0  0  0  0  0  0  0  0  0  0  0
  -21.1849  -20.8567   18.5591 C   0  0  0  0  0  0  0  0  0  0  0  0
  -20.6697  -17.6379   19.5694 C   0  0  0  0  0  0  0  0  0  0  0  0
  -19.8957  -27.0906   17.7956 C   0  0  0  0  0  0  0  0  0  0  0  0
  -24.3664  -21.3889   16.7679 C   0  0  0  0  0  0  0  0  0  0  0  0
  -23.5163  -20.5475   19.4725 C   0  0  0  0  0  0  0  0  0  0  0  0
  -20.1251  -25.8908   18.7111 C   0  0  0  0  0  0  0  0  0  0  0  0
  -28.0170  -14.1586   16.4814 C   0  0  0  0  0  0  0  0  0  0  0  0
  -21.5855  -25.8227   19.1461 C   0  0  0  0  0  0  0  0  0  0  0  0
  -26.7862  -13.7988   17.3125 C   0  0  0  0  0  0  0  0  0  0  0  0
  -29.0660  -13.0522   16.5292 C   0  0  0  0  0  0  0  0  0  0  0  0
  -28.2540  -12.3096   18.7453 C   0  0  0  0  0  0  0  0  0  0  0  0
  -22.5130  -25.6419   17.9383 C   0  0  1  0  0  0  0  0  0  0  0  0
  -23.0911  -21.9241   17.4117 C   0  0  1  0  0  0  0  0  0  0  0  0
  -27.1823  -13.4141   18.7490 C   0  0  2  0  0  0  0  0  0  0  0  0
  -32.3348  -11.6287   19.8802 C   0  0  0  0  0  0  0  0  0  0  0  0
  -18.8443  -15.9526   19.9235 C   0  0  0  0  0  0  0  0  0  0  0  0
  -20.3685  -22.2846   21.1290 C   0  0  0  0  0  0  0  0  0  0  0  0
  -19.2907  -20.1558   21.8871 C   0  0  0  0  0  0  0  0  0  0  0  0
  -18.4684  -21.3048   19.8313 C   0  0  0  0  0  0  0  0  0  0  0  0
  -21.8338  -15.7858   17.5759 C   0  0  0  0  0  0  0  0  0  0  0  0
  -29.6267  -15.6512   23.2944 C   0  0  0  0  0  0  0  0  0  0  0  0
  -28.4691  -16.5533   22.8526 C   0  0  0  0  0  0  0  0  0  0  0  0
  -28.8918  -17.6154   21.8366 C   0  0  0  0  0  0  0  0  0  0  0  0
  -27.7261  -18.5163   21.4519 C   0  0  0  0  0  0  0  0  0  1  0  0
  -30.9934  -12.3487   19.7657 C   0  0  1  0  0  0  0  0  0  0  0  0
  -20.6958  -20.1099   19.7765 C   0  0  1  0  0  0  0  0  0  0  0  0
  -19.8748  -16.5026   18.9497 C   0  0  2  0  0  0  0  0  0  0  0  0
  -19.7334  -20.9643   20.6489 C   0  0  0  0  0  0  0  0  0  0  0  0
  -31.7877  -14.5170   20.4608 N   0  0  0  0  0  0  0  0  0  0  0  0
  -25.6141  -11.7338   19.6435 N   0  0  0  0  0  0  0  0  0  0  0  0
  -30.9137  -13.5087   20.6207 N   0  0  0  0  0  0  0  0  0  0  0  0
  -25.9736  -13.0272   19.5812 N   0  0  0  0  0  0  0  0  0  0  0  0
  -22.5712  -21.0397   18.4566 N   0  0  0  0  0  0  0  0  0  0  0  0
  -29.3988  -12.7000   17.9107 N   0  0  0  0  0  0  0  0  0  0  0  0
  -25.3901  -15.1892   20.3532 N   0  0  0  0  0  0  0  0  0  0  0  0
  -22.2667  -12.5301   22.2424 N   0  0  0  0  0  0  0  0  0  0  0  0
  -22.4907  -24.2676   17.4852 N   0  0  0  0  0  0  0  0  0  0  0  0
  -20.1118  -18.8664   19.2853 N   0  0  0  0  0  0  0  0  0  0  0  0
  -20.7840  -15.3914   18.5503 N   0  3  0  0  0  0  0  0  0  0  0  0
  -22.9860  -14.6972   22.0310 O   0  0  0  0  0  0  0  0  0  0  0  0
  -24.0825  -23.4122   18.9538 O   0  0  0  0  0  0  0  0  0  0  0  0
  -31.6794  -13.0204   17.6000 O   0  0  0  0  0  0  0  0  0  0  0  0
  -20.3676  -21.2564   17.7261 O   0  0  0  0  0  0  0  0  0  0  0  0
  -21.6819  -17.4530   20.2415 O   0  0  0  0  0  0  0  0  0  0  0  0
  -21.8654   -7.0029   21.6722 O   0  0  0  0  0  0  0  0  0  0  0  0
  -28.1788  -19.4725   20.4942 O   0  0  0  0  0  0  0  0  0  1  0  0
  -20.4319   -6.1666   26.9305 F   0  0  0  0  0  0  0  0  0  0  0  0
  -22.8189   -4.8179   23.0719 F   0  0  0  0  0  0  0  0  0  0  0  0
  1  2  1  0  0  0  0
  1  5  2  0  0  0  0
  2  6  2  0  0  0  0
  3  8  2  0  0  0  0
  3 17  1  0  0  0  0
  4  9  1  0  0  0  0
  4 17  2  0  0  0  0
  5 19  1  0  0  0  0
  6 21  1  0  0  0  0
  7 10  2  0  0  0  0
  7 20  1  0  0  0  0
  8 24  1  0  0  0  0
  9 24  2  0  0  0  0
 10 25  1  0  0  0  0
 11 12  2  0  0  0  0
 11 26  1  0  0  0  0
 12 27  1  0  0  0  0
 13 22  1  0  0  0  0
 13 25  2  0  0  0  0
 14 27  2  0  0  0  0
 14 28  1  0  0  0  0
 15 23  1  0  0  0  0
 15 62  2  0  0  0  0
 16 23  2  0  0  0  0
 16 64  1  0  0  0  0
 17 29  1  0  0  0  0
 18 29  1  0  0  0  0
 18 30  2  0  0  0  0
 18 31  1  0  0  0  0
 19 21  2  0  0  0  0
 19 36  1  0  0  0  0
 20 22  2  0  0  0  0
 20 37  1  0  0  0  0
 21 45  1  0  0  0  0
 22 38  1  0  0  0  0
 23 54  1  0  0  0  0
 24 78  1  0  0  0  0
 25 79  1  0  0  0  0
 26 28  2  0  0  0  0
 26 78  1  0  0  0  0
 27 80  1  0  0  0  0
 28 81  1  0  0  0  0
 29 63  2  0  0  0  0
 30 65  1  0  0  0  0
 30 68  1  0  0  0  0
 31 69  1  0  0  0  0
 31 73  2  0  0  0  0
 32 46  1  0  0  0  0
 32 70  1  0  0  0  0
 32 74  2  0  0  0  0
 33 58  1  0  0  0  0
 33 67  1  0  0  0  0
 33 75  2  0  0  0  0
 34 59  1  0  0  0  0
 34 66  1  0  0  0  0
 34 76  2  0  0  0  0
 35 60  1  0  0  0  0
 35 71  1  0  0  0  0
 35 77  2  0  0  0  0
 36 39  1  0  0  0  0
 37 46  1  0  0  0  0
 38 66  1  0  0  0  0
 39 41  1  0  0  0  0
 40 42  1  0  0  0  0
 40 43  1  0  0  0  0
 41 45  1  0  0  0  0
 42 47  1  0  0  0  0
 43 67  1  0  0  0  0
 44 47  1  0  0  0  0
 44 67  1  0  0  0  0
 45 70  1  0  0  0  0
 46 66  1  0  0  0  0
 47 65  1  0  0  0  0
 48 58  1  0  0  0  0
 49 60  1  0  0  0  0
 50 61  1  0  0  0  0
 51 61  1  0  0  0  0
 52 61  1  0  0  0  0
 53 72  1  0  0  0  0
 54 55  1  0  0  0  0
 55 56  1  0  0  0  0
 56 57  1  0  0  0  0
 57 79  1  0  0  0  0
 58 64  1  0  0  0  0
 59 61  1  0  0  0  0
 59 71  1  0  0  0  0
 60 72  1  0  0  0  0
 62 64  1  0  0  0  0
 63 65  1  0  0  0  0
M  CHG  1  72   1
M  ISO  4  33 100  57 101  58 100  79 101
M  END
> <Batch ID>
0050

> <Smiles>
CNC(C)C(=O)NC(C(=O)N1Cc2cc([101O:1][101CH2:1]CCCc3cnn([100CH:0](C)[100C:0](=O)N4CCCC(n5nc(-c6ccc(Oc7ccc(F)cc7F)cc6)c(C(N)=O)c5N)C4)c3)ccc2CC1C(=O)NC1CCCc2ccccc21)C(C)(C)C

> <Shape>
0.197

> <Color>
0.147

> <Negative vol penalty>
0.000

$$$$

  -OEChem-04052317312D

  0  0  0     0  0  0  0  0  0999 V2000
M  END
$$$$

  -OEChem-04052317313D

 82 90  0     1  0  0  0  0  0999 V2000
  -32.0488  -33.4121   24.4429 C   0  0  0  0  0  0  0  0  0  0  0  0
  -31.9088  -32.1265   23.9301 C   0  0  0  0  0  0  0  0  0  0  0  0
  -24.4317   -9.5627   21.3225 C   0  0  0  0  0  0  0  0  0  0  0  0
  -24.9563  -10.6222   23.4294 C   0  0  0  0  0  0  0  0  0  0  0  0
  -31.0455  -33.9546   25.2447 C   0  0  0  0  0  0  0  0  0  0  0  0
  -30.7658  -31.3822   24.2197 C   0  0  0  0  0  0  0  0  0  0  0  0
  -27.9406  -27.3897   20.5341 C   0  0  0  0  0  0  0  0  0  0  0  0
  -24.1637   -8.3677   21.9901 C   0  0  0  0  0  0  0  0  0  0  0  0
  -24.6882   -9.4273   24.0971 C   0  0  0  0  0  0  0  0  0  0  0  0
  -27.9860  -25.9989   20.4472 C   0  0  0  0  0  0  0  0  0  0  0  0
  -21.6364   -7.0390   23.8013 C   0  0  0  0  0  0  0  0  0  0  0  0
  -20.4853   -6.3388   23.4403 C   0  0  0  0  0  0  0  0  0  0  0  0
  -26.0073  -25.8545   21.8194 C   0  0  0  0  0  0  0  0  0  0  0  0
  -21.8380   -4.4367   22.8163 C   0  0  0  0  0  0  0  0  0  0  0  0
  -28.2763  -20.9224   21.3041 C   0  0  0  0  0  0  0  0  0  0  0  0
  -24.8281  -10.6900   22.0421 C   0  0  0  0  0  0  0  0  0  0  0  0
  -24.1956  -12.9578   21.0601 C   0  0  0  0  0  0  0  0  0  0  0  0
  -29.8852  -33.2203   25.5364 C   0  0  0  0  0  0  0  0  0  0  0  0
  -26.9327  -28.0240   21.2746 C   0  0  0  0  0  0  0  0  0  0  0  0
  -29.7466  -31.9149   25.0273 C   0  0  0  0  0  0  0  0  0  0  0  0
  -25.9498  -27.2535   21.9121 C   0  0  0  0  0  0  0  0  0  0  0  0
  -24.2919   -8.3000   23.3775 C   0  0  0  0  0  0  0  0  0  0  0  0
  -27.0210  -25.2310   21.0923 C   0  0  0  0  0  0  0  0  0  0  0  0
  -22.8884   -6.4380   23.6698 C   0  0  0  0  0  0  0  0  0  0  0  0
  -20.5861   -5.0377   22.9479 C   0  0  0  0  0  0  0  0  0  0  0  0
  -22.9891   -5.1369   23.1773 C   0  0  0  0  0  0  0  0  0  0  0  0
  -25.1057  -11.9245   21.3529 C   0  0  0  0  0  0  0  0  0  0  0  0
  -27.9821  -21.8084   20.2504 C   0  0  0  0  0  0  0  0  0  0  0  0
  -27.9728  -19.6801   20.8030 C   0  0  0  0  0  0  0  0  0  0  0  0
  -24.9464  -13.8999   20.4003 C   0  0  0  0  0  0  0  0  0  0  0  0
  -22.7966  -13.0573   21.3579 C   0  0  0  0  0  0  0  0  0  0  0  0
  -26.8789  -29.9178   23.8269 C   0  0  0  0  0  0  0  0  0  0  0  0
  -23.7146  -30.1048   23.1379 C   0  0  0  0  0  0  0  0  0  0  0  0
  -20.9840  -28.6932   21.6554 C   0  0  0  0  0  0  0  0  0  0  0  0
  -31.0156  -14.7234   20.5568 C   0  0  0  0  0  0  0  0  0  0  0  0
  -28.8492  -33.8310   26.4465 C   0  0  0  0  0  0  0  0  0  0  0  0
  -26.8821  -29.5260   21.3364 C   0  0  0  0  0  0  0  0  0  0  0  0
  -24.8351  -27.8866   22.7028 C   0  0  0  0  0  0  0  0  0  0  0  0
  -27.5001  -33.1183   26.3984 C   0  0  0  0  0  0  0  0  0  0  0  0
  -28.8018  -14.3520   17.6136 C   0  0  0  0  0  0  0  0  0  0  0  0
  -27.6911  -31.6075   26.4854 C   0  0  0  0  0  0  0  0  0  0  0  0
  -27.5540  -13.7073   18.2146 C   0  0  0  0  0  0  0  0  0  0  0  0
  -30.0593  -13.9962   18.4009 C   0  0  0  0  0  0  0  0  0  0  0  0
  -28.7218  -13.6648   20.4540 C   0  0  0  0  0  0  0  0  0  0  0  0
  -28.5101  -31.0856   25.2987 C   0  0  1  0  0  0  0  0  0  0  0  0
  -26.1089  -30.0486   22.5433 C   0  0  1  0  0  0  0  0  0  0  0  0
  -27.4308  -14.0412   19.7115 C   0  0  2  0  0  0  0  0  0  0  0  0
  -18.5283  -29.0617   21.2929 C   0  0  0  0  0  0  0  0  0  0  0  0
  -23.1653  -29.2613   26.0183 C   0  0  0  0  0  0  0  0  0  0  0  0
  -20.8142  -28.7306   25.3410 C   0  0  0  0  0  0  0  0  0  0  0  0
  -21.6660  -31.0679   25.1563 C   0  0  0  0  0  0  0  0  0  0  0  0
  -27.0938  -18.8865   18.5868 C   0  0  0  0  0  0  0  0  0  0  0  0
  -31.8997  -16.0734   22.4210 C   0  0  0  0  0  0  0  0  0  0  0  0
  -21.3121  -28.7748   18.7152 C   0  0  0  0  0  0  0  0  0  0  0  0
  -28.1243  -23.3020   20.2452 C   0  0  0  0  0  0  0  0  0  1  0  0
  -28.0618  -18.3412   21.4139 C   0  0  0  0  0  0  0  0  0  0  0  0
  -29.4154  -17.6169   21.2102 C   0  0  0  0  0  0  0  0  0  0  0  0
  -29.4979  -16.2501   21.8865 C   0  0  0  0  0  0  0  0  0  0  0  0
  -22.4872  -29.3171   23.5277 C   0  0  1  0  0  0  0  0  0  0  0  0
  -19.9265  -29.2723   20.7330 C   0  0  2  0  0  0  0  0  0  0  0  0
  -22.0552  -29.5819   24.9976 C   0  0  0  0  0  0  0  0  0  0  0  0
  -26.3403  -12.1852   20.9150 N   0  0  0  0  0  0  0  0  0  0  0  0
  -27.5269  -21.1821   19.1621 N   0  0  0  0  0  0  0  0  0  0  0  0
  -27.5327  -19.8893   19.5292 N   0  0  0  0  0  0  0  0  0  0  0  0
  -26.2112  -13.3931   20.3402 N   0  0  0  0  0  0  0  0  0  0  0  0
  -24.8324  -29.3584   22.7388 N   0  0  0  0  0  0  0  0  0  0  0  0
  -29.8993  -14.2833   19.8267 N   0  0  0  0  0  0  0  0  0  0  0  0
  -24.6415  -15.1040   19.8715 N   0  0  0  0  0  0  0  0  0  0  0  0
  -22.1823  -11.9994   22.0419 N   0  0  0  0  0  0  0  0  0  0  0  0
  -27.6851  -31.0031   24.1125 N   0  0  0  0  0  0  0  0  0  0  0  0
  -21.4649  -29.6376   22.5374 N   0  0  0  0  0  0  0  0  0  0  0  0
  -30.7735  -15.5810   21.6405 N   0  0  0  0  0  0  0  0  0  0  0  0
  -19.9982  -28.6255   19.3923 N   0  3  0  0  0  0  0  0  0  0  0  0
  -22.1080  -14.0473   21.0127 O   0  0  0  0  0  0  0  0  0  0  0  0
  -26.7499  -28.9077   24.5086 O   0  0  0  0  0  0  0  0  0  0  0  0
  -23.6805  -31.3372   23.1789 O   0  0  0  0  0  0  0  0  0  0  0  0
  -21.3444  -27.5195   21.6015 O   0  0  0  0  0  0  0  0  0  0  0  0
  -32.1641  -14.3774   20.2512 O   0  0  0  0  0  0  0  0  0  0  0  0
  -24.0302   -7.1342   24.0293 O   0  0  0  0  0  0  0  0  0  0  0  0
  -27.0634  -23.8734   21.0096 O   0  0  0  0  0  0  0  0  0  1  0  0
  -19.4805   -4.3649   22.6027 F   0  0  0  0  0  0  0  0  0  0  0  0
  -24.1890   -4.5539   23.0498 F   0  0  0  0  0  0  0  0  0  0  0  0
  1  2  1  0  0  0  0
  1  5  2  0  0  0  0
  2  6  2  0  0  0  0
  3  8  2  0  0  0  0
  3 16  1  0  0  0  0
  4  9  1  0  0  0  0
  4 16  2  0  0  0  0
  5 18  1  0  0  0  0
  6 20  1  0  0  0  0
  7 10  2  0  0  0  0
  7 19  1  0  0  0  0
  8 22  1  0  0  0  0
  9 22  2  0  0  0  0
 10 23  1  0  0  0  0
 11 12  2  0  0  0  0
 11 24  1  0  0  0  0
 12 25  1  0  0  0  0
 13 21  1  0  0  0  0
 13 23  2  0  0  0  0
 14 25  2  0  0  0  0
 14 26  1  0  0  0  0
 15 28  1  0  0  0  0
 15 29  2  0  0  0  0
 16 27  1  0  0  0  0
 17 27  1  0  0  0  0
 17 30  2  0  0  0  0
 17 31  1  0  0  0  0
 18 20  2  0  0  0  0
 18 36  1  0  0  0  0
 19 21  2  0  0  0  0
 19 37  1  0  0  0  0
 20 45  1  0  0  0  0
 21 38  1  0  0  0  0
 22 79  1  0  0  0  0
 23 80  1  0  0  0  0
 24 26  2  0  0  0  0
 24 79  1  0  0  0  0
 25 81  1  0  0  0  0
 26 82  1  0  0  0  0
 27 62  2  0  0  0  0
 28 55  1  0  0  0  0
 28 63  2  0  0  0  0
 29 56  1  0  0  0  0
 29 64  1  0  0  0  0
 30 65  1  0  0  0  0
 30 68  1  0  0  0  0
 31 69  1  0  0  0  0
 31 74  2  0  0  0  0
 32 46  1  0  0  0  0
 32 70  1  0  0  0  0
 32 75  2  0  0  0  0
 33 59  1  0  0  0  0
 33 66  1  0  0  0  0
 33 76  2  0  0  0  0
 34 60  1  0  0  0  0
 34 71  1  0  0  0  0
 34 77  2  0  0  0  0
 35 67  1  0  0  0  0
 35 72  1  0  0  0  0
 35 78  2  0  0  0  0
 36 39  1  0  0  0  0
 37 46  1  0  0  0  0
 38 66  1  0  0  0  0
 39 41  1  0  0  0  0
 40 42  1  0  0  0  0
 40 43  1  0  0  0  0
 41 45  1  0  0  0  0
 42 47  1  0  0  0  0
 43 67  1  0  0  0  0
 44 47  1  0  0  0  0
 44 67  1  0  0  0  0
 45 70  1  0  0  0  0
 46 66  1  0  0  0  0
 47 65  1  0  0  0  0
 48 60  1  0  0  0  0
 49 61  1  0  0  0  0
 50 61  1  0  0  0  0
 51 61  1  0  0  0  0
 52 64  1  0  0  0  0
 53 72  1  0  0  0  0
 54 73  1  0  0  0  0
 55 80  1  0  0  0  0
 56 57  1  0  0  0  0
 57 58  1  0  0  0  0
 58 72  1  0  0  0  0
 59 61  1  0  0  0  0
 59 71  1  0  0  0  0
 60 73  1  0  0  0  0
 62 65  1  0  0  0  0
 63 64  1  0  0  0  0
M  CHG  1  73   1
M  ISO  4  35 100  55 101  72 100  80 101
M  END
> <Batch ID>
0050

> <Smiles>
CNC(C)C(=O)NC(C(=O)N1Cc2cc([101O:1][101CH2:1]c3cc(CCC[100N:0](C)[100C:0](=O)N4CCCC(n5nc(-c6ccc(Oc7ccc(F)cc7F)cc6)c(C(N)=O)c5N)C4)n(C)n3)ccc2CC1C(=O)NC1CCCc2ccccc21)C(C)(C)C

> <Shape>
0.309

> <Color>
0.133

> <Negative vol penalty>
0.000

$$$$

  -OEChem-04052317313D

 80 88  0     1  0  0  0  0  0999 V2000
  -22.2393  -23.5457   19.8660 C   0  0  0  0  0  0  0  0  0  0  0  0
  -23.4495  -22.8917   20.0741 C   0  0  0  0  0  0  0  0  0  0  0  0
  -23.5850  -30.0959   20.3472 C   0  0  0  0  0  0  0  0  0  0  0  0
  -23.4400  -28.3457   22.0064 C   0  0  0  0  0  0  0  0  0  0  0  0
  -21.0527  -22.9770   20.3266 C   0  0  0  0  0  0  0  0  0  0  0  0
  -23.4737  -21.6690   20.7440 C   0  0  0  0  0  0  0  0  0  0  0  0
  -26.4512  -18.2645   18.4661 C   0  0  0  0  0  0  0  0  0  0  0  0
  -22.3030  -30.5261   20.6889 C   0  0  0  0  0  0  0  0  0  0  0  0
  -22.1579  -28.7759   22.3482 C   0  0  0  0  0  0  0  0  0  0  0  0
  -27.8261  -18.3899   18.6603 C   0  0  0  0  0  0  0  0  0  0  0  0
  -19.0222  -28.4864   21.1175 C   0  0  0  0  0  0  0  0  0  0  0  0
  -18.0337  -27.5153   21.2767 C   0  0  0  0  0  0  0  0  0  0  0  0
  -27.7427  -16.6514   20.3306 C   0  0  0  0  0  0  0  0  0  0  0  0
  -17.7153  -28.2149   23.5672 C   0  0  0  0  0  0  0  0  0  0  0  0
  -31.7272  -20.5087   20.2451 C   0  0  0  0  0  0  0  0  0  0  0  0
  -24.1536  -29.0056   21.0059 C   0  0  0  0  0  0  0  0  0  0  0  0
  -26.6961  -28.9894   21.2124 C   0  0  0  0  0  0  0  0  0  0  0  0
  -21.0613  -21.7420   20.9940 C   0  0  0  0  0  0  0  0  0  0  0  0
  -25.7087  -17.3376   19.2118 C   0  0  0  0  0  0  0  0  0  0  0  0
  -22.2862  -21.0838   21.2152 C   0  0  0  0  0  0  0  0  0  0  0  0
  -26.3589  -16.5144   20.1422 C   0  0  0  0  0  0  0  0  0  0  0  0
  -31.3463  -21.7711   20.6292 C   0  0  0  0  0  0  0  0  0  0  0  0
  -21.5894  -29.8662   21.6894 C   0  0  0  0  0  0  0  0  0  0  0  0
  -28.4716  -17.5854   19.5947 C   0  0  0  0  0  0  0  0  0  0  0  0
  -19.3574  -29.3217   22.1832 C   0  0  0  0  0  0  0  0  0  0  0  0
  -17.3802  -27.3796   22.5015 C   0  0  0  0  0  0  0  0  0  0  0  0
  -18.7039  -29.1860   23.4080 C   0  0  0  0  0  0  0  0  0  0  0  0
  -25.4777  -28.5603   20.6529 C   0  0  0  0  0  0  0  0  0  0  0  0
  -30.7827  -21.5951   21.9072 C   0  0  0  0  0  0  0  0  0  0  0  0
  -27.6545  -28.2713   20.5399 C   0  0  0  0  0  0  0  0  0  0  0  0
  -26.9399  -29.9511   22.2475 C   0  0  0  0  0  0  0  0  0  0  0  0
  -23.3174  -17.5366   21.2964 C   0  0  0  0  0  0  0  0  0  0  0  0
  -23.3905  -14.2997   21.0974 C   0  0  0  0  0  0  0  0  0  0  0  0
  -25.1788  -11.4802   20.3909 C   0  0  0  0  0  0  0  0  0  0  0  0
  -29.5371  -23.4673   18.4131 C   0  0  0  0  0  0  0  0  0  0  0  0
  -19.7584  -21.1894   21.5153 C   0  0  0  0  0  0  0  0  0  0  0  0
  -24.2307  -17.1959   18.9714 C   0  0  0  0  0  0  0  0  0  0  0  0
  -25.6106  -15.4897   20.9536 C   0  0  0  0  0  0  0  0  0  0  0  0
  -19.8289  -19.7102   21.8858 C   0  0  0  0  0  0  0  0  0  0  0  0
  -27.3039  -25.3793   16.4046 C   0  0  0  0  0  0  0  0  0  0  0  0
  -21.0793  -19.4259   22.7120 C   0  0  0  0  0  0  0  0  0  0  0  0
  -26.7260  -26.4081   17.3781 C   0  0  0  0  0  0  0  0  0  0  0  0
  -27.5265  -24.0273   17.0788 C   0  0  0  0  0  0  0  0  0  0  0  0
  -27.7592  -25.1039   19.2834 C   0  0  0  0  0  0  0  0  0  0  0  0
  -22.3507  -19.7440   21.9158 C   0  0  1  0  0  0  0  0  0  0  0  0
  -23.4898  -16.5774   20.1529 C   0  0  1  0  0  0  0  0  0  0  0  0
  -27.5697  -26.4990   18.6639 C   0  0  2  0  0  0  0  0  0  0  0  0
  -24.9808   -8.9788   20.3569 C   0  0  0  0  0  0  0  0  0  0  0  0
  -23.6191  -14.2427   24.1395 C   0  0  0  0  0  0  0  0  0  0  0  0
  -24.3626  -11.8581   23.9693 C   0  0  0  0  0  0  0  0  0  0  0  0
  -22.0905  -12.5139   23.1756 C   0  0  0  0  0  0  0  0  0  0  0  0
  -25.7146  -11.3613   17.4827 C   0  0  0  0  0  0  0  0  0  0  0  0
  -31.5031  -23.0176   19.8595 C   0  0  0  0  0  0  0  0  0  0  0  0
  -31.5969  -18.1927   21.3404 C   0  0  0  0  0  0  0  0  0  0  0  0
  -30.3122  -17.4103   21.0905 C   0  0  0  0  0  0  0  0  0  1  0  0
  -24.1189  -13.1997   21.8311 C   0  0  1  0  0  0  0  0  0  0  0  0
  -24.8464  -10.2608   19.5500 C   0  0  2  0  0  0  0  0  0  0  0  0
  -23.5618  -12.9742   23.2651 C   0  0  0  0  0  0  0  0  0  0  0  0
  -25.6440  -27.6410   19.6984 N   0  0  0  0  0  0  0  0  0  0  0  0
  -30.8018  -20.3212   22.3081 N   0  0  0  0  0  0  0  0  0  0  0  0
  -31.3818  -19.6852   21.2760 N   0  0  0  0  0  0  0  0  0  0  0  0
  -26.9782  -27.4865   19.6528 N   0  0  0  0  0  0  0  0  0  0  0  0
  -24.1660  -15.3934   20.6869 N   0  0  0  0  0  0  0  0  0  0  0  0
  -28.3347  -24.1831   18.2906 N   0  0  0  0  0  0  0  0  0  0  0  0
  -29.0013  -28.2409   20.6266 N   0  0  0  0  0  0  0  0  0  0  0  0
  -25.8417  -30.5969   22.8316 N   0  0  0  0  0  0  0  0  0  0  0  0
  -22.6294  -18.6885   20.9657 N   0  0  0  0  0  0  0  0  0  0  0  0
  -24.0521  -12.0223   20.9722 N   0  0  0  0  0  0  0  0  0  0  0  0
  -30.2450  -23.6776   19.5902 N   0  0  0  0  0  0  0  0  0  0  0  0
  -25.7612  -10.1757   18.3767 N   0  3  0  0  0  0  0  0  0  0  0  0
  -28.0983  -30.2415   22.6313 O   0  0  0  0  0  0  0  0  0  0  0  0
  -23.7734  -17.2520   22.3977 O   0  0  0  0  0  0  0  0  0  0  0  0
  -22.1797  -14.1893   20.8895 O   0  0  0  0  0  0  0  0  0  0  0  0
  -26.3240  -11.9067   20.5222 O   0  0  0  0  0  0  0  0  0  0  0  0
  -29.9519  -22.7020   17.5361 O   0  0  0  0  0  0  0  0  0  0  0  0
  -20.3385  -30.2859   22.0233 O   0  0  0  0  0  0  0  0  0  0  0  0
  -29.8134  -17.7062   19.7867 O   0  0  0  0  0  0  0  0  0  1  0  0
  -16.4299  -26.4480   22.6537 F   0  0  0  0  0  0  0  0  0  0  0  0
  -19.0207  -29.9864   24.4350 F   0  0  0  0  0  0  0  0  0  0  0  0
  -30.1316  -22.8075   22.8986 Cl  0  0  0  0  0  0  0  0  0  0  0  0
  1  2  1  0  0  0  0
  1  5  2  0  0  0  0
  2  6  2  0  0  0  0
  3  8  2  0  0  0  0
  3 16  1  0  0  0  0
  4  9  1  0  0  0  0
  4 16  2  0  0  0  0
  5 18  1  0  0  0  0
  6 20  1  0  0  0  0
  7 10  2  0  0  0  0
  7 19  1  0  0  0  0
  8 23  1  0  0  0  0
  9 23  2  0  0  0  0
 10 24  1  0  0  0  0
 11 12  2  0  0  0  0
 11 25  1  0  0  0  0
 12 26  1  0  0  0  0
 13 21  1  0  0  0  0
 13 24  2  0  0  0  0
 14 26  2  0  0  0  0
 14 27  1  0  0  0  0
 15 22  2  0  0  0  0
 15 61  1  0  0  0  0
 16 28  1  0  0  0  0
 17 28  1  0  0  0  0
 17 30  2  0  0  0  0
 17 31  1  0  0  0  0
 18 20  2  0  0  0  0
 18 36  1  0  0  0  0
 19 21  2  0  0  0  0
 19 37  1  0  0  0  0
 20 45  1  0  0  0  0
 21 38  1  0  0  0  0
 22 29  1  0  0  0  0
 22 53  1  0  0  0  0
 23 76  1  0  0  0  0
 24 77  1  0  0  0  0
 25 27  2  0  0  0  0
 25 76  1  0  0  0  0
 26 78  1  0  0  0  0
 27 79  1  0  0  0  0
 28 59  2  0  0  0  0
 29 60  2  0  0  0  0
 29 80  1  0  0  0  0
 30 62  1  0  0  0  0
 30 65  1  0  0  0  0
 31 66  1  0  0  0  0
 31 71  2  0  0  0  0
 32 46  1  0  0  0  0
 32 67  1  0  0  0  0
 32 72  2  0  0  0  0
 33 56  1  0  0  0  0
 33 63  1  0  0  0  0
 33 73  2  0  0  0  0
 34 57  1  0  0  0  0
 34 68  1  0  0  0  0
 34 74  2  0  0  0  0
 35 64  1  0  0  0  0
 35 69  1  0  0  0  0
 35 75  2  0  0  0  0
 36 39  1  0  0  0  0
 37 46  1  0  0  0  0
 38 63  1  0  0  0  0
 39 41  1  0  0  0  0
 40 42  1  0  0  0  0
 40 43  1  0  0  0  0
 41 45  1  0  0  0  0
 42 47  1  0  0  0  0
 43 64  1  0  0  0  0
 44 47  1  0  0  0  0
 44 64  1  0  0  0  0
 45 67  1  0  0  0  0
 46 63  1  0  0  0  0
 47 62  1  0  0  0  0
 48 57  1  0  0  0  0
 49 58  1  0  0  0  0
 50 58  1  0  0  0  0
 51 58  1  0  0  0  0
 52 70  1  0  0  0  0
 53 69  1  0  0  0  0
 54 55  1  0  0  0  0
 54 61  1  0  0  0  0
 55 77  1  0  0  0  0
 56 58  1  0  0  0  0
 56 68  1  0  0  0  0
 57 70  1  0  0  0  0
 59 62  1  0  0  0  0
 60 61  1  0  0  0  0
M  CHG  1  70   1
M  ISO  4  35 100  55 101  69 100  77 101
M  END
> <Batch ID>
0050

> <Smiles>
CNC(C)C(=O)NC(C(=O)N1Cc2cc([101O:1][101CH2:1]Cn3cc(C[100NH:0][100C:0](=O)N4CCCC(n5nc(-c6ccc(Oc7ccc(F)cc7F)cc6)c(C(N)=O)c5N)C4)c(Cl)n3)ccc2CC1C(=O)NC1CCCc2ccccc21)C(C)(C)C

> <Shape>
0.238

> <Color>
0.068

> <Negative vol penalty>
0.000

$$$$

  -OEChem-04052317312D

  0  0  0     0  0  0  0  0  0999 V2000
M  END
$$$$

  -OEChem-04052317313D

 85 93  0     1  0  0  0  0  0999 V2000
  -21.6361  -23.6558   19.0443 C   0  0  0  0  0  0  0  0  0  0  0  0
  -22.9672  -23.2518   19.0260 C   0  0  0  0  0  0  0  0  0  0  0  0
  -21.9035  -28.0658   21.1137 C   0  0  0  0  0  0  0  0  0  0  0  0
  -23.1641  -27.4915   23.0931 C   0  0  0  0  0  0  0  0  0  0  0  0
  -20.7094  -22.9640   19.8231 C   0  0  0  0  0  0  0  0  0  0  0  0
  -23.3726  -22.1562   19.7875 C   0  0  0  0  0  0  0  0  0  0  0  0
  -27.6804  -18.0534   18.3327 C   0  0  0  0  0  0  0  0  0  0  0  0
  -20.7172  -27.9680   21.8408 C   0  0  0  0  0  0  0  0  0  0  0  0
  -21.9778  -27.3938   23.8202 C   0  0  0  0  0  0  0  0  0  0  0  0
  -29.0197  -17.9296   18.6995 C   0  0  0  0  0  0  0  0  0  0  0  0
  -18.9816  -29.8592   24.0417 C   0  0  0  0  0  0  0  0  0  0  0  0
  -18.0336  -30.8686   23.8742 C   0  0  0  0  0  0  0  0  0  0  0  0
  -32.8821  -20.7274   20.9146 C   0  0  0  0  0  0  0  0  0  0  0  0
  -28.3933  -16.3835   20.4421 C   0  0  0  0  0  0  0  0  0  0  0  0
  -16.4321  -29.2354   23.0962 C   0  0  0  0  0  0  0  0  0  0  0  0
  -33.0502  -19.3880   20.6609 C   0  0  0  0  0  0  0  0  0  0  0  0
  -23.1270  -27.8275   21.7398 C   0  0  0  0  0  0  0  0  0  0  0  0
  -25.1508  -29.0740   20.8136 C   0  0  0  0  0  0  0  0  0  0  0  0
  -21.1017  -21.8535   20.5870 C   0  0  0  0  0  0  0  0  0  0  0  0
  -26.6846  -17.3505   19.0261 C   0  0  0  0  0  0  0  0  0  0  0  0
  -22.4505  -21.4497   20.5783 C   0  0  0  0  0  0  0  0  0  0  0  0
  -27.0423  -16.4982   20.0805 C   0  0  0  0  0  0  0  0  0  0  0  0
  -20.7543  -27.6321   23.1940 C   0  0  0  0  0  0  0  0  0  0  0  0
  -29.3761  -17.0968   19.7561 C   0  0  0  0  0  0  0  0  0  0  0  0
  -18.6549  -28.5379   23.7364 C   0  0  0  0  0  0  0  0  0  0  0  0
  -16.7588  -30.5567   23.4015 C   0  0  0  0  0  0  0  0  0  0  0  0
  -17.3802  -28.2260   23.2637 C   0  0  0  0  0  0  0  0  0  0  0  0
  -24.3528  -27.9277   20.9891 C   0  0  0  0  0  0  0  0  0  0  0  0
  -32.1451  -20.7687   22.1133 C   0  0  0  0  0  0  0  0  0  0  0  0
  -26.1937  -28.6493   20.0273 C   0  0  0  0  0  0  0  0  0  0  0  0
  -24.9660  -30.4039   21.3166 C   0  0  0  0  0  0  0  0  0  0  0  0
  -24.1519  -18.1748   20.7609 C   0  0  0  0  0  0  0  0  0  0  0  0
  -28.6132  -23.2170   19.1618 C   0  0  0  0  0  0  0  0  0  0  0  0
  -23.5992  -14.9784   20.7613 C   0  0  0  0  0  0  0  0  0  0  0  0
  -24.8582  -11.8205   20.4625 C   0  0  0  0  0  0  0  0  0  0  0  0
  -20.0734  -21.1663   21.4501 C   0  0  0  0  0  0  0  0  0  0  0  0
  -25.2471  -17.4744   18.6009 C   0  0  0  0  0  0  0  0  0  0  0  0
  -26.0135  -15.7062   20.8438 C   0  0  0  0  0  0  0  0  0  0  0  0
  -20.5101  -19.7866   21.9361 C   0  0  0  0  0  0  0  0  0  0  0  0
  -27.2955  -25.4321   16.6725 C   0  0  0  0  0  0  0  0  0  0  0  0
  -21.9381  -19.8360   22.4701 C   0  0  0  0  0  0  0  0  0  0  0  0
  -26.4412  -26.4101   17.4781 C   0  0  0  0  0  0  0  0  0  0  0  0
  -27.2474  -24.0280   17.2668 C   0  0  0  0  0  0  0  0  0  0  0  0
  -26.7782  -24.9427   19.5173 C   0  0  0  0  0  0  0  0  0  0  0  0
  -22.9240  -20.2509   21.3714 C   0  0  1  0  0  0  0  0  0  0  0  0
  -24.2630  -17.1088   19.7078 C   0  0  1  0  0  0  0  0  0  0  0  0
  -26.8234  -26.3798   18.9686 C   0  0  2  0  0  0  0  0  0  0  0  0
  -28.2091  -21.3703   25.5299 C   0  0  0  0  0  0  0  0  0  0  0  0
  -32.5871  -23.1990   22.6528 C   0  0  0  0  0  0  0  0  0  0  0  0
  -24.1693   -9.4089   20.5477 C   0  0  0  0  0  0  0  0  0  0  0  0
  -23.4502  -15.1311   23.8051 C   0  0  0  0  0  0  0  0  0  0  0  0
  -23.7165  -12.6426   23.8734 C   0  0  0  0  0  0  0  0  0  0  0  0
  -21.7317  -13.6523   22.7494 C   0  0  0  0  0  0  0  0  0  0  0  0
  -25.6996  -11.3608   17.6625 C   0  0  0  0  0  0  0  0  0  0  0  0
  -28.9162  -23.2928   20.6371 C   0  0  0  0  0  0  0  0  0  0  0  0
  -29.2060  -22.1515   24.6893 C   0  0  0  0  0  0  0  0  0  0  0  0
  -32.3308  -17.2384   21.8618 C   0  0  0  0  0  0  0  0  0  0  0  0
  -30.0400  -22.3438   21.0124 C   0  0  0  0  0  0  0  0  0  0  0  0
  -29.2543  -21.6257   23.2635 C   0  0  0  0  0  0  0  0  0  0  0  0
  -30.9543  -16.6979   21.4899 C   0  0  0  0  0  0  0  0  0  1  0  0
  -31.6854  -21.9628   22.8425 C   0  0  1  0  0  0  0  0  0  0  0  0
  -24.0007  -13.8241   21.6476 C   0  0  1  0  0  0  0  0  0  0  0  0
  -24.3905  -10.6216   19.6571 C   0  0  2  0  0  0  0  0  0  0  0  0
  -23.2442  -13.8288   23.0059 C   0  0  0  0  0  0  0  0  0  0  0  0
  -24.8462  -26.8553   20.3643 N   0  0  0  0  0  0  0  0  0  0  0  0
  -31.8642  -19.5523   22.5881 N   0  0  0  0  0  0  0  0  0  0  0  0
  -32.4276  -18.7340   21.6831 N   0  0  0  0  0  0  0  0  0  0  0  0
  -25.9656  -27.3260   19.7885 N   0  0  0  0  0  0  0  0  0  0  0  0
  -24.6207  -15.8659   20.3943 N   0  0  0  0  0  0  0  0  0  0  0  0
  -27.5948  -24.0448   18.6888 N   0  0  0  0  0  0  0  0  0  0  0  0
  -27.2744  -29.2824   19.5236 N   0  0  0  0  0  0  0  0  0  0  0  0
  -23.8406  -30.6681   22.1091 N   0  0  0  0  0  0  0  0  0  0  0  0
  -23.1969  -19.1360   20.4899 N   0  0  0  0  0  0  0  0  0  0  0  0
  -23.8020  -12.6142   20.8571 N   0  0  0  0  0  0  0  0  0  0  0  0
  -25.4021  -10.2664   18.6220 N   0  3  0  0  0  0  0  0  0  0  0  0
  -30.2817  -22.3965   22.4907 N   0  3  1  0  0  0  0  0  0  0  0  0
  -25.7663  -31.3344   21.0570 O   0  0  0  0  0  0  0  0  0  0  0  0
  -24.8777  -18.1277   21.7471 O   0  0  0  0  0  0  0  0  0  0  0  0
  -29.2651  -22.4466   18.4521 O   0  0  0  0  0  0  0  0  0  0  0  0
  -22.4240  -15.0845   20.4019 O   0  0  0  0  0  0  0  0  0  0  0  0
  -26.0418  -12.0297   20.7192 O   0  0  0  0  0  0  0  0  0  0  0  0
  -19.5970  -27.5368   23.9039 O   0  0  0  0  0  0  0  0  0  0  0  0
  -30.6826  -16.9745   20.1166 O   0  0  0  0  0  0  0  0  0  1  0  0
  -15.8481  -31.5258   23.2422 F   0  0  0  0  0  0  0  0  0  0  0  0
  -17.0601  -26.9583   22.9699 F   0  0  0  0  0  0  0  0  0  0  0  0
  1  2  1  0  0  0  0
  1  5  2  0  0  0  0
  2  6  2  0  0  0  0
  3  8  2  0  0  0  0
  3 17  1  0  0  0  0
  4  9  1  0  0  0  0
  4 17  2  0  0  0  0
  5 19  1  0  0  0  0
  6 21  1  0  0  0  0
  7 10  2  0  0  0  0
  7 20  1  0  0  0  0
  8 23  1  0  0  0  0
  9 23  2  0  0  0  0
 10 24  1  0  0  0  0
 11 12  2  0  0  0  0
 11 25  1  0  0  0  0
 12 26  1  0  0  0  0
 13 16  2  0  0  0  0
 13 29  1  0  0  0  0
 14 22  1  0  0  0  0
 14 24  2  0  0  0  0
 15 26  2  0  0  0  0
 15 27  1  0  0  0  0
 16 67  1  0  0  0  0
 17 28  1  0  0  0  0
 18 28  1  0  0  0  0
 18 30  2  0  0  0  0
 18 31  1  0  0  0  0
 19 21  2  0  0  0  0
 19 36  1  0  0  0  0
 20 22  2  0  0  0  0
 20 37  1  0  0  0  0
 21 45  1  0  0  0  0
 22 38  1  0  0  0  0
 23 82  1  0  0  0  0
 24 83  1  0  0  0  0
 25 27  2  0  0  0  0
 25 82  1  0  0  0  0
 26 84  1  0  0  0  0
 27 85  1  0  0  0  0
 28 65  2  0  0  0  0
 29 61  1  0  0  0  0
 29 66  2  0  0  0  0
 30 68  1  0  0  0  0
 30 71  1  0  0  0  0
 31 72  1  0  0  0  0
 31 77  2  0  0  0  0
 32 46  1  0  0  0  0
 32 73  1  0  0  0  0
 32 78  2  0  0  0  0
 33 55  1  0  0  0  0
 33 70  1  0  0  0  0
 33 79  2  0  0  0  0
 34 62  1  0  0  0  0
 34 69  1  0  0  0  0
 34 80  2  0  0  0  0
 35 63  1  0  0  0  0
 35 74  1  0  0  0  0
 35 81  2  0  0  0  0
 36 39  1  0  0  0  0
 37 46  1  0  0  0  0
 38 69  1  0  0  0  0
 39 41  1  0  0  0  0
 40 42  1  0  0  0  0
 40 43  1  0  0  0  0
 41 45  1  0  0  0  0
 42 47  1  0  0  0  0
 43 70  1  0  0  0  0
 44 47  1  0  0  0  0
 44 70  1  0  0  0  0
 45 73  1  0  0  0  0
 46 69  1  0  0  0  0
 47 68  1  0  0  0  0
 48 56  1  0  0  0  0
 49 61  1  0  0  0  0
 50 63  1  0  0  0  0
 51 64  1  0  0  0  0
 52 64  1  0  0  0  0
 53 64  1  0  0  0  0
 54 75  1  0  0  0  0
 55 58  1  0  0  0  0
 56 59  1  0  0  0  0
 57 60  1  0  0  0  0
 57 67  1  0  0  0  0
 58 76  1  0  0  0  0
 59 76  1  0  0  0  0
 60 83  1  0  0  0  0
 61 76  1  0  0  0  0
 62 64  1  0  0  0  0
 62 74  1  0  0  0  0
 63 75  1  0  0  0  0
 65 68  1  0  0  0  0
 66 67  1  0  0  0  0
M  CHG  2  75   1  76   1
M  ISO  4  33 100  55 100  60 101  83 101
M  END
> <Batch ID>
0050

> <Smiles>
CCCN(C[100CH2:0][100C:0](=O)N1CCCC(n2nc(-c3ccc(Oc4ccc(F)cc4F)cc3)c(C(N)=O)c2N)C1)C(C)c1ccn(C[101CH2:1][101O:1]c2ccc3c(c2)CN(C(=O)C(NC(=O)C(C)NC)C(C)(C)C)C(C(=O)NC2CCCc4ccccc42)C3)n1

> <Shape>
0.229

> <Color>
0.078

> <Negative vol penalty>
0.000

$$$$

  -OEChem-04052317313D

 86 94  0     1  0  0  0  0  0999 V2000
  -29.2695  -35.0375   26.1721 C   0  0  0  0  0  0  0  0  0  0  0  0
  -29.2246  -33.7514   25.6436 C   0  0  0  0  0  0  0  0  0  0  0  0
  -23.2976   -9.2188   19.8780 C   0  0  0  0  0  0  0  0  0  0  0  0
  -23.5396   -9.7563   22.2210 C   0  0  0  0  0  0  0  0  0  0  0  0
  -28.0848  -35.7279   26.4248 C   0  0  0  0  0  0  0  0  0  0  0  0
  -27.9948  -33.1544   25.3685 C   0  0  0  0  0  0  0  0  0  0  0  0
  -27.9213  -30.8445   20.8625 C   0  0  0  0  0  0  0  0  0  0  0  0
  -23.2242   -7.8629   20.1966 C   0  0  0  0  0  0  0  0  0  0  0  0
  -23.4661   -8.4003   22.5396 C   0  0  0  0  0  0  0  0  0  0  0  0
  -28.5380  -29.5971   20.7763 C   0  0  0  0  0  0  0  0  0  0  0  0
  -22.9805   -5.1071   24.0015 C   0  0  0  0  0  0  0  0  0  0  0  0
  -22.1673   -4.7348   25.0719 C   0  0  0  0  0  0  0  0  0  0  0  0
  -26.3828  -28.5267   20.9461 C   0  0  0  0  0  0  0  0  0  0  0  0
  -20.2493   -5.6725   23.9410 C   0  0  0  0  0  0  0  0  0  0  0  0
  -30.3470  -24.8283   21.5353 C   0  0  0  0  0  0  0  0  0  0  0  0
  -23.4554  -10.1656   20.8902 C   0  0  0  0  0  0  0  0  0  0  0  0
  -22.4620  -12.4762   20.4637 C   0  0  0  0  0  0  0  0  0  0  0  0
  -26.8401  -35.1428   26.1436 C   0  0  0  0  0  0  0  0  0  0  0  0
  -26.5294  -30.9423   21.0023 C   0  0  0  0  0  0  0  0  0  0  0  0
  -26.7923  -33.8371   25.6189 C   0  0  0  0  0  0  0  0  0  0  0  0
  -25.7507  -29.7766   21.0313 C   0  0  0  0  0  0  0  0  0  0  0  0
  -23.3085   -7.4536   21.5274 C   0  0  0  0  0  0  0  0  0  0  0  0
  -27.7690  -28.4379   20.8210 C   0  0  0  0  0  0  0  0  0  0  0  0
  -22.4281   -5.7622   22.9009 C   0  0  0  0  0  0  0  0  0  0  0  0
  -20.8018   -5.0174   25.0416 C   0  0  0  0  0  0  0  0  0  0  0  0
  -21.0625   -6.0448   22.8706 C   0  0  0  0  0  0  0  0  0  0  0  0
  -23.5318  -11.5664   20.5617 C   0  0  0  0  0  0  0  0  0  0  0  0
  -30.2537  -25.7787   20.5010 C   0  0  0  0  0  0  0  0  0  0  0  0
  -30.8184  -23.6951   20.9188 C   0  0  0  0  0  0  0  0  0  0  0  0
  -23.0553  -13.6691   20.1296 C   0  0  0  0  0  0  0  0  0  0  0  0
  -21.0576  -12.2622   20.6573 C   0  0  0  0  0  0  0  0  0  0  0  0
  -24.5744  -32.1140   23.2179 C   0  0  0  0  0  0  0  0  0  0  0  0
  -22.2945  -31.4147   21.0190 C   0  0  0  0  0  0  0  0  0  0  0  0
  -21.3474  -29.5555   18.3184 C   0  0  0  0  0  0  0  0  0  0  0  0
  -28.3741  -15.9400   20.6614 C   0  0  0  0  0  0  0  0  0  0  0  0
  -25.5853  -35.9098   26.4779 C   0  0  0  0  0  0  0  0  0  0  0  0
  -25.8770  -32.2960   21.0671 C   0  0  0  0  0  0  0  0  0  0  0  0
  -24.2509  -29.8278   21.1599 C   0  0  0  0  0  0  0  0  0  0  0  0
  -24.3328  -35.3503   25.8083 C   0  0  0  0  0  0  0  0  0  0  0  0
  -27.0965  -13.9116   17.7714 C   0  0  0  0  0  0  0  0  0  0  0  0
  -24.2769  -33.8338   25.9631 C   0  0  0  0  0  0  0  0  0  0  0  0
  -25.7573  -14.5179   18.1911 C   0  0  0  0  0  0  0  0  0  0  0  0
  -28.2659  -14.5084   18.5627 C   0  0  0  0  0  0  0  0  0  0  0  0
  -26.7830  -14.0562   20.4895 C   0  0  0  0  0  0  0  0  0  0  0  0
  -25.4783  -33.1652   25.2840 C   0  0  1  0  0  0  0  0  0  0  0  0
  -24.5009  -32.2652   21.7248 C   0  0  1  0  0  0  0  0  0  0  0  0
  -25.4992  -14.3944   19.7116 C   0  0  2  0  0  0  0  0  0  0  0  0
  -31.4375  -14.8671   19.8213 C   0  0  0  0  0  0  0  0  0  0  0  0
  -19.4119  -29.1810   16.7656 C   0  0  0  0  0  0  0  0  0  0  0  0
  -20.8565  -29.8336   23.1966 C   0  0  0  0  0  0  0  0  0  0  0  0
  -19.4989  -28.7331   21.4039 C   0  0  0  0  0  0  0  0  0  0  0  0
  -19.3556  -31.2012   21.7367 C   0  0  0  0  0  0  0  0  0  0  0  0
  -31.4469  -23.1626   18.5448 C   0  0  0  0  0  0  0  0  0  0  0  0
  -22.9325  -30.3763   15.9578 C   0  0  0  0  0  0  0  0  0  0  0  0
  -28.7306  -21.6948   21.5700 C   0  0  0  0  0  0  0  0  0  0  0  0
  -29.7892  -27.2016   20.6059 C   0  0  0  0  0  0  0  0  0  1  0  0
  -31.1282  -22.3577   21.4564 C   0  0  0  0  0  0  0  0  0  0  0  0
  -29.8459  -18.8916   20.7400 C   0  0  0  0  0  0  0  0  0  0  0  0
  -30.4879  -15.9090   19.2654 C   0  0  0  0  0  0  0  0  0  0  0  0
  -30.2377  -17.4768   21.1522 C   0  0  0  0  0  0  0  0  0  0  0  0
  -30.5081  -19.9510   21.6118 C   0  0  0  0  0  0  0  0  0  0  0  0
  -21.4416  -30.2080   20.7100 C   0  0  1  0  0  0  0  0  0  0  0  0
  -20.7038  -29.9482   17.0008 C   0  0  2  0  0  0  0  0  0  0  0  0
  -20.3165  -29.9926   21.7613 C   0  0  0  0  0  0  0  0  0  0  0  0
  -24.7151  -12.1327   20.3101 N   0  0  0  0  0  0  0  0  0  0  0  0
  -30.6353  -25.2917   19.3172 N   0  0  0  0  0  0  0  0  0  0  0  0
  -30.9731  -24.0230   19.6040 N   0  0  0  0  0  0  0  0  0  0  0  0
  -24.3923  -13.4112   20.0506 N   0  0  0  0  0  0  0  0  0  0  0  0
  -23.6603  -31.1748   21.2261 N   0  0  0  0  0  0  0  0  0  0  0  0
  -27.9129  -14.8154   19.9566 N   0  0  0  0  0  0  0  0  0  0  0  0
  -22.5585  -14.9029   19.8987 N   0  0  0  0  0  0  0  0  0  0  0  0
  -20.6185  -10.9753   20.9971 N   0  0  0  0  0  0  0  0  0  0  0  0
  -25.2856  -33.1157   23.8505 N   0  0  0  0  0  0  0  0  0  0  0  0
  -20.9577  -30.3887   19.3456 N   0  0  0  0  0  0  0  0  0  0  0  0
  -29.6255  -16.4626   20.3048 N   0  0  0  0  0  0  0  0  0  0  0  0
  -21.6301  -29.6673   15.8677 N   0  3  0  0  0  0  0  0  0  0  0  0
  -30.1126  -21.3143   21.1134 N   0  3  1  0  0  0  0  0  0  0  0  0
  -20.2154  -13.1811   20.5167 O   0  0  0  0  0  0  0  0  0  0  0  0
  -24.0253  -31.1599   23.7563 O   0  0  0  0  0  0  0  0  0  0  0  0
  -21.7696  -32.5299   21.0675 O   0  0  0  0  0  0  0  0  0  0  0  0
  -22.1158  -28.6024   18.4263 O   0  0  0  0  0  0  0  0  0  0  0  0
  -27.6940  -16.4618   21.5551 O   0  0  0  0  0  0  0  0  0  0  0  0
  -23.2366   -6.1305   21.8387 O   0  0  0  0  0  0  0  0  0  0  0  0
  -28.3684  -27.2190   20.7378 O   0  0  0  0  0  0  0  0  0  1  0  0
  -20.0207   -4.6584   26.0689 F   0  0  0  0  0  0  0  0  0  0  0  0
  -20.5259   -6.6729   21.8154 F   0  0  0  0  0  0  0  0  0  0  0  0
  1  2  1  0  0  0  0
  1  5  2  0  0  0  0
  2  6  2  0  0  0  0
  3  8  2  0  0  0  0
  3 16  1  0  0  0  0
  4  9  1  0  0  0  0
  4 16  2  0  0  0  0
  5 18  1  0  0  0  0
  6 20  1  0  0  0  0
  7 10  2  0  0  0  0
  7 19  1  0  0  0  0
  8 22  1  0  0  0  0
  9 22  2  0  0  0  0
 10 23  1  0  0  0  0
 11 12  2  0  0  0  0
 11 24  1  0  0  0  0
 12 25  1  0  0  0  0
 13 21  1  0  0  0  0
 13 23  2  0  0  0  0
 14 25  2  0  0  0  0
 14 26  1  0  0  0  0
 15 28  1  0  0  0  0
 15 29  2  0  0  0  0
 16 27  1  0  0  0  0
 17 27  1  0  0  0  0
 17 30  2  0  0  0  0
 17 31  1  0  0  0  0
 18 20  2  0  0  0  0
 18 36  1  0  0  0  0
 19 21  2  0  0  0  0
 19 37  1  0  0  0  0
 20 45  1  0  0  0  0
 21 38  1  0  0  0  0
 22 83  1  0  0  0  0
 23 84  1  0  0  0  0
 24 26  2  0  0  0  0
 24 83  1  0  0  0  0
 25 85  1  0  0  0  0
 26 86  1  0  0  0  0
 27 65  2  0  0  0  0
 28 56  1  0  0  0  0
 28 66  2  0  0  0  0
 29 57  1  0  0  0  0
 29 67  1  0  0  0  0
 30 68  1  0  0  0  0
 30 71  1  0  0  0  0
 31 72  1  0  0  0  0
 31 78  2  0  0  0  0
 32 46  1  0  0  0  0
 32 73  1  0  0  0  0
 32 79  2  0  0  0  0
 33 62  1  0  0  0  0
 33 69  1  0  0  0  0
 33 80  2  0  0  0  0
 34 63  1  0  0  0  0
 34 74  1  0  0  0  0
 34 81  2  0  0  0  0
 35 70  1  0  0  0  0
 35 75  1  0  0  0  0
 35 82  2  0  0  0  0
 36 39  1  0  0  0  0
 37 46  1  0  0  0  0
 38 69  1  0  0  0  0
 39 41  1  0  0  0  0
 40 42  1  0  0  0  0
 40 43  1  0  0  0  0
 41 45  1  0  0  0  0
 42 47  1  0  0  0  0
 43 70  1  0  0  0  0
 44 47  1  0  0  0  0
 44 70  1  0  0  0  0
 45 73  1  0  0  0  0
 46 69  1  0  0  0  0
 47 68  1  0  0  0  0
 48 59  1  0  0  0  0
 49 63  1  0  0  0  0
 50 64  1  0  0  0  0
 51 64  1  0  0  0  0
 52 64  1  0  0  0  0
 53 67  1  0  0  0  0
 54 76  1  0  0  0  0
 55 77  1  0  0  0  0
 56 84  1  0  0  0  0
 57 77  1  0  0  0  0
 58 60  1  0  0  0  0
 58 61  1  0  0  0  0
 59 75  1  0  0  0  0
 60 75  1  0  0  0  0
 61 77  1  0  0  0  0
 62 64  1  0  0  0  0
 62 74  1  0  0  0  0
 63 76  1  0  0  0  0
 65 68  1  0  0  0  0
 66 67  1  0  0  0  0
M  CHG  2  76   1  77   1
M  ISO  4  35 100  56 101  75 100  84 101
M  END
> <Batch ID>
0050

> <Smiles>
CC[100N:0](CCCN(C)Cc1cc([101CH2:1][101O:1]c2ccc3c(c2)CN(C(=O)C(NC(=O)C(C)NC)C(C)(C)C)C(C(=O)NC2CCCc4ccccc42)C3)nn1C)[100C:0](=O)N1CCCC(n2nc(-c3ccc(Oc4ccc(F)cc4F)cc3)c(C(N)=O)c2N)C1

> <Shape>
0.317

> <Color>
0.098

> <Negative vol penalty>
0.000

$$$$

  -OEChem-04052317313D

 80 88  0     1  0  0  0  0  0999 V2000
  -22.6846  -35.1730   17.3812 C   0  0  0  0  0  0  0  0  0  0  0  0
  -23.8417  -34.4237   17.1937 C   0  0  0  0  0  0  0  0  0  0  0  0
  -28.2662  -12.0139   22.6776 C   0  0  0  0  0  0  0  0  0  0  0  0
  -27.1304  -12.5912   20.6249 C   0  0  0  0  0  0  0  0  0  0  0  0
  -22.1138  -35.2662   18.6499 C   0  0  0  0  0  0  0  0  0  0  0  0
  -24.4293  -33.7679   18.2750 C   0  0  0  0  0  0  0  0  0  0  0  0
  -27.3335  -28.3771   18.1752 C   0  0  0  0  0  0  0  0  0  0  0  0
  -27.5371  -10.8268   22.7472 C   0  0  0  0  0  0  0  0  0  0  0  0
  -26.4013  -11.4041   20.6945 C   0  0  0  0  0  0  0  0  0  0  0  0
  -28.6855  -28.0409   18.1225 C   0  0  0  0  0  0  0  0  0  0  0  0
  -23.7152  -10.2252   22.3755 C   0  0  0  0  0  0  0  0  0  0  0  0
  -22.3444  -10.2910   22.1260 C   0  0  0  0  0  0  0  0  0  0  0  0
  -28.7144  -27.8062   20.5232 C   0  0  0  0  0  0  0  0  0  0  0  0
  -22.6083   -8.7634   20.2730 C   0  0  0  0  0  0  0  0  0  0  0  0
  -28.0629  -12.8961   21.6165 C   0  0  0  0  0  0  0  0  0  0  0  0
  -30.0576  -14.3221   20.9128 C   0  0  0  0  0  0  0  0  0  0  0  0
  -22.6893  -34.6033   19.7454 C   0  0  0  0  0  0  0  0  0  0  0  0
  -26.6634  -28.4412   19.4053 C   0  0  0  0  0  0  0  0  0  0  0  0
  -23.8664  -33.8534   19.5597 C   0  0  0  0  0  0  0  0  0  0  0  0
  -27.3533  -28.1410   20.5885 C   0  0  0  0  0  0  0  0  0  0  0  0
  -26.6046  -10.5219   21.7557 C   0  0  0  0  0  0  0  0  0  0  0  0
  -29.3769  -27.7582   19.2969 C   0  0  0  0  0  0  0  0  0  0  0  0
  -24.5325   -9.4285   21.5737 C   0  0  0  0  0  0  0  0  0  0  0  0
  -21.7910   -9.5601   21.0748 C   0  0  0  0  0  0  0  0  0  0  0  0
  -23.9791   -8.6976   20.5225 C   0  0  0  0  0  0  0  0  0  0  0  0
  -28.8153  -14.1228   21.5443 C   0  0  0  0  0  0  0  0  0  0  0  0
  -30.9505  -23.8440   18.7647 C   0  0  0  0  0  0  0  0  0  0  0  0
  -31.1141  -22.6343   19.3916 C   0  0  0  0  0  0  0  0  0  0  0  0
  -30.3428  -15.6485   21.1270 C   0  0  0  0  0  0  0  0  0  0  0  0
  -30.8801  -13.3916   20.1964 C   0  0  0  0  0  0  0  0  0  0  0  0
  -25.1828  -30.7327   21.0364 C   0  0  0  0  0  0  0  0  0  0  0  0
  -28.6793  -20.9887   21.1898 C   0  0  0  0  0  0  0  0  0  0  0  0
  -24.3955  -28.2811   23.0093 C   0  0  0  0  0  0  0  0  0  0  0  0
  -25.1205  -25.1598   24.1837 C   0  0  0  0  0  0  0  0  0  0  0  0
  -22.0627  -34.7722   21.1068 C   0  0  0  0  0  0  0  0  0  0  0  0
  -25.1982  -28.7793   19.4427 C   0  0  0  0  0  0  0  0  0  0  0  0
  -26.6748  -28.1759   21.9327 C   0  0  0  0  0  0  0  0  0  0  0  0
  -22.5368  -33.7409   22.1276 C   0  0  0  0  0  0  0  0  0  0  0  0
  -28.1565  -19.0476   24.1560 C   0  0  0  0  0  0  0  0  0  0  0  0
  -24.0549  -33.6003   22.0789 C   0  0  0  0  0  0  0  0  0  0  0  0
  -28.3535  -17.6081   23.6824 C   0  0  0  0  0  0  0  0  0  0  0  0
  -27.5042  -19.9061   23.0769 C   0  0  0  0  0  0  0  0  0  0  0  0
  -28.4299  -18.4593   21.2960 C   0  0  0  0  0  0  0  0  0  0  0  0
  -24.5194  -33.1074   20.7030 C   0  0  1  0  0  0  0  0  0  0  0  0
  -24.7432  -29.3161   20.7963 C   0  0  1  0  0  0  0  0  0  0  0  0
  -29.1143  -17.5654   22.3452 C   0  0  2  0  0  0  0  0  0  0  0  0
  -32.2859  -21.9683   19.9820 C   0  0  0  0  0  0  0  0  0  0  0  0
  -24.3168  -23.4347   25.8194 C   0  0  0  0  0  0  0  0  0  0  0  0
  -25.5567  -29.9208   25.3055 C   0  0  0  0  0  0  0  0  0  0  0  0
  -25.6010  -27.8309   26.6833 C   0  0  0  0  0  0  0  0  0  0  0  0
  -23.4276  -28.7267   25.8488 C   0  0  0  0  0  0  0  0  0  0  0  0
  -24.6591  -23.1732   22.0391 C   0  0  0  0  0  0  0  0  0  0  0  0
  -31.9720  -24.9144   18.4742 C   0  0  0  0  0  0  0  0  0  0  0  0
  -29.4376  -20.8205   19.8972 C   0  0  0  0  0  0  0  0  0  0  0  0
  -32.3513  -25.7519   19.6974 C   0  0  0  0  0  0  0  0  0  0  0  0
  -31.1864  -26.5554   20.2638 C   0  0  0  0  0  0  0  0  0  1  0  0
  -25.0268  -27.6386   24.2207 C   0  0  1  0  0  0  0  0  0  0  0  0
  -24.2509  -23.9317   24.3836 C   0  0  2  0  0  0  0  0  0  0  0  0
  -24.9166  -28.5304   25.4896 C   0  0  0  0  0  0  0  0  0  0  0  0
  -28.3439  -15.2335   22.1170 N   0  0  0  0  0  0  0  0  0  0  0  0
  -29.6433  -23.9961   18.3935 N   0  0  0  0  0  0  0  0  0  0  0  0
  -28.9817  -22.9087   18.7743 N   0  0  0  0  0  0  0  0  0  0  0  0
  -29.8653  -22.0936   19.3727 N   0  0  0  0  0  0  0  0  0  0  0  0
  -29.2950  -16.1436   21.8462 N   0  0  0  0  0  0  0  0  0  0  0  0
  -25.2429  -28.5180   21.9177 N   0  0  0  0  0  0  0  0  0  0  0  0
  -28.2437  -19.8210   21.8163 N   0  0  0  0  0  0  0  0  0  0  0  0
  -31.3851  -16.4278   20.7686 N   0  0  0  0  0  0  0  0  0  0  0  0
  -30.4372  -12.0679   20.0701 N   0  0  0  0  0  0  0  0  0  0  0  0
  -24.2937  -31.6838   20.5735 N   0  0  0  0  0  0  0  0  0  0  0  0
  -24.4052  -26.3258   24.3572 N   0  0  0  0  0  0  0  0  0  0  0  0
  -24.6958  -22.8300   23.4840 N   0  3  0  0  0  0  0  0  0  0  0  0
  -31.9832  -13.7201   19.6976 O   0  0  0  0  0  0  0  0  0  0  0  0
  -26.2490  -30.9469   21.6013 O   0  0  0  0  0  0  0  0  0  0  0  0
  -28.4836  -22.1248   21.6295 O   0  0  0  0  0  0  0  0  0  0  0  0
  -23.1930  -28.5558   23.0280 O   0  0  0  0  0  0  0  0  0  0  0  0
  -26.3156  -25.0916   23.9053 O   0  0  0  0  0  0  0  0  0  0  0  0
  -25.8931   -9.3636   21.8232 O   0  0  0  0  0  0  0  0  0  0  0  0
  -30.6968  -27.4304   19.2484 O   0  0  0  0  0  0  0  0  0  1  0  0
  -20.4744   -9.6222   20.8363 F   0  0  0  0  0  0  0  0  0  0  0  0
  -24.7591   -7.9295   19.7495 F   0  0  0  0  0  0  0  0  0  0  0  0
  1  2  1  0  0  0  0
  1  5  2  0  0  0  0
  2  6  2  0  0  0  0
  3  8  2  0  0  0  0
  3 15  1  0  0  0  0
  4  9  1  0  0  0  0
  4 15  2  0  0  0  0
  5 17  1  0  0  0  0
  6 19  1  0  0  0  0
  7 10  2  0  0  0  0
  7 18  1  0  0  0  0
  8 21  1  0  0  0  0
  9 21  2  0  0  0  0
 10 22  1  0  0  0  0
 11 12  2  0  0  0  0
 11 23  1  0  0  0  0
 12 24  1  0  0  0  0
 13 20  1  0  0  0  0
 13 22  2  0  0  0  0
 14 24  2  0  0  0  0
 14 25  1  0  0  0  0
 15 26  1  0  0  0  0
 16 26  1  0  0  0  0
 16 29  2  0  0  0  0
 16 30  1  0  0  0  0
 17 19  2  0  0  0  0
 17 35  1  0  0  0  0
 18 20  2  0  0  0  0
 18 36  1  0  0  0  0
 19 44  1  0  0  0  0
 20 37  1  0  0  0  0
 21 77  1  0  0  0  0
 22 78  1  0  0  0  0
 23 25  2  0  0  0  0
 23 77  1  0  0  0  0
 24 79  1  0  0  0  0
 25 80  1  0  0  0  0
 26 60  2  0  0  0  0
 27 28  2  0  0  0  0
 27 53  1  0  0  0  0
 27 61  1  0  0  0  0
 28 47  1  0  0  0  0
 28 63  1  0  0  0  0
 29 64  1  0  0  0  0
 29 67  1  0  0  0  0
 30 68  1  0  0  0  0
 30 72  2  0  0  0  0
 31 45  1  0  0  0  0
 31 69  1  0  0  0  0
 31 73  2  0  0  0  0
 32 54  1  0  0  0  0
 32 66  1  0  0  0  0
 32 74  2  0  0  0  0
 33 57  1  0  0  0  0
 33 65  1  0  0  0  0
 33 75  2  0  0  0  0
 34 58  1  0  0  0  0
 34 70  1  0  0  0  0
 34 76  2  0  0  0  0
 35 38  1  0  0  0  0
 36 45  1  0  0  0  0
 37 65  1  0  0  0  0
 38 40  1  0  0  0  0
 39 41  1  0  0  0  0
 39 42  1  0  0  0  0
 40 44  1  0  0  0  0
 41 46  1  0  0  0  0
 42 66  1  0  0  0  0
 43 46  1  0  0  0  0
 43 66  1  0  0  0  0
 44 69  1  0  0  0  0
 45 65  1  0  0  0  0
 46 64  1  0  0  0  0
 48 58  1  0  0  0  0
 49 59  1  0  0  0  0
 50 59  1  0  0  0  0
 51 59  1  0  0  0  0
 52 71  1  0  0  0  0
 53 55  1  0  0  0  0
 54 63  1  0  0  0  0
 55 56  1  0  0  0  0
 56 78  1  0  0  0  0
 57 59  1  0  0  0  0
 57 70  1  0  0  0  0
 58 71  1  0  0  0  0
 60 64  1  0  0  0  0
 61 62  2  0  0  0  0
 62 63  1  0  0  0  0
M  CHG  1  71   1
M  ISO  4  32 100  54 100  56 101  78 101
M  END
> <Batch ID>
0050

> <Smiles>
CNC(C)C(=O)NC(C(=O)N1Cc2cc([101O:1][101CH2:1]CCc3nnn([100CH2:0][100C:0](=O)N4CCCC(n5nc(-c6ccc(Oc7ccc(F)cc7F)cc6)c(C(N)=O)c5N)C4)c3C)ccc2CC1C(=O)NC1CCCc2ccccc21)C(C)(C)C

> <Shape>
0.236

> <Color>
0.079

> <Negative vol penalty>
0.000

$$$$

  -OEChem-04052317313D

 84 92  0     1  0  0  0  0  0999 V2000
  -28.6455  -37.9770   21.8318 C   0  0  0  0  0  0  0  0  0  0  0  0
  -28.7315  -36.9769   20.8685 C   0  0  0  0  0  0  0  0  0  0  0  0
  -23.3380   -9.7297   22.4423 C   0  0  0  0  0  0  0  0  0  0  0  0
  -23.7435   -9.3777   20.0867 C   0  0  0  0  0  0  0  0  0  0  0  0
  -28.3966  -37.6423   23.1622 C   0  0  0  0  0  0  0  0  0  0  0  0
  -28.5696  -35.6414   21.2353 C   0  0  0  0  0  0  0  0  0  0  0  0
  -26.0388  -29.4290   18.7217 C   0  0  0  0  0  0  0  0  0  0  0  0
  -22.5143   -8.6044   22.4687 C   0  0  0  0  0  0  0  0  0  0  0  0
  -22.9198   -8.2523   20.1131 C   0  0  0  0  0  0  0  0  0  0  0  0
  -26.4262  -28.1018   18.5424 C   0  0  0  0  0  0  0  0  0  0  0  0
  -22.8884   -5.2456   22.5755 C   0  0  0  0  0  0  0  0  0  0  0  0
  -23.0499   -4.3487   23.6315 C   0  0  0  0  0  0  0  0  0  0  0  0
  -25.9213  -27.6479   20.8572 C   0  0  0  0  0  0  0  0  0  0  0  0
  -20.7558   -4.7160   24.2942 C   0  0  0  0  0  0  0  0  0  0  0  0
  -27.6500  -19.5518   20.2743 C   0  0  0  0  0  0  0  0  0  0  0  0
  -30.2186  -20.1756   19.8994 C   0  0  0  0  0  0  0  0  0  0  0  0
  -23.9526  -10.1164   21.2512 C   0  0  0  0  0  0  0  0  0  0  0  0
  -26.1909  -11.3230   21.4553 C   0  0  0  0  0  0  0  0  0  0  0  0
  -28.2220  -36.3027   23.5438 C   0  0  0  0  0  0  0  0  0  0  0  0
  -25.5994  -29.8790   19.9750 C   0  0  0  0  0  0  0  0  0  0  0  0
  -28.3194  -35.2883   22.5722 C   0  0  0  0  0  0  0  0  0  0  0  0
  -25.5265  -28.9807   21.0492 C   0  0  0  0  0  0  0  0  0  0  0  0
  -22.3052   -7.8656   21.3041 C   0  0  0  0  0  0  0  0  0  0  0  0
  -26.3703  -27.2117   19.6109 C   0  0  0  0  0  0  0  0  0  0  0  0
  -21.6607   -5.8778   22.3789 C   0  0  0  0  0  0  0  0  0  0  0  0
  -21.9836   -4.0839   24.4908 C   0  0  0  0  0  0  0  0  0  0  0  0
  -20.5944   -5.6129   23.2382 C   0  0  0  0  0  0  0  0  0  0  0  0
  -24.8031  -11.2791   21.2232 C   0  0  0  0  0  0  0  0  0  0  0  0
  -28.5401  -18.6275   19.7734 C   0  0  0  0  0  0  0  0  0  0  0  0
  -29.3284  -21.1001   20.3996 C   0  0  0  0  0  0  0  0  0  0  0  0
  -26.5211  -12.6486   21.3132 C   0  0  0  0  0  0  0  0  0  0  0  0
  -27.1003  -10.2605   21.7711 C   0  0  0  0  0  0  0  0  0  0  0  0
  -26.6186  -32.0477   22.0634 C   0  0  0  0  0  0  0  0  0  0  0  0
  -23.8624  -31.2949   23.5994 C   0  0  0  0  0  0  0  0  0  0  0  0
  -21.3854  -29.0141   24.1553 C   0  0  0  0  0  0  0  0  0  0  0  0
  -25.9315  -17.3037   18.1038 C   0  0  0  0  0  0  0  0  0  0  0  0
  -28.0017  -35.9861   25.0019 C   0  0  0  0  0  0  0  0  0  0  0  0
  -25.1596  -31.3073   20.1453 C   0  0  0  0  0  0  0  0  0  0  0  0
  -25.0427  -29.4090   22.4097 C   0  0  0  0  0  0  0  0  0  0  0  0
  -27.4699  -34.5760   25.2454 C   0  0  0  0  0  0  0  0  0  0  0  0
  -23.6162  -16.7618   20.9406 C   0  0  0  0  0  0  0  0  0  0  0  0
  -28.2616  -33.5587   24.4298 C   0  0  0  0  0  0  0  0  0  0  0  0
  -23.7883  -15.2718   21.2311 C   0  0  0  0  0  0  0  0  0  0  0  0
  -23.8913  -17.0897   19.4762 C   0  0  0  0  0  0  0  0  0  0  0  0
  -25.3920  -15.1338   19.2844 C   0  0  0  0  0  0  0  0  0  0  0  0
  -28.1249  -33.8300   22.9268 C   0  0  1  0  0  0  0  0  0  0  0  0
  -25.2162  -31.7812   21.5943 C   0  0  1  0  0  0  0  0  0  0  0  0
  -25.1674  -14.7770   20.7615 C   0  0  2  0  0  0  0  0  0  0  0  0
  -19.2897  -28.6683   25.4916 C   0  0  0  0  0  0  0  0  0  0  0  0
  -25.5415  -30.7717   26.0927 C   0  0  0  0  0  0  0  0  0  0  0  0
  -23.5863  -29.5492   27.0679 C   0  0  0  0  0  0  0  0  0  0  0  0
  -23.3902  -31.9743   26.5172 C   0  0  0  0  0  0  0  0  0  0  0  0
  -31.2159  -22.7088   20.4976 C   0  0  0  0  0  0  0  0  0  0  0  0
  -28.1172  -17.3617   16.9642 C   0  0  0  0  0  0  0  0  0  0  0  0
  -19.7347  -28.7439   21.7137 C   0  0  0  0  0  0  0  0  0  0  0  0
  -28.0868  -17.2519   19.4285 C   0  0  0  0  0  0  0  0  0  0  0  0
  -28.2698  -24.1759   20.0846 C   0  0  0  0  0  0  0  0  0  0  0  0
  -28.9281  -23.4068   21.2237 C   0  0  0  0  0  0  0  0  0  0  0  0
  -27.2969  -25.2433   20.5716 C   0  0  0  0  0  0  0  0  0  1  0  0
  -23.4629  -30.2795   24.6425 C   0  0  1  0  0  0  0  0  0  0  0  0
  -19.8738  -29.1530   24.1738 C   0  0  2  0  0  0  0  0  0  0  0  0
  -24.0062  -30.6357   26.0551 C   0  0  0  0  0  0  0  0  0  0  0  0
  -29.8404  -18.9227   19.5772 N   0  0  0  0  0  0  0  0  0  0  0  0
  -28.0281  -20.8048   20.5961 N   0  0  0  0  0  0  0  0  0  0  0  0
  -24.2871  -12.4813   20.9542 N   0  0  0  0  0  0  0  0  0  0  0  0
  -25.3563  -13.2931   21.0165 N   0  0  0  0  0  0  0  0  0  0  0  0
  -24.6298  -30.8172   22.5276 N   0  0  0  0  0  0  0  0  0  0  0  0
  -25.1895  -16.5705   19.0444 N   0  0  0  0  0  0  0  0  0  0  0  0
  -27.6912  -13.3142   21.4144 N   0  0  0  0  0  0  0  0  0  0  0  0
  -26.5943   -8.9580   21.8794 N   0  0  0  0  0  0  0  0  0  0  0  0
  -26.8459  -33.3571   22.4421 N   0  0  0  0  0  0  0  0  0  0  0  0
  -22.0097  -30.1711   24.5711 N   0  0  0  0  0  0  0  0  0  0  0  0
  -29.8043  -22.3824   20.7089 N   0  0  3  0  0  0  0  0  0  0  0  0
  -27.3295  -17.2110   18.1794 N   0  0  0  0  0  0  0  0  0  0  0  0
  -19.2669  -28.3571   23.0697 N   0  3  0  0  0  0  0  0  0  0  0  0
  -28.3226  -10.4626   21.9680 O   0  0  0  0  0  0  0  0  0  0  0  0
  -27.4336  -31.1328   22.0820 O   0  0  0  0  0  0  0  0  0  0  0  0
  -23.5007  -32.4673   23.7270 O   0  0  0  0  0  0  0  0  0  0  0  0
  -21.9552  -27.9813   23.8103 O   0  0  0  0  0  0  0  0  0  0  0  0
  -25.3762  -18.0088   17.2515 O   0  0  0  0  0  0  0  0  0  0  0  0
  -21.5017   -6.7673   21.3296 O   0  0  0  0  0  0  0  0  0  0  0  0
  -26.7484  -25.9158   19.4387 O   0  0  0  0  0  0  0  0  0  1  0  0
  -22.1383   -3.2214   25.5039 F   0  0  0  0  0  0  0  0  0  0  0  0
  -19.4121   -6.2163   23.0537 F   0  0  0  0  0  0  0  0  0  0  0  0
  1  2  1  0  0  0  0
  1  5  2  0  0  0  0
  2  6  2  0  0  0  0
  3  8  2  0  0  0  0
  3 17  1  0  0  0  0
  4  9  1  0  0  0  0
  4 17  2  0  0  0  0
  5 19  1  0  0  0  0
  6 21  1  0  0  0  0
  7 10  2  0  0  0  0
  7 20  1  0  0  0  0
  8 23  1  0  0  0  0
  9 23  2  0  0  0  0
 10 24  1  0  0  0  0
 11 12  2  0  0  0  0
 11 25  1  0  0  0  0
 12 26  1  0  0  0  0
 13 22  1  0  0  0  0
 13 24  2  0  0  0  0
 14 26  2  0  0  0  0
 14 27  1  0  0  0  0
 15 29  2  0  0  0  0
 15 64  1  0  0  0  0
 16 30  1  0  0  0  0
 16 63  2  0  0  0  0
 17 28  1  0  0  0  0
 18 28  1  0  0  0  0
 18 31  2  0  0  0  0
 18 32  1  0  0  0  0
 19 21  2  0  0  0  0
 19 37  1  0  0  0  0
 20 22  2  0  0  0  0
 20 38  1  0  0  0  0
 21 46  1  0  0  0  0
 22 39  1  0  0  0  0
 23 81  1  0  0  0  0
 24 82  1  0  0  0  0
 25 27  2  0  0  0  0
 25 81  1  0  0  0  0
 26 83  1  0  0  0  0
 27 84  1  0  0  0  0
 28 65  2  0  0  0  0
 29 56  1  0  0  0  0
 29 63  1  0  0  0  0
 30 64  2  0  0  0  0
 30 73  1  0  0  0  0
 31 66  1  0  0  0  0
 31 69  1  0  0  0  0
 32 70  1  0  0  0  0
 32 76  2  0  0  0  0
 33 47  1  0  0  0  0
 33 71  1  0  0  0  0
 33 77  2  0  0  0  0
 34 60  1  0  0  0  0
 34 67  1  0  0  0  0
 34 78  2  0  0  0  0
 35 61  1  0  0  0  0
 35 72  1  0  0  0  0
 35 79  2  0  0  0  0
 36 68  1  0  0  0  0
 36 74  1  0  0  0  0
 36 80  2  0  0  0  0
 37 40  1  0  0  0  0
 38 47  1  0  0  0  0
 39 67  1  0  0  0  0
 40 42  1  0  0  0  0
 41 43  1  0  0  0  0
 41 44  1  0  0  0  0
 42 46  1  0  0  0  0
 43 48  1  0  0  0  0
 44 68  1  0  0  0  0
 45 48  1  0  0  0  0
 45 68  1  0  0  0  0
 46 71  1  0  0  0  0
 47 67  1  0  0  0  0
 48 66  1  0  0  0  0
 49 61  1  0  0  0  0
 50 62  1  0  0  0  0
 51 62  1  0  0  0  0
 52 62  1  0  0  0  0
 53 73  1  0  0  0  0
 54 74  1  0  0  0  0
 55 75  1  0  0  0  0
 56 74  1  0  0  0  0
 57 58  1  0  0  0  0
 57 59  1  0  0  0  0
 58 73  1  0  0  0  0
 59 82  1  0  0  0  0
 60 62  1  0  0  0  0
 60 72  1  0  0  0  0
 61 75  1  0  0  0  0
 65 66  1  0  0  0  0
M  CHG  1  75   1
M  ISO  4  36 100  59 101  74 100  82 101
M  END
> <Batch ID>
0050

> <Smiles>
CNC(C)C(=O)NC(C(=O)N1Cc2cc([101O:1][101CH2:1]CCN(C)c3cnc(C[100N:0](C)[100C:0](=O)N4CCCC(n5nc(-c6ccc(Oc7ccc(F)cc7F)cc6)c(C(N)=O)c5N)C4)cn3)ccc2CC1C(=O)NC1CCCc2ccccc21)C(C)(C)C

> <Shape>
0.308

> <Color>
0.127

> <Negative vol penalty>
0.000

$$$$

  -OEChem-04052317313D

 84 92  0     1  0  0  0  0  0999 V2000
  -31.5046  -26.0167   17.9569 C   0  0  0  0  0  0  0  0  0  0  0  0
  -30.6869  -25.0389   18.5142 C   0  0  0  0  0  0  0  0  0  0  0  0
  -27.4417  -15.3097   19.1399 C   0  0  0  0  0  0  0  0  0  0  0  0
  -28.0201  -15.0633   21.4726 C   0  0  0  0  0  0  0  0  0  0  0  0
  -31.4498  -27.3252   18.4352 C   0  0  0  0  0  0  0  0  0  0  0  0
  -29.8147  -25.3688   19.5510 C   0  0  0  0  0  0  0  0  0  0  0  0
  -24.2542  -23.0148   20.5737 C   0  0  0  0  0  0  0  0  0  0  0  0
  -28.3368  -16.3738   19.0303 C   0  0  0  0  0  0  0  0  0  0  0  0
  -28.9152  -16.1274   21.3631 C   0  0  0  0  0  0  0  0  0  0  0  0
  -23.8023  -22.0162   21.4353 C   0  0  0  0  0  0  0  0  0  0  0  0
  -30.2060  -19.3879   18.2274 C   0  0  0  0  0  0  0  0  0  0  0  0
  -29.7789  -20.5295   17.5493 C   0  0  0  0  0  0  0  0  0  0  0  0
  -23.1885  -23.6976   23.0524 C   0  0  0  0  0  0  0  0  0  0  0  0
  -27.9827  -20.8033   19.1419 C   0  0  0  0  0  0  0  0  0  0  0  0
  -21.0145  -17.7461   25.1879 C   0  0  0  0  0  0  0  0  0  0  0  0
  -27.2832  -14.6544   20.3611 C   0  0  0  0  0  0  0  0  0  0  0  0
  -26.6298  -12.1904   20.2637 C   0  0  0  0  0  0  0  0  0  0  0  0
  -30.5696  -27.6734   19.4718 C   0  0  0  0  0  0  0  0  0  0  0  0
  -24.1865  -24.3639   20.9501 C   0  0  0  0  0  0  0  0  0  0  0  0
  -29.7491  -26.6829   20.0445 C   0  0  0  0  0  0  0  0  0  0  0  0
  -23.6378  -24.7116   22.1927 C   0  0  0  0  0  0  0  0  0  0  0  0
  -29.0736  -16.7826   20.1419 C   0  0  0  0  0  0  0  0  0  0  0  0
  -23.2720  -22.3573   22.6760 C   0  0  0  0  0  0  0  0  0  0  0  0
  -29.5215  -18.9539   19.3627 C   0  0  0  0  0  0  0  0  0  0  0  0
  -28.6672  -21.2372   18.0066 C   0  0  0  0  0  0  0  0  0  0  0  0
  -28.4099  -19.6616   19.8199 C   0  0  0  0  0  0  0  0  0  0  0  0
  -26.3583  -13.5555   20.4750 C   0  0  0  0  0  0  0  0  0  0  0  0
  -22.1263  -17.9237   25.9621 C   0  0  0  0  0  0  0  0  0  0  0  0
  -25.4308  -11.5620   20.4955 C   0  0  0  0  0  0  0  0  0  0  0  0
  -22.3800  -19.1211   24.1176 C   0  0  0  0  0  0  0  0  0  0  0  0
  -27.8563  -11.5480   19.8913 C   0  0  0  0  0  0  0  0  0  0  0  0
  -26.3219  -26.6700   21.4256 C   0  0  0  0  0  0  0  0  0  0  0  0
  -23.6757  -28.5132   21.7748 C   0  0  0  0  0  0  0  0  0  0  0  0
  -20.3528  -28.6982   22.5304 C   0  0  0  0  0  0  0  0  0  0  0  0
  -20.6261  -13.0209   23.7571 C   0  0  0  0  0  0  0  0  0  0  0  0
  -30.5798  -29.0906   19.9876 C   0  0  0  0  0  0  0  0  0  0  0  0
  -24.6535  -25.4309   19.9983 C   0  0  0  0  0  0  0  0  0  0  0  0
  -23.5241  -26.1466   22.6359 C   0  0  0  0  0  0  0  0  0  0  0  0
  -29.3591  -29.4392   20.8353 C   0  0  0  0  0  0  0  0  0  0  0  0
  -20.7095  -12.3036   20.2707 C   0  0  0  0  0  0  0  0  0  0  0  0
  -29.0829  -28.3363   21.8523 C   0  0  0  0  0  0  0  0  0  0  0  0
  -22.1912  -12.4199   19.9086 C   0  0  0  0  0  0  0  0  0  0  0  0
  -20.3026  -13.3345   21.3212 C   0  0  0  0  0  0  0  0  0  0  0  0
  -22.6092  -13.4479   22.1818 C   0  0  0  0  0  0  0  0  0  0  0  0
  -28.7721  -27.0070   21.1538 C   0  0  1  0  0  0  0  0  0  0  0  0
  -25.0101  -26.7397   20.6962 C   0  0  1  0  0  0  0  0  0  0  0  0
  -23.0797  -12.3921   21.1668 C   0  0  2  0  0  0  0  0  0  0  0  0
  -18.4754  -30.3463   22.7683 C   0  0  0  0  0  0  0  0  0  0  0  0
  -24.8116  -29.4161   24.4589 C   0  0  0  0  0  0  0  0  0  0  0  0
  -22.5352  -30.2703   25.0561 C   0  0  0  0  0  0  0  0  0  0  0  0
  -23.7564  -31.2365   23.1073 C   0  0  0  0  0  0  0  0  0  0  0  0
  -24.2522  -19.2432   25.7280 C   0  0  0  0  0  0  0  0  0  0  0  0
  -18.7847  -27.3980   20.3834 C   0  0  0  0  0  0  0  0  0  0  0  0
  -21.6003  -16.0203   29.1816 C   0  0  0  0  0  0  0  0  0  0  0  0
  -22.4709  -17.3648   27.2750 C   0  0  0  0  0  0  0  0  0  0  0  0
  -22.9413  -20.0351   23.0684 C   0  0  0  0  0  0  0  0  0  1  0  0
  -20.8090  -14.0041   26.9229 C   0  0  0  0  0  0  0  0  0  0  0  0
  -21.1114  -12.7122   26.1713 C   0  0  0  0  0  0  0  0  0  0  0  0
  -22.0135  -14.9351   26.9785 C   0  0  0  0  0  0  0  0  0  0  0  0
  -22.7917  -28.9060   22.9338 C   0  0  1  0  0  0  0  0  0  0  0  0
  -19.1977  -29.3914   21.8306 C   0  0  2  0  0  0  0  0  0  0  0  0
  -23.4775  -29.9300   23.8818 C   0  0  0  0  0  0  0  0  0  0  0  0
  -25.0865  -13.7817   20.8148 N   0  0  0  0  0  0  0  0  0  0  0  0
  -22.9543  -18.7785   25.2753 N   0  0  0  0  0  0  0  0  0  0  0  0
  -24.5482  -12.5503   20.8186 N   0  0  0  0  0  0  0  0  0  0  0  0
  -21.1985  -18.4987   24.0531 N   0  3  0  0  0  0  0  0  0  0  0  0
  -24.0001  -27.1531   21.6726 N   0  0  0  0  0  0  0  0  0  0  0  0
  -21.1833  -13.2546   22.4891 N   0  0  0  0  0  0  0  0  0  0  0  0
  -25.0557  -10.2659   20.4523 N   0  0  0  0  0  0  0  0  0  0  0  0
  -28.9934  -12.3428   19.6925 N   0  0  0  0  0  0  0  0  0  0  0  0
  -27.4153  -27.0059   20.6502 N   0  0  0  0  0  0  0  0  0  0  0  0
  -21.5397  -29.3766   22.3512 N   0  0  0  0  0  0  0  0  0  0  0  0
  -21.5316  -12.9532   24.8089 N   0  0  0  0  0  0  0  0  0  0  0  0
  -18.2149  -28.3871   21.3342 N   0  3  0  0  0  0  0  0  0  0  0  0
  -21.6227  -16.2010   27.6892 N   0  3  1  0  0  0  0  0  0  0  0  0
  -27.9373  -10.3075   19.7233 O   0  0  0  0  0  0  0  0  0  0  0  0
  -26.3405  -26.3374   22.6049 O   0  0  0  0  0  0  0  0  0  0  0  0
  -24.0581  -29.3802   20.9851 O   0  0  0  0  0  0  0  0  0  0  0  0
  -20.2151  -27.6608   23.1749 O   0  0  0  0  0  0  0  0  0  0  0  0
  -19.4121  -12.8774   23.9377 O   0  0  0  0  0  0  0  0  0  0  0  0
  -29.9473  -17.8208   20.0353 O   0  0  0  0  0  0  0  0  0  0  0  0
  -22.8309  -21.3846   23.5192 O   0  0  0  0  0  0  0  0  0  1  0  0
  -28.2581  -22.3344   17.3562 F   0  0  0  0  0  0  0  0  0  0  0  0
  -27.7490  -19.2503   20.9107 F   0  0  0  0  0  0  0  0  0  0  0  0
  1  2  1  0  0  0  0
  1  5  2  0  0  0  0
  2  6  2  0  0  0  0
  3  8  2  0  0  0  0
  3 16  1  0  0  0  0
  4  9  1  0  0  0  0
  4 16  2  0  0  0  0
  5 18  1  0  0  0  0
  6 20  1  0  0  0  0
  7 10  2  0  0  0  0
  7 19  1  0  0  0  0
  8 22  1  0  0  0  0
  9 22  2  0  0  0  0
 10 23  1  0  0  0  0
 11 12  2  0  0  0  0
 11 24  1  0  0  0  0
 12 25  1  0  0  0  0
 13 21  1  0  0  0  0
 13 23  2  0  0  0  0
 14 25  2  0  0  0  0
 14 26  1  0  0  0  0
 15 28  2  0  0  0  0
 15 66  1  0  0  0  0
 16 27  1  0  0  0  0
 17 27  1  0  0  0  0
 17 29  2  0  0  0  0
 17 31  1  0  0  0  0
 18 20  2  0  0  0  0
 18 36  1  0  0  0  0
 19 21  2  0  0  0  0
 19 37  1  0  0  0  0
 20 45  1  0  0  0  0
 21 38  1  0  0  0  0
 22 81  1  0  0  0  0
 23 82  1  0  0  0  0
 24 26  2  0  0  0  0
 24 81  1  0  0  0  0
 25 83  1  0  0  0  0
 26 84  1  0  0  0  0
 27 63  2  0  0  0  0
 28 55  1  0  0  0  0
 28 64  1  0  0  0  0
 29 65  1  0  0  0  0
 29 69  1  0  0  0  0
 30 56  1  0  0  0  0
 30 64  1  0  0  0  0
 30 66  2  0  0  0  0
 31 70  1  0  0  0  0
 31 76  2  0  0  0  0
 32 46  1  0  0  0  0
 32 71  1  0  0  0  0
 32 77  2  0  0  0  0
 33 60  1  0  0  0  0
 33 67  1  0  0  0  0
 33 78  2  0  0  0  0
 34 61  1  0  0  0  0
 34 72  1  0  0  0  0
 34 79  2  0  0  0  0
 35 68  1  0  0  0  0
 35 73  1  0  0  0  0
 35 80  2  0  0  0  0
 36 39  1  0  0  0  0
 37 46  1  0  0  0  0
 38 67  1  0  0  0  0
 39 41  1  0  0  0  0
 40 42  1  0  0  0  0
 40 43  1  0  0  0  0
 41 45  1  0  0  0  0
 42 47  1  0  0  0  0
 43 68  1  0  0  0  0
 44 47  1  0  0  0  0
 44 68  1  0  0  0  0
 45 71  1  0  0  0  0
 46 67  1  0  0  0  0
 47 65  1  0  0  0  0
 48 61  1  0  0  0  0
 49 62  1  0  0  0  0
 50 62  1  0  0  0  0
 51 62  1  0  0  0  0
 52 64  1  0  0  0  0
 53 74  1  0  0  0  0
 54 75  1  0  0  0  0
 55 75  1  0  0  0  0
 56 82  1  0  0  0  0
 57 58  1  0  0  0  0
 57 59  1  0  0  0  0
 58 73  1  0  0  0  0
 59 75  1  0  0  0  0
 60 62  1  0  0  0  0
 60 72  1  0  0  0  0
 61 74  1  0  0  0  0
 63 65  1  0  0  0  0
M  CHG  3  66   1  74   1  75   1
M  ISO  4  35 100  56 101  73 100  82 101
M  END
> <Batch ID>
0050

> <Smiles>
CNC(C)C(=O)NC(C(=O)N1Cc2cc([101O:1][101CH2:1]c3ncc(CN(C)CCC[100NH:0][100C:0](=O)N4CCCC(n5nc(-c6ccc(Oc7ccc(F)cc7F)cc6)c(C(N)=O)c5N)C4)n3C)ccc2CC1C(=O)NC1CCCc2ccccc21)C(C)(C)C

> <Shape>
0.236

> <Color>
0.052

> <Negative vol penalty>
0.000

$$$$

  -OEChem-04052317313D

 89 97  0     1  0  0  0  0  0999 V2000
  -29.4357  -35.5968   24.5596 C   0  0  0  0  0  0  0  0  0  0  0  0
  -29.0815  -34.2763   24.3020 C   0  0  0  0  0  0  0  0  0  0  0  0
  -24.7852   -8.1911   21.2731 C   0  0  0  0  0  0  0  0  0  0  0  0
  -23.9679  -10.3384   22.0202 C   0  0  0  0  0  0  0  0  0  0  0  0
  -28.4633  -36.5130   24.9585 C   0  0  0  0  0  0  0  0  0  0  0  0
  -27.7549  -33.8710   24.4443 C   0  0  0  0  0  0  0  0  0  0  0  0
  -26.1799  -30.9896   20.5891 C   0  0  0  0  0  0  0  0  0  0  0  0
  -24.1021   -7.5678   22.3172 C   0  0  0  0  0  0  0  0  0  0  0  0
  -23.2847   -9.7151   23.0643 C   0  0  0  0  0  0  0  0  0  0  0  0
  -26.5802  -29.6541   20.5874 C   0  0  0  0  0  0  0  0  0  0  0  0
  -20.9288   -6.6246   23.0055 C   0  0  0  0  0  0  0  0  0  0  0  0
  -20.2033   -5.4710   22.7081 C   0  0  0  0  0  0  0  0  0  0  0  0
  -24.4255  -29.0134   21.4626 C   0  0  0  0  0  0  0  0  0  0  0  0
  -21.5519   -4.2192   24.2738 C   0  0  0  0  0  0  0  0  0  0  0  0
  -28.0470  -23.7236   21.8366 C   0  0  0  0  0  0  0  0  0  0  0  0
  -24.7182   -9.5765   21.1245 C   0  0  0  0  0  0  0  0  0  0  0  0
  -24.9393  -10.4871   18.7519 C   0  0  0  0  0  0  0  0  0  0  0  0
  -27.1225  -36.1209   25.0964 C   0  0  0  0  0  0  0  0  0  0  0  0
  -24.9011  -31.3487   21.0387 C   0  0  0  0  0  0  0  0  0  0  0  0
  -26.7640  -34.7824   24.8467 C   0  0  0  0  0  0  0  0  0  0  0  0
  -24.0105  -30.3538   21.4667 C   0  0  0  0  0  0  0  0  0  0  0  0
  -28.0453  -22.9420   20.6993 C   0  0  0  0  0  0  0  0  0  0  0  0
  -23.3518   -8.3297   23.2129 C   0  0  0  0  0  0  0  0  0  0  0  0
  -25.7040  -28.6661   21.0268 C   0  0  0  0  0  0  0  0  0  0  0  0
  -21.9659   -6.5755   23.9370 C   0  0  0  0  0  0  0  0  0  0  0  0
  -20.5148   -4.2683   23.3423 C   0  0  0  0  0  0  0  0  0  0  0  0
  -22.2774   -5.3728   24.5711 C   0  0  0  0  0  0  0  0  0  0  0  0
  -25.4242  -10.2210   20.0465 C   0  0  0  0  0  0  0  0  0  0  0  0
  -27.8206  -23.6125   19.5144 C   0  0  0  0  0  0  0  0  0  0  0  0
  -25.9854  -11.1080   18.1143 C   0  0  0  0  0  0  0  0  0  0  0  0
  -27.6383  -25.5946   20.6122 C   0  0  0  0  0  0  0  0  0  0  0  0
  -23.6578  -10.1988   18.1771 C   0  0  0  0  0  0  0  0  0  0  0  0
  -23.7791  -33.1494   23.4057 C   0  0  0  0  0  0  0  0  0  0  0  0
  -20.9247  -32.5533   21.9847 C   0  0  0  0  0  0  0  0  0  0  0  0
  -19.0554  -30.5222   19.9779 C   0  0  0  0  0  0  0  0  0  0  0  0
  -30.6616  -14.2809   20.0935 C   0  0  0  0  0  0  0  0  0  0  0  0
  -26.1150  -37.1358   25.5758 C   0  0  0  0  0  0  0  0  0  0  0  0
  -24.4751  -32.7910   21.0092 C   0  0  0  0  0  0  0  0  0  0  0  0
  -22.6196  -30.6849   21.9400 C   0  0  0  0  0  0  0  0  0  0  0  0
  -24.6668  -36.7144   25.3406 C   0  0  0  0  0  0  0  0  0  0  0  0
  -30.7648  -11.3291   18.1052 C   0  0  0  0  0  0  0  0  0  0  0  0
  -24.4533  -35.2692   25.7793 C   0  0  0  0  0  0  0  0  0  0  0  0
  -29.3640  -10.7344   18.2605 C   0  0  0  0  0  0  0  0  0  0  0  0
  -31.2498  -11.9765   19.4005 C   0  0  0  0  0  0  0  0  0  0  0  0
  -28.9309  -12.3836   20.1290 C   0  0  0  0  0  0  0  0  0  0  0  0
  -25.3311  -34.3104   24.9659 C   0  0  1  0  0  0  0  0  0  0  0  0
  -23.3319  -33.0961   21.9722 C   0  0  1  0  0  0  0  0  0  0  0  0
  -28.3760  -11.7686   18.8327 C   0  0  2  0  0  0  0  0  0  0  0  0
  -27.8537  -23.8037   17.0146 C   0  0  0  0  0  0  0  0  0  0  0  0
  -16.7448  -30.2746   19.0307 C   0  0  0  0  0  0  0  0  0  0  0  0
  -19.9208  -31.5765   24.6954 C   0  0  0  0  0  0  0  0  0  0  0  0
  -18.0018  -30.4861   23.5137 C   0  0  0  0  0  0  0  0  0  0  0  0
  -18.2810  -32.9629   23.4135 C   0  0  0  0  0  0  0  0  0  0  0  0
  -27.6511  -17.5818   20.6125 C   0  0  0  0  0  0  0  0  0  0  0  0
  -28.8559  -16.8985   18.5393 C   0  0  0  0  0  0  0  0  0  0  0  0
  -20.0502  -30.7065   17.1966 C   0  0  0  0  0  0  0  0  0  0  0  0
  -31.1210  -19.1626   21.7954 C   0  0  0  0  0  0  0  0  0  0  0  0
  -28.2725  -21.4762   20.7734 C   0  0  0  0  0  0  0  0  0  0  0  0
  -27.7969  -22.8693   18.2196 C   0  0  0  0  0  0  0  0  0  0  0  0
  -27.4117  -27.0771   20.5632 C   0  0  0  0  0  0  0  0  0  1  0  0
  -29.9176  -16.5396   20.8033 C   0  0  0  0  0  0  0  0  0  0  0  0
  -29.7318  -21.0730   21.0073 C   0  0  0  0  0  0  0  0  0  0  0  0
  -29.6605  -18.8987   19.7956 C   0  0  0  0  0  0  0  0  0  0  0  0
  -19.8680  -31.4832   22.1158 C   0  0  1  0  0  0  0  0  0  0  0  0
  -18.1426  -30.8292   18.8044 C   0  0  2  0  0  0  0  0  0  0  0  0
  -19.0447  -31.6208   23.4276 C   0  0  0  0  0  0  0  0  0  0  0  0
  -29.0423  -17.4904   19.9525 C   0  0  0  0  0  0  0  0  0  0  0  0
  -27.8462  -25.0578   21.8295 N   0  0  0  0  0  0  0  0  0  0  0  0
  -26.6806  -10.6386   20.2224 N   0  0  0  0  0  0  0  0  0  0  0  0
  -27.6124  -24.9431   19.4338 N   0  0  0  0  0  0  0  0  0  0  0  0
  -26.9942  -11.1733   19.0300 N   0  0  0  0  0  0  0  0  0  0  0  0
  -22.2520  -32.1099   21.8982 N   0  0  0  0  0  0  0  0  0  0  0  0
  -30.2684  -12.9480   19.8894 N   0  0  0  0  0  0  0  0  0  0  0  0
  -26.1317  -11.5990   16.8653 N   0  0  0  0  0  0  0  0  0  0  0  0
  -22.6984   -9.5564   18.9716 N   0  0  0  0  0  0  0  0  0  0  0  0
  -24.7593  -34.0910   23.6546 N   0  0  0  0  0  0  0  0  0  0  0  0
  -19.0671  -31.5490   20.8981 N   0  0  0  0  0  0  0  0  0  0  0  0
  -29.6684  -15.1376   20.5520 N   0  0  0  0  0  0  0  0  0  0  0  0
  -18.6886  -30.2312   17.5532 N   0  3  0  0  0  0  0  0  0  0  0  0
  -29.8434  -19.5977   21.1204 N   0  3  1  0  0  0  0  0  0  0  0  0
  -23.3776  -10.4872   16.9889 O   0  0  0  0  0  0  0  0  0  0  0  0
  -23.2714  -32.3932   24.2255 O   0  0  0  0  0  0  0  0  0  0  0  0
  -20.5844  -33.7385   21.9527 O   0  0  0  0  0  0  0  0  0  0  0  0
  -19.6914  -29.4746   20.0708 O   0  0  0  0  0  0  0  0  0  0  0  0
  -31.8113  -14.6792   19.8776 O   0  0  0  0  0  0  0  0  0  0  0  0
  -22.6848   -7.7218   24.2318 O   0  0  0  0  0  0  0  0  0  0  0  0
  -26.0925  -27.3618   21.0268 O   0  0  0  0  0  0  0  0  0  1  0  0
  -19.8169   -3.1610   23.0577 F   0  0  0  0  0  0  0  0  0  0  0  0
  -23.2720   -5.3197   25.4678 F   0  0  0  0  0  0  0  0  0  0  0  0
  1  2  1  0  0  0  0
  1  5  2  0  0  0  0
  2  6  2  0  0  0  0
  3  8  2  0  0  0  0
  3 16  1  0  0  0  0
  4  9  1  0  0  0  0
  4 16  2  0  0  0  0
  5 18  1  0  0  0  0
  6 20  1  0  0  0  0
  7 10  2  0  0  0  0
  7 19  1  0  0  0  0
  8 23  1  0  0  0  0
  9 23  2  0  0  0  0
 10 24  1  0  0  0  0
 11 12  2  0  0  0  0
 11 25  1  0  0  0  0
 12 26  1  0  0  0  0
 13 21  1  0  0  0  0
 13 24  2  0  0  0  0
 14 26  2  0  0  0  0
 14 27  1  0  0  0  0
 15 22  1  0  0  0  0
 15 68  2  0  0  0  0
 16 28  1  0  0  0  0
 17 28  1  0  0  0  0
 17 30  2  0  0  0  0
 17 32  1  0  0  0  0
 18 20  2  0  0  0  0
 18 37  1  0  0  0  0
 19 21  2  0  0  0  0
 19 38  1  0  0  0  0
 20 46  1  0  0  0  0
 21 39  1  0  0  0  0
 22 29  2  0  0  0  0
 22 58  1  0  0  0  0
 23 86  1  0  0  0  0
 24 87  1  0  0  0  0
 25 27  2  0  0  0  0
 25 86  1  0  0  0  0
 26 88  1  0  0  0  0
 27 89  1  0  0  0  0
 28 69  2  0  0  0  0
 29 59  1  0  0  0  0
 29 70  1  0  0  0  0
 30 71  1  0  0  0  0
 30 74  1  0  0  0  0
 31 60  1  0  0  0  0
 31 68  1  0  0  0  0
 31 70  2  0  0  0  0
 32 75  1  0  0  0  0
 32 81  2  0  0  0  0
 33 47  1  0  0  0  0
 33 76  1  0  0  0  0
 33 82  2  0  0  0  0
 34 64  1  0  0  0  0
 34 72  1  0  0  0  0
 34 83  2  0  0  0  0
 35 65  1  0  0  0  0
 35 77  1  0  0  0  0
 35 84  2  0  0  0  0
 36 73  1  0  0  0  0
 36 78  1  0  0  0  0
 36 85  2  0  0  0  0
 37 40  1  0  0  0  0
 38 47  1  0  0  0  0
 39 72  1  0  0  0  0
 40 42  1  0  0  0  0
 41 43  1  0  0  0  0
 41 44  1  0  0  0  0
 42 46  1  0  0  0  0
 43 48  1  0  0  0  0
 44 73  1  0  0  0  0
 45 48  1  0  0  0  0
 45 73  1  0  0  0  0
 46 76  1  0  0  0  0
 47 72  1  0  0  0  0
 48 71  1  0  0  0  0
 49 59  1  0  0  0  0
 50 65  1  0  0  0  0
 51 66  1  0  0  0  0
 52 66  1  0  0  0  0
 53 66  1  0  0  0  0
 54 67  1  0  0  0  0
 55 67  1  0  0  0  0
 56 79  1  0  0  0  0
 57 80  1  0  0  0  0
 58 62  1  0  0  0  0
 60 87  1  0  0  0  0
 61 67  1  0  0  0  0
 61 78  1  0  0  0  0
 62 80  1  0  0  0  0
 63 67  1  0  0  0  0
 63 80  1  0  0  0  0
 64 66  1  0  0  0  0
 64 77  1  0  0  0  0
 65 79  1  0  0  0  0
 69 71  1  0  0  0  0
M  CHG  2  79   1  80   1
M  ISO  4  36 100  60 101  78 100  87 101
M  END
> <Batch ID>
0050

> <Smiles>
CCc1nc([101CH2:1][101O:1]c2ccc3c(c2)CN(C(=O)C(NC(=O)C(C)NC)C(C)(C)C)C(C(=O)NC2CCCc4ccccc42)C3)ncc1CCN(C)CC(C)(C)C[100NH:0][100C:0](=O)N1CCCC(n2nc(-c3ccc(Oc4ccc(F)cc4F)cc3)c(C(N)=O)c2N)C1

> <Shape>
0.285

> <Color>
0.074

> <Negative vol penalty>
0.000

$$$$

  -OEChem-04052317313D

 85 93  0     1  0  0  0  0  0999 V2000
  -33.9889  -17.8020   27.5731 C   0  0  0  0  0  0  0  0  0  0  0  0
  -33.4332  -18.2590   26.3824 C   0  0  0  0  0  0  0  0  0  0  0  0
  -23.1167   -9.8813   19.9642 C   0  0  0  0  0  0  0  0  0  0  0  0
  -23.9377   -9.9076   22.2363 C   0  0  0  0  0  0  0  0  0  0  0  0
  -34.2304  -18.6950   28.6163 C   0  0  0  0  0  0  0  0  0  0  0  0
  -33.1177  -19.6092   26.2345 C   0  0  0  0  0  0  0  0  0  0  0  0
  -34.5939  -21.4707   21.7623 C   0  0  0  0  0  0  0  0  0  0  0  0
  -22.4057   -8.7122   20.2346 C   0  0  0  0  0  0  0  0  0  0  0  0
  -23.2266   -8.7385   22.5067 C   0  0  0  0  0  0  0  0  0  0  0  0
  -33.8011  -21.1716   20.6552 C   0  0  0  0  0  0  0  0  0  0  0  0
  -21.3397   -5.9593   23.8975 C   0  0  0  0  0  0  0  0  0  0  0  0
  -20.6164   -5.9002   25.0886 C   0  0  0  0  0  0  0  0  0  0  0  0
  -32.7775  -23.3507   20.8071 C   0  0  0  0  0  0  0  0  0  0  0  0
  -29.8760  -17.7852   18.7855 C   0  0  0  0  0  0  0  0  0  0  0  0
  -19.3097   -7.8085   24.3899 C   0  0  0  0  0  0  0  0  0  0  0  0
  -29.1451  -20.0584   20.1063 C   0  0  0  0  0  0  0  0  0  0  0  0
  -23.8828  -10.4790   20.9651 C   0  0  0  0  0  0  0  0  0  0  0  0
  -24.1649  -13.0110   20.8347 C   0  0  0  0  0  0  0  0  0  0  0  0
  -33.9267  -20.0585   28.4776 C   0  0  0  0  0  0  0  0  0  0  0  0
  -34.4765  -22.7100   22.4079 C   0  0  0  0  0  0  0  0  0  0  0  0
  -33.3542  -20.5211   27.2773 C   0  0  0  0  0  0  0  0  0  0  0  0
  -33.5718  -23.6640   21.9207 C   0  0  0  0  0  0  0  0  0  0  0  0
  -30.0636  -19.0197   18.1738 C   0  0  0  0  0  0  0  0  0  0  0  0
  -29.6938  -20.1828   18.8400 C   0  0  0  0  0  0  0  0  0  0  0  0
  -22.4606   -8.1408   21.5059 C   0  0  0  0  0  0  0  0  0  0  0  0
  -32.8907  -22.1106   20.1792 C   0  0  0  0  0  0  0  0  0  0  0  0
  -21.0482   -6.9431   22.9526 C   0  0  0  0  0  0  0  0  0  0  0  0
  -19.6014   -6.8247   25.3348 C   0  0  0  0  0  0  0  0  0  0  0  0
  -20.0332   -7.8677   23.1988 C   0  0  0  0  0  0  0  0  0  0  0  0
  -24.6179  -11.6865   20.6862 C   0  0  0  0  0  0  0  0  0  0  0  0
  -29.3194  -17.7682   20.0543 C   0  0  0  0  0  0  0  0  0  0  0  0
  -25.2300  -13.7842   20.4419 C   0  0  0  0  0  0  0  0  0  0  0  0
  -22.8950  -13.4989   21.2874 C   0  0  0  0  0  0  0  0  0  0  0  0
  -33.6475  -23.6475   25.3298 C   0  0  0  0  0  0  0  0  0  0  0  0
  -34.5288  -26.5658   24.2212 C   0  0  0  0  0  0  0  0  0  0  0  0
  -35.0153  -28.6208   21.5404 C   0  0  0  0  0  0  0  0  0  0  0  0
  -30.8333  -14.6222   20.9086 C   0  0  0  0  0  0  0  0  0  0  0  0
  -34.1619  -20.9775   29.6501 C   0  0  0  0  0  0  0  0  0  0  0  0
  -35.3580  -23.0273   23.5847 C   0  0  0  0  0  0  0  0  0  0  0  0
  -33.4219  -25.0168   22.5657 C   0  0  0  0  0  0  0  0  0  0  0  0
  -34.1461  -22.4576   29.2767 C   0  0  0  0  0  0  0  0  0  0  0  0
  -29.5439  -12.5465   18.1282 C   0  0  0  0  0  0  0  0  0  0  0  0
  -32.9496  -22.7701   28.3836 C   0  0  0  0  0  0  0  0  0  0  0  0
  -28.1350  -12.1933   18.6018 C   0  0  0  0  0  0  0  0  0  0  0  0
  -30.4933  -12.7823   19.2990 C   0  0  0  0  0  0  0  0  0  0  0  0
  -28.6007  -13.4468   20.7448 C   0  0  0  0  0  0  0  0  0  0  0  0
  -33.0213  -21.9826   27.0697 C   0  0  1  0  0  0  0  0  0  0  0  0
  -34.7894  -24.1254   24.4782 C   0  0  1  0  0  0  0  0  0  0  0  0
  -27.6077  -13.2485   19.5897 C   0  0  2  0  0  0  0  0  0  0  0  0
  -30.2184  -19.4181   14.3368 C   0  0  0  0  0  0  0  0  0  0  0  0
  -28.5273  -22.2579   18.0247 C   0  0  0  0  0  0  0  0  0  0  0  0
  -35.7020  -30.9615   20.9516 C   0  0  0  0  0  0  0  0  0  0  0  0
  -31.7897  -27.5867   25.0959 C   0  0  0  0  0  0  0  0  0  0  0  0
  -32.1612  -29.6048   23.6615 C   0  0  0  0  0  0  0  0  0  0  0  0
  -33.6866  -29.1429   25.5805 C   0  0  0  0  0  0  0  0  0  0  0  0
  -31.2307  -16.8287   21.9347 C   0  0  0  0  0  0  0  0  0  0  0  0
  -37.3471  -27.6696   19.9857 C   0  0  0  0  0  0  0  0  0  0  0  0
  -30.6614  -19.0724   16.8070 C   0  0  0  0  0  0  0  0  0  0  0  0
  -29.1033  -16.4611   20.7411 C   0  0  0  0  0  0  0  0  0  0  0  0
  -29.6031  -19.3311   15.7245 C   0  0  0  0  0  0  0  0  0  0  0  0
  -30.8298  -22.4378   19.0383 C   0  0  0  0  0  0  0  0  0  1  0  0
  -29.8757  -21.5586   18.2185 C   0  0  1  0  0  0  0  0  0  0  0  0
  -33.8250  -27.6969   23.5112 C   0  0  1  0  0  0  0  0  0  0  0  0
  -36.1710  -29.5308   21.1654 C   0  0  2  0  0  0  0  0  0  0  0  0
  -32.8668  -28.4817   24.4511 C   0  0  0  0  0  0  0  0  0  0  0  0
  -28.9477  -18.8768   20.7328 N   0  0  0  0  0  0  0  0  0  0  0  0
  -25.8729  -11.6183   20.2341 N   0  0  0  0  0  0  0  0  0  0  0  0
  -26.2176  -12.9098   20.0951 N   0  0  0  0  0  0  0  0  0  0  0  0
  -34.3015  -25.2773   23.7172 N   0  0  0  0  0  0  0  0  0  0  0  0
  -29.9482  -13.7571   20.2444 N   0  0  0  0  0  0  0  0  0  0  0  0
  -25.4087  -15.1200   20.3626 N   0  0  0  0  0  0  0  0  0  0  0  0
  -21.9130  -12.5678   21.6522 N   0  0  0  0  0  0  0  0  0  0  0  0
  -33.9704  -22.5948   26.1647 N   0  0  0  0  0  0  0  0  0  0  0  0
  -34.8720  -28.5142   22.9076 N   0  0  0  0  0  0  0  0  0  0  0  0
  -30.3472  -15.8920   21.2550 N   0  0  0  0  0  0  0  0  0  0  0  0
  -36.8181  -29.0558   19.9098 N   0  3  0  0  0  0  0  0  0  0  0  0
  -22.6330  -14.7240   21.3505 O   0  0  0  0  0  0  0  0  0  0  0  0
  -32.5547  -24.1943   25.2374 O   0  0  0  0  0  0  0  0  0  0  0  0
  -35.2591  -26.8169   25.1831 O   0  0  0  0  0  0  0  0  0  0  0  0
  -34.3079  -28.0634   20.7040 O   0  0  0  0  0  0  0  0  0  0  0  0
  -31.9949  -14.2826   21.1682 O   0  0  0  0  0  0  0  0  0  0  0  0
  -21.7667   -7.0001   21.7701 O   0  0  0  0  0  0  0  0  0  0  0  0
  -32.1152  -21.8210   19.0991 O   0  0  0  0  0  0  0  0  0  1  0  0
  -18.9057   -6.7668   26.4781 F   0  0  0  0  0  0  0  0  0  0  0  0
  -19.7477   -8.8143   22.2942 F   0  0  0  0  0  0  0  0  0  0  0  0
  1  2  1  0  0  0  0
  1  5  2  0  0  0  0
  2  6  2  0  0  0  0
  3  8  2  0  0  0  0
  3 17  1  0  0  0  0
  4  9  1  0  0  0  0
  4 17  2  0  0  0  0
  5 19  1  0  0  0  0
  6 21  1  0  0  0  0
  7 10  2  0  0  0  0
  7 20  1  0  0  0  0
  8 25  1  0  0  0  0
  9 25  2  0  0  0  0
 10 26  1  0  0  0  0
 11 12  2  0  0  0  0
 11 27  1  0  0  0  0
 12 28  1  0  0  0  0
 13 22  1  0  0  0  0
 13 26  2  0  0  0  0
 14 23  1  0  0  0  0
 14 31  2  0  0  0  0
 15 28  2  0  0  0  0
 15 29  1  0  0  0  0
 16 24  1  0  0  0  0
 16 66  2  0  0  0  0
 17 30  1  0  0  0  0
 18 30  1  0  0  0  0
 18 32  2  0  0  0  0
 18 33  1  0  0  0  0
 19 21  2  0  0  0  0
 19 38  1  0  0  0  0
 20 22  2  0  0  0  0
 20 39  1  0  0  0  0
 21 47  1  0  0  0  0
 22 40  1  0  0  0  0
 23 24  2  0  0  0  0
 23 58  1  0  0  0  0
 24 62  1  0  0  0  0
 25 82  1  0  0  0  0
 26 83  1  0  0  0  0
 27 29  2  0  0  0  0
 27 82  1  0  0  0  0
 28 84  1  0  0  0  0
 29 85  1  0  0  0  0
 30 67  2  0  0  0  0
 31 59  1  0  0  0  0
 31 66  1  0  0  0  0
 32 68  1  0  0  0  0
 32 71  1  0  0  0  0
 33 72  1  0  0  0  0
 33 77  2  0  0  0  0
 34 48  1  0  0  0  0
 34 73  1  0  0  0  0
 34 78  2  0  0  0  0
 35 63  1  0  0  0  0
 35 69  1  0  0  0  0
 35 79  2  0  0  0  0
 36 64  1  0  0  0  0
 36 74  1  0  0  0  0
 36 80  2  0  0  0  0
 37 70  1  0  0  0  0
 37 75  1  0  0  0  0
 37 81  2  0  0  0  0
 38 41  1  0  0  0  0
 39 48  1  0  0  0  0
 40 69  1  0  0  0  0
 41 43  1  0  0  0  0
 42 44  1  0  0  0  0
 42 45  1  0  0  0  0
 43 47  1  0  0  0  0
 44 49  1  0  0  0  0
 45 70  1  0  0  0  0
 46 49  1  0  0  0  0
 46 70  1  0  0  0  0
 47 73  1  0  0  0  0
 48 69  1  0  0  0  0
 49 68  1  0  0  0  0
 50 60  1  0  0  0  0
 51 62  1  0  0  0  0
 52 64  1  0  0  0  0
 53 65  1  0  0  0  0
 54 65  1  0  0  0  0
 55 65  1  0  0  0  0
 56 75  1  0  0  0  0
 57 76  1  0  0  0  0
 58 60  1  0  0  0  0
 59 75  1  0  0  0  0
 61 62  1  0  0  0  0
 61 83  1  0  0  0  0
 63 65  1  0  0  0  0
 63 74  1  0  0  0  0
 64 76  1  0  0  0  0
 67 68  1  0  0  0  0
M  CHG  1  76   1
M  ISO  4  37 100  61 101  75 100  83 101
M  END
> <Batch ID>
0050

> <Smiles>
CCCc1cc(C[100N:0](C)[100C:0](=O)N2CCCC(n3nc(-c4ccc(Oc5ccc(F)cc5F)cc4)c(C(N)=O)c3N)C2)ncc1C(C)[101CH2:1][101O:1]c1ccc2c(c1)CN(C(=O)C(NC(=O)C(C)NC)C(C)(C)C)C(C(=O)NC1CCCc3ccccc31)C2

> <Shape>
0.205

> <Color>
0.174

> <Negative vol penalty>
0.000

$$$$

  -OEChem-04052317312D

  0  0  0     0  0  0  0  0  0999 V2000
M  END
$$$$

  -OEChem-04052317313D

 82 90  0     1  0  0  0  0  0999 V2000
  -18.3787  -21.3175   29.8683 C   0  0  0  0  0  0  0  0  0  0  0  0
  -19.1239  -21.1781   28.7018 C   0  0  0  0  0  0  0  0  0  0  0  0
  -23.0532   -9.9214   19.9199 C   0  0  0  0  0  0  0  0  0  0  0  0
  -24.1170   -9.7372   22.0812 C   0  0  0  0  0  0  0  0  0  0  0  0
  -17.4401  -22.3429   29.9760 C   0  0  0  0  0  0  0  0  0  0  0  0
  -18.9302  -22.0633   27.6420 C   0  0  0  0  0  0  0  0  0  0  0  0
  -23.2913  -23.6849   25.6430 C   0  0  0  0  0  0  0  0  0  0  0  0
  -22.3840   -8.7188   20.1467 C   0  0  0  0  0  0  0  0  0  0  0  0
  -23.4478   -8.5346   22.3081 C   0  0  0  0  0  0  0  0  0  0  0  0
  -23.9607  -22.8143   24.7841 C   0  0  0  0  0  0  0  0  0  0  0  0
  -20.3559   -7.5453   23.2474 C   0  0  0  0  0  0  0  0  0  0  0  0
  -19.7665   -7.3592   24.4978 C   0  0  0  0  0  0  0  0  0  0  0  0
  -23.0737  -24.0129   22.8878 C   0  0  0  0  0  0  0  0  0  0  0  0
  -21.1522   -5.4138   24.8616 C   0  0  0  0  0  0  0  0  0  0  0  0
  -27.3470  -20.1850   20.2821 C   0  0  0  0  0  0  0  0  0  0  0  0
  -25.6882  -18.9391   21.9625 C   0  0  0  0  0  0  0  0  0  0  0  0
  -23.9198  -10.4306   20.8871 C   0  0  0  0  0  0  0  0  0  0  0  0
  -24.1686  -12.9677   20.9818 C   0  0  0  0  0  0  0  0  0  0  0  0
  -17.2416  -23.2470   28.9206 C   0  0  0  0  0  0  0  0  0  0  0  0
  -22.4980  -24.7211   25.1299 C   0  0  0  0  0  0  0  0  0  0  0  0
  -17.9871  -23.1008   27.7352 C   0  0  0  0  0  0  0  0  0  0  0  0
  -22.3974  -24.8968   23.7424 C   0  0  0  0  0  0  0  0  0  0  0  0
  -22.5813   -8.0254   21.3408 C   0  0  0  0  0  0  0  0  0  0  0  0
  -23.8496  -22.9764   23.4062 C   0  0  0  0  0  0  0  0  0  0  0  0
  -21.3435   -6.6655   22.8040 C   0  0  0  0  0  0  0  0  0  0  0  0
  -20.1647   -6.2936   25.3049 C   0  0  0  0  0  0  0  0  0  0  0  0
  -21.7416   -5.5998   23.6111 C   0  0  0  0  0  0  0  0  0  0  0  0
  -24.6118  -11.6726   20.6531 C   0  0  0  0  0  0  0  0  0  0  0  0
  -27.0967  -18.8356   20.1639 C   0  0  0  0  0  0  0  0  0  0  0  0
  -25.9391  -20.2884   22.0813 C   0  0  0  0  0  0  0  0  0  0  0  0
  -25.1790  -13.7948   20.5559 C   0  0  0  0  0  0  0  0  0  0  0  0
  -22.9523  -13.3857   21.6156 C   0  0  0  0  0  0  0  0  0  0  0  0
  -19.4143  -25.4751   25.2900 C   0  0  0  0  0  0  0  0  0  0  0  0
  -20.3882  -28.1513   23.7370 C   0  0  0  0  0  0  0  0  0  0  0  0
  -22.6971  -29.6537   21.7226 C   0  0  0  0  0  0  0  0  0  0  0  0
  -30.7939  -14.6819   20.4970 C   0  0  0  0  0  0  0  0  0  0  0  0
  -16.1820  -24.3105   29.0654 C   0  0  0  0  0  0  0  0  0  0  0  0
  -21.8039  -25.6681   26.0700 C   0  0  0  0  0  0  0  0  0  0  0  0
  -21.5746  -26.0059   23.1412 C   0  0  0  0  0  0  0  0  0  0  0  0
  -16.3033  -25.4347   28.0399 C   0  0  0  0  0  0  0  0  0  0  0  0
  -29.2231  -12.8691   17.6778 C   0  0  0  0  0  0  0  0  0  0  0  0
  -16.5202  -24.8618   26.6429 C   0  0  0  0  0  0  0  0  0  0  0  0
  -27.8767  -12.4458   18.2628 C   0  0  0  0  0  0  0  0  0  0  0  0
  -30.2929  -13.0047   18.7570 C   0  0  0  0  0  0  0  0  0  0  0  0
  -28.5649  -13.4890   20.4580 C   0  0  0  0  0  0  0  0  0  0  0  0
  -17.8232  -24.0563   26.5731 C   0  0  1  0  0  0  0  0  0  0  0  0
  -20.6100  -26.3734   25.4340 C   0  0  1  0  0  0  0  0  0  0  0  0
  -27.4532  -13.3884   19.4027 C   0  0  2  0  0  0  0  0  0  0  0  0
  -23.2032  -31.8372   20.5939 C   0  0  0  0  0  0  0  0  0  0  0  0
  -18.2579  -27.5558   21.6353 C   0  0  0  0  0  0  0  0  0  0  0  0
  -19.4171  -29.1636   20.1057 C   0  0  0  0  0  0  0  0  0  0  0  0
  -18.4581  -29.9683   22.2633 C   0  0  0  0  0  0  0  0  0  0  0  0
  -31.2857  -16.7827   21.6904 C   0  0  0  0  0  0  0  0  0  0  0  0
  -25.2392  -29.9642   23.2060 C   0  0  0  0  0  0  0  0  0  0  0  0
  -27.7487  -18.0371   19.0898 C   0  0  0  0  0  0  0  0  0  0  0  0
  -25.2816  -21.0932   23.1635 C   0  0  0  0  0  0  0  0  0  1  0  0
  -29.1050  -17.4177   19.4855 C   0  0  0  0  0  0  0  0  0  0  0  0
  -29.0433  -16.4973   20.7026 C   0  0  0  0  0  0  0  0  0  0  0  0
  -20.5498  -28.5484   22.2896 C   0  0  1  0  0  0  0  0  0  0  0  0
  -23.4179  -30.9851   21.8351 C   0  0  2  0  0  0  0  0  0  0  0  0
  -19.1847  -28.7868   21.5845 C   0  0  0  0  0  0  0  0  0  0  0  0
  -26.2626  -18.1885   21.0017 N   0  0  0  0  0  0  0  0  0  0  0  0
  -26.7729  -20.9355   21.2431 N   0  0  0  0  0  0  0  0  0  0  0  0
  -25.8103  -11.6719   20.0637 N   0  0  0  0  0  0  0  0  0  0  0  0
  -26.1289  -12.9767   20.0186 N   0  0  0  0  0  0  0  0  0  0  0  0
  -20.9098  -26.9020   24.1017 N   0  0  0  0  0  0  0  0  0  0  0  0
  -29.8476  -13.8712   19.8488 N   0  0  0  0  0  0  0  0  0  0  0  0
  -25.3388  -15.1348   20.5923 N   0  0  0  0  0  0  0  0  0  0  0  0
  -22.0224  -12.4058   21.9889 N   0  0  0  0  0  0  0  0  0  0  0  0
  -18.9622  -24.9445   26.4832 N   0  0  0  0  0  0  0  0  0  0  0  0
  -21.4373  -29.7062   22.2806 N   0  0  0  0  0  0  0  0  0  0  0  0
  -30.3398  -15.9023   21.0195 N   0  0  0  0  0  0  0  0  0  0  0  0
  -24.8820  -30.7684   22.0090 N   0  3  0  0  0  0  0  0  0  0  0  0
  -22.6904  -14.5937   21.8292 O   0  0  0  0  0  0  0  0  0  0  0  0
  -18.9362  -25.2790   24.1788 O   0  0  0  0  0  0  0  0  0  0  0  0
  -19.8263  -28.9243   24.5170 O   0  0  0  0  0  0  0  0  0  0  0  0
  -23.1999  -28.6671   21.1894 O   0  0  0  0  0  0  0  0  0  0  0  0
  -31.9791  -14.3389   20.5943 O   0  0  0  0  0  0  0  0  0  0  0  0
  -21.9282   -6.8520   21.5626 O   0  0  0  0  0  0  0  0  0  0  0  0
  -24.5014  -22.1277   22.5656 O   0  0  0  0  0  0  0  0  0  1  0  0
  -19.5996   -6.1160   26.5063 F   0  0  0  0  0  0  0  0  0  0  0  0
  -22.6907   -4.7521   23.1911 F   0  0  0  0  0  0  0  0  0  0  0  0
  1  2  1  0  0  0  0
  1  5  2  0  0  0  0
  2  6  2  0  0  0  0
  3  8  2  0  0  0  0
  3 17  1  0  0  0  0
  4  9  1  0  0  0  0
  4 17  2  0  0  0  0
  5 19  1  0  0  0  0
  6 21  1  0  0  0  0
  7 10  2  0  0  0  0
  7 20  1  0  0  0  0
  8 23  1  0  0  0  0
  9 23  2  0  0  0  0
 10 24  1  0  0  0  0
 11 12  2  0  0  0  0
 11 25  1  0  0  0  0
 12 26  1  0  0  0  0
 13 22  1  0  0  0  0
 13 24  2  0  0  0  0
 14 26  2  0  0  0  0
 14 27  1  0  0  0  0
 15 29  2  0  0  0  0
 15 63  1  0  0  0  0
 16 30  1  0  0  0  0
 16 62  2  0  0  0  0
 17 28  1  0  0  0  0
 18 28  1  0  0  0  0
 18 31  2  0  0  0  0
 18 32  1  0  0  0  0
 19 21  2  0  0  0  0
 19 37  1  0  0  0  0
 20 22  2  0  0  0  0
 20 38  1  0  0  0  0
 21 46  1  0  0  0  0
 22 39  1  0  0  0  0
 23 79  1  0  0  0  0
 24 80  1  0  0  0  0
 25 27  2  0  0  0  0
 25 79  1  0  0  0  0
 26 81  1  0  0  0  0
 27 82  1  0  0  0  0
 28 64  2  0  0  0  0
 29 55  1  0  0  0  0
 29 62  1  0  0  0  0
 30 56  1  0  0  0  0
 30 63  2  0  0  0  0
 31 65  1  0  0  0  0
 31 68  1  0  0  0  0
 32 69  1  0  0  0  0
 32 74  2  0  0  0  0
 33 47  1  0  0  0  0
 33 70  1  0  0  0  0
 33 75  2  0  0  0  0
 34 59  1  0  0  0  0
 34 66  1  0  0  0  0
 34 76  2  0  0  0  0
 35 60  1  0  0  0  0
 35 71  1  0  0  0  0
 35 77  2  0  0  0  0
 36 67  1  0  0  0  0
 36 72  1  0  0  0  0
 36 78  2  0  0  0  0
 37 40  1  0  0  0  0
 38 47  1  0  0  0  0
 39 66  1  0  0  0  0
 40 42  1  0  0  0  0
 41 43  1  0  0  0  0
 41 44  1  0  0  0  0
 42 46  1  0  0  0  0
 43 48  1  0  0  0  0
 44 67  1  0  0  0  0
 45 48  1  0  0  0  0
 45 67  1  0  0  0  0
 46 70  1  0  0  0  0
 47 66  1  0  0  0  0
 48 65  1  0  0  0  0
 49 60  1  0  0  0  0
 50 61  1  0  0  0  0
 51 61  1  0  0  0  0
 52 61  1  0  0  0  0
 53 72  1  0  0  0  0
 54 73  1  0  0  0  0
 55 57  1  0  0  0  0
 56 80  1  0  0  0  0
 57 58  1  0  0  0  0
 58 72  1  0  0  0  0
 59 61  1  0  0  0  0
 59 71  1  0  0  0  0
 60 73  1  0  0  0  0
 64 65  1  0  0  0  0
M  CHG  1  73   1
M  ISO  4  36 100  56 101  72 100  80 101
M  END
> <Batch ID>
0050

> <Smiles>
CNC(C)C(=O)NC(C(=O)N1Cc2cc([101O:1][101CH2:1]c3cnc(CCC[100N:0](C)[100C:0](=O)N4CCCC(n5nc(-c6ccc(Oc7ccc(F)cc7F)cc6)c(C(N)=O)c5N)C4)cn3)ccc2CC1C(=O)NC1CCCc2ccccc21)C(C)(C)C

> <Shape>
0.283

> <Color>
0.191

> <Negative vol penalty>
0.000

$$$$

  -OEChem-04052317313D

 80 88  0     1  0  0  0  0  0999 V2000
  -18.0835  -27.0845   22.7877 C   0  0  0  0  0  0  0  0  0  0  0  0
  -18.6706  -26.6833   21.5920 C   0  0  0  0  0  0  0  0  0  0  0  0
  -24.0282  -13.9838   21.4157 C   0  0  0  0  0  0  0  0  0  0  0  0
  -25.0089  -14.1054   19.2111 C   0  0  0  0  0  0  0  0  0  0  0  0
  -18.8299  -27.7981   23.7245 C   0  0  0  0  0  0  0  0  0  0  0  0
  -20.0043  -26.9965   21.3319 C   0  0  0  0  0  0  0  0  0  0  0  0
  -22.5869  -23.0741   19.4371 C   0  0  0  0  0  0  0  0  0  0  0  0
  -24.3259  -12.6223   21.4731 C   0  0  0  0  0  0  0  0  0  0  0  0
  -25.3066  -12.7439   19.2684 C   0  0  0  0  0  0  0  0  0  0  0  0
  -22.3999  -22.7812   18.0870 C   0  0  0  0  0  0  0  0  0  0  0  0
  -23.0470   -9.7401   20.2559 C   0  0  0  0  0  0  0  0  0  0  0  0
  -22.0538   -8.8794   20.7232 C   0  0  0  0  0  0  0  0  0  0  0  0
  -24.4619  -23.9173   17.5611 C   0  0  0  0  0  0  0  0  0  0  0  0
  -23.5089   -8.1754   22.5189 C   0  0  0  0  0  0  0  0  0  0  0  0
  -23.0174  -19.1817   13.1562 C   0  0  0  0  0  0  0  0  0  0  0  0
  -24.3697  -14.7253   20.2847 C   0  0  0  0  0  0  0  0  0  0  0  0
  -24.8773  -17.1991   20.6460 C   0  0  0  0  0  0  0  0  0  0  0  0
  -20.1761  -28.1118   23.4799 C   0  0  0  0  0  0  0  0  0  0  0  0
  -23.7092  -23.8015   19.8588 C   0  0  0  0  0  0  0  0  0  0  0  0
  -20.7690  -27.7161   22.2657 C   0  0  0  0  0  0  0  0  0  0  0  0
  -24.6622  -24.2160   18.9174 C   0  0  0  0  0  0  0  0  0  0  0  0
  -24.9651  -12.0023   20.3995 C   0  0  0  0  0  0  0  0  0  0  0  0
  -23.3360  -23.2052   17.1483 C   0  0  0  0  0  0  0  0  0  0  0  0
  -24.2712   -9.8183   20.9199 C   0  0  0  0  0  0  0  0  0  0  0  0
  -22.2847   -8.0971   21.8547 C   0  0  0  0  0  0  0  0  0  0  0  0
  -24.5021   -9.0360   22.0514 C   0  0  0  0  0  0  0  0  0  0  0  0
  -24.0619  -16.1317   20.2246 C   0  0  0  0  0  0  0  0  0  0  0  0
  -22.0267  -20.0093   13.6254 C   0  0  0  0  0  0  0  0  0  0  0  0
  -24.0489  -20.0553   12.7631 C   0  0  0  0  0  0  0  0  0  0  0  0
  -24.1364  -18.3240   20.3775 C   0  0  0  0  0  0  0  0  0  0  0  0
  -26.1875  -17.1759   21.2280 C   0  0  0  0  0  0  0  0  0  0  0  0
  -24.1570  -26.5953   21.3074 C   0  0  0  0  0  0  0  0  0  0  0  0
  -27.2567  -25.6396   21.3403 C   0  0  0  0  0  0  0  0  0  0  0  0
  -29.7058  -23.7020   19.9640 C   0  0  0  0  0  0  0  0  0  0  0  0
  -19.7546  -19.4823   16.4648 C   0  0  0  0  0  0  0  0  0  0  0  0
  -20.9291  -28.9260   24.5021 C   0  0  0  0  0  0  0  0  0  0  0  0
  -23.9100  -24.0863   21.3220 C   0  0  0  0  0  0  0  0  0  0  0  0
  -25.8944  -24.9822   19.3210 C   0  0  0  0  0  0  0  0  0  0  0  0
  -22.4433  -28.8927   24.3119 C   0  0  0  0  0  0  0  0  0  0  0  0
  -19.6086  -19.8247   20.0057 C   0  0  0  0  0  0  0  0  0  0  0  0
  -22.8025  -29.1206   22.8470 C   0  0  0  0  0  0  0  0  0  0  0  0
  -20.8070  -19.0134   20.5014 C   0  0  0  0  0  0  0  0  0  0  0  0
  -18.9527  -19.1764   18.7886 C   0  0  0  0  0  0  0  0  0  0  0  0
  -21.0687  -18.0770   18.1661 C   0  0  0  0  0  0  0  0  0  0  0  0
  -22.2201  -28.0153   21.9578 C   0  0  1  0  0  0  0  0  0  0  0  0
  -24.8272  -25.2781   21.5784 C   0  0  1  0  0  0  0  0  0  0  0  0
  -21.7974  -18.7206   19.3583 C   0  0  2  0  0  0  0  0  0  0  0  0
  -32.1472  -23.1639   20.1816 C   0  0  0  0  0  0  0  0  0  0  0  0
  -27.9578  -28.2910   20.0029 C   0  0  0  0  0  0  0  0  0  0  0  0
  -30.1824  -27.3163   19.3952 C   0  0  0  0  0  0  0  0  0  0  0  0
  -29.5486  -27.5733   21.7941 C   0  0  0  0  0  0  0  0  0  0  0  0
  -29.1453  -20.8544   20.5433 C   0  0  0  0  0  0  0  0  0  0  0  0
  -20.6935  -19.7077   14.1786 C   0  0  0  0  0  0  0  0  0  0  0  0
  -21.8011  -22.5600   13.8634 C   0  0  0  0  0  0  0  0  0  0  0  0
  -21.8101  -22.8094   15.3677 C   0  0  0  0  0  0  0  0  0  1  0  0
  -28.4300  -25.7842   20.4015 C   0  0  1  0  0  0  0  0  0  0  0  0
  -30.7346  -22.7806   20.5942 C   0  0  2  0  0  0  0  0  0  0  0  0
  -29.0056  -27.2285   20.3903 C   0  0  0  0  0  0  0  0  0  0  0  0
  -22.8924  -16.5417   19.7265 N   0  0  0  0  0  0  0  0  0  0  0  0
  -23.7419  -21.3394   12.9648 N   0  0  0  0  0  0  0  0  0  0  0  0
  -22.5063  -21.2788   13.4897 N   0  0  0  0  0  0  0  0  0  0  0  0
  -22.9676  -17.8793   19.8332 N   0  0  0  0  0  0  0  0  0  0  0  0
  -26.0427  -25.2416   20.7626 N   0  0  0  0  0  0  0  0  0  0  0  0
  -19.9455  -18.9267   17.7407 N   0  0  0  0  0  0  0  0  0  0  0  0
  -24.3771  -19.6402   20.5564 N   0  0  0  0  0  0  0  0  0  0  0  0
  -26.8047  -15.9347   21.4349 N   0  0  0  0  0  0  0  0  0  0  0  0
  -23.0180  -26.8121   22.0592 N   0  0  0  0  0  0  0  0  0  0  0  0
  -29.3931  -24.7601   20.7912 N   0  0  0  0  0  0  0  0  0  0  0  0
  -20.7457  -19.2019   15.5322 N   0  0  0  0  0  0  0  0  0  0  0  0
  -30.4900  -21.3703   20.1792 N   0  3  0  0  0  0  0  0  0  0  0  0
  -26.7861  -18.2238   21.5699 O   0  0  0  0  0  0  0  0  0  0  0  0
  -24.6384  -27.3589   20.4787 O   0  0  0  0  0  0  0  0  0  0  0  0
  -27.4133  -25.8645   22.5430 O   0  0  0  0  0  0  0  0  0  0  0  0
  -29.2302  -23.5051   18.8480 O   0  0  0  0  0  0  0  0  0  0  0  0
  -18.7763  -20.1812   16.1796 O   0  0  0  0  0  0  0  0  0  0  0  0
  -25.2559  -10.6738   20.4552 O   0  0  0  0  0  0  0  0  0  0  0  0
  -23.1556  -22.9212   15.8298 O   0  0  0  0  0  0  0  0  0  1  0  0
  -21.3303   -7.2718   22.3043 F   0  0  0  0  0  0  0  0  0  0  0  0
  -25.6757   -9.1077   22.6943 F   0  0  0  0  0  0  0  0  0  0  0  0
  -25.5409  -19.6007   12.1013 Cl  0  0  0  0  0  0  0  0  0  0  0  0
  1  2  1  0  0  0  0
  1  5  2  0  0  0  0
  2  6  2  0  0  0  0
  3  8  2  0  0  0  0
  3 16  1  0  0  0  0
  4  9  1  0  0  0  0
  4 16  2  0  0  0  0
  5 18  1  0  0  0  0
  6 20  1  0  0  0  0
  7 10  2  0  0  0  0
  7 19  1  0  0  0  0
  8 22  1  0  0  0  0
  9 22  2  0  0  0  0
 10 23  1  0  0  0  0
 11 12  2  0  0  0  0
 11 24  1  0  0  0  0
 12 25  1  0  0  0  0
 13 21  1  0  0  0  0
 13 23  2  0  0  0  0
 14 25  2  0  0  0  0
 14 26  1  0  0  0  0
 15 28  2  0  0  0  0
 15 29  1  0  0  0  0
 16 27  1  0  0  0  0
 17 27  1  0  0  0  0
 17 30  2  0  0  0  0
 17 31  1  0  0  0  0
 18 20  2  0  0  0  0
 18 36  1  0  0  0  0
 19 21  2  0  0  0  0
 19 37  1  0  0  0  0
 20 45  1  0  0  0  0
 21 38  1  0  0  0  0
 22 76  1  0  0  0  0
 23 77  1  0  0  0  0
 24 26  2  0  0  0  0
 24 76  1  0  0  0  0
 25 78  1  0  0  0  0
 26 79  1  0  0  0  0
 27 59  2  0  0  0  0
 28 53  1  0  0  0  0
 28 61  1  0  0  0  0
 29 60  2  0  0  0  0
 29 80  1  0  0  0  0
 30 62  1  0  0  0  0
 30 65  1  0  0  0  0
 31 66  1  0  0  0  0
 31 71  2  0  0  0  0
 32 46  1  0  0  0  0
 32 67  1  0  0  0  0
 32 72  2  0  0  0  0
 33 56  1  0  0  0  0
 33 63  1  0  0  0  0
 33 73  2  0  0  0  0
 34 57  1  0  0  0  0
 34 68  1  0  0  0  0
 34 74  2  0  0  0  0
 35 64  1  0  0  0  0
 35 69  1  0  0  0  0
 35 75  2  0  0  0  0
 36 39  1  0  0  0  0
 37 46  1  0  0  0  0
 38 63  1  0  0  0  0
 39 41  1  0  0  0  0
 40 42  1  0  0  0  0
 40 43  1  0  0  0  0
 41 45  1  0  0  0  0
 42 47  1  0  0  0  0
 43 64  1  0  0  0  0
 44 47  1  0  0  0  0
 44 64  1  0  0  0  0
 45 67  1  0  0  0  0
 46 63  1  0  0  0  0
 47 62  1  0  0  0  0
 48 57  1  0  0  0  0
 49 58  1  0  0  0  0
 50 58  1  0  0  0  0
 51 58  1  0  0  0  0
 52 70  1  0  0  0  0
 53 69  1  0  0  0  0
 54 55  1  0  0  0  0
 54 61  1  0  0  0  0
 55 77  1  0  0  0  0
 56 58  1  0  0  0  0
 56 68  1  0  0  0  0
 57 70  1  0  0  0  0
 59 62  1  0  0  0  0
 60 61  1  0  0  0  0
M  CHG  1  70   1
M  ISO  4  35 100  55 101  69 100  77 101
M  END
> <Batch ID>
0050

> <Smiles>
CNC(C)C(=O)NC(C(=O)N1Cc2cc([101O:1][101CH2:1]Cn3nc(Cl)cc3C[100NH:0][100C:0](=O)N3CCCC(n4nc(-c5ccc(Oc6ccc(F)cc6F)cc5)c(C(N)=O)c4N)C3)ccc2CC1C(=O)NC1CCCc2ccccc21)C(C)(C)C

> <Shape>
0.193

> <Color>
0.062

> <Negative vol penalty>
0.000

$$$$

  -OEChem-04052317313D

 88 96  0     1  0  0  0  0  0999 V2000
  -28.6411  -26.8959   19.8230 C   0  0  0  0  0  0  0  0  0  0  0  0
  -27.7289  -25.8471   19.8530 C   0  0  0  0  0  0  0  0  0  0  0  0
  -24.8880  -29.3958   21.4218 C   0  0  0  0  0  0  0  0  0  0  0  0
  -23.4735  -30.8378   20.0963 C   0  0  0  0  0  0  0  0  0  0  0  0
  -29.9301  -26.6799   19.3403 C   0  0  0  0  0  0  0  0  0  0  0  0
  -28.1089  -24.5793   19.4115 C   0  0  0  0  0  0  0  0  0  0  0  0
  -24.8959  -20.9175   20.0981 C   0  0  0  0  0  0  0  0  0  0  0  0
  -25.4989  -30.5150   21.9874 C   0  0  0  0  0  0  0  0  0  0  0  0
  -24.0844  -31.9570   20.6619 C   0  0  0  0  0  0  0  0  0  0  0  0
  -23.7189  -20.7992   19.3602 C   0  0  0  0  0  0  0  0  0  0  0  0
  -27.1821  -32.9930   24.0467 C   0  0  0  0  0  0  0  0  0  0  0  0
  -27.3830  -32.9940   25.4270 C   0  0  0  0  0  0  0  0  0  0  0  0
  -24.7256  -19.0438   18.0471 C   0  0  0  0  0  0  0  0  0  0  0  0
  -25.0010  -32.7876   25.7739 C   0  0  0  0  0  0  0  0  0  0  0  0
  -23.8753  -29.5573   20.4762 C   0  0  0  0  0  0  0  0  0  0  0  0
  -22.1064  -27.7225   20.3662 C   0  0  0  0  0  0  0  0  0  0  0  0
  -30.3214  -25.4114   18.8812 C   0  0  0  0  0  0  0  0  0  0  0  0
  -26.0022  -20.1059   19.8084 C   0  0  0  0  0  0  0  0  0  0  0  0
  -29.4127  -24.3354   18.9431 C   0  0  0  0  0  0  0  0  0  0  0  0
  -25.9146  -19.1519   18.7845 C   0  0  0  0  0  0  0  0  0  0  0  0
  -25.0971  -31.7955   21.6075 C   0  0  0  0  0  0  0  0  0  0  0  0
  -23.6346  -19.8643   18.3326 C   0  0  0  0  0  0  0  0  0  0  0  0
  -25.8906  -32.8894   23.5300 C   0  0  0  0  0  0  0  0  0  0  0  0
  -26.2925  -32.8913   26.2906 C   0  0  0  0  0  0  0  0  0  0  0  0
  -24.8000  -32.7867   24.3936 C   0  0  0  0  0  0  0  0  0  0  0  0
  -23.2443  -28.4016   19.8911 C   0  0  0  0  0  0  0  0  0  0  0  0
  -20.2339  -20.3142   17.0756 C   0  0  0  0  0  0  0  0  0  0  0  0
  -20.0510  -20.6474   15.7543 C   0  0  0  0  0  0  0  0  0  0  0  0
  -21.9124  -26.7048   19.4645 C   0  0  0  0  0  0  0  0  0  0  0  0
  -18.3248  -19.5328   16.5510 C   0  0  0  0  0  0  0  0  0  0  0  0
  -21.2970  -27.9880   21.5196 C   0  0  0  0  0  0  0  0  0  0  0  0
  -28.9831  -20.6384   18.8416 C   0  0  0  0  0  0  0  0  0  0  0  0
  -29.2951  -17.4456   19.3218 C   0  0  0  0  0  0  0  0  0  0  0  0
  -27.7947  -14.3880   19.5382 C   0  0  0  0  0  0  0  0  0  0  0  0
  -21.5605  -24.9276   14.3007 C   0  0  0  0  0  0  0  0  0  0  0  0
  -31.7314  -25.2315   18.3764 C   0  0  0  0  0  0  0  0  0  0  0  0
  -27.2555  -20.2274   20.6312 C   0  0  0  0  0  0  0  0  0  0  0  0
  -27.0670  -18.2427   18.4470 C   0  0  0  0  0  0  0  0  0  0  0  0
  -31.9023  -23.9783   17.5240 C   0  0  0  0  0  0  0  0  0  0  0  0
  -24.8792  -24.9906   15.7428 C   0  0  0  0  0  0  0  0  0  0  0  0
  -31.3047  -22.7768   18.2407 C   0  0  0  0  0  0  0  0  0  0  0  0
  -24.6494  -25.8341   16.9981 C   0  0  0  0  0  0  0  0  0  0  0  0
  -24.0477  -25.5048   14.5714 C   0  0  0  0  0  0  0  0  0  0  0  0
  -22.3537  -26.4364   16.0998 C   0  0  0  0  0  0  0  0  0  0  0  0
  -29.7942  -22.9551   18.4396 C   0  0  1  0  0  0  0  0  0  0  0  0
  -28.4952  -19.7040   19.9124 C   0  0  1  0  0  0  0  0  0  0  0  0
  -23.1493  -25.9535   17.3261 C   0  0  2  0  0  0  0  0  0  0  0  0
  -16.9451  -17.6765   17.5188 C   0  0  0  0  0  0  0  0  0  0  0  0
  -28.3144  -11.9600   19.9015 C   0  0  0  0  0  0  0  0  0  0  0  0
  -30.3444  -17.2449   16.4637 C   0  0  0  0  0  0  0  0  0  0  0  0
  -29.9433  -14.7757   16.5638 C   0  0  0  0  0  0  0  0  0  0  0  0
  -31.5720  -15.8374   18.1268 C   0  0  0  0  0  0  0  0  0  0  0  0
  -22.2298  -22.4701   10.5379 C   0  0  0  0  0  0  0  0  0  0  0  0
  -20.2790  -21.1894   11.4158 C   0  0  0  0  0  0  0  0  0  0  0  0
  -18.1728  -20.2317   14.1450 C   0  0  0  0  0  0  0  0  0  0  0  0
  -26.1367  -14.2801   21.9873 C   0  0  0  0  0  0  0  0  0  0  0  0
  -22.4064  -19.4287   14.4308 C   0  0  0  0  0  0  0  0  0  0  0  0
  -21.4088  -20.6143   17.9593 C   0  0  0  0  0  0  0  0  0  1  0  0
  -20.9013  -21.3783   14.7976 C   0  0  0  0  0  0  0  0  0  0  0  0
  -17.0019  -18.8749   16.5664 C   0  0  0  0  0  0  0  0  0  0  0  0
  -20.9162  -23.4036   12.4515 C   0  0  0  0  0  0  0  0  0  0  0  0
  -22.3634  -21.2960   12.7836 C   0  0  0  0  0  0  0  0  0  0  0  0
  -29.0959  -16.2124   18.4740 C   0  0  1  0  0  0  0  0  0  0  0  0
  -27.9227  -13.2733   20.5607 C   0  0  2  0  0  0  0  0  0  0  0  0
  -30.2177  -16.0359   17.4119 C   0  0  0  0  0  0  0  0  0  0  0  0
  -21.4583  -22.0989   11.8211 C   0  0  0  0  0  0  0  0  0  0  0  0
  -23.7386  -27.8608   18.7743 N   0  0  0  0  0  0  0  0  0  0  0  0
  -19.1560  -19.6203   17.5656 N   0  0  0  0  0  0  0  0  0  0  0  0
  -18.8239  -20.1398   15.4321 N   0  0  0  0  0  0  0  0  0  0  0  0
  -22.9074  -26.8310   18.5403 N   0  0  0  0  0  0  0  0  0  0  0  0
  -28.2729  -18.4041   19.2760 N   0  0  0  0  0  0  0  0  0  0  0  0
  -22.6276  -25.5771   14.9432 N   0  0  0  0  0  0  0  0  0  0  0  0
  -20.9896  -25.7231   19.3800 N   0  0  0  0  0  0  0  0  0  0  0  0
  -21.6368  -29.0731   22.3389 N   0  0  0  0  0  0  0  0  0  0  0  0
  -29.3038  -21.9017   19.3007 N   0  0  0  0  0  0  0  0  0  0  0  0
  -28.9711  -15.0943   19.4028 N   0  0  0  0  0  0  0  0  0  0  0  0
  -21.9041  -24.1384   13.2100 N   0  0  0  0  0  0  0  0  0  0  0  0
  -26.6295  -13.0738   21.2740 N   0  3  0  0  0  0  0  0  0  0  0  0
  -21.5721  -20.5024   13.7871 N   0  3  1  0  0  0  0  0  0  0  0  0
  -20.3116  -27.2738   21.8239 O   0  0  0  0  0  0  0  0  0  0  0  0
  -29.0640  -20.2421   17.6849 O   0  0  0  0  0  0  0  0  0  0  0  0
  -30.3166  -17.5510   20.0052 O   0  0  0  0  0  0  0  0  0  0  0  0
  -26.7562  -14.6077   18.9187 O   0  0  0  0  0  0  0  0  0  0  0  0
  -20.3879  -25.0385   14.6749 O   0  0  0  0  0  0  0  0  0  0  0  0
  -25.6928  -32.8878   22.1594 O   0  0  0  0  0  0  0  0  0  0  0  0
  -22.4872  -19.7473   17.6104 O   0  0  0  0  0  0  0  0  0  1  0  0
  -26.4857  -32.8907   27.6161 F   0  0  0  0  0  0  0  0  0  0  0  0
  -23.5571  -32.6856   23.9031 F   0  0  0  0  0  0  0  0  0  0  0  0
  1  2  1  0  0  0  0
  1  5  2  0  0  0  0
  2  6  2  0  0  0  0
  3  8  2  0  0  0  0
  3 15  1  0  0  0  0
  4  9  1  0  0  0  0
  4 15  2  0  0  0  0
  5 17  1  0  0  0  0
  6 19  1  0  0  0  0
  7 10  2  0  0  0  0
  7 18  1  0  0  0  0
  8 21  1  0  0  0  0
  9 21  2  0  0  0  0
 10 22  1  0  0  0  0
 11 12  2  0  0  0  0
 11 23  1  0  0  0  0
 12 24  1  0  0  0  0
 13 20  1  0  0  0  0
 13 22  2  0  0  0  0
 14 24  2  0  0  0  0
 14 25  1  0  0  0  0
 15 26  1  0  0  0  0
 16 26  1  0  0  0  0
 16 29  2  0  0  0  0
 16 31  1  0  0  0  0
 17 19  2  0  0  0  0
 17 36  1  0  0  0  0
 18 20  2  0  0  0  0
 18 37  1  0  0  0  0
 19 45  1  0  0  0  0
 20 38  1  0  0  0  0
 21 85  1  0  0  0  0
 22 86  1  0  0  0  0
 23 25  2  0  0  0  0
 23 85  1  0  0  0  0
 24 87  1  0  0  0  0
 25 88  1  0  0  0  0
 26 67  2  0  0  0  0
 27 28  2  0  0  0  0
 27 58  1  0  0  0  0
 27 68  1  0  0  0  0
 28 59  1  0  0  0  0
 28 69  1  0  0  0  0
 29 70  1  0  0  0  0
 29 73  1  0  0  0  0
 30 60  1  0  0  0  0
 30 68  2  0  0  0  0
 30 69  1  0  0  0  0
 31 74  1  0  0  0  0
 31 80  2  0  0  0  0
 32 46  1  0  0  0  0
 32 75  1  0  0  0  0
 32 81  2  0  0  0  0
 33 63  1  0  0  0  0
 33 71  1  0  0  0  0
 33 82  2  0  0  0  0
 34 64  1  0  0  0  0
 34 76  1  0  0  0  0
 34 83  2  0  0  0  0
 35 72  1  0  0  0  0
 35 77  1  0  0  0  0
 35 84  2  0  0  0  0
 36 39  1  0  0  0  0
 37 46  1  0  0  0  0
 38 71  1  0  0  0  0
 39 41  1  0  0  0  0
 40 42  1  0  0  0  0
 40 43  1  0  0  0  0
 41 45  1  0  0  0  0
 42 47  1  0  0  0  0
 43 72  1  0  0  0  0
 44 47  1  0  0  0  0
 44 72  1  0  0  0  0
 45 75  1  0  0  0  0
 46 71  1  0  0  0  0
 47 70  1  0  0  0  0
 48 60  1  0  0  0  0
 49 64  1  0  0  0  0
 50 65  1  0  0  0  0
 51 65  1  0  0  0  0
 52 65  1  0  0  0  0
 53 66  1  0  0  0  0
 54 66  1  0  0  0  0
 55 69  1  0  0  0  0
 56 78  1  0  0  0  0
 57 79  1  0  0  0  0
 58 86  1  0  0  0  0
 59 79  1  0  0  0  0
 61 66  1  0  0  0  0
 61 77  1  0  0  0  0
 62 66  1  0  0  0  0
 62 79  1  0  0  0  0
 63 65  1  0  0  0  0
 63 76  1  0  0  0  0
 64 78  1  0  0  0  0
 67 70  1  0  0  0  0
M  CHG  2  78   1  79   1
M  ISO  4  35 100  58 101  77 100  86 101
M  END
> <Batch ID>
0050

> <Smiles>
CCc1nc([101CH2:1][101O:1]c2ccc3c(c2)CN(C(=O)C(NC(=O)C(C)NC)C(C)(C)C)C(C(=O)NC2CCCc4ccccc42)C3)c(CN(C)CC(C)(C)C[100NH:0][100C:0](=O)N2CCCC(n3nc(-c4ccc(Oc5ccc(F)cc5F)cc4)c(C(N)=O)c3N)C2)n1C

> <Shape>
0.223

> <Color>
0.045

> <Negative vol penalty>
0.000

$$$$

  -OEChem-04052317313D

 82 89  0     1  0  0  0  0  0999 V2000
  -25.6424  -34.1941   25.6216 C   0  0  0  0  0  0  0  0  0  0  0  0
  -26.2705  -33.1094   25.0179 C   0  0  0  0  0  0  0  0  0  0  0  0
  -25.9898  -12.8133   21.6962 C   0  0  0  0  0  0  0  0  0  0  0  0
  -25.1406  -13.8448   19.6833 C   0  0  0  0  0  0  0  0  0  0  0  0
  -24.2998  -34.1059   25.9871 C   0  0  0  0  0  0  0  0  0  0  0  0
  -25.5565  -31.9355   24.7802 C   0  0  0  0  0  0  0  0  0  0  0  0
  -26.3910  -30.0574   20.1519 C   0  0  0  0  0  0  0  0  0  0  0  0
  -24.8812  -11.9674   21.7304 C   0  0  0  0  0  0  0  0  0  0  0  0
  -24.0320  -12.9989   19.7175 C   0  0  0  0  0  0  0  0  0  0  0  0
  -27.5838  -29.3639   19.9517 C   0  0  0  0  0  0  0  0  0  0  0  0
  -22.4553   -9.2922   22.1465 C   0  0  0  0  0  0  0  0  0  0  0  0
  -22.6787   -7.9406   22.4091 C   0  0  0  0  0  0  0  0  0  0  0  0
  -26.4008  -27.2744   20.1832 C   0  0  0  0  0  0  0  0  0  0  0  0
  -24.0769   -7.7901   20.4445 C   0  0  0  0  0  0  0  0  0  0  0  0
  -26.1194  -13.7520   20.6726 C   0  0  0  0  0  0  0  0  0  0  0  0
  -28.4950  -14.3898   19.9962 C   0  0  0  0  0  0  0  0  0  0  0  0
  -23.5664  -32.9337   25.7450 C   0  0  0  0  0  0  0  0  0  0  0  0
  -25.1941  -29.3635   20.3804 C   0  0  0  0  0  0  0  0  0  0  0  0
  -24.2032  -31.8311   25.1439 C   0  0  0  0  0  0  0  0  0  0  0  0
  -25.1937  -27.9613   20.3834 C   0  0  0  0  0  0  0  0  0  0  0  0
  -23.9023  -12.0602   20.7411 C   0  0  0  0  0  0  0  0  0  0  0  0
  -27.5894  -27.9722   19.9702 C   0  0  0  0  0  0  0  0  0  0  0  0
  -23.0426   -9.8927   21.0329 C   0  0  0  0  0  0  0  0  0  0  0  0
  -23.4895   -7.1896   21.5581 C   0  0  0  0  0  0  0  0  0  0  0  0
  -23.8535   -9.1417   20.1820 C   0  0  0  0  0  0  0  0  0  0  0  0
  -27.2641  -14.6264   20.6370 C   0  0  0  0  0  0  0  0  0  0  0  0
  -29.2397  -15.5140   20.2572 C   0  0  0  0  0  0  0  0  0  0  0  0
  -28.9267  -13.2552   19.2332 C   0  0  0  0  0  0  0  0  0  0  0  0
  -23.1119  -29.2116   22.7774 C   0  0  0  0  0  0  0  0  0  0  0  0
  -21.4213  -27.4054   20.6794 C   0  0  0  0  0  0  0  0  0  0  0  0
  -21.4342  -25.3837   17.9300 C   0  0  0  0  0  0  0  0  0  0  0  0
  -27.8786  -21.0431   21.3451 C   0  0  0  0  0  0  0  0  0  0  0  0
  -22.1302  -32.8688   26.2006 C   0  0  0  0  0  0  0  0  0  0  0  0
  -23.9111  -30.1259   20.5680 C   0  0  0  0  0  0  0  0  0  0  0  0
  -23.9320  -27.1691   20.6044 C   0  0  0  0  0  0  0  0  0  0  0  0
  -21.3435  -31.7207   25.5736 C   0  0  0  0  0  0  0  0  0  0  0  0
  -29.7876  -18.9870   23.4898 C   0  0  0  0  0  0  0  0  0  0  0  0
  -22.1470  -30.4257   25.6369 C   0  0  0  0  0  0  0  0  0  0  0  0
  -29.4681  -17.5974   22.9402 C   0  0  0  0  0  0  0  0  0  0  0  0
  -28.5571  -19.8958   23.5049 C   0  0  0  0  0  0  0  0  0  0  0  0
  -27.5525  -18.6070   21.6469 C   0  0  0  0  0  0  0  0  0  0  0  0
  -23.4556  -30.5492   24.8471 C   0  0  1  0  0  0  0  0  0  0  0  0
  -22.8417  -29.3243   21.3036 C   0  0  1  0  0  0  0  0  0  0  0  0
  -28.7851  -17.6934   21.5650 C   0  0  2  0  0  0  0  0  0  0  0  0
  -25.8561  -22.9767   23.1867 C   0  0  0  0  0  0  0  0  0  0  0  0
  -19.9044  -24.0268   16.4754 C   0  0  0  0  0  0  0  0  0  0  0  0
  -29.9381  -27.3137   21.8361 C   0  0  0  0  0  0  0  0  0  0  0  0
  -21.2840  -25.2520   22.8367 C   0  0  0  0  0  0  0  0  0  0  0  0
  -20.6141  -23.6165   21.0634 C   0  0  0  0  0  0  0  0  0  0  0  0
  -19.1611  -25.5832   21.5569 C   0  0  0  0  0  0  0  0  0  0  0  0
  -30.4996  -22.6470   20.5074 C   0  0  0  0  0  0  0  0  0  0  0  0
  -30.2086  -23.9851   22.5866 C   0  0  0  0  0  0  0  0  0  0  0  0
  -31.4942  -25.5433   20.2482 C   0  0  0  0  0  0  0  0  0  0  0  0
  -29.5648  -24.9854   18.7775 C   0  0  0  0  0  0  0  0  0  0  0  0
  -22.0976  -26.9899   15.5344 C   0  0  0  0  0  0  0  0  0  0  0  0
  -27.3155  -22.5790   23.2761 C   0  0  0  0  0  0  0  0  0  0  0  0
  -28.2042  -23.4798   21.1583 C   0  0  0  0  0  0  0  0  0  0  0  0
  -21.3535  -25.9342   20.3476 C   0  0  1  0  0  0  0  0  0  0  0  0
  -20.5725  -25.3774   16.6802 C   0  0  2  0  0  0  0  0  0  0  0  0
  -29.1799  -26.4323   20.8390 C   0  0  2  0  0  0  0  0  0  1  0  0
  -20.6275  -25.1111   21.4489 C   0  0  0  0  0  0  0  0  0  0  0  0
  -29.7248  -23.8441   21.1213 C   0  0  0  0  0  0  0  0  0  0  0  0
  -29.9798  -25.1990   20.2590 C   0  0  0  0  0  0  0  0  0  0  0  0
  -27.2251  -15.8081   21.2584 N   0  0  0  0  0  0  0  0  0  0  0  0
  -28.4408  -16.3240   21.0094 N   0  0  0  0  0  0  0  0  0  0  0  0
  -22.7042  -27.9602   20.7893 N   0  0  0  0  0  0  0  0  0  0  0  0
  -27.9088  -19.9214   22.1866 N   0  0  0  0  0  0  0  0  0  0  0  0
  -30.4934  -15.8788   19.9143 N   0  0  0  0  0  0  0  0  0  0  0  0
  -28.0358  -12.1868   19.0624 N   0  0  0  0  0  0  0  0  0  0  0  0
  -23.2024  -30.4277   23.4274 N   0  0  0  0  0  0  0  0  0  0  0  0
  -20.7375  -25.8413   19.0284 N   0  0  0  0  0  0  0  0  0  0  0  0
  -27.8829  -22.3055   21.9572 N   0  0  0  0  0  0  0  0  0  0  0  0
  -21.4007  -25.6791   15.4786 N   0  3  0  0  0  0  0  0  0  0  0  0
  -30.0744  -13.1838   18.7320 O   0  0  0  0  0  0  0  0  0  0  0  0
  -23.2282  -28.1034   23.2874 O   0  0  0  0  0  0  0  0  0  0  0  0
  -20.3743  -28.0405   20.8284 O   0  0  0  0  0  0  0  0  0  0  0  0
  -22.6068  -25.0156   17.9325 O   0  0  0  0  0  0  0  0  0  0  0  0
  -27.8416  -20.9247   20.1135 O   0  0  0  0  0  0  0  0  0  0  0  0
  -22.8205  -11.2349   20.7741 O   0  0  0  0  0  0  0  0  0  0  0  0
  -28.7572  -27.2901   19.7749 O   0  0  0  0  0  0  0  0  0  1  0  0
  -23.7052   -5.8920   21.8112 F   0  0  0  0  0  0  0  0  0  0  0  0
  -24.4214   -9.7134   19.1112 F   0  0  0  0  0  0  0  0  0  0  0  0
  1  2  1  0  0  0  0
  1  5  2  0  0  0  0
  2  6  2  0  0  0  0
  3  8  2  0  0  0  0
  3 15  1  0  0  0  0
  4  9  1  0  0  0  0
  4 15  2  0  0  0  0
  5 17  1  0  0  0  0
  6 19  1  0  0  0  0
  7 10  2  0  0  0  0
  7 18  1  0  0  0  0
  8 21  1  0  0  0  0
  9 21  2  0  0  0  0
 10 22  1  0  0  0  0
 11 12  2  0  0  0  0
 11 23  1  0  0  0  0
 12 24  1  0  0  0  0
 13 20  1  0  0  0  0
 13 22  2  0  0  0  0
 14 24  2  0  0  0  0
 14 25  1  0  0  0  0
 15 26  1  0  0  0  0
 16 26  1  0  0  0  0
 16 27  2  0  0  0  0
 16 28  1  0  0  0  0
 17 19  2  0  0  0  0
 17 33  1  0  0  0  0
 18 20  2  0  0  0  0
 18 34  1  0  0  0  0
 19 42  1  0  0  0  0
 20 35  1  0  0  0  0
 21 79  1  0  0  0  0
 22 80  1  0  0  0  0
 23 25  2  0  0  0  0
 23 79  1  0  0  0  0
 24 81  1  0  0  0  0
 25 82  1  0  0  0  0
 26 64  2  0  0  0  0
 27 65  1  0  0  0  0
 27 68  1  0  0  0  0
 28 69  1  0  0  0  0
 28 74  2  0  0  0  0
 29 43  1  0  0  0  0
 29 70  1  0  0  0  0
 29 75  2  0  0  0  0
 30 58  1  0  0  0  0
 30 66  1  0  0  0  0
 30 76  2  0  0  0  0
 31 59  1  0  0  0  0
 31 71  1  0  0  0  0
 31 77  2  0  0  0  0
 32 67  1  0  0  0  0
 32 72  1  0  0  0  0
 32 78  2  0  0  0  0
 33 36  1  0  0  0  0
 34 43  1  0  0  0  0
 35 66  1  0  0  0  0
 36 38  1  0  0  0  0
 37 39  1  0  0  0  0
 37 40  1  0  0  0  0
 38 42  1  0  0  0  0
 39 44  1  0  0  0  0
 40 67  1  0  0  0  0
 41 44  1  0  0  0  0
 41 67  1  0  0  0  0
 42 70  1  0  0  0  0
 43 66  1  0  0  0  0
 44 65  1  0  0  0  0
 45 56  1  0  0  0  0
 46 59  1  0  0  0  0
 47 60  1  0  0  0  0
 48 61  1  0  0  0  0
 49 61  1  0  0  0  0
 50 61  1  0  0  0  0
 51 62  1  0  0  0  0
 52 62  1  0  0  0  0
 53 63  1  0  0  0  0
 54 63  1  0  0  0  0
 55 73  1  0  0  0  0
 56 72  1  0  0  0  0
 57 62  1  0  0  0  0
 57 72  1  0  0  0  0
 58 61  1  0  0  0  0
 58 71  1  0  0  0  0
 59 73  1  0  0  0  0
 60 63  1  0  0  0  0
 60 80  1  0  0  0  0
 62 63  1  0  0  0  0
 64 65  1  0  0  0  0
M  CHG  1  73   1
M  ISO  4  32 100  60 101  72 100  80 101
M  END
> <Batch ID>
0050

> <Smiles>
CC[100N:0](CC(C)(C)C(C)(C)[101CH:1](C)[101O:1]c1ccc2c(c1)CN(C(=O)C(NC(=O)C(C)NC)C(C)(C)C)C(C(=O)NC1CCCc3ccccc31)C2)[100C:0](=O)N1CCCC(n2nc(-c3ccc(Oc4ccc(F)cc4F)cc3)c(C(N)=O)c2N)C1

> <Shape>
0.288

> <Color>
0.073

> <Negative vol penalty>
0.000

$$$$

  -OEChem-04052317313D

 85 93  0     1  0  0  0  0  0999 V2000
  -29.7199  -11.7989   19.2857 C   0  0  0  0  0  0  0  0  0  0  0  0
  -30.0345  -13.0844   18.8566 C   0  0  0  0  0  0  0  0  0  0  0  0
  -24.7937  -27.3782   20.2599 C   0  0  0  0  0  0  0  0  0  0  0  0
  -26.1279  -26.8089   22.1919 C   0  0  0  0  0  0  0  0  0  0  0  0
  -28.5765  -11.5819   20.0535 C   0  0  0  0  0  0  0  0  0  0  0  0
  -29.2053  -14.1534   19.1942 C   0  0  0  0  0  0  0  0  0  0  0  0
  -30.9226  -19.9068   20.4001 C   0  0  0  0  0  0  0  0  0  0  0  0
  -23.8555  -27.9930   21.0889 C   0  0  0  0  0  0  0  0  0  0  0  0
  -25.1897  -27.4239   23.0210 C   0  0  0  0  0  0  0  0  0  0  0  0
  -30.9408  -21.0631   19.6212 C   0  0  0  0  0  0  0  0  0  0  0  0
  -21.3231  -27.0446   23.1166 C   0  0  0  0  0  0  0  0  0  0  0  0
  -19.9750  -26.7783   22.8776 C   0  0  0  0  0  0  0  0  0  0  0  0
  -28.8011  -21.7035   20.5326 C   0  0  0  0  0  0  0  0  0  0  0  0
  -29.1059  -25.0615   16.7032 C   0  0  0  0  0  0  0  0  0  0  0  0
  -19.5795  -29.1298   22.4887 C   0  0  0  0  0  0  0  0  0  0  0  0
  -29.0259  -26.4551   18.4699 C   0  0  0  0  0  0  0  0  0  0  0  0
  -25.9299  -26.7860   20.8114 C   0  0  0  0  0  0  0  0  0  0  0  0
  -26.6824  -25.0655   19.0848 C   0  0  0  0  0  0  0  0  0  0  0  0
  -27.7380  -12.6502   20.4088 C   0  0  0  0  0  0  0  0  0  0  0  0
  -29.8366  -19.6344   21.2443 C   0  0  0  0  0  0  0  0  0  0  0  0
  -28.0489  -13.9502   19.9663 C   0  0  0  0  0  0  0  0  0  0  0  0
  -28.7727  -20.5444   21.3231 C   0  0  0  0  0  0  0  0  0  0  0  0
  -28.9614  -25.1268   18.1110 C   0  0  0  0  0  0  0  0  0  0  0  0
  -24.0535  -28.0160   22.4694 C   0  0  0  0  0  0  0  0  0  0  0  0
  -29.8787  -21.9602   19.6852 C   0  0  0  0  0  0  0  0  0  0  0  0
  -21.7995  -28.3535   23.0418 C   0  0  0  0  0  0  0  0  0  0  0  0
  -19.1031  -27.8209   22.5636 C   0  0  0  0  0  0  0  0  0  0  0  0
  -20.9276  -29.3961   22.7278 C   0  0  0  0  0  0  0  0  0  0  0  0
  -26.8991  -26.1502   19.9556 C   0  0  0  0  0  0  0  0  0  0  0  0
  -29.2545  -26.3518   16.2447 C   0  0  0  0  0  0  0  0  0  0  0  0
  -27.9069  -24.8410   18.5046 C   0  0  0  0  0  0  0  0  0  0  0  0
  -25.4816  -24.3269   18.8237 C   0  0  0  0  0  0  0  0  0  0  0  0
  -27.6642  -17.3214   21.4292 C   0  0  0  0  0  0  0  0  0  0  0  0
  -26.8150  -18.8700   24.1501 C   0  0  0  0  0  0  0  0  0  0  0  0
  -26.7768  -21.7768   25.9378 C   0  0  0  0  0  0  0  0  0  0  0  0
  -32.5718  -26.5731   16.1706 C   0  0  0  0  0  0  0  0  0  0  0  0
  -26.4876  -12.3594   21.2004 C   0  0  0  0  0  0  0  0  0  0  0  0
  -29.8445  -18.3961   22.0980 C   0  0  0  0  0  0  0  0  0  0  0  0
  -27.5926  -20.3084   22.2287 C   0  0  0  0  0  0  0  0  0  0  0  0
  -25.8631  -13.6016   21.8306 C   0  0  0  0  0  0  0  0  0  0  0  0
  -32.4810  -26.6558   19.6363 C   0  0  0  0  0  0  0  0  0  0  0  0
  -25.7883  -14.7360   20.8136 C   0  0  0  0  0  0  0  0  0  0  0  0
  -31.0047  -26.4465   19.9703 C   0  0  0  0  0  0  0  0  0  0  0  0
  -32.6415  -27.5763   18.4322 C   0  0  0  0  0  0  0  0  0  0  0  0
  -30.4470  -26.8812   17.5255 C   0  0  0  0  0  0  0  0  0  0  0  0
  -27.1875  -15.1392   20.3329 C   0  0  1  0  0  0  0  0  0  0  0  0
  -28.4488  -17.9644   22.5376 C   0  0  1  0  0  0  0  0  0  0  0  0
  -30.2253  -25.9542   18.7383 C   0  0  2  0  0  0  0  0  0  0  0  0
  -25.9783  -22.7417   28.1124 C   0  0  0  0  0  0  0  0  0  0  0  0
  -30.5543  -29.1276   18.0451 C   0  0  0  0  0  0  0  0  0  0  0  0
  -28.0449  -29.3215   17.7777 C   0  0  0  0  0  0  0  0  0  0  0  0
  -28.3349  -27.8445   14.3413 C   0  0  0  0  0  0  0  0  0  0  0  0
  -29.4205  -25.6718   13.8348 C   0  0  0  0  0  0  0  0  0  0  0  0
  -23.9658  -18.9584   23.0619 C   0  0  0  0  0  0  0  0  0  0  0  0
  -23.4426  -20.7135   24.7690 C   0  0  0  0  0  0  0  0  0  0  0  0
  -24.1351  -18.4315   25.5007 C   0  0  0  0  0  0  0  0  0  0  0  0
  -32.6419  -26.2151   13.7324 C   0  0  0  0  0  0  0  0  0  0  0  0
  -29.5325  -22.4418   26.7879 C   0  0  0  0  0  0  0  0  0  0  0  0
  -28.7725  -23.9644   19.0408 C   0  0  0  0  0  0  0  0  0  1  0  0
  -30.8163  -27.5919   14.6589 C   0  0  0  0  0  0  0  0  0  0  0  0
  -25.8555  -19.9846   24.4908 C   0  0  1  0  0  0  0  0  0  0  0  0
  -27.1344  -22.0755   27.3825 C   0  0  2  0  0  0  0  0  0  0  0  0
  -29.3200  -28.6319   17.2890 C   0  0  0  0  0  0  0  0  0  0  0  0
  -29.4394  -26.8530   14.8670 C   0  0  0  0  0  0  0  0  0  0  0  0
  -24.3709  -19.5258   24.4370 C   0  0  0  0  0  0  0  0  0  0  0  0
  -28.1620  -26.5845   19.9339 N   0  0  0  0  0  0  0  0  0  0  0  0
  -29.2045  -27.1905   17.3274 N   0  0  0  0  0  0  0  0  0  0  0  0
  -28.7499  -25.7686   19.0424 N   0  0  0  0  0  0  0  0  0  0  0  0
  -27.6438  -19.0802   23.0389 N   0  0  0  0  0  0  0  0  0  0  0  0
  -31.8840  -27.0813   17.2825 N   0  0  0  0  0  0  0  0  0  0  0  0
  -28.3341  -23.9426   17.5920 N   0  0  0  0  0  0  0  0  0  0  0  0
  -24.6365  -24.7671   17.7959 N   0  0  0  0  0  0  0  0  0  0  0  0
  -27.8482  -15.9555   21.3287 N   0  0  0  0  0  0  0  0  0  0  0  0
  -26.2746  -20.5013   25.7892 N   0  0  0  0  0  0  0  0  0  0  0  0
  -31.9606  -26.7196   14.9162 N   0  0  0  0  0  0  0  0  0  0  0  0
  -28.3156  -22.9819   27.4470 N   0  3  0  0  0  0  0  0  0  0  0  0
  -25.1591  -23.3162   19.4932 O   0  0  0  0  0  0  0  0  0  0  0  0
  -26.9439  -18.0129   20.7188 O   0  0  0  0  0  0  0  0  0  0  0  0
  -26.8335  -17.8534   24.8485 O   0  0  0  0  0  0  0  0  0  0  0  0
  -26.9245  -22.5945   25.0322 O   0  0  0  0  0  0  0  0  0  0  0  0
  -33.6753  -26.0250   16.2896 O   0  0  0  0  0  0  0  0  0  0  0  0
  -23.1383  -28.6161   23.2786 O   0  0  0  0  0  0  0  0  0  0  0  0
  -29.8937  -23.0892   18.9256 O   0  0  0  0  0  0  0  0  0  1  0  0
  -17.8088  -27.5648   22.3325 F   0  0  0  0  0  0  0  0  0  0  0  0
  -21.3797  -30.6554   22.6533 F   0  0  0  0  0  0  0  0  0  0  0  0
  1  2  1  0  0  0  0
  1  5  2  0  0  0  0
  2  6  2  0  0  0  0
  3  8  2  0  0  0  0
  3 17  1  0  0  0  0
  4  9  1  0  0  0  0
  4 17  2  0  0  0  0
  5 19  1  0  0  0  0
  6 21  1  0  0  0  0
  7 10  2  0  0  0  0
  7 20  1  0  0  0  0
  8 24  1  0  0  0  0
  9 24  2  0  0  0  0
 10 25  1  0  0  0  0
 11 12  2  0  0  0  0
 11 26  1  0  0  0  0
 12 27  1  0  0  0  0
 13 22  1  0  0  0  0
 13 25  2  0  0  0  0
 14 23  1  0  0  0  0
 14 30  2  0  0  0  0
 15 27  2  0  0  0  0
 15 28  1  0  0  0  0
 16 23  2  0  0  0  0
 16 67  1  0  0  0  0
 17 29  1  0  0  0  0
 18 29  1  0  0  0  0
 18 31  2  0  0  0  0
 18 32  1  0  0  0  0
 19 21  2  0  0  0  0
 19 37  1  0  0  0  0
 20 22  2  0  0  0  0
 20 38  1  0  0  0  0
 21 46  1  0  0  0  0
 22 39  1  0  0  0  0
 23 59  1  0  0  0  0
 24 82  1  0  0  0  0
 25 83  1  0  0  0  0
 26 28  2  0  0  0  0
 26 82  1  0  0  0  0
 27 84  1  0  0  0  0
 28 85  1  0  0  0  0
 29 66  2  0  0  0  0
 30 64  1  0  0  0  0
 30 67  1  0  0  0  0
 31 68  1  0  0  0  0
 31 71  1  0  0  0  0
 32 72  1  0  0  0  0
 32 77  2  0  0  0  0
 33 47  1  0  0  0  0
 33 73  1  0  0  0  0
 33 78  2  0  0  0  0
 34 61  1  0  0  0  0
 34 69  1  0  0  0  0
 34 79  2  0  0  0  0
 35 62  1  0  0  0  0
 35 74  1  0  0  0  0
 35 80  2  0  0  0  0
 36 70  1  0  0  0  0
 36 75  1  0  0  0  0
 36 81  2  0  0  0  0
 37 40  1  0  0  0  0
 38 47  1  0  0  0  0
 39 69  1  0  0  0  0
 40 42  1  0  0  0  0
 41 43  1  0  0  0  0
 41 44  1  0  0  0  0
 42 46  1  0  0  0  0
 43 48  1  0  0  0  0
 44 70  1  0  0  0  0
 45 48  1  0  0  0  0
 45 70  1  0  0  0  0
 46 73  1  0  0  0  0
 47 69  1  0  0  0  0
 48 68  1  0  0  0  0
 49 62  1  0  0  0  0
 50 63  1  0  0  0  0
 51 63  1  0  0  0  0
 52 64  1  0  0  0  0
 53 64  1  0  0  0  0
 54 65  1  0  0  0  0
 55 65  1  0  0  0  0
 56 65  1  0  0  0  0
 57 75  1  0  0  0  0
 58 76  1  0  0  0  0
 59 83  1  0  0  0  0
 60 64  1  0  0  0  0
 60 75  1  0  0  0  0
 61 65  1  0  0  0  0
 61 74  1  0  0  0  0
 62 76  1  0  0  0  0
 63 67  1  0  0  0  0
 66 68  1  0  0  0  0
M  CHG  1  76   1
M  ISO  4  36 100  59 101  75 100  83 101
M  END
> <Batch ID>
0050

> <Smiles>
CNC(C)C(=O)NC(C(=O)N1Cc2cc([101O:1][101CH2:1]c3cc(C(C)(C)C[100N:0](C)[100C:0](=O)N4CCCC(n5nc(-c6ccc(Oc7ccc(F)cc7F)cc6)c(C(N)=O)c5N)C4)n(C(C)C)c3)ccc2CC1C(=O)NC1CCCc2ccccc21)C(C)(C)C

> <Shape>
0.209

> <Color>
0.068

> <Negative vol penalty>
0.000

$$$$

  -OEChem-04052317313D

 84 91  0     1  0  0  0  0  0999 V2000
  -15.9746  -24.3587   24.6599 C   0  0  0  0  0  0  0  0  0  0  0  0
  -17.0035  -23.6374   24.0627 C   0  0  0  0  0  0  0  0  0  0  0  0
  -27.6242  -14.8007   22.5426 C   0  0  0  0  0  0  0  0  0  0  0  0
  -26.9736  -14.6340   20.2218 C   0  0  0  0  0  0  0  0  0  0  0  0
  -15.8831  -25.7356   24.4606 C   0  0  0  0  0  0  0  0  0  0  0  0
  -17.9409  -24.2926   23.2650 C   0  0  0  0  0  0  0  0  0  0  0  0
  -23.8905  -22.9479   22.7170 C   0  0  0  0  0  0  0  0  0  0  0  0
  -26.5304  -14.0150   22.9057 C   0  0  0  0  0  0  0  0  0  0  0  0
  -25.8798  -13.8483   20.5849 C   0  0  0  0  0  0  0  0  0  0  0  0
  -24.6048  -22.2255   21.7622 C   0  0  0  0  0  0  0  0  0  0  0  0
  -22.7934  -14.3213   21.8817 C   0  0  0  0  0  0  0  0  0  0  0  0
  -21.5614  -14.6162   21.2979 C   0  0  0  0  0  0  0  0  0  0  0  0
  -25.1510  -24.2812   20.6242 C   0  0  0  0  0  0  0  0  0  0  0  0
  -21.4785  -12.3951   20.3509 C   0  0  0  0  0  0  0  0  0  0  0  0
  -27.8458  -15.1103   21.2007 C   0  0  0  0  0  0  0  0  0  0  0  0
  -30.2693  -15.4778   20.4940 C   0  0  0  0  0  0  0  0  0  0  0  0
  -16.8255  -26.4094   23.6679 C   0  0  0  0  0  0  0  0  0  0  0  0
  -23.7918  -24.3438   22.6263 C   0  0  0  0  0  0  0  0  0  0  0  0
  -17.8612  -25.6796   23.0538 C   0  0  0  0  0  0  0  0  0  0  0  0
  -24.4371  -25.0192   21.5805 C   0  0  0  0  0  0  0  0  0  0  0  0
  -25.6582  -13.5388   21.9269 C   0  0  0  0  0  0  0  0  0  0  0  0
  -25.2328  -22.8918   20.7140 C   0  0  0  0  0  0  0  0  0  0  0  0
  -23.3681  -13.0633   21.7000 C   0  0  0  0  0  0  0  0  0  0  0  0
  -20.9039  -13.6531   20.5326 C   0  0  0  0  0  0  0  0  0  0  0  0
  -22.7106  -12.1002   20.9346 C   0  0  0  0  0  0  0  0  0  0  0  0
  -28.9752  -15.9223   20.8250 C   0  0  0  0  0  0  0  0  0  0  0  0
  -30.9665  -16.6278   20.2150 C   0  0  0  0  0  0  0  0  0  0  0  0
  -30.7941  -14.1445   20.4431 C   0  0  0  0  0  0  0  0  0  0  0  0
  -21.3984  -26.4049   22.2696 C   0  0  0  0  0  0  0  0  0  0  0  0
  -23.7406  -28.6037   22.7185 C   0  0  0  0  0  0  0  0  0  0  0  0
  -29.1709  -22.0702   18.4072 C   0  0  0  0  0  0  0  0  0  0  0  0
  -27.0621  -29.3719   22.5610 C   0  0  0  0  0  0  0  0  0  0  0  0
  -16.6581  -27.8914   23.4431 C   0  0  0  0  0  0  0  0  0  0  0  0
  -23.0400  -25.1109   23.6792 C   0  0  0  0  0  0  0  0  0  0  0  0
  -24.3785  -26.5185   21.4494 C   0  0  0  0  0  0  0  0  0  0  0  0
  -17.9087  -28.5684   22.8882 C   0  0  0  0  0  0  0  0  0  0  0  0
  -31.1261  -21.2763   21.3032 C   0  0  0  0  0  0  0  0  0  0  0  0
  -18.4881  -27.7561   21.7344 C   0  0  0  0  0  0  0  0  0  0  0  0
  -30.8911  -19.7787   21.4955 C   0  0  0  0  0  0  0  0  0  0  0  0
  -29.8768  -21.9743   20.7750 C   0  0  0  0  0  0  0  0  0  0  0  0
  -29.1003  -19.8832   19.7046 C   0  0  0  0  0  0  0  0  0  0  0  0
  -18.9116  -26.3584   22.2018 C   0  0  1  0  0  0  0  0  0  0  0  0
  -22.5749  -26.4829   23.2010 C   0  0  1  0  0  0  0  0  0  0  0  0
  -30.3473  -19.1347   20.2079 C   0  0  2  0  0  0  0  0  0  0  0  0
  -26.9226  -19.3308   15.3615 C   0  0  0  0  0  0  0  0  0  0  0  0
  -28.6683  -31.2592   22.9553 C   0  0  0  0  0  0  0  0  0  0  0  0
  -28.5449  -22.4149   16.1170 C   0  0  0  0  0  0  0  0  0  0  0  0
  -29.7502  -20.3255   16.7800 C   0  0  0  0  0  0  0  0  0  0  0  0
  -21.0949  -21.5075   16.3980 C   0  0  0  0  0  0  0  0  0  0  0  0
  -22.5098  -19.4623   16.1551 C   0  0  0  0  0  0  0  0  0  0  0  0
  -21.9586  -20.3258   18.4343 C   0  0  0  0  0  0  0  0  0  0  0  0
  -22.8390  -29.9120   20.1137 C   0  0  0  0  0  0  0  0  0  0  0  0
  -25.0092  -31.1597   20.0704 C   0  0  0  0  0  0  0  0  0  0  0  0
  -23.4041  -31.5172   21.9463 C   0  0  0  0  0  0  0  0  0  0  0  0
  -28.5204  -27.8504   24.6388 C   0  0  0  0  0  0  0  0  0  0  0  0
  -27.0169  -19.2903   16.8820 C   0  0  0  0  0  0  0  0  0  0  0  0
  -23.5843  -21.5750   16.9256 C   0  0  0  0  0  0  0  0  0  0  0  0
  -25.9821  -22.7380   18.4621 C   0  0  0  0  0  0  0  0  0  1  0  0
  -24.6957  -29.3476   21.8166 C   0  0  1  0  0  0  0  0  0  0  0  0
  -27.9899  -30.0397   23.5598 C   0  0  2  0  0  0  0  0  0  0  0  0
  -27.2671  -20.6681   17.5639 C   0  0  2  0  0  0  0  0  0  0  0  0
  -26.0331  -21.6174   17.4157 C   0  0  1  0  0  0  0  0  0  0  0  0
  -28.6601  -21.3250   17.1997 C   0  0  0  0  0  0  0  0  0  0  0  0
  -22.2889  -20.7387   16.9895 C   0  0  0  0  0  0  0  0  0  0  0  0
  -23.9867  -30.4557   20.9878 C   0  0  0  0  0  0  0  0  0  0  0  0
  -28.8548  -17.2511   20.7628 N   0  0  0  0  0  0  0  0  0  0  0  0
  -30.0822  -17.6514   20.3895 N   0  0  0  0  0  0  0  0  0  0  0  0
  -23.6259  -27.2235   22.5002 N   0  0  0  0  0  0  0  0  0  0  0  0
  -29.3784  -21.3193   19.5643 N   0  0  0  0  0  0  0  0  0  0  0  0
  -32.2436  -16.8532   19.8401 N   0  0  0  0  0  0  0  0  0  0  0  0
  -29.9413  -13.0782   20.7595 N   0  0  0  0  0  0  0  0  0  0  0  0
  -20.1731  -26.4223   22.9082 N   0  0  0  0  0  0  0  0  0  0  0  0
  -25.7692  -29.8377   22.6744 N   0  0  0  0  0  0  0  0  0  0  0  0
  -29.0459  -29.0863   24.0036 N   0  3  0  0  0  0  0  0  0  0  0  0
  -24.7509  -20.8628   17.5074 N   0  3  0  0  0  0  0  0  0  0  0  0
  -31.9885  -13.9069   20.1423 O   0  0  0  0  0  0  0  0  0  0  0  0
  -21.5883  -26.3355   21.0610 O   0  0  0  0  0  0  0  0  0  0  0  0
  -23.1246  -29.2232   23.5894 O   0  0  0  0  0  0  0  0  0  0  0  0
  -29.3815  -23.2828   18.3216 O   0  0  0  0  0  0  0  0  0  0  0  0
  -27.4465  -28.5247   21.7579 O   0  0  0  0  0  0  0  0  0  0  0  0
  -24.5909  -12.7719   22.2808 O   0  0  0  0  0  0  0  0  0  0  0  0
  -25.9342  -22.1849   19.7748 O   0  0  0  0  0  0  0  0  0  1  0  0
  -19.7201  -13.9359   19.9734 F   0  0  0  0  0  0  0  0  0  0  0  0
  -23.2571  -10.8895   20.7575 F   0  0  0  0  0  0  0  0  0  0  0  0
  1  2  1  0  0  0  0
  1  5  2  0  0  0  0
  2  6  2  0  0  0  0
  3  8  2  0  0  0  0
  3 15  1  0  0  0  0
  4  9  1  0  0  0  0
  4 15  2  0  0  0  0
  5 17  1  0  0  0  0
  6 19  1  0  0  0  0
  7 10  2  0  0  0  0
  7 18  1  0  0  0  0
  8 21  1  0  0  0  0
  9 21  2  0  0  0  0
 10 22  1  0  0  0  0
 11 12  2  0  0  0  0
 11 23  1  0  0  0  0
 12 24  1  0  0  0  0
 13 20  1  0  0  0  0
 13 22  2  0  0  0  0
 14 24  2  0  0  0  0
 14 25  1  0  0  0  0
 15 26  1  0  0  0  0
 16 26  1  0  0  0  0
 16 27  2  0  0  0  0
 16 28  1  0  0  0  0
 17 19  2  0  0  0  0
 17 33  1  0  0  0  0
 18 20  2  0  0  0  0
 18 34  1  0  0  0  0
 19 42  1  0  0  0  0
 20 35  1  0  0  0  0
 21 81  1  0  0  0  0
 22 82  1  0  0  0  0
 23 25  2  0  0  0  0
 23 81  1  0  0  0  0
 24 83  1  0  0  0  0
 25 84  1  0  0  0  0
 26 66  2  0  0  0  0
 27 67  1  0  0  0  0
 27 70  1  0  0  0  0
 28 71  1  0  0  0  0
 28 76  2  0  0  0  0
 29 43  1  0  0  0  0
 29 72  1  0  0  0  0
 29 77  2  0  0  0  0
 30 59  1  0  0  0  0
 30 68  1  0  0  0  0
 30 78  2  0  0  0  0
 31 63  1  0  0  0  0
 31 69  1  0  0  0  0
 31 79  2  0  0  0  0
 32 60  1  0  0  0  0
 32 73  1  0  0  0  0
 32 80  2  0  0  0  0
 33 36  1  0  0  0  0
 34 43  1  0  0  0  0
 35 68  1  0  0  0  0
 36 38  1  0  0  0  0
 37 39  1  0  0  0  0
 37 40  1  0  0  0  0
 38 42  1  0  0  0  0
 39 44  1  0  0  0  0
 40 69  1  0  0  0  0
 41 44  1  0  0  0  0
 41 69  1  0  0  0  0
 42 72  1  0  0  0  0
 43 68  1  0  0  0  0
 44 67  1  0  0  0  0
 45 56  1  0  0  0  0
 46 60  1  0  0  0  0
 47 63  1  0  0  0  0
 48 63  1  0  0  0  0
 49 64  1  0  0  0  0
 50 64  1  0  0  0  0
 51 64  1  0  0  0  0
 52 65  1  0  0  0  0
 53 65  1  0  0  0  0
 54 65  1  0  0  0  0
 55 74  1  0  0  0  0
 56 61  1  0  0  0  0
 57 64  1  0  0  0  0
 57 75  1  0  0  0  0
 58 62  1  0  0  0  0
 58 82  1  0  0  0  0
 59 65  1  0  0  0  0
 59 73  1  0  0  0  0
 60 74  1  0  0  0  0
 61 62  1  0  0  0  0
 61 63  1  0  0  0  0
 62 75  1  0  0  0  0
 66 67  1  0  0  0  0
M  CHG  2  74   1  75   1
M  ISO  4  31 100  58 101  63 100  82 101
M  END
> <Batch ID>
0050

> <Smiles>
CCC(C(NCC(C)(C)C)[101CH2:1][101O:1]c1ccc2c(c1)CN(C(=O)C(NC(=O)C(C)NC)C(C)(C)C)C(C(=O)NC1CCCc3ccccc31)C2)[100C:0](C)(C)[100C:0](=O)N1CCCC(n2nc(-c3ccc(Oc4ccc(F)cc4F)cc3)c(C(N)=O)c2N)C1

> <Shape>
0.225

> <Color>
0.036

> <Negative vol penalty>
0.000

$$$$

  -OEChem-04052317313D

 86 94  0     1  0  0  0  0  0999 V2000
  -18.3704  -25.4062   20.7922 C   0  0  0  0  0  0  0  0  0  0  0  0
  -19.7110  -25.5068   20.4342 C   0  0  0  0  0  0  0  0  0  0  0  0
  -27.8055  -11.4110   22.0410 C   0  0  0  0  0  0  0  0  0  0  0  0
  -26.0689  -12.1247   20.5205 C   0  0  0  0  0  0  0  0  0  0  0  0
  -17.6552  -26.5512   21.1401 C   0  0  0  0  0  0  0  0  0  0  0  0
  -20.3368  -26.7528   20.4230 C   0  0  0  0  0  0  0  0  0  0  0  0
  -24.9163  -26.6463   22.5821 C   0  0  0  0  0  0  0  0  0  0  0  0
  -26.8741  -10.6508   22.7481 C   0  0  0  0  0  0  0  0  0  0  0  0
  -25.1374  -11.3643   21.2275 C   0  0  0  0  0  0  0  0  0  0  0  0
  -25.9642  -26.1213   21.8271 C   0  0  0  0  0  0  0  0  0  0  0  0
  -22.3723   -9.3256   22.4173 C   0  0  0  0  0  0  0  0  0  0  0  0
  -21.4792   -8.5455   21.6828 C   0  0  0  0  0  0  0  0  0  0  0  0
  -26.6821  -28.3581   21.2790 C   0  0  0  0  0  0  0  0  0  0  0  0
  -23.3327   -7.3354   20.7145 C   0  0  0  0  0  0  0  0  0  0  0  0
  -26.1831  -24.3249   16.4893 C   0  0  0  0  0  0  0  0  0  0  0  0
  -27.4030  -12.1480   20.9272 C   0  0  0  0  0  0  0  0  0  0  0  0
  -29.1493  -12.5175   19.1047 C   0  0  0  0  0  0  0  0  0  0  0  0
  -18.2751  -27.8107   21.1425 C   0  0  0  0  0  0  0  0  0  0  0  0
  -24.7367  -28.0334   22.6825 C   0  0  0  0  0  0  0  0  0  0  0  0
  -19.6288  -27.9160   20.7700 C   0  0  0  0  0  0  0  0  0  0  0  0
  -25.6327  -28.8982   22.0380 C   0  0  0  0  0  0  0  0  0  0  0  0
  -25.5400  -10.6274   22.3413 C   0  0  0  0  0  0  0  0  0  0  0  0
  -26.8455  -26.9771   21.1730 C   0  0  0  0  0  0  0  0  0  0  0  0
  -23.7456   -9.1107   22.3004 C   0  0  0  0  0  0  0  0  0  0  0  0
  -21.9594   -7.5504   20.8314 C   0  0  0  0  0  0  0  0  0  0  0  0
  -24.2257   -8.1155   21.4490 C   0  0  0  0  0  0  0  0  0  0  0  0
  -28.3646  -12.9340   20.1968 C   0  0  0  0  0  0  0  0  0  0  0  0
  -24.9796  -22.6258   16.9307 C   0  0  0  0  0  0  0  0  0  0  0  0
  -26.1635  -22.4213   17.5993 C   0  0  0  0  0  0  0  0  0  0  0  0
  -29.8925  -13.6242   18.7740 C   0  0  0  0  0  0  0  0  0  0  0  0
  -29.2017  -11.2441   18.4480 C   0  0  0  0  0  0  0  0  0  0  0  0
  -22.4325  -30.0623   21.8591 C   0  0  0  0  0  0  0  0  0  0  0  0
  -24.3013  -32.2084   23.4160 C   0  0  0  0  0  0  0  0  0  0  0  0
  -27.4110  -33.0782   24.5206 C   0  0  0  0  0  0  0  0  0  0  0  0
  -29.1496  -19.4272   19.4445 C   0  0  0  0  0  0  0  0  0  0  0  0
  -17.4484  -29.0261   21.4803 C   0  0  0  0  0  0  0  0  0  0  0  0
  -23.6173  -28.5843   23.5227 C   0  0  0  0  0  0  0  0  0  0  0  0
  -25.4954  -30.3953   22.1307 C   0  0  0  0  0  0  0  0  0  0  0  0
  -18.2852  -30.2608   21.8051 C   0  0  0  0  0  0  0  0  0  0  0  0
  -31.8054  -17.5664   20.6734 C   0  0  0  0  0  0  0  0  0  0  0  0
  -19.3909  -30.4437   20.7703 C   0  0  0  0  0  0  0  0  0  0  0  0
  -31.3111  -16.1228   20.5927 C   0  0  0  0  0  0  0  0  0  0  0  0
  -30.6931  -18.4973   21.1413 C   0  0  0  0  0  0  0  0  0  0  0  0
  -28.9591  -17.0088   20.1933 C   0  0  0  0  0  0  0  0  0  0  0  0
  -20.3494  -29.2467   20.7697 C   0  0  1  0  0  0  0  0  0  0  0  0
  -23.2235  -30.0063   23.1354 C   0  0  1  0  0  0  0  0  0  0  0  0
  -30.0463  -16.0211   19.7224 C   0  0  2  0  0  0  0  0  0  0  0  0
  -23.9603  -20.5501   15.9615 C   0  0  0  0  0  0  0  0  0  0  0  0
  -26.3002  -15.8416   18.2713 C   0  0  0  0  0  0  0  0  0  0  0  0
  -28.6322  -34.9082   25.7277 C   0  0  0  0  0  0  0  0  0  0  0  0
  -24.2063  -33.9293   20.8983 C   0  0  0  0  0  0  0  0  0  0  0  0
  -26.1559  -35.2211   21.7918 C   0  0  0  0  0  0  0  0  0  0  0  0
  -23.9966  -35.2024   23.0406 C   0  0  0  0  0  0  0  0  0  0  0  0
  -28.2215  -31.2543   26.7059 C   0  0  0  0  0  0  0  0  0  0  0  0
  -23.7903  -21.7602   16.8891 C   0  0  0  0  0  0  0  0  0  0  0  0
  -26.6275  -21.3209   18.4630 C   0  0  0  0  0  0  0  0  0  0  0  0
  -27.3367  -16.9400   18.0797 C   0  0  0  0  0  0  0  0  0  0  0  0
  -28.4604  -25.1375   18.5275 C   0  0  0  0  0  0  0  0  0  0  0  0
  -28.3241  -23.8041   17.7891 C   0  0  0  0  0  0  0  0  0  0  0  0
  -27.5848  -20.3334   17.7688 C   0  0  0  0  0  0  0  0  0  0  0  0
  -27.0111  -18.2016   18.8701 C   0  0  0  0  0  0  0  0  0  0  0  0
  -27.6567  -25.1965   19.8213 C   0  0  0  0  0  0  0  0  0  1  0  0
  -25.4352  -33.1234   23.0211 C   0  0  1  0  0  0  0  0  0  0  0  0
  -27.8967  -33.5844   25.8668 C   0  0  2  0  0  0  0  0  0  0  0  0
  -24.9502  -34.3409   22.1844 C   0  0  0  0  0  0  0  0  0  0  0  0
  -24.9983  -23.8124   16.2414 N   0  0  0  0  0  0  0  0  0  0  0  0
  -28.5885  -14.2060   20.5372 N   0  0  0  0  0  0  0  0  0  0  0  0
  -26.9245  -23.5178   17.3067 N   0  0  0  0  0  0  0  0  0  0  0  0
  -29.5224  -14.5983   19.6540 N   0  0  0  0  0  0  0  0  0  0  0  0
  -24.3813  -30.8853   22.9590 N   0  0  0  0  0  0  0  0  0  0  0  0
  -29.5058  -18.3707   20.2957 N   0  0  0  0  0  0  0  0  0  0  0  0
  -30.8200  -13.8493   17.8193 N   0  0  0  0  0  0  0  0  0  0  0  0
  -28.3711  -10.2165   18.9155 N   0  0  0  0  0  0  0  0  0  0  0  0
  -21.2616  -29.3292   21.8903 N   0  0  0  0  0  0  0  0  0  0  0  0
  -26.1193  -33.4832   24.2584 N   0  0  0  0  0  0  0  0  0  0  0  0
  -27.9980  -19.2594   18.6608 N   0  0  0  0  0  0  0  0  0  0  0  0
  -28.8221  -32.5957   26.4888 N   0  3  0  0  0  0  0  0  0  0  0  0
  -29.9744  -11.0190   17.4858 O   0  0  0  0  0  0  0  0  0  0  0  0
  -22.8526  -30.7229   20.9164 O   0  0  0  0  0  0  0  0  0  0  0  0
  -23.3822  -32.6493   24.1106 O   0  0  0  0  0  0  0  0  0  0  0  0
  -28.1091  -32.3952   23.7744 O   0  0  0  0  0  0  0  0  0  0  0  0
  -29.8186  -20.4673   19.3922 O   0  0  0  0  0  0  0  0  0  0  0  0
  -24.6309   -9.8854   23.0309 O   0  0  0  0  0  0  0  0  0  0  0  0
  -27.8688  -26.4672   20.4349 O   0  0  0  0  0  0  0  0  0  1  0  0
  -21.1016   -6.8003   20.1273 F   0  0  0  0  0  0  0  0  0  0  0  0
  -25.5439   -7.9036   21.3334 F   0  0  0  0  0  0  0  0  0  0  0  0
  1  2  1  0  0  0  0
  1  5  2  0  0  0  0
  2  6  2  0  0  0  0
  3  8  2  0  0  0  0
  3 16  1  0  0  0  0
  4  9  1  0  0  0  0
  4 16  2  0  0  0  0
  5 18  1  0  0  0  0
  6 20  1  0  0  0  0
  7 10  2  0  0  0  0
  7 19  1  0  0  0  0
  8 22  1  0  0  0  0
  9 22  2  0  0  0  0
 10 23  1  0  0  0  0
 11 12  2  0  0  0  0
 11 24  1  0  0  0  0
 12 25  1  0  0  0  0
 13 21  1  0  0  0  0
 13 23  2  0  0  0  0
 14 25  2  0  0  0  0
 14 26  1  0  0  0  0
 15 66  2  0  0  0  0
 15 68  1  0  0  0  0
 16 27  1  0  0  0  0
 17 27  1  0  0  0  0
 17 30  2  0  0  0  0
 17 31  1  0  0  0  0
 18 20  2  0  0  0  0
 18 36  1  0  0  0  0
 19 21  2  0  0  0  0
 19 37  1  0  0  0  0
 20 45  1  0  0  0  0
 21 38  1  0  0  0  0
 22 83  1  0  0  0  0
 23 84  1  0  0  0  0
 24 26  2  0  0  0  0
 24 83  1  0  0  0  0
 25 85  1  0  0  0  0
 26 86  1  0  0  0  0
 27 67  2  0  0  0  0
 28 29  2  0  0  0  0
 28 55  1  0  0  0  0
 28 66  1  0  0  0  0
 29 56  1  0  0  0  0
 29 68  1  0  0  0  0
 30 69  1  0  0  0  0
 30 72  1  0  0  0  0
 31 73  1  0  0  0  0
 31 78  2  0  0  0  0
 32 46  1  0  0  0  0
 32 74  1  0  0  0  0
 32 79  2  0  0  0  0
 33 63  1  0  0  0  0
 33 70  1  0  0  0  0
 33 80  2  0  0  0  0
 34 64  1  0  0  0  0
 34 75  1  0  0  0  0
 34 81  2  0  0  0  0
 35 71  1  0  0  0  0
 35 76  1  0  0  0  0
 35 82  2  0  0  0  0
 36 39  1  0  0  0  0
 37 46  1  0  0  0  0
 38 70  1  0  0  0  0
 39 41  1  0  0  0  0
 40 42  1  0  0  0  0
 40 43  1  0  0  0  0
 41 45  1  0  0  0  0
 42 47  1  0  0  0  0
 43 71  1  0  0  0  0
 44 47  1  0  0  0  0
 44 71  1  0  0  0  0
 45 74  1  0  0  0  0
 46 70  1  0  0  0  0
 47 69  1  0  0  0  0
 48 55  1  0  0  0  0
 49 57  1  0  0  0  0
 50 64  1  0  0  0  0
 51 65  1  0  0  0  0
 52 65  1  0  0  0  0
 53 65  1  0  0  0  0
 54 77  1  0  0  0  0
 56 60  1  0  0  0  0
 57 61  1  0  0  0  0
 58 59  1  0  0  0  0
 58 62  1  0  0  0  0
 59 68  1  0  0  0  0
 60 76  1  0  0  0  0
 61 76  1  0  0  0  0
 62 84  1  0  0  0  0
 63 65  1  0  0  0  0
 63 75  1  0  0  0  0
 64 77  1  0  0  0  0
 67 69  1  0  0  0  0
M  CHG  1  77   1
M  ISO  4  35 100  62 101  76 100  84 101
M  END
> <Batch ID>
0050

> <Smiles>
CCC[100N:0](CCc1c(CC)ncn1CC[101CH2:1][101O:1]c1ccc2c(c1)CN(C(=O)C(NC(=O)C(C)NC)C(C)(C)C)C(C(=O)NC1CCCc3ccccc31)C2)[100C:0](=O)N1CCCC(n2nc(-c3ccc(Oc4ccc(F)cc4F)cc3)c(C(N)=O)c2N)C1

> <Shape>
0.293

> <Color>
0.080

> <Negative vol penalty>
0.000

$$$$

  -OEChem-04052317313D

 84 92  0     1  0  0  0  0  0999 V2000
  -24.2345  -28.3897   20.1426 C   0  0  0  0  0  0  0  0  0  0  0  0
  -24.9862  -27.2708   19.7984 C   0  0  0  0  0  0  0  0  0  0  0  0
  -21.9151  -23.4445   20.8300 C   0  0  0  0  0  0  0  0  0  0  0  0
  -20.6761  -21.9059   22.2209 C   0  0  0  0  0  0  0  0  0  0  0  0
  -24.8742  -29.5580   20.5549 C   0  0  0  0  0  0  0  0  0  0  0  0
  -26.3782  -27.3199   19.8652 C   0  0  0  0  0  0  0  0  0  0  0  0
  -28.3654  -23.2000   22.0382 C   0  0  0  0  0  0  0  0  0  0  0  0
  -20.9146  -24.4018   20.9976 C   0  0  0  0  0  0  0  0  0  0  0  0
  -19.6755  -22.8632   22.3886 C   0  0  0  0  0  0  0  0  0  0  0  0
  -28.4506  -22.0473   21.2586 C   0  0  0  0  0  0  0  0  0  0  0  0
  -19.9555  -26.6138   23.3683 C   0  0  0  0  0  0  0  0  0  0  0  0
  -20.3502  -27.9212   23.6518 C   0  0  0  0  0  0  0  0  0  0  0  0
  -30.7837  -22.5039   20.8494 C   0  0  0  0  0  0  0  0  0  0  0  0
  -19.2543  -28.6884   21.6400 C   0  0  0  0  0  0  0  0  0  0  0  0
  -29.0192  -17.2640   19.3395 C   0  0  0  0  0  0  0  0  0  0  0  0
  -21.7958  -22.1965   21.4416 C   0  0  0  0  0  0  0  0  0  0  0  0
  -23.9679  -21.0172   22.0736 C   0  0  0  0  0  0  0  0  0  0  0  0
  -26.2743  -29.6183   20.6360 C   0  0  0  0  0  0  0  0  0  0  0  0
  -29.4878  -24.0205   22.2206 C   0  0  0  0  0  0  0  0  0  0  0  0
  -27.0372  -28.4905   20.2777 C   0  0  0  0  0  0  0  0  0  0  0  0
  -30.7107  -23.6651   21.6339 C   0  0  0  0  0  0  0  0  0  0  0  0
  -19.7948  -24.1112   21.7769 C   0  0  0  0  0  0  0  0  0  0  0  0
  -29.6592  -21.7006   20.6616 C   0  0  0  0  0  0  0  0  0  0  0  0
  -19.2102  -26.3436   22.2205 C   0  0  0  0  0  0  0  0  0  0  0  0
  -19.9996  -28.9585   22.7877 C   0  0  0  0  0  0  0  0  0  0  0  0
  -18.8596  -27.3809   21.3564 C   0  0  0  0  0  0  0  0  0  0  0  0
  -22.8288  -21.2070   21.2684 C   0  0  0  0  0  0  0  0  0  0  0  0
  -28.8613  -18.5954   18.9101 C   0  0  0  0  0  0  0  0  0  0  0  0
  -29.2796  -16.5607   18.1889 C   0  0  0  0  0  0  0  0  0  0  0  0
  -24.6265  -19.9609   21.4932 C   0  0  0  0  0  0  0  0  0  0  0  0
  -24.3926  -21.7319   23.2417 C   0  0  0  0  0  0  0  0  0  0  0  0
  -30.2025  -27.0347   21.5082 C   0  0  0  0  0  0  0  0  0  0  0  0
  -32.8929  -26.3874   23.2009 C   0  0  0  0  0  0  0  0  0  0  0  0
  -35.0870  -24.0504   24.3720 C   0  0  0  0  0  0  0  0  0  0  0  0
  -24.5889  -14.8902   19.1625 C   0  0  0  0  0  0  0  0  0  0  0  0
  -26.9226  -30.9182   21.0418 C   0  0  0  0  0  0  0  0  0  0  0  0
  -29.3861  -25.2462   23.0864 C   0  0  0  0  0  0  0  0  0  0  0  0
  -31.9501  -24.5013   21.8154 C   0  0  0  0  0  0  0  0  0  0  0  0
  -28.3875  -30.7687   21.4444 C   0  0  0  0  0  0  0  0  0  0  0  0
  -23.8931  -17.6668   17.0451 C   0  0  0  0  0  0  0  0  0  0  0  0
  -29.1356  -29.9117   20.4282 C   0  0  0  0  0  0  0  0  0  0  0  0
  -23.6422  -18.8174   18.0213 C   0  0  0  0  0  0  0  0  0  0  0  0
  -23.3530  -16.3432   17.5820 C   0  0  0  0  0  0  0  0  0  0  0  0
  -23.5788  -17.1315   19.9061 C   0  0  0  0  0  0  0  0  0  0  0  0
  -28.5482  -28.4968   20.3609 C   0  0  1  0  0  0  0  0  0  0  0  0
  -30.4631  -26.2832   22.7830 C   0  0  1  0  0  0  0  0  0  0  0  0
  -24.1556  -18.4768   19.4333 C   0  0  2  0  0  0  0  0  0  0  0  0
  -37.2089  -23.8280   25.6931 C   0  0  0  0  0  0  0  0  0  0  0  0
  -34.4925  -27.3572   20.7904 C   0  0  0  0  0  0  0  0  0  0  0  0
  -36.5105  -26.2452   21.7700 C   0  0  0  0  0  0  0  0  0  0  0  0
  -35.3882  -28.1000   23.0041 C   0  0  0  0  0  0  0  0  0  0  0  0
  -29.4843  -17.2264   15.7745 C   0  0  0  0  0  0  0  0  0  0  0  0
  -33.7593  -22.4118   26.4482 C   0  0  0  0  0  0  0  0  0  0  0  0
  -29.9193  -12.9539   19.1245 C   0  0  0  0  0  0  0  0  0  0  0  0
  -28.5577  -19.7983   19.7540 C   0  0  0  0  0  0  0  0  0  1  0  0
  -29.5373  -15.1259   17.9682 C   0  0  0  0  0  0  0  0  0  0  0  0
  -27.3133  -13.7370   20.6691 C   0  0  0  0  0  0  0  0  0  0  0  0
  -25.8115  -13.5525   20.8580 C   0  0  0  0  0  0  0  0  0  0  0  0
  -27.6803  -14.0397   19.2219 C   0  0  0  0  0  0  0  0  0  0  0  0
  -34.2603  -25.8414   22.8675 C   0  0  1  0  0  0  0  0  0  0  0  0
  -35.6892  -23.8347   25.7487 C   0  0  2  0  0  0  0  0  0  0  0  0
  -35.1392  -26.8710   22.1028 C   0  0  0  0  0  0  0  0  0  0  0  0
  -22.7644  -20.3407   20.2538 N   0  0  0  0  0  0  0  0  0  0  0  0
  -29.0092  -18.7323   17.5897 N   0  0  0  0  0  0  0  0  0  0  0  0
  -29.2628  -17.4779   17.1795 N   0  0  0  0  0  0  0  0  0  0  0  0
  -23.8714  -19.5965   20.4174 N   0  0  0  0  0  0  0  0  0  0  0  0
  -31.7983  -25.6936   22.6657 N   0  0  0  0  0  0  0  0  0  0  0  0
  -23.8792  -16.0785   18.9233 N   0  0  0  0  0  0  0  0  0  0  0  0
  -25.7720  -19.3175   21.8033 N   0  0  0  0  0  0  0  0  0  0  0  0
  -23.5980  -22.7902   23.7032 N   0  0  0  0  0  0  0  0  0  0  0  0
  -28.9967  -27.7092   21.4892 N   0  0  0  0  0  0  0  0  0  0  0  0
  -34.8356  -25.3840   24.1278 N   0  0  0  0  0  0  0  0  0  0  0  0
  -25.0586  -14.7207   20.4592 N   0  0  0  0  0  0  0  0  0  0  0  0
  -35.2339  -22.5336   26.3151 N   0  3  0  0  0  0  0  0  0  0  0  0
  -29.1660  -14.2562   19.1271 N   0  3  1  0  0  0  0  0  0  0  0  0
  -25.4540  -21.4512   23.8484 O   0  0  0  0  0  0  0  0  0  0  0  0
  -31.0346  -27.0059   20.6090 O   0  0  0  0  0  0  0  0  0  0  0  0
  -32.7992  -27.3882   23.9158 O   0  0  0  0  0  0  0  0  0  0  0  0
  -34.8656  -23.1286   23.5899 O   0  0  0  0  0  0  0  0  0  0  0  0
  -24.7937  -14.0455   18.2841 O   0  0  0  0  0  0  0  0  0  0  0  0
  -18.8184  -25.0452   21.9408 O   0  0  0  0  0  0  0  0  0  0  0  0
  -29.7450  -20.5764   19.8996 O   0  0  0  0  0  0  0  0  0  1  0  0
  -20.3774  -30.2142   23.0609 F   0  0  0  0  0  0  0  0  0  0  0  0
  -18.1427  -27.1277   20.2529 F   0  0  0  0  0  0  0  0  0  0  0  0
  1  2  1  0  0  0  0
  1  5  2  0  0  0  0
  2  6  2  0  0  0  0
  3  8  2  0  0  0  0
  3 16  1  0  0  0  0
  4  9  1  0  0  0  0
  4 16  2  0  0  0  0
  5 18  1  0  0  0  0
  6 20  1  0  0  0  0
  7 10  2  0  0  0  0
  7 19  1  0  0  0  0
  8 22  1  0  0  0  0
  9 22  2  0  0  0  0
 10 23  1  0  0  0  0
 11 12  2  0  0  0  0
 11 24  1  0  0  0  0
 12 25  1  0  0  0  0
 13 21  1  0  0  0  0
 13 23  2  0  0  0  0
 14 25  2  0  0  0  0
 14 26  1  0  0  0  0
 15 28  1  0  0  0  0
 15 29  2  0  0  0  0
 16 27  1  0  0  0  0
 17 27  1  0  0  0  0
 17 30  2  0  0  0  0
 17 31  1  0  0  0  0
 18 20  2  0  0  0  0
 18 36  1  0  0  0  0
 19 21  2  0  0  0  0
 19 37  1  0  0  0  0
 20 45  1  0  0  0  0
 21 38  1  0  0  0  0
 22 81  1  0  0  0  0
 23 82  1  0  0  0  0
 24 26  2  0  0  0  0
 24 81  1  0  0  0  0
 25 83  1  0  0  0  0
 26 84  1  0  0  0  0
 27 63  2  0  0  0  0
 28 55  1  0  0  0  0
 28 64  2  0  0  0  0
 29 56  1  0  0  0  0
 29 65  1  0  0  0  0
 30 66  1  0  0  0  0
 30 69  1  0  0  0  0
 31 70  1  0  0  0  0
 31 76  2  0  0  0  0
 32 46  1  0  0  0  0
 32 71  1  0  0  0  0
 32 77  2  0  0  0  0
 33 60  1  0  0  0  0
 33 67  1  0  0  0  0
 33 78  2  0  0  0  0
 34 61  1  0  0  0  0
 34 72  1  0  0  0  0
 34 79  2  0  0  0  0
 35 68  1  0  0  0  0
 35 73  1  0  0  0  0
 35 80  2  0  0  0  0
 36 39  1  0  0  0  0
 37 46  1  0  0  0  0
 38 67  1  0  0  0  0
 39 41  1  0  0  0  0
 40 42  1  0  0  0  0
 40 43  1  0  0  0  0
 41 45  1  0  0  0  0
 42 47  1  0  0  0  0
 43 68  1  0  0  0  0
 44 47  1  0  0  0  0
 44 68  1  0  0  0  0
 45 71  1  0  0  0  0
 46 67  1  0  0  0  0
 47 66  1  0  0  0  0
 48 61  1  0  0  0  0
 49 62  1  0  0  0  0
 50 62  1  0  0  0  0
 51 62  1  0  0  0  0
 52 65  1  0  0  0  0
 53 74  1  0  0  0  0
 54 75  1  0  0  0  0
 55 82  1  0  0  0  0
 56 75  1  0  0  0  0
 57 58  1  0  0  0  0
 57 59  1  0  0  0  0
 58 73  1  0  0  0  0
 59 75  1  0  0  0  0
 60 62  1  0  0  0  0
 60 72  1  0  0  0  0
 61 74  1  0  0  0  0
 63 66  1  0  0  0  0
 64 65  1  0  0  0  0
M  CHG  2  74   1  75   1
M  ISO  4  35 100  55 101  73 100  82 101
M  END
> <Batch ID>
0050

> <Smiles>
CNC(C)C(=O)NC(C(=O)N1Cc2cc([101O:1][101CH2:1]c3cc(CN(C)CCC[100NH:0][100C:0](=O)N4CCCC(n5nc(-c6ccc(Oc7ccc(F)cc7F)cc6)c(C(N)=O)c5N)C4)n(C)n3)ccc2CC1C(=O)NC1CCCc2ccccc21)C(C)(C)C

> <Shape>
0.196

> <Color>
0.062

> <Negative vol penalty>
0.000

$$$$

  -OEChem-04052317313D

 86 94  0     1  0  0  0  0  0999 V2000
  -19.2568  -33.9687   24.2430 C   0  0  0  0  0  0  0  0  0  0  0  0
  -20.5754  -33.8905   23.8064 C   0  0  0  0  0  0  0  0  0  0  0  0
  -23.2111  -10.3065   22.1577 C   0  0  0  0  0  0  0  0  0  0  0  0
  -23.3239   -9.7966   19.7988 C   0  0  0  0  0  0  0  0  0  0  0  0
  -18.5699  -32.8073   24.5940 C   0  0  0  0  0  0  0  0  0  0  0  0
  -21.2082  -32.6509   23.7217 C   0  0  0  0  0  0  0  0  0  0  0  0
  -26.0996  -29.1332   19.8465 C   0  0  0  0  0  0  0  0  0  0  0  0
  -22.5836   -9.0831   22.3922 C   0  0  0  0  0  0  0  0  0  0  0  0
  -22.6964   -8.5731   20.0333 C   0  0  0  0  0  0  0  0  0  0  0  0
  -27.2712  -28.3942   20.0051 C   0  0  0  0  0  0  0  0  0  0  0  0
  -23.4836   -5.8364   22.6782 C   0  0  0  0  0  0  0  0  0  0  0  0
  -23.9315   -5.0745   23.7573 C   0  0  0  0  0  0  0  0  0  0  0  0
  -25.9605  -26.4472   20.5622 C   0  0  0  0  0  0  0  0  0  0  0  0
  -21.7272   -5.1727   24.7416 C   0  0  0  0  0  0  0  0  0  0  0  0
  -28.9200  -23.3236   19.3179 C   0  0  0  0  0  0  0  0  0  0  0  0
  -23.5812  -10.6633   20.8610 C   0  0  0  0  0  0  0  0  0  0  0  0
  -25.6120  -12.1893   20.6273 C   0  0  0  0  0  0  0  0  0  0  0  0
  -19.1915  -31.5518   24.5043 C   0  0  0  0  0  0  0  0  0  0  0  0
  -24.8479  -28.5366   20.0556 C   0  0  0  0  0  0  0  0  0  0  0  0
  -20.5294  -31.4717   24.0731 C   0  0  0  0  0  0  0  0  0  0  0  0
  -24.7745  -27.1801   20.4032 C   0  0  0  0  0  0  0  0  0  0  0  0
  -22.3262   -8.2164   21.3300 C   0  0  0  0  0  0  0  0  0  0  0  0
  -27.2018  -27.0518   20.3658 C   0  0  0  0  0  0  0  0  0  0  0  0
  -22.1575   -6.2666   22.6309 C   0  0  0  0  0  0  0  0  0  0  0  0
  -23.0533   -4.7426   24.7890 C   0  0  0  0  0  0  0  0  0  0  0  0
  -21.2794   -5.9347   23.6625 C   0  0  0  0  0  0  0  0  0  0  0  0
  -24.2289  -11.9273   20.6180 C   0  0  0  0  0  0  0  0  0  0  0  0
  -29.6567  -24.3863   18.7612 C   0  0  0  0  0  0  0  0  0  0  0  0
  -28.4844  -22.6025   18.2331 C   0  0  0  0  0  0  0  0  0  0  0  0
  -25.7096  -13.5292   20.3415 C   0  0  0  0  0  0  0  0  0  0  0  0
  -26.7105  -11.3010   20.8724 C   0  0  0  0  0  0  0  0  0  0  0  0
  -22.4410  -29.0214   22.0743 C   0  0  0  0  0  0  0  0  0  0  0  0
  -20.9745  -26.7717   20.2548 C   0  0  0  0  0  0  0  0  0  0  0  0
  -21.2735  -24.1250   18.1212 C   0  0  0  0  0  0  0  0  0  0  0  0
  -24.0020  -17.6525   16.9228 C   0  0  0  0  0  0  0  0  0  0  0  0
  -18.4238  -30.3288   24.9397 C   0  0  0  0  0  0  0  0  0  0  0  0
  -23.5927  -29.3404   19.8545 C   0  0  0  0  0  0  0  0  0  0  0  0
  -23.4548  -26.4873   20.6194 C   0  0  0  0  0  0  0  0  0  0  0  0
  -19.0456  -29.0182   24.4646 C   0  0  0  0  0  0  0  0  0  0  0  0
  -22.1797  -17.1329   20.1479 C   0  0  0  0  0  0  0  0  0  0  0  0
  -20.5494  -29.0170   24.7208 C   0  0  0  0  0  0  0  0  0  0  0  0
  -22.6263  -15.7173   20.5103 C   0  0  0  0  0  0  0  0  0  0  0  0
  -22.1742  -17.3403   18.6382 C   0  0  0  0  0  0  0  0  0  0  0  0
  -23.9375  -15.6318   18.3404 C   0  0  0  0  0  0  0  0  0  0  0  0
  -21.2423  -30.1430   23.9440 C   0  0  1  0  0  0  0  0  0  0  0  0
  -22.3894  -28.7647   20.5948 C   0  0  1  0  0  0  0  0  0  0  0  0
  -23.9782  -15.3828   19.8573 C   0  0  2  0  0  0  0  0  0  0  0  0
  -19.8978  -22.4692   16.8315 C   0  0  0  0  0  0  0  0  0  0  0  0
  -20.4203  -25.2306   22.8293 C   0  0  0  0  0  0  0  0  0  0  0  0
  -19.9255  -23.2126   21.4324 C   0  0  0  0  0  0  0  0  0  0  0  0
  -18.5211  -25.2613   21.2024 C   0  0  0  0  0  0  0  0  0  0  0  0
  -28.7795  -22.8780   15.7529 C   0  0  0  0  0  0  0  0  0  0  0  0
  -21.9552  -19.1391   16.9135 C   0  0  0  0  0  0  0  0  0  0  0  0
  -22.3533  -25.0690   15.5325 C   0  0  0  0  0  0  0  0  0  0  0  0
  -25.4082  -22.1839   18.8183 C   0  0  0  0  0  0  0  0  0  0  0  0
  -30.3661  -25.4977   19.4959 C   0  0  0  0  0  0  0  0  0  0  0  0
  -27.6673  -21.3782   18.1489 C   0  0  0  0  0  0  0  0  0  0  0  0
  -24.5308  -20.8155   16.1447 C   0  0  0  0  0  0  0  0  0  0  0  0
  -23.8798  -19.6252   15.4487 C   0  0  0  0  0  0  0  0  0  0  0  0
  -25.6336  -20.3900   17.1057 C   0  0  0  0  0  0  0  0  0  0  0  0
  -29.4664  -26.7071   19.7264 C   0  0  0  0  0  0  0  0  0  1  0  0
  -20.8785  -25.2655   20.2886 C   0  0  1  0  0  0  0  0  0  0  0  0
  -20.5992  -23.8181   16.7962 C   0  0  2  0  0  0  0  0  0  0  0  0
  -19.9615  -24.7558   21.4361 C   0  0  0  0  0  0  0  0  0  0  0  0
  -23.5001  -13.0135   20.3479 N   0  0  0  0  0  0  0  0  0  0  0  0
  -29.6896  -24.3474   17.4265 N   0  0  0  0  0  0  0  0  0  0  0  0
  -28.9682  -23.2516   17.1354 N   0  0  0  0  0  0  0  0  0  0  0  0
  -24.4288  -13.9711   20.1848 N   0  0  0  0  0  0  0  0  0  0  0  0
  -22.2558  -27.3174   20.4169 N   0  0  0  0  0  0  0  0  0  0  0  0
  -23.4667  -16.9853   18.0370 N   0  0  0  0  0  0  0  0  0  0  0  0
  -26.7651  -14.3607   20.2115 N   0  0  0  0  0  0  0  0  0  0  0  0
  -26.4326   -9.9558   21.1506 N   0  0  0  0  0  0  0  0  0  0  0  0
  -21.3889  -29.7800   22.5508 N   0  0  0  0  0  0  0  0  0  0  0  0
  -20.4524  -24.8537   18.9555 N   0  0  0  0  0  0  0  0  0  0  0  0
  -23.2496  -18.7096   16.3891 N   0  0  0  0  0  0  0  0  0  0  0  0
  -21.6045  -23.7965   15.6962 N   0  3  0  0  0  0  0  0  0  0  0  0
  -26.2566  -21.6176   17.7125 N   0  3  1  0  0  0  0  0  0  0  0  0
  -27.9023  -11.6922   20.8615 O   0  0  0  0  0  0  0  0  0  0  0  0
  -23.3661  -28.5638   22.7350 O   0  0  0  0  0  0  0  0  0  0  0  0
  -19.9514  -27.4392   20.0836 O   0  0  0  0  0  0  0  0  0  0  0  0
  -22.4132  -23.7521   18.3908 O   0  0  0  0  0  0  0  0  0  0  0  0
  -25.0946  -17.3288   16.4398 O   0  0  0  0  0  0  0  0  0  0  0  0
  -21.7141   -7.0223   21.5585 O   0  0  0  0  0  0  0  0  0  0  0  0
  -28.3438  -26.3284   20.5219 O   0  0  0  0  0  0  0  0  0  1  0  0
  -23.4832   -4.0095   25.8244 F   0  0  0  0  0  0  0  0  0  0  0  0
  -20.0040   -6.3441   23.6220 F   0  0  0  0  0  0  0  0  0  0  0  0
  1  2  1  0  0  0  0
  1  5  2  0  0  0  0
  2  6  2  0  0  0  0
  3  8  2  0  0  0  0
  3 16  1  0  0  0  0
  4  9  1  0  0  0  0
  4 16  2  0  0  0  0
  5 18  1  0  0  0  0
  6 20  1  0  0  0  0
  7 10  2  0  0  0  0
  7 19  1  0  0  0  0
  8 22  1  0  0  0  0
  9 22  2  0  0  0  0
 10 23  1  0  0  0  0
 11 12  2  0  0  0  0
 11 24  1  0  0  0  0
 12 25  1  0  0  0  0
 13 21  1  0  0  0  0
 13 23  2  0  0  0  0
 14 25  2  0  0  0  0
 14 26  1  0  0  0  0
 15 28  1  0  0  0  0
 15 29  2  0  0  0  0
 16 27  1  0  0  0  0
 17 27  1  0  0  0  0
 17 30  2  0  0  0  0
 17 31  1  0  0  0  0
 18 20  2  0  0  0  0
 18 36  1  0  0  0  0
 19 21  2  0  0  0  0
 19 37  1  0  0  0  0
 20 45  1  0  0  0  0
 21 38  1  0  0  0  0
 22 83  1  0  0  0  0
 23 84  1  0  0  0  0
 24 26  2  0  0  0  0
 24 83  1  0  0  0  0
 25 85  1  0  0  0  0
 26 86  1  0  0  0  0
 27 65  2  0  0  0  0
 28 56  1  0  0  0  0
 28 66  2  0  0  0  0
 29 57  1  0  0  0  0
 29 67  1  0  0  0  0
 30 68  1  0  0  0  0
 30 71  1  0  0  0  0
 31 72  1  0  0  0  0
 31 78  2  0  0  0  0
 32 46  1  0  0  0  0
 32 73  1  0  0  0  0
 32 79  2  0  0  0  0
 33 62  1  0  0  0  0
 33 69  1  0  0  0  0
 33 80  2  0  0  0  0
 34 63  1  0  0  0  0
 34 74  1  0  0  0  0
 34 81  2  0  0  0  0
 35 70  1  0  0  0  0
 35 75  1  0  0  0  0
 35 82  2  0  0  0  0
 36 39  1  0  0  0  0
 37 46  1  0  0  0  0
 38 69  1  0  0  0  0
 39 41  1  0  0  0  0
 40 42  1  0  0  0  0
 40 43  1  0  0  0  0
 41 45  1  0  0  0  0
 42 47  1  0  0  0  0
 43 70  1  0  0  0  0
 44 47  1  0  0  0  0
 44 70  1  0  0  0  0
 45 73  1  0  0  0  0
 46 69  1  0  0  0  0
 47 68  1  0  0  0  0
 48 63  1  0  0  0  0
 49 64  1  0  0  0  0
 50 64  1  0  0  0  0
 51 64  1  0  0  0  0
 52 67  1  0  0  0  0
 53 75  1  0  0  0  0
 54 76  1  0  0  0  0
 55 77  1  0  0  0  0
 56 61  1  0  0  0  0
 57 77  1  0  0  0  0
 58 59  1  0  0  0  0
 58 60  1  0  0  0  0
 59 75  1  0  0  0  0
 60 77  1  0  0  0  0
 61 84  1  0  0  0  0
 62 64  1  0  0  0  0
 62 74  1  0  0  0  0
 63 76  1  0  0  0  0
 65 68  1  0  0  0  0
 66 67  1  0  0  0  0
M  CHG  2  76   1  77   1
M  ISO  4  35 100  61 101  75 100  84 101
M  END
> <Batch ID>
0050

> <Smiles>
CNC(C)C(=O)NC(C(=O)N1Cc2cc([101O:1][101CH2:1]Cc3cc(CN(C)CCC[100N:0](C)[100C:0](=O)N4CCCC(n5nc(-c6ccc(Oc7ccc(F)cc7F)cc6)c(C(N)=O)c5N)C4)n(C)n3)ccc2CC1C(=O)NC1CCCc2ccccc21)C(C)(C)C

> <Shape>
0.242

> <Color>
0.120

> <Negative vol penalty>
0.000

$$$$

  -OEChem-04052317313D

 87 95  0     1  0  0  0  0  0999 V2000
  -18.2407  -33.1319   23.0369 C   0  0  0  0  0  0  0  0  0  0  0  0
  -19.5607  -32.7853   23.3066 C   0  0  0  0  0  0  0  0  0  0  0  0
  -25.3623  -13.3719   21.4701 C   0  0  0  0  0  0  0  0  0  0  0  0
  -26.5963  -12.8896   19.4497 C   0  0  0  0  0  0  0  0  0  0  0  0
  -17.2587  -32.1436   22.9833 C   0  0  0  0  0  0  0  0  0  0  0  0
  -19.8994  -31.4501   23.5238 C   0  0  0  0  0  0  0  0  0  0  0  0
  -25.1154  -28.6679   21.9245 C   0  0  0  0  0  0  0  0  0  0  0  0
  -24.4134  -12.4114   21.1198 C   0  0  0  0  0  0  0  0  0  0  0  0
  -25.6474  -11.9291   19.0995 C   0  0  0  0  0  0  0  0  0  0  0  0
  -26.2719  -28.3601   22.6398 C   0  0  0  0  0  0  0  0  0  0  0  0
  -24.1264   -9.0437   21.2126 C   0  0  0  0  0  0  0  0  0  0  0  0
  -23.7000   -8.1614   22.2054 C   0  0  0  0  0  0  0  0  0  0  0  0
  -25.4234  -26.1384   23.0438 C   0  0  0  0  0  0  0  0  0  0  0  0
  -21.4321   -8.9473   21.9297 C   0  0  0  0  0  0  0  0  0  0  0  0
  -30.9158  -25.4716   20.7553 C   0  0  0  0  0  0  0  0  0  0  0  0
  -26.4538  -13.6110   20.6350 C   0  0  0  0  0  0  0  0  0  0  0  0
  -28.6024  -14.4071   21.7563 C   0  0  0  0  0  0  0  0  0  0  0  0
  -17.5871  -30.7945   23.1904 C   0  0  0  0  0  0  0  0  0  0  0  0
  -24.0978  -27.7152   21.7725 C   0  0  0  0  0  0  0  0  0  0  0  0
  -18.9206  -30.4430   23.4742 C   0  0  0  0  0  0  0  0  0  0  0  0
  -24.2561  -26.4358   22.3240 C   0  0  0  0  0  0  0  0  0  0  0  0
  -24.5560  -11.6900   19.9345 C   0  0  0  0  0  0  0  0  0  0  0  0
  -26.4247  -27.0962   23.2020 C   0  0  0  0  0  0  0  0  0  0  0  0
  -23.2056   -9.8778   20.5785 C   0  0  0  0  0  0  0  0  0  0  0  0
  -22.3529   -8.1132   22.5639 C   0  0  0  0  0  0  0  0  0  0  0  0
  -21.8585   -9.8296   20.9370 C   0  0  0  0  0  0  0  0  0  0  0  0
  -27.4340  -14.6035   20.9960 C   0  0  0  0  0  0  0  0  0  0  0  0
  -29.7766  -25.3971   21.5260 C   0  0  0  0  0  0  0  0  0  0  0  0
  -28.4916  -25.6408   19.6500 C   0  0  0  0  0  0  0  0  0  0  0  0
  -29.6309  -25.7161   18.8795 C   0  0  0  0  0  0  0  0  0  0  0  0
  -29.1863  -15.6489   21.8155 C   0  0  0  0  0  0  0  0  0  0  0  0
  -29.1142  -13.2092   22.3554 C   0  0  0  0  0  0  0  0  0  0  0  0
  -21.0442  -27.5374   22.6372 C   0  0  0  0  0  0  0  0  0  0  0  0
  -28.7939  -20.3134   18.1600 C   0  0  0  0  0  0  0  0  0  0  0  0
  -21.1091  -24.8123   20.8787 C   0  0  0  0  0  0  0  0  0  0  0  0
  -22.9496  -22.2608   19.5563 C   0  0  0  0  0  0  0  0  0  0  0  0
  -16.4832  -29.7671   23.1692 C   0  0  0  0  0  0  0  0  0  0  0  0
  -22.8681  -28.0542   20.9753 C   0  0  0  0  0  0  0  0  0  0  0  0
  -23.2020  -25.3708   22.1722 C   0  0  0  0  0  0  0  0  0  0  0  0
  -16.9887  -28.3325   23.0404 C   0  0  0  0  0  0  0  0  0  0  0  0
  -28.1191  -20.3049   21.7337 C   0  0  0  0  0  0  0  0  0  0  0  0
  -18.1440  -28.0849   24.0051 C   0  0  0  0  0  0  0  0  0  0  0  0
  -27.9454  -18.8117   22.0084 C   0  0  0  0  0  0  0  0  0  0  0  0
  -27.5768  -20.6896   20.3597 C   0  0  0  0  0  0  0  0  0  0  0  0
  -27.9893  -18.4023   19.5097 C   0  0  0  0  0  0  0  0  0  0  0  0
  -19.3315  -29.0028   23.6909 C   0  0  1  0  0  0  0  0  0  0  0  0
  -21.6707  -27.1742   21.3207 C   0  0  1  0  0  0  0  0  0  0  0  0
  -28.5515  -17.9677   20.8735 C   0  0  2  0  0  0  0  0  0  0  0  0
  -27.1342  -25.7337   19.0413 C   0  0  0  0  0  0  0  0  0  0  0  0
  -22.7185  -20.1629   18.1987 C   0  0  0  0  0  0  0  0  0  0  0  0
  -28.6633  -22.1756   15.5132 C   0  0  0  0  0  0  0  0  0  0  0  0
  -19.9902  -23.3601   23.3178 C   0  0  0  0  0  0  0  0  0  0  0  0
  -20.6690  -21.1974   22.2547 C   0  0  0  0  0  0  0  0  0  0  0  0
  -18.9868  -22.6611   21.1364 C   0  0  0  0  0  0  0  0  0  0  0  0
  -24.6934  -23.3183   17.4115 C   0  0  0  0  0  0  0  0  0  0  0  0
  -31.3916  -23.7446   15.9542 C   0  0  0  0  0  0  0  0  0  0  0  0
  -29.8739  -25.2178   23.0200 C   0  0  0  0  0  0  0  0  0  0  0  0
  -29.5592  -25.8938   17.4013 C   0  0  0  0  0  0  0  0  0  0  0  0
  -28.8864  -21.8101   18.0010 C   0  0  0  0  0  0  0  0  0  0  0  0
  -29.9352  -26.5354   23.7958 C   0  0  0  0  0  0  0  0  0  0  0  0
  -29.1660  -24.6292   16.6356 C   0  0  0  0  0  0  0  0  0  0  0  0
  -28.7546  -27.4574   23.5142 C   0  0  0  0  0  0  0  0  0  1  0  0
  -21.4157  -23.3622   21.1652 C   0  0  1  0  0  0  0  0  0  0  0  0
  -22.9831  -21.6601   18.1625 C   0  0  2  0  0  0  0  0  0  0  0  0
  -29.6069  -22.1795   16.7073 C   0  0  2  0  0  0  0  0  0  0  0  0
  -20.2846  -22.6656   21.9732 C   0  0  0  0  0  0  0  0  0  0  0  0
  -30.8635  -25.6325   19.4182 N   0  0  0  0  0  0  0  0  0  0  0  0
  -27.2829  -15.8703   20.6007 N   0  0  0  0  0  0  0  0  0  0  0  0
  -28.5440  -25.4803   20.9872 N   0  0  0  0  0  0  0  0  0  0  0  0
  -28.3640  -16.4812   21.1147 N   0  0  0  0  0  0  0  0  0  0  0  0
  -22.0151  -25.7527   21.3893 N   0  0  0  0  0  0  0  0  0  0  0  0
  -28.1577  -19.8445   19.3095 N   0  0  0  0  0  0  0  0  0  0  0  0
  -30.3177  -16.0991   22.3983 N   0  0  0  0  0  0  0  0  0  0  0  0
  -28.3889  -12.0204   22.1971 N   0  0  0  0  0  0  0  0  0  0  0  0
  -20.0641  -28.5072   22.5454 N   0  0  0  0  0  0  0  0  0  0  0  0
  -21.6974  -22.7420   19.8750 N   0  0  0  0  0  0  0  0  0  0  0  0
  -24.3145  -21.8869   17.5326 N   0  3  0  0  0  0  0  0  0  0  0  0
  -30.1827  -23.5681   16.8399 N   0  3  1  0  0  0  0  0  0  0  0  0
  -30.1745  -13.1969   23.0255 O   0  0  0  0  0  0  0  0  0  0  0  0
  -21.4209  -26.9780   23.6604 O   0  0  0  0  0  0  0  0  0  0  0  0
  -29.2758  -19.5846   17.2889 O   0  0  0  0  0  0  0  0  0  0  0  0
  -20.1066  -25.0997   20.2199 O   0  0  0  0  0  0  0  0  0  0  0  0
  -23.9347  -22.2960   20.2903 O   0  0  0  0  0  0  0  0  0  0  0  0
  -23.6304  -10.7525   19.5925 O   0  0  0  0  0  0  0  0  0  0  0  0
  -27.5522  -26.7934   23.9013 O   0  0  0  0  0  0  0  0  0  1  0  0
  -21.9434   -7.2649   23.5161 F   0  0  0  0  0  0  0  0  0  0  0  0
  -20.9691  -10.6276   20.3304 F   0  0  0  0  0  0  0  0  0  0  0  0
  1  2  1  0  0  0  0
  1  5  2  0  0  0  0
  2  6  2  0  0  0  0
  3  8  2  0  0  0  0
  3 16  1  0  0  0  0
  4  9  1  0  0  0  0
  4 16  2  0  0  0  0
  5 18  1  0  0  0  0
  6 20  1  0  0  0  0
  7 10  2  0  0  0  0
  7 19  1  0  0  0  0
  8 22  1  0  0  0  0
  9 22  2  0  0  0  0
 10 23  1  0  0  0  0
 11 12  2  0  0  0  0
 11 24  1  0  0  0  0
 12 25  1  0  0  0  0
 13 21  1  0  0  0  0
 13 23  2  0  0  0  0
 14 25  2  0  0  0  0
 14 26  1  0  0  0  0
 15 28  1  0  0  0  0
 15 67  2  0  0  0  0
 16 27  1  0  0  0  0
 17 27  1  0  0  0  0
 17 31  2  0  0  0  0
 17 32  1  0  0  0  0
 18 20  2  0  0  0  0
 18 37  1  0  0  0  0
 19 21  2  0  0  0  0
 19 38  1  0  0  0  0
 20 46  1  0  0  0  0
 21 39  1  0  0  0  0
 22 84  1  0  0  0  0
 23 85  1  0  0  0  0
 24 26  2  0  0  0  0
 24 84  1  0  0  0  0
 25 86  1  0  0  0  0
 26 87  1  0  0  0  0
 27 68  2  0  0  0  0
 28 57  1  0  0  0  0
 28 69  2  0  0  0  0
 29 30  2  0  0  0  0
 29 49  1  0  0  0  0
 29 69  1  0  0  0  0
 30 58  1  0  0  0  0
 30 67  1  0  0  0  0
 31 70  1  0  0  0  0
 31 73  1  0  0  0  0
 32 74  1  0  0  0  0
 32 79  2  0  0  0  0
 33 47  1  0  0  0  0
 33 75  1  0  0  0  0
 33 80  2  0  0  0  0
 34 59  1  0  0  0  0
 34 72  1  0  0  0  0
 34 81  2  0  0  0  0
 35 63  1  0  0  0  0
 35 71  1  0  0  0  0
 35 82  2  0  0  0  0
 36 64  1  0  0  0  0
 36 76  1  0  0  0  0
 36 83  2  0  0  0  0
 37 40  1  0  0  0  0
 38 47  1  0  0  0  0
 39 71  1  0  0  0  0
 40 42  1  0  0  0  0
 41 43  1  0  0  0  0
 41 44  1  0  0  0  0
 42 46  1  0  0  0  0
 43 48  1  0  0  0  0
 44 72  1  0  0  0  0
 45 48  1  0  0  0  0
 45 72  1  0  0  0  0
 46 75  1  0  0  0  0
 47 71  1  0  0  0  0
 48 70  1  0  0  0  0
 50 64  1  0  0  0  0
 51 65  1  0  0  0  0
 52 66  1  0  0  0  0
 53 66  1  0  0  0  0
 54 66  1  0  0  0  0
 55 77  1  0  0  0  0
 56 78  1  0  0  0  0
 57 60  1  0  0  0  0
 58 61  1  0  0  0  0
 59 65  1  0  0  0  0
 60 62  1  0  0  0  0
 61 78  1  0  0  0  0
 62 85  1  0  0  0  0
 63 66  1  0  0  0  0
 63 76  1  0  0  0  0
 64 77  1  0  0  0  0
 65 78  1  0  0  0  0
 68 70  1  0  0  0  0
M  CHG  2  77   1  78   1
M  ISO  4  34 100  59 100  62 101  85 101
M  END
> <Batch ID>
0050

> <Smiles>
CNC(C)C(=O)NC(C(=O)N1Cc2cc([101O:1][101CH2:1]CCc3cnc(CCN(C)C(C)[100CH2:0][100C:0](=O)N4CCCC(n5nc(-c6ccc(Oc7ccc(F)cc7F)cc6)c(C(N)=O)c5N)C4)c(C)n3)ccc2CC1C(=O)NC1CCCc2ccccc21)C(C)(C)C

> <Shape>
0.246

> <Color>
0.067

> <Negative vol penalty>
0.000

$$$$

  -OEChem-04052317313D

 81 89  0     1  0  0  0  0  0999 V2000
  -29.0999  -11.5232   20.3895 C   0  0  0  0  0  0  0  0  0  0  0  0
  -29.1326  -12.8321   19.9195 C   0  0  0  0  0  0  0  0  0  0  0  0
  -20.0682  -26.4411   23.0485 C   0  0  0  0  0  0  0  0  0  0  0  0
  -20.0240  -28.0552   21.2513 C   0  0  0  0  0  0  0  0  0  0  0  0
  -27.8802  -10.9305   20.7137 C   0  0  0  0  0  0  0  0  0  0  0  0
  -27.9456  -13.5488   19.7723 C   0  0  0  0  0  0  0  0  0  0  0  0
  -28.2943  -18.2738   21.5606 C   0  0  0  0  0  0  0  0  0  0  0  0
  -19.1435  -27.2066   23.7587 C   0  0  0  0  0  0  0  0  0  0  0  0
  -19.0992  -28.8207   21.9615 C   0  0  0  0  0  0  0  0  0  0  0  0
  -28.9501  -19.2099   20.7623 C   0  0  0  0  0  0  0  0  0  0  0  0
  -15.8058  -27.7463   23.7233 C   0  0  0  0  0  0  0  0  0  0  0  0
  -14.7372  -27.0800   24.3232 C   0  0  0  0  0  0  0  0  0  0  0  0
  -26.8186  -20.0486   20.0054 C   0  0  0  0  0  0  0  0  0  0  0  0
  -15.4500  -27.8849   26.4868 C   0  0  0  0  0  0  0  0  0  0  0  0
  -31.1252  -24.2337   19.4257 C   0  0  0  0  0  0  0  0  0  0  0  0
  -28.8422  -25.1320   18.3728 C   0  0  0  0  0  0  0  0  0  0  0  0
  -20.5085  -26.8654   21.7948 C   0  0  0  0  0  0  0  0  0  0  0  0
  -21.1885  -25.0451   20.1420 C   0  0  0  0  0  0  0  0  0  0  0  0
  -26.6785  -11.6435   20.5796 C   0  0  0  0  0  0  0  0  0  0  0  0
  -26.8936  -18.2107   21.5790 C   0  0  0  0  0  0  0  0  0  0  0  0
  -26.7086  -12.9646   20.0937 C   0  0  0  0  0  0  0  0  0  0  0  0
  -26.1475  -19.1124   20.8068 C   0  0  0  0  0  0  0  0  0  0  0  0
  -18.6589  -28.3963   23.2153 C   0  0  0  0  0  0  0  0  0  0  0  0
  -28.2123  -20.0956   19.9823 C   0  0  0  0  0  0  0  0  0  0  0  0
  -16.6965  -28.4818   24.5051 C   0  0  0  0  0  0  0  0  0  0  0  0
  -14.5593  -27.1493   25.7049 C   0  0  0  0  0  0  0  0  0  0  0  0
  -16.5186  -28.5512   25.8869 C   0  0  0  0  0  0  0  0  0  0  0  0
  -21.4642  -26.0754   21.0608 C   0  0  0  0  0  0  0  0  0  0  0  0
  -30.3679  -23.4424   18.5903 C   0  0  0  0  0  0  0  0  0  0  0  0
  -29.5990  -25.9231   19.2087 C   0  0  0  0  0  0  0  0  0  0  0  0
  -22.4252  -24.6165   19.7255 C   0  0  0  0  0  0  0  0  0  0  0  0
  -19.9274  -24.5223   19.7040 C   0  0  0  0  0  0  0  0  0  0  0  0
  -24.7370  -16.0078   20.8044 C   0  0  0  0  0  0  0  0  0  0  0  0
  -22.6593  -18.1621   22.0551 C   0  0  0  0  0  0  0  0  0  0  0  0
  -27.6557  -27.4234   19.5295 C   0  0  0  0  0  0  0  0  0  0  0  0
  -21.9816  -21.4123   22.8449 C   0  0  0  0  0  0  0  0  0  0  0  0
  -25.3803  -10.9447   20.8977 C   0  0  0  0  0  0  0  0  0  0  0  0
  -26.2010  -17.2127   22.4660 C   0  0  0  0  0  0  0  0  0  0  0  0
  -24.6414  -19.0992   20.8067 C   0  0  0  0  0  0  0  0  0  0  0  0
  -24.2010  -11.8987   21.0686 C   0  0  0  0  0  0  0  0  0  0  0  0
  -26.9605  -24.2603   21.1842 C   0  0  0  0  0  0  0  0  0  0  0  0
  -24.1748  -12.9229   19.9385 C   0  0  0  0  0  0  0  0  0  0  0  0
  -25.4357  -24.2935   21.2789 C   0  0  0  0  0  0  0  0  0  0  0  0
  -27.5637  -25.6525   21.3508 C   0  0  0  0  0  0  0  0  0  0  0  0
  -25.4933  -26.6988   20.4887 C   0  0  0  0  0  0  0  0  0  0  0  0
  -25.4444  -13.7829   19.9439 C   0  0  1  0  0  0  0  0  0  0  0  0
  -24.7782  -16.8980   22.0142 C   0  0  1  0  0  0  0  0  0  0  0  0
  -24.8439  -25.3182   20.2954 C   0  0  2  0  0  0  0  0  0  0  0  0
  -20.1868  -22.8692   23.8213 C   0  0  0  0  0  0  0  0  0  0  0  0
  -29.7124  -28.3326   18.5203 C   0  0  0  0  0  0  0  0  0  0  0  0
  -29.5530  -27.8253   20.9599 C   0  0  0  0  0  0  0  0  0  0  0  0
  -21.0969  -17.9857   19.4402 C   0  0  0  0  0  0  0  0  0  0  0  0
  -19.9170  -20.0981   20.0837 C   0  0  0  0  0  0  0  0  0  0  0  0
  -19.6796  -18.0580   21.4995 C   0  0  0  0  0  0  0  0  0  0  0  0
  -23.7262  -22.2632   25.0790 C   0  0  0  0  0  0  0  0  0  0  0  0
  -30.8144  -22.0417   18.2486 C   0  0  0  0  0  0  0  0  0  0  0  0
  -30.2766  -21.0060   19.2301 C   0  0  0  0  0  0  0  0  0  1  0  0
  -21.8673  -19.3253   21.5086 C   0  0  1  0  0  0  0  0  0  0  0  0
  -21.4342  -22.0485   24.1098 C   0  0  2  0  0  0  0  0  0  0  0  0
  -29.1589  -27.3048   19.5454 C   0  0  0  0  0  0  0  0  0  0  0  0
  -20.6686  -18.8660   20.6313 C   0  0  0  0  0  0  0  0  0  0  0  0
  -29.2130  -23.8774   18.0486 N   0  0  0  0  0  0  0  0  0  0  0  0
  -30.7542  -25.4882   19.7502 N   0  0  0  0  0  0  0  0  0  0  0  0
  -22.7732  -26.2884   21.2192 N   0  0  0  0  0  0  0  0  0  0  0  0
  -23.3311  -25.3859   20.3944 N   0  0  0  0  0  0  0  0  0  0  0  0
  -24.0104  -18.1008   21.6856 N   0  0  0  0  0  0  0  0  0  0  0  0
  -26.9541  -26.6051   20.4152 N   0  0  0  0  0  0  0  0  0  0  0  0
  -22.8152  -23.6602   18.8561 N   0  0  0  0  0  0  0  0  0  0  0  0
  -18.7541  -25.0775   20.2326 N   0  0  0  0  0  0  0  0  0  0  0  0
  -25.3677  -14.7908   20.9796 N   0  0  0  0  0  0  0  0  0  0  0  0
  -21.4887  -20.1380   22.6595 N   0  0  0  0  0  0  0  0  0  0  0  0
  -22.4551  -22.9447   24.7226 N   0  3  0  0  0  0  0  0  0  0  0  0
  -19.8437  -23.5792   18.8811 O   0  0  0  0  0  0  0  0  0  0  0  0
  -24.1734  -16.3956   19.7878 O   0  0  0  0  0  0  0  0  0  0  0  0
  -22.1016  -17.3423   22.7889 O   0  0  0  0  0  0  0  0  0  0  0  0
  -27.1228  -28.2181   18.7506 O   0  0  0  0  0  0  0  0  0  0  0  0
  -22.7650  -21.9896   22.0942 O   0  0  0  0  0  0  0  0  0  0  0  0
  -17.7564  -29.1434   23.9080 O   0  0  0  0  0  0  0  0  0  0  0  0
  -28.8499  -21.0099   19.2017 O   0  0  0  0  0  0  0  0  0  1  0  0
  -13.5322  -26.5107   26.2806 F   0  0  0  0  0  0  0  0  0  0  0  0
  -17.3703  -29.2573   26.6431 F   0  0  0  0  0  0  0  0  0  0  0  0
  1  2  1  0  0  0  0
  1  5  2  0  0  0  0
  2  6  2  0  0  0  0
  3  8  2  0  0  0  0
  3 17  1  0  0  0  0
  4  9  1  0  0  0  0
  4 17  2  0  0  0  0
  5 19  1  0  0  0  0
  6 21  1  0  0  0  0
  7 10  2  0  0  0  0
  7 20  1  0  0  0  0
  8 23  1  0  0  0  0
  9 23  2  0  0  0  0
 10 24  1  0  0  0  0
 11 12  2  0  0  0  0
 11 25  1  0  0  0  0
 12 26  1  0  0  0  0
 13 22  1  0  0  0  0
 13 24  2  0  0  0  0
 14 26  2  0  0  0  0
 14 27  1  0  0  0  0
 15 29  1  0  0  0  0
 15 63  2  0  0  0  0
 16 30  2  0  0  0  0
 16 62  1  0  0  0  0
 17 28  1  0  0  0  0
 18 28  1  0  0  0  0
 18 31  2  0  0  0  0
 18 32  1  0  0  0  0
 19 21  2  0  0  0  0
 19 37  1  0  0  0  0
 20 22  2  0  0  0  0
 20 38  1  0  0  0  0
 21 46  1  0  0  0  0
 22 39  1  0  0  0  0
 23 78  1  0  0  0  0
 24 79  1  0  0  0  0
 25 27  2  0  0  0  0
 25 78  1  0  0  0  0
 26 80  1  0  0  0  0
 27 81  1  0  0  0  0
 28 64  2  0  0  0  0
 29 56  1  0  0  0  0
 29 62  2  0  0  0  0
 30 60  1  0  0  0  0
 30 63  1  0  0  0  0
 31 65  1  0  0  0  0
 31 68  1  0  0  0  0
 32 69  1  0  0  0  0
 32 73  2  0  0  0  0
 33 47  1  0  0  0  0
 33 70  1  0  0  0  0
 33 74  2  0  0  0  0
 34 58  1  0  0  0  0
 34 66  1  0  0  0  0
 34 75  2  0  0  0  0
 35 60  1  0  0  0  0
 35 67  1  0  0  0  0
 35 76  2  0  0  0  0
 36 59  1  0  0  0  0
 36 71  1  0  0  0  0
 36 77  2  0  0  0  0
 37 40  1  0  0  0  0
 38 47  1  0  0  0  0
 39 66  1  0  0  0  0
 40 42  1  0  0  0  0
 41 43  1  0  0  0  0
 41 44  1  0  0  0  0
 42 46  1  0  0  0  0
 43 48  1  0  0  0  0
 44 67  1  0  0  0  0
 45 48  1  0  0  0  0
 45 67  1  0  0  0  0
 46 70  1  0  0  0  0
 47 66  1  0  0  0  0
 48 65  1  0  0  0  0
 49 59  1  0  0  0  0
 50 60  1  0  0  0  0
 51 60  1  0  0  0  0
 52 61  1  0  0  0  0
 53 61  1  0  0  0  0
 54 61  1  0  0  0  0
 55 72  1  0  0  0  0
 56 57  1  0  0  0  0
 57 79  1  0  0  0  0
 58 61  1  0  0  0  0
 58 71  1  0  0  0  0
 59 72  1  0  0  0  0
 64 65  1  0  0  0  0
M  CHG  1  72   1
M  ISO  4  35 100  57 101  60 100  79 101
M  END
> <Batch ID>
0050

> <Smiles>
CNC(C)C(=O)NC(C(=O)N1Cc2cc([101O:1][101CH2:1]Cc3cnc([100C:0](C)(C)[100C:0](=O)N4CCCC(n5nc(-c6ccc(Oc7ccc(F)cc7F)cc6)c(C(N)=O)c5N)C4)cn3)ccc2CC1C(=O)NC1CCCc2ccccc21)C(C)(C)C

> <Shape>
0.204

> <Color>
0.077

> <Negative vol penalty>
0.000

$$$$

  -OEChem-04052317313D

 84 92  0     1  0  0  0  0  0999 V2000
  -35.3531  -13.3863   18.0436 C   0  0  0  0  0  0  0  0  0  0  0  0
  -34.5442  -14.5169   18.0981 C   0  0  0  0  0  0  0  0  0  0  0  0
  -25.5963  -30.8771   21.2479 C   0  0  0  0  0  0  0  0  0  0  0  0
  -24.3209  -29.1216   22.3104 C   0  0  0  0  0  0  0  0  0  0  0  0
  -34.7880  -12.1381   17.7856 C   0  0  0  0  0  0  0  0  0  0  0  0
  -33.1698  -14.4000   17.8936 C   0  0  0  0  0  0  0  0  0  0  0  0
  -30.4720  -17.0442   21.2662 C   0  0  0  0  0  0  0  0  0  0  0  0
  -24.9940  -31.8193   22.0817 C   0  0  0  0  0  0  0  0  0  0  0  0
  -23.7187  -30.0638   23.1442 C   0  0  0  0  0  0  0  0  0  0  0  0
  -30.3772  -18.4209   21.0670 C   0  0  0  0  0  0  0  0  0  0  0  0
  -24.0591  -34.6408   24.1746 C   0  0  0  0  0  0  0  0  0  0  0  0
  -24.8784  -35.6045   24.7623 C   0  0  0  0  0  0  0  0  0  0  0  0
  -28.1869  -18.1242   20.1007 C   0  0  0  0  0  0  0  0  0  0  0  0
  -25.4877  -22.3060   21.7953 C   0  0  0  0  0  0  0  0  0  0  0  0
  -26.1427  -33.8615   25.8580 C   0  0  0  0  0  0  0  0  0  0  0  0
  -25.2597  -29.5283   21.3622 C   0  0  0  0  0  0  0  0  0  0  0  0
  -27.0686  -27.8390   20.7444 C   0  0  0  0  0  0  0  0  0  0  0  0
  -33.4047  -12.0044   17.5874 C   0  0  0  0  0  0  0  0  0  0  0  0
  -29.4277  -16.1947   20.8734 C   0  0  0  0  0  0  0  0  0  0  0  0
  -32.5859  -13.1489   17.6314 C   0  0  0  0  0  0  0  0  0  0  0  0
  -28.2698  -16.7374   20.2983 C   0  0  0  0  0  0  0  0  0  0  0  0
  -25.9547  -22.1193   23.1198 C   0  0  0  0  0  0  0  0  0  0  0  0
  -24.0553  -31.4127   23.0298 C   0  0  0  0  0  0  0  0  0  0  0  0
  -29.2358  -18.9608   20.4816 C   0  0  0  0  0  0  0  0  0  0  0  0
  -24.2814  -33.2874   24.4286 C   0  0  0  0  0  0  0  0  0  0  0  0
  -25.9203  -35.2149   25.6040 C   0  0  0  0  0  0  0  0  0  0  0  0
  -25.3232  -32.8977   25.2703 C   0  0  0  0  0  0  0  0  0  0  0  0
  -25.8810  -28.5546   20.5008 C   0  0  0  0  0  0  0  0  0  0  0  0
  -26.5926  -22.4636   20.9880 C   0  0  0  0  0  0  0  0  0  0  0  0
  -27.3307  -22.1687   23.0815 C   0  0  0  0  0  0  0  0  0  0  0  0
  -27.2278  -27.0491   19.6321 C   0  0  0  0  0  0  0  0  0  0  0  0
  -27.9492  -27.8842   21.8750 C   0  0  0  0  0  0  0  0  0  0  0  0
  -29.1426  -13.7996   18.8032 C   0  0  0  0  0  0  0  0  0  0  0  0
  -26.1863  -13.5354   20.1121 C   0  0  0  0  0  0  0  0  0  0  0  0
  -23.6146  -15.0298   21.7853 C   0  0  0  0  0  0  0  0  0  0  0  0
  -23.5938  -24.1545   15.9579 C   0  0  0  0  0  0  0  0  0  0  0  0
  -32.8460  -10.6412   17.2647 C   0  0  0  0  0  0  0  0  0  0  0  0
  -29.5341  -14.7147   21.1195 C   0  0  0  0  0  0  0  0  0  0  0  0
  -27.1121  -15.8706   19.8776 C   0  0  0  0  0  0  0  0  0  0  0  0
  -31.3313  -10.5488   17.4307 C   0  0  0  0  0  0  0  0  0  0  0  0
  -25.5403  -27.1521   14.9950 C   0  0  0  0  0  0  0  0  0  0  0  0
  -30.6488  -11.7469   16.7783 C   0  0  0  0  0  0  0  0  0  0  0  0
  -25.8698  -27.7836   16.3466 C   0  0  0  0  0  0  0  0  0  0  0  0
  -24.2411  -26.3538   15.0437 C   0  0  0  0  0  0  0  0  0  0  0  0
  -24.5386  -25.9513   17.4652 C   0  0  0  0  0  0  0  0  0  0  0  0
  -31.0875  -13.0592   17.4394 C   0  0  1  0  0  0  0  0  0  0  0  0
  -28.6262  -13.8911   20.2113 C   0  0  1  0  0  0  0  0  0  0  0  0
  -25.8660  -26.7244   17.4625 C   0  0  2  0  0  0  0  0  0  0  0  0
  -25.1143  -21.9101   24.3156 C   0  0  0  0  0  0  0  0  0  0  0  0
  -28.3195  -22.0340   24.1725 C   0  0  0  0  0  0  0  0  0  0  0  0
  -21.3153  -14.5704   22.6795 C   0  0  0  0  0  0  0  0  0  0  0  0
  -25.0557  -13.7006   17.2829 C   0  0  0  0  0  0  0  0  0  0  0  0
  -22.8135  -14.1921   18.2825 C   0  0  0  0  0  0  0  0  0  0  0  0
  -23.9385  -12.0166   18.7561 C   0  0  0  0  0  0  0  0  0  0  0  0
  -23.4769  -21.7475   16.4798 C   0  0  0  0  0  0  0  0  0  0  0  0
  -24.4546  -15.6037   24.5646 C   0  0  0  0  0  0  0  0  0  0  0  0
  -26.6752  -22.6873   19.5300 C   0  0  0  0  0  0  0  0  0  0  0  0
  -25.3114  -22.7545   18.8022 C   0  0  0  0  0  0  0  0  0  0  0  0
  -29.1313  -22.4981   21.2946 C   0  0  0  0  0  0  0  0  0  0  0  0
  -25.4172  -23.0289   17.3036 C   0  0  0  0  0  0  0  0  0  0  0  0
  -29.8302  -21.1455   21.2093 C   0  0  0  0  0  0  0  0  0  1  0  0
  -24.8302  -14.1303   19.8187 C   0  0  1  0  0  0  0  0  0  0  0  0
  -22.8040  -14.5865   22.9898 C   0  0  2  0  0  0  0  0  0  0  0  0
  -24.1819  -13.5263   18.5411 C   0  0  0  0  0  0  0  0  0  0  0  0
  -25.3252  -28.2467   19.3260 N   0  0  0  0  0  0  0  0  0  0  0  0
  -27.7073  -22.3787   21.7807 N   0  0  0  0  0  0  0  0  0  0  0  0
  -26.1673  -27.3289   18.8213 N   0  0  0  0  0  0  0  0  0  0  0  0
  -27.2665  -14.4290   20.1333 N   0  0  0  0  0  0  0  0  0  0  0  0
  -24.2471  -25.3845   16.1399 N   0  0  0  0  0  0  0  0  0  0  0  0
  -28.1700  -26.1494   19.2782 N   0  0  0  0  0  0  0  0  0  0  0  0
  -27.6368  -28.7513   22.9309 N   0  0  0  0  0  0  0  0  0  0  0  0
  -30.4032  -13.2428   18.7013 N   0  0  0  0  0  0  0  0  0  0  0  0
  -24.0371  -13.9559   21.0308 N   0  0  0  0  0  0  0  0  0  0  0  0
  -24.1128  -23.0468   16.6453 N   0  0  0  0  0  0  0  0  0  0  0  0
  -23.0349  -15.5088   24.1375 N   0  3  0  0  0  0  0  0  0  0  0  0
  -28.9911  -27.1887   21.9394 O   0  0  0  0  0  0  0  0  0  0  0  0
  -28.4480  -14.2027   17.8776 O   0  0  0  0  0  0  0  0  0  0  0  0
  -26.2826  -12.3237   20.3219 O   0  0  0  0  0  0  0  0  0  0  0  0
  -23.8464  -16.2109   21.5365 O   0  0  0  0  0  0  0  0  0  0  0  0
  -22.6090  -24.0503   15.2155 O   0  0  0  0  0  0  0  0  0  0  0  0
  -23.4676  -32.3317   23.8438 O   0  0  0  0  0  0  0  0  0  0  0  0
  -29.1410  -20.3041   20.2855 O   0  0  0  0  0  0  0  0  0  1  0  0
  -26.7080  -36.1404   26.1671 F   0  0  0  0  0  0  0  0  0  0  0  0
  -25.5425  -31.5990   25.5172 F   0  0  0  0  0  0  0  0  0  0  0  0
  1  2  1  0  0  0  0
  1  5  2  0  0  0  0
  2  6  2  0  0  0  0
  3  8  2  0  0  0  0
  3 16  1  0  0  0  0
  4  9  1  0  0  0  0
  4 16  2  0  0  0  0
  5 18  1  0  0  0  0
  6 20  1  0  0  0  0
  7 10  2  0  0  0  0
  7 19  1  0  0  0  0
  8 23  1  0  0  0  0
  9 23  2  0  0  0  0
 10 24  1  0  0  0  0
 11 12  2  0  0  0  0
 11 25  1  0  0  0  0
 12 26  1  0  0  0  0
 13 21  1  0  0  0  0
 13 24  2  0  0  0  0
 14 22  1  0  0  0  0
 14 29  2  0  0  0  0
 15 26  2  0  0  0  0
 15 27  1  0  0  0  0
 16 28  1  0  0  0  0
 17 28  1  0  0  0  0
 17 31  2  0  0  0  0
 17 32  1  0  0  0  0
 18 20  2  0  0  0  0
 18 37  1  0  0  0  0
 19 21  2  0  0  0  0
 19 38  1  0  0  0  0
 20 46  1  0  0  0  0
 21 39  1  0  0  0  0
 22 30  2  0  0  0  0
 22 49  1  0  0  0  0
 23 81  1  0  0  0  0
 24 82  1  0  0  0  0
 25 27  2  0  0  0  0
 25 81  1  0  0  0  0
 26 83  1  0  0  0  0
 27 84  1  0  0  0  0
 28 65  2  0  0  0  0
 29 57  1  0  0  0  0
 29 66  1  0  0  0  0
 30 50  1  0  0  0  0
 30 66  1  0  0  0  0
 31 67  1  0  0  0  0
 31 70  1  0  0  0  0
 32 71  1  0  0  0  0
 32 76  2  0  0  0  0
 33 47  1  0  0  0  0
 33 72  1  0  0  0  0
 33 77  2  0  0  0  0
 34 62  1  0  0  0  0
 34 68  1  0  0  0  0
 34 78  2  0  0  0  0
 35 63  1  0  0  0  0
 35 73  1  0  0  0  0
 35 79  2  0  0  0  0
 36 69  1  0  0  0  0
 36 74  1  0  0  0  0
 36 80  2  0  0  0  0
 37 40  1  0  0  0  0
 38 47  1  0  0  0  0
 39 68  1  0  0  0  0
 40 42  1  0  0  0  0
 41 43  1  0  0  0  0
 41 44  1  0  0  0  0
 42 46  1  0  0  0  0
 43 48  1  0  0  0  0
 44 69  1  0  0  0  0
 45 48  1  0  0  0  0
 45 69  1  0  0  0  0
 46 72  1  0  0  0  0
 47 68  1  0  0  0  0
 48 67  1  0  0  0  0
 51 63  1  0  0  0  0
 52 64  1  0  0  0  0
 53 64  1  0  0  0  0
 54 64  1  0  0  0  0
 55 74  1  0  0  0  0
 56 75  1  0  0  0  0
 57 58  1  0  0  0  0
 58 60  1  0  0  0  0
 59 61  1  0  0  0  0
 59 66  1  0  0  0  0
 60 74  1  0  0  0  0
 61 82  1  0  0  0  0
 62 64  1  0  0  0  0
 62 73  1  0  0  0  0
 63 75  1  0  0  0  0
 65 67  1  0  0  0  0
M  CHG  1  75   1
M  ISO  4  36 100  61 101  74 100  82 101
M  END
> <Batch ID>
0050

> <Smiles>
CNC(C)C(=O)NC(C(=O)N1Cc2cc([101O:1][101CH2:1]Cn3c(CCC[100N:0](C)[100C:0](=O)N4CCCC(n5nc(-c6ccc(Oc7ccc(F)cc7F)cc6)c(C(N)=O)c5N)C4)cc(C)c3C)ccc2CC1C(=O)NC1CCCc2ccccc21)C(C)(C)C

> <Shape>
0.232

> <Color>
0.074

> <Negative vol penalty>
0.000

$$$$

  -OEChem-04052317313D

 87 95  0     1  0  0  0  0  0999 V2000
  -29.9783  -34.6923   22.2320 C   0  0  0  0  0  0  0  0  0  0  0  0
  -30.3026  -33.3493   22.0697 C   0  0  0  0  0  0  0  0  0  0  0  0
  -27.7166  -12.3718   19.0408 C   0  0  0  0  0  0  0  0  0  0  0  0
  -28.3974  -13.7767   20.8846 C   0  0  0  0  0  0  0  0  0  0  0  0
  -28.7007  -35.0532   22.6580 C   0  0  0  0  0  0  0  0  0  0  0  0
  -29.3498  -32.3661   22.3343 C   0  0  0  0  0  0  0  0  0  0  0  0
  -28.6577  -27.0286   19.4124 C   0  0  0  0  0  0  0  0  0  0  0  0
  -29.0548  -12.1446   18.7197 C   0  0  0  0  0  0  0  0  0  0  0  0
  -29.7357  -13.5495   20.5636 C   0  0  0  0  0  0  0  0  0  0  0  0
  -29.0735  -25.7327   19.7152 C   0  0  0  0  0  0  0  0  0  0  0  0
  -31.5486  -13.7850   17.1341 C   0  0  0  0  0  0  0  0  0  0  0  0
  -31.9154  -13.8689   15.7910 C   0  0  0  0  0  0  0  0  0  0  0  0
  -26.9137  -25.2732   20.6865 C   0  0  0  0  0  0  0  0  0  0  0  0
  -32.6560  -11.5699   15.8497 C   0  0  0  0  0  0  0  0  0  0  0  0
  -24.8379  -20.9052   19.6646 C   0  0  0  0  0  0  0  0  0  0  0  0
  -27.3878  -13.1879   20.1232 C   0  0  0  0  0  0  0  0  0  0  0  0
  -25.2003  -12.6680   21.3282 C   0  0  0  0  0  0  0  0  0  0  0  0
  -27.7287  -34.0744   22.9187 C   0  0  0  0  0  0  0  0  0  0  0  0
  -27.3683  -27.4607   19.7548 C   0  0  0  0  0  0  0  0  0  0  0  0
  -28.0584  -32.7142   22.7655 C   0  0  0  0  0  0  0  0  0  0  0  0
  -26.4832  -26.5742   20.3847 C   0  0  0  0  0  0  0  0  0  0  0  0
  -30.0644  -12.7334   19.4811 C   0  0  0  0  0  0  0  0  0  0  0  0
  -28.2024  -24.8557   20.3549 C   0  0  0  0  0  0  0  0  0  0  0  0
  -31.7357  -12.5936   17.8351 C   0  0  0  0  0  0  0  0  0  0  0  0
  -32.4691  -12.7613   15.1487 C   0  0  0  0  0  0  0  0  0  0  0  0
  -32.2893  -11.4861   17.1928 C   0  0  0  0  0  0  0  0  0  0  0  0
  -26.0056  -13.4235   20.4550 C   0  0  0  0  0  0  0  0  0  0  0  0
  -26.0732  -20.3090   19.3479 C   0  0  0  0  0  0  0  0  0  0  0  0
  -24.1290  -20.8718   18.4887 C   0  0  0  0  0  0  0  0  0  0  0  0
  -23.9798  -13.2973   21.3005 C   0  0  0  0  0  0  0  0  0  0  0  0
  -25.5264  -11.5018   22.0958 C   0  0  0  0  0  0  0  0  0  0  0  0
  -26.1908  -29.7297   21.6438 C   0  0  0  0  0  0  0  0  0  0  0  0
  -23.3647  -28.7885   20.3595 C   0  0  0  0  0  0  0  0  0  0  0  0
  -21.5489  -26.3319   18.8380 C   0  0  0  0  0  0  0  0  0  0  0  0
  -22.3236  -18.7589   20.2830 C   0  0  0  0  0  0  0  0  0  0  0  0
  -26.3759  -34.5109   23.4225 C   0  0  0  0  0  0  0  0  0  0  0  0
  -26.9261  -28.8532   19.3973 C   0  0  0  0  0  0  0  0  0  0  0  0
  -25.0816  -26.9827   20.7552 C   0  0  0  0  0  0  0  0  0  0  0  0
  -25.3086  -33.4242   23.3215 C   0  0  0  0  0  0  0  0  0  0  0  0
  -21.1855  -15.9468   18.4750 C   0  0  0  0  0  0  0  0  0  0  0  0
  -25.8463  -32.0973   23.8479 C   0  0  0  0  0  0  0  0  0  0  0  0
  -22.2284  -14.8980   18.8588 C   0  0  0  0  0  0  0  0  0  0  0  0
  -21.8114  -17.3249   18.2525 C   0  0  0  0  0  0  0  0  0  0  0  0
  -23.6775  -16.7493   19.7721 C   0  0  0  0  0  0  0  0  0  0  0  0
  -27.0445  -31.6197   23.0187 C   0  0  1  0  0  0  0  0  0  0  0  0
  -25.7654  -29.3498   20.2538 C   0  0  1  0  0  0  0  0  0  0  0  0
  -23.0665  -15.3693   20.0598 C   0  0  2  0  0  0  0  0  0  0  0  0
  -19.2555  -25.8445   17.9435 C   0  0  0  0  0  0  0  0  0  0  0  0
  -18.6045  -20.3289   19.8042 C   0  0  0  0  0  0  0  0  0  0  0  0
  -19.5258  -18.9697   21.6912 C   0  0  0  0  0  0  0  0  0  0  0  0
  -18.9043  -21.3597   22.0737 C   0  0  0  0  0  0  0  0  0  0  0  0
  -22.3325  -28.4301   23.2083 C   0  0  0  0  0  0  0  0  0  0  0  0
  -20.4438  -27.0745   22.2791 C   0  0  0  0  0  0  0  0  0  0  0  0
  -20.6957  -29.4695   21.6287 C   0  0  0  0  0  0  0  0  0  0  0  0
  -24.6562  -20.0163   16.1855 C   0  0  0  0  0  0  0  0  0  0  0  0
  -22.5823  -25.9022   16.0982 C   0  0  0  0  0  0  0  0  0  0  0  0
  -27.2468  -20.0830   20.2672 C   0  0  0  0  0  0  0  0  0  0  0  0
  -22.7699  -21.3417   18.1635 C   0  0  0  0  0  0  0  0  0  0  0  0
  -28.2404  -21.2464   20.2949 C   0  0  0  0  0  0  0  0  0  0  0  0
  -21.6694  -20.2844   18.3726 C   0  0  0  0  0  0  0  0  0  0  0  0
  -20.9450  -20.7636   20.6817 C   0  0  0  0  0  0  0  0  0  0  0  0
  -27.6016  -22.5771   20.6751 C   0  0  0  0  0  0  0  0  0  1  0  0
  -22.3186  -27.7598   20.7150 C   0  0  1  0  0  0  0  0  0  0  0  0
  -20.6500  -26.3545   17.6149 C   0  0  2  0  0  0  0  0  0  0  0  0
  -19.4981  -20.3718   21.0553 C   0  0  0  0  0  0  0  0  0  0  0  0
  -21.4746  -28.1761   21.9527 C   0  0  0  0  0  0  0  0  0  0  0  0
  -25.3517  -14.4538   19.9120 N   0  0  0  0  0  0  0  0  0  0  0  0
  -26.1479  -19.9247   18.0709 N   0  0  0  0  0  0  0  0  0  0  0  0
  -24.9506  -20.2802   17.5748 N   0  0  0  0  0  0  0  0  0  0  0  0
  -24.1225  -14.3502   20.4454 N   0  0  0  0  0  0  0  0  0  0  0  0
  -24.6982  -28.3565   20.3903 N   0  0  0  0  0  0  0  0  0  0  0  0
  -22.6404  -17.7151   19.4011 N   0  0  0  0  0  0  0  0  0  0  0  0
  -22.8090  -13.0471   21.9244 N   0  0  0  0  0  0  0  0  0  0  0  0
  -26.8266  -10.9860   22.0078 N   0  0  0  0  0  0  0  0  0  0  0  0
  -26.5968  -31.0447   21.7683 N   0  0  0  0  0  0  0  0  0  0  0  0
  -21.5351  -27.5390   19.5043 N   0  0  0  0  0  0  0  0  0  0  0  0
  -21.5967  -19.8405   19.7633 N   0  0  0  0  0  0  0  0  0  0  0  0
  -21.2212  -25.4992   16.5364 N   0  3  0  0  0  0  0  0  0  0  0  0
  -24.6850  -10.9243   22.8252 O   0  0  0  0  0  0  0  0  0  0  0  0
  -26.1521  -28.8923   22.5376 O   0  0  0  0  0  0  0  0  0  0  0  0
  -23.0112  -29.9313   20.0583 O   0  0  0  0  0  0  0  0  0  0  0  0
  -22.1955  -25.3413   19.1712 O   0  0  0  0  0  0  0  0  0  0  0  0
  -22.6774  -18.7311   21.4688 O   0  0  0  0  0  0  0  0  0  0  0  0
  -31.3703  -12.5117   19.1683 O   0  0  0  0  0  0  0  0  0  0  0  0
  -28.6059  -23.5905   20.6521 O   0  0  0  0  0  0  0  0  0  1  0  0
  -32.8198  -12.8416   13.8585 F   0  0  0  0  0  0  0  0  0  0  0  0
  -32.4703  -10.3385   17.8607 F   0  0  0  0  0  0  0  0  0  0  0  0
  1  2  1  0  0  0  0
  1  5  2  0  0  0  0
  2  6  2  0  0  0  0
  3  8  2  0  0  0  0
  3 16  1  0  0  0  0
  4  9  1  0  0  0  0
  4 16  2  0  0  0  0
  5 18  1  0  0  0  0
  6 20  1  0  0  0  0
  7 10  2  0  0  0  0
  7 19  1  0  0  0  0
  8 22  1  0  0  0  0
  9 22  2  0  0  0  0
 10 23  1  0  0  0  0
 11 12  2  0  0  0  0
 11 24  1  0  0  0  0
 12 25  1  0  0  0  0
 13 21  1  0  0  0  0
 13 23  2  0  0  0  0
 14 25  2  0  0  0  0
 14 26  1  0  0  0  0
 15 28  1  0  0  0  0
 15 29  2  0  0  0  0
 16 27  1  0  0  0  0
 17 27  1  0  0  0  0
 17 30  2  0  0  0  0
 17 31  1  0  0  0  0
 18 20  2  0  0  0  0
 18 36  1  0  0  0  0
 19 21  2  0  0  0  0
 19 37  1  0  0  0  0
 20 45  1  0  0  0  0
 21 38  1  0  0  0  0
 22 84  1  0  0  0  0
 23 85  1  0  0  0  0
 24 26  2  0  0  0  0
 24 84  1  0  0  0  0
 25 86  1  0  0  0  0
 26 87  1  0  0  0  0
 27 67  2  0  0  0  0
 28 57  1  0  0  0  0
 28 68  2  0  0  0  0
 29 58  1  0  0  0  0
 29 69  1  0  0  0  0
 30 70  1  0  0  0  0
 30 73  1  0  0  0  0
 31 74  1  0  0  0  0
 31 79  2  0  0  0  0
 32 46  1  0  0  0  0
 32 75  1  0  0  0  0
 32 80  2  0  0  0  0
 33 63  1  0  0  0  0
 33 71  1  0  0  0  0
 33 81  2  0  0  0  0
 34 64  1  0  0  0  0
 34 76  1  0  0  0  0
 34 82  2  0  0  0  0
 35 72  1  0  0  0  0
 35 77  1  0  0  0  0
 35 83  2  0  0  0  0
 36 39  1  0  0  0  0
 37 46  1  0  0  0  0
 38 71  1  0  0  0  0
 39 41  1  0  0  0  0
 40 42  1  0  0  0  0
 40 43  1  0  0  0  0
 41 45  1  0  0  0  0
 42 47  1  0  0  0  0
 43 72  1  0  0  0  0
 44 47  1  0  0  0  0
 44 72  1  0  0  0  0
 45 75  1  0  0  0  0
 46 71  1  0  0  0  0
 47 70  1  0  0  0  0
 48 64  1  0  0  0  0
 49 65  1  0  0  0  0
 50 65  1  0  0  0  0
 51 65  1  0  0  0  0
 52 66  1  0  0  0  0
 53 66  1  0  0  0  0
 54 66  1  0  0  0  0
 55 69  1  0  0  0  0
 56 78  1  0  0  0  0
 57 59  1  0  0  0  0
 58 60  1  0  0  0  0
 59 62  1  0  0  0  0
 60 77  1  0  0  0  0
 61 65  1  0  0  0  0
 61 77  1  0  0  0  0
 62 85  1  0  0  0  0
 63 66  1  0  0  0  0
 63 76  1  0  0  0  0
 64 78  1  0  0  0  0
 67 70  1  0  0  0  0
 68 69  1  0  0  0  0
M  CHG  1  78   1
M  ISO  4  35 100  62 101  77 100  85 101
M  END
> <Batch ID>
0050

> <Smiles>
CNC(C)C(=O)NC(C(=O)N1Cc2cc([101O:1][101CH2:1]CCc3cc(CC[100N:0](CC(C)(C)C)[100C:0](=O)N4CCCC(n5nc(-c6ccc(Oc7ccc(F)cc7F)cc6)c(C(N)=O)c5N)C4)n(C)n3)ccc2CC1C(=O)NC1CCCc2ccccc21)C(C)(C)C

> <Shape>
0.229

> <Color>
0.060

> <Negative vol penalty>
0.000

$$$$

  -OEChem-04052317313D

 83 91  0     1  0  0  0  0  0999 V2000
  -28.7138  -24.4241   14.8451 C   0  0  0  0  0  0  0  0  0  0  0  0
  -28.1199  -23.5709   15.7698 C   0  0  0  0  0  0  0  0  0  0  0  0
  -24.7389  -11.9815   20.3001 C   0  0  0  0  0  0  0  0  0  0  0  0
  -25.2127  -12.6809   22.5635 C   0  0  0  0  0  0  0  0  0  0  0  0
  -28.9358  -25.7607   15.1739 C   0  0  0  0  0  0  0  0  0  0  0  0
  -27.7487  -24.0538   17.0242 C   0  0  0  0  0  0  0  0  0  0  0  0
  -22.8991  -22.3320   20.3442 C   0  0  0  0  0  0  0  0  0  0  0  0
  -24.8831  -10.6478   20.6820 C   0  0  0  0  0  0  0  0  0  0  0  0
  -25.3569  -11.3472   22.9455 C   0  0  0  0  0  0  0  0  0  0  0  0
  -22.7591  -21.4427   21.4087 C   0  0  0  0  0  0  0  0  0  0  0  0
  -24.7710   -7.0432   21.1402 C   0  0  0  0  0  0  0  0  0  0  0  0
  -23.8161   -6.1324   20.6883 C   0  0  0  0  0  0  0  0  0  0  0  0
  -22.9399  -23.2809   22.9603 C   0  0  0  0  0  0  0  0  0  0  0  0
  -22.0863   -7.3858   21.8170 C   0  0  0  0  0  0  0  0  0  0  0  0
  -26.9328  -19.0596   25.0182 C   0  0  0  0  0  0  0  0  0  0  0  0
  -27.2863  -20.9991   23.2181 C   0  0  0  0  0  0  0  0  0  0  0  0
  -24.9038  -12.9981   21.2408 C   0  0  0  0  0  0  0  0  0  0  0  0
  -23.5738  -15.1411   20.8580 C   0  0  0  0  0  0  0  0  0  0  0  0
  -28.5583  -26.2625   16.4294 C   0  0  0  0  0  0  0  0  0  0  0  0
  -23.0718  -23.7034   20.5804 C   0  0  0  0  0  0  0  0  0  0  0  0
  -27.9671  -25.3980   17.3705 C   0  0  0  0  0  0  0  0  0  0  0  0
  -23.0793  -24.1859   21.8969 C   0  0  0  0  0  0  0  0  0  0  0  0
  -25.1920  -10.3306   22.0047 C   0  0  0  0  0  0  0  0  0  0  0  0
  -22.7824  -21.9167   22.7171 C   0  0  0  0  0  0  0  0  0  0  0  0
  -24.3835   -8.1253   21.9306 C   0  0  0  0  0  0  0  0  0  0  0  0
  -22.4738   -6.3037   21.0266 C   0  0  0  0  0  0  0  0  0  0  0  0
  -23.0412   -8.2966   22.2689 C   0  0  0  0  0  0  0  0  0  0  0  0
  -24.7555  -14.3761   20.8468 C   0  0  0  0  0  0  0  0  0  0  0  0
  -25.9628  -20.0131   24.8009 C   0  0  0  0  0  0  0  0  0  0  0  0
  -28.2568  -20.0460   23.4358 C   0  0  0  0  0  0  0  0  0  0  0  0
  -23.9597  -16.3759   20.3966 C   0  0  0  0  0  0  0  0  0  0  0  0
  -22.2460  -14.7688   21.2505 C   0  0  0  0  0  0  0  0  0  0  0  0
  -25.3657  -25.8149   19.9612 C   0  0  0  0  0  0  0  0  0  0  0  0
  -23.1943  -27.9287   21.1184 C   0  0  0  0  0  0  0  0  0  0  0  0
  -20.4554  -28.4898   23.0754 C   0  0  0  0  0  0  0  0  0  0  0  0
  -29.0424  -19.3493   20.3630 C   0  0  0  0  0  0  0  0  0  0  0  0
  -28.8616  -27.7032   16.7565 C   0  0  0  0  0  0  0  0  0  0  0  0
  -23.1946  -24.6530   19.4204 C   0  0  0  0  0  0  0  0  0  0  0  0
  -23.2416  -25.6515   22.2035 C   0  0  0  0  0  0  0  0  0  0  0  0
  -28.0976  -28.2261   17.9702 C   0  0  0  0  0  0  0  0  0  0  0  0
  -27.1760  -18.4901   17.5693 C   0  0  0  0  0  0  0  0  0  0  0  0
  -28.1731  -27.2264   19.1198 C   0  0  0  0  0  0  0  0  0  0  0  0
  -26.2255  -17.4085   18.0808 C   0  0  0  0  0  0  0  0  0  0  0  0
  -28.5685  -18.3167   18.1640 C   0  0  0  0  0  0  0  0  0  0  0  0
  -27.6411  -17.2394   20.1890 C   0  0  0  0  0  0  0  0  0  0  0  0
  -27.5279  -25.8904   18.7324 C   0  0  1  0  0  0  0  0  0  0  0  0
  -23.8802  -25.9643   19.7917 C   0  0  1  0  0  0  0  0  0  0  0  0
  -26.2135  -17.3678   19.6189 C   0  0  2  0  0  0  0  0  0  0  0  0
  -31.9010  -18.2433   21.7143 C   0  0  0  0  0  0  0  0  0  0  0  0
  -18.9329  -30.3268   23.8532 C   0  0  0  0  0  0  0  0  0  0  0  0
  -25.3495  -28.8933   23.0509 C   0  0  0  0  0  0  0  0  0  0  0  0
  -23.5512  -30.0054   24.3917 C   0  0  0  0  0  0  0  0  0  0  0  0
  -23.9674  -30.7140   22.0364 C   0  0  0  0  0  0  0  0  0  0  0  0
  -18.0895  -27.2092   21.8420 C   0  0  0  0  0  0  0  0  0  0  0  0
  -24.6714  -19.9827   25.5788 C   0  0  0  0  0  0  0  0  0  0  0  0
  -29.5315  -20.0758   22.6675 C   0  0  0  0  0  0  0  0  0  0  0  0
  -23.5688  -19.1590   24.9100 C   0  0  0  0  0  0  0  0  0  0  0  0
  -30.4358  -17.9093   21.9089 C   0  0  0  0  0  0  0  0  0  0  0  0
  -23.1274  -19.7213   23.5638 C   0  0  0  0  0  0  0  0  0  1  0  0
  -22.8644  -28.4833   22.4831 C   0  0  1  0  0  0  0  0  0  0  0  0
  -19.1654  -29.2448   22.8101 C   0  0  2  0  0  0  0  0  0  0  0  0
  -23.9320  -29.4961   22.9852 C   0  0  0  0  0  0  0  0  0  0  0  0
  -26.1219  -20.9998   23.8968 N   0  0  0  0  0  0  0  0  0  0  0  0
  -28.0974  -19.0591   24.3398 N   0  0  0  0  0  0  0  0  0  0  0  0
  -25.8129  -15.0670   20.4125 N   0  0  0  0  0  0  0  0  0  0  0  0
  -25.2969  -16.2791   20.1464 N   0  0  0  0  0  0  0  0  0  0  0  0
  -23.3643  -26.5395   21.0356 N   0  0  0  0  0  0  0  0  0  0  0  0
  -28.5189  -18.2768   19.6258 N   0  0  0  0  0  0  0  0  0  0  0  0
  -23.2821  -17.5240   20.1844 N   0  0  0  0  0  0  0  0  0  0  0  0
  -22.0245  -13.4601   21.7005 N   0  0  0  0  0  0  0  0  0  0  0  0
  -26.0854  -25.9889   18.7945 N   0  0  0  0  0  0  0  0  0  0  0  0
  -21.5173  -29.0347   22.3850 N   0  0  0  0  0  0  0  0  0  0  0  0
  -29.5774  -19.0584   21.6270 N   0  0  0  0  0  0  0  0  0  0  0  0
  -18.0042  -28.3110   22.8348 N   0  3  0  0  0  0  0  0  0  0  0  0
  -21.2812  -15.5681   21.1880 O   0  0  0  0  0  0  0  0  0  0  0  0
  -25.8250  -25.5620   21.0688 O   0  0  0  0  0  0  0  0  0  0  0  0
  -23.2904  -28.6990   20.1597 O   0  0  0  0  0  0  0  0  0  0  0  0
  -20.5157  -27.5165   23.8235 O   0  0  0  0  0  0  0  0  0  0  0  0
  -29.0396  -20.5029   19.9144 O   0  0  0  0  0  0  0  0  0  0  0  0
  -25.3326   -9.0292   22.3778 O   0  0  0  0  0  0  0  0  0  0  0  0
  -22.6467  -21.0507   23.7581 O   0  0  0  0  0  0  0  0  0  1  0  0
  -21.5568   -5.4298   20.5913 F   0  0  0  0  0  0  0  0  0  0  0  0
  -22.6628   -9.3349   23.0270 F   0  0  0  0  0  0  0  0  0  0  0  0
  1  2  1  0  0  0  0
  1  5  2  0  0  0  0
  2  6  2  0  0  0  0
  3  8  2  0  0  0  0
  3 17  1  0  0  0  0
  4  9  1  0  0  0  0
  4 17  2  0  0  0  0
  5 19  1  0  0  0  0
  6 21  1  0  0  0  0
  7 10  2  0  0  0  0
  7 20  1  0  0  0  0
  8 23  1  0  0  0  0
  9 23  2  0  0  0  0
 10 24  1  0  0  0  0
 11 12  2  0  0  0  0
 11 25  1  0  0  0  0
 12 26  1  0  0  0  0
 13 22  1  0  0  0  0
 13 24  2  0  0  0  0
 14 26  2  0  0  0  0
 14 27  1  0  0  0  0
 15 29  2  0  0  0  0
 15 64  1  0  0  0  0
 16 30  1  0  0  0  0
 16 63  2  0  0  0  0
 17 28  1  0  0  0  0
 18 28  1  0  0  0  0
 18 31  2  0  0  0  0
 18 32  1  0  0  0  0
 19 21  2  0  0  0  0
 19 37  1  0  0  0  0
 20 22  2  0  0  0  0
 20 38  1  0  0  0  0
 21 46  1  0  0  0  0
 22 39  1  0  0  0  0
 23 80  1  0  0  0  0
 24 81  1  0  0  0  0
 25 27  2  0  0  0  0
 25 80  1  0  0  0  0
 26 82  1  0  0  0  0
 27 83  1  0  0  0  0
 28 65  2  0  0  0  0
 29 55  1  0  0  0  0
 29 63  1  0  0  0  0
 30 56  1  0  0  0  0
 30 64  2  0  0  0  0
 31 66  1  0  0  0  0
 31 69  1  0  0  0  0
 32 70  1  0  0  0  0
 32 75  2  0  0  0  0
 33 47  1  0  0  0  0
 33 71  1  0  0  0  0
 33 76  2  0  0  0  0
 34 60  1  0  0  0  0
 34 67  1  0  0  0  0
 34 77  2  0  0  0  0
 35 61  1  0  0  0  0
 35 72  1  0  0  0  0
 35 78  2  0  0  0  0
 36 68  1  0  0  0  0
 36 73  1  0  0  0  0
 36 79  2  0  0  0  0
 37 40  1  0  0  0  0
 38 47  1  0  0  0  0
 39 67  1  0  0  0  0
 40 42  1  0  0  0  0
 41 43  1  0  0  0  0
 41 44  1  0  0  0  0
 42 46  1  0  0  0  0
 43 48  1  0  0  0  0
 44 68  1  0  0  0  0
 45 48  1  0  0  0  0
 45 68  1  0  0  0  0
 46 71  1  0  0  0  0
 47 67  1  0  0  0  0
 48 66  1  0  0  0  0
 49 58  1  0  0  0  0
 50 61  1  0  0  0  0
 51 62  1  0  0  0  0
 52 62  1  0  0  0  0
 53 62  1  0  0  0  0
 54 74  1  0  0  0  0
 55 57  1  0  0  0  0
 56 73  1  0  0  0  0
 57 59  1  0  0  0  0
 58 73  1  0  0  0  0
 59 81  1  0  0  0  0
 60 62  1  0  0  0  0
 60 72  1  0  0  0  0
 61 74  1  0  0  0  0
 65 66  1  0  0  0  0
M  CHG  1  74   1
M  ISO  4  36 100  59 101  73 100  81 101
M  END
> <Batch ID>
0050

> <Smiles>
CC[100N:0](Cc1cnc(CC[101CH2:1][101O:1]c2ccc3c(c2)CN(C(=O)C(NC(=O)C(C)NC)C(C)(C)C)C(C(=O)NC2CCCc4ccccc42)C3)cn1)[100C:0](=O)N1CCCC(n2nc(-c3ccc(Oc4ccc(F)cc4F)cc3)c(C(N)=O)c2N)C1

> <Shape>
0.211

> <Color>
0.067

> <Negative vol penalty>
0.000

$$$$

  -OEChem-04052317313D

 83 91  0     1  0  0  0  0  0999 V2000
  -18.6925  -33.3427   21.9736 C   0  0  0  0  0  0  0  0  0  0  0  0
  -20.0156  -33.2123   21.5642 C   0  0  0  0  0  0  0  0  0  0  0  0
  -25.8510  -14.2187   21.5321 C   0  0  0  0  0  0  0  0  0  0  0  0
  -25.2312  -15.0322   19.3432 C   0  0  0  0  0  0  0  0  0  0  0  0
  -18.1571  -32.4434   22.8947 C   0  0  0  0  0  0  0  0  0  0  0  0
  -20.8046  -32.1830   22.0765 C   0  0  0  0  0  0  0  0  0  0  0  0
  -25.1946  -29.0935   19.1288 C   0  0  0  0  0  0  0  0  0  0  0  0
  -24.7244  -13.3964   21.5455 C   0  0  0  0  0  0  0  0  0  0  0  0
  -24.1046  -14.2098   19.3566 C   0  0  0  0  0  0  0  0  0  0  0  0
  -26.5829  -29.2201   19.1150 C   0  0  0  0  0  0  0  0  0  0  0  0
  -23.7879  -10.4325   20.2147 C   0  0  0  0  0  0  0  0  0  0  0  0
  -23.9525   -9.1145   20.6406 C   0  0  0  0  0  0  0  0  0  0  0  0
  -26.7507  -27.4969   20.7947 C   0  0  0  0  0  0  0  0  0  0  0  0
  -22.3707   -9.4942   22.4269 C   0  0  0  0  0  0  0  0  0  0  0  0
  -30.7435  -26.1629   17.5239 C   0  0  0  0  0  0  0  0  0  0  0  0
  -30.9283  -24.9703   19.9052 C   0  0  0  0  0  0  0  0  0  0  0  0
  -26.1044  -15.0367   20.4309 C   0  0  0  0  0  0  0  0  0  0  0  0
  -28.5501  -15.5647   19.9336 C   0  0  0  0  0  0  0  0  0  0  0  0
  -18.9371  -31.3967   23.4113 C   0  0  0  0  0  0  0  0  0  0  0  0
  -24.5722  -28.1737   19.9850 C   0  0  0  0  0  0  0  0  0  0  0  0
  -20.2796  -31.2696   23.0064 C   0  0  0  0  0  0  0  0  0  0  0  0
  -25.3545  -27.3587   20.8156 C   0  0  0  0  0  0  0  0  0  0  0  0
  -23.8512  -13.3919   20.4578 C   0  0  0  0  0  0  0  0  0  0  0  0
  -27.3611  -28.4238   19.9501 C   0  0  0  0  0  0  0  0  0  0  0  0
  -22.9148  -11.2814   20.8950 C   0  0  0  0  0  0  0  0  0  0  0  0
  -23.2438   -8.6453   21.7466 C   0  0  0  0  0  0  0  0  0  0  0  0
  -22.2062  -10.8123   22.0010 C   0  0  0  0  0  0  0  0  0  0  0  0
  -27.2676  -15.8868   20.4167 C   0  0  0  0  0  0  0  0  0  0  0  0
  -30.7945  -26.9004   18.6862 C   0  0  0  0  0  0  0  0  0  0  0  0
  -30.8766  -24.2326   18.7430 C   0  0  0  0  0  0  0  0  0  0  0  0
  -29.2920  -16.7010   20.1449 C   0  0  0  0  0  0  0  0  0  0  0  0
  -29.0279  -14.3471   19.3463 C   0  0  0  0  0  0  0  0  0  0  0  0
  -22.5177  -28.3926   22.4005 C   0  0  0  0  0  0  0  0  0  0  0  0
  -28.6493  -22.4732   20.0192 C   0  0  0  0  0  0  0  0  0  0  0  0
  -22.5634  -25.1540   22.2220 C   0  0  0  0  0  0  0  0  0  0  0  0
  -24.2292  -22.3275   21.2827 C   0  0  0  0  0  0  0  0  0  0  0  0
  -18.3285  -30.4775   24.4405 C   0  0  0  0  0  0  0  0  0  0  0  0
  -23.0750  -28.0305   19.9686 C   0  0  0  0  0  0  0  0  0  0  0  0
  -24.7363  -26.3417   21.7386 C   0  0  0  0  0  0  0  0  0  0  0  0
  -19.1207  -29.1898   24.6515 C   0  0  0  0  0  0  0  0  0  0  0  0
  -28.8862  -20.6411   23.0896 C   0  0  0  0  0  0  0  0  0  0  0  0
  -20.6085  -29.4954   24.7924 C   0  0  0  0  0  0  0  0  0  0  0  0
  -28.5863  -19.2018   22.6728 C   0  0  0  0  0  0  0  0  0  0  0  0
  -28.0708  -21.6399   22.2742 C   0  0  0  0  0  0  0  0  0  0  0  0
  -27.9368  -20.0575   20.3769 C   0  0  0  0  0  0  0  0  0  0  0  0
  -21.1599  -30.1512   23.5206 C   0  0  1  0  0  0  0  0  0  0  0  0
  -22.5188  -27.4230   21.2527 C   0  0  1  0  0  0  0  0  0  0  0  0
  -28.7625  -19.0177   21.1551 C   0  0  2  0  0  0  0  0  0  0  0  0
  -28.6302  -22.4631   17.5653 C   0  0  0  0  0  0  0  0  0  0  0  0
  -24.0307  -19.8259   21.3011 C   0  0  0  0  0  0  0  0  0  0  0  0
  -31.7337  -22.1463   19.9983 C   0  0  0  0  0  0  0  0  0  0  0  0
  -31.6740  -22.1975   17.5209 C   0  0  0  0  0  0  0  0  0  0  0  0
  -23.2424  -25.1245   25.1965 C   0  0  0  0  0  0  0  0  0  0  0  0
  -23.9545  -22.7381   24.9391 C   0  0  0  0  0  0  0  0  0  0  0  0
  -21.5889  -23.3877   24.4866 C   0  0  0  0  0  0  0  0  0  0  0  0
  -24.3262  -22.1820   18.3283 C   0  0  0  0  0  0  0  0  0  0  0  0
  -30.7474  -28.4084   18.6398 C   0  0  0  0  0  0  0  0  0  0  0  0
  -29.3225  -28.9465   18.7109 C   0  0  0  0  0  0  0  0  0  1  0  0
  -29.4630  -22.1132   18.8017 C   0  0  1  0  0  0  0  0  0  0  0  0
  -23.3939  -24.0604   22.8490 C   0  0  1  0  0  0  0  0  0  0  0  0
  -23.7765  -21.1007   20.5117 C   0  0  2  0  0  0  0  0  0  0  0  0
  -30.9234  -22.7454   18.7889 C   0  0  0  0  0  0  0  0  0  0  0  0
  -23.0567  -23.8481   24.3519 C   0  0  0  0  0  0  0  0  0  0  0  0
  -30.8881  -26.3174   19.8977 N   0  0  0  0  0  0  0  0  0  0  0  0
  -30.7833  -24.8157   17.5315 N   0  0  0  0  0  0  0  0  0  0  0  0
  -27.1955  -17.1304   20.8987 N   0  0  0  0  0  0  0  0  0  0  0  0
  -28.4421  -17.5996   20.7196 N   0  0  0  0  0  0  0  0  0  0  0  0
  -23.2681  -26.2436   21.6908 N   0  0  0  0  0  0  0  0  0  0  0  0
  -28.2477  -21.4177   20.8381 N   0  0  0  0  0  0  0  0  0  0  0  0
  -30.5820  -17.0093   19.8933 N   0  0  0  0  0  0  0  0  0  0  0  0
  -28.1329  -13.2781   19.2032 N   0  0  0  0  0  0  0  0  0  0  0  0
  -21.3702  -29.1573   22.4899 N   0  0  0  0  0  0  0  0  0  0  0  0
  -23.2011  -22.8753   22.0203 N   0  0  0  0  0  0  0  0  0  0  0  0
  -24.5065  -21.0045   19.2160 N   0  3  0  0  0  0  0  0  0  0  0  0
  -30.2177  -14.2056   18.9748 O   0  0  0  0  0  0  0  0  0  0  0  0
  -23.4856  -28.4422   23.1504 O   0  0  0  0  0  0  0  0  0  0  0  0
  -28.3821  -23.6581   20.2359 O   0  0  0  0  0  0  0  0  0  0  0  0
  -21.3352  -25.0423   22.1977 O   0  0  0  0  0  0  0  0  0  0  0  0
  -25.3808  -22.7547   21.2382 O   0  0  0  0  0  0  0  0  0  0  0  0
  -22.7519  -12.5894   20.4705 O   0  0  0  0  0  0  0  0  0  0  0  0
  -28.7164  -28.5458   19.9391 O   0  0  0  0  0  0  0  0  0  1  0  0
  -23.4008   -7.3792   22.1545 F   0  0  0  0  0  0  0  0  0  0  0  0
  -21.3650  -11.6227   22.6578 F   0  0  0  0  0  0  0  0  0  0  0  0
  1  2  1  0  0  0  0
  1  5  2  0  0  0  0
  2  6  2  0  0  0  0
  3  8  2  0  0  0  0
  3 17  1  0  0  0  0
  4  9  1  0  0  0  0
  4 17  2  0  0  0  0
  5 19  1  0  0  0  0
  6 21  1  0  0  0  0
  7 10  2  0  0  0  0
  7 20  1  0  0  0  0
  8 23  1  0  0  0  0
  9 23  2  0  0  0  0
 10 24  1  0  0  0  0
 11 12  2  0  0  0  0
 11 25  1  0  0  0  0
 12 26  1  0  0  0  0
 13 22  1  0  0  0  0
 13 24  2  0  0  0  0
 14 26  2  0  0  0  0
 14 27  1  0  0  0  0
 15 29  1  0  0  0  0
 15 65  2  0  0  0  0
 16 30  2  0  0  0  0
 16 64  1  0  0  0  0
 17 28  1  0  0  0  0
 18 28  1  0  0  0  0
 18 31  2  0  0  0  0
 18 32  1  0  0  0  0
 19 21  2  0  0  0  0
 19 37  1  0  0  0  0
 20 22  2  0  0  0  0
 20 38  1  0  0  0  0
 21 46  1  0  0  0  0
 22 39  1  0  0  0  0
 23 80  1  0  0  0  0
 24 81  1  0  0  0  0
 25 27  2  0  0  0  0
 25 80  1  0  0  0  0
 26 82  1  0  0  0  0
 27 83  1  0  0  0  0
 28 66  2  0  0  0  0
 29 57  1  0  0  0  0
 29 64  2  0  0  0  0
 30 62  1  0  0  0  0
 30 65  1  0  0  0  0
 31 67  1  0  0  0  0
 31 70  1  0  0  0  0
 32 71  1  0  0  0  0
 32 75  2  0  0  0  0
 33 47  1  0  0  0  0
 33 72  1  0  0  0  0
 33 76  2  0  0  0  0
 34 59  1  0  0  0  0
 34 69  1  0  0  0  0
 34 77  2  0  0  0  0
 35 60  1  0  0  0  0
 35 68  1  0  0  0  0
 35 78  2  0  0  0  0
 36 61  1  0  0  0  0
 36 73  1  0  0  0  0
 36 79  2  0  0  0  0
 37 40  1  0  0  0  0
 38 47  1  0  0  0  0
 39 68  1  0  0  0  0
 40 42  1  0  0  0  0
 41 43  1  0  0  0  0
 41 44  1  0  0  0  0
 42 46  1  0  0  0  0
 43 48  1  0  0  0  0
 44 69  1  0  0  0  0
 45 48  1  0  0  0  0
 45 69  1  0  0  0  0
 46 72  1  0  0  0  0
 47 68  1  0  0  0  0
 48 67  1  0  0  0  0
 49 59  1  0  0  0  0
 50 61  1  0  0  0  0
 51 62  1  0  0  0  0
 52 62  1  0  0  0  0
 53 63  1  0  0  0  0
 54 63  1  0  0  0  0
 55 63  1  0  0  0  0
 56 74  1  0  0  0  0
 57 58  1  0  0  0  0
 58 81  1  0  0  0  0
 59 62  1  0  0  0  0
 60 63  1  0  0  0  0
 60 73  1  0  0  0  0
 61 74  1  0  0  0  0
 66 67  1  0  0  0  0
M  CHG  1  74   1
M  ISO  4  34 100  58 101  59 100  81 101
M  END
> <Batch ID>
0050

> <Smiles>
CNC(C)C(=O)NC(C(=O)N1Cc2cc([101O:1][101CH2:1]Cc3cnc(C(C)(C)[100CH:0](C)[100C:0](=O)N4CCCC(n5nc(-c6ccc(Oc7ccc(F)cc7F)cc6)c(C(N)=O)c5N)C4)cn3)ccc2CC1C(=O)NC1CCCc2ccccc21)C(C)(C)C

> <Shape>
0.261

> <Color>
0.085

> <Negative vol penalty>
0.000

$$$$

  -OEChem-04052317313D

 85 93  0     1  0  0  0  0  0999 V2000
  -19.6506  -11.0725   26.3707 C   0  0  0  0  0  0  0  0  0  0  0  0
  -20.6668  -11.8330   25.8013 C   0  0  0  0  0  0  0  0  0  0  0  0
  -23.2686   -9.7511   19.8845 C   0  0  0  0  0  0  0  0  0  0  0  0
  -23.6537   -9.8863   22.2658 C   0  0  0  0  0  0  0  0  0  0  0  0
  -19.5728  -10.9409   27.7566 C   0  0  0  0  0  0  0  0  0  0  0  0
  -21.6053  -12.4634   26.6176 C   0  0  0  0  0  0  0  0  0  0  0  0
  -27.5353  -13.3725   25.3868 C   0  0  0  0  0  0  0  0  0  0  0  0
  -22.5435   -8.5738   20.0686 C   0  0  0  0  0  0  0  0  0  0  0  0
  -22.9285   -8.7090   22.4499 C   0  0  0  0  0  0  0  0  0  0  0  0
  -28.2342  -14.4777   24.9034 C   0  0  0  0  0  0  0  0  0  0  0  0
  -20.2851   -5.7277   19.9499 C   0  0  0  0  0  0  0  0  0  0  0  0
  -19.0767   -5.5966   19.2656 C   0  0  0  0  0  0  0  0  0  0  0  0
  -28.7944  -15.1049   27.1643 C   0  0  0  0  0  0  0  0  0  0  0  0
  -29.5228  -19.0969   21.5168 C   0  0  0  0  0  0  0  0  0  0  0  0
  -18.2282   -7.5606   20.3882 C   0  0  0  0  0  0  0  0  0  0  0  0
  -23.8238  -10.4073   20.9831 C   0  0  0  0  0  0  0  0  0  0  0  0
  -24.0743  -12.9393   20.7998 C   0  0  0  0  0  0  0  0  0  0  0  0
  -20.5165  -11.5620   28.5898 C   0  0  0  0  0  0  0  0  0  0  0  0
  -27.4513  -13.1309   26.7656 C   0  0  0  0  0  0  0  0  0  0  0  0
  -21.5393  -12.3411   28.0160 C   0  0  0  0  0  0  0  0  0  0  0  0
  -28.0960  -13.9945   27.6626 C   0  0  0  0  0  0  0  0  0  0  0  0
  -30.3681  -18.1613   22.0870 C   0  0  0  0  0  0  0  0  0  0  0  0
  -22.3734   -8.0528   21.3513 C   0  0  0  0  0  0  0  0  0  0  0  0
  -28.8615  -15.3458   25.7923 C   0  0  0  0  0  0  0  0  0  0  0  0
  -20.4650   -6.7751   20.8533 C   0  0  0  0  0  0  0  0  0  0  0  0
  -18.0483   -6.5131   19.4847 C   0  0  0  0  0  0  0  0  0  0  0  0
  -19.4366   -7.6916   21.0724 C   0  0  0  0  0  0  0  0  0  0  0  0
  -24.5735  -11.6230   20.7936 C   0  0  0  0  0  0  0  0  0  0  0  0
  -29.6089  -19.2996   20.1542 C   0  0  0  0  0  0  0  0  0  0  0  0
  -31.2432  -17.4902   21.2568 C   0  0  0  0  0  0  0  0  0  0  0  0
  -25.1779  -13.7261   20.5775 C   0  0  0  0  0  0  0  0  0  0  0  0
  -22.7329  -13.4088   20.9896 C   0  0  0  0  0  0  0  0  0  0  0  0
  -25.0782  -12.9679   28.8740 C   0  0  0  0  0  0  0  0  0  0  0  0
  -27.4480  -12.0374   30.8841 C   0  0  0  0  0  0  0  0  0  0  0  0
  -30.7764  -12.0429   31.6381 C   0  0  0  0  0  0  0  0  0  0  0  0
  -30.8350  -13.0701   21.6609 C   0  0  0  0  0  0  0  0  0  0  0  0
  -20.3637  -11.4298   30.0844 C   0  0  0  0  0  0  0  0  0  0  0  0
  -26.7161  -11.9194   27.2697 C   0  0  0  0  0  0  0  0  0  0  0  0
  -28.0529  -13.7682   29.1510 C   0  0  0  0  0  0  0  0  0  0  0  0
  -21.6174  -11.8221   30.8619 C   0  0  0  0  0  0  0  0  0  0  0  0
  -29.4608  -13.6748   18.4643 C   0  0  0  0  0  0  0  0  0  0  0  0
  -22.1790  -13.1405   30.3392 C   0  0  0  0  0  0  0  0  0  0  0  0
  -27.9896  -13.3343   18.6981 C   0  0  0  0  0  0  0  0  0  0  0  0
  -30.3970  -12.7050   19.1877 C   0  0  0  0  0  0  0  0  0  0  0  0
  -28.6447  -12.2292   20.8687 C   0  0  0  0  0  0  0  0  0  0  0  0
  -22.5906  -13.0198   28.8670 C   0  0  1  0  0  0  0  0  0  0  0  0
  -26.2625  -12.0562   28.7199 C   0  0  1  0  0  0  0  0  0  0  0  0
  -27.6826  -13.2242   20.2016 C   0  0  2  0  0  0  0  0  0  0  0  0
  -28.7209  -20.2961   19.4909 C   0  0  0  0  0  0  0  0  0  0  0  0
  -32.4063  -11.2313   33.3649 C   0  0  0  0  0  0  0  0  0  0  0  0
  -26.5409  -14.2515   32.7774 C   0  0  0  0  0  0  0  0  0  0  0  0
  -28.7243  -14.0215   33.9807 C   0  0  0  0  0  0  0  0  0  0  0  0
  -27.1378  -12.0982   33.9004 C   0  0  0  0  0  0  0  0  0  0  0  0
  -32.9354  -12.1289   20.6085 C   0  0  0  0  0  0  0  0  0  0  0  0
  -32.2337  -10.3967   29.6568 C   0  0  0  0  0  0  0  0  0  0  0  0
  -30.3192  -17.8974   23.5724 C   0  0  0  0  0  0  0  0  0  0  0  0
  -33.8573  -14.9314   21.6055 C   0  0  0  0  0  0  0  0  0  0  0  0
  -33.0625  -13.8690   22.3526 C   0  0  0  0  0  0  0  0  0  0  0  0
  -29.5764  -16.6088   23.9082 C   0  0  0  0  0  0  0  0  0  1  0  0
  -32.9706  -15.9087   20.8434 C   0  0  0  0  0  0  0  0  0  0  0  0
  -28.4042  -12.7482   31.8110 C   0  0  1  0  0  0  0  0  0  0  0  0
  -31.7192  -10.9243   32.0434 C   0  0  2  0  0  0  0  0  0  0  0  0
  -27.7012  -13.2855   33.0895 C   0  0  0  0  0  0  0  0  0  0  0  0
  -25.8916  -11.5725   20.5838 N   0  0  0  0  0  0  0  0  0  0  0  0
  -30.4750  -18.6285   19.3658 N   0  0  0  0  0  0  0  0  0  0  0  0
  -31.3055  -17.7087   19.9262 N   0  0  0  0  0  0  0  0  0  0  0  0
  -26.2300  -12.8668   20.4561 N   0  0  0  0  0  0  0  0  0  0  0  0
  -27.3163  -12.5734   29.5952 N   0  0  0  0  0  0  0  0  0  0  0  0
  -30.0395  -12.5936   20.6085 N   0  0  0  0  0  0  0  0  0  0  0  0
  -25.3412  -15.0623   20.4759 N   0  0  0  0  0  0  0  0  0  0  0  0
  -21.7192  -12.4654   21.2063 N   0  0  0  0  0  0  0  0  0  0  0  0
  -23.8581  -12.3309   28.7514 N   0  0  0  0  0  0  0  0  0  0  0  0
  -29.4897  -11.8099   32.0756 N   0  0  0  0  0  0  0  0  0  0  0  0
  -32.2241  -13.0770   21.4638 N   0  0  0  0  0  0  0  0  0  0  0  0
  -32.7679  -10.7282   31.0028 N   0  3  0  0  0  0  0  0  0  0  0  0
  -22.4392  -14.6277   20.9513 O   0  0  0  0  0  0  0  0  0  0  0  0
  -25.2580  -14.1608   29.0897 O   0  0  0  0  0  0  0  0  0  0  0  0
  -26.8455  -11.0389   31.2864 O   0  0  0  0  0  0  0  0  0  0  0  0
  -31.1452  -13.0267   31.0006 O   0  0  0  0  0  0  0  0  0  0  0  0
  -30.3333  -13.4611   22.7228 O   0  0  0  0  0  0  0  0  0  0  0  0
  -21.6656   -6.9043   21.5313 O   0  0  0  0  0  0  0  0  0  0  0  0
  -29.5438  -16.4257   25.3231 O   0  0  0  0  0  0  0  0  0  1  0  0
  -32.1012  -16.5547   21.7673 O   0  0  0  0  0  0  0  0  0  0  0  0
  -16.8884   -6.3881   18.8264 F   0  0  0  0  0  0  0  0  0  0  0  0
  -19.6040   -8.7006   21.9383 F   0  0  0  0  0  0  0  0  0  0  0  0
  1  2  1  0  0  0  0
  1  5  2  0  0  0  0
  2  6  2  0  0  0  0
  3  8  2  0  0  0  0
  3 16  1  0  0  0  0
  4  9  1  0  0  0  0
  4 16  2  0  0  0  0
  5 18  1  0  0  0  0
  6 20  1  0  0  0  0
  7 10  2  0  0  0  0
  7 19  1  0  0  0  0
  8 23  1  0  0  0  0
  9 23  2  0  0  0  0
 10 24  1  0  0  0  0
 11 12  2  0  0  0  0
 11 25  1  0  0  0  0
 12 26  1  0  0  0  0
 13 21  1  0  0  0  0
 13 24  2  0  0  0  0
 14 22  1  0  0  0  0
 14 29  2  0  0  0  0
 15 26  2  0  0  0  0
 15 27  1  0  0  0  0
 16 28  1  0  0  0  0
 17 28  1  0  0  0  0
 17 31  2  0  0  0  0
 17 32  1  0  0  0  0
 18 20  2  0  0  0  0
 18 37  1  0  0  0  0
 19 21  2  0  0  0  0
 19 38  1  0  0  0  0
 20 46  1  0  0  0  0
 21 39  1  0  0  0  0
 22 30  2  0  0  0  0
 22 56  1  0  0  0  0
 23 81  1  0  0  0  0
 24 82  1  0  0  0  0
 25 27  2  0  0  0  0
 25 81  1  0  0  0  0
 26 84  1  0  0  0  0
 27 85  1  0  0  0  0
 28 64  2  0  0  0  0
 29 49  1  0  0  0  0
 29 65  1  0  0  0  0
 30 66  1  0  0  0  0
 30 83  1  0  0  0  0
 31 67  1  0  0  0  0
 31 70  1  0  0  0  0
 32 71  1  0  0  0  0
 32 76  2  0  0  0  0
 33 47  1  0  0  0  0
 33 72  1  0  0  0  0
 33 77  2  0  0  0  0
 34 61  1  0  0  0  0
 34 68  1  0  0  0  0
 34 78  2  0  0  0  0
 35 62  1  0  0  0  0
 35 73  1  0  0  0  0
 35 79  2  0  0  0  0
 36 69  1  0  0  0  0
 36 74  1  0  0  0  0
 36 80  2  0  0  0  0
 37 40  1  0  0  0  0
 38 47  1  0  0  0  0
 39 68  1  0  0  0  0
 40 42  1  0  0  0  0
 41 43  1  0  0  0  0
 41 44  1  0  0  0  0
 42 46  1  0  0  0  0
 43 48  1  0  0  0  0
 44 69  1  0  0  0  0
 45 48  1  0  0  0  0
 45 69  1  0  0  0  0
 46 72  1  0  0  0  0
 47 68  1  0  0  0  0
 48 67  1  0  0  0  0
 50 62  1  0  0  0  0
 51 63  1  0  0  0  0
 52 63  1  0  0  0  0
 53 63  1  0  0  0  0
 54 74  1  0  0  0  0
 55 75  1  0  0  0  0
 56 59  1  0  0  0  0
 57 58  1  0  0  0  0
 57 60  1  0  0  0  0
 58 74  1  0  0  0  0
 59 82  1  0  0  0  0
 60 83  1  0  0  0  0
 61 63  1  0  0  0  0
 61 73  1  0  0  0  0
 62 75  1  0  0  0  0
 64 67  1  0  0  0  0
 65 66  2  0  0  0  0
M  CHG  1  75   1
M  ISO  4  36 100  59 101  74 100  82 101
M  END
> <Batch ID>
0050

> <Smiles>
CNC(C)C(=O)NC(C(=O)N1Cc2cc([101O:1][101CH2:1]Cc3cc(C)nnc3OCCC[100N:0](C)[100C:0](=O)N3CCCC(n4nc(-c5ccc(Oc6ccc(F)cc6F)cc5)c(C(N)=O)c4N)C3)ccc2CC1C(=O)NC1CCCc2ccccc21)C(C)(C)C

> <Shape>
0.160

> <Color>
0.188

> <Negative vol penalty>
0.000

$$$$

  -OEChem-04052317313D

 84 92  0     1  0  0  0  0  0999 V2000
  -36.5883  -26.2678   17.6037 C   0  0  0  0  0  0  0  0  0  0  0  0
  -35.7577  -25.1939   17.2999 C   0  0  0  0  0  0  0  0  0  0  0  0
  -22.9758   -9.9820   19.9933 C   0  0  0  0  0  0  0  0  0  0  0  0
  -23.7150   -9.9974   22.2934 C   0  0  0  0  0  0  0  0  0  0  0  0
  -36.2184  -27.1749   18.5958 C   0  0  0  0  0  0  0  0  0  0  0  0
  -34.5570  -25.0260   17.9887 C   0  0  0  0  0  0  0  0  0  0  0  0
  -29.3043  -22.8151   15.7465 C   0  0  0  0  0  0  0  0  0  0  0  0
  -22.1855   -8.8628   20.2547 C   0  0  0  0  0  0  0  0  0  0  0  0
  -22.9247   -8.8781   22.5549 C   0  0  0  0  0  0  0  0  0  0  0  0
  -28.7171  -21.5520   15.8057 C   0  0  0  0  0  0  0  0  0  0  0  0
  -23.0913   -5.5386   22.0539 C   0  0  0  0  0  0  0  0  0  0  0  0
  -23.6601   -4.5023   22.7942 C   0  0  0  0  0  0  0  0  0  0  0  0
  -27.4000  -22.2597   17.6987 C   0  0  0  0  0  0  0  0  0  0  0  0
  -21.9516   -4.7697   24.4814 C   0  0  0  0  0  0  0  0  0  0  0  0
  -27.0214  -18.2859   20.7642 C   0  0  0  0  0  0  0  0  0  0  0  0
  -23.7406  -10.5493   21.0126 C   0  0  0  0  0  0  0  0  0  0  0  0
  -24.1814  -13.0570   20.8552 C   0  0  0  0  0  0  0  0  0  0  0  0
  -35.0080  -27.0234   19.2905 C   0  0  0  0  0  0  0  0  0  0  0  0
  -28.9511  -23.8083   16.6714 C   0  0  0  0  0  0  0  0  0  0  0  0
  -34.1711  -25.9312   18.9920 C   0  0  0  0  0  0  0  0  0  0  0  0
  -27.9823  -23.5353   17.6476 C   0  0  0  0  0  0  0  0  0  0  0  0
  -22.1599   -8.3109   21.5355 C   0  0  0  0  0  0  0  0  0  0  0  0
  -27.7669  -21.2732   16.7837 C   0  0  0  0  0  0  0  0  0  0  0  0
  -21.9526   -6.1906   22.5275 C   0  0  0  0  0  0  0  0  0  0  0  0
  -23.0902   -4.1178   24.0079 C   0  0  0  0  0  0  0  0  0  0  0  0
  -21.3828   -5.8061   23.7412 C   0  0  0  0  0  0  0  0  0  0  0  0
  -28.2835  -18.2352   21.3200 C   0  0  0  0  0  0  0  0  0  0  0  0
  -24.5577  -11.7051   20.7431 C   0  0  0  0  0  0  0  0  0  0  0  0
  -29.3158  -17.9956   20.4362 C   0  0  0  0  0  0  0  0  0  0  0  0
  -25.3050  -13.7576   20.4903 C   0  0  0  0  0  0  0  0  0  0  0  0
  -27.8639  -17.8904   18.6904 C   0  0  0  0  0  0  0  0  0  0  0  0
  -22.9282  -13.6284   21.2536 C   0  0  0  0  0  0  0  0  0  0  0  0
  -30.5085  -25.4515   18.9026 C   0  0  0  0  0  0  0  0  0  0  0  0
  -27.6927  -27.0442   19.1419 C   0  0  0  0  0  0  0  0  0  0  0  0
  -24.3115  -27.0365   18.6794 C   0  0  0  0  0  0  0  0  0  0  0  0
  -30.8223  -14.5666   20.7143 C   0  0  0  0  0  0  0  0  0  0  0  0
  -34.6730  -28.0028   20.3874 C   0  0  0  0  0  0  0  0  0  0  0  0
  -29.5742  -25.1741   16.5775 C   0  0  0  0  0  0  0  0  0  0  0  0
  -27.5535  -24.5733   18.6512 C   0  0  0  0  0  0  0  0  0  0  0  0
  -33.2070  -27.9648   20.8112 C   0  0  0  0  0  0  0  0  0  0  0  0
  -29.6142  -12.1889   18.3556 C   0  0  0  0  0  0  0  0  0  0  0  0
  -32.7451  -26.5243   21.0070 C   0  0  0  0  0  0  0  0  0  0  0  0
  -28.1626  -11.9582   18.7795 C   0  0  0  0  0  0  0  0  0  0  0  0
  -30.5285  -12.3938   19.5615 C   0  0  0  0  0  0  0  0  0  0  0  0
  -28.6443  -13.2207   20.9179 C   0  0  0  0  0  0  0  0  0  0  0  0
  -32.8490  -25.7291   19.7000 C   0  0  1  0  0  0  0  0  0  0  0  0
  -29.5158  -25.9490   17.8903 C   0  0  1  0  0  0  0  0  0  0  0  0
  -27.6746  -13.0645   19.7340 C   0  0  2  0  0  0  0  0  0  0  0  0
  -22.2756  -28.4674   19.0040 C   0  0  0  0  0  0  0  0  0  0  0  0
  -31.2777  -19.2084   21.6096 C   0  0  0  0  0  0  0  0  0  0  0  0
  -31.6949  -17.6735   19.7055 C   0  0  0  0  0  0  0  0  0  0  0  0
  -27.7521  -26.4459   22.1333 C   0  0  0  0  0  0  0  0  0  0  0  0
  -25.3205  -27.0345   22.2284 C   0  0  0  0  0  0  0  0  0  0  0  0
  -26.9927  -28.7552   21.5461 C   0  0  0  0  0  0  0  0  0  0  0  0
  -23.7179  -27.0524   15.7800 C   0  0  0  0  0  0  0  0  0  0  0  0
  -27.6278  -17.6943   17.2125 C   0  0  0  0  0  0  0  0  0  0  0  0
  -30.9606  -16.7331   21.9170 C   0  0  0  0  0  0  0  0  0  0  0  0
  -27.9783  -18.9358   16.3996 C   0  0  0  0  0  0  0  0  0  1  0  0
  -26.4327  -26.8717   19.9552 C   0  0  1  0  0  0  0  0  0  0  0  0
  -23.3794  -28.0523   18.0437 C   0  0  2  0  0  0  0  0  0  0  0  0
  -30.7302  -17.9164   20.9110 C   0  0  0  0  0  0  0  0  0  0  0  0
  -26.6338  -27.2564   21.4482 C   0  0  0  0  0  0  0  0  0  0  0  0
  -26.7744  -18.1173   19.4486 N   0  0  0  0  0  0  0  0  0  0  0  0
  -25.8215  -11.5535   20.3384 N   0  0  0  0  0  0  0  0  0  0  0  0
  -29.1414  -17.8176   19.1102 N   0  0  0  0  0  0  0  0  0  0  0  0
  -26.2491  -12.8192   20.1930 N   0  0  0  0  0  0  0  0  0  0  0  0
  -28.1962  -25.8915   18.5223 N   0  0  0  0  0  0  0  0  0  0  0  0
  -30.0104  -13.4573   20.4255 N   0  0  0  0  0  0  0  0  0  0  0  0
  -25.5676  -15.0785   20.3978 N   0  0  0  0  0  0  0  0  0  0  0  0
  -21.8788  -12.7648   21.5958 N   0  0  0  0  0  0  0  0  0  0  0  0
  -31.7478  -26.0570   18.8200 N   0  0  0  0  0  0  0  0  0  0  0  0
  -25.3982  -27.6423   19.2737 N   0  0  0  0  0  0  0  0  0  0  0  0
  -30.2522  -15.5317   21.5356 N   0  0  0  0  0  0  0  0  0  0  0  0
  -22.7481  -27.4815   16.8204 N   0  3  0  0  0  0  0  0  0  0  0  0
  -22.7394  -14.8680   21.2888 O   0  0  0  0  0  0  0  0  0  0  0  0
  -30.1743  -24.5836   19.7006 O   0  0  0  0  0  0  0  0  0  0  0  0
  -28.2072  -28.1618   19.0534 O   0  0  0  0  0  0  0  0  0  0  0  0
  -24.0950  -25.8269   18.6547 O   0  0  0  0  0  0  0  0  0  0  0  0
  -31.9682  -14.6905   20.2688 O   0  0  0  0  0  0  0  0  0  0  0  0
  -21.3887   -7.2189   21.7910 O   0  0  0  0  0  0  0  0  0  0  0  0
  -27.1926  -20.0410   16.8441 O   0  0  0  0  0  0  0  0  0  1  0  0
  -23.6356   -3.1215   24.7178 F   0  0  0  0  0  0  0  0  0  0  0  0
  -20.2883   -6.4280   24.2006 F   0  0  0  0  0  0  0  0  0  0  0  0
  -28.5118  -18.4603   23.0034 Cl  0  0  0  0  0  0  0  0  0  0  0  0
  1  2  1  0  0  0  0
  1  5  2  0  0  0  0
  2  6  2  0  0  0  0
  3  8  2  0  0  0  0
  3 16  1  0  0  0  0
  4  9  1  0  0  0  0
  4 16  2  0  0  0  0
  5 18  1  0  0  0  0
  6 20  1  0  0  0  0
  7 10  2  0  0  0  0
  7 19  1  0  0  0  0
  8 22  1  0  0  0  0
  9 22  2  0  0  0  0
 10 23  1  0  0  0  0
 11 12  2  0  0  0  0
 11 24  1  0  0  0  0
 12 25  1  0  0  0  0
 13 21  1  0  0  0  0
 13 23  2  0  0  0  0
 14 25  2  0  0  0  0
 14 26  1  0  0  0  0
 15 27  1  0  0  0  0
 15 63  2  0  0  0  0
 16 28  1  0  0  0  0
 17 28  1  0  0  0  0
 17 30  2  0  0  0  0
 17 32  1  0  0  0  0
 18 20  2  0  0  0  0
 18 37  1  0  0  0  0
 19 21  2  0  0  0  0
 19 38  1  0  0  0  0
 20 46  1  0  0  0  0
 21 39  1  0  0  0  0
 22 80  1  0  0  0  0
 23 81  1  0  0  0  0
 24 26  2  0  0  0  0
 24 80  1  0  0  0  0
 25 82  1  0  0  0  0
 26 83  1  0  0  0  0
 27 29  2  0  0  0  0
 27 84  1  0  0  0  0
 28 64  2  0  0  0  0
 29 61  1  0  0  0  0
 29 65  1  0  0  0  0
 30 66  1  0  0  0  0
 30 69  1  0  0  0  0
 31 56  1  0  0  0  0
 31 63  1  0  0  0  0
 31 65  2  0  0  0  0
 32 70  1  0  0  0  0
 32 75  2  0  0  0  0
 33 47  1  0  0  0  0
 33 71  1  0  0  0  0
 33 76  2  0  0  0  0
 34 59  1  0  0  0  0
 34 67  1  0  0  0  0
 34 77  2  0  0  0  0
 35 60  1  0  0  0  0
 35 72  1  0  0  0  0
 35 78  2  0  0  0  0
 36 68  1  0  0  0  0
 36 73  1  0  0  0  0
 36 79  2  0  0  0  0
 37 40  1  0  0  0  0
 38 47  1  0  0  0  0
 39 67  1  0  0  0  0
 40 42  1  0  0  0  0
 41 43  1  0  0  0  0
 41 44  1  0  0  0  0
 42 46  1  0  0  0  0
 43 48  1  0  0  0  0
 44 68  1  0  0  0  0
 45 48  1  0  0  0  0
 45 68  1  0  0  0  0
 46 71  1  0  0  0  0
 47 67  1  0  0  0  0
 48 66  1  0  0  0  0
 49 60  1  0  0  0  0
 50 61  1  0  0  0  0
 51 61  1  0  0  0  0
 52 62  1  0  0  0  0
 53 62  1  0  0  0  0
 54 62  1  0  0  0  0
 55 74  1  0  0  0  0
 56 58  1  0  0  0  0
 57 61  1  0  0  0  0
 57 73  1  0  0  0  0
 58 81  1  0  0  0  0
 59 62  1  0  0  0  0
 59 72  1  0  0  0  0
 60 74  1  0  0  0  0
 64 66  1  0  0  0  0
M  CHG  1  74   1
M  ISO  4  36 100  58 101  73 100  81 101
M  END
> <Batch ID>
0050

> <Smiles>
CNC(C)C(=O)NC(C(=O)N1Cc2cc([101O:1][101CH2:1]Cc3ncc(Cl)c(C(C)(C)C[100NH:0][100C:0](=O)N4CCCC(n5nc(-c6ccc(Oc7ccc(F)cc7F)cc6)c(C(N)=O)c5N)C4)n3)ccc2CC1C(=O)NC1CCCc2ccccc21)C(C)(C)C

> <Shape>
0.297

> <Color>
0.205

> <Negative vol penalty>
0.000

$$$$

  -OEChem-04052317313D

 85 93  0     1  0  0  0  0  0999 V2000
  -23.4048  -14.5022   23.6799 C   0  0  0  0  0  0  0  0  0  0  0  0
  -23.7299  -15.8536   23.6225 C   0  0  0  0  0  0  0  0  0  0  0  0
  -28.8433  -17.4351   19.3351 C   0  0  0  0  0  0  0  0  0  0  0  0
  -30.4447  -18.1513   20.9964 C   0  0  0  0  0  0  0  0  0  0  0  0
  -23.1276  -13.8026   22.5062 C   0  0  0  0  0  0  0  0  0  0  0  0
  -23.7791  -16.5061   22.3912 C   0  0  0  0  0  0  0  0  0  0  0  0
  -22.2318  -22.3188   21.2403 C   0  0  0  0  0  0  0  0  0  0  0  0
  -29.4844  -16.1993   19.2498 C   0  0  0  0  0  0  0  0  0  0  0  0
  -31.0858  -16.9154   20.9112 C   0  0  0  0  0  0  0  0  0  0  0  0
  -22.9884  -23.4825   21.1091 C   0  0  0  0  0  0  0  0  0  0  0  0
  -30.4839  -12.7261   18.8584 C   0  0  0  0  0  0  0  0  0  0  0  0
  -29.6869  -11.5814   18.8485 C   0  0  0  0  0  0  0  0  0  0  0  0
  -22.9952  -23.2008   18.7133 C   0  0  0  0  0  0  0  0  0  0  0  0
  -26.6633  -28.7899   21.1562 C   0  0  0  0  0  0  0  0  0  0  0  0
  -28.8023  -12.1786   21.0160 C   0  0  0  0  0  0  0  0  0  0  0  0
  -25.8912  -28.4610   18.9308 C   0  0  0  0  0  0  0  0  0  0  0  0
  -29.3235  -18.4111   20.2084 C   0  0  0  0  0  0  0  0  0  0  0  0
  -27.6081  -20.0418   21.1602 C   0  0  0  0  0  0  0  0  0  0  0  0
  -23.1639  -14.4491   21.2606 C   0  0  0  0  0  0  0  0  0  0  0  0
  -21.8599  -21.5802   20.1078 C   0  0  0  0  0  0  0  0  0  0  0  0
  -23.5034  -15.8142   21.1995 C   0  0  0  0  0  0  0  0  0  0  0  0
  -22.2317  -22.0295   18.8326 C   0  0  0  0  0  0  0  0  0  0  0  0
  -26.6357  -29.2072   19.8301 C   0  0  0  0  0  0  0  0  0  0  0  0
  -25.9555  -27.6553   21.5370 C   0  0  0  0  0  0  0  0  0  0  0  0
  -30.6056  -15.9394   20.0379 C   0  0  0  0  0  0  0  0  0  0  0  0
  -23.3727  -23.9221   19.8457 C   0  0  0  0  0  0  0  0  0  0  0  0
  -30.4401  -13.5970   19.9471 C   0  0  0  0  0  0  0  0  0  0  0  0
  -28.8461  -11.3077   19.9273 C   0  0  0  0  0  0  0  0  0  0  0  0
  -29.5993  -13.3233   21.0259 C   0  0  0  0  0  0  0  0  0  0  0  0
  -28.6620  -19.6882   20.2965 C   0  0  0  0  0  0  0  0  0  0  0  0
  -25.2413  -26.9787   20.5613 C   0  0  0  0  0  0  0  0  0  0  0  0
  -27.3394  -21.3537   20.8548 C   0  0  0  0  0  0  0  0  0  0  0  0
  -26.9324  -19.2548   22.1500 C   0  0  0  0  0  0  0  0  0  0  0  0
  -22.4338  -18.6333   19.0637 C   0  0  0  0  0  0  0  0  0  0  0  0
  -20.3112  -19.4572   16.7533 C   0  0  0  0  0  0  0  0  0  0  0  0
  -18.7907  -21.9355   14.9664 C   0  0  0  0  0  0  0  0  0  0  0  0
  -30.7116  -25.6330   18.5808 C   0  0  0  0  0  0  0  0  0  0  0  0
  -22.9030  -13.6400   20.0149 C   0  0  0  0  0  0  0  0  0  0  0  0
  -21.0210  -20.3416   20.2644 C   0  0  0  0  0  0  0  0  0  0  0  0
  -21.8408  -21.2837   17.5839 C   0  0  0  0  0  0  0  0  0  0  0  0
  -22.6103  -14.4942   18.7840 C   0  0  0  0  0  0  0  0  0  0  0  0
  -27.5579  -24.4764   17.2342 C   0  0  0  0  0  0  0  0  0  0  0  0
  -23.6215  -15.6305   18.6701 C   0  0  0  0  0  0  0  0  0  0  0  0
  -27.3891  -23.1402   17.9598 C   0  0  0  0  0  0  0  0  0  0  0  0
  -29.0190  -24.7294   16.8746 C   0  0  0  0  0  0  0  0  0  0  0  0
  -29.7897  -23.3393   18.7580 C   0  0  0  0  0  0  0  0  0  0  0  0
  -23.5428  -16.5629   19.8850 C   0  0  1  0  0  0  0  0  0  0  0  0
  -21.1351  -19.3888   19.0784 C   0  0  1  0  0  0  0  0  0  0  0  0
  -28.3375  -23.0354   19.1688 C   0  0  2  0  0  0  0  0  0  0  0  0
  -25.9823  -27.2017   22.9558 C   0  0  0  0  0  0  0  0  0  0  0  0
  -17.1296  -22.2981   13.1207 C   0  0  0  0  0  0  0  0  0  0  0  0
  -22.4135  -18.6307   14.7022 C   0  0  0  0  0  0  0  0  0  0  0  0
  -21.1086  -19.8764   12.9661 C   0  0  0  0  0  0  0  0  0  0  0  0
  -20.0783  -17.9326   14.1419 C   0  0  0  0  0  0  0  0  0  0  0  0
  -16.9733  -23.4522   16.7428 C   0  0  0  0  0  0  0  0  0  0  0  0
  -29.5000  -31.6839   19.7157 C   0  0  0  0  0  0  0  0  0  0  0  0
  -27.3811  -30.4169   19.3908 C   0  0  0  0  0  0  0  0  0  0  0  0
  -24.4583  -25.7484   20.9143 C   0  0  0  0  0  0  0  0  0  1  0  0
  -30.8141  -28.8880   19.2244 C   0  0  0  0  0  0  0  0  0  0  0  0
  -31.5477  -27.9489   18.2730 C   0  0  0  0  0  0  0  0  0  0  0  0
  -29.5400  -29.4530   18.6096 C   0  0  0  0  0  0  0  0  0  0  0  0
  -20.4093  -20.1045   15.3930 C   0  0  1  0  0  0  0  0  0  0  0  0
  -17.3323  -22.1804   14.6233 C   0  0  2  0  0  0  0  0  0  0  0  0
  -21.0116  -19.1493   14.3243 C   0  0  0  0  0  0  0  0  0  0  0  0
  -25.1908  -27.3536   19.2634 N   0  0  0  0  0  0  0  0  0  0  0  0
  -29.0372  -20.6941   19.5019 N   0  0  0  0  0  0  0  0  0  0  0  0
  -28.2144  -21.6928   19.8651 N   0  0  0  0  0  0  0  0  0  0  0  0
  -21.0257  -20.0750   17.7895 N   0  0  0  0  0  0  0  0  0  0  0  0
  -29.8657  -24.6335   18.0721 N   0  0  0  0  0  0  0  0  0  0  0  0
  -26.4424  -22.2387   21.3390 N   0  0  0  0  0  0  0  0  0  0  0  0
  -27.3343  -17.9249   22.3348 N   0  0  0  0  0  0  0  0  0  0  0  0
  -22.4024  -17.4465   19.7709 N   0  0  0  0  0  0  0  0  0  0  0  0
  -19.0708  -20.5897   15.0744 N   0  0  0  0  0  0  0  0  0  0  0  0
  -30.7310  -26.8261   17.8689 N   0  0  0  0  0  0  0  0  0  0  0  0
  -16.8543  -23.4392   15.2620 N   0  3  0  0  0  0  0  0  0  0  0  0
  -28.8507  -30.3277   19.6240 N   0  3  1  0  0  0  0  0  0  0  0  0
  -25.9889  -19.7124   22.8385 O   0  0  0  0  0  0  0  0  0  0  0  0
  -23.3929  -19.0923   18.4546 O   0  0  0  0  0  0  0  0  0  0  0  0
  -19.6201  -18.4450   16.8930 O   0  0  0  0  0  0  0  0  0  0  0  0
  -19.6011  -22.8467   15.1193 O   0  0  0  0  0  0  0  0  0  0  0  0
  -31.3955  -25.4758   19.5980 O   0  0  0  0  0  0  0  0  0  0  0  0
  -31.2313  -14.7335   19.9551 O   0  0  0  0  0  0  0  0  0  0  0  0
  -24.1117  -25.0572   19.7149 O   0  0  0  0  0  0  0  0  0  1  0  0
  -28.0797  -10.2092   19.9170 F   0  0  0  0  0  0  0  0  0  0  0  0
  -29.5520  -14.1569   22.0741 F   0  0  0  0  0  0  0  0  0  0  0  0
  1  2  1  0  0  0  0
  1  5  2  0  0  0  0
  2  6  2  0  0  0  0
  3  8  2  0  0  0  0
  3 17  1  0  0  0  0
  4  9  1  0  0  0  0
  4 17  2  0  0  0  0
  5 19  1  0  0  0  0
  6 21  1  0  0  0  0
  7 10  2  0  0  0  0
  7 20  1  0  0  0  0
  8 25  1  0  0  0  0
  9 25  2  0  0  0  0
 10 26  1  0  0  0  0
 11 12  2  0  0  0  0
 11 27  1  0  0  0  0
 12 28  1  0  0  0  0
 13 22  1  0  0  0  0
 13 26  2  0  0  0  0
 14 23  2  0  0  0  0
 14 24  1  0  0  0  0
 15 28  2  0  0  0  0
 15 29  1  0  0  0  0
 16 23  1  0  0  0  0
 16 65  2  0  0  0  0
 17 30  1  0  0  0  0
 18 30  1  0  0  0  0
 18 32  2  0  0  0  0
 18 33  1  0  0  0  0
 19 21  2  0  0  0  0
 19 38  1  0  0  0  0
 20 22  2  0  0  0  0
 20 39  1  0  0  0  0
 21 47  1  0  0  0  0
 22 40  1  0  0  0  0
 23 57  1  0  0  0  0
 24 31  2  0  0  0  0
 24 50  1  0  0  0  0
 25 82  1  0  0  0  0
 26 83  1  0  0  0  0
 27 29  2  0  0  0  0
 27 82  1  0  0  0  0
 28 84  1  0  0  0  0
 29 85  1  0  0  0  0
 30 66  2  0  0  0  0
 31 58  1  0  0  0  0
 31 65  1  0  0  0  0
 32 67  1  0  0  0  0
 32 70  1  0  0  0  0
 33 71  1  0  0  0  0
 33 77  2  0  0  0  0
 34 48  1  0  0  0  0
 34 72  1  0  0  0  0
 34 78  2  0  0  0  0
 35 62  1  0  0  0  0
 35 68  1  0  0  0  0
 35 79  2  0  0  0  0
 36 63  1  0  0  0  0
 36 73  1  0  0  0  0
 36 80  2  0  0  0  0
 37 69  1  0  0  0  0
 37 74  1  0  0  0  0
 37 81  2  0  0  0  0
 38 41  1  0  0  0  0
 39 48  1  0  0  0  0
 40 68  1  0  0  0  0
 41 43  1  0  0  0  0
 42 44  1  0  0  0  0
 42 45  1  0  0  0  0
 43 47  1  0  0  0  0
 44 49  1  0  0  0  0
 45 69  1  0  0  0  0
 46 49  1  0  0  0  0
 46 69  1  0  0  0  0
 47 72  1  0  0  0  0
 48 68  1  0  0  0  0
 49 67  1  0  0  0  0
 51 63  1  0  0  0  0
 52 64  1  0  0  0  0
 53 64  1  0  0  0  0
 54 64  1  0  0  0  0
 55 75  1  0  0  0  0
 56 76  1  0  0  0  0
 57 76  1  0  0  0  0
 58 83  1  0  0  0  0
 59 60  1  0  0  0  0
 59 61  1  0  0  0  0
 60 74  1  0  0  0  0
 61 76  1  0  0  0  0
 62 64  1  0  0  0  0
 62 73  1  0  0  0  0
 63 75  1  0  0  0  0
 66 67  1  0  0  0  0
M  CHG  2  75   1  76   1
M  ISO  4  37 100  58 101  74 100  83 101
M  END
> <Batch ID>
0050

> <Smiles>
CNC(C)C(=O)NC(C(=O)N1Cc2cc([101O:1][101CH2:1]c3ncc(CN(C)CCC[100NH:0][100C:0](=O)N4CCCC(n5nc(-c6ccc(Oc7ccc(F)cc7F)cc6)c(C(N)=O)c5N)C4)cc3C)ccc2CC1C(=O)NC1CCCc2ccccc21)C(C)(C)C

> <Shape>
0.178

> <Color>
0.067

> <Negative vol penalty>
0.000

$$$$

  -OEChem-04052317313D

 84 92  0     1  0  0  0  0  0999 V2000
  -29.3611  -33.9729   24.2494 C   0  0  0  0  0  0  0  0  0  0  0  0
  -29.3259  -32.8524   23.4255 C   0  0  0  0  0  0  0  0  0  0  0  0
  -26.6994  -12.5344   21.7400 C   0  0  0  0  0  0  0  0  0  0  0  0
  -26.1168  -13.9448   19.8670 C   0  0  0  0  0  0  0  0  0  0  0  0
  -28.6855  -33.9616   25.4689 C   0  0  0  0  0  0  0  0  0  0  0  0
  -28.6159  -31.7195   23.8213 C   0  0  0  0  0  0  0  0  0  0  0  0
  -25.8095  -29.7797   20.0787 C   0  0  0  0  0  0  0  0  0  0  0  0
  -25.4022  -12.0221   21.7578 C   0  0  0  0  0  0  0  0  0  0  0  0
  -24.8195  -13.4325   19.8848 C   0  0  0  0  0  0  0  0  0  0  0  0
  -26.4710  -29.0197   19.1151 C   0  0  0  0  0  0  0  0  0  0  0  0
  -23.5991   -9.7453   20.0263 C   0  0  0  0  0  0  0  0  0  0  0  0
  -23.4490   -8.3649   20.1580 C   0  0  0  0  0  0  0  0  0  0  0  0
  -25.7377  -27.0007   20.2129 C   0  0  0  0  0  0  0  0  0  0  0  0
  -22.1949   -8.6956   22.1964 C   0  0  0  0  0  0  0  0  0  0  0  0
  -30.6719  -24.9985   20.4211 C   0  0  0  0  0  0  0  0  0  0  0  0
  -27.0567  -13.4958   20.7946 C   0  0  0  0  0  0  0  0  0  0  0  0
  -29.4985  -13.5259   20.0566 C   0  0  0  0  0  0  0  0  0  0  0  0
  -27.9588  -32.8314   25.8755 C   0  0  0  0  0  0  0  0  0  0  0  0
  -25.1151  -29.1550   21.1246 C   0  0  0  0  0  0  0  0  0  0  0  0
  -27.9310  -31.6925   25.0481 C   0  0  0  0  0  0  0  0  0  0  0  0
  -25.0661  -27.7550   21.1871 C   0  0  0  0  0  0  0  0  0  0  0  0
  -24.4622  -12.4712   20.8302 C   0  0  0  0  0  0  0  0  0  0  0  0
  -26.4376  -27.6300   19.1837 C   0  0  0  0  0  0  0  0  0  0  0  0
  -23.0472  -10.6010   20.9797 C   0  0  0  0  0  0  0  0  0  0  0  0
  -22.7469   -7.8400   21.2430 C   0  0  0  0  0  0  0  0  0  0  0  0
  -22.3450  -10.0761   22.0647 C   0  0  0  0  0  0  0  0  0  0  0  0
  -28.3965  -14.0257   20.7760 C   0  0  0  0  0  0  0  0  0  0  0  0
  -29.8465  -23.9717   20.0586 C   0  0  0  0  0  0  0  0  0  0  0  0
  -30.5299  -14.3755   20.3744 C   0  0  0  0  0  0  0  0  0  0  0  0
  -29.6635  -25.5661   18.5339 C   0  0  0  0  0  0  0  0  0  0  0  0
  -29.5823  -12.3949   19.1794 C   0  0  0  0  0  0  0  0  0  0  0  0
  -25.3792  -29.1293   24.2922 C   0  0  0  0  0  0  0  0  0  0  0  0
  -22.6324  -27.4127   24.1176 C   0  0  0  0  0  0  0  0  0  0  0  0
  -20.5963  -25.3828   22.2789 C   0  0  0  0  0  0  0  0  0  0  0  0
  -30.8419  -19.9832   22.1446 C   0  0  0  0  0  0  0  0  0  0  0  0
  -27.2835  -32.8490   27.2239 C   0  0  0  0  0  0  0  0  0  0  0  0
  -24.3844  -29.9889   22.1410 C   0  0  0  0  0  0  0  0  0  0  0  0
  -24.3175  -27.0356   22.2782 C   0  0  0  0  0  0  0  0  0  0  0  0
  -26.2446  -31.7444   27.3993 C   0  0  0  0  0  0  0  0  0  0  0  0
  -32.0947  -17.2416   23.8594 C   0  0  0  0  0  0  0  0  0  0  0  0
  -26.8023  -30.4066   26.9238 C   0  0  0  0  0  0  0  0  0  0  0  0
  -31.3996  -16.0491   23.2039 C   0  0  0  0  0  0  0  0  0  0  0  0
  -31.1284  -18.4075   24.0319 C   0  0  0  0  0  0  0  0  0  0  0  0
  -29.7911  -17.6728   22.0843 C   0  0  0  0  0  0  0  0  0  0  0  0
  -27.1512  -30.4535   25.4313 C   0  0  1  0  0  0  0  0  0  0  0  0
  -24.1384  -29.2512   23.4536 C   0  0  1  0  0  0  0  0  0  0  0  0
  -30.7251  -16.4616   21.8838 C   0  0  2  0  0  0  0  0  0  0  0  0
  -28.2099  -17.6546   18.9818 C   0  0  0  0  0  0  0  0  0  0  0  0
  -18.4391  -24.1083   22.4184 C   0  0  0  0  0  0  0  0  0  0  0  0
  -24.0056  -25.2786   25.8118 C   0  0  0  0  0  0  0  0  0  0  0  0
  -22.2083  -23.6765   25.1256 C   0  0  0  0  0  0  0  0  0  0  0  0
  -21.6223  -25.7235   26.4252 C   0  0  0  0  0  0  0  0  0  0  0  0
  -28.2723  -23.5597   18.1436 C   0  0  0  0  0  0  0  0  0  0  0  0
  -19.3986  -26.9401   20.0654 C   0  0  0  0  0  0  0  0  0  0  0  0
  -29.5878  -22.6827   20.7117 C   0  0  0  0  0  0  0  0  0  0  0  0
  -29.2481  -26.3553   17.3161 C   0  0  0  0  0  0  0  0  0  0  0  0
  -29.4211  -18.3865   19.5431 C   0  0  0  0  0  0  0  0  0  0  0  0
  -30.5218  -21.5405   20.2604 C   0  0  0  0  0  0  0  0  0  0  0  0
  -29.0384  -19.5753   20.4165 C   0  0  0  0  0  0  0  0  0  0  0  0
  -28.2487  -27.4567   17.6521 C   0  0  0  0  0  0  0  0  0  1  0  0
  -22.2938  -25.9464   23.9980 C   0  0  1  0  0  0  0  0  0  0  0  0
  -19.1002  -25.4202   22.0249 C   0  0  2  0  0  0  0  0  0  0  0  0
  -22.5483  -25.1695   25.3205 C   0  0  0  0  0  0  0  0  0  0  0  0
  -28.6994  -15.1087   21.4967 N   0  0  0  0  0  0  0  0  0  0  0  0
  -29.2349  -24.3502   18.8878 N   0  0  0  0  0  0  0  0  0  0  0  0
  -30.0035  -15.2964   21.2318 N   0  0  0  0  0  0  0  0  0  0  0  0
  -30.5388  -25.9712   19.4598 N   0  3  0  0  0  0  0  0  0  0  0  0
  -23.6243  -27.8951   23.2520 N   0  0  0  0  0  0  0  0  0  0  0  0
  -30.5024  -18.7691   22.7598 N   0  0  0  0  0  0  0  0  0  0  0  0
  -31.8266  -14.4171   20.0014 N   0  0  0  0  0  0  0  0  0  0  0  0
  -28.4280  -11.6299   18.9634 N   0  0  0  0  0  0  0  0  0  0  0  0
  -25.9524  -30.3409   24.6283 N   0  0  0  0  0  0  0  0  0  0  0  0
  -20.9157  -25.8830   23.5235 N   0  0  0  0  0  0  0  0  0  0  0  0
  -30.2072  -20.2869   20.9307 N   0  0  0  0  0  0  0  0  0  0  0  0
  -18.8259  -25.6703   20.5815 N   0  3  0  0  0  0  0  0  0  0  0  0
  -30.6532  -12.0626   18.6171 O   0  0  0  0  0  0  0  0  0  0  0  0
  -25.7856  -28.0183   24.6119 O   0  0  0  0  0  0  0  0  0  0  0  0
  -22.0336  -28.1061   24.9436 O   0  0  0  0  0  0  0  0  0  0  0  0
  -21.4009  -24.9496   21.4570 O   0  0  0  0  0  0  0  0  0  0  0  0
  -31.6614  -20.7579   22.6547 O   0  0  0  0  0  0  0  0  0  0  0  0
  -23.1963  -11.9713   20.8472 O   0  0  0  0  0  0  0  0  0  0  0  0
  -27.0829  -26.8857   18.2448 O   0  0  0  0  0  0  0  0  0  1  0  0
  -22.6016   -6.5144   21.3685 F   0  0  0  0  0  0  0  0  0  0  0  0
  -21.8115  -10.8932   22.9832 F   0  0  0  0  0  0  0  0  0  0  0  0
  1  2  1  0  0  0  0
  1  5  2  0  0  0  0
  2  6  2  0  0  0  0
  3  8  2  0  0  0  0
  3 16  1  0  0  0  0
  4  9  1  0  0  0  0
  4 16  2  0  0  0  0
  5 18  1  0  0  0  0
  6 20  1  0  0  0  0
  7 10  2  0  0  0  0
  7 19  1  0  0  0  0
  8 22  1  0  0  0  0
  9 22  2  0  0  0  0
 10 23  1  0  0  0  0
 11 12  2  0  0  0  0
 11 24  1  0  0  0  0
 12 25  1  0  0  0  0
 13 21  1  0  0  0  0
 13 23  2  0  0  0  0
 14 25  2  0  0  0  0
 14 26  1  0  0  0  0
 15 28  2  0  0  0  0
 15 67  1  0  0  0  0
 16 27  1  0  0  0  0
 17 27  1  0  0  0  0
 17 29  2  0  0  0  0
 17 31  1  0  0  0  0
 18 20  2  0  0  0  0
 18 36  1  0  0  0  0
 19 21  2  0  0  0  0
 19 37  1  0  0  0  0
 20 45  1  0  0  0  0
 21 38  1  0  0  0  0
 22 81  1  0  0  0  0
 23 82  1  0  0  0  0
 24 26  2  0  0  0  0
 24 81  1  0  0  0  0
 25 83  1  0  0  0  0
 26 84  1  0  0  0  0
 27 64  2  0  0  0  0
 28 55  1  0  0  0  0
 28 65  1  0  0  0  0
 29 66  1  0  0  0  0
 29 70  1  0  0  0  0
 30 56  1  0  0  0  0
 30 65  1  0  0  0  0
 30 67  2  0  0  0  0
 31 71  1  0  0  0  0
 31 76  2  0  0  0  0
 32 46  1  0  0  0  0
 32 72  1  0  0  0  0
 32 77  2  0  0  0  0
 33 61  1  0  0  0  0
 33 68  1  0  0  0  0
 33 78  2  0  0  0  0
 34 62  1  0  0  0  0
 34 73  1  0  0  0  0
 34 79  2  0  0  0  0
 35 69  1  0  0  0  0
 35 74  1  0  0  0  0
 35 80  2  0  0  0  0
 36 39  1  0  0  0  0
 37 46  1  0  0  0  0
 38 68  1  0  0  0  0
 39 41  1  0  0  0  0
 40 42  1  0  0  0  0
 40 43  1  0  0  0  0
 41 45  1  0  0  0  0
 42 47  1  0  0  0  0
 43 69  1  0  0  0  0
 44 47  1  0  0  0  0
 44 69  1  0  0  0  0
 45 72  1  0  0  0  0
 46 68  1  0  0  0  0
 47 66  1  0  0  0  0
 48 57  1  0  0  0  0
 49 62  1  0  0  0  0
 50 63  1  0  0  0  0
 51 63  1  0  0  0  0
 52 63  1  0  0  0  0
 53 65  1  0  0  0  0
 54 75  1  0  0  0  0
 55 58  1  0  0  0  0
 56 60  1  0  0  0  0
 57 59  1  0  0  0  0
 58 74  1  0  0  0  0
 59 74  1  0  0  0  0
 60 82  1  0  0  0  0
 61 63  1  0  0  0  0
 61 73  1  0  0  0  0
 62 75  1  0  0  0  0
 64 66  1  0  0  0  0
M  CHG  2  67   1  75   1
M  ISO  4  35 100  60 101  74 100  82 101
M  END
> <Batch ID>
0050

> <Smiles>
CCC[100N:0](CCc1cnc(C[101CH2:1][101O:1]c2ccc3c(c2)CN(C(=O)C(NC(=O)C(C)NC)C(C)(C)C)C(C(=O)NC2CCCc4ccccc42)C3)n1C)[100C:0](=O)N1CCCC(n2nc(-c3ccc(Oc4ccc(F)cc4F)cc3)c(C(N)=O)c2N)C1

> <Shape>
0.331

> <Color>
0.066

> <Negative vol penalty>
0.000

$$$$

  -OEChem-04052317313D

 80 88  0     1  0  0  0  0  0999 V2000
  -25.3289  -29.1140   20.0131 C   0  0  0  0  0  0  0  0  0  0  0  0
  -25.2011  -28.1216   19.0467 C   0  0  0  0  0  0  0  0  0  0  0  0
  -23.0249  -16.8850   20.3816 C   0  0  0  0  0  0  0  0  0  0  0  0
  -23.4048  -16.2939   18.0701 C   0  0  0  0  0  0  0  0  0  0  0  0
  -26.2917  -28.9909   21.0141 C   0  0  0  0  0  0  0  0  0  0  0  0
  -26.0369  -27.0058   19.0799 C   0  0  0  0  0  0  0  0  0  0  0  0
  -26.0681  -20.0065   17.5550 C   0  0  0  0  0  0  0  0  0  0  0  0
  -22.1447  -17.8897   19.9801 C   0  0  0  0  0  0  0  0  0  0  0  0
  -22.5245  -17.2986   17.6685 C   0  0  0  0  0  0  0  0  0  0  0  0
  -26.8046  -19.0634   16.8396 C   0  0  0  0  0  0  0  0  0  0  0  0
  -19.5209  -20.3736   19.5787 C   0  0  0  0  0  0  0  0  0  0  0  0
  -18.3117  -20.4885   20.2644 C   0  0  0  0  0  0  0  0  0  0  0  0
  -28.3786  -18.9192   18.6620 C   0  0  0  0  0  0  0  0  0  0  0  0
  -17.7291  -18.2356   19.6149 C   0  0  0  0  0  0  0  0  0  0  0  0
  -30.2102  -14.6831   16.5365 C   0  0  0  0  0  0  0  0  0  0  0  0
  -23.6551  -16.0871   19.4266 C   0  0  0  0  0  0  0  0  0  0  0  0
  -24.2495  -13.7086   20.1316 C   0  0  0  0  0  0  0  0  0  0  0  0
  -27.1332  -27.8685   21.0653 C   0  0  0  0  0  0  0  0  0  0  0  0
  -26.4880  -20.4219   18.8268 C   0  0  0  0  0  0  0  0  0  0  0  0
  -27.0127  -26.8682   20.0817 C   0  0  0  0  0  0  0  0  0  0  0  0
  -27.6443  -19.8659   19.3924 C   0  0  0  0  0  0  0  0  0  0  0  0
  -21.8945  -18.0965   18.6235 C   0  0  0  0  0  0  0  0  0  0  0  0
  -27.9616  -18.5217   17.3919 C   0  0  0  0  0  0  0  0  0  0  0  0
  -19.8342  -19.1896   18.9110 C   0  0  0  0  0  0  0  0  0  0  0  0
  -17.4158  -19.4196   20.2825 C   0  0  0  0  0  0  0  0  0  0  0  0
  -18.9383  -18.1206   18.9291 C   0  0  0  0  0  0  0  0  0  0  0  0
  -24.5649  -15.0494   19.8408 C   0  0  0  0  0  0  0  0  0  0  0  0
  -29.3125  -14.9806   15.5421 C   0  0  0  0  0  0  0  0  0  0  0  0
  -25.4519  -13.1396   20.4738 C   0  0  0  0  0  0  0  0  0  0  0  0
  -22.9831  -13.0375   20.0956 C   0  0  0  0  0  0  0  0  0  0  0  0
  -27.3897  -23.1925   20.0974 C   0  0  0  0  0  0  0  0  0  0  0  0
  -27.4038  -21.4793   22.8519 C   0  0  0  0  0  0  0  0  0  0  0  0
  -31.0600  -13.4554   18.9921 C   0  0  0  0  0  0  0  0  0  0  0  0
  -27.6414  -18.4301   24.3660 C   0  0  0  0  0  0  0  0  0  0  0  0
  -28.1906  -27.8023   22.1386 C   0  0  0  0  0  0  0  0  0  0  0  0
  -25.6678  -21.4204   19.5967 C   0  0  0  0  0  0  0  0  0  0  0  0
  -28.1267  -20.2633   20.7628 C   0  0  0  0  0  0  0  0  0  0  0  0
  -28.7859  -26.4086   22.3221 C   0  0  0  0  0  0  0  0  0  0  0  0
  -29.8062  -14.8519   22.0446 C   0  0  0  0  0  0  0  0  0  0  0  0
  -29.1353  -25.7952   20.9699 C   0  0  0  0  0  0  0  0  0  0  0  0
  -28.2999  -14.9450   21.8047 C   0  0  0  0  0  0  0  0  0  0  0  0
  -30.5929  -15.1152   20.7644 C   0  0  0  0  0  0  0  0  0  0  0  0
  -28.7008  -14.3243   19.3800 C   0  0  0  0  0  0  0  0  0  0  0  0
  -27.8841  -25.6311   20.0987 C   0  0  1  0  0  0  0  0  0  0  0  0
  -26.4691  -22.1518   20.6693 C   0  0  1  0  0  0  0  0  0  0  0  0
  -27.8682  -14.0346   20.6414 C   0  0  2  0  0  0  0  0  0  0  0  0
  -27.6565  -17.3517   26.6319 C   0  0  0  0  0  0  0  0  0  0  0  0
  -31.6821  -11.7982   17.2631 C   0  0  0  0  0  0  0  0  0  0  0  0
  -29.5719  -11.5795   18.5762 C   0  0  0  0  0  0  0  0  0  0  0  0
  -30.2686  -22.4357   23.2853 C   0  0  0  0  0  0  0  0  0  0  0  0
  -30.5417  -20.6236   24.9911 C   0  0  0  0  0  0  0  0  0  0  0  0
  -28.8503  -22.4227   25.3450 C   0  0  0  0  0  0  0  0  0  0  0  0
  -25.2221  -16.8394   23.7531 C   0  0  0  0  0  0  0  0  0  0  0  0
  -29.1616  -16.2555   14.7483 C   0  0  0  0  0  0  0  0  0  0  0  0
  -28.1961  -17.2364   15.4047 C   0  0  0  0  0  0  0  0  0  1  0  0
  -28.4275  -20.6517   23.5909 C   0  0  1  0  0  0  0  0  0  0  0  0
  -26.8016  -17.7742   25.4472 C   0  0  2  0  0  0  0  0  0  0  0  0
  -30.5157  -12.5843   17.8881 C   0  0  0  0  0  0  0  0  0  0  0  0
  -29.5143  -21.5272   24.2764 C   0  0  0  0  0  0  0  0  0  0  0  0
  -25.8656  -15.3163   19.9858 N   0  0  0  0  0  0  0  0  0  0  0  0
  -28.4974  -13.9051   15.3221 N   0  0  0  0  0  0  0  0  0  0  0  0
  -28.8627  -12.9385   16.1572 N   0  0  0  0  0  0  0  0  0  0  0  0
  -29.8897  -13.4071   16.8845 N   0  0  0  0  0  0  0  0  0  0  0  0
  -26.3781  -14.1354   20.3715 N   0  0  0  0  0  0  0  0  0  0  0  0
  -27.2939  -21.2477   21.4734 N   0  0  0  0  0  0  0  0  0  0  0  0
  -30.1378  -14.2465   19.6774 N   0  0  0  0  0  0  0  0  0  0  0  0
  -25.7965  -11.8895   20.8494 N   0  0  0  0  0  0  0  0  0  0  0  0
  -21.8486  -13.7710   19.7223 N   0  0  0  0  0  0  0  0  0  0  0  0
  -27.1193  -24.4786   20.5245 N   0  0  0  0  0  0  0  0  0  0  0  0
  -27.6785  -19.8010   24.5094 N   0  0  0  0  0  0  0  0  0  0  0  0
  -26.1151  -16.5661   24.9084 N   0  3  0  0  0  0  0  0  0  0  0  0
  -22.8584  -11.8274   20.4016 O   0  0  0  0  0  0  0  0  0  0  0  0
  -28.2803  -22.8537   19.3269 O   0  0  0  0  0  0  0  0  0  0  0  0
  -26.7217  -22.2960   23.4759 O   0  0  0  0  0  0  0  0  0  0  0  0
  -32.2687  -13.4299   19.2385 O   0  0  0  0  0  0  0  0  0  0  0  0
  -28.2107  -17.7900   23.4847 O   0  0  0  0  0  0  0  0  0  0  0  0
  -21.0354  -19.0767   18.2313 O   0  0  0  0  0  0  0  0  0  0  0  0
  -28.6827  -17.6014   16.6955 O   0  0  0  0  0  0  0  0  0  1  0  0
  -16.2553  -19.5296   20.9423 F   0  0  0  0  0  0  0  0  0  0  0  0
  -19.2343  -16.9803   18.2905 F   0  0  0  0  0  0  0  0  0  0  0  0
  1  2  1  0  0  0  0
  1  5  2  0  0  0  0
  2  6  2  0  0  0  0
  3  8  2  0  0  0  0
  3 16  1  0  0  0  0
  4  9  1  0  0  0  0
  4 16  2  0  0  0  0
  5 18  1  0  0  0  0
  6 20  1  0  0  0  0
  7 10  2  0  0  0  0
  7 19  1  0  0  0  0
  8 22  1  0  0  0  0
  9 22  2  0  0  0  0
 10 23  1  0  0  0  0
 11 12  2  0  0  0  0
 11 24  1  0  0  0  0
 12 25  1  0  0  0  0
 13 21  1  0  0  0  0
 13 23  2  0  0  0  0
 14 25  2  0  0  0  0
 14 26  1  0  0  0  0
 15 28  2  0  0  0  0
 15 63  1  0  0  0  0
 16 27  1  0  0  0  0
 17 27  1  0  0  0  0
 17 29  2  0  0  0  0
 17 30  1  0  0  0  0
 18 20  2  0  0  0  0
 18 35  1  0  0  0  0
 19 21  2  0  0  0  0
 19 36  1  0  0  0  0
 20 44  1  0  0  0  0
 21 37  1  0  0  0  0
 22 77  1  0  0  0  0
 23 78  1  0  0  0  0
 24 26  2  0  0  0  0
 24 77  1  0  0  0  0
 25 79  1  0  0  0  0
 26 80  1  0  0  0  0
 27 60  2  0  0  0  0
 28 54  1  0  0  0  0
 28 61  1  0  0  0  0
 29 64  1  0  0  0  0
 29 67  1  0  0  0  0
 30 68  1  0  0  0  0
 30 72  2  0  0  0  0
 31 45  1  0  0  0  0
 31 69  1  0  0  0  0
 31 73  2  0  0  0  0
 32 56  1  0  0  0  0
 32 65  1  0  0  0  0
 32 74  2  0  0  0  0
 33 58  1  0  0  0  0
 33 66  1  0  0  0  0
 33 75  2  0  0  0  0
 34 57  1  0  0  0  0
 34 70  1  0  0  0  0
 34 76  2  0  0  0  0
 35 38  1  0  0  0  0
 36 45  1  0  0  0  0
 37 65  1  0  0  0  0
 38 40  1  0  0  0  0
 39 41  1  0  0  0  0
 39 42  1  0  0  0  0
 40 44  1  0  0  0  0
 41 46  1  0  0  0  0
 42 66  1  0  0  0  0
 43 46  1  0  0  0  0
 43 66  1  0  0  0  0
 44 69  1  0  0  0  0
 45 65  1  0  0  0  0
 46 64  1  0  0  0  0
 47 57  1  0  0  0  0
 48 58  1  0  0  0  0
 49 58  1  0  0  0  0
 50 59  1  0  0  0  0
 51 59  1  0  0  0  0
 52 59  1  0  0  0  0
 53 71  1  0  0  0  0
 54 55  1  0  0  0  0
 55 78  1  0  0  0  0
 56 59  1  0  0  0  0
 56 70  1  0  0  0  0
 57 71  1  0  0  0  0
 58 63  1  0  0  0  0
 60 64  1  0  0  0  0
 61 62  2  0  0  0  0
 62 63  1  0  0  0  0
M  CHG  1  71   1
M  ISO  4  33 100  55 101  58 100  78 101
M  END
> <Batch ID>
0050

> <Smiles>
CNC(C)C(=O)NC(C(=O)N1Cc2cc([101O:1][101CH2:1]Cc3cn([100C:0](C)(C)[100C:0](=O)N4CCCC(n5nc(-c6ccc(Oc7ccc(F)cc7F)cc6)c(C(N)=O)c5N)C4)nn3)ccc2CC1C(=O)NC1CCCc2ccccc21)C(C)(C)C

> <Shape>
0.165

> <Color>
0.058

> <Negative vol penalty>
0.000

$$$$

  -OEChem-04052317313D

 83 91  0     1  0  0  0  0  0999 V2000
  -29.3140  -12.7273   19.9557 C   0  0  0  0  0  0  0  0  0  0  0  0
  -28.9549  -14.0145   19.5692 C   0  0  0  0  0  0  0  0  0  0  0  0
  -29.6950  -21.1215   21.3455 C   0  0  0  0  0  0  0  0  0  0  0  0
  -28.8727  -20.9265   19.0821 C   0  0  0  0  0  0  0  0  0  0  0  0
  -28.3290  -11.8083   20.3151 C   0  0  0  0  0  0  0  0  0  0  0  0
  -27.6105  -14.3833   19.5408 C   0  0  0  0  0  0  0  0  0  0  0  0
  -25.2746  -19.8896   20.8562 C   0  0  0  0  0  0  0  0  0  0  0  0
  -30.1975  -19.8223   21.2749 C   0  0  0  0  0  0  0  0  0  0  0  0
  -29.3752  -19.6272   19.0115 C   0  0  0  0  0  0  0  0  0  0  0  0
  -24.8710  -20.9539   20.0512 C   0  0  0  0  0  0  0  0  0  0  0  0
  -28.9962  -16.6715   21.5063 C   0  0  0  0  0  0  0  0  0  0  0  0
  -28.7671  -15.8289   22.5940 C   0  0  0  0  0  0  0  0  0  0  0  0
  -22.5943  -20.1639   20.1586 C   0  0  0  0  0  0  0  0  0  0  0  0
  -31.1503  -15.5833   22.9057 C   0  0  0  0  0  0  0  0  0  0  0  0
  -22.0794  -23.6331   16.4345 C   0  0  0  0  0  0  0  0  0  0  0  0
  -29.0325  -21.6736   20.2491 C   0  0  0  0  0  0  0  0  0  0  0  0
  -29.1805  -24.2057   19.9762 C   0  0  0  0  0  0  0  0  0  0  0  0
  -26.9724  -12.1689   20.3004 C   0  0  0  0  0  0  0  0  0  0  0  0
  -24.3412  -18.9467   21.3103 C   0  0  0  0  0  0  0  0  0  0  0  0
  -26.6063  -13.4679   19.8991 C   0  0  0  0  0  0  0  0  0  0  0  0
  -22.9882  -19.0900   20.9714 C   0  0  0  0  0  0  0  0  0  0  0  0
  -30.0377  -19.0751   20.1080 C   0  0  0  0  0  0  0  0  0  0  0  0
  -23.5311  -21.0896   19.6999 C   0  0  0  0  0  0  0  0  0  0  0  0
  -30.3023  -16.9700   21.1182 C   0  0  0  0  0  0  0  0  0  0  0  0
  -29.8441  -15.2848   23.2937 C   0  0  0  0  0  0  0  0  0  0  0  0
  -31.3794  -16.4259   21.8180 C   0  0  0  0  0  0  0  0  0  0  0  0
  -28.5127  -23.0155   20.3216 C   0  0  0  0  0  0  0  0  0  0  0  0
  -21.5159  -23.3901   17.7015 C   0  0  0  0  0  0  0  0  0  0  0  0
  -21.5480  -24.8392   16.0480 C   0  0  0  0  0  0  0  0  0  0  0  0
  -28.2635  -25.1980   20.2229 C   0  0  0  0  0  0  0  0  0  0  0  0
  -30.5108  -24.3971   19.4768 C   0  0  0  0  0  0  0  0  0  0  0  0
  -23.9439  -15.8170   20.9219 C   0  0  0  0  0  0  0  0  0  0  0  0
  -21.5762  -16.2419   23.0982 C   0  0  0  0  0  0  0  0  0  0  0  0
  -23.1392  -27.1374   19.7147 C   0  0  0  0  0  0  0  0  0  0  0  0
  -18.5530  -17.8231   23.1793 C   0  0  0  0  0  0  0  0  0  0  0  0
  -25.9404  -11.1267   20.6517 C   0  0  0  0  0  0  0  0  0  0  0  0
  -24.7884  -17.8193   22.2000 C   0  0  0  0  0  0  0  0  0  0  0  0
  -21.9435  -18.1162   21.4497 C   0  0  0  0  0  0  0  0  0  0  0  0
  -24.5632  -11.7112   20.9549 C   0  0  0  0  0  0  0  0  0  0  0  0
  -23.8236  -25.0683   22.6263 C   0  0  0  0  0  0  0  0  0  0  0  0
  -24.1744  -12.7385   19.8963 C   0  0  0  0  0  0  0  0  0  0  0  0
  -25.1532  -24.4235   22.2373 C   0  0  0  0  0  0  0  0  0  0  0  0
  -22.9165  -25.2597   21.4136 C   0  0  0  0  0  0  0  0  0  0  0  0
  -24.8799  -25.3903   19.9128 C   0  0  0  0  0  0  0  0  0  0  0  0
  -25.1601  -13.9131   19.8793 C   0  0  1  0  0  0  0  0  0  0  0  0
  -23.8344  -16.6290   22.1814 C   0  0  1  0  0  0  0  0  0  0  0  0
  -25.8361  -25.2078   21.1033 C   0  0  2  0  0  0  0  0  0  0  0  0
  -21.7437  -25.6356   14.8228 C   0  0  0  0  0  0  0  0  0  0  0  0
  -21.6959  -29.1595   19.9508 C   0  0  0  0  0  0  0  0  0  0  0  0
  -16.3070  -17.7232   24.2941 C   0  0  0  0  0  0  0  0  0  0  0  0
  -20.8108  -13.8698   21.3382 C   0  0  0  0  0  0  0  0  0  0  0  0
  -18.4056  -14.4183   21.7653 C   0  0  0  0  0  0  0  0  0  0  0  0
  -19.8941  -13.7823   23.6634 C   0  0  0  0  0  0  0  0  0  0  0  0
  -18.8871  -20.5188   24.3541 C   0  0  0  0  0  0  0  0  0  0  0  0
  -19.4151  -26.9673   20.2055 C   0  0  0  0  0  0  0  0  0  0  0  0
  -21.7464  -22.2051   18.5926 C   0  0  0  0  0  0  0  0  0  1  0  0
  -19.9430  -26.4393   17.1333 C   0  0  0  0  0  0  0  0  0  0  0  0
  -20.5340  -27.5052   18.0466 C   0  0  0  0  0  0  0  0  0  0  0  0
  -20.1745  -16.0461   22.5731 C   0  0  1  0  0  0  0  0  0  0  0  0
  -21.8057  -27.6643   20.1817 C   0  0  1  0  0  0  0  0  0  0  0  0
  -17.7059  -18.3181   24.3377 C   0  0  2  0  0  0  0  0  0  0  0  0
  -19.8388  -14.5485   22.3238 C   0  0  0  0  0  0  0  0  0  0  0  0
  -27.2676  -23.2300   20.7549 N   0  0  0  0  0  0  0  0  0  0  0  0
  -20.6899  -24.3637   18.0938 N   0  0  0  0  0  0  0  0  0  0  0  0
  -20.7306  -25.2302   17.0674 N   0  0  0  0  0  0  0  0  0  0  0  0
  -27.1458  -24.5665   20.6835 N   0  0  0  0  0  0  0  0  0  0  0  0
  -22.4313  -17.0272   22.3120 N   0  0  0  0  0  0  0  0  0  0  0  0
  -23.6129  -25.9868   20.3456 N   0  0  0  0  0  0  0  0  0  0  0  0
  -28.3122  -26.5404   20.0887 N   0  0  0  0  0  0  0  0  0  0  0  0
  -31.3197  -23.2695   19.2809 N   0  0  0  0  0  0  0  0  0  0  0  0
  -24.8922  -14.8136   20.9801 N   0  0  0  0  0  0  0  0  0  0  0  0
  -19.2866  -16.7074   23.5232 N   0  0  0  0  0  0  0  0  0  0  0  0
  -17.5867  -19.8030   24.2948 N   0  3  0  0  0  0  0  0  0  0  0  0
  -20.7035  -26.9697   19.4197 N   0  3  1  0  0  0  0  0  0  0  0  0
  -30.9743  -25.5358   19.2277 O   0  0  0  0  0  0  0  0  0  0  0  0
  -23.2205  -16.0803   19.9685 O   0  0  0  0  0  0  0  0  0  0  0  0
  -21.8984  -15.7232   24.1700 O   0  0  0  0  0  0  0  0  0  0  0  0
  -23.7415  -27.7335   18.8180 O   0  0  0  0  0  0  0  0  0  0  0  0
  -18.5602  -18.3691   22.0782 O   0  0  0  0  0  0  0  0  0  0  0  0
  -30.5281  -17.8074   20.0387 O   0  0  0  0  0  0  0  0  0  0  0  0
  -23.1346  -22.1272   18.9137 O   0  0  0  0  0  0  0  0  0  1  0  0
  -29.6239  -14.4768   24.3391 F   0  0  0  0  0  0  0  0  0  0  0  0
  -32.6364  -16.7100   21.4506 F   0  0  0  0  0  0  0  0  0  0  0  0
  1  2  1  0  0  0  0
  1  5  2  0  0  0  0
  2  6  2  0  0  0  0
  3  8  2  0  0  0  0
  3 16  1  0  0  0  0
  4  9  1  0  0  0  0
  4 16  2  0  0  0  0
  5 18  1  0  0  0  0
  6 20  1  0  0  0  0
  7 10  2  0  0  0  0
  7 19  1  0  0  0  0
  8 22  1  0  0  0  0
  9 22  2  0  0  0  0
 10 23  1  0  0  0  0
 11 12  2  0  0  0  0
 11 24  1  0  0  0  0
 12 25  1  0  0  0  0
 13 21  1  0  0  0  0
 13 23  2  0  0  0  0
 14 25  2  0  0  0  0
 14 26  1  0  0  0  0
 15 28  1  0  0  0  0
 15 29  2  0  0  0  0
 16 27  1  0  0  0  0
 17 27  1  0  0  0  0
 17 30  2  0  0  0  0
 17 31  1  0  0  0  0
 18 20  2  0  0  0  0
 18 36  1  0  0  0  0
 19 21  2  0  0  0  0
 19 37  1  0  0  0  0
 20 45  1  0  0  0  0
 21 38  1  0  0  0  0
 22 80  1  0  0  0  0
 23 81  1  0  0  0  0
 24 26  2  0  0  0  0
 24 80  1  0  0  0  0
 25 82  1  0  0  0  0
 26 83  1  0  0  0  0
 27 63  2  0  0  0  0
 28 56  1  0  0  0  0
 28 64  2  0  0  0  0
 29 48  1  0  0  0  0
 29 65  1  0  0  0  0
 30 66  1  0  0  0  0
 30 69  1  0  0  0  0
 31 70  1  0  0  0  0
 31 75  2  0  0  0  0
 32 46  1  0  0  0  0
 32 71  1  0  0  0  0
 32 76  2  0  0  0  0
 33 59  1  0  0  0  0
 33 67  1  0  0  0  0
 33 77  2  0  0  0  0
 34 60  1  0  0  0  0
 34 68  1  0  0  0  0
 34 78  2  0  0  0  0
 35 61  1  0  0  0  0
 35 72  1  0  0  0  0
 35 79  2  0  0  0  0
 36 39  1  0  0  0  0
 37 46  1  0  0  0  0
 38 67  1  0  0  0  0
 39 41  1  0  0  0  0
 40 42  1  0  0  0  0
 40 43  1  0  0  0  0
 41 45  1  0  0  0  0
 42 47  1  0  0  0  0
 43 68  1  0  0  0  0
 44 47  1  0  0  0  0
 44 68  1  0  0  0  0
 45 71  1  0  0  0  0
 46 67  1  0  0  0  0
 47 66  1  0  0  0  0
 49 60  1  0  0  0  0
 50 61  1  0  0  0  0
 51 62  1  0  0  0  0
 52 62  1  0  0  0  0
 53 62  1  0  0  0  0
 54 73  1  0  0  0  0
 55 74  1  0  0  0  0
 56 81  1  0  0  0  0
 57 58  1  0  0  0  0
 57 65  1  0  0  0  0
 58 74  1  0  0  0  0
 59 62  1  0  0  0  0
 59 72  1  0  0  0  0
 60 74  1  0  0  0  0
 61 73  1  0  0  0  0
 63 66  1  0  0  0  0
 64 65  1  0  0  0  0
M  CHG  2  73   1  74   1
M  ISO  4  34 100  56 101  60 100  81 101
M  END
> <Batch ID>
0050

> <Smiles>
CNC(C)C(=O)NC(C(=O)N1Cc2cc([101O:1][101CH2:1]c3cc(C)n(CCN(C)[100CH:0](C)[100C:0](=O)N4CCCC(n5nc(-c6ccc(Oc7ccc(F)cc7F)cc6)c(C(N)=O)c5N)C4)n3)ccc2CC1C(=O)NC1CCCc2ccccc21)C(C)(C)C

> <Shape>
0.173

> <Color>
0.083

> <Negative vol penalty>
0.000

$$$$

  -OEChem-04052317313D

 81 89  0     1  0  0  0  0  0999 V2000
  -19.0206  -33.4711   21.7146 C   0  0  0  0  0  0  0  0  0  0  0  0
  -20.3348  -33.2456   21.3178 C   0  0  0  0  0  0  0  0  0  0  0  0
  -25.9133  -15.9932   20.1868 C   0  0  0  0  0  0  0  0  0  0  0  0
  -28.0942  -15.0293   19.7976 C   0  0  0  0  0  0  0  0  0  0  0  0
  -18.4354  -32.6540   22.6810 C   0  0  0  0  0  0  0  0  0  0  0  0
  -21.0650  -32.2034   21.8880 C   0  0  0  0  0  0  0  0  0  0  0  0
  -25.2789  -28.7201   19.1285 C   0  0  0  0  0  0  0  0  0  0  0  0
  -25.3914  -14.7201   20.4157 C   0  0  0  0  0  0  0  0  0  0  0  0
  -27.5723  -13.7561   20.0266 C   0  0  0  0  0  0  0  0  0  0  0  0
  -26.6722  -28.7686   19.1131 C   0  0  0  0  0  0  0  0  0  0  0  0
  -24.3865  -12.0720   18.5713 C   0  0  0  0  0  0  0  0  0  0  0  0
  -23.1705  -11.7526   17.9672 C   0  0  0  0  0  0  0  0  0  0  0  0
  -26.7427  -27.1324   20.8842 C   0  0  0  0  0  0  0  0  0  0  0  0
  -22.1900  -11.3716   20.1423 C   0  0  0  0  0  0  0  0  0  0  0  0
  -30.8156  -27.1660   19.1097 C   0  0  0  0  0  0  0  0  0  0  0  0
  -29.3313  -25.4516   17.5921 C   0  0  0  0  0  0  0  0  0  0  0  0
  -27.2647  -16.1478   19.8777 C   0  0  0  0  0  0  0  0  0  0  0  0
  -28.3611  -18.3374   20.5927 C   0  0  0  0  0  0  0  0  0  0  0  0
  -19.1556  -31.5953   23.2563 C   0  0  0  0  0  0  0  0  0  0  0  0
  -24.6058  -27.8840   20.0308 C   0  0  0  0  0  0  0  0  0  0  0  0
  -20.4893  -31.3722   22.8640 C   0  0  0  0  0  0  0  0  0  0  0  0
  -25.3409  -27.0731   20.9072 C   0  0  0  0  0  0  0  0  0  0  0  0
  -30.7116  -25.3957   17.4849 C   0  0  0  0  0  0  0  0  0  0  0  0
  -26.2209  -13.6016   20.3356 C   0  0  0  0  0  0  0  0  0  0  0  0
  -27.4043  -27.9769   19.9930 C   0  0  0  0  0  0  0  0  0  0  0  0
  -24.5043  -12.0411   19.9609 C   0  0  0  0  0  0  0  0  0  0  0  0
  -22.0723  -11.4024   18.7527 C   0  0  0  0  0  0  0  0  0  0  0  0
  -23.4061  -11.6909   20.7464 C   0  0  0  0  0  0  0  0  0  0  0  0
  -31.4606  -26.2727   18.2616 C   0  0  0  0  0  0  0  0  0  0  0  0
  -27.8043  -17.4626   19.6406 C   0  0  0  0  0  0  0  0  0  0  0  0
  -29.4307  -27.1428   19.1443 C   0  0  0  0  0  0  0  0  0  1  0  0
  -28.7233  -19.4471   19.8689 C   0  0  0  0  0  0  0  0  0  0  0  0
  -28.5353  -18.1626   22.0050 C   0  0  0  0  0  0  0  0  0  0  0  0
  -22.5647  -28.3471   22.4231 C   0  0  0  0  0  0  0  0  0  0  0  0
  -22.4306  -25.1060   22.4202 C   0  0  0  0  0  0  0  0  0  0  0  0
  -23.9376  -22.1447   21.6415 C   0  0  0  0  0  0  0  0  0  0  0  0
  -31.3276  -21.3367   15.1823 C   0  0  0  0  0  0  0  0  0  0  0  0
  -18.4961  -30.7684   24.3314 C   0  0  0  0  0  0  0  0  0  0  0  0
  -23.1029  -27.8233   20.0165 C   0  0  0  0  0  0  0  0  0  0  0  0
  -24.6664  -26.1435   21.8816 C   0  0  0  0  0  0  0  0  0  0  0  0
  -19.2154  -29.4521   24.6147 C   0  0  0  0  0  0  0  0  0  0  0  0
  -27.6673  -20.7898   15.1174 C   0  0  0  0  0  0  0  0  0  0  0  0
  -20.7178  -29.6820   24.7446 C   0  0  0  0  0  0  0  0  0  0  0  0
  -27.4437  -19.8877   16.3299 C   0  0  0  0  0  0  0  0  0  0  0  0
  -29.0621  -20.6098   14.5261 C   0  0  0  0  0  0  0  0  0  0  0  0
  -29.9388  -19.8917   16.7238 C   0  0  0  0  0  0  0  0  0  0  0  0
  -21.3057  -30.2363   23.4413 C   0  0  1  0  0  0  0  0  0  0  0  0
  -22.5128  -27.3180   21.3294 C   0  0  1  0  0  0  0  0  0  0  0  0
  -28.5592  -20.0824   17.3716 C   0  0  2  0  0  0  0  0  0  0  0  0
  -23.6004  -19.6627   21.7945 C   0  0  0  0  0  0  0  0  0  0  0  0
  -23.1045  -25.2002   25.3946 C   0  0  0  0  0  0  0  0  0  0  0  0
  -23.6832  -22.7676   25.2693 C   0  0  0  0  0  0  0  0  0  0  0  0
  -21.3577  -23.5218   24.7733 C   0  0  0  0  0  0  0  0  0  0  0  0
  -33.4686  -22.1174   16.1237 C   0  0  0  0  0  0  0  0  0  0  0  0
  -24.0287  -21.8341   18.6997 C   0  0  0  0  0  0  0  0  0  0  0  0
  -31.3362  -24.4145   16.5530 C   0  0  0  0  0  0  0  0  0  0  0  0
  -31.3765  -22.9833   17.1030 C   0  0  0  0  0  0  0  0  0  0  0  0
  -23.1985  -24.0036   23.1087 C   0  0  1  0  0  0  0  0  0  0  0  0
  -23.4180  -20.9049   20.9363 C   0  0  2  0  0  0  0  0  0  0  0  0
  -22.8489  -23.8922   24.6196 C   0  0  0  0  0  0  0  0  0  0  0  0
  -28.6692  -26.3056   18.4047 N   0  0  0  0  0  0  0  0  0  0  0  0
  -27.8100  -17.9727   18.4062 N   0  0  0  0  0  0  0  0  0  0  0  0
  -28.3748  -19.1801   18.5777 N   0  0  0  0  0  0  0  0  0  0  0  0
  -23.1951  -26.1245   21.8335 N   0  0  0  0  0  0  0  0  0  0  0  0
  -30.1009  -20.7573   15.5461 N   0  0  0  0  0  0  0  0  0  0  0  0
  -29.3028  -20.6155   20.2174 N   0  0  0  0  0  0  0  0  0  0  0  0
  -28.1076  -16.9616   22.5874 N   0  0  0  0  0  0  0  0  0  0  0  0
  -21.4613  -29.1779   22.4666 N   0  0  0  0  0  0  0  0  0  0  0  0
  -22.9409  -22.7879   22.3445 N   0  0  0  0  0  0  0  0  0  0  0  0
  -32.0149  -22.0542   16.1731 N   0  0  0  0  0  0  0  0  0  0  0  0
  -24.1426  -20.6984   19.6505 N   0  3  0  0  0  0  0  0  0  0  0  0
  -29.0400  -19.0517   22.7319 O   0  0  0  0  0  0  0  0  0  0  0  0
  -23.5332  -28.3836   23.1729 O   0  0  0  0  0  0  0  0  0  0  0  0
  -21.1981  -25.0613   22.3974 O   0  0  0  0  0  0  0  0  0  0  0  0
  -25.1111  -22.5044   21.5784 O   0  0  0  0  0  0  0  0  0  0  0  0
  -31.7781  -21.2275   14.0347 O   0  0  0  0  0  0  0  0  0  0  0  0
  -25.7120  -12.3592   20.5592 O   0  0  0  0  0  0  0  0  0  0  0  0
  -28.7643  -28.0228   19.9806 O   0  0  0  0  0  0  0  0  0  1  0  0
  -20.9042  -11.0973   18.1725 F   0  0  0  0  0  0  0  0  0  0  0  0
  -23.5129  -11.6606   22.0818 F   0  0  0  0  0  0  0  0  0  0  0  0
  -33.1842  -26.2772   18.2000 Cl  0  0  0  0  0  0  0  0  0  0  0  0
  1  2  1  0  0  0  0
  1  5  2  0  0  0  0
  2  6  2  0  0  0  0
  3  8  2  0  0  0  0
  3 17  1  0  0  0  0
  4  9  1  0  0  0  0
  4 17  2  0  0  0  0
  5 19  1  0  0  0  0
  6 21  1  0  0  0  0
  7 10  2  0  0  0  0
  7 20  1  0  0  0  0
  8 24  1  0  0  0  0
  9 24  2  0  0  0  0
 10 25  1  0  0  0  0
 11 12  2  0  0  0  0
 11 26  1  0  0  0  0
 12 27  1  0  0  0  0
 13 22  1  0  0  0  0
 13 25  2  0  0  0  0
 14 27  2  0  0  0  0
 14 28  1  0  0  0  0
 15 29  2  0  0  0  0
 15 31  1  0  0  0  0
 16 23  2  0  0  0  0
 16 61  1  0  0  0  0
 17 30  1  0  0  0  0
 18 30  1  0  0  0  0
 18 32  2  0  0  0  0
 18 33  1  0  0  0  0
 19 21  2  0  0  0  0
 19 38  1  0  0  0  0
 20 22  2  0  0  0  0
 20 39  1  0  0  0  0
 21 47  1  0  0  0  0
 22 40  1  0  0  0  0
 23 29  1  0  0  0  0
 23 56  1  0  0  0  0
 24 77  1  0  0  0  0
 25 78  1  0  0  0  0
 26 28  2  0  0  0  0
 26 77  1  0  0  0  0
 27 79  1  0  0  0  0
 28 80  1  0  0  0  0
 29 81  1  0  0  0  0
 30 62  2  0  0  0  0
 31 61  2  0  0  0  0
 31 78  1  0  0  0  0
 32 63  1  0  0  0  0
 32 66  1  0  0  0  0
 33 67  1  0  0  0  0
 33 72  2  0  0  0  0
 34 48  1  0  0  0  0
 34 68  1  0  0  0  0
 34 73  2  0  0  0  0
 35 58  1  0  0  0  0
 35 64  1  0  0  0  0
 35 74  2  0  0  0  0
 36 59  1  0  0  0  0
 36 69  1  0  0  0  0
 36 75  2  0  0  0  0
 37 65  1  0  0  0  0
 37 70  1  0  0  0  0
 37 76  2  0  0  0  0
 38 41  1  0  0  0  0
 39 48  1  0  0  0  0
 40 64  1  0  0  0  0
 41 43  1  0  0  0  0
 42 44  1  0  0  0  0
 42 45  1  0  0  0  0
 43 47  1  0  0  0  0
 44 49  1  0  0  0  0
 45 65  1  0  0  0  0
 46 49  1  0  0  0  0
 46 65  1  0  0  0  0
 47 68  1  0  0  0  0
 48 64  1  0  0  0  0
 49 63  1  0  0  0  0
 50 59  1  0  0  0  0
 51 60  1  0  0  0  0
 52 60  1  0  0  0  0
 53 60  1  0  0  0  0
 54 70  1  0  0  0  0
 55 71  1  0  0  0  0
 56 57  1  0  0  0  0
 57 70  1  0  0  0  0
 58 60  1  0  0  0  0
 58 69  1  0  0  0  0
 59 71  1  0  0  0  0
 62 63  1  0  0  0  0
M  CHG  1  71   1
M  ISO  4  31 101  37 100  70 100  78 101
M  END
> <Batch ID>
0050

> <Smiles>
CNC(C)C(=O)NC(C(=O)N1Cc2cc([101O:1][101c:1]3cc(Cl)c(CC[100N:0](C)[100C:0](=O)N4CCCC(n5nc(-c6ccc(Oc7ccc(F)cc7F)cc6)c(C(N)=O)c5N)C4)cn3)ccc2CC1C(=O)NC1CCCc2ccccc21)C(C)(C)C

> <Shape>
0.197

> <Color>
0.088

> <Negative vol penalty>
0.000

$$$$

  -OEChem-04052317313D

 85 93  0     1  0  0  0  0  0999 V2000
  -32.5079  -22.8210   31.3321 C   0  0  0  0  0  0  0  0  0  0  0  0
  -31.4094  -22.5575   30.5201 C   0  0  0  0  0  0  0  0  0  0  0  0
  -23.1205   -9.8231   20.3821 C   0  0  0  0  0  0  0  0  0  0  0  0
  -23.8328  -10.2088   22.6582 C   0  0  0  0  0  0  0  0  0  0  0  0
  -32.8264  -24.1364   31.6668 C   0  0  0  0  0  0  0  0  0  0  0  0
  -30.6280  -23.6094   30.0433 C   0  0  0  0  0  0  0  0  0  0  0  0
  -29.5012  -23.1208   25.1304 C   0  0  0  0  0  0  0  0  0  0  0  0
  -22.3870   -8.7126   20.7997 C   0  0  0  0  0  0  0  0  0  0  0  0
  -23.0993   -9.0983   23.0759 C   0  0  0  0  0  0  0  0  0  0  0  0
  -28.4866  -22.2250   24.7959 C   0  0  0  0  0  0  0  0  0  0  0  0
  -19.4203   -8.1098   22.3058 C   0  0  0  0  0  0  0  0  0  0  0  0
  -18.1244   -7.9652   21.8104 C   0  0  0  0  0  0  0  0  0  0  0  0
  -26.9396  -24.0642   24.5880 C   0  0  0  0  0  0  0  0  0  0  0  0
  -18.7370   -5.8454   20.8266 C   0  0  0  0  0  0  0  0  0  0  0  0
  -23.8435  -10.5711   21.3113 C   0  0  0  0  0  0  0  0  0  0  0  0
  -24.1541  -13.0500   20.7950 C   0  0  0  0  0  0  0  0  0  0  0  0
  -32.0542  -25.2056   31.1860 C   0  0  0  0  0  0  0  0  0  0  0  0
  -29.2396  -24.4963   25.2070 C   0  0  0  0  0  0  0  0  0  0  0  0
  -30.9356  -24.9403   30.3730 C   0  0  0  0  0  0  0  0  0  0  0  0
  -27.9532  -24.9756   24.9212 C   0  0  0  0  0  0  0  0  0  0  0  0
  -26.4896  -19.4039   21.7466 C   0  0  0  0  0  0  0  0  0  0  0  0
  -22.3764   -8.3502   22.1466 C   0  0  0  0  0  0  0  0  0  0  0  0
  -27.2049  -22.6964   24.5274 C   0  0  0  0  0  0  0  0  0  0  0  0
  -20.3746   -7.1222   22.0615 C   0  0  0  0  0  0  0  0  0  0  0  0
  -17.7828   -6.8330   21.0709 C   0  0  0  0  0  0  0  0  0  0  0  0
  -20.0330   -5.9900   21.3219 C   0  0  0  0  0  0  0  0  0  0  0  0
  -24.6018  -11.7180   20.8804 C   0  0  0  0  0  0  0  0  0  0  0  0
  -27.3676  -19.3996   20.6462 C   0  0  0  0  0  0  0  0  0  0  0  0
  -25.7737  -20.5681   21.6101 C   0  0  0  0  0  0  0  0  0  0  0  0
  -25.2435  -13.7496   20.3365 C   0  0  0  0  0  0  0  0  0  0  0  0
  -22.8685  -13.6052   21.1028 C   0  0  0  0  0  0  0  0  0  0  0  0
  -29.3687  -26.6792   27.5140 C   0  0  0  0  0  0  0  0  0  0  0  0
  -30.7279  -14.8257   20.5660 C   0  0  0  0  0  0  0  0  0  0  0  0
  -28.7055  -28.7221   25.0832 C   0  0  0  0  0  0  0  0  0  0  0  0
  -27.3741  -29.1936   21.9764 C   0  0  0  0  0  0  0  0  0  0  0  0
  -32.4095  -26.6076   31.6135 C   0  0  0  0  0  0  0  0  0  0  0  0
  -30.3513  -25.4521   25.5431 C   0  0  0  0  0  0  0  0  0  0  0  0
  -27.6254  -26.4449   24.9699 C   0  0  0  0  0  0  0  0  0  0  0  0
  -31.7519  -27.6896   30.7607 C   0  0  0  0  0  0  0  0  0  0  0  0
  -29.6453  -12.1419   18.4530 C   0  0  0  0  0  0  0  0  0  0  0  0
  -30.2712  -27.3836   30.5589 C   0  0  0  0  0  0  0  0  0  0  0  0
  -28.2104  -11.8818   18.9098 C   0  0  0  0  0  0  0  0  0  0  0  0
  -30.5381  -12.5486   19.6211 C   0  0  0  0  0  0  0  0  0  0  0  0
  -28.5967  -13.4661   20.8503 C   0  0  0  0  0  0  0  0  0  0  0  0
  -30.0784  -26.0561   29.8159 C   0  0  1  0  0  0  0  0  0  0  0  0
  -29.8490  -26.7830   26.0941 C   0  0  1  0  0  0  0  0  0  0  0  0
  -27.6543  -13.0823   19.6958 C   0  0  2  0  0  0  0  0  0  0  0  0
  -26.3644  -18.3899   22.8079 C   0  0  0  0  0  0  0  0  0  0  0  0
  -30.2664  -15.7468   22.8247 C   0  0  0  0  0  0  0  0  0  0  0  0
  -26.9435  -30.9808   20.2683 C   0  0  0  0  0  0  0  0  0  0  0  0
  -26.3651  -29.7482   26.7503 C   0  0  0  0  0  0  0  0  0  0  0  0
  -25.4394  -30.8009   24.6759 C   0  0  0  0  0  0  0  0  0  0  0  0
  -27.6564  -31.5277   25.5587 C   0  0  0  0  0  0  0  0  0  0  0  0
  -25.8110  -22.4221   19.9140 C   0  0  0  0  0  0  0  0  0  0  0  0
  -29.0745  -27.8434   19.9653 C   0  0  0  0  0  0  0  0  0  0  0  0
  -30.2698  -19.7530   21.1338 C   0  0  0  0  0  0  0  0  0  0  0  0
  -28.3704  -18.3789   20.2941 C   0  0  0  0  0  0  0  0  0  0  0  0
  -24.6774  -21.1689   22.4560 C   0  0  0  0  0  0  0  0  0  0  0  0
  -30.5545  -17.3001   20.8105 C   0  0  0  0  0  0  0  0  0  0  0  0
  -25.1827  -22.3051   23.3385 C   0  0  0  0  0  0  0  0  0  1  0  0
  -30.0674  -15.9474   21.3273 C   0  0  1  0  0  0  0  0  0  0  0  0
  -27.4437  -29.2629   24.4553 C   0  0  1  0  0  0  0  0  0  0  0  0
  -27.9093  -29.9090   20.7491 C   0  0  2  0  0  0  0  0  0  0  0  0
  -26.7316  -30.3070   25.3609 C   0  0  0  0  0  0  0  0  0  0  0  0
  -25.8762  -11.5774   20.5060 N   0  0  0  0  0  0  0  0  0  0  0  0
  -27.2243  -20.4757   19.8680 N   0  0  0  0  0  0  0  0  0  0  0  0
  -26.2478  -21.1669   20.4801 N   0  0  0  0  0  0  0  0  0  0  0  0
  -26.2386  -12.8300   20.1808 N   0  0  0  0  0  0  0  0  0  0  0  0
  -28.7447  -27.3390   25.3094 N   0  0  0  0  0  0  0  0  0  0  0  0
  -29.9642  -13.6774   20.3557 N   0  0  0  0  0  0  0  0  0  0  0  0
  -25.4377  -15.0556   20.0552 N   0  0  0  0  0  0  0  0  0  0  0  0
  -21.8620  -12.7451   21.5627 N   0  0  0  0  0  0  0  0  0  0  0  0
  -30.3277  -26.2281   28.4007 N   0  0  0  0  0  0  0  0  0  0  0  0
  -27.8267  -29.7726   23.1431 N   0  0  0  0  0  0  0  0  0  0  0  0
  -28.1267  -28.9396   19.6382 N   0  3  0  0  0  0  0  0  0  0  0  0
  -29.5959  -18.4081   21.1519 N   0  3  1  0  0  0  0  0  0  0  0  0
  -22.6148  -14.8251   20.9582 O   0  0  0  0  0  0  0  0  0  0  0  0
  -28.2139  -26.9870   27.7852 O   0  0  0  0  0  0  0  0  0  0  0  0
  -31.8870  -14.9689   20.1683 O   0  0  0  0  0  0  0  0  0  0  0  0
  -29.6255  -29.4973   25.3561 O   0  0  0  0  0  0  0  0  0  0  0  0
  -26.6261  -28.2208   21.9071 O   0  0  0  0  0  0  0  0  0  0  0  0
  -21.6605   -7.2668   22.5546 O   0  0  0  0  0  0  0  0  0  0  0  0
  -26.2126  -21.8241   24.2013 O   0  0  0  0  0  0  0  0  0  1  0  0
  -16.5379   -6.6936   20.5966 F   0  0  0  0  0  0  0  0  0  0  0  0
  -20.9451   -5.0373   21.0849 F   0  0  0  0  0  0  0  0  0  0  0  0
  1  2  1  0  0  0  0
  1  5  2  0  0  0  0
  2  6  2  0  0  0  0
  3  8  2  0  0  0  0
  3 15  1  0  0  0  0
  4  9  1  0  0  0  0
  4 15  2  0  0  0  0
  5 17  1  0  0  0  0
  6 19  1  0  0  0  0
  7 10  2  0  0  0  0
  7 18  1  0  0  0  0
  8 22  1  0  0  0  0
  9 22  2  0  0  0  0
 10 23  1  0  0  0  0
 11 12  2  0  0  0  0
 11 24  1  0  0  0  0
 12 25  1  0  0  0  0
 13 20  1  0  0  0  0
 13 23  2  0  0  0  0
 14 25  2  0  0  0  0
 14 26  1  0  0  0  0
 15 27  1  0  0  0  0
 16 27  1  0  0  0  0
 16 30  2  0  0  0  0
 16 31  1  0  0  0  0
 17 19  2  0  0  0  0
 17 36  1  0  0  0  0
 18 20  2  0  0  0  0
 18 37  1  0  0  0  0
 19 45  1  0  0  0  0
 20 38  1  0  0  0  0
 21 28  1  0  0  0  0
 21 29  2  0  0  0  0
 21 48  1  0  0  0  0
 22 82  1  0  0  0  0
 23 83  1  0  0  0  0
 24 26  2  0  0  0  0
 24 82  1  0  0  0  0
 25 84  1  0  0  0  0
 26 85  1  0  0  0  0
 27 65  2  0  0  0  0
 28 57  1  0  0  0  0
 28 66  2  0  0  0  0
 29 58  1  0  0  0  0
 29 67  1  0  0  0  0
 30 68  1  0  0  0  0
 30 71  1  0  0  0  0
 31 72  1  0  0  0  0
 31 77  2  0  0  0  0
 32 46  1  0  0  0  0
 32 73  1  0  0  0  0
 32 78  2  0  0  0  0
 33 61  1  0  0  0  0
 33 70  1  0  0  0  0
 33 79  2  0  0  0  0
 34 62  1  0  0  0  0
 34 69  1  0  0  0  0
 34 80  2  0  0  0  0
 35 63  1  0  0  0  0
 35 74  1  0  0  0  0
 35 81  2  0  0  0  0
 36 39  1  0  0  0  0
 37 46  1  0  0  0  0
 38 69  1  0  0  0  0
 39 41  1  0  0  0  0
 40 42  1  0  0  0  0
 40 43  1  0  0  0  0
 41 45  1  0  0  0  0
 42 47  1  0  0  0  0
 43 70  1  0  0  0  0
 44 47  1  0  0  0  0
 44 70  1  0  0  0  0
 45 73  1  0  0  0  0
 46 69  1  0  0  0  0
 47 68  1  0  0  0  0
 49 61  1  0  0  0  0
 50 63  1  0  0  0  0
 51 64  1  0  0  0  0
 52 64  1  0  0  0  0
 53 64  1  0  0  0  0
 54 67  1  0  0  0  0
 55 75  1  0  0  0  0
 56 76  1  0  0  0  0
 57 76  1  0  0  0  0
 58 60  1  0  0  0  0
 59 61  1  0  0  0  0
 59 76  1  0  0  0  0
 60 83  1  0  0  0  0
 62 64  1  0  0  0  0
 62 74  1  0  0  0  0
 63 75  1  0  0  0  0
 65 68  1  0  0  0  0
 66 67  1  0  0  0  0
M  CHG  2  75   1  76   1
M  ISO  4  33 100  60 101  61 100  83 101
M  END
> <Batch ID>
0050

> <Smiles>
CNC(C)C(=O)NC(C(=O)N1Cc2cc([101O:1][101CH2:1]Cc3c(C)c(CN(C)C[100CH:0](C)[100C:0](=O)N4CCCC(n5nc(-c6ccc(Oc7ccc(F)cc7F)cc6)c(C(N)=O)c5N)C4)nn3C)ccc2CC1C(=O)NC1CCCc2ccccc21)C(C)(C)C

> <Shape>
0.230

> <Color>
0.179

> <Negative vol penalty>
0.000

$$$$

  -OEChem-04052317313D

 87 95  0     1  0  0  0  0  0999 V2000
  -25.0097  -29.1948   20.0779 C   0  0  0  0  0  0  0  0  0  0  0  0
  -24.8882  -28.0396   19.3122 C   0  0  0  0  0  0  0  0  0  0  0  0
  -24.6561  -13.6477   24.0217 C   0  0  0  0  0  0  0  0  0  0  0  0
  -24.0632  -15.4025   22.4704 C   0  0  0  0  0  0  0  0  0  0  0  0
  -26.2104  -29.4750   20.7290 C   0  0  0  0  0  0  0  0  0  0  0  0
  -25.9676  -27.1645   19.1963 C   0  0  0  0  0  0  0  0  0  0  0  0
  -24.6046  -22.3168   19.7319 C   0  0  0  0  0  0  0  0  0  0  0  0
  -24.2338  -14.4452   25.0853 C   0  0  0  0  0  0  0  0  0  0  0  0
  -23.6408  -16.2000   23.5340 C   0  0  0  0  0  0  0  0  0  0  0  0
  -23.9976  -21.7015   18.6380 C   0  0  0  0  0  0  0  0  0  0  0  0
  -25.4339  -17.0485   26.8759 C   0  0  0  0  0  0  0  0  0  0  0  0
  -26.2573  -17.1183   27.9996 C   0  0  0  0  0  0  0  0  0  0  0  0
  -26.0979  -20.6627   18.0645 C   0  0  0  0  0  0  0  0  0  0  0  0
  -24.4721  -16.2286   29.3630 C   0  0  0  0  0  0  0  0  0  0  0  0
  -22.9325  -16.7234   17.4127 C   0  0  0  0  0  0  0  0  0  0  0  0
  -24.5710  -14.1264   22.7142 C   0  0  0  0  0  0  0  0  0  0  0  0
  -24.2322  -12.3892   20.8772 C   0  0  0  0  0  0  0  0  0  0  0  0
  -27.3019  -28.5980   20.6288 C   0  0  0  0  0  0  0  0  0  0  0  0
  -25.9677  -22.1180   19.9945 C   0  0  0  0  0  0  0  0  0  0  0  0
  -27.1844  -27.4339   19.8456 C   0  0  0  0  0  0  0  0  0  0  0  0
  -26.7192  -21.2746   19.1638 C   0  0  0  0  0  0  0  0  0  0  0  0
  -23.7260  -15.7213   24.8415 C   0  0  0  0  0  0  0  0  0  0  0  0
  -24.7449  -20.8766   17.8024 C   0  0  0  0  0  0  0  0  0  0  0  0
  -24.1295  -16.5690   26.9957 C   0  0  0  0  0  0  0  0  0  0  0  0
  -25.7764  -16.7083   29.2431 C   0  0  0  0  0  0  0  0  0  0  0  0
  -23.6486  -16.1590   28.2392 C   0  0  0  0  0  0  0  0  0  0  0  0
  -25.0077  -13.3033   21.6152 C   0  0  0  0  0  0  0  0  0  0  0  0
  -24.6271  -15.8901   16.4306 C   0  0  0  0  0  0  0  0  0  0  0  0
  -24.2921  -17.0067   15.7016 C   0  0  0  0  0  0  0  0  0  0  0  0
  -25.1037  -11.8675   19.9526 C   0  0  0  0  0  0  0  0  0  0  0  0
  -22.8478  -12.0426   21.0150 C   0  0  0  0  0  0  0  0  0  0  0  0
  -28.5242  -24.0021   20.1287 C   0  0  0  0  0  0  0  0  0  0  0  0
  -29.9835  -21.2937   21.1570 C   0  0  0  0  0  0  0  0  0  0  0  0
  -30.0240  -17.8825   21.2543 C   0  0  0  0  0  0  0  0  0  0  0  0
  -30.3309  -14.2836   17.8605 C   0  0  0  0  0  0  0  0  0  0  0  0
  -28.5948  -28.9672   21.3122 C   0  0  0  0  0  0  0  0  0  0  0  0
  -26.6013  -22.7677   21.1940 C   0  0  0  0  0  0  0  0  0  0  0  0
  -28.1811  -21.0124   19.4140 C   0  0  0  0  0  0  0  0  0  0  0  0
  -29.5694  -27.7996   21.4433 C   0  0  0  0  0  0  0  0  0  0  0  0
  -29.7376  -10.9159   19.2775 C   0  0  0  0  0  0  0  0  0  0  0  0
  -29.6777  -27.0437   20.1228 C   0  0  0  0  0  0  0  0  0  0  0  0
  -28.4230  -11.0996   20.0338 C   0  0  0  0  0  0  0  0  0  0  0  0
  -30.5306  -12.2166   19.1943 C   0  0  0  0  0  0  0  0  0  0  0  0
  -28.4484  -13.5380   19.3749 C   0  0  0  0  0  0  0  0  0  0  0  0
  -28.3247  -26.4476   19.7158 C   0  0  1  0  0  0  0  0  0  0  0  0
  -28.1157  -22.9040   21.0694 C   0  0  1  0  0  0  0  0  0  0  0  0
  -27.6035  -12.2566   19.4364 C   0  0  2  0  0  0  0  0  0  0  0  0
  -29.9940  -17.2891   16.5848 C   0  0  0  0  0  0  0  0  0  0  0  0
  -31.3625  -15.9529   22.1388 C   0  0  0  0  0  0  0  0  0  0  0  0
  -32.0487  -21.7183   18.9514 C   0  0  0  0  0  0  0  0  0  0  0  0
  -32.7656  -19.3396   19.2607 C   0  0  0  0  0  0  0  0  0  0  0  0
  -32.9984  -20.9648   21.1388 C   0  0  0  0  0  0  0  0  0  0  0  0
  -27.7639  -16.9214   22.9056 C   0  0  0  0  0  0  0  0  0  0  0  0
  -25.7244  -14.9383   16.1952 C   0  0  0  0  0  0  0  0  0  0  0  0
  -27.1212  -15.4143   16.6689 C   0  0  0  0  0  0  0  0  0  0  0  0
  -22.4342  -18.7692   15.9574 C   0  0  0  0  0  0  0  0  0  0  0  0
  -30.1379  -15.8963   16.0053 C   0  0  0  0  0  0  0  0  0  0  0  0
  -28.2339  -14.3917   16.4485 C   0  0  0  0  0  0  0  0  0  0  0  0
  -22.7681  -19.9600   16.8494 C   0  0  0  0  0  0  0  0  0  1  0  0
  -30.6974  -20.1439   20.4880 C   0  0  1  0  0  0  0  0  0  0  0  0
  -30.2108  -16.9098   22.4047 C   0  0  2  0  0  0  0  0  0  0  0  0
  -24.8862  -17.6071   14.4939 C   0  0  0  0  0  0  0  0  0  0  0  0
  -32.1005  -20.5479   19.9536 C   0  0  0  0  0  0  0  0  0  0  0  0
  -23.7768  -15.7191   17.4943 N   0  0  0  0  0  0  0  0  0  0  0  0
  -26.2745  -13.3613   21.1958 N   0  0  0  0  0  0  0  0  0  0  0  0
  -23.2045  -17.5297   16.3425 N   0  0  0  0  0  0  0  0  0  0  0  0
  -26.3017  -12.4769   20.1843 N   0  0  0  0  0  0  0  0  0  0  0  0
  -28.7566  -21.6755   20.5958 N   0  0  0  0  0  0  0  0  0  0  0  0
  -29.7152  -13.3097   18.6637 N   0  0  0  0  0  0  0  0  0  0  0  0
  -24.9545  -10.9514   18.9723 N   0  0  0  0  0  0  0  0  0  0  0  0
  -22.0975  -12.6736   22.0167 N   0  0  0  0  0  0  0  0  0  0  0  0
  -28.0489  -25.2508   20.4813 N   0  0  0  0  0  0  0  0  0  0  0  0
  -30.7186  -19.0558   21.4597 N   0  0  0  0  0  0  0  0  0  0  0  0
  -29.5415  -14.8889   16.8709 N   0  0  0  0  0  0  0  0  0  0  0  0
  -28.9717  -16.1080   22.6115 N   0  3  0  0  0  0  0  0  0  0  0  0
  -22.2965  -11.1864   20.2825 O   0  0  0  0  0  0  0  0  0  0  0  0
  -29.2204  -23.7364   19.1559 O   0  0  0  0  0  0  0  0  0  0  0  0
  -30.4921  -21.8284   22.1454 O   0  0  0  0  0  0  0  0  0  0  0  0
  -29.3342  -17.6256   20.2701 O   0  0  0  0  0  0  0  0  0  0  0  0
  -31.5210  -14.5877   18.0126 O   0  0  0  0  0  0  0  0  0  0  0  0
  -23.3135  -16.4996   25.8790 O   0  0  0  0  0  0  0  0  0  0  0  0
  -24.1550  -20.2753   16.7336 O   0  0  0  0  0  0  0  0  0  1  0  0
  -26.5678  -16.7738   30.3219 F   0  0  0  0  0  0  0  0  0  0  0  0
  -22.3968  -15.6962   28.3603 F   0  0  0  0  0  0  0  0  0  0  0  0
  -25.9752  -16.9298   14.0032 F   0  0  0  0  0  0  0  0  0  0  0  0
  -24.0285  -17.6913   13.4250 F   0  0  0  0  0  0  0  0  0  0  0  0
  -25.3305  -18.8903   14.6882 F   0  0  0  0  0  0  0  0  0  0  0  0
  1  2  1  0  0  0  0
  1  5  2  0  0  0  0
  2  6  2  0  0  0  0
  3  8  2  0  0  0  0
  3 16  1  0  0  0  0
  4  9  1  0  0  0  0
  4 16  2  0  0  0  0
  5 18  1  0  0  0  0
  6 20  1  0  0  0  0
  7 10  2  0  0  0  0
  7 19  1  0  0  0  0
  8 22  1  0  0  0  0
  9 22  2  0  0  0  0
 10 23  1  0  0  0  0
 11 12  2  0  0  0  0
 11 24  1  0  0  0  0
 12 25  1  0  0  0  0
 13 21  1  0  0  0  0
 13 23  2  0  0  0  0
 14 25  2  0  0  0  0
 14 26  1  0  0  0  0
 15 64  2  0  0  0  0
 15 66  1  0  0  0  0
 16 27  1  0  0  0  0
 17 27  1  0  0  0  0
 17 30  2  0  0  0  0
 17 31  1  0  0  0  0
 18 20  2  0  0  0  0
 18 36  1  0  0  0  0
 19 21  2  0  0  0  0
 19 37  1  0  0  0  0
 20 45  1  0  0  0  0
 21 38  1  0  0  0  0
 22 81  1  0  0  0  0
 23 82  1  0  0  0  0
 24 26  2  0  0  0  0
 24 81  1  0  0  0  0
 25 83  1  0  0  0  0
 26 84  1  0  0  0  0
 27 65  2  0  0  0  0
 28 29  2  0  0  0  0
 28 54  1  0  0  0  0
 28 64  1  0  0  0  0
 29 62  1  0  0  0  0
 29 66  1  0  0  0  0
 30 67  1  0  0  0  0
 30 70  1  0  0  0  0
 31 71  1  0  0  0  0
 31 76  2  0  0  0  0
 32 46  1  0  0  0  0
 32 72  1  0  0  0  0
 32 77  2  0  0  0  0
 33 60  1  0  0  0  0
 33 68  1  0  0  0  0
 33 78  2  0  0  0  0
 34 61  1  0  0  0  0
 34 73  1  0  0  0  0
 34 79  2  0  0  0  0
 35 69  1  0  0  0  0
 35 74  1  0  0  0  0
 35 80  2  0  0  0  0
 36 39  1  0  0  0  0
 37 46  1  0  0  0  0
 38 68  1  0  0  0  0
 39 41  1  0  0  0  0
 40 42  1  0  0  0  0
 40 43  1  0  0  0  0
 41 45  1  0  0  0  0
 42 47  1  0  0  0  0
 43 69  1  0  0  0  0
 44 47  1  0  0  0  0
 44 69  1  0  0  0  0
 45 72  1  0  0  0  0
 46 68  1  0  0  0  0
 47 67  1  0  0  0  0
 48 57  1  0  0  0  0
 49 61  1  0  0  0  0
 50 63  1  0  0  0  0
 51 63  1  0  0  0  0
 52 63  1  0  0  0  0
 53 75  1  0  0  0  0
 54 55  1  0  0  0  0
 55 58  1  0  0  0  0
 56 59  1  0  0  0  0
 56 66  1  0  0  0  0
 57 74  1  0  0  0  0
 58 74  1  0  0  0  0
 59 82  1  0  0  0  0
 60 63  1  0  0  0  0
 60 73  1  0  0  0  0
 61 75  1  0  0  0  0
 62 85  1  0  0  0  0
 62 86  1  0  0  0  0
 62 87  1  0  0  0  0
 65 67  1  0  0  0  0
M  CHG  1  75   1
M  ISO  4  35 100  59 101  74 100  82 101
M  END
> <Batch ID>
0050

> <Smiles>
CC[100N:0](CCCc1ncn(C[101CH2:1][101O:1]c2ccc3c(c2)CN(C(=O)C(NC(=O)C(C)NC)C(C)(C)C)C(C(=O)NC2CCCc4ccccc42)C3)c1C(F)(F)F)[100C:0](=O)N1CCCC(n2nc(-c3ccc(Oc4ccc(F)cc4F)cc3)c(C(N)=O)c2N)C1

> <Shape>
0.201

> <Color>
0.090

> <Negative vol penalty>
0.000

$$$$

  -OEChem-04052317313D

 90 98  0     1  0  0  0  0  0999 V2000
  -34.4422  -26.9271   23.8968 C   0  0  0  0  0  0  0  0  0  0  0  0
  -34.1194  -26.1716   22.7742 C   0  0  0  0  0  0  0  0  0  0  0  0
  -23.3811   -9.7996   19.9385 C   0  0  0  0  0  0  0  0  0  0  0  0
  -23.8896  -10.0027   22.2916 C   0  0  0  0  0  0  0  0  0  0  0  0
  -33.4381  -27.5876   24.6035 C   0  0  0  0  0  0  0  0  0  0  0  0
  -32.7919  -26.0752   22.3582 C   0  0  0  0  0  0  0  0  0  0  0  0
  -30.7590  -25.6899   16.5941 C   0  0  0  0  0  0  0  0  0  0  0  0
  -22.7336   -8.5886   20.1829 C   0  0  0  0  0  0  0  0  0  0  0  0
  -23.2420   -8.7917   22.5361 C   0  0  0  0  0  0  0  0  0  0  0  0
  -30.3616  -24.6078   15.8100 C   0  0  0  0  0  0  0  0  0  0  0  0
  -20.0639   -7.6895   22.8604 C   0  0  0  0  0  0  0  0  0  0  0  0
  -19.1951   -7.6293   23.9499 C   0  0  0  0  0  0  0  0  0  0  0  0
  -28.0616  -25.0325   16.4004 C   0  0  0  0  0  0  0  0  0  0  0  0
  -28.8848  -18.9949   17.4211 C   0  0  0  0  0  0  0  0  0  0  0  0
  -28.7349  -21.3374   17.9453 C   0  0  0  0  0  0  0  0  0  0  0  0
  -20.5385   -5.8733   24.9241 C   0  0  0  0  0  0  0  0  0  0  0  0
  -23.9591  -10.5067   20.9928 C   0  0  0  0  0  0  0  0  0  0  0  0
  -24.0584  -13.0444   20.7532 C   0  0  0  0  0  0  0  0  0  0  0  0
  -32.0989  -27.5072   24.1903 C   0  0  0  0  0  0  0  0  0  0  0  0
  -29.8101  -26.4461   17.2971 C   0  0  0  0  0  0  0  0  0  0  0  0
  -31.7688  -26.7342   23.0608 C   0  0  0  0  0  0  0  0  0  0  0  0
  -28.4493  -26.1253   17.1907 C   0  0  0  0  0  0  0  0  0  0  0  0
  -28.4897  -20.2820   17.0739 C   0  0  0  0  0  0  0  0  0  0  0  0
  -22.6640   -8.0846   21.4817 C   0  0  0  0  0  0  0  0  0  0  0  0
  -29.0130  -24.2771   15.7153 C   0  0  0  0  0  0  0  0  0  0  0  0
  -21.1700   -6.8415   22.8026 C   0  0  0  0  0  0  0  0  0  0  0  0
  -19.4324   -6.7212   24.9818 C   0  0  0  0  0  0  0  0  0  0  0  0
  -21.4073   -5.9335   23.8345 C   0  0  0  0  0  0  0  0  0  0  0  0
  -24.6286  -11.7574   20.7409 C   0  0  0  0  0  0  0  0  0  0  0  0
  -29.5165  -18.8174   18.6415 C   0  0  0  0  0  0  0  0  0  0  0  0
  -29.3731  -21.0550   19.1423 C   0  0  0  0  0  0  0  0  0  0  0  0
  -25.1027  -13.8856   20.4557 C   0  0  0  0  0  0  0  0  0  0  0  0
  -22.7057  -13.4439   21.0105 C   0  0  0  0  0  0  0  0  0  0  0  0
  -29.2620  -27.0645   20.3664 C   0  0  0  0  0  0  0  0  0  0  0  0
  -27.0246  -29.0791   19.1589 C   0  0  0  0  0  0  0  0  0  0  0  0
  -30.3065  -15.4541   21.3147 C   0  0  0  0  0  0  0  0  0  0  0  0
  -24.9575  -29.8961   16.5692 C   0  0  0  0  0  0  0  0  0  0  0  0
  -31.0423  -28.2000   25.0139 C   0  0  0  0  0  0  0  0  0  0  0  0
  -30.2525  -27.6268   18.1173 C   0  0  0  0  0  0  0  0  0  0  0  0
  -27.3891  -26.9178   17.9093 C   0  0  0  0  0  0  0  0  0  0  0  0
  -29.7077  -28.3525   24.2887 C   0  0  0  0  0  0  0  0  0  0  0  0
  -29.7650  -12.8987   18.7841 C   0  0  0  0  0  0  0  0  0  0  0  0
  -29.3111  -27.0406   23.6190 C   0  0  0  0  0  0  0  0  0  0  0  0
  -28.3345  -12.4598   19.0941 C   0  0  0  0  0  0  0  0  0  0  0  0
  -30.5301  -13.2572   20.0554 C   0  0  0  0  0  0  0  0  0  0  0  0
  -28.4220  -13.8546   21.2059 C   0  0  0  0  0  0  0  0  0  0  0  0
  -30.3435  -26.6257   22.5638 C   0  0  1  0  0  0  0  0  0  0  0  0
  -29.2491  -28.0117   19.2001 C   0  0  1  0  0  0  0  0  0  0  0  0
  -27.6067  -13.5133   19.9475 C   0  0  2  0  0  0  0  0  0  0  0  0
  -23.2198  -31.5742   15.8898 C   0  0  0  0  0  0  0  0  0  0  0  0
  -28.3310  -22.8603   20.5568 C   0  0  0  0  0  0  0  0  0  0  0  0
  -30.5614  -23.2538   19.4584 C   0  0  0  0  0  0  0  0  0  0  0  0
  -30.3753  -21.7412   21.4227 C   0  0  0  0  0  0  0  0  0  0  0  0
  -32.6467  -14.6711   21.5306 C   0  0  0  0  0  0  0  0  0  0  0  0
  -32.0970  -17.1115   21.5902 C   0  0  0  0  0  0  0  0  0  0  0  0
  -24.9868  -27.6939   20.9584 C   0  0  0  0  0  0  0  0  0  0  0  0
  -23.1706  -28.7241   19.5770 C   0  0  0  0  0  0  0  0  0  0  0  0
  -24.7534  -30.1810   20.8398 C   0  0  0  0  0  0  0  0  0  0  0  0
  -26.5800  -30.8192   14.2727 C   0  0  0  0  0  0  0  0  0  0  0  0
  -31.9409  -17.5176   17.5445 C   0  0  0  0  0  0  0  0  0  0  0  0
  -27.7991  -20.5324   15.7571 C   0  0  0  0  0  0  0  0  0  0  0  0
  -29.9559  -17.4502   19.0466 C   0  0  0  0  0  0  0  0  0  0  0  0
  -28.7592  -20.8503   14.6087 C   0  0  0  0  0  0  0  0  0  0  0  0
  -31.8569  -15.8868   19.4248 C   0  0  0  0  0  0  0  0  0  0  0  0
  -29.5443  -22.1400   14.8175 C   0  0  0  0  0  0  0  0  0  1  0  0
  -25.5677  -28.9571   18.7829 C   0  0  1  0  0  0  0  0  0  0  0  0
  -24.6976  -31.2159   15.8657 C   0  0  2  0  0  0  0  0  0  0  0  0
  -29.6504  -22.1634   20.1022 C   0  0  0  0  0  0  0  0  0  0  0  0
  -31.7376  -15.7616   20.9521 C   0  0  0  0  0  0  0  0  0  0  0  0
  -24.6395  -28.8727   20.0274 C   0  0  0  0  0  0  0  0  0  0  0  0
  -25.9339  -11.7744   20.4579 N   0  0  0  0  0  0  0  0  0  0  0  0
  -29.7717  -19.8179   19.5141 N   0  0  0  0  0  0  0  0  0  0  0  0
  -26.1924  -13.0825   20.2895 N   0  0  0  0  0  0  0  0  0  0  0  0
  -27.8723  -28.0592   18.7038 N   0  0  0  0  0  0  0  0  0  0  0  0
  -29.7909  -14.2425   20.8537 N   0  0  0  0  0  0  0  0  0  0  0  0
  -25.1859  -15.2264   20.3227 N   0  0  0  0  0  0  0  0  0  0  0  0
  -21.7594  -12.4514   21.2999 N   0  0  0  0  0  0  0  0  0  0  0  0
  -30.1687  -27.4000   21.3537 N   0  0  0  0  0  0  0  0  0  0  0  0
  -25.2792  -30.0800   17.8974 N   0  0  0  0  0  0  0  0  0  0  0  0
  -25.1399  -31.1413   14.4446 N   0  3  0  0  0  0  0  0  0  0  0  0
  -31.4263  -17.2455   18.9347 N   0  3  1  0  0  0  0  0  0  0  0  0
  -22.3432  -14.6441   20.9684 O   0  0  0  0  0  0  0  0  0  0  0  0
  -28.5042  -26.1014   20.3710 O   0  0  0  0  0  0  0  0  0  0  0  0
  -27.3981  -30.0474   19.8256 O   0  0  0  0  0  0  0  0  0  0  0  0
  -29.6670  -16.2687   21.9851 O   0  0  0  0  0  0  0  0  0  0  0  0
  -24.8791  -28.8104   15.9987 O   0  0  0  0  0  0  0  0  0  0  0  0
  -22.0321   -6.9031   21.7206 O   0  0  0  0  0  0  0  0  0  0  0  0
  -28.6224  -23.2210   14.9512 O   0  0  0  0  0  0  0  0  0  1  0  0
  -18.5988   -6.6646   26.0287 F   0  0  0  0  0  0  0  0  0  0  0  0
  -22.4689   -5.1172   23.7852 F   0  0  0  0  0  0  0  0  0  0  0  0
  1  2  1  0  0  0  0
  1  5  2  0  0  0  0
  2  6  2  0  0  0  0
  3  8  2  0  0  0  0
  3 17  1  0  0  0  0
  4  9  1  0  0  0  0
  4 17  2  0  0  0  0
  5 19  1  0  0  0  0
  6 21  1  0  0  0  0
  7 10  2  0  0  0  0
  7 20  1  0  0  0  0
  8 24  1  0  0  0  0
  9 24  2  0  0  0  0
 10 25  1  0  0  0  0
 11 12  2  0  0  0  0
 11 26  1  0  0  0  0
 12 27  1  0  0  0  0
 13 22  1  0  0  0  0
 13 25  2  0  0  0  0
 14 23  1  0  0  0  0
 14 30  2  0  0  0  0
 15 23  2  0  0  0  0
 15 31  1  0  0  0  0
 16 27  2  0  0  0  0
 16 28  1  0  0  0  0
 17 29  1  0  0  0  0
 18 29  1  0  0  0  0
 18 32  2  0  0  0  0
 18 33  1  0  0  0  0
 19 21  2  0  0  0  0
 19 38  1  0  0  0  0
 20 22  2  0  0  0  0
 20 39  1  0  0  0  0
 21 47  1  0  0  0  0
 22 40  1  0  0  0  0
 23 61  1  0  0  0  0
 24 87  1  0  0  0  0
 25 88  1  0  0  0  0
 26 28  2  0  0  0  0
 26 87  1  0  0  0  0
 27 89  1  0  0  0  0
 28 90  1  0  0  0  0
 29 71  2  0  0  0  0
 30 62  1  0  0  0  0
 30 72  1  0  0  0  0
 31 68  1  0  0  0  0
 31 72  2  0  0  0  0
 32 73  1  0  0  0  0
 32 76  1  0  0  0  0
 33 77  1  0  0  0  0
 33 82  2  0  0  0  0
 34 48  1  0  0  0  0
 34 78  1  0  0  0  0
 34 83  2  0  0  0  0
 35 66  1  0  0  0  0
 35 74  1  0  0  0  0
 35 84  2  0  0  0  0
 36 69  1  0  0  0  0
 36 75  1  0  0  0  0
 36 85  2  0  0  0  0
 37 67  1  0  0  0  0
 37 79  1  0  0  0  0
 37 86  2  0  0  0  0
 38 41  1  0  0  0  0
 39 48  1  0  0  0  0
 40 74  1  0  0  0  0
 41 43  1  0  0  0  0
 42 44  1  0  0  0  0
 42 45  1  0  0  0  0
 43 47  1  0  0  0  0
 44 49  1  0  0  0  0
 45 75  1  0  0  0  0
 46 49  1  0  0  0  0
 46 75  1  0  0  0  0
 47 78  1  0  0  0  0
 48 74  1  0  0  0  0
 49 73  1  0  0  0  0
 50 67  1  0  0  0  0
 51 68  1  0  0  0  0
 52 68  1  0  0  0  0
 53 68  1  0  0  0  0
 54 69  1  0  0  0  0
 55 69  1  0  0  0  0
 56 70  1  0  0  0  0
 57 70  1  0  0  0  0
 58 70  1  0  0  0  0
 59 80  1  0  0  0  0
 60 81  1  0  0  0  0
 61 63  1  0  0  0  0
 62 81  1  0  0  0  0
 63 65  1  0  0  0  0
 64 69  1  0  0  0  0
 64 81  1  0  0  0  0
 65 88  1  0  0  0  0
 66 70  1  0  0  0  0
 66 79  1  0  0  0  0
 67 80  1  0  0  0  0
 71 73  1  0  0  0  0
M  CHG  2  80   1  81   1
M  ISO  4  36 100  65 101  69 100  88 101
M  END
> <Batch ID>
0050

> <Smiles>
CNC(C)C(=O)NC(C(=O)N1Cc2cc([101O:1][101CH2:1]CCc3cc(CN(C)C[100C:0](C)(C)[100C:0](=O)N4CCCC(n5nc(-c6ccc(Oc7ccc(F)cc7F)cc6)c(C(N)=O)c5N)C4)nc(C(C)(C)C)c3)ccc2CC1C(=O)NC1CCCc2ccccc21)C(C)(C)C

> <Shape>
0.286

> <Color>
0.176

> <Negative vol penalty>
0.000

$$$$

  -OEChem-04052317313D

 86 94  0     1  0  0  0  0  0999 V2000
  -28.4441  -32.6206   23.1399 C   0  0  0  0  0  0  0  0  0  0  0  0
  -27.6899  -31.5181   22.7514 C   0  0  0  0  0  0  0  0  0  0  0  0
  -23.1988  -10.1496   22.1160 C   0  0  0  0  0  0  0  0  0  0  0  0
  -23.6187   -9.5057   19.8256 C   0  0  0  0  0  0  0  0  0  0  0  0
  -29.7754  -32.7290   22.7401 C   0  0  0  0  0  0  0  0  0  0  0  0
  -28.2663  -30.5237   21.9618 C   0  0  0  0  0  0  0  0  0  0  0  0
  -27.1029  -24.5149   22.1778 C   0  0  0  0  0  0  0  0  0  0  0  0
  -22.4498   -8.9883   22.3053 C   0  0  0  0  0  0  0  0  0  0  0  0
  -22.8698   -8.3443   20.0148 C   0  0  0  0  0  0  0  0  0  0  0  0
  -26.2853  -23.6895   21.4071 C   0  0  0  0  0  0  0  0  0  0  0  0
  -20.7283   -6.0162   23.4963 C   0  0  0  0  0  0  0  0  0  0  0  0
  -20.9480   -5.2859   24.6642 C   0  0  0  0  0  0  0  0  0  0  0  0
  -28.1846  -23.0883   20.0468 C   0  0  0  0  0  0  0  0  0  0  0  0
  -23.2600   -4.9755   24.0350 C   0  0  0  0  0  0  0  0  0  0  0  0
  -26.5047  -18.9604   18.5298 C   0  0  0  0  0  0  0  0  0  0  0  0
  -23.7832  -10.4084   20.8762 C   0  0  0  0  0  0  0  0  0  0  0  0
  -24.1129  -12.9373   20.8161 C   0  0  0  0  0  0  0  0  0  0  0  0
  -30.3712  -31.7308   21.9532 C   0  0  0  0  0  0  0  0  0  0  0  0
  -28.4677  -24.6419   21.8815 C   0  0  0  0  0  0  0  0  0  0  0  0
  -29.6064  -30.6196   21.5499 C   0  0  0  0  0  0  0  0  0  0  0  0
  -29.0179  -23.9140   20.8169 C   0  0  0  0  0  0  0  0  0  0  0  0
  -22.2853   -8.0855   21.2547 C   0  0  0  0  0  0  0  0  0  0  0  0
  -26.8255  -22.9783   20.3396 C   0  0  0  0  0  0  0  0  0  0  0  0
  -21.7744   -6.2261   22.5977 C   0  0  0  0  0  0  0  0  0  0  0  0
  -22.2139   -4.7656   24.9335 C   0  0  0  0  0  0  0  0  0  0  0  0
  -23.0402   -5.7058   22.8671 C   0  0  0  0  0  0  0  0  0  0  0  0
  -24.5565  -11.6082   20.6799 C   0  0  0  0  0  0  0  0  0  0  0  0
  -27.3800  -18.0119   18.9783 C   0  0  0  0  0  0  0  0  0  0  0  0
  -25.2176  -13.6996   20.5248 C   0  0  0  0  0  0  0  0  0  0  0  0
  -26.0205  -18.5303   20.6467 C   0  0  0  0  0  0  0  0  0  0  0  0
  -22.8180  -13.4381   21.1741 C   0  0  0  0  0  0  0  0  0  0  0  0
  -30.3602  -27.0427   21.0109 C   0  0  0  0  0  0  0  0  0  0  0  0
  -32.6938  -24.8174   21.3648 C   0  0  0  0  0  0  0  0  0  0  0  0
  -33.5678  -21.5189   21.4167 C   0  0  0  0  0  0  0  0  0  0  0  0
  -30.4500  -14.8821   20.9544 C   0  0  0  0  0  0  0  0  0  0  0  0
  -31.7997  -31.9151   21.5061 C   0  0  0  0  0  0  0  0  0  0  0  0
  -29.3416  -25.5156   22.7390 C   0  0  0  0  0  0  0  0  0  0  0  0
  -30.4811  -23.9998   20.4700 C   0  0  0  0  0  0  0  0  0  0  0  0
  -32.4441  -30.6341   20.9825 C   0  0  0  0  0  0  0  0  0  0  0  0
  -29.6803  -12.4258   18.5365 C   0  0  0  0  0  0  0  0  0  0  0  0
  -31.5046  -29.9205   20.0156 C   0  0  0  0  0  0  0  0  0  0  0  0
  -28.2333  -12.0909   18.8954 C   0  0  0  0  0  0  0  0  0  0  0  0
  -30.5472  -12.6344   19.7797 C   0  0  0  0  0  0  0  0  0  0  0  0
  -28.5538  -13.2951   21.0884 C   0  0  0  0  0  0  0  0  0  0  0  0
  -30.2033  -29.5081   20.7141 C   0  0  1  0  0  0  0  0  0  0  0  0
  -30.6142  -25.9677   22.0295 C   0  0  1  0  0  0  0  0  0  0  0  0
  -27.6481  -13.1397   19.8570 C   0  0  2  0  0  0  0  0  0  0  0  0
  -25.3828  -18.5482   21.9868 C   0  0  0  0  0  0  0  0  0  0  0  0
  -35.5555  -20.0119   21.6910 C   0  0  0  0  0  0  0  0  0  0  0  0
  -33.5918  -25.4896   18.5272 C   0  0  0  0  0  0  0  0  0  0  0  0
  -34.9091  -23.3605   18.5144 C   0  0  0  0  0  0  0  0  0  0  0  0
  -35.4565  -25.1540   20.1596 C   0  0  0  0  0  0  0  0  0  0  0  0
  -32.6740  -14.2796   19.9076 C   0  0  0  0  0  0  0  0  0  0  0  0
  -29.9361  -19.2274   18.3851 C   0  0  0  0  0  0  0  0  0  0  0  0
  -32.4088  -20.2347   23.8181 C   0  0  0  0  0  0  0  0  0  0  0  0
  -28.4815  -17.3167   18.3074 C   0  0  0  0  0  0  0  0  0  0  0  0
  -32.1600  -17.1586   18.8284 C   0  0  0  0  0  0  0  0  0  0  0  0
  -24.5482  -20.2658   19.5395 C   0  0  0  0  0  0  0  0  0  0  0  0
  -32.0352  -16.6367   20.2567 C   0  0  0  0  0  0  0  0  0  0  0  0
  -30.8528  -17.0329   18.0441 C   0  0  0  0  0  0  0  0  0  0  0  0
  -24.9094  -21.5734   20.2357 C   0  0  0  0  0  0  0  0  0  1  0  0
  -33.3444  -23.7976   20.4616 C   0  0  1  0  0  0  0  0  0  0  0  0
  -34.4046  -20.7139   22.3946 C   0  0  2  0  0  0  0  0  0  0  0  0
  -34.2974  -24.4501   19.4208 C   0  0  0  0  0  0  0  0  0  0  0  0
  -25.8427  -11.5274   20.3291 N   0  0  0  0  0  0  0  0  0  0  0  0
  -25.6749  -19.2623   19.5826 N   0  0  0  0  0  0  0  0  0  0  0  0
  -26.2168  -12.8152   20.2424 N   0  0  0  0  0  0  0  0  0  0  0  0
  -27.0575  -17.7651   20.2909 N   0  3  0  0  0  0  0  0  0  0  0  0
  -31.2931  -24.8723   21.3341 N   0  0  0  0  0  0  0  0  0  0  0  0
  -29.9292  -13.6064   20.6919 N   0  0  0  0  0  0  0  0  0  0  0  0
  -25.4221  -15.0334   20.4850 N   0  0  0  0  0  0  0  0  0  0  0  0
  -21.8913  -13.6853   20.1521 N   0  0  0  0  0  0  0  0  0  0  0  0
  -30.4157  -28.3256   21.5211 N   0  0  0  0  0  0  0  0  0  0  0  0
  -33.9916  -22.8288   21.3396 N   0  0  0  0  0  0  0  0  0  0  0  0
  -31.6419  -15.2355   20.3041 N   0  0  0  0  0  0  0  0  0  0  0  0
  -29.7911  -17.8026   18.7005 N   0  0  1  0  0  0  0  0  0  0  0  0
  -33.5655  -19.6821   23.0672 N   0  3  0  0  0  0  0  0  0  0  0  0
  -22.4979  -13.6752   22.3636 O   0  0  0  0  0  0  0  0  0  0  0  0
  -30.1324  -26.7312   19.8478 O   0  0  0  0  0  0  0  0  0  0  0  0
  -33.4019  -25.5339   22.0767 O   0  0  0  0  0  0  0  0  0  0  0  0
  -32.6342  -21.0334   20.7818 O   0  0  0  0  0  0  0  0  0  0  0  0
  -29.8861  -15.6611   21.7337 O   0  0  0  0  0  0  0  0  0  0  0  0
  -21.5548   -6.9520   21.4390 O   0  0  0  0  0  0  0  0  0  0  0  0
  -26.0295  -22.1724   19.5854 O   0  0  0  0  0  0  0  0  0  1  0  0
  -22.4251   -4.0656   26.0559 F   0  0  0  0  0  0  0  0  0  0  0  0
  -24.0493   -5.9051   22.0082 F   0  0  0  0  0  0  0  0  0  0  0  0
  1  2  1  0  0  0  0
  1  5  2  0  0  0  0
  2  6  2  0  0  0  0
  3  8  2  0  0  0  0
  3 16  1  0  0  0  0
  4  9  1  0  0  0  0
  4 16  2  0  0  0  0
  5 18  1  0  0  0  0
  6 20  1  0  0  0  0
  7 10  2  0  0  0  0
  7 19  1  0  0  0  0
  8 22  1  0  0  0  0
  9 22  2  0  0  0  0
 10 23  1  0  0  0  0
 11 12  2  0  0  0  0
 11 24  1  0  0  0  0
 12 25  1  0  0  0  0
 13 21  1  0  0  0  0
 13 23  2  0  0  0  0
 14 25  2  0  0  0  0
 14 26  1  0  0  0  0
 15 28  2  0  0  0  0
 15 66  1  0  0  0  0
 16 27  1  0  0  0  0
 17 27  1  0  0  0  0
 17 29  2  0  0  0  0
 17 31  1  0  0  0  0
 18 20  2  0  0  0  0
 18 36  1  0  0  0  0
 19 21  2  0  0  0  0
 19 37  1  0  0  0  0
 20 45  1  0  0  0  0
 21 38  1  0  0  0  0
 22 83  1  0  0  0  0
 23 84  1  0  0  0  0
 24 26  2  0  0  0  0
 24 83  1  0  0  0  0
 25 85  1  0  0  0  0
 26 86  1  0  0  0  0
 27 65  2  0  0  0  0
 28 56  1  0  0  0  0
 28 68  1  0  0  0  0
 29 67  1  0  0  0  0
 29 71  1  0  0  0  0
 30 48  1  0  0  0  0
 30 66  1  0  0  0  0
 30 68  2  0  0  0  0
 31 72  1  0  0  0  0
 31 78  2  0  0  0  0
 32 46  1  0  0  0  0
 32 73  1  0  0  0  0
 32 79  2  0  0  0  0
 33 62  1  0  0  0  0
 33 69  1  0  0  0  0
 33 80  2  0  0  0  0
 34 63  1  0  0  0  0
 34 74  1  0  0  0  0
 34 81  2  0  0  0  0
 35 70  1  0  0  0  0
 35 75  1  0  0  0  0
 35 82  2  0  0  0  0
 36 39  1  0  0  0  0
 37 46  1  0  0  0  0
 38 69  1  0  0  0  0
 39 41  1  0  0  0  0
 40 42  1  0  0  0  0
 40 43  1  0  0  0  0
 41 45  1  0  0  0  0
 42 47  1  0  0  0  0
 43 70  1  0  0  0  0
 44 47  1  0  0  0  0
 44 70  1  0  0  0  0
 45 73  1  0  0  0  0
 46 69  1  0  0  0  0
 47 67  1  0  0  0  0
 49 63  1  0  0  0  0
 50 64  1  0  0  0  0
 51 64  1  0  0  0  0
 52 64  1  0  0  0  0
 53 75  1  0  0  0  0
 54 76  1  0  0  0  0
 55 77  1  0  0  0  0
 56 76  1  0  0  0  0
 57 59  1  0  0  0  0
 57 60  1  0  0  0  0
 58 61  1  0  0  0  0
 58 66  1  0  0  0  0
 59 75  1  0  0  0  0
 60 76  1  0  0  0  0
 61 84  1  0  0  0  0
 62 64  1  0  0  0  0
 62 74  1  0  0  0  0
 63 77  1  0  0  0  0
 65 67  1  0  0  0  0
M  CHG  2  68   1  77   1
M  ISO  4  35 100  61 101  75 100  84 101
M  END
> <Batch ID>
0050

> <Smiles>
CNC(C)C(=O)NC(C(=O)N1Cc2cc([101O:1][101CH2:1]Cn3cc(CN(C)CCC[100N:0](C)[100C:0](=O)N4CCCC(n5nc(-c6ccc(Oc7ccc(F)cc7F)cc6)c(C(N)=O)c5N)C4)nc3C)ccc2CC1C(=O)NC1CCCc2ccccc21)C(C)(C)C

> <Shape>
0.235

> <Color>
0.158

> <Negative vol penalty>
0.000

$$$$

  -OEChem-04052317313D

 86 94  0     1  0  0  0  0  0999 V2000
  -24.5430  -29.7686   12.1044 C   0  0  0  0  0  0  0  0  0  0  0  0
  -23.9245  -29.8626   13.3469 C   0  0  0  0  0  0  0  0  0  0  0  0
  -25.7133  -13.2921   18.8982 C   0  0  0  0  0  0  0  0  0  0  0  0
  -25.0432  -13.5523   21.2048 C   0  0  0  0  0  0  0  0  0  0  0  0
  -25.6348  -28.9186   11.9329 C   0  0  0  0  0  0  0  0  0  0  0  0
  -24.3968  -29.1058   14.4186 C   0  0  0  0  0  0  0  0  0  0  0  0
  -24.5044  -30.7443   20.3186 C   0  0  0  0  0  0  0  0  0  0  0  0
  -23.0206  -24.5390   22.6690 C   0  0  0  0  0  0  0  0  0  0  0  0
  -24.3474  -24.1649   22.8820 C   0  0  0  0  0  0  0  0  0  0  0  0
  -25.6518  -11.9056   19.0367 C   0  0  0  0  0  0  0  0  0  0  0  0
  -24.9817  -12.1657   21.3433 C   0  0  0  0  0  0  0  0  0  0  0  0
  -23.6544  -30.4604   21.3866 C   0  0  0  0  0  0  0  0  0  0  0  0
  -24.2984   -8.6997   22.2025 C   0  0  0  0  0  0  0  0  0  0  0  0
  -23.1905   -8.1611   22.8566 C   0  0  0  0  0  0  0  0  0  0  0  0
  -25.1036  -28.6501   22.0509 C   0  0  0  0  0  0  0  0  0  0  0  0
  -23.2928  -24.1557   20.2992 C   0  0  0  0  0  0  0  0  0  0  0  0
  -21.7347   -9.1347   21.1923 C   0  0  0  0  0  0  0  0  0  0  0  0
  -25.4091  -14.1155   19.9822 C   0  0  0  0  0  0  0  0  0  0  0  0
  -24.4338  -16.4098   19.4410 C   0  0  0  0  0  0  0  0  0  0  0  0
  -26.1268  -28.1582   13.0055 C   0  0  0  0  0  0  0  0  0  0  0  0
  -25.6567  -29.9750   20.1020 C   0  0  0  0  0  0  0  0  0  0  0  0
  -25.4954  -28.2438   14.2611 C   0  0  0  0  0  0  0  0  0  0  0  0
  -25.9680  -28.9279   20.9810 C   0  0  0  0  0  0  0  0  0  0  0  0
  -22.4933  -24.5344   21.3777 C   0  0  0  0  0  0  0  0  0  0  0  0
  -25.1469  -23.7861   21.8036 C   0  0  0  0  0  0  0  0  0  0  0  0
  -24.6196  -23.7815   20.5122 C   0  0  0  0  0  0  0  0  0  0  0  0
  -25.2860  -11.3423   20.2592 C   0  0  0  0  0  0  0  0  0  0  0  0
  -23.9524  -29.4114   22.2512 C   0  0  0  0  0  0  0  0  0  0  0  0
  -24.1246   -9.4559   21.0433 C   0  0  0  0  0  0  0  0  0  0  0  0
  -21.9086   -8.3786   22.3515 C   0  0  0  0  0  0  0  0  0  0  0  0
  -22.8427   -9.6734   20.5382 C   0  0  0  0  0  0  0  0  0  0  0  0
  -25.4729  -15.5479   19.8400 C   0  0  0  0  0  0  0  0  0  0  0  0
  -24.9980  -17.6618   19.4646 C   0  0  0  0  0  0  0  0  0  0  0  0
  -23.0795  -16.1058   19.0814 C   0  0  0  0  0  0  0  0  0  0  0  0
  -26.6939  -28.1011   17.7533 C   0  0  0  0  0  0  0  0  0  0  0  0
  -28.1673  -21.4740   22.0554 C   0  0  0  0  0  0  0  0  0  0  0  0
  -29.3918  -27.9994   19.5515 C   0  0  0  0  0  0  0  0  0  0  0  0
  -30.8371  -28.3116   22.6273 C   0  0  0  0  0  0  0  0  0  0  0  0
  -27.2800  -27.2178   12.7600 C   0  0  0  0  0  0  0  0  0  0  0  0
  -26.5774  -30.3110   18.9610 C   0  0  0  0  0  0  0  0  0  0  0  0
  -27.2034  -28.0847   20.8040 C   0  0  0  0  0  0  0  0  0  0  0  0
  -27.9531  -26.7318   14.0410 C   0  0  0  0  0  0  0  0  0  0  0  0
  -29.8157  -19.1032   19.9335 C   0  0  0  0  0  0  0  0  0  0  0  0
  -26.9068  -26.2902   15.0594 C   0  0  0  0  0  0  0  0  0  0  0  0
  -28.7576  -18.0231   19.7122 C   0  0  0  0  0  0  0  0  0  0  0  0
  -29.7258  -19.6936   21.3373 C   0  0  0  0  0  0  0  0  0  0  0  0
  -27.3152  -19.1509   21.4650 C   0  0  0  0  0  0  0  0  0  0  0  0
  -25.9940  -27.4575   15.4541 C   0  0  1  0  0  0  0  0  0  0  0  0
  -27.4527  -29.1368   18.5339 C   0  0  1  0  0  0  0  0  0  0  0  0
  -27.3513  -18.5497   20.0488 C   0  0  2  0  0  0  0  0  0  0  0  0
  -25.4568  -23.3801   19.3422 C   0  0  0  0  0  0  0  0  0  0  0  0
  -26.4104  -21.5360   23.7772 C   0  0  0  0  0  0  0  0  0  0  0  0
  -33.0540  -28.1330   23.7894 C   0  0  0  0  0  0  0  0  0  0  0  0
  -20.9828  -29.0977   24.4011 C   0  0  0  0  0  0  0  0  0  0  0  0
  -29.2052  -24.9561   19.4346 C   0  0  0  0  0  0  0  0  0  0  0  0
  -30.8239  -24.8532   21.3417 C   0  0  0  0  0  0  0  0  0  0  0  0
  -31.5182  -25.8703   19.1724 C   0  0  0  0  0  0  0  0  0  0  0  0
  -30.7574  -31.1490   23.4651 C   0  0  0  0  0  0  0  0  0  0  0  0
  -21.0654  -24.9377   21.1487 C   0  0  0  0  0  0  0  0  0  0  0  0
  -26.5648  -23.3906   22.0560 C   0  0  0  0  0  0  0  0  0  0  0  0
  -20.8802  -26.4289   20.8866 C   0  0  0  0  0  0  0  0  0  0  0  0
  -21.2266  -28.6911   21.8873 C   0  0  0  0  0  0  0  0  0  0  0  0
  -26.7424  -21.8842   22.3300 C   0  0  1  0  0  0  0  0  0  0  0  0
  -29.9021  -27.1165   20.6647 C   0  0  1  0  0  0  0  0  0  0  0  0
  -32.0746  -29.0607   23.0874 C   0  0  2  0  0  0  0  0  0  0  0  0
  -21.7389  -29.4276   23.1207 C   0  0  2  0  0  0  0  0  0  1  0  0
  -30.3380  -25.7135   20.1558 C   0  0  0  0  0  0  0  0  0  0  0  0
  -26.6112  -16.1975   20.0979 N   0  0  0  0  0  0  0  0  0  0  0  0
  -26.2905  -17.4808   19.8604 N   0  0  0  0  0  0  0  0  0  0  0  0
  -28.0690  -28.4486   19.6700 N   0  0  0  0  0  0  0  0  0  0  0  0
  -28.3693  -20.1619   21.6267 N   0  0  0  0  0  0  0  0  0  0  0  0
  -24.5096  -18.8889   19.1851 N   0  0  0  0  0  0  0  0  0  0  0  0
  -22.6647  -14.7674   19.1111 N   0  0  0  0  0  0  0  0  0  0  0  0
  -26.6673  -28.3311   16.3910 N   0  0  0  0  0  0  0  0  0  0  0  0
  -30.9624  -27.8676   21.3279 N   0  0  0  0  0  0  0  0  0  0  0  0
  -31.6993  -30.1501   24.0325 N   0  3  0  0  0  0  0  0  0  0  0  0
  -21.3129  -27.2208   22.0699 N   0  3  0  0  0  0  0  0  0  0  0  0
  -22.2661  -16.9929   18.7280 O   0  0  0  0  0  0  0  0  0  0  0  0
  -26.1726  -27.1619   18.3432 O   0  0  0  0  0  0  0  0  0  0  0  0
  -29.0722  -22.2974   22.2149 O   0  0  0  0  0  0  0  0  0  0  0  0
  -30.1418  -28.2860   18.6149 O   0  0  0  0  0  0  0  0  0  0  0  0
  -29.8586  -28.1346   23.3496 O   0  0  0  0  0  0  0  0  0  0  0  0
  -25.2256   -9.9893   20.3947 O   0  0  0  0  0  0  0  0  0  0  0  0
  -23.1241  -29.1317   23.2941 O   0  0  0  0  0  0  0  0  0  1  0  0
  -20.8448   -7.8599   22.9788 F   0  0  0  0  0  0  0  0  0  0  0  0
  -22.6694  -10.3980   19.4243 F   0  0  0  0  0  0  0  0  0  0  0  0
  1  2  1  0  0  0  0
  1  5  2  0  0  0  0
  2  6  2  0  0  0  0
  3 10  2  0  0  0  0
  3 18  1  0  0  0  0
  4 11  1  0  0  0  0
  4 18  2  0  0  0  0
  5 20  1  0  0  0  0
  6 22  1  0  0  0  0
  7 12  2  0  0  0  0
  7 21  1  0  0  0  0
  8  9  2  0  0  0  0
  8 24  1  0  0  0  0
  9 25  1  0  0  0  0
 10 27  1  0  0  0  0
 11 27  2  0  0  0  0
 12 28  1  0  0  0  0
 13 14  2  0  0  0  0
 13 29  1  0  0  0  0
 14 30  1  0  0  0  0
 15 23  1  0  0  0  0
 15 28  2  0  0  0  0
 16 24  2  0  0  0  0
 16 26  1  0  0  0  0
 17 30  2  0  0  0  0
 17 31  1  0  0  0  0
 18 32  1  0  0  0  0
 19 32  1  0  0  0  0
 19 33  2  0  0  0  0
 19 34  1  0  0  0  0
 20 22  2  0  0  0  0
 20 39  1  0  0  0  0
 21 23  2  0  0  0  0
 21 40  1  0  0  0  0
 22 48  1  0  0  0  0
 23 41  1  0  0  0  0
 24 59  1  0  0  0  0
 25 26  2  0  0  0  0
 25 60  1  0  0  0  0
 26 51  1  0  0  0  0
 27 83  1  0  0  0  0
 28 84  1  0  0  0  0
 29 31  2  0  0  0  0
 29 83  1  0  0  0  0
 30 85  1  0  0  0  0
 31 86  1  0  0  0  0
 32 68  2  0  0  0  0
 33 69  1  0  0  0  0
 33 72  1  0  0  0  0
 34 73  1  0  0  0  0
 34 78  2  0  0  0  0
 35 49  1  0  0  0  0
 35 74  1  0  0  0  0
 35 79  2  0  0  0  0
 36 63  1  0  0  0  0
 36 71  1  0  0  0  0
 36 80  2  0  0  0  0
 37 64  1  0  0  0  0
 37 70  1  0  0  0  0
 37 81  2  0  0  0  0
 38 65  1  0  0  0  0
 38 75  1  0  0  0  0
 38 82  2  0  0  0  0
 39 42  1  0  0  0  0
 40 49  1  0  0  0  0
 41 70  1  0  0  0  0
 42 44  1  0  0  0  0
 43 45  1  0  0  0  0
 43 46  1  0  0  0  0
 44 48  1  0  0  0  0
 45 50  1  0  0  0  0
 46 71  1  0  0  0  0
 47 50  1  0  0  0  0
 47 71  1  0  0  0  0
 48 74  1  0  0  0  0
 49 70  1  0  0  0  0
 50 69  1  0  0  0  0
 52 63  1  0  0  0  0
 53 65  1  0  0  0  0
 54 66  1  0  0  0  0
 55 67  1  0  0  0  0
 56 67  1  0  0  0  0
 57 67  1  0  0  0  0
 58 76  1  0  0  0  0
 59 61  1  0  0  0  0
 60 63  1  0  0  0  0
 61 77  1  0  0  0  0
 62 66  1  0  0  0  0
 62 77  1  0  0  0  0
 64 67  1  0  0  0  0
 64 75  1  0  0  0  0
 65 76  1  0  0  0  0
 66 84  1  0  0  0  0
 68 69  1  0  0  0  0
M  CHG  2  76   1  77   1
M  ISO  4  36 100  63 100  66 101  84 101
M  END
> <Batch ID>
0050

> <Smiles>
CNC(C)C(=O)NC(C(=O)N1Cc2cc([101O:1][101CH:1](C)CNCCc3ccc(C[100CH:0](C)[100C:0](=O)N4CCCC(n5nc(-c6ccc(Oc7ccc(F)cc7F)cc6)c(C(N)=O)c5N)C4)c(C)c3)ccc2CC1C(=O)NC1CCCc2ccccc21)C(C)(C)C

> <Shape>
0.218

> <Color>
0.065

> <Negative vol penalty>
0.000

$$$$

  -OEChem-04052317313D

 85 93  0     1  0  0  0  0  0999 V2000
  -25.7309  -35.5171   22.5355 C   0  0  0  0  0  0  0  0  0  0  0  0
  -26.3360  -34.2750   22.3730 C   0  0  0  0  0  0  0  0  0  0  0  0
  -24.3626  -13.9521   20.5717 C   0  0  0  0  0  0  0  0  0  0  0  0
  -26.3455  -12.6740   21.0930 C   0  0  0  0  0  0  0  0  0  0  0  0
  -24.4616  -35.6036   23.1060 C   0  0  0  0  0  0  0  0  0  0  0  0
  -25.6727  -33.1187   22.7820 C   0  0  0  0  0  0  0  0  0  0  0  0
  -25.9658  -29.3974   19.3598 C   0  0  0  0  0  0  0  0  0  0  0  0
  -23.7566  -12.8039   20.0619 C   0  0  0  0  0  0  0  0  0  0  0  0
  -25.7394  -11.5257   20.5832 C   0  0  0  0  0  0  0  0  0  0  0  0
  -27.1606  -28.6816   19.2984 C   0  0  0  0  0  0  0  0  0  0  0  0
  -24.5795   -8.1826   19.7489 C   0  0  0  0  0  0  0  0  0  0  0  0
  -24.6910   -7.0061   20.4898 C   0  0  0  0  0  0  0  0  0  0  0  0
  -26.1589  -26.9101   20.5936 C   0  0  0  0  0  0  0  0  0  0  0  0
  -23.5721   -8.0702   22.3480 C   0  0  0  0  0  0  0  0  0  0  0  0
  -25.6572  -13.8871   21.0872 C   0  0  0  0  0  0  0  0  0  0  0  0
  -26.2376  -15.5417   22.9401 C   0  0  0  0  0  0  0  0  0  0  0  0
  -23.7783  -34.4470   23.5133 C   0  0  0  0  0  0  0  0  0  0  0  0
  -24.8601  -28.8790   20.0491 C   0  0  0  0  0  0  0  0  0  0  0  0
  -24.3936  -33.1899   23.3597 C   0  0  0  0  0  0  0  0  0  0  0  0
  -24.9504  -27.6202   20.6602 C   0  0  0  0  0  0  0  0  0  0  0  0
  -24.4449  -11.5907   20.0676 C   0  0  0  0  0  0  0  0  0  0  0  0
  -27.2582  -27.4391   19.9178 C   0  0  0  0  0  0  0  0  0  0  0  0
  -23.9644   -9.3030   20.3076 C   0  0  0  0  0  0  0  0  0  0  0  0
  -24.1873   -6.9498   21.7893 C   0  0  0  0  0  0  0  0  0  0  0  0
  -23.4607   -9.2467   21.6071 C   0  0  0  0  0  0  0  0  0  0  0  0
  -26.2840  -15.0730   21.6135 C   0  0  0  0  0  0  0  0  0  0  0  0
  -27.4934  -21.9089   21.6629 C   0  0  0  0  0  0  0  0  0  0  0  0
  -27.7430  -21.8857   23.0120 C   0  0  0  0  0  0  0  0  0  0  0  0
  -26.9854  -16.6936   22.9236 C   0  0  0  0  0  0  0  0  0  0  0  0
  -25.5776  -14.9855   24.0849 C   0  0  0  0  0  0  0  0  0  0  0  0
  -28.3525  -21.5333   20.5325 C   0  0  0  0  0  0  0  0  0  0  0  0
  -23.1506  -29.8023   22.5648 C   0  0  0  0  0  0  0  0  0  0  0  0
  -21.3009  -27.2657   21.7482 C   0  0  0  0  0  0  0  0  0  0  0  0
  -21.0563  -24.2429   20.1831 C   0  0  0  0  0  0  0  0  0  0  0  0
  -22.4278  -34.5944   24.1682 C   0  0  0  0  0  0  0  0  0  0  0  0
  -23.5700  -29.6517   20.0834 C   0  0  0  0  0  0  0  0  0  0  0  0
  -23.7860  -27.0103   21.3954 C   0  0  0  0  0  0  0  0  0  0  0  0
  -21.6360  -33.2908   24.2317 C   0  0  0  0  0  0  0  0  0  0  0  0
  -30.0328  -18.6066   19.3695 C   0  0  0  0  0  0  0  0  0  0  0  0
  -22.5221  -32.1515   24.7254 C   0  0  0  0  0  0  0  0  0  0  0  0
  -29.1939  -17.4622   19.9411 C   0  0  0  0  0  0  0  0  0  0  0  0
  -29.1646  -19.7975   18.9714 C   0  0  0  0  0  0  0  0  0  0  0  0
  -27.4405  -19.1547   20.6204 C   0  0  0  0  0  0  0  0  0  0  0  0
  -23.6957  -31.9108   23.7681 C   0  0  1  0  0  0  0  0  0  0  0  0
  -22.6688  -29.2582   21.2497 C   0  0  1  0  0  0  0  0  0  0  0  0
  -28.2829  -17.9540   21.0815 C   0  0  1  0  0  0  0  0  0  0  0  0
  -19.4272  -22.3917   19.7177 C   0  0  0  0  0  0  0  0  0  0  0  0
  -21.6077  -26.2773   24.6185 C   0  0  0  0  0  0  0  0  0  0  0  0
  -20.8012  -24.0325   23.8580 C   0  0  0  0  0  0  0  0  0  0  0  0
  -19.3088  -26.0223   23.6675 C   0  0  0  0  0  0  0  0  0  0  0  0
  -25.4275  -22.6080   20.3988 C   0  0  0  0  0  0  0  0  0  0  0  0
  -21.2709  -24.6329   17.2573 C   0  0  0  0  0  0  0  0  0  0  0  0
  -32.8108  -26.3828   22.8098 C   0  0  0  0  0  0  0  0  0  0  0  0
  -28.9892  -21.4627   23.7481 C   0  0  0  0  0  0  0  0  0  0  0  0
  -29.8555  -22.6345   24.2240 C   0  0  0  0  0  0  0  0  0  0  0  0
  -30.2840  -23.5649   23.0853 C   0  0  0  0  0  0  0  0  0  0  0  0
  -30.7531  -26.6970   20.4295 C   0  0  0  0  0  0  0  0  0  0  0  0
  -31.1672  -24.6899   23.6058 C   0  0  0  0  0  0  0  0  0  0  0  0
  -30.4957  -26.3672   21.8921 C   0  0  0  0  0  0  0  0  0  0  0  0
  -29.6315  -27.4933   19.7740 C   0  0  0  0  0  0  0  0  0  1  0  0
  -21.2818  -25.7984   22.1025 C   0  0  1  0  0  0  0  0  0  0  0  0
  -20.0293  -23.6926   19.2100 C   0  0  2  0  0  0  0  0  0  0  0  0
  -20.7726  -25.5447   23.5495 C   0  0  0  0  0  0  0  0  0  0  0  0
  -27.0042  -15.8627   20.8125 N   0  0  0  0  0  0  0  0  0  0  0  0
  -26.6414  -22.3278   23.6907 N   0  0  0  0  0  0  0  0  0  0  0  0
  -25.7049  -22.6282   22.7976 N   0  0  0  0  0  0  0  0  0  0  0  0
  -26.2179  -22.3764   21.5822 N   0  0  0  0  0  0  0  0  0  0  0  0
  -27.4172  -16.8394   21.6381 N   0  0  0  0  0  0  0  0  0  0  0  0
  -28.3111  -20.2108   20.0847 N   0  0  0  0  0  0  0  0  0  0  0  0
  -22.5481  -27.8073   21.4063 N   0  0  0  0  0  0  0  0  0  0  0  0
  -27.3092  -17.5860   23.8834 N   0  0  0  0  0  0  0  0  0  0  0  0
  -24.8522  -13.7968   23.9260 N   0  0  0  0  0  0  0  0  0  0  0  0
  -23.2533  -31.1799   22.6000 N   0  0  0  0  0  0  0  0  0  0  0  0
  -20.4933  -25.1387   21.0673 N   0  0  0  0  0  0  0  0  0  0  0  0
  -20.6589  -23.4333   17.8843 N   0  3  0  0  0  0  0  0  0  0  0  0
  -31.6029  -25.5531   22.4461 N   0  3  1  0  0  0  0  0  0  0  0  0
  -25.6159  -15.5354   25.2118 O   0  0  0  0  0  0  0  0  0  0  0  0
  -29.0617  -22.4252   20.0691 O   0  0  0  0  0  0  0  0  0  0  0  0
  -23.4086  -29.0296   23.4803 O   0  0  0  0  0  0  0  0  0  0  0  0
  -20.2467  -27.9061   21.7669 O   0  0  0  0  0  0  0  0  0  0  0  0
  -22.2388  -23.9085   20.1635 O   0  0  0  0  0  0  0  0  0  0  0  0
  -23.8537  -10.4701   19.5705 O   0  0  0  0  0  0  0  0  0  0  0  0
  -28.4234  -26.7385   19.8599 O   0  0  0  0  0  0  0  0  0  1  0  0
  -24.2931   -5.8195   22.5001 F   0  0  0  0  0  0  0  0  0  0  0  0
  -22.8676  -10.3195   22.1488 F   0  0  0  0  0  0  0  0  0  0  0  0
  1  2  1  0  0  0  0
  1  5  2  0  0  0  0
  2  6  2  0  0  0  0
  3  8  2  0  0  0  0
  3 15  1  0  0  0  0
  4  9  1  0  0  0  0
  4 15  2  0  0  0  0
  5 17  1  0  0  0  0
  6 19  1  0  0  0  0
  7 10  2  0  0  0  0
  7 18  1  0  0  0  0
  8 21  1  0  0  0  0
  9 21  2  0  0  0  0
 10 22  1  0  0  0  0
 11 12  2  0  0  0  0
 11 23  1  0  0  0  0
 12 24  1  0  0  0  0
 13 20  1  0  0  0  0
 13 22  2  0  0  0  0
 14 24  2  0  0  0  0
 14 25  1  0  0  0  0
 15 26  1  0  0  0  0
 16 26  1  0  0  0  0
 16 29  2  0  0  0  0
 16 30  1  0  0  0  0
 17 19  2  0  0  0  0
 17 35  1  0  0  0  0
 18 20  2  0  0  0  0
 18 36  1  0  0  0  0
 19 44  1  0  0  0  0
 20 37  1  0  0  0  0
 21 82  1  0  0  0  0
 22 83  1  0  0  0  0
 23 25  2  0  0  0  0
 23 82  1  0  0  0  0
 24 84  1  0  0  0  0
 25 85  1  0  0  0  0
 26 64  2  0  0  0  0
 27 28  2  0  0  0  0
 27 31  1  0  0  0  0
 27 67  1  0  0  0  0
 28 54  1  0  0  0  0
 28 65  1  0  0  0  0
 29 68  1  0  0  0  0
 29 71  1  0  0  0  0
 30 72  1  0  0  0  0
 30 77  2  0  0  0  0
 31 69  1  0  0  0  0
 31 78  2  0  0  0  0
 32 45  1  0  0  0  0
 32 73  1  0  0  0  0
 32 79  2  0  0  0  0
 33 61  1  0  0  0  0
 33 70  1  0  0  0  0
 33 80  2  0  0  0  0
 34 62  1  0  0  0  0
 34 74  1  0  0  0  0
 34 81  2  0  0  0  0
 35 38  1  0  0  0  0
 36 45  1  0  0  0  0
 37 70  1  0  0  0  0
 38 40  1  0  0  0  0
 39 41  1  0  0  0  0
 39 42  1  0  0  0  0
 40 44  1  0  0  0  0
 41 46  1  0  0  0  0
 42 69  1  0  0  0  0
 43 46  1  0  0  0  0
 43 69  1  0  0  0  0
 44 73  1  0  0  0  0
 45 70  1  0  0  0  0
 46 68  1  0  0  0  0
 47 62  1  0  0  0  0
 48 63  1  0  0  0  0
 49 63  1  0  0  0  0
 50 63  1  0  0  0  0
 51 67  1  0  0  0  0
 52 75  1  0  0  0  0
 53 76  1  0  0  0  0
 54 55  1  0  0  0  0
 55 56  1  0  0  0  0
 56 58  1  0  0  0  0
 57 59  1  0  0  0  0
 57 60  1  0  0  0  0
 58 76  1  0  0  0  0
 59 76  1  0  0  0  0
 60 83  1  0  0  0  0
 61 63  1  0  0  0  0
 61 74  1  0  0  0  0
 62 75  1  0  0  0  0
 64 68  1  0  0  0  0
 65 66  2  0  0  0  0
 66 67  1  0  0  0  0
M  CHG  2  75   1  76   1
M  ISO  4  27 100  31 100  60 101  83 101
M  END
> <Batch ID>
0050

> <Smiles>
CNC(C)C(=O)NC(C(=O)N1Cc2cc([101O:1][101CH2:1]CCN(C)CCCCc3nnn(C)[100c:0]3[100C:0](=O)N3CCCC(n4nc(-c5ccc(Oc6ccc(F)cc6F)cc5)c(C(N)=O)c4N)C3)ccc2CC1C(=O)NC1CCCc2ccccc21)C(C)(C)C

> <Shape>
0.254

> <Color>
0.079

> <Negative vol penalty>
0.000

$$$$

  -OEChem-04052317313D

 83 91  0     1  0  0  0  0  0999 V2000
  -29.1630  -36.3531   18.9479 C   0  0  0  0  0  0  0  0  0  0  0  0
  -29.3260  -35.0099   19.2713 C   0  0  0  0  0  0  0  0  0  0  0  0
  -27.8249  -12.0080   21.8772 C   0  0  0  0  0  0  0  0  0  0  0  0
  -25.8221  -13.0233   20.9856 C   0  0  0  0  0  0  0  0  0  0  0  0
  -28.1660  -37.1029   19.5706 C   0  0  0  0  0  0  0  0  0  0  0  0
  -28.4927  -34.4159   20.2185 C   0  0  0  0  0  0  0  0  0  0  0  0
  -26.8109  -29.8709   18.7488 C   0  0  0  0  0  0  0  0  0  0  0  0
  -27.0604  -10.9736   22.4166 C   0  0  0  0  0  0  0  0  0  0  0  0
  -25.0576  -11.9888   21.5249 C   0  0  0  0  0  0  0  0  0  0  0  0
  -27.6936  -28.7979   18.8630 C   0  0  0  0  0  0  0  0  0  0  0  0
  -24.3121   -8.7832   20.7573 C   0  0  0  0  0  0  0  0  0  0  0  0
  -23.3311   -8.2134   19.9459 C   0  0  0  0  0  0  0  0  0  0  0  0
  -26.6054  -28.1284   20.9092 C   0  0  0  0  0  0  0  0  0  0  0  0
  -21.6366   -8.8542   21.5445 C   0  0  0  0  0  0  0  0  0  0  0  0
  -27.2058  -13.0330   21.1617 C   0  0  0  0  0  0  0  0  0  0  0  0
  -28.5857  -14.1465   19.3277 C   0  0  0  0  0  0  0  0  0  0  0  0
  -27.3138  -36.5153   20.5189 C   0  0  0  0  0  0  0  0  0  0  0  0
  -25.8241  -30.0875   19.7212 C   0  0  0  0  0  0  0  0  0  0  0  0
  -27.4842  -35.1588   20.8555 C   0  0  0  0  0  0  0  0  0  0  0  0
  -25.7097  -29.2034   20.8036 C   0  0  0  0  0  0  0  0  0  0  0  0
  -25.6768  -10.9639   22.2405 C   0  0  0  0  0  0  0  0  0  0  0  0
  -27.5929  -27.9281   19.9449 C   0  0  0  0  0  0  0  0  0  0  0  0
  -23.9554   -9.3885   21.9624 C   0  0  0  0  0  0  0  0  0  0  0  0
  -21.9933   -8.2489   20.3394 C   0  0  0  0  0  0  0  0  0  0  0  0
  -22.6177   -9.4240   22.3559 C   0  0  0  0  0  0  0  0  0  0  0  0
  -27.9949  -14.1021   20.6048 C   0  0  0  0  0  0  0  0  0  0  0  0
  -29.2206  -15.3637   19.2852 C   0  0  0  0  0  0  0  0  0  0  0  0
  -28.1141  -24.0279   19.4730 C   0  0  0  0  0  0  0  0  0  0  0  0
  -26.2194  -23.1545   19.4073 C   0  0  0  0  0  0  0  0  0  0  0  0
  -28.5626  -13.1744   18.2741 C   0  0  0  0  0  0  0  0  0  0  0  0
  -25.1676  -32.4289   21.7683 C   0  0  0  0  0  0  0  0  0  0  0  0
  -22.5273  -30.6409   22.3638 C   0  0  0  0  0  0  0  0  0  0  0  0
  -28.2675  -20.4928   22.2678 C   0  0  0  0  0  0  0  0  0  0  0  0
  -21.0338  -27.5728   22.3116 C   0  0  0  0  0  0  0  0  0  0  0  0
  -26.2812  -37.3781   21.2001 C   0  0  0  0  0  0  0  0  0  0  0  0
  -24.8625  -31.2341   19.5694 C   0  0  0  0  0  0  0  0  0  0  0  0
  -24.6548  -29.3802   21.8639 C   0  0  0  0  0  0  0  0  0  0  0  0
  -25.1973  -36.5784   21.9184 C   0  0  0  0  0  0  0  0  0  0  0  0
  -31.3096  -18.6065   22.1028 C   0  0  0  0  0  0  0  0  0  0  0  0
  -25.8204  -35.4610   22.7491 C   0  0  0  0  0  0  0  0  0  0  0  0
  -30.8542  -17.2331   21.6111 C   0  0  0  0  0  0  0  0  0  0  0  0
  -30.2681  -19.2465   23.0153 C   0  0  0  0  0  0  0  0  0  0  0  0
  -28.4510  -17.9806   21.9120 C   0  0  0  0  0  0  0  0  0  0  0  0
  -26.5840  -34.4724   21.8598 C   0  0  1  0  0  0  0  0  0  0  0  0
  -24.2245  -31.6576   20.8888 C   0  0  1  0  0  0  0  0  0  0  0  0
  -29.4609  -17.3123   20.9624 C   0  0  2  0  0  0  0  0  0  0  0  0
  -24.8565  -22.7059   19.0702 C   0  0  0  0  0  0  0  0  0  0  0  0
  -25.7714  -19.9412   23.8610 C   0  0  0  0  0  0  0  0  0  0  0  0
  -18.8836  -26.4184   22.8959 C   0  0  0  0  0  0  0  0  0  0  0  0
  -27.1276  -19.9351   20.1578 C   0  0  0  0  0  0  0  0  0  0  0  0
  -23.2807  -30.7387   25.3189 C   0  0  0  0  0  0  0  0  0  0  0  0
  -21.7002  -28.8374   25.7131 C   0  0  0  0  0  0  0  0  0  0  0  0
  -20.8389  -31.0156   24.8551 C   0  0  0  0  0  0  0  0  0  0  0  0
  -20.5769  -26.7518   19.5051 C   0  0  0  0  0  0  0  0  0  0  0  0
  -29.3118  -24.8523   19.0677 C   0  0  0  0  0  0  0  0  0  0  0  0
  -26.0031  -19.5170   22.4131 C   0  0  0  0  0  0  0  0  0  0  0  0
  -26.3966  -21.9155   21.5975 C   0  0  0  0  0  0  0  0  0  0  0  0
  -28.9584  -26.3193   18.8480 C   0  0  0  0  0  0  0  0  0  1  0  0
  -22.1857  -29.5245   23.3207 C   0  0  1  0  0  0  0  0  0  0  0  0
  -19.6756  -27.1221   21.8049 C   0  0  2  0  0  0  0  0  0  0  0  0
  -26.9216  -20.4512   21.5889 C   0  0  1  0  0  0  0  0  0  0  0  0
  -22.0226  -30.0266   24.7832 C   0  0  0  0  0  0  0  0  0  0  0  0
  -28.2334  -15.2035   21.3217 N   0  0  0  0  0  0  0  0  0  0  0  0
  -26.9893  -23.9508   18.7026 N   0  0  0  0  0  0  0  0  0  0  0  0
  -28.0886  -23.3294   20.6100 N   0  0  0  0  0  0  0  0  0  0  0  0
  -28.9811  -15.9514   20.4925 N   0  0  0  0  0  0  0  0  0  0  0  0
  -26.8662  -22.7804   20.5438 N   0  0  0  0  0  0  0  0  0  0  0  0
  -23.7422  -30.5198   21.6744 N   0  0  0  0  0  0  0  0  0  0  0  0
  -28.9537  -19.2827   22.3715 N   0  0  0  0  0  0  0  0  0  0  0  0
  -29.9549  -15.9779   18.3333 N   0  0  0  0  0  0  0  0  0  0  0  0
  -27.8635  -11.9779   18.4841 N   0  0  0  0  0  0  0  0  0  0  0  0
  -25.6627  -33.5811   21.1881 N   0  0  0  0  0  0  0  0  0  0  0  0
  -21.0002  -28.8700   22.7780 N   0  0  0  0  0  0  0  0  0  0  0  0
  -19.8358  -26.1821   20.6597 N   0  3  0  0  0  0  0  0  0  0  0  0
  -29.1583  -13.3542   17.1849 O   0  0  0  0  0  0  0  0  0  0  0  0
  -25.4257  -32.0104   22.8908 O   0  0  0  0  0  0  0  0  0  0  0  0
  -21.7417  -31.5821   22.2274 O   0  0  0  0  0  0  0  0  0  0  0  0
  -28.6958  -21.5701   22.6899 O   0  0  0  0  0  0  0  0  0  0  0  0
  -22.0244  -26.8455   22.2986 O   0  0  0  0  0  0  0  0  0  0  0  0
  -24.9305   -9.9545   22.7665 O   0  0  0  0  0  0  0  0  0  0  0  0
  -28.4536  -26.8803   20.0592 O   0  0  0  0  0  0  0  0  0  1  0  0
  -21.0512   -7.7030   19.5594 F   0  0  0  0  0  0  0  0  0  0  0  0
  -22.2688  -10.0051   23.5119 F   0  0  0  0  0  0  0  0  0  0  0  0
  1  2  1  0  0  0  0
  1  5  2  0  0  0  0
  2  6  2  0  0  0  0
  3  8  2  0  0  0  0
  3 15  1  0  0  0  0
  4  9  1  0  0  0  0
  4 15  2  0  0  0  0
  5 17  1  0  0  0  0
  6 19  1  0  0  0  0
  7 10  2  0  0  0  0
  7 18  1  0  0  0  0
  8 21  1  0  0  0  0
  9 21  2  0  0  0  0
 10 22  1  0  0  0  0
 11 12  2  0  0  0  0
 11 23  1  0  0  0  0
 12 24  1  0  0  0  0
 13 20  1  0  0  0  0
 13 22  2  0  0  0  0
 14 24  2  0  0  0  0
 14 25  1  0  0  0  0
 15 26  1  0  0  0  0
 16 26  1  0  0  0  0
 16 27  2  0  0  0  0
 16 30  1  0  0  0  0
 17 19  2  0  0  0  0
 17 35  1  0  0  0  0
 18 20  2  0  0  0  0
 18 36  1  0  0  0  0
 19 44  1  0  0  0  0
 20 37  1  0  0  0  0
 21 80  1  0  0  0  0
 22 81  1  0  0  0  0
 23 25  2  0  0  0  0
 23 80  1  0  0  0  0
 24 82  1  0  0  0  0
 25 83  1  0  0  0  0
 26 63  2  0  0  0  0
 27 66  1  0  0  0  0
 27 70  1  0  0  0  0
 28 55  1  0  0  0  0
 28 64  1  0  0  0  0
 28 65  2  0  0  0  0
 29 47  1  0  0  0  0
 29 64  2  0  0  0  0
 29 67  1  0  0  0  0
 30 71  1  0  0  0  0
 30 75  2  0  0  0  0
 31 45  1  0  0  0  0
 31 72  1  0  0  0  0
 31 76  2  0  0  0  0
 32 59  1  0  0  0  0
 32 68  1  0  0  0  0
 32 77  2  0  0  0  0
 33 61  1  0  0  0  0
 33 69  1  0  0  0  0
 33 78  2  0  0  0  0
 34 60  1  0  0  0  0
 34 73  1  0  0  0  0
 34 79  2  0  0  0  0
 35 38  1  0  0  0  0
 36 45  1  0  0  0  0
 37 68  1  0  0  0  0
 38 40  1  0  0  0  0
 39 41  1  0  0  0  0
 39 42  1  0  0  0  0
 40 44  1  0  0  0  0
 41 46  1  0  0  0  0
 42 69  1  0  0  0  0
 43 46  1  0  0  0  0
 43 69  1  0  0  0  0
 44 72  1  0  0  0  0
 45 68  1  0  0  0  0
 46 66  1  0  0  0  0
 48 56  1  0  0  0  0
 49 60  1  0  0  0  0
 50 61  1  0  0  0  0
 51 62  1  0  0  0  0
 52 62  1  0  0  0  0
 53 62  1  0  0  0  0
 54 74  1  0  0  0  0
 55 58  1  0  0  0  0
 56 61  1  0  0  0  0
 57 61  1  0  0  0  0
 57 67  1  0  0  0  0
 58 81  1  0  0  0  0
 59 62  1  0  0  0  0
 59 73  1  0  0  0  0
 60 74  1  0  0  0  0
 63 66  1  0  0  0  0
 65 67  1  0  0  0  0
M  CHG  1  74   1
M  ISO  4  33 100  58 101  61 100  81 101
M  END
> <Batch ID>
0050

> <Smiles>
CC[100C:0](C)(Cn1nc(C[101CH2:1][101O:1]c2ccc3c(c2)CN(C(=O)C(NC(=O)C(C)NC)C(C)(C)C)C(C(=O)NC2CCCc4ccccc42)C3)nc1C)[100C:0](=O)N1CCCC(n2nc(-c3ccc(Oc4ccc(F)cc4F)cc3)c(C(N)=O)c2N)C1

> <Shape>
0.275

> <Color>
0.069

> <Negative vol penalty>
0.000

$$$$

  -OEChem-04052317313D

 90 98  0     1  0  0  0  0  0999 V2000
  -27.7490  -15.2183   33.9012 C   0  0  0  0  0  0  0  0  0  0  0  0
  -27.8046  -15.8742   32.6756 C   0  0  0  0  0  0  0  0  0  0  0  0
  -23.0864   -9.8672   19.9418 C   0  0  0  0  0  0  0  0  0  0  0  0
  -23.6995   -9.9582   22.2770 C   0  0  0  0  0  0  0  0  0  0  0  0
  -28.4631  -14.0359   34.0909 C   0  0  0  0  0  0  0  0  0  0  0  0
  -28.5754  -15.3486   31.6393 C   0  0  0  0  0  0  0  0  0  0  0  0
  -26.1047  -15.3822   27.1242 C   0  0  0  0  0  0  0  0  0  0  0  0
  -22.3286   -8.7218   20.1854 C   0  0  0  0  0  0  0  0  0  0  0  0
  -22.9417   -8.8127   22.5206 C   0  0  0  0  0  0  0  0  0  0  0  0
  -26.0209  -16.5848   26.4237 C   0  0  0  0  0  0  0  0  0  0  0  0
  -23.2685   -5.4737   22.1022 C   0  0  0  0  0  0  0  0  0  0  0  0
  -23.8377   -4.4764   22.8939 C   0  0  0  0  0  0  0  0  0  0  0  0
  -27.8864  -15.9089   25.0522 C   0  0  0  0  0  0  0  0  0  0  0  0
  -32.2478  -19.7489   21.8302 C   0  0  0  0  0  0  0  0  0  0  0  0
  -22.0315   -4.7064   24.4820 C   0  0  0  0  0  0  0  0  0  0  0  0
  -31.4482  -20.5343   23.9279 C   0  0  0  0  0  0  0  0  0  0  0  0
  -23.7719  -10.4854   20.9876 C   0  0  0  0  0  0  0  0  0  0  0  0
  -24.1197  -13.0055   20.7991 C   0  0  0  0  0  0  0  0  0  0  0  0
  -29.2354  -13.4905   33.0532 C   0  0  0  0  0  0  0  0  0  0  0  0
  -27.0882  -14.4363   26.8004 C   0  0  0  0  0  0  0  0  0  0  0  0
  -29.3017  -14.1586   31.8156 C   0  0  0  0  0  0  0  0  0  0  0  0
  -27.9774  -14.6932   25.7469 C   0  0  0  0  0  0  0  0  0  0  0  0
  -32.5206  -20.1996   23.1170 C   0  0  0  0  0  0  0  0  0  0  0  0
  -30.9296  -19.6481   21.3998 C   0  0  0  0  0  0  0  0  0  0  0  0
  -22.2562   -8.1945   21.4747 C   0  0  0  0  0  0  0  0  0  0  0  0
  -26.9133  -16.8492   25.3891 C   0  0  0  0  0  0  0  0  0  0  0  0
  -22.0809   -6.0875   22.5003 C   0  0  0  0  0  0  0  0  0  0  0  0
  -23.2192   -4.0926   24.0838 C   0  0  0  0  0  0  0  0  0  0  0  0
  -21.4624   -5.7038   23.6902 C   0  0  0  0  0  0  0  0  0  0  0  0
  -24.5553  -11.6683   20.7366 C   0  0  0  0  0  0  0  0  0  0  0  0
  -29.9283  -20.0073   22.2877 C   0  0  0  0  0  0  0  0  0  0  0  0
  -25.2324  -13.7444   20.4790 C   0  0  0  0  0  0  0  0  0  0  0  0
  -22.8250  -13.5326   21.1180 C   0  0  0  0  0  0  0  0  0  0  0  0
  -29.5451  -13.0391   28.3027 C   0  0  0  0  0  0  0  0  0  0  0  0
  -29.6381  -11.3272   25.4542 C   0  0  0  0  0  0  0  0  0  0  0  0
  -30.5969  -14.7582   21.1662 C   0  0  0  0  0  0  0  0  0  0  0  0
  -31.7589   -9.0949   26.9236 C   0  0  0  0  0  0  0  0  0  0  0  0
  -30.0277  -12.2354   33.3206 C   0  0  0  0  0  0  0  0  0  0  0  0
  -27.1422  -13.1319   27.5487 C   0  0  0  0  0  0  0  0  0  0  0  0
  -29.0478  -13.7093   25.3585 C   0  0  0  0  0  0  0  0  0  0  0  0
  -30.5220  -11.5452   32.0518 C   0  0  0  0  0  0  0  0  0  0  0  0
  -29.7053  -12.3356   18.6044 C   0  0  0  0  0  0  0  0  0  0  0  0
  -31.1402  -12.5619   31.0974 C   0  0  0  0  0  0  0  0  0  0  0  0
  -28.2500  -12.0354   18.9609 C   0  0  0  0  0  0  0  0  0  0  0  0
  -30.5493  -12.5828   19.8521 C   0  0  0  0  0  0  0  0  0  0  0  0
  -28.5569  -13.3601   21.0973 C   0  0  0  0  0  0  0  0  0  0  0  0
  -30.1068  -13.6067   30.6592 C   0  0  1  0  0  0  0  0  0  0  0  0
  -28.4876  -12.4182   27.4346 C   0  0  1  0  0  0  0  0  0  0  0  0
  -27.6651  -13.1348   19.8648 C   0  0  2  0  0  0  0  0  0  0  0  0
  -33.9195  -20.3179   23.6080 C   0  0  0  0  0  0  0  0  0  0  0  0
  -33.4897  -14.9693   22.0655 C   0  0  0  0  0  0  0  0  0  0  0  0
  -32.8508   -6.8685   26.5389 C   0  0  0  0  0  0  0  0  0  0  0  0
  -30.0505  -17.3299   18.4126 C   0  0  0  0  0  0  0  0  0  0  0  0
  -26.9963   -9.9297   26.0654 C   0  0  0  0  0  0  0  0  0  0  0  0
  -28.2972   -7.8592   26.6030 C   0  0  0  0  0  0  0  0  0  0  0  0
  -28.3803   -8.8201   24.3025 C   0  0  0  0  0  0  0  0  0  0  0  0
  -34.4714  -10.2693   27.0719 C   0  0  0  0  0  0  0  0  0  0  0  0
  -30.6303  -19.1676   20.0218 C   0  0  0  0  0  0  0  0  0  0  0  0
  -28.4804  -19.9178   21.8764 C   0  0  0  0  0  0  0  0  0  0  0  0
  -33.0580  -14.7115   20.6259 C   0  0  0  0  0  0  0  0  0  0  0  0
  -27.5306  -19.5960   23.0322 C   0  0  0  0  0  0  0  0  0  0  0  0
  -27.7797  -18.2273   23.6552 C   0  0  0  0  0  0  0  0  0  1  0  0
  -29.5741  -10.0103   26.1868 C   0  0  1  0  0  0  0  0  0  0  0  0
  -32.9881   -8.3764   26.3971 C   0  0  2  0  0  0  0  0  0  0  0  0
  -30.4385  -17.6256   19.8647 C   0  0  2  0  0  0  0  0  0  0  0  0
  -31.6898  -15.3175   20.2906 C   0  0  2  0  0  0  0  0  0  0  0  0
  -28.3173   -9.1792   25.8031 C   0  0  0  0  0  0  0  0  0  0  0  0
  -31.6975  -16.8538   20.3268 C   0  0  0  0  0  0  0  0  0  0  0  0
  -30.1544  -20.4495   23.5450 N   0  0  0  0  0  0  0  0  0  0  0  0
  -25.8442  -11.5609   20.4029 N   0  0  0  0  0  0  0  0  0  0  0  0
  -26.2280  -12.8401   20.2528 N   0  0  0  0  0  0  0  0  0  0  0  0
  -29.0051  -12.4198   26.0603 N   0  0  0  0  0  0  0  0  0  0  0  0
  -29.9441  -13.6169   20.6999 N   0  0  0  0  0  0  0  0  0  0  0  0
  -25.4465  -15.0730   20.3718 N   0  0  0  0  0  0  0  0  0  0  0  0
  -21.7941  -12.6334   21.4229 N   0  0  0  0  0  0  0  0  0  0  0  0
  -29.2297  -13.0569   29.6480 N   0  0  0  0  0  0  0  0  0  0  0  0
  -30.8402   -9.3349   25.9238 N   0  0  0  0  0  0  0  0  0  0  0  0
  -34.2018   -8.8102   27.1452 N   0  3  0  0  0  0  0  0  0  0  0  0
  -22.5852  -14.7639   21.1161 O   0  0  0  0  0  0  0  0  0  0  0  0
  -30.5719  -13.4689   27.7903 O   0  0  0  0  0  0  0  0  0  0  0  0
  -30.2260  -11.3863   24.3707 O   0  0  0  0  0  0  0  0  0  0  0  0
  -30.3310  -15.3218   22.2310 O   0  0  0  0  0  0  0  0  0  0  0  0
  -31.6253   -9.4084   28.1045 O   0  0  0  0  0  0  0  0  0  0  0  0
  -21.5167   -7.0770   21.7128 O   0  0  0  0  0  0  0  0  0  0  0  0
  -26.8334  -18.0220   24.7034 O   0  0  0  0  0  0  0  0  0  1  0  0
  -23.7650   -3.1338   24.8433 F   0  0  0  0  0  0  0  0  0  0  0  0
  -20.3207   -6.2890   24.0774 F   0  0  0  0  0  0  0  0  0  0  0  0
  -31.3980  -14.9802   18.9932 F   0  0  0  0  0  0  0  0  0  0  0  0
  -31.9467  -17.2010   21.6267 F   0  0  0  0  0  0  0  0  0  0  0  0
  -32.7752  -17.2955   19.6188 F   0  0  0  0  0  0  0  0  0  0  0  0
  1  2  1  0  0  0  0
  1  5  2  0  0  0  0
  2  6  2  0  0  0  0
  3  8  2  0  0  0  0
  3 17  1  0  0  0  0
  4  9  1  0  0  0  0
  4 17  2  0  0  0  0
  5 19  1  0  0  0  0
  6 21  1  0  0  0  0
  7 10  2  0  0  0  0
  7 20  1  0  0  0  0
  8 25  1  0  0  0  0
  9 25  2  0  0  0  0
 10 26  1  0  0  0  0
 11 12  2  0  0  0  0
 11 27  1  0  0  0  0
 12 28  1  0  0  0  0
 13 22  1  0  0  0  0
 13 26  2  0  0  0  0
 14 23  2  0  0  0  0
 14 24  1  0  0  0  0
 15 28  2  0  0  0  0
 15 29  1  0  0  0  0
 16 23  1  0  0  0  0
 16 69  2  0  0  0  0
 17 30  1  0  0  0  0
 18 30  1  0  0  0  0
 18 32  2  0  0  0  0
 18 33  1  0  0  0  0
 19 21  2  0  0  0  0
 19 38  1  0  0  0  0
 20 22  2  0  0  0  0
 20 39  1  0  0  0  0
 21 47  1  0  0  0  0
 22 40  1  0  0  0  0
 23 50  1  0  0  0  0
 24 31  2  0  0  0  0
 24 58  1  0  0  0  0
 25 84  1  0  0  0  0
 26 85  1  0  0  0  0
 27 29  2  0  0  0  0
 27 84  1  0  0  0  0
 28 86  1  0  0  0  0
 29 87  1  0  0  0  0
 30 70  2  0  0  0  0
 31 59  1  0  0  0  0
 31 69  1  0  0  0  0
 32 71  1  0  0  0  0
 32 74  1  0  0  0  0
 33 75  1  0  0  0  0
 33 79  2  0  0  0  0
 34 48  1  0  0  0  0
 34 76  1  0  0  0  0
 34 80  2  0  0  0  0
 35 63  1  0  0  0  0
 35 72  1  0  0  0  0
 35 81  2  0  0  0  0
 36 66  1  0  0  0  0
 36 73  1  0  0  0  0
 36 82  2  0  0  0  0
 37 64  1  0  0  0  0
 37 77  1  0  0  0  0
 37 83  2  0  0  0  0
 38 41  1  0  0  0  0
 39 48  1  0  0  0  0
 40 72  1  0  0  0  0
 41 43  1  0  0  0  0
 42 44  1  0  0  0  0
 42 45  1  0  0  0  0
 43 47  1  0  0  0  0
 44 49  1  0  0  0  0
 45 73  1  0  0  0  0
 46 49  1  0  0  0  0
 46 73  1  0  0  0  0
 47 76  1  0  0  0  0
 48 72  1  0  0  0  0
 49 71  1  0  0  0  0
 51 60  1  0  0  0  0
 52 64  1  0  0  0  0
 53 65  1  0  0  0  0
 54 67  1  0  0  0  0
 55 67  1  0  0  0  0
 56 67  1  0  0  0  0
 57 78  1  0  0  0  0
 58 65  1  0  0  0  0
 59 61  1  0  0  0  0
 60 66  1  0  0  0  0
 61 62  1  0  0  0  0
 62 85  1  0  0  0  0
 63 67  1  0  0  0  0
 63 77  1  0  0  0  0
 64 78  1  0  0  0  0
 65 68  1  0  0  0  0
 66 68  1  0  0  0  0
 66 88  1  0  0  0  0
 68 89  1  0  0  0  0
 68 90  1  0  0  0  0
 70 71  1  0  0  0  0
M  CHG  1  78   1
M  ISO  4  36 100  62 101  66 100  85 101
M  END
> <Batch ID>
0050

> <Smiles>
CC[100C:0](F)([100C:0](=O)N1CCCC(n2nc(-c3ccc(Oc4ccc(F)cc4F)cc3)c(C(N)=O)c2N)C1)C(F)(F)C(C)Cc1cc(C)cnc1CC[101CH2:1][101O:1]c1ccc2c(c1)CN(C(=O)C(NC(=O)C(C)NC)C(C)(C)C)C(C(=O)NC1CCCc3ccccc31)C2

> <Shape>
0.183

> <Color>
0.176

> <Negative vol penalty>
0.000

$$$$

  -OEChem-04052317313D

 82 90  0     1  0  0  0  0  0999 V2000
  -28.0214  -10.6560   19.6562 C   0  0  0  0  0  0  0  0  0  0  0  0
  -28.1557  -11.7553   18.8143 C   0  0  0  0  0  0  0  0  0  0  0  0
  -23.0331  -29.1585   19.3568 C   0  0  0  0  0  0  0  0  0  0  0  0
  -23.4820  -28.7080   21.6876 C   0  0  0  0  0  0  0  0  0  0  0  0
  -26.9491  -10.5867   20.5447 C   0  0  0  0  0  0  0  0  0  0  0  0
  -27.2171  -12.7856   18.8596 C   0  0  0  0  0  0  0  0  0  0  0  0
  -29.3972  -17.4481   18.8599 C   0  0  0  0  0  0  0  0  0  0  0  0
  -21.6880  -29.3729   19.6572 C   0  0  0  0  0  0  0  0  0  0  0  0
  -22.1368  -28.9223   21.9880 C   0  0  0  0  0  0  0  0  0  0  0  0
  -29.8685  -17.9591   17.6514 C   0  0  0  0  0  0  0  0  0  0  0  0
  -19.2289  -27.2135   21.7542 C   0  0  0  0  0  0  0  0  0  0  0  0
  -18.6012  -26.3018   22.6029 C   0  0  0  0  0  0  0  0  0  0  0  0
  -27.8403  -19.2422   17.4099 C   0  0  0  0  0  0  0  0  0  0  0  0
  -18.1245  -28.0830   24.1640 C   0  0  0  0  0  0  0  0  0  0  0  0
  -31.4816  -21.9353   17.7800 C   0  0  0  0  0  0  0  0  0  0  0  0
  -23.9301  -28.8260   20.3719 C   0  0  0  0  0  0  0  0  0  0  0  0
  -26.3513  -29.5617   20.0488 C   0  0  0  0  0  0  0  0  0  0  0  0
  -26.0022  -11.6211   20.6077 C   0  0  0  0  0  0  0  0  0  0  0  0
  -28.1372  -17.8227   19.3487 C   0  0  0  0  0  0  0  0  0  0  0  0
  -26.1304  -12.7294   19.7488 C   0  0  0  0  0  0  0  0  0  0  0  0
  -27.3575  -18.7382   18.6271 C   0  0  0  0  0  0  0  0  0  0  0  0
  -31.4967  -22.3289   16.4642 C   0  0  0  0  0  0  0  0  0  0  0  0
  -21.2398  -29.2548   20.9728 C   0  0  0  0  0  0  0  0  0  0  0  0
  -29.0891  -18.8545   16.9251 C   0  0  0  0  0  0  0  0  0  0  0  0
  -19.3045  -28.5600   22.1104 C   0  0  0  0  0  0  0  0  0  0  0  0
  -18.0489  -26.7365   23.8077 C   0  0  0  0  0  0  0  0  0  0  0  0
  -18.7523  -28.9948   23.3153 C   0  0  0  0  0  0  0  0  0  0  0  0
  -25.3196  -28.6039   20.0621 C   0  0  0  0  0  0  0  0  0  0  0  0
  -31.4691  -23.7354   16.5173 C   0  0  0  0  0  0  0  0  0  0  0  0
  -27.4736  -28.8527   19.6965 C   0  0  0  0  0  0  0  0  0  0  0  0
  -26.2997  -30.9667   20.3299 C   0  0  0  0  0  0  0  0  0  0  0  0
  -25.3995  -16.3359   20.0836 C   0  0  0  0  0  0  0  0  0  0  0  0
  -24.6267  -19.3940   21.1344 C   0  0  0  0  0  0  0  0  0  0  0  0
  -30.6788  -24.4300   20.3633 C   0  0  0  0  0  0  0  0  0  0  0  0
  -21.9144  -18.0992   22.7489 C   0  0  0  0  0  0  0  0  0  0  0  0
  -24.8340  -11.4795   21.5510 C   0  0  0  0  0  0  0  0  0  0  0  0
  -27.6601  -17.2831   20.6699 C   0  0  0  0  0  0  0  0  0  0  0  0
  -26.0008  -19.1744   19.1106 C   0  0  0  0  0  0  0  0  0  0  0  0
  -24.0902  -12.7890   21.8003 C   0  0  0  0  0  0  0  0  0  0  0  0
  -27.9894  -24.1491   17.9313 C   0  0  0  0  0  0  0  0  0  0  0  0
  -23.8306  -13.5145   20.4838 C   0  0  0  0  0  0  0  0  0  0  0  0
  -27.1223  -25.3540   18.2938 C   0  0  0  0  0  0  0  0  0  0  0  0
  -28.6262  -23.5230   19.1692 C   0  0  0  0  0  0  0  0  0  0  0  0
  -28.5512  -25.6929   20.3569 C   0  0  0  0  0  0  0  0  0  0  0  0
  -25.1465  -13.8786   19.7858 C   0  0  1  0  0  0  0  0  0  0  0  0
  -26.1479  -17.3825   20.8594 C   0  0  1  0  0  0  0  0  0  0  0  0
  -27.9149  -26.3718   19.1326 C   0  0  2  0  0  0  0  0  0  0  0  0
  -31.4705  -24.6820   15.3881 C   0  0  0  0  0  0  0  0  0  0  0  0
  -20.1080  -18.7217   24.3758 C   0  0  0  0  0  0  0  0  0  0  0  0
  -32.8578  -23.2650   20.4954 C   0  0  0  0  0  0  0  0  0  0  0  0
  -30.7031  -22.0183   20.6624 C   0  0  0  0  0  0  0  0  0  0  0  0
  -26.6409  -19.2501   23.4208 C   0  0  0  0  0  0  0  0  0  0  0  0
  -24.7228  -18.9220   24.9961 C   0  0  0  0  0  0  0  0  0  0  0  0
  -24.9015  -21.0291   23.6730 C   0  0  0  0  0  0  0  0  0  0  0  0
  -19.7817  -17.5240   20.7793 C   0  0  0  0  0  0  0  0  0  0  0  0
  -31.5341  -21.4425   15.2450 C   0  0  0  0  0  0  0  0  0  0  0  0
  -30.1868  -21.3221   14.5295 C   0  0  0  0  0  0  0  0  0  0  0  0
  -29.1078  -20.6631   15.3809 C   0  0  0  0  0  0  0  0  0  1  0  0
  -24.2555  -18.8825   22.5038 C   0  0  1  0  0  0  0  0  0  0  0  0
  -20.4960  -18.6158   22.9092 C   0  0  2  0  0  0  0  0  0  0  0  0
  -31.4199  -23.1827   19.9524 C   0  0  0  0  0  0  0  0  0  0  0  0
  -25.1341  -19.5032   23.6265 C   0  0  0  0  0  0  0  0  0  0  0  0
  -25.7485  -27.3798   19.7434 N   0  0  0  0  0  0  0  0  0  0  0  0
  -31.4386  -24.2037   17.7678 N   0  0  0  0  0  0  0  0  0  0  0  0
  -31.4469  -23.0852   18.5126 N   0  0  0  0  0  0  0  0  0  0  0  0
  -27.0619  -27.5636   19.5264 N   0  0  0  0  0  0  0  0  0  0  0  0
  -25.6181  -18.6869   20.4421 N   0  0  0  0  0  0  0  0  0  0  0  0
  -29.3485  -24.5303   19.9555 N   0  0  0  0  0  0  0  0  0  0  0  0
  -28.7625  -29.2124   19.5185 N   0  0  0  0  0  0  0  0  0  0  0  0
  -25.0658  -31.5339   20.6764 N   0  0  0  0  0  0  0  0  0  0  0  0
  -25.7457  -15.0386   20.4102 N   0  0  0  0  0  0  0  0  0  0  0  0
  -22.8260  -19.1298   22.6583 N   0  0  0  0  0  0  0  0  0  0  0  0
  -19.5324  -17.7019   22.2330 N   0  3  0  0  0  0  0  0  0  0  0  0
  -27.3146  -31.7006   20.2594 O   0  0  0  0  0  0  0  0  0  0  0  0
  -24.5684  -16.6798   19.2513 O   0  0  0  0  0  0  0  0  0  0  0  0
  -24.0603  -20.3971   20.6915 O   0  0  0  0  0  0  0  0  0  0  0  0
  -31.2672  -25.2895   21.0246 O   0  0  0  0  0  0  0  0  0  0  0  0
  -22.1869  -16.9014   22.7119 O   0  0  0  0  0  0  0  0  0  0  0  0
  -19.9274  -29.4641   21.2664 O   0  0  0  0  0  0  0  0  0  0  0  0
  -29.5470  -19.3552   15.7454 O   0  0  0  0  0  0  0  0  0  1  0  0
  -17.4448  -25.8611   24.6219 F   0  0  0  0  0  0  0  0  0  0  0  0
  -18.8208  -30.2873   23.6624 F   0  0  0  0  0  0  0  0  0  0  0  0
  1  2  1  0  0  0  0
  1  5  2  0  0  0  0
  2  6  2  0  0  0  0
  3  8  2  0  0  0  0
  3 16  1  0  0  0  0
  4  9  1  0  0  0  0
  4 16  2  0  0  0  0
  5 18  1  0  0  0  0
  6 20  1  0  0  0  0
  7 10  2  0  0  0  0
  7 19  1  0  0  0  0
  8 23  1  0  0  0  0
  9 23  2  0  0  0  0
 10 24  1  0  0  0  0
 11 12  2  0  0  0  0
 11 25  1  0  0  0  0
 12 26  1  0  0  0  0
 13 21  1  0  0  0  0
 13 24  2  0  0  0  0
 14 26  2  0  0  0  0
 14 27  1  0  0  0  0
 15 22  2  0  0  0  0
 15 65  1  0  0  0  0
 16 28  1  0  0  0  0
 17 28  1  0  0  0  0
 17 30  2  0  0  0  0
 17 31  1  0  0  0  0
 18 20  2  0  0  0  0
 18 36  1  0  0  0  0
 19 21  2  0  0  0  0
 19 37  1  0  0  0  0
 20 45  1  0  0  0  0
 21 38  1  0  0  0  0
 22 29  1  0  0  0  0
 22 56  1  0  0  0  0
 23 79  1  0  0  0  0
 24 80  1  0  0  0  0
 25 27  2  0  0  0  0
 25 79  1  0  0  0  0
 26 81  1  0  0  0  0
 27 82  1  0  0  0  0
 28 63  2  0  0  0  0
 29 48  1  0  0  0  0
 29 64  2  0  0  0  0
 30 66  1  0  0  0  0
 30 69  1  0  0  0  0
 31 70  1  0  0  0  0
 31 74  2  0  0  0  0
 32 46  1  0  0  0  0
 32 71  1  0  0  0  0
 32 75  2  0  0  0  0
 33 59  1  0  0  0  0
 33 67  1  0  0  0  0
 33 76  2  0  0  0  0
 34 61  1  0  0  0  0
 34 68  1  0  0  0  0
 34 77  2  0  0  0  0
 35 60  1  0  0  0  0
 35 72  1  0  0  0  0
 35 78  2  0  0  0  0
 36 39  1  0  0  0  0
 37 46  1  0  0  0  0
 38 67  1  0  0  0  0
 39 41  1  0  0  0  0
 40 42  1  0  0  0  0
 40 43  1  0  0  0  0
 41 45  1  0  0  0  0
 42 47  1  0  0  0  0
 43 68  1  0  0  0  0
 44 47  1  0  0  0  0
 44 68  1  0  0  0  0
 45 71  1  0  0  0  0
 46 67  1  0  0  0  0
 47 66  1  0  0  0  0
 49 60  1  0  0  0  0
 50 61  1  0  0  0  0
 51 61  1  0  0  0  0
 52 62  1  0  0  0  0
 53 62  1  0  0  0  0
 54 62  1  0  0  0  0
 55 73  1  0  0  0  0
 56 57  1  0  0  0  0
 57 58  1  0  0  0  0
 58 80  1  0  0  0  0
 59 62  1  0  0  0  0
 59 72  1  0  0  0  0
 60 73  1  0  0  0  0
 61 65  1  0  0  0  0
 63 66  1  0  0  0  0
 64 65  1  0  0  0  0
M  CHG  1  73   1
M  ISO  4  34 100  58 101  61 100  80 101
M  END
> <Batch ID>
0050

> <Smiles>
CNC(C)C(=O)NC(C(=O)N1Cc2cc([101O:1][101CH2:1]CCc3cn([100C:0](C)(C)[100C:0](=O)N4CCCC(n5nc(-c6ccc(Oc7ccc(F)cc7F)cc6)c(C(N)=O)c5N)C4)nc3C)ccc2CC1C(=O)NC1CCCc2ccccc21)C(C)(C)C

> <Shape>
0.231

> <Color>
0.063

> <Negative vol penalty>
0.000

$$$$

  -OEChem-04052317313D

 84 92  0     1  0  0  0  0  0999 V2000
  -23.9785  -28.9284   23.0767 C   0  0  0  0  0  0  0  0  0  0  0  0
  -23.9188  -27.5386   23.0656 C   0  0  0  0  0  0  0  0  0  0  0  0
  -19.2223  -24.8892   21.0171 C   0  0  0  0  0  0  0  0  0  0  0  0
  -20.8687  -24.1745   22.6343 C   0  0  0  0  0  0  0  0  0  0  0  0
  -24.6823  -29.6028   22.0798 C   0  0  0  0  0  0  0  0  0  0  0  0
  -24.5621  -26.8222   22.0570 C   0  0  0  0  0  0  0  0  0  0  0  0
  -27.2881  -21.3634   22.5829 C   0  0  0  0  0  0  0  0  0  0  0  0
  -19.2862  -26.1866   21.5253 C   0  0  0  0  0  0  0  0  0  0  0  0
  -20.9327  -25.4719   23.1426 C   0  0  0  0  0  0  0  0  0  0  0  0
  -26.8638  -20.0702   22.2810 C   0  0  0  0  0  0  0  0  0  0  0  0
  -18.0678  -27.8831   24.1827 C   0  0  0  0  0  0  0  0  0  0  0  0
  -16.8639  -28.5532   24.4003 C   0  0  0  0  0  0  0  0  0  0  0  0
  -27.9697  -20.2131   20.1419 C   0  0  0  0  0  0  0  0  0  0  0  0
  -17.5442  -30.2783   22.8517 C   0  0  0  0  0  0  0  0  0  0  0  0
  -26.7017  -15.3025   20.9469 C   0  0  0  0  0  0  0  0  0  0  0  0
  -20.0135  -23.8831   21.5716 C   0  0  0  0  0  0  0  0  0  0  0  0
  -20.7279  -21.9956   20.0114 C   0  0  0  0  0  0  0  0  0  0  0  0
  -25.3427  -28.8940   21.0639 C   0  0  0  0  0  0  0  0  0  0  0  0
  -28.0485  -22.0966   21.6605 C   0  0  0  0  0  0  0  0  0  0  0  0
  -25.2744  -27.4878   21.0448 C   0  0  0  0  0  0  0  0  0  0  0  0
  -28.4046  -21.5146   20.4356 C   0  0  0  0  0  0  0  0  0  0  0  0
  -20.1414  -26.4779   22.5880 C   0  0  0  0  0  0  0  0  0  0  0  0
  -27.2022  -19.4959   21.0592 C   0  0  0  0  0  0  0  0  0  0  0  0
  -19.0099  -28.4107   23.2997 C   0  0  0  0  0  0  0  0  0  0  0  0
  -16.6021  -29.7508   23.7348 C   0  0  0  0  0  0  0  0  0  0  0  0
  -18.7481  -29.6083   22.6342 C   0  0  0  0  0  0  0  0  0  0  0  0
  -19.9474  -22.5426   21.0474 C   0  0  0  0  0  0  0  0  0  0  0  0
  -26.3070  -14.0591   20.4968 C   0  0  0  0  0  0  0  0  0  0  0  0
  -25.6804  -16.1799   21.2489 C   0  0  0  0  0  0  0  0  0  0  0  0
  -20.2833  -20.7014   19.8933 C   0  0  0  0  0  0  0  0  0  0  0  0
  -24.1152  -14.6341   20.6765 C   0  0  0  0  0  0  0  0  0  0  0  0
  -21.7623  -22.6029   19.2261 C   0  0  0  0  0  0  0  0  0  0  0  0
  -27.6313  -24.8153   20.0673 C   0  0  0  0  0  0  0  0  0  0  0  0
  -18.7692  -15.8848   22.3012 C   0  0  0  0  0  0  0  0  0  0  0  0
  -30.6966  -24.2910   19.1446 C   0  0  0  0  0  0  0  0  0  0  0  0
  -33.2269  -22.0587   18.6334 C   0  0  0  0  0  0  0  0  0  0  0  0
  -26.0514  -29.6685   19.9811 C   0  0  0  0  0  0  0  0  0  0  0  0
  -28.5210  -23.4806   22.0123 C   0  0  0  0  0  0  0  0  0  0  0  0
  -29.2363  -22.2520   19.4192 C   0  0  0  0  0  0  0  0  0  0  0  0
  -27.0191  -28.8206   19.1596 C   0  0  0  0  0  0  0  0  0  0  0  0
  -16.2522  -18.4011   21.8850 C   0  0  0  0  0  0  0  0  0  0  0  0
  -26.3624  -27.5059   18.7510 C   0  0  0  0  0  0  0  0  0  0  0  0
  -17.0548  -19.6639   21.5748 C   0  0  0  0  0  0  0  0  0  0  0  0
  -16.9872  -17.5009   22.8732 C   0  0  0  0  0  0  0  0  0  0  0  0
  -19.1742  -18.3907   22.1337 C   0  0  0  0  0  0  0  0  0  0  0  0
  -25.9800  -26.6745   19.9814 C   0  0  1  0  0  0  0  0  0  0  0  0
  -28.8560  -24.3268   20.7879 C   0  0  1  0  0  0  0  0  0  0  0  0
  -18.4812  -19.3134   21.1154 C   0  0  2  0  0  0  0  0  0  0  0  0
  -27.3407  -13.0420   20.1457 C   0  0  0  0  0  0  0  0  0  0  0  0
  -35.6033  -21.9227   17.8388 C   0  0  0  0  0  0  0  0  0  0  0  0
  -20.0303  -13.5492   20.4452 C   0  0  0  0  0  0  0  0  0  0  0  0
  -29.7462  -24.5820   16.2599 C   0  0  0  0  0  0  0  0  0  0  0  0
  -31.8885  -23.5182   15.5202 C   0  0  0  0  0  0  0  0  0  0  0  0
  -31.9352  -25.6861   16.7534 C   0  0  0  0  0  0  0  0  0  0  0  0
  -34.1620  -21.0214   21.2427 C   0  0  0  0  0  0  0  0  0  0  0  0
  -22.3628  -12.6452   22.3970 C   0  0  0  0  0  0  0  0  0  0  0  0
  -26.0114  -17.5558   21.7477 C   0  0  0  0  0  0  0  0  0  1  0  0
  -22.6785  -14.2623   20.5300 C   0  0  0  0  0  0  0  0  0  0  0  0
  -20.1797  -15.6640   21.8157 C   0  0  0  0  0  0  0  0  0  0  0  0
  -31.3589  -23.5632   17.9998 C   0  0  1  0  0  0  0  0  0  0  0  0
  -34.6884  -22.0814   19.0432 C   0  0  2  0  0  0  0  0  0  0  0  0
  -20.5081  -14.1751   21.7476 C   0  0  2  0  0  0  0  0  0  0  0  0
  -31.2149  -24.3239   16.6514 C   0  0  0  0  0  0  0  0  0  0  0  0
  -19.0732  -21.6676   21.5515 N   0  0  0  0  0  0  0  0  0  0  0  0
  -25.0178  -13.6899   20.3491 N   0  0  0  0  0  0  0  0  0  0  0  0
  -24.3713  -15.8779   21.1248 N   0  0  0  0  0  0  0  0  0  0  0  0
  -19.3016  -20.5576   20.8291 N   0  0  0  0  0  0  0  0  0  0  0  0
  -29.6689  -23.6048   19.8070 N   0  0  0  0  0  0  0  0  0  0  0  0
  -18.3456  -17.2094   22.4116 N   0  0  0  0  0  0  0  0  0  0  0  0
  -20.6402  -19.6838   19.0812 N   0  0  0  0  0  0  0  0  0  0  0  0
  -22.0943  -23.9410   19.4784 N   0  0  0  0  0  0  0  0  0  0  0  0
  -27.1481  -26.0228   20.5340 N   0  0  0  0  0  0  0  0  0  0  0  0
  -32.7394  -23.3289   18.4091 N   0  0  0  0  0  0  0  0  0  0  0  0
  -34.9753  -20.9758   20.0003 N   0  3  0  0  0  0  0  0  0  0  0  0
  -22.0020  -13.9937   21.8290 N   0  3  1  0  0  0  0  0  0  0  0  0
  -22.3628  -21.9825   18.3161 O   0  0  0  0  0  0  0  0  0  0  0  0
  -27.1606  -24.1469   19.1544 O   0  0  0  0  0  0  0  0  0  0  0  0
  -18.0654  -14.9080   22.5709 O   0  0  0  0  0  0  0  0  0  0  0  0
  -31.0819  -25.4237   19.4449 O   0  0  0  0  0  0  0  0  0  0  0  0
  -32.5831  -21.0179   18.5197 O   0  0  0  0  0  0  0  0  0  0  0  0
  -20.2043  -27.7439   23.0841 O   0  0  0  0  0  0  0  0  0  0  0  0
  -26.7888  -18.2339   20.7617 O   0  0  0  0  0  0  0  0  0  1  0  0
  -15.4454  -30.3933   23.9427 F   0  0  0  0  0  0  0  0  0  0  0  0
  -19.6488  -30.1194   21.7838 F   0  0  0  0  0  0  0  0  0  0  0  0
  1  2  1  0  0  0  0
  1  5  2  0  0  0  0
  2  6  2  0  0  0  0
  3  8  2  0  0  0  0
  3 16  1  0  0  0  0
  4  9  1  0  0  0  0
  4 16  2  0  0  0  0
  5 18  1  0  0  0  0
  6 20  1  0  0  0  0
  7 10  2  0  0  0  0
  7 19  1  0  0  0  0
  8 22  1  0  0  0  0
  9 22  2  0  0  0  0
 10 23  1  0  0  0  0
 11 12  2  0  0  0  0
 11 24  1  0  0  0  0
 12 25  1  0  0  0  0
 13 21  1  0  0  0  0
 13 23  2  0  0  0  0
 14 25  2  0  0  0  0
 14 26  1  0  0  0  0
 15 28  2  0  0  0  0
 15 29  1  0  0  0  0
 16 27  1  0  0  0  0
 17 27  1  0  0  0  0
 17 30  2  0  0  0  0
 17 32  1  0  0  0  0
 18 20  2  0  0  0  0
 18 37  1  0  0  0  0
 19 21  2  0  0  0  0
 19 38  1  0  0  0  0
 20 46  1  0  0  0  0
 21 39  1  0  0  0  0
 22 81  1  0  0  0  0
 23 82  1  0  0  0  0
 24 26  2  0  0  0  0
 24 81  1  0  0  0  0
 25 83  1  0  0  0  0
 26 84  1  0  0  0  0
 27 64  2  0  0  0  0
 28 49  1  0  0  0  0
 28 65  1  0  0  0  0
 29 57  1  0  0  0  0
 29 66  2  0  0  0  0
 30 67  1  0  0  0  0
 30 70  1  0  0  0  0
 31 58  1  0  0  0  0
 31 65  2  0  0  0  0
 31 66  1  0  0  0  0
 32 71  1  0  0  0  0
 32 76  2  0  0  0  0
 33 47  1  0  0  0  0
 33 72  1  0  0  0  0
 33 77  2  0  0  0  0
 34 59  1  0  0  0  0
 34 69  1  0  0  0  0
 34 78  2  0  0  0  0
 35 60  1  0  0  0  0
 35 68  1  0  0  0  0
 35 79  2  0  0  0  0
 36 61  1  0  0  0  0
 36 73  1  0  0  0  0
 36 80  2  0  0  0  0
 37 40  1  0  0  0  0
 38 47  1  0  0  0  0
 39 68  1  0  0  0  0
 40 42  1  0  0  0  0
 41 43  1  0  0  0  0
 41 44  1  0  0  0  0
 42 46  1  0  0  0  0
 43 48  1  0  0  0  0
 44 69  1  0  0  0  0
 45 48  1  0  0  0  0
 45 69  1  0  0  0  0
 46 72  1  0  0  0  0
 47 68  1  0  0  0  0
 48 67  1  0  0  0  0
 50 61  1  0  0  0  0
 51 62  1  0  0  0  0
 52 63  1  0  0  0  0
 53 63  1  0  0  0  0
 54 63  1  0  0  0  0
 55 74  1  0  0  0  0
 56 75  1  0  0  0  0
 57 82  1  0  0  0  0
 58 75  1  0  0  0  0
 59 62  1  0  0  0  0
 60 63  1  0  0  0  0
 60 73  1  0  0  0  0
 61 74  1  0  0  0  0
 62 75  1  0  0  0  0
 64 67  1  0  0  0  0
M  CHG  2  74   1  75   1
M  ISO  4  34 100  57 101  59 100  82 101
M  END
> <Batch ID>
0050

> <Smiles>
CNC(C)C(=O)NC(C(=O)N1Cc2cc([101O:1][101CH2:1]c3cc(C)nc(CN(C)C(C)[100CH2:0][100C:0](=O)N4CCCC(n5nc(-c6ccc(Oc7ccc(F)cc7F)cc6)c(C(N)=O)c5N)C4)n3)ccc2CC1C(=O)NC1CCCc2ccccc21)C(C)(C)C

> <Shape>
0.207

> <Color>
0.061

> <Negative vol penalty>
0.000

$$$$

  -OEChem-04052317313D

 84 92  0     1  0  0  0  0  0999 V2000
  -28.3788  -31.8391   26.7071 C   0  0  0  0  0  0  0  0  0  0  0  0
  -28.4873  -30.8826   25.7027 C   0  0  0  0  0  0  0  0  0  0  0  0
  -25.6014  -14.2796   23.0345 C   0  0  0  0  0  0  0  0  0  0  0  0
  -26.6197  -15.0497   20.9834 C   0  0  0  0  0  0  0  0  0  0  0  0
  -27.1517  -32.0554   27.3325 C   0  0  0  0  0  0  0  0  0  0  0  0
  -27.3688  -30.1411   25.3239 C   0  0  0  0  0  0  0  0  0  0  0  0
  -26.8968  -29.7686   20.2956 C   0  0  0  0  0  0  0  0  0  0  0  0
  -25.4727  -13.0016   22.4907 C   0  0  0  0  0  0  0  0  0  0  0  0
  -26.4911  -13.7717   20.4397 C   0  0  0  0  0  0  0  0  0  0  0  0
  -27.7180  -28.8485   19.6454 C   0  0  0  0  0  0  0  0  0  0  0  0
  -24.5487   -9.6235   21.5117 C   0  0  0  0  0  0  0  0  0  0  0  0
  -23.3341   -8.9610   21.6887 C   0  0  0  0  0  0  0  0  0  0  0  0
  -29.3626  -24.3567   21.0706 C   0  0  0  0  0  0  0  0  0  0  0  0
  -25.8860  -27.2812   19.5624 C   0  0  0  0  0  0  0  0  0  0  0  0
  -22.1931  -10.7403   20.5185 C   0  0  0  0  0  0  0  0  0  0  0  0
  -28.6972  -23.2052   21.4136 C   0  0  0  0  0  0  0  0  0  0  0  0
  -26.1748  -15.3037   22.2808 C   0  0  0  0  0  0  0  0  0  0  0  0
  -27.3980  -17.1315   23.5734 C   0  0  0  0  0  0  0  0  0  0  0  0
  -26.0153  -31.3229   26.9545 C   0  0  0  0  0  0  0  0  0  0  0  0
  -25.5649  -29.4473   20.5943 C   0  0  0  0  0  0  0  0  0  0  0  0
  -26.1255  -30.3469   25.9458 C   0  0  0  0  0  0  0  0  0  0  0  0
  -25.0493  -28.2000   20.2142 C   0  0  0  0  0  0  0  0  0  0  0  0
  -25.9175  -12.7476   21.1933 C   0  0  0  0  0  0  0  0  0  0  0  0
  -27.2135  -27.6035   19.2813 C   0  0  0  0  0  0  0  0  0  0  0  0
  -24.5856  -10.8444   20.8381 C   0  0  0  0  0  0  0  0  0  0  0  0
  -22.1563   -9.5194   21.1921 C   0  0  0  0  0  0  0  0  0  0  0  0
  -23.4078  -11.4028   20.3415 C   0  0  0  0  0  0  0  0  0  0  0  0
  -26.3075  -16.6243   22.8417 C   0  0  0  0  0  0  0  0  0  0  0  0
  -29.4245  -24.3219   19.6646 C   0  0  0  0  0  0  0  0  0  0  0  0
  -27.0372  -18.4213   23.8776 C   0  0  0  0  0  0  0  0  0  0  0  0
  -28.6273  -16.4937   23.9447 C   0  0  0  0  0  0  0  0  0  0  0  0
  -23.8741  -29.1538   23.2699 C   0  0  0  0  0  0  0  0  0  0  0  0
  -21.4008  -28.7796   21.2047 C   0  0  0  0  0  0  0  0  0  0  0  0
  -20.3419  -27.9032   18.0810 C   0  0  0  0  0  0  0  0  0  0  0  0
  -22.9442  -21.9976   21.0500 C   0  0  0  0  0  0  0  0  0  0  0  0
  -24.7211  -31.5588   27.6921 C   0  0  0  0  0  0  0  0  0  0  0  0
  -24.6844  -30.4610   21.2723 C   0  0  0  0  0  0  0  0  0  0  0  0
  -23.6206  -27.8139   20.4938 C   0  0  0  0  0  0  0  0  0  0  0  0
  -23.4987  -30.9938   26.9733 C   0  0  0  0  0  0  0  0  0  0  0  0
  -23.2027  -21.1669   24.6478 C   0  0  0  0  0  0  0  0  0  0  0  0
  -23.7711  -29.5714   26.4944 C   0  0  0  0  0  0  0  0  0  0  0  0
  -24.0653  -19.9060   24.6374 C   0  0  0  0  0  0  0  0  0  0  0  0
  -22.4003  -21.3159   23.3588 C   0  0  0  0  0  0  0  0  0  0  0  0
  -24.0928  -20.0122   22.1138 C   0  0  0  0  0  0  0  0  0  0  0  0
  -24.9293  -29.5398   25.4899 C   0  0  1  0  0  0  0  0  0  0  0  0
  -23.4908  -29.8336   21.9859 C   0  0  1  0  0  0  0  0  0  0  0  0
  -24.9495  -19.8566   23.3793 C   0  0  2  0  0  0  0  0  0  0  0  0
  -18.2588  -27.6620   16.7026 C   0  0  0  0  0  0  0  0  0  0  0  0
  -29.9483  -25.0034   17.2273 C   0  0  0  0  0  0  0  0  0  0  0  0
  -31.5721  -25.4746   19.0491 C   0  0  0  0  0  0  0  0  0  0  0  0
  -20.7391  -26.1826   22.6633 C   0  0  0  0  0  0  0  0  0  0  0  0
  -19.3087  -25.5336   20.7137 C   0  0  0  0  0  0  0  0  0  0  0  0
  -18.7507  -27.5678   22.0453 C   0  0  0  0  0  0  0  0  0  0  0  0
  -23.7385  -23.2339   19.0700 C   0  0  0  0  0  0  0  0  0  0  0  0
  -21.2593  -29.9303   16.1295 C   0  0  0  0  0  0  0  0  0  0  0  0
  -26.2423  -21.4685   19.6924 C   0  0  0  0  0  0  0  0  0  0  0  0
  -27.7179  -21.3190   20.0864 C   0  0  0  0  0  0  0  0  0  0  0  0
  -25.4177  -22.3379   20.6393 C   0  0  0  0  0  0  0  0  0  0  0  0
  -29.4084  -26.7529   18.9422 C   0  0  0  0  0  0  0  0  0  1  0  0
  -20.7578  -27.6046   20.5084 C   0  0  1  0  0  0  0  0  0  0  0  0
  -19.3962  -28.5860   17.1095 C   0  0  2  0  0  0  0  0  0  0  0  0
  -30.0638  -25.3641   18.7279 C   0  0  0  0  0  0  0  0  0  0  0  0
  -19.9166  -26.7284   21.4790 C   0  0  0  0  0  0  0  0  0  0  0  0
  -25.3273  -17.5189   22.6904 N   0  0  0  0  0  0  0  0  0  0  0  0
  -28.8449  -23.2342   19.1498 N   0  0  0  0  0  0  0  0  0  0  0  0
  -28.4125  -22.5749   20.2381 N   0  0  0  0  0  0  0  0  0  0  0  0
  -25.8006  -18.6012   23.3313 N   0  0  0  0  0  0  0  0  0  0  0  0
  -22.8011  -28.8368   21.1644 N   0  0  0  0  0  0  0  0  0  0  0  0
  -23.2591  -21.2219   22.1778 N   0  0  0  0  0  0  0  0  0  0  0  0
  -27.6603  -19.4078   24.5565 N   0  0  0  0  0  0  0  0  0  0  0  0
  -28.8363  -15.1651   23.5505 N   0  0  0  0  0  0  0  0  0  0  0  0
  -24.4821  -29.9880   24.1885 N   0  0  0  0  0  0  0  0  0  0  0  0
  -19.9984  -28.1572   19.3920 N   0  0  0  0  0  0  0  0  0  0  0  0
  -24.0132  -22.4179   20.2441 N   0  0  0  0  0  0  0  0  0  0  0  0
  -20.1279  -29.0006   15.8792 N   0  3  0  0  0  0  0  0  0  0  0  0
  -29.5070  -17.0792   24.6206 O   0  0  0  0  0  0  0  0  0  0  0  0
  -23.6345  -27.9610   23.4169 O   0  0  0  0  0  0  0  0  0  0  0  0
  -20.6866  -29.6197   21.7576 O   0  0  0  0  0  0  0  0  0  0  0  0
  -21.2883  -27.2104   17.7136 O   0  0  0  0  0  0  0  0  0  0  0  0
  -21.7752  -22.3055   20.7841 O   0  0  0  0  0  0  0  0  0  0  0  0
  -25.7924  -11.5005   20.6625 O   0  0  0  0  0  0  0  0  0  0  0  0
  -28.0131  -26.7033   18.6472 O   0  0  0  0  0  0  0  0  0  1  0  0
  -20.9901   -8.8823   21.3608 F   0  0  0  0  0  0  0  0  0  0  0  0
  -23.4370  -12.5749   19.6926 F   0  0  0  0  0  0  0  0  0  0  0  0
  1  2  1  0  0  0  0
  1  5  2  0  0  0  0
  2  6  2  0  0  0  0
  3  8  2  0  0  0  0
  3 17  1  0  0  0  0
  4  9  1  0  0  0  0
  4 17  2  0  0  0  0
  5 19  1  0  0  0  0
  6 21  1  0  0  0  0
  7 10  2  0  0  0  0
  7 20  1  0  0  0  0
  8 23  1  0  0  0  0
  9 23  2  0  0  0  0
 10 24  1  0  0  0  0
 11 12  2  0  0  0  0
 11 25  1  0  0  0  0
 12 26  1  0  0  0  0
 13 16  2  0  0  0  0
 13 29  1  0  0  0  0
 14 22  1  0  0  0  0
 14 24  2  0  0  0  0
 15 26  2  0  0  0  0
 15 27  1  0  0  0  0
 16 66  1  0  0  0  0
 17 28  1  0  0  0  0
 18 28  1  0  0  0  0
 18 30  2  0  0  0  0
 18 31  1  0  0  0  0
 19 21  2  0  0  0  0
 19 36  1  0  0  0  0
 20 22  2  0  0  0  0
 20 37  1  0  0  0  0
 21 45  1  0  0  0  0
 22 38  1  0  0  0  0
 23 81  1  0  0  0  0
 24 82  1  0  0  0  0
 25 27  2  0  0  0  0
 25 81  1  0  0  0  0
 26 83  1  0  0  0  0
 27 84  1  0  0  0  0
 28 64  2  0  0  0  0
 29 62  1  0  0  0  0
 29 65  2  0  0  0  0
 30 67  1  0  0  0  0
 30 70  1  0  0  0  0
 31 71  1  0  0  0  0
 31 76  2  0  0  0  0
 32 46  1  0  0  0  0
 32 72  1  0  0  0  0
 32 77  2  0  0  0  0
 33 60  1  0  0  0  0
 33 68  1  0  0  0  0
 33 78  2  0  0  0  0
 34 61  1  0  0  0  0
 34 73  1  0  0  0  0
 34 79  2  0  0  0  0
 35 69  1  0  0  0  0
 35 74  1  0  0  0  0
 35 80  2  0  0  0  0
 36 39  1  0  0  0  0
 37 46  1  0  0  0  0
 38 68  1  0  0  0  0
 39 41  1  0  0  0  0
 40 42  1  0  0  0  0
 40 43  1  0  0  0  0
 41 45  1  0  0  0  0
 42 47  1  0  0  0  0
 43 69  1  0  0  0  0
 44 47  1  0  0  0  0
 44 69  1  0  0  0  0
 45 72  1  0  0  0  0
 46 68  1  0  0  0  0
 47 67  1  0  0  0  0
 48 61  1  0  0  0  0
 49 62  1  0  0  0  0
 50 62  1  0  0  0  0
 51 63  1  0  0  0  0
 52 63  1  0  0  0  0
 53 63  1  0  0  0  0
 54 74  1  0  0  0  0
 55 75  1  0  0  0  0
 56 57  1  0  0  0  0
 56 58  1  0  0  0  0
 57 66  1  0  0  0  0
 58 74  1  0  0  0  0
 59 62  1  0  0  0  0
 59 82  1  0  0  0  0
 60 63  1  0  0  0  0
 60 73  1  0  0  0  0
 61 75  1  0  0  0  0
 64 67  1  0  0  0  0
 65 66  1  0  0  0  0
M  CHG  1  75   1
M  ISO  4  35 100  59 101  74 100  82 101
M  END
> <Batch ID>
0050

> <Smiles>
CNC(C)C(=O)NC(C(=O)N1Cc2cc([101O:1][101CH2:1]C(C)(C)c3ccn(CCC[100N:0](C)[100C:0](=O)N4CCCC(n5nc(-c6ccc(Oc7ccc(F)cc7F)cc6)c(C(N)=O)c5N)C4)n3)ccc2CC1C(=O)NC1CCCc2ccccc21)C(C)(C)C

> <Shape>
0.251

> <Color>
0.075

> <Negative vol penalty>
0.000

$$$$

  -OEChem-04052317313D

 87 95  0     1  0  0  0  0  0999 V2000
  -21.2563  -33.9497   25.3221 C   0  0  0  0  0  0  0  0  0  0  0  0
  -22.4510  -33.3449   24.9449 C   0  0  0  0  0  0  0  0  0  0  0  0
  -24.4722  -13.6528   20.3344 C   0  0  0  0  0  0  0  0  0  0  0  0
  -26.8016  -13.3505   20.8994 C   0  0  0  0  0  0  0  0  0  0  0  0
  -20.0587  -33.2416   25.2312 C   0  0  0  0  0  0  0  0  0  0  0  0
  -22.4489  -32.0311   24.4775 C   0  0  0  0  0  0  0  0  0  0  0  0
  -26.0929  -29.6503   20.1695 C   0  0  0  0  0  0  0  0  0  0  0  0
  -31.8021  -25.2019   17.1542 C   0  0  0  0  0  0  0  0  0  0  0  0
  -24.3340  -12.2750   20.1665 C   0  0  0  0  0  0  0  0  0  0  0  0
  -26.6635  -11.9727   20.7316 C   0  0  0  0  0  0  0  0  0  0  0  0
  -27.2613  -28.8932   20.2428 C   0  0  0  0  0  0  0  0  0  0  0  0
  -23.9677   -9.5502   22.1347 C   0  0  0  0  0  0  0  0  0  0  0  0
  -22.8477   -8.9377   22.6969 C   0  0  0  0  0  0  0  0  0  0  0  0
  -31.6850  -26.0329   18.2628 C   0  0  0  0  0  0  0  0  0  0  0  0
  -25.9617  -26.8753   20.0012 C   0  0  0  0  0  0  0  0  0  0  0  0
  -22.1570   -8.1897   20.5058 C   0  0  0  0  0  0  0  0  0  0  0  0
  -30.3276  -23.6663   18.2146 C   0  0  0  0  0  0  0  0  0  0  0  0
  -25.7060  -14.1906   20.7008 C   0  0  0  0  0  0  0  0  0  0  0  0
  -25.6578  -16.3497   22.0585 C   0  0  0  0  0  0  0  0  0  0  0  0
  -20.0407  -31.9218   24.7534 C   0  0  0  0  0  0  0  0  0  0  0  0
  -24.8469  -29.0240   20.0222 C   0  0  0  0  0  0  0  0  0  0  0  0
  -21.2501  -31.3042   24.3814 C   0  0  0  0  0  0  0  0  0  0  0  0
  -24.7792  -27.6269   19.9237 C   0  0  0  0  0  0  0  0  0  0  0  0
  -31.1137  -23.9943   17.1218 C   0  0  0  0  0  0  0  0  0  0  0  0
  -25.4297  -11.4349   20.3651 C   0  0  0  0  0  0  0  0  0  0  0  0
  -27.1955  -27.5053   20.1616 C   0  0  0  0  0  0  0  0  0  0  0  0
  -24.1824   -9.4825   20.7581 C   0  0  0  0  0  0  0  0  0  0  0  0
  -21.9423   -8.2575   21.8824 C   0  0  0  0  0  0  0  0  0  0  0  0
  -23.2770   -8.8023   19.9437 C   0  0  0  0  0  0  0  0  0  0  0  0
  -25.8494  -15.6138   20.8738 C   0  0  0  0  0  0  0  0  0  0  0  0
  -30.8731  -25.6138   19.3045 C   0  0  0  0  0  0  0  0  0  0  0  0
  -25.9145  -17.6505   21.7000 C   0  0  0  0  0  0  0  0  0  0  0  0
  -25.2816  -15.8979   23.3662 C   0  0  0  0  0  0  0  0  0  0  0  0
  -22.1929  -28.8717   21.7647 C   0  0  0  0  0  0  0  0  0  0  0  0
  -29.2610  -19.8986   17.3386 C   0  0  0  0  0  0  0  0  0  0  0  0
  -21.0438  -27.3017   19.1692 C   0  0  0  0  0  0  0  0  0  0  0  0
  -21.6985  -25.4431   16.3828 C   0  0  0  0  0  0  0  0  0  0  0  0
  -18.7277  -31.1806   24.7176 C   0  0  0  0  0  0  0  0  0  0  0  0
  -23.5985  -29.8563   19.9179 C   0  0  0  0  0  0  0  0  0  0  0  0
  -23.4683  -26.9071   19.7449 C   0  0  0  0  0  0  0  0  0  0  0  0
  -18.7635  -29.9192   23.8586 C   0  0  0  0  0  0  0  0  0  0  0  0
  -25.7488  -20.6133   17.9559 C   0  0  0  0  0  0  0  0  0  0  0  0
  -20.0116  -29.0983   24.1674 C   0  0  0  0  0  0  0  0  0  0  0  0
  -25.3559  -19.4510   18.8669 C   0  0  0  0  0  0  0  0  0  0  0  0
  -26.7720  -20.1839   16.9077 C   0  0  0  0  0  0  0  0  0  0  0  0
  -27.6077  -18.3922   18.3964 C   0  0  0  0  0  0  0  0  0  0  0  0
  -21.2855  -29.8892   23.8462 C   0  0  1  0  0  0  0  0  0  0  0  0
  -22.3340  -29.0854   20.2842 C   0  0  1  0  0  0  0  0  0  0  0  0
  -26.5999  -18.7912   19.4873 C   0  0  2  0  0  0  0  0  0  0  0  0
  -31.5438  -20.3591   14.0728 C   0  0  0  0  0  0  0  0  0  0  0  0
  -33.8652  -22.8720   16.0476 C   0  0  0  0  0  0  0  0  0  0  0  0
  -30.2144  -24.8514   14.2659 C   0  0  0  0  0  0  0  0  0  0  0  0
  -20.5528  -24.2736   14.4810 C   0  0  0  0  0  0  0  0  0  0  0  0
  -20.2302  -25.0425   21.0518 C   0  0  0  0  0  0  0  0  0  0  0  0
  -19.9841  -23.5576   19.0510 C   0  0  0  0  0  0  0  0  0  0  0  0
  -18.5472  -25.5835   19.2828 C   0  0  0  0  0  0  0  0  0  0  0  0
  -23.0564  -27.1365   14.3709 C   0  0  0  0  0  0  0  0  0  0  0  0
  -30.7239  -26.4809   20.5098 C   0  0  0  0  0  0  0  0  0  0  0  0
  -29.5148  -21.0538   16.4031 C   0  0  0  0  0  0  0  0  0  0  0  0
  -31.8638  -20.4633   15.5618 C   0  0  0  0  0  0  0  0  0  0  0  0
  -32.6357  -23.1855   15.1965 C   0  0  0  0  0  0  0  0  0  0  0  0
  -30.1284  -23.4304   14.8239 C   0  0  0  0  0  0  0  0  0  0  0  0
  -29.5623  -27.4718   20.3923 C   0  0  0  0  0  0  0  0  0  1  0  0
  -20.9978  -25.8593   18.7259 C   0  0  1  0  0  0  0  0  0  0  0  0
  -21.2048  -25.5641   14.9524 C   0  0  2  0  0  0  0  0  0  0  0  0
  -30.9950  -21.5044   16.3237 C   0  0  1  0  0  0  0  0  0  0  0  0
  -31.2235  -23.0399   15.8949 C   0  0  0  0  0  0  0  0  0  0  0  0
  -19.9645  -25.0239   19.5332 C   0  0  0  0  0  0  0  0  0  0  0  0
  -30.1891  -24.4478   19.3091 N   0  0  0  0  0  0  0  0  0  0  0  0
  -26.2006  -16.3832   19.8400 N   0  0  0  0  0  0  0  0  0  0  0  0
  -26.2315  -17.6161   20.3740 N   0  0  0  0  0  0  0  0  0  0  0  0
  -22.2750  -27.7646   19.6546 N   0  0  0  0  0  0  0  0  0  0  0  0
  -27.9287  -19.5352   17.5368 N   0  0  0  0  0  0  0  0  0  0  0  0
  -25.8975  -18.8090   22.3929 N   0  0  0  0  0  0  0  0  0  0  0  0
  -25.0559  -14.5284   23.5606 N   0  0  0  0  0  0  0  0  0  0  0  0
  -21.5318  -29.8930   22.4201 N   0  0  0  0  0  0  0  0  0  0  0  0
  -20.7550  -25.8818   17.2876 N   0  0  0  0  0  0  0  0  0  0  0  0
  -22.3387  -25.8791   14.0380 N   0  3  0  0  0  0  0  0  0  0  0  0
  -25.1334  -16.6873   24.3297 O   0  0  0  0  0  0  0  0  0  0  0  0
  -22.6486  -27.8548   22.2746 O   0  0  0  0  0  0  0  0  0  0  0  0
  -30.2191  -19.3392   17.8780 O   0  0  0  0  0  0  0  0  0  0  0  0
  -20.0267  -27.9941   19.0811 O   0  0  0  0  0  0  0  0  0  0  0  0
  -22.8085  -25.0000   16.6691 O   0  0  0  0  0  0  0  0  0  0  0  0
  -25.2952  -10.0904   20.2016 O   0  0  0  0  0  0  0  0  0  0  0  0
  -28.3424  -26.7587   20.2340 O   0  0  0  0  0  0  0  0  0  1  0  0
  -20.8676   -7.6681   22.4226 F   0  0  0  0  0  0  0  0  0  0  0  0
  -23.4786   -8.7329   18.6206 F   0  0  0  0  0  0  0  0  0  0  0  0
  1  2  1  0  0  0  0
  1  5  2  0  0  0  0
  2  6  2  0  0  0  0
  3  9  2  0  0  0  0
  3 18  1  0  0  0  0
  4 10  1  0  0  0  0
  4 18  2  0  0  0  0
  5 20  1  0  0  0  0
  6 22  1  0  0  0  0
  7 11  2  0  0  0  0
  7 21  1  0  0  0  0
  8 14  2  0  0  0  0
  8 24  1  0  0  0  0
  9 25  1  0  0  0  0
 10 25  2  0  0  0  0
 11 26  1  0  0  0  0
 12 13  2  0  0  0  0
 12 27  1  0  0  0  0
 13 28  1  0  0  0  0
 14 31  1  0  0  0  0
 15 23  1  0  0  0  0
 15 26  2  0  0  0  0
 16 28  2  0  0  0  0
 16 29  1  0  0  0  0
 17 24  2  0  0  0  0
 17 69  1  0  0  0  0
 18 30  1  0  0  0  0
 19 30  1  0  0  0  0
 19 32  2  0  0  0  0
 19 33  1  0  0  0  0
 20 22  2  0  0  0  0
 20 38  1  0  0  0  0
 21 23  2  0  0  0  0
 21 39  1  0  0  0  0
 22 47  1  0  0  0  0
 23 40  1  0  0  0  0
 24 67  1  0  0  0  0
 25 84  1  0  0  0  0
 26 85  1  0  0  0  0
 27 29  2  0  0  0  0
 27 84  1  0  0  0  0
 28 86  1  0  0  0  0
 29 87  1  0  0  0  0
 30 70  2  0  0  0  0
 31 58  1  0  0  0  0
 31 69  2  0  0  0  0
 32 71  1  0  0  0  0
 32 74  1  0  0  0  0
 33 75  1  0  0  0  0
 33 79  2  0  0  0  0
 34 48  1  0  0  0  0
 34 76  1  0  0  0  0
 34 80  2  0  0  0  0
 35 59  1  0  0  0  0
 35 73  1  0  0  0  0
 35 81  2  0  0  0  0
 36 64  1  0  0  0  0
 36 72  1  0  0  0  0
 36 82  2  0  0  0  0
 37 65  1  0  0  0  0
 37 77  1  0  0  0  0
 37 83  2  0  0  0  0
 38 41  1  0  0  0  0
 39 48  1  0  0  0  0
 40 72  1  0  0  0  0
 41 43  1  0  0  0  0
 42 44  1  0  0  0  0
 42 45  1  0  0  0  0
 43 47  1  0  0  0  0
 44 49  1  0  0  0  0
 45 73  1  0  0  0  0
 46 49  1  0  0  0  0
 46 73  1  0  0  0  0
 47 76  1  0  0  0  0
 48 72  1  0  0  0  0
 49 71  1  0  0  0  0
 50 60  1  0  0  0  0
 51 61  1  0  0  0  0
 52 62  1  0  0  0  0
 53 65  1  0  0  0  0
 54 68  1  0  0  0  0
 55 68  1  0  0  0  0
 56 68  1  0  0  0  0
 57 78  1  0  0  0  0
 58 63  1  0  0  0  0
 59 66  1  0  0  0  0
 60 66  1  0  0  0  0
 61 67  1  0  0  0  0
 62 67  1  0  0  0  0
 63 85  1  0  0  0  0
 64 68  1  0  0  0  0
 64 77  1  0  0  0  0
 65 78  1  0  0  0  0
 66 67  1  0  0  0  0
 70 71  1  0  0  0  0
M  CHG  1  78   1
M  ISO  4  35 100  59 100  63 101  85 101
M  END
> <Batch ID>
0050

> <Smiles>
CCC([100CH2:0][100C:0](=O)N1CCCC(n2nc(-c3ccc(Oc4ccc(F)cc4F)cc3)c(C(N)=O)c2N)C1)C(CC)(CC)c1ccc(C[101CH2:1][101O:1]c2ccc3c(c2)CN(C(=O)C(NC(=O)C(C)NC)C(C)(C)C)C(C(=O)NC2CCCc4ccccc42)C3)nc1

> <Shape>
0.222

> <Color>
0.072

> <Negative vol penalty>
0.000

$$$$

  -OEChem-04052317313D

 83 91  0     1  0  0  0  0  0999 V2000
  -17.1707  -13.6777   22.9230 C   0  0  0  0  0  0  0  0  0  0  0  0
  -18.0569  -14.6863   22.5585 C   0  0  0  0  0  0  0  0  0  0  0  0
  -30.5216  -24.5282   20.4776 C   0  0  0  0  0  0  0  0  0  0  0  0
  -28.6400  -23.6381   19.2511 C   0  0  0  0  0  0  0  0  0  0  0  0
  -17.6569  -12.4771   23.4391 C   0  0  0  0  0  0  0  0  0  0  0  0
  -19.4297  -14.4953   22.7109 C   0  0  0  0  0  0  0  0  0  0  0  0
  -22.0651  -16.0285   18.6675 C   0  0  0  0  0  0  0  0  0  0  0  0
  -30.8542  -23.2416   20.9011 C   0  0  0  0  0  0  0  0  0  0  0  0
  -28.9726  -22.3514   19.6747 C   0  0  0  0  0  0  0  0  0  0  0  0
  -22.2785  -17.3993   18.5289 C   0  0  0  0  0  0  0  0  0  0  0  0
  -31.2140  -19.9607   18.8492 C   0  0  0  0  0  0  0  0  0  0  0  0
  -31.1954  -18.9416   17.8970 C   0  0  0  0  0  0  0  0  0  0  0  0
  -24.5051  -17.1366   19.4191 C   0  0  0  0  0  0  0  0  0  0  0  0
  -29.5193  -17.7700   19.1836 C   0  0  0  0  0  0  0  0  0  0  0  0
  -24.1594  -25.4995   19.2493 C   0  0  0  0  0  0  0  0  0  0  0  0
  -21.9809  -25.8128   19.1370 C   0  0  0  0  0  0  0  0  0  0  0  0
  -29.4144  -24.7265   19.6526 C   0  0  0  0  0  0  0  0  0  0  0  0
  -29.5178  -26.7105   18.0523 C   0  0  0  0  0  0  0  0  0  0  0  0
  -19.0368  -12.2677   23.5889 C   0  0  0  0  0  0  0  0  0  0  0  0
  -23.0679  -15.2017   19.1940 C   0  0  0  0  0  0  0  0  0  0  0  0
  -19.9347  -13.2914   23.2307 C   0  0  0  0  0  0  0  0  0  0  0  0
  -24.3029  -15.7552   19.5609 C   0  0  0  0  0  0  0  0  0  0  0  0
  -30.0798  -22.1531   20.4997 C   0  0  0  0  0  0  0  0  0  0  0  0
  -23.4976  -17.9539   18.9074 C   0  0  0  0  0  0  0  0  0  0  0  0
  -30.3852  -19.8845   19.9686 C   0  0  0  0  0  0  0  0  0  0  0  0
  -30.3481  -17.8462   18.0642 C   0  0  0  0  0  0  0  0  0  0  0  0
  -29.5379  -18.7892   20.1358 C   0  0  0  0  0  0  0  0  0  0  0  0
  -29.0699  -26.0555   19.2152 C   0  0  0  0  0  0  0  0  0  0  0  0
  -23.5576  -24.5630   18.4423 C   0  0  0  0  0  0  0  0  0  0  0  0
  -28.9075  -27.9402   18.0943 C   0  0  0  0  0  0  0  0  0  0  0  0
  -30.4059  -26.2486   17.0259 C   0  0  0  0  0  0  0  0  0  0  0  0
  -23.3219  -13.3361   21.7550 C   0  0  0  0  0  0  0  0  0  0  0  0
  -26.1453  -12.5076   20.3896 C   0  0  0  0  0  0  0  0  0  0  0  0
  -23.8837  -29.8366   20.7919 C   0  0  0  0  0  0  0  0  0  0  0  0
  -28.6930  -13.3327   18.2740 C   0  0  0  0  0  0  0  0  0  0  0  0
  -19.5127  -10.9714   24.1954 C   0  0  0  0  0  0  0  0  0  0  0  0
  -22.8316  -13.7209   19.3122 C   0  0  0  0  0  0  0  0  0  0  0  0
  -25.4192  -14.9079   20.1126 C   0  0  0  0  0  0  0  0  0  0  0  0
  -20.9997  -10.7055   23.9751 C   0  0  0  0  0  0  0  0  0  0  0  0
  -27.1878  -31.1728   21.1621 C   0  0  0  0  0  0  0  0  0  0  0  0
  -21.8173  -11.9549   24.2869 C   0  0  0  0  0  0  0  0  0  0  0  0
  -28.0872  -30.0601   20.6255 C   0  0  0  0  0  0  0  0  0  0  0  0
  -25.9665  -30.6064   21.8796 C   0  0  0  0  0  0  0  0  0  0  0  0
  -26.0578  -28.5454   20.5137 C   0  0  0  0  0  0  0  0  0  0  0  0
  -21.4320  -13.1125   23.3579 C   0  0  1  0  0  0  0  0  0  0  0  0
  -23.7388  -13.0513   20.3398 C   0  0  1  0  0  0  0  0  0  0  0  0
  -27.2877  -29.0745   19.7549 C   0  0  2  0  0  0  0  0  0  0  0  0
  -30.8787  -12.4710   17.3924 C   0  0  0  0  0  0  0  0  0  0  0  0
  -23.8890  -28.8380   18.5256 C   0  0  0  0  0  0  0  0  0  0  0  0
  -21.7458  -29.2542   19.7428 C   0  0  0  0  0  0  0  0  0  0  0  0
  -27.4902  -13.2206   23.0339 C   0  0  0  0  0  0  0  0  0  0  0  0
  -29.6836  -13.2606   21.8275 C   0  0  0  0  0  0  0  0  0  0  0  0
  -28.3650  -11.1463   21.9446 C   0  0  0  0  0  0  0  0  0  0  0  0
  -27.6968  -13.3205   15.4872 C   0  0  0  0  0  0  0  0  0  0  0  0
  -24.2036  -23.4301   17.6853 C   0  0  0  0  0  0  0  0  0  0  0  0
  -24.2905  -22.1234   18.4816 C   0  0  0  0  0  0  0  0  0  0  0  0
  -25.0169  -21.0093   17.7266 C   0  0  0  0  0  0  0  0  0  0  0  0
  -23.2534  -27.4265   20.5717 C   0  0  0  0  0  0  0  0  0  0  0  0
  -25.0486  -19.7171   18.5315 C   0  0  0  0  0  0  0  0  0  1  0  0
  -27.5605  -13.0282   20.4602 C   0  0  1  0  0  0  0  0  0  0  0  0
  -29.3768  -12.5502   17.1674 C   0  0  2  0  0  0  0  0  0  0  0  0
  -23.2125  -28.8214   19.9015 C   0  0  0  0  0  0  0  0  0  0  0  0
  -28.2533  -12.6805   21.8080 C   0  0  0  0  0  0  0  0  0  0  0  0
  -22.2015  -24.7637   18.3763 N   0  0  0  0  0  0  0  0  0  0  0  0
  -28.2395  -26.8070   19.9429 N   0  0  0  0  0  0  0  0  0  0  0  0
  -23.1369  -26.2934   19.6866 N   0  0  0  0  0  0  0  0  0  0  0  0
  -28.1606  -27.9469   19.2355 N   0  0  0  0  0  0  0  0  0  0  0  0
  -25.1374  -13.4665   20.2149 N   0  0  0  0  0  0  0  0  0  0  0  0
  -25.2469  -29.6579   21.0277 N   0  0  0  0  0  0  0  0  0  0  0  0
  -28.9423  -29.0057   17.2661 N   0  0  0  0  0  0  0  0  0  0  0  0
  -30.9436  -24.9592   17.1381 N   0  0  0  0  0  0  0  0  0  0  0  0
  -22.0336  -12.9354   22.0536 N   0  0  0  0  0  0  0  0  0  0  0  0
  -28.2468  -12.5061   19.2834 N   0  0  0  0  0  0  0  0  0  0  0  0
  -29.1328  -13.1983   15.8478 N   0  3  0  0  0  0  0  0  0  0  0  0
  -30.7264  -26.9643   16.0468 O   0  0  0  0  0  0  0  0  0  0  0  0
  -24.1113  -13.8780   22.5199 O   0  0  0  0  0  0  0  0  0  0  0  0
  -25.9422  -11.2942   20.4787 O   0  0  0  0  0  0  0  0  0  0  0  0
  -23.2152  -30.7617   21.2605 O   0  0  0  0  0  0  0  0  0  0  0  0
  -28.5704  -14.5553   18.2476 O   0  0  0  0  0  0  0  0  0  0  0  0
  -30.4042  -20.8974   20.9126 O   0  0  0  0  0  0  0  0  0  0  0  0
  -23.7082  -19.2917   18.7737 O   0  0  0  0  0  0  0  0  0  1  0  0
  -30.3293  -16.8684   17.1490 F   0  0  0  0  0  0  0  0  0  0  0  0
  -28.7386  -18.7109   21.2086 F   0  0  0  0  0  0  0  0  0  0  0  0
  1  2  1  0  0  0  0
  1  5  2  0  0  0  0
  2  6  2  0  0  0  0
  3  8  2  0  0  0  0
  3 17  1  0  0  0  0
  4  9  1  0  0  0  0
  4 17  2  0  0  0  0
  5 19  1  0  0  0  0
  6 21  1  0  0  0  0
  7 10  2  0  0  0  0
  7 20  1  0  0  0  0
  8 23  1  0  0  0  0
  9 23  2  0  0  0  0
 10 24  1  0  0  0  0
 11 12  2  0  0  0  0
 11 25  1  0  0  0  0
 12 26  1  0  0  0  0
 13 22  1  0  0  0  0
 13 24  2  0  0  0  0
 14 26  2  0  0  0  0
 14 27  1  0  0  0  0
 15 29  2  0  0  0  0
 15 66  1  0  0  0  0
 16 64  2  0  0  0  0
 16 66  1  0  0  0  0
 17 28  1  0  0  0  0
 18 28  1  0  0  0  0
 18 30  2  0  0  0  0
 18 31  1  0  0  0  0
 19 21  2  0  0  0  0
 19 36  1  0  0  0  0
 20 22  2  0  0  0  0
 20 37  1  0  0  0  0
 21 45  1  0  0  0  0
 22 38  1  0  0  0  0
 23 80  1  0  0  0  0
 24 81  1  0  0  0  0
 25 27  2  0  0  0  0
 25 80  1  0  0  0  0
 26 82  1  0  0  0  0
 27 83  1  0  0  0  0
 28 65  2  0  0  0  0
 29 55  1  0  0  0  0
 29 64  1  0  0  0  0
 30 67  1  0  0  0  0
 30 70  1  0  0  0  0
 31 71  1  0  0  0  0
 31 75  2  0  0  0  0
 32 46  1  0  0  0  0
 32 72  1  0  0  0  0
 32 76  2  0  0  0  0
 33 60  1  0  0  0  0
 33 68  1  0  0  0  0
 33 77  2  0  0  0  0
 34 62  1  0  0  0  0
 34 69  1  0  0  0  0
 34 78  2  0  0  0  0
 35 61  1  0  0  0  0
 35 73  1  0  0  0  0
 35 79  2  0  0  0  0
 36 39  1  0  0  0  0
 37 46  1  0  0  0  0
 38 68  1  0  0  0  0
 39 41  1  0  0  0  0
 40 42  1  0  0  0  0
 40 43  1  0  0  0  0
 41 45  1  0  0  0  0
 42 47  1  0  0  0  0
 43 69  1  0  0  0  0
 44 47  1  0  0  0  0
 44 69  1  0  0  0  0
 45 72  1  0  0  0  0
 46 68  1  0  0  0  0
 47 67  1  0  0  0  0
 48 61  1  0  0  0  0
 49 62  1  0  0  0  0
 50 62  1  0  0  0  0
 51 63  1  0  0  0  0
 52 63  1  0  0  0  0
 53 63  1  0  0  0  0
 54 74  1  0  0  0  0
 55 56  1  0  0  0  0
 56 57  1  0  0  0  0
 57 59  1  0  0  0  0
 58 62  1  0  0  0  0
 58 66  1  0  0  0  0
 59 81  1  0  0  0  0
 60 63  1  0  0  0  0
 60 73  1  0  0  0  0
 61 74  1  0  0  0  0
 65 67  1  0  0  0  0
M  CHG  1  74   1
M  ISO  4  34 100  59 101  62 100  81 101
M  END
> <Batch ID>
0050

> <Smiles>
CNC(C)C(=O)NC(C(=O)N1Cc2cc([101O:1][101CH2:1]CCCc3cn(C[100C:0](C)(C)[100C:0](=O)N4CCCC(n5nc(-c6ccc(Oc7ccc(F)cc7F)cc6)c(C(N)=O)c5N)C4)cn3)ccc2CC1C(=O)NC1CCCc2ccccc21)C(C)(C)C

> <Shape>
0.237

> <Color>
0.056

> <Negative vol penalty>
0.000

$$$$

  -OEChem-04052317313D

 80 88  0     1  0  0  0  0  0999 V2000
  -16.7333  -28.7642   23.9407 C   0  0  0  0  0  0  0  0  0  0  0  0
  -17.3558  -27.9972   22.9611 C   0  0  0  0  0  0  0  0  0  0  0  0
  -30.0896  -11.1396   18.0518 C   0  0  0  0  0  0  0  0  0  0  0  0
  -30.5583  -10.6133   20.3627 C   0  0  0  0  0  0  0  0  0  0  0  0
  -17.2753  -29.9945   24.3102 C   0  0  0  0  0  0  0  0  0  0  0  0
  -18.5203  -28.4605   22.3498 C   0  0  0  0  0  0  0  0  0  0  0  0
  -22.0663  -24.8674   21.9498 C   0  0  0  0  0  0  0  0  0  0  0  0
  -30.8020  -10.0097   17.6500 C   0  0  0  0  0  0  0  0  0  0  0  0
  -31.2706   -9.4834   19.9609 C   0  0  0  0  0  0  0  0  0  0  0  0
  -21.9115  -23.9309   20.9286 C   0  0  0  0  0  0  0  0  0  0  0  0
  -30.2829   -6.6737   17.4639 C   0  0  0  0  0  0  0  0  0  0  0  0
  -29.7120   -5.8623   16.4834 C   0  0  0  0  0  0  0  0  0  0  0  0
  -23.5106  -25.1392   19.5862 C   0  0  0  0  0  0  0  0  0  0  0  0
  -31.6186   -6.2515   15.0513 C   0  0  0  0  0  0  0  0  0  0  0  0
  -24.9646  -20.0861   18.6934 C   0  0  0  0  0  0  0  0  0  0  0  0
  -25.9856  -21.7985   16.8947 C   0  0  0  0  0  0  0  0  0  0  0  0
  -29.9679  -11.4415   19.4082 C   0  0  0  0  0  0  0  0  0  0  0  0
  -27.8587  -12.6872   20.1205 C   0  0  0  0  0  0  0  0  0  0  0  0
  -18.4523  -30.4687   23.7100 C   0  0  0  0  0  0  0  0  0  0  0  0
  -22.9378  -25.9547   21.7922 C   0  0  0  0  0  0  0  0  0  0  0  0
  -19.0778  -29.6989   22.7107 C   0  0  0  0  0  0  0  0  0  0  0  0
  -23.6766  -26.0867   20.6078 C   0  0  0  0  0  0  0  0  0  0  0  0
  -31.3924   -9.1816   18.6045 C   0  0  0  0  0  0  0  0  0  0  0  0
  -22.6315  -24.0683   19.7455 C   0  0  0  0  0  0  0  0  0  0  0  0
  -31.5216   -7.2741   17.2381 C   0  0  0  0  0  0  0  0  0  0  0  0
  -30.3799   -5.6512   15.2771 C   0  0  0  0  0  0  0  0  0  0  0  0
  -32.1894   -7.0629   16.0318 C   0  0  0  0  0  0  0  0  0  0  0  0
  -29.2327  -12.6089   19.8239 C   0  0  0  0  0  0  0  0  0  0  0  0
  -24.1652  -20.9028   17.9198 C   0  0  0  0  0  0  0  0  0  0  0  0
  -26.3229  -20.2068   18.4821 C   0  0  0  0  0  0  0  0  0  0  0  0
  -27.6556  -14.0020   20.4620 C   0  0  0  0  0  0  0  0  0  0  0  0
  -26.8558  -11.6631   20.0902 C   0  0  0  0  0  0  0  0  0  0  0  0
  -22.5962  -29.1146   21.7449 C   0  0  0  0  0  0  0  0  0  0  0  0
  -25.8376  -29.0727   21.6287 C   0  0  0  0  0  0  0  0  0  0  0  0
  -28.6863  -27.3718   20.8296 C   0  0  0  0  0  0  0  0  0  0  0  0
  -28.6018  -19.4322   19.1159 C   0  0  0  0  0  0  0  0  0  0  0  0
  -18.9745  -31.8263   24.1087 C   0  0  0  0  0  0  0  0  0  0  0  0
  -23.1136  -26.9415   22.9137 C   0  0  0  0  0  0  0  0  0  0  0  0
  -24.6403  -27.2249   20.3970 C   0  0  0  0  0  0  0  0  0  0  0  0
  -20.4182  -32.0739   23.6791 C   0  0  0  0  0  0  0  0  0  0  0  0
  -30.9374  -17.7220   21.4029 C   0  0  0  0  0  0  0  0  0  0  0  0
  -20.6222  -31.6550   22.2266 C   0  0  0  0  0  0  0  0  0  0  0  0
  -30.6274  -16.2452   21.1644 C   0  0  0  0  0  0  0  0  0  0  0  0
  -30.6748  -18.5645   20.1582 C   0  0  0  0  0  0  0  0  0  0  0  0
  -28.9863  -16.9340   19.3706 C   0  0  0  0  0  0  0  0  0  0  0  0
  -20.3561  -30.1561   22.0421 C   0  0  1  0  0  0  0  0  0  0  0  0
  -23.6426  -28.2929   22.4430 C   0  0  1  0  0  0  0  0  0  0  0  0
  -29.1999  -16.0653   20.6195 C   0  0  1  0  0  0  0  0  0  0  0  0
  -31.1842  -27.6114   20.8114 C   0  0  0  0  0  0  0  0  0  0  0  0
  -25.6471  -30.8454   19.1526 C   0  0  0  0  0  0  0  0  0  0  0  0
  -28.0298  -30.2702   18.6429 C   0  0  0  0  0  0  0  0  0  0  0  0
  -27.4635  -31.4778   20.7510 C   0  0  0  0  0  0  0  0  0  0  0  0
  -26.6327  -18.6345   20.4027 C   0  0  0  0  0  0  0  0  0  0  0  0
  -29.0335  -25.1058   22.7014 C   0  0  0  0  0  0  0  0  0  0  0  0
  -22.6654  -20.8425   18.0789 C   0  0  0  0  0  0  0  0  0  0  0  0
  -22.1540  -21.8211   19.1305 C   0  0  0  0  0  0  0  0  0  1  0  0
  -26.8674  -29.0312   20.5256 C   0  0  1  0  0  0  0  0  0  0  0  0
  -29.9728  -27.1424   21.6021 C   0  0  2  0  0  0  0  0  0  0  0  0
  -26.9824  -30.3857   19.7709 C   0  0  0  0  0  0  0  0  0  0  0  0
  -24.6439  -21.7739   17.0075 N   0  0  0  0  0  0  0  0  0  0  0  0
  -26.8699  -21.0557   17.5875 N   0  0  0  0  0  0  0  0  0  0  0  0
  -29.8582  -13.7807   19.9644 N   0  0  0  0  0  0  0  0  0  0  0  0
  -28.8728  -14.6077   20.3531 N   0  0  0  0  0  0  0  0  0  0  0  0
  -24.7727  -28.1672   21.5203 N   0  0  0  0  0  0  0  0  0  0  0  0
  -29.3269  -18.3405   19.6342 N   0  0  0  0  0  0  0  0  0  0  0  0
  -26.5564  -14.6875   20.8418 N   0  0  0  0  0  0  0  0  0  0  0  0
  -27.2358  -10.3667   19.7171 N   0  0  0  0  0  0  0  0  0  0  0  0
  -21.4818  -29.3807   22.5175 N   0  0  0  0  0  0  0  0  0  0  0  0
  -28.1108  -28.5845   21.1445 N   0  0  0  0  0  0  0  0  0  0  0  0
  -27.1997  -19.3719   19.2689 N   0  0  0  0  0  0  0  0  0  0  0  0
  -30.1427  -25.6936   21.9069 N   0  3  0  0  0  0  0  0  0  0  0  0
  -25.6549  -11.8945   20.3694 O   0  0  0  0  0  0  0  0  0  0  0  0
  -22.7864  -29.4814   20.5912 O   0  0  0  0  0  0  0  0  0  0  0  0
  -25.9769  -29.8740   22.5562 O   0  0  0  0  0  0  0  0  0  0  0  0
  -28.2388  -26.5582   20.0244 O   0  0  0  0  0  0  0  0  0  0  0  0
  -29.1654  -20.3971   18.5858 O   0  0  0  0  0  0  0  0  0  0  0  0
  -32.0873   -8.0788   18.2128 O   0  0  0  0  0  0  0  0  0  0  0  0
  -22.4817  -23.1560   18.7469 O   0  0  0  0  0  0  0  0  0  1  0  0
  -29.8323   -4.8707   14.3363 F   0  0  0  0  0  0  0  0  0  0  0  0
  -33.3802   -7.6360   15.8096 F   0  0  0  0  0  0  0  0  0  0  0  0
  1  2  1  0  0  0  0
  1  5  2  0  0  0  0
  2  6  2  0  0  0  0
  3  8  2  0  0  0  0
  3 17  1  0  0  0  0
  4  9  1  0  0  0  0
  4 17  2  0  0  0  0
  5 19  1  0  0  0  0
  6 21  1  0  0  0  0
  7 10  2  0  0  0  0
  7 20  1  0  0  0  0
  8 23  1  0  0  0  0
  9 23  2  0  0  0  0
 10 24  1  0  0  0  0
 11 12  2  0  0  0  0
 11 25  1  0  0  0  0
 12 26  1  0  0  0  0
 13 22  1  0  0  0  0
 13 24  2  0  0  0  0
 14 26  2  0  0  0  0
 14 27  1  0  0  0  0
 15 29  1  0  0  0  0
 15 30  2  0  0  0  0
 16 60  1  0  0  0  0
 16 61  2  0  0  0  0
 17 28  1  0  0  0  0
 18 28  1  0  0  0  0
 18 31  2  0  0  0  0
 18 32  1  0  0  0  0
 19 21  2  0  0  0  0
 19 37  1  0  0  0  0
 20 22  2  0  0  0  0
 20 38  1  0  0  0  0
 21 46  1  0  0  0  0
 22 39  1  0  0  0  0
 23 77  1  0  0  0  0
 24 78  1  0  0  0  0
 25 27  2  0  0  0  0
 25 77  1  0  0  0  0
 26 79  1  0  0  0  0
 27 80  1  0  0  0  0
 28 62  2  0  0  0  0
 29 55  1  0  0  0  0
 29 60  2  0  0  0  0
 30 61  1  0  0  0  0
 30 70  1  0  0  0  0
 31 63  1  0  0  0  0
 31 66  1  0  0  0  0
 32 67  1  0  0  0  0
 32 72  2  0  0  0  0
 33 47  1  0  0  0  0
 33 68  1  0  0  0  0
 33 73  2  0  0  0  0
 34 57  1  0  0  0  0
 34 64  1  0  0  0  0
 34 74  2  0  0  0  0
 35 58  1  0  0  0  0
 35 69  1  0  0  0  0
 35 75  2  0  0  0  0
 36 65  1  0  0  0  0
 36 70  1  0  0  0  0
 36 76  2  0  0  0  0
 37 40  1  0  0  0  0
 38 47  1  0  0  0  0
 39 64  1  0  0  0  0
 40 42  1  0  0  0  0
 41 43  1  0  0  0  0
 41 44  1  0  0  0  0
 42 46  1  0  0  0  0
 43 48  1  0  0  0  0
 44 65  1  0  0  0  0
 45 48  1  0  0  0  0
 45 65  1  0  0  0  0
 46 68  1  0  0  0  0
 47 64  1  0  0  0  0
 48 63  1  0  0  0  0
 49 58  1  0  0  0  0
 50 59  1  0  0  0  0
 51 59  1  0  0  0  0
 52 59  1  0  0  0  0
 53 70  1  0  0  0  0
 54 71  1  0  0  0  0
 55 56  1  0  0  0  0
 56 78  1  0  0  0  0
 57 59  1  0  0  0  0
 57 69  1  0  0  0  0
 58 71  1  0  0  0  0
 62 63  1  0  0  0  0
M  CHG  1  71   1
M  ISO  4  36 100  56 101  70 100  78 101
M  END
> <Batch ID>
0050

> <Smiles>
CNC(C)C(=O)NC(C(=O)N1Cc2cc([101O:1][101CH2:1]Cc3cc([100N:0](C)[100C:0](=O)N4CCCC(n5nc(-c6ccc(Oc7ccc(F)cc7F)cc6)c(C(N)=O)c5N)C4)ncn3)ccc2CC1C(=O)NC1CCCc2ccccc21)C(C)(C)C

> <Shape>
0.231

> <Color>
0.091

> <Negative vol penalty>
0.000

$$$$

  -OEChem-04052317313D

 85 93  0     1  0  0  0  0  0999 V2000
  -21.0786  -26.5186   22.7917 C   0  0  0  0  0  0  0  0  0  0  0  0
  -21.0804  -25.4281   21.9279 C   0  0  0  0  0  0  0  0  0  0  0  0
  -28.5703  -13.2278   20.9694 C   0  0  0  0  0  0  0  0  0  0  0  0
  -28.0746  -12.2305   18.8254 C   0  0  0  0  0  0  0  0  0  0  0  0
  -22.0614  -27.5006   22.6748 C   0  0  0  0  0  0  0  0  0  0  0  0
  -22.0645  -25.3194   20.9460 C   0  0  0  0  0  0  0  0  0  0  0  0
  -24.0013  -20.6501   20.6450 C   0  0  0  0  0  0  0  0  0  0  0  0
  -29.9095  -13.3548   20.6008 C   0  0  0  0  0  0  0  0  0  0  0  0
  -29.4139  -12.3576   18.4567 C   0  0  0  0  0  0  0  0  0  0  0  0
  -23.2424  -19.6876   19.9807 C   0  0  0  0  0  0  0  0  0  0  0  0
  -31.4695  -14.8000   17.3477 C   0  0  0  0  0  0  0  0  0  0  0  0
  -31.7450  -15.2910   16.0716 C   0  0  0  0  0  0  0  0  0  0  0  0
  -24.6055  -19.9803   18.0121 C   0  0  0  0  0  0  0  0  0  0  0  0
  -32.9075  -13.2424   15.5342 C   0  0  0  0  0  0  0  0  0  0  0  0
  -27.6529  -12.6656   20.0817 C   0  0  0  0  0  0  0  0  0  0  0  0
  -25.3832  -13.5679   20.8180 C   0  0  0  0  0  0  0  0  0  0  0  0
  -23.0638  -27.3990   21.6973 C   0  0  0  0  0  0  0  0  0  0  0  0
  -25.0630  -21.2939   19.9932 C   0  0  0  0  0  0  0  0  0  0  0  0
  -23.0609  -26.3016   20.8151 C   0  0  0  0  0  0  0  0  0  0  0  0
  -25.3780  -20.9488   18.6712 C   0  0  0  0  0  0  0  0  0  0  0  0
  -30.3313  -12.9197   19.3444 C   0  0  0  0  0  0  0  0  0  0  0  0
  -23.5426  -19.3546   18.6631 C   0  0  0  0  0  0  0  0  0  0  0  0
  -31.9130  -13.5301   17.7172 C   0  0  0  0  0  0  0  0  0  0  0  0
  -32.4640  -14.5122   15.1648 C   0  0  0  0  0  0  0  0  0  0  0  0
  -32.6320  -12.7513   16.8104 C   0  0  0  0  0  0  0  0  0  0  0  0
  -26.2694  -12.5336   20.4622 C   0  0  0  0  0  0  0  0  0  0  0  0
  -24.1993  -12.9271   21.0905 C   0  0  0  0  0  0  0  0  0  0  0  0
  -22.2151  -12.6245   17.9836 C   0  0  0  0  0  0  0  0  0  0  0  0
  -21.4570  -13.7267   17.9501 C   0  0  0  0  0  0  0  0  0  0  0  0
  -20.4475  -13.4478   16.8850 C   0  0  0  0  0  0  0  0  0  0  0  0
  -25.6098  -14.9816   20.8951 C   0  0  0  0  0  0  0  0  0  0  0  0
  -25.7124  -24.3015   19.1958 C   0  0  0  0  0  0  0  0  0  0  0  0
  -28.5599  -23.0370   18.2930 C   0  0  0  0  0  0  0  0  0  0  0  0
  -30.3241  -20.2926   17.2917 C   0  0  0  0  0  0  0  0  0  0  0  0
  -22.3244   -7.4167   19.1780 C   0  0  0  0  0  0  0  0  0  0  0  0
  -24.0775  -28.5094   21.5788 C   0  0  0  0  0  0  0  0  0  0  0  0
  -25.8888  -22.3107   20.7325 C   0  0  0  0  0  0  0  0  0  0  0  0
  -26.5204  -21.5960   17.9333 C   0  0  0  0  0  0  0  0  0  0  0  0
  -25.3043  -28.1287   20.7540 C   0  0  0  0  0  0  0  0  0  0  0  0
  -22.4551   -8.7522   22.6277 C   0  0  0  0  0  0  0  0  0  0  0  0
  -24.8846  -27.4362   19.4613 C   0  0  0  0  0  0  0  0  0  0  0  0
  -23.4327   -9.9188   22.4965 C   0  0  0  0  0  0  0  0  0  0  0  0
  -22.7340   -7.6600   21.5997 C   0  0  0  0  0  0  0  0  0  0  0  0
  -23.7403   -9.3153   20.0630 C   0  0  0  0  0  0  0  0  0  0  0  0
  -24.1263  -26.1357   19.7532 C   0  0  1  0  0  0  0  0  0  0  0  0
  -26.6233  -23.2730   19.8041 C   0  0  1  0  0  0  0  0  0  0  0  0
  -23.4575  -10.4542   21.0542 C   0  0  2  0  0  0  0  0  0  0  0  0
  -19.8003   -6.9856   17.1246 C   0  0  0  0  0  0  0  0  0  0  0  0
  -32.6252  -19.5782   16.5902 C   0  0  0  0  0  0  0  0  0  0  0  0
  -28.1266  -24.3299   15.5634 C   0  0  0  0  0  0  0  0  0  0  0  0
  -29.9143  -22.8346   14.6489 C   0  0  0  0  0  0  0  0  0  0  0  0
  -30.4660  -24.4883   16.4331 C   0  0  0  0  0  0  0  0  0  0  0  0
  -20.0890  -11.4745   15.3132 C   0  0  0  0  0  0  0  0  0  0  0  0
  -30.5490  -18.3933   19.5502 C   0  0  0  0  0  0  0  0  0  0  0  0
  -21.5066  -14.9643   18.7526 C   0  0  0  0  0  0  0  0  0  0  0  0
  -22.1325  -16.1119   17.9669 C   0  0  0  0  0  0  0  0  0  0  0  0
  -22.1961  -10.2952   17.0255 C   0  0  0  0  0  0  0  0  0  0  0  0
  -21.2681   -7.3202   16.9521 C   0  0  0  0  0  0  0  0  0  0  0  0
  -21.4263   -9.5102   18.0766 C   0  0  0  0  0  0  0  0  0  0  0  0
  -22.2253  -17.3797   18.8050 C   0  0  0  0  0  0  0  0  0  1  0  0
  -29.1083  -22.4380   17.0204 C   0  0  1  0  0  0  0  0  0  0  0  0
  -31.6558  -19.7280   17.7524 C   0  0  2  0  0  0  0  0  0  0  0  0
  -29.3810  -23.5117   15.9294 C   0  0  0  0  0  0  0  0  0  0  0  0
  -25.6975  -11.3273   20.5042 N   0  0  0  0  0  0  0  0  0  0  0  0
  -24.4391  -11.5996   20.8896 N   0  0  0  0  0  0  0  0  0  0  0  0
  -21.8326  -11.6875   17.0640 N   0  0  0  0  0  0  0  0  0  0  0  0
  -20.7183  -12.1740   16.4022 N   0  0  0  0  0  0  0  0  0  0  0  0
  -27.2943  -22.5887   18.6969 N   0  0  0  0  0  0  0  0  0  0  0  0
  -22.7951   -8.2031   20.2423 N   0  0  0  0  0  0  0  0  0  0  0  0
  -22.9870  -13.3753   21.4802 N   0  0  0  0  0  0  0  0  0  0  0  0
  -25.3798  -15.7585   19.7515 N   0  0  0  0  0  0  0  0  0  0  0  0
  -25.0496  -25.0841   20.1220 N   0  0  0  0  0  0  0  0  0  0  0  0
  -30.2846  -21.6661   17.4064 N   0  0  0  0  0  0  0  0  0  0  0  0
  -21.7799   -8.0923   18.0754 N   0  0  0  0  0  0  0  0  0  0  0  0
  -31.4622  -18.3896   18.3785 N   0  3  0  0  0  0  0  0  0  0  0  0
  -19.5758  -14.2290   16.5412 O   0  0  0  0  0  0  0  0  0  0  0  0
  -26.0204  -15.5370   21.9422 O   0  0  0  0  0  0  0  0  0  0  0  0
  -25.6190  -24.3803   17.9765 O   0  0  0  0  0  0  0  0  0  0  0  0
  -29.2328  -23.8667   18.9098 O   0  0  0  0  0  0  0  0  0  0  0  0
  -29.4117  -19.5862   16.8686 O   0  0  0  0  0  0  0  0  0  0  0  0
  -22.3787   -6.1807   19.2154 O   0  0  0  0  0  0  0  0  0  0  0  0
  -31.6380  -13.0437   18.9842 O   0  0  0  0  0  0  0  0  0  0  0  0
  -22.8031  -18.4159   18.0121 O   0  0  0  0  0  0  0  0  0  1  0  0
  -32.7271  -14.9833   13.9388 F   0  0  0  0  0  0  0  0  0  0  0  0
  -33.0597  -11.5302   17.1592 F   0  0  0  0  0  0  0  0  0  0  0  0
  1  2  1  0  0  0  0
  1  5  2  0  0  0  0
  2  6  2  0  0  0  0
  3  8  2  0  0  0  0
  3 15  1  0  0  0  0
  4  9  1  0  0  0  0
  4 15  2  0  0  0  0
  5 17  1  0  0  0  0
  6 19  1  0  0  0  0
  7 10  2  0  0  0  0
  7 18  1  0  0  0  0
  8 21  1  0  0  0  0
  9 21  2  0  0  0  0
 10 22  1  0  0  0  0
 11 12  2  0  0  0  0
 11 23  1  0  0  0  0
 12 24  1  0  0  0  0
 13 20  1  0  0  0  0
 13 22  2  0  0  0  0
 14 24  2  0  0  0  0
 14 25  1  0  0  0  0
 15 26  1  0  0  0  0
 16 26  1  0  0  0  0
 16 27  2  0  0  0  0
 16 31  1  0  0  0  0
 17 19  2  0  0  0  0
 17 36  1  0  0  0  0
 18 20  2  0  0  0  0
 18 37  1  0  0  0  0
 19 45  1  0  0  0  0
 20 38  1  0  0  0  0
 21 82  1  0  0  0  0
 22 83  1  0  0  0  0
 23 25  2  0  0  0  0
 23 82  1  0  0  0  0
 24 84  1  0  0  0  0
 25 85  1  0  0  0  0
 26 64  2  0  0  0  0
 27 65  1  0  0  0  0
 27 70  1  0  0  0  0
 28 29  2  0  0  0  0
 28 66  1  0  0  0  0
 29 30  1  0  0  0  0
 29 55  1  0  0  0  0
 30 67  1  0  0  0  0
 30 76  2  0  0  0  0
 31 71  1  0  0  0  0
 31 77  2  0  0  0  0
 32 46  1  0  0  0  0
 32 72  1  0  0  0  0
 32 78  2  0  0  0  0
 33 61  1  0  0  0  0
 33 68  1  0  0  0  0
 33 79  2  0  0  0  0
 34 62  1  0  0  0  0
 34 73  1  0  0  0  0
 34 80  2  0  0  0  0
 35 69  1  0  0  0  0
 35 74  1  0  0  0  0
 35 81  2  0  0  0  0
 36 39  1  0  0  0  0
 37 46  1  0  0  0  0
 38 68  1  0  0  0  0
 39 41  1  0  0  0  0
 40 42  1  0  0  0  0
 40 43  1  0  0  0  0
 41 45  1  0  0  0  0
 42 47  1  0  0  0  0
 43 69  1  0  0  0  0
 44 47  1  0  0  0  0
 44 69  1  0  0  0  0
 45 72  1  0  0  0  0
 46 68  1  0  0  0  0
 47 65  1  0  0  0  0
 48 58  1  0  0  0  0
 49 62  1  0  0  0  0
 50 63  1  0  0  0  0
 51 63  1  0  0  0  0
 52 63  1  0  0  0  0
 53 67  1  0  0  0  0
 54 75  1  0  0  0  0
 55 56  1  0  0  0  0
 56 60  1  0  0  0  0
 57 59  1  0  0  0  0
 57 66  1  0  0  0  0
 58 74  1  0  0  0  0
 59 74  1  0  0  0  0
 60 83  1  0  0  0  0
 61 63  1  0  0  0  0
 61 73  1  0  0  0  0
 62 75  1  0  0  0  0
 64 65  1  0  0  0  0
 66 67  1  0  0  0  0
M  CHG  1  75   1
M  ISO  4  35 100  60 101  74 100  83 101
M  END
> <Batch ID>
0050

> <Smiles>
CC[100N:0](CCn1cc(CC[101CH2:1][101O:1]c2ccc3c(c2)CN(C(=O)C(NC(=O)C(C)NC)C(C)(C)C)C(C(=O)NC2CCCc4ccccc42)C3)c(=O)n1C)[100C:0](=O)N1CCCC(n2nc(-c3ccc(Oc4ccc(F)cc4F)cc3)c(C(N)=O)c2N)C1

> <Shape>
0.179

> <Color>
0.102

> <Negative vol penalty>
0.000

$$$$

  -OEChem-04052317313D

 86 94  0     1  0  0  0  0  0999 V2000
  -19.8751   -8.6501   22.5089 C   0  0  0  0  0  0  0  0  0  0  0  0
  -20.2972   -9.8570   23.0572 C   0  0  0  0  0  0  0  0  0  0  0  0
  -25.6353  -27.6401   19.1930 C   0  0  0  0  0  0  0  0  0  0  0  0
  -27.2845  -27.9887   20.9239 C   0  0  0  0  0  0  0  0  0  0  0  0
  -20.7218   -7.9368   21.6614 C   0  0  0  0  0  0  0  0  0  0  0  0
  -21.5667  -10.3508   22.7591 C   0  0  0  0  0  0  0  0  0  0  0  0
  -21.5217  -15.2970   21.6736 C   0  0  0  0  0  0  0  0  0  0  0  0
  -25.2520  -28.9778   19.2888 C   0  0  0  0  0  0  0  0  0  0  0  0
  -26.9012  -29.3264   21.0197 C   0  0  0  0  0  0  0  0  0  0  0  0
  -21.4366  -16.1835   22.7463 C   0  0  0  0  0  0  0  0  0  0  0  0
  -24.3934  -31.1048   22.4267 C   0  0  0  0  0  0  0  0  0  0  0  0
  -24.2184  -31.6389   23.7033 C   0  0  0  0  0  0  0  0  0  0  0  0
  -27.8655  -22.4433   28.0797 C   0  0  0  0  0  0  0  0  0  0  0  0
  -23.8169  -16.5548   22.6204 C   0  0  0  0  0  0  0  0  0  0  0  0
  -25.9349  -33.2784   23.2527 C   0  0  0  0  0  0  0  0  0  0  0  0
  -26.9664  -22.5450   29.1182 C   0  0  0  0  0  0  0  0  0  0  0  0
  -26.2292  -20.9320   27.7509 C   0  0  0  0  0  0  0  0  0  0  0  0
  -26.6515  -27.1455   20.0106 C   0  0  0  0  0  0  0  0  0  0  0  0
  -28.0411  -25.2214   19.0753 C   0  0  0  0  0  0  0  0  0  0  0  0
  -21.9986   -8.4269   21.3451 C   0  0  0  0  0  0  0  0  0  0  0  0
  -22.7587  -15.0239   21.0723 C   0  0  0  0  0  0  0  0  0  0  0  0
  -22.4318   -9.6427   21.9076 C   0  0  0  0  0  0  0  0  0  0  0  0
  -23.9146  -15.6664   21.5386 C   0  0  0  0  0  0  0  0  0  0  0  0
  -27.3993  -21.4228   27.2147 C   0  0  0  0  0  0  0  0  0  0  0  0
  -25.8849  -29.8210   20.2022 C   0  0  0  0  0  0  0  0  0  0  0  0
  -22.5848  -16.8104   23.2217 C   0  0  0  0  0  0  0  0  0  0  0  0
  -25.3393  -31.6574   21.5631 C   0  0  0  0  0  0  0  0  0  0  0  0
  -24.9891  -32.7257   24.1163 C   0  0  0  0  0  0  0  0  0  0  0  0
  -26.1099  -32.7442   21.9761 C   0  0  0  0  0  0  0  0  0  0  0  0
  -27.0476  -25.7636   19.9125 C   0  0  0  0  0  0  0  0  0  0  0  0
  -28.0310  -23.8771   19.3568 C   0  0  0  0  0  0  0  0  0  0  0  0
  -28.8966  -25.8745   18.1281 C   0  0  0  0  0  0  0  0  0  0  0  0
  -24.5462  -12.4220   20.7000 C   0  0  0  0  0  0  0  0  0  0  0  0
  -26.3629  -14.4040   18.8853 C   0  0  0  0  0  0  0  0  0  0  0  0
  -27.3277  -17.5958   18.1584 C   0  0  0  0  0  0  0  0  0  0  0  0
  -26.3565  -20.7309   24.1680 C   0  0  0  0  0  0  0  0  0  0  0  0
  -22.8964   -7.5971   20.4618 C   0  0  0  0  0  0  0  0  0  0  0  0
  -22.8296  -14.0856   19.8989 C   0  0  0  0  0  0  0  0  0  0  0  0
  -25.2636  -15.4229   20.9147 C   0  0  0  0  0  0  0  0  0  0  0  0
  -24.0833   -8.3742   19.8981 C   0  0  0  0  0  0  0  0  0  0  0  0
  -25.1197  -20.3852   20.8473 C   0  0  0  0  0  0  0  0  0  0  0  0
  -24.7579   -9.1894   20.9968 C   0  0  0  0  0  0  0  0  0  0  0  0
  -25.5632  -21.6755   20.1556 C   0  0  0  0  0  0  0  0  0  0  0  0
  -24.7292  -20.6307   22.3030 C   0  0  0  0  0  0  0  0  0  0  0  0
  -26.1979  -22.6063   22.4204 C   0  0  0  0  0  0  0  0  0  0  0  0
  -23.7923  -10.2235   21.5883 C   0  0  1  0  0  0  0  0  0  0  0  0
  -24.2186  -13.4889   19.6940 C   0  0  1  0  0  0  0  0  0  0  0  0
  -26.6549  -22.3995   20.9662 C   0  0  2  0  0  0  0  0  0  0  0  0
  -28.8550  -18.8972   16.6514 C   0  0  0  0  0  0  0  0  0  0  0  0
  -28.7508  -13.5768   20.5952 C   0  0  0  0  0  0  0  0  0  0  0  0
  -29.9905  -15.5587   19.6989 C   0  0  0  0  0  0  0  0  0  0  0  0
  -29.2330  -13.7578   18.1479 C   0  0  0  0  0  0  0  0  0  0  0  0
  -22.3279  -21.7762   30.4111 C   0  0  0  0  0  0  0  0  0  0  0  0
  -23.5631  -23.5423   29.1458 C   0  0  0  0  0  0  0  0  0  0  0  0
  -25.0631  -19.0481   16.9249 C   0  0  0  0  0  0  0  0  0  0  0  0
  -28.0469  -20.9677   25.9696 C   0  0  0  0  0  0  0  0  0  0  0  0
  -22.2046  -19.4397   26.6146 C   0  0  0  0  0  0  0  0  0  0  0  0
  -22.6775  -19.9045   27.9961 C   0  0  0  0  0  0  0  0  0  0  0  0
  -21.9182  -17.9351   26.6026 C   0  0  0  0  0  0  0  0  0  0  0  0
  -22.9995  -21.4047   27.9911 C   0  0  0  0  0  0  0  0  0  0  0  0
  -24.7848  -21.3991   29.8126 C   0  0  0  0  0  0  0  0  0  0  0  0
  -21.4778  -17.4432   25.2293 C   0  0  0  0  0  0  0  0  0  1  0  0
  -27.5253  -15.3302   19.1496 C   0  0  1  0  0  0  0  0  0  0  0  0
  -27.4549  -18.3336   16.8378 C   0  0  2  0  0  0  0  0  0  0  0  0
  -28.8499  -14.5592   19.4111 C   0  0  0  0  0  0  0  0  0  0  0  0
  -23.4283  -22.0187   29.3607 C   0  0  0  0  0  0  0  0  0  0  0  0
  -26.4498  -24.8392   20.6688 N   0  0  0  0  0  0  0  0  0  0  0  0
  -25.9757  -21.6217   28.9077 N   0  0  0  0  0  0  0  0  0  0  0  0
  -27.0693  -23.7026   20.3080 N   0  0  0  0  0  0  0  0  0  0  0  0
  -25.2822  -14.4922   19.7741 N   0  0  0  0  0  0  0  0  0  0  0  0
  -25.8079  -21.3188   23.0164 N   0  0  0  0  0  0  0  0  0  0  0  0
  -28.7510  -22.8391   18.8808 N   0  0  0  0  0  0  0  0  0  0  0  0
  -28.7754  -27.2611   17.9634 N   0  0  0  0  0  0  0  0  0  0  0  0
  -23.6627  -11.3595   20.7011 N   0  0  0  0  0  0  0  0  0  0  0  0
  -27.5818  -16.2479   18.0169 N   0  0  0  0  0  0  0  0  0  0  0  0
  -27.3789  -21.4460   24.7797 N   0  0  0  0  0  0  0  0  0  0  0  0
  -26.4826  -19.4614   16.7788 N   0  3  0  0  0  0  0  0  0  0  0  0
  -29.7321  -25.2448   17.4361 O   0  0  0  0  0  0  0  0  0  0  0  0
  -25.5286  -12.5523   21.4208 O   0  0  0  0  0  0  0  0  0  0  0  0
  -26.4090  -13.6356   17.9213 O   0  0  0  0  0  0  0  0  0  0  0  0
  -27.0359  -18.1594   19.2109 O   0  0  0  0  0  0  0  0  0  0  0  0
  -25.9680  -19.6463   24.6148 O   0  0  0  0  0  0  0  0  0  0  0  0
  -25.5113  -31.1264   20.2958 O   0  0  0  0  0  0  0  0  0  0  0  0
  -22.5040  -17.6822   24.2769 O   0  0  0  0  0  0  0  0  0  1  0  0
  -24.8198  -33.2395   25.3416 F   0  0  0  0  0  0  0  0  0  0  0  0
  -27.0193  -33.2801   21.1504 F   0  0  0  0  0  0  0  0  0  0  0  0
  1  2  1  0  0  0  0
  1  5  2  0  0  0  0
  2  6  2  0  0  0  0
  3  8  2  0  0  0  0
  3 18  1  0  0  0  0
  4  9  1  0  0  0  0
  4 18  2  0  0  0  0
  5 20  1  0  0  0  0
  6 22  1  0  0  0  0
  7 10  2  0  0  0  0
  7 21  1  0  0  0  0
  8 25  1  0  0  0  0
  9 25  2  0  0  0  0
 10 26  1  0  0  0  0
 11 12  2  0  0  0  0
 11 27  1  0  0  0  0
 12 28  1  0  0  0  0
 13 16  2  0  0  0  0
 13 24  1  0  0  0  0
 14 23  1  0  0  0  0
 14 26  2  0  0  0  0
 15 28  2  0  0  0  0
 15 29  1  0  0  0  0
 16 68  1  0  0  0  0
 17 24  2  0  0  0  0
 17 68  1  0  0  0  0
 18 30  1  0  0  0  0
 19 30  1  0  0  0  0
 19 31  2  0  0  0  0
 19 32  1  0  0  0  0
 20 22  2  0  0  0  0
 20 37  1  0  0  0  0
 21 23  2  0  0  0  0
 21 38  1  0  0  0  0
 22 46  1  0  0  0  0
 23 39  1  0  0  0  0
 24 56  1  0  0  0  0
 25 83  1  0  0  0  0
 26 84  1  0  0  0  0
 27 29  2  0  0  0  0
 27 83  1  0  0  0  0
 28 85  1  0  0  0  0
 29 86  1  0  0  0  0
 30 67  2  0  0  0  0
 31 69  1  0  0  0  0
 31 72  1  0  0  0  0
 32 73  1  0  0  0  0
 32 78  2  0  0  0  0
 33 47  1  0  0  0  0
 33 74  1  0  0  0  0
 33 79  2  0  0  0  0
 34 63  1  0  0  0  0
 34 70  1  0  0  0  0
 34 80  2  0  0  0  0
 35 64  1  0  0  0  0
 35 75  1  0  0  0  0
 35 81  2  0  0  0  0
 36 71  1  0  0  0  0
 36 76  1  0  0  0  0
 36 82  2  0  0  0  0
 37 40  1  0  0  0  0
 38 47  1  0  0  0  0
 39 70  1  0  0  0  0
 40 42  1  0  0  0  0
 41 43  1  0  0  0  0
 41 44  1  0  0  0  0
 42 46  1  0  0  0  0
 43 48  1  0  0  0  0
 44 71  1  0  0  0  0
 45 48  1  0  0  0  0
 45 71  1  0  0  0  0
 46 74  1  0  0  0  0
 47 70  1  0  0  0  0
 48 69  1  0  0  0  0
 49 64  1  0  0  0  0
 50 65  1  0  0  0  0
 51 65  1  0  0  0  0
 52 65  1  0  0  0  0
 53 66  1  0  0  0  0
 54 66  1  0  0  0  0
 55 77  1  0  0  0  0
 56 76  1  0  0  0  0
 57 58  1  0  0  0  0
 57 59  1  0  0  0  0
 58 60  1  0  0  0  0
 59 62  1  0  0  0  0
 60 66  1  0  0  0  0
 61 66  1  0  0  0  0
 61 68  1  0  0  0  0
 62 84  1  0  0  0  0
 63 65  1  0  0  0  0
 63 75  1  0  0  0  0
 64 77  1  0  0  0  0
 67 69  1  0  0  0  0
M  CHG  1  77   1
M  ISO  4  36 100  62 101  76 100  84 101
M  END
> <Batch ID>
0050

> <Smiles>
CNC(C)C(=O)NC(C(=O)N1Cc2cc([101O:1][101CH2:1]CCCCC(C)(C)Cn3ccc(C[100NH:0][100C:0](=O)N4CCCC(n5nc(-c6ccc(Oc7ccc(F)cc7F)cc6)c(C(N)=O)c5N)C4)c3)ccc2CC1C(=O)NC1CCCc2ccccc21)C(C)(C)C

> <Shape>
0.196

> <Color>
0.055

> <Negative vol penalty>
0.000

$$$$

  -OEChem-04052317313D

 82 90  0     1  0  0  0  0  0999 V2000
  -23.0331  -19.9899   28.1058 C   0  0  0  0  0  0  0  0  0  0  0  0
  -24.2626  -20.5359   27.7514 C   0  0  0  0  0  0  0  0  0  0  0  0
  -26.5092  -12.5480   21.6688 C   0  0  0  0  0  0  0  0  0  0  0  0
  -25.9764  -13.6677   19.5953 C   0  0  0  0  0  0  0  0  0  0  0  0
  -21.9520  -20.0829   27.2302 C   0  0  0  0  0  0  0  0  0  0  0  0
  -24.4121  -21.1741   26.5207 C   0  0  0  0  0  0  0  0  0  0  0  0
  -27.9711  -26.5644   23.4230 C   0  0  0  0  0  0  0  0  0  0  0  0
  -25.2277  -11.9984   21.7014 C   0  0  0  0  0  0  0  0  0  0  0  0
  -24.6948  -13.1181   19.6278 C   0  0  0  0  0  0  0  0  0  0  0  0
  -28.7847  -26.8255   22.3214 C   0  0  0  0  0  0  0  0  0  0  0  0
  -23.5741   -9.4450   20.2255 C   0  0  0  0  0  0  0  0  0  0  0  0
  -23.4571   -8.0912   20.5403 C   0  0  0  0  0  0  0  0  0  0  0  0
  -26.8265  -26.9955   20.9230 C   0  0  0  0  0  0  0  0  0  0  0  0
  -22.0988   -8.6543   22.4573 C   0  0  0  0  0  0  0  0  0  0  0  0
  -28.6054  -22.5744   19.5911 C   0  0  0  0  0  0  0  0  0  0  0  0
  -26.8836  -13.3827   20.6158 C   0  0  0  0  0  0  0  0  0  0  0  0
  -29.3558  -13.3961   19.9868 C   0  0  0  0  0  0  0  0  0  0  0  0
  -22.0857  -20.7311   25.9922 C   0  0  0  0  0  0  0  0  0  0  0  0
  -26.5773  -26.5060   23.2805 C   0  0  0  0  0  0  0  0  0  0  0  0
  -23.3322  -21.2747   25.6271 C   0  0  0  0  0  0  0  0  0  0  0  0
  -25.9972  -26.7361   22.0249 C   0  0  0  0  0  0  0  0  0  0  0  0
  -24.3205  -12.2834   20.6809 C   0  0  0  0  0  0  0  0  0  0  0  0
  -28.2127  -27.0382   21.0706 C   0  0  0  0  0  0  0  0  0  0  0  0
  -22.9535  -10.4035   21.0266 C   0  0  0  0  0  0  0  0  0  0  0  0
  -22.7195   -7.6958   21.6561 C   0  0  0  0  0  0  0  0  0  0  0  0
  -22.2158  -10.0082   22.1424 C   0  0  0  0  0  0  0  0  0  0  0  0
  -28.2072  -13.9512   20.5819 C   0  0  0  0  0  0  0  0  0  0  0  0
  -29.6198  -21.6682   19.3735 C   0  0  0  0  0  0  0  0  0  0  0  0
  -29.7369  -24.1362   18.3622 C   0  0  0  0  0  0  0  0  0  0  0  0
  -30.7517  -23.2303   18.1452 C   0  0  0  0  0  0  0  0  0  0  0  0
  -30.3465  -14.3163   20.2281 C   0  0  0  0  0  0  0  0  0  0  0  0
  -29.5132  -12.1592   19.2789 C   0  0  0  0  0  0  0  0  0  0  0  0
  -24.3704  -24.2595   23.7125 C   0  0  0  0  0  0  0  0  0  0  0  0
  -30.1573  -20.2231   21.3170 C   0  0  0  0  0  0  0  0  0  0  0  0
  -22.3247  -26.6992   23.0921 C   0  0  0  0  0  0  0  0  0  0  0  0
  -21.8011  -29.7432   21.6406 C   0  0  0  0  0  0  0  0  0  0  0  0
  -20.9014  -20.7651   25.0590 C   0  0  0  0  0  0  0  0  0  0  0  0
  -25.7120  -26.2497   24.4839 C   0  0  0  0  0  0  0  0  0  0  0  0
  -24.5051  -26.7043   21.8228 C   0  0  0  0  0  0  0  0  0  0  0  0
  -21.0424  -21.7862   23.9330 C   0  0  0  0  0  0  0  0  0  0  0  0
  -31.6594  -17.6841   23.3510 C   0  0  0  0  0  0  0  0  0  0  0  0
  -22.4234  -21.6875   23.2927 C   0  0  0  0  0  0  0  0  0  0  0  0
  -31.0274  -16.3914   22.8365 C   0  0  0  0  0  0  0  0  0  0  0  0
  -30.6714  -18.8455   23.3050 C   0  0  0  0  0  0  0  0  0  0  0  0
  -29.4367  -17.7865   21.4407 C   0  0  0  0  0  0  0  0  0  0  0  0
  -23.5271  -21.9965   24.3115 C   0  0  1  0  0  0  0  0  0  0  0  0
  -24.3336  -25.7043   24.1235 C   0  0  1  0  0  0  0  0  0  0  0  0
  -30.4105  -16.5949   21.4413 C   0  0  2  0  0  0  0  0  0  0  0  0
  -32.7859  -22.3650   16.9621 C   0  0  0  0  0  0  0  0  0  0  0  0
  -20.0162  -31.4675   21.2690 C   0  0  0  0  0  0  0  0  0  0  0  0
  -21.0751  -24.9376   20.9368 C   0  0  0  0  0  0  0  0  0  0  0  0
  -19.9873  -26.9852   19.9922 C   0  0  0  0  0  0  0  0  0  0  0  0
  -19.4326  -26.2348   22.3056 C   0  0  0  0  0  0  0  0  0  0  0  0
  -23.3263  -31.8078   23.1139 C   0  0  0  0  0  0  0  0  0  0  0  0
  -29.5409  -20.2950   19.9427 C   0  0  0  0  0  0  0  0  0  0  0  0
  -29.7945  -25.5322   17.7952 C   0  0  0  0  0  0  0  0  0  0  0  0
  -31.9538  -23.5881   17.3397 C   0  0  0  0  0  0  0  0  0  0  0  0
  -30.7381  -26.4670   18.5550 C   0  0  0  0  0  0  0  0  0  0  0  0
  -30.3099  -26.7161   19.9965 C   0  0  0  0  0  0  0  0  0  1  0  0
  -21.6917  -27.2735   21.8477 C   0  0  1  0  0  0  0  0  0  0  0  0
  -21.1561  -31.0125   22.1670 C   0  0  2  0  0  0  0  0  0  0  0  0
  -20.5749  -26.3565   21.2737 C   0  0  0  0  0  0  0  0  0  0  0  0
  -28.6457  -23.8246   19.0893 N   0  0  0  0  0  0  0  0  0  0  0  0
  -28.4447  -15.1325   21.1582 N   0  0  0  0  0  0  0  0  0  0  0  0
  -30.7112  -21.9799   18.6466 N   0  0  0  0  0  0  0  0  0  0  0  0
  -29.7541  -15.3272   20.9263 N   0  0  0  0  0  0  0  0  0  0  0  0
  -23.7018  -26.4436   23.0288 N   0  0  0  0  0  0  0  0  0  0  0  0
  -30.0909  -18.9917   21.9690 N   0  0  0  0  0  0  0  0  0  0  0  0
  -31.6578  -14.3513   19.9093 N   0  0  0  0  0  0  0  0  0  0  0  0
  -28.3926  -11.3323   19.1212 N   0  0  0  0  0  0  0  0  0  0  0  0
  -23.6306  -23.4238   24.5272 N   0  0  0  0  0  0  0  0  0  0  0  0
  -21.2404  -28.6150   22.2012 N   0  0  0  0  0  0  0  0  0  0  0  0
  -22.1607  -32.1106   22.2440 N   0  3  0  0  0  0  0  0  0  0  0  0
  -30.6186  -11.7902   18.8147 O   0  0  0  0  0  0  0  0  0  0  0  0
  -25.0207  -23.9276   22.7283 O   0  0  0  0  0  0  0  0  0  0  0  0
  -30.6844  -21.2316   21.7939 O   0  0  0  0  0  0  0  0  0  0  0  0
  -21.6244  -26.4919   24.0863 O   0  0  0  0  0  0  0  0  0  0  0  0
  -22.7089  -29.7514   20.8121 O   0  0  0  0  0  0  0  0  0  0  0  0
  -23.0699  -11.7471   20.7122 O   0  0  0  0  0  0  0  0  0  0  0  0
  -29.0046  -27.2926   19.9935 O   0  0  0  0  0  0  0  0  0  1  0  0
  -22.6059   -6.3956   21.9575 F   0  0  0  0  0  0  0  0  0  0  0  0
  -21.6163  -10.9243   22.9152 F   0  0  0  0  0  0  0  0  0  0  0  0
  1  2  1  0  0  0  0
  1  5  2  0  0  0  0
  2  6  2  0  0  0  0
  3  8  2  0  0  0  0
  3 16  1  0  0  0  0
  4  9  1  0  0  0  0
  4 16  2  0  0  0  0
  5 18  1  0  0  0  0
  6 20  1  0  0  0  0
  7 10  2  0  0  0  0
  7 19  1  0  0  0  0
  8 22  1  0  0  0  0
  9 22  2  0  0  0  0
 10 23  1  0  0  0  0
 11 12  2  0  0  0  0
 11 24  1  0  0  0  0
 12 25  1  0  0  0  0
 13 21  1  0  0  0  0
 13 23  2  0  0  0  0
 14 25  2  0  0  0  0
 14 26  1  0  0  0  0
 15 28  1  0  0  0  0
 15 63  2  0  0  0  0
 16 27  1  0  0  0  0
 17 27  1  0  0  0  0
 17 31  2  0  0  0  0
 17 32  1  0  0  0  0
 18 20  2  0  0  0  0
 18 37  1  0  0  0  0
 19 21  2  0  0  0  0
 19 38  1  0  0  0  0
 20 46  1  0  0  0  0
 21 39  1  0  0  0  0
 22 79  1  0  0  0  0
 23 80  1  0  0  0  0
 24 26  2  0  0  0  0
 24 79  1  0  0  0  0
 25 81  1  0  0  0  0
 26 82  1  0  0  0  0
 27 64  2  0  0  0  0
 28 55  1  0  0  0  0
 28 65  2  0  0  0  0
 29 30  2  0  0  0  0
 29 56  1  0  0  0  0
 29 63  1  0  0  0  0
 30 57  1  0  0  0  0
 30 65  1  0  0  0  0
 31 66  1  0  0  0  0
 31 69  1  0  0  0  0
 32 70  1  0  0  0  0
 32 74  2  0  0  0  0
 33 47  1  0  0  0  0
 33 71  1  0  0  0  0
 33 75  2  0  0  0  0
 34 55  1  0  0  0  0
 34 68  1  0  0  0  0
 34 76  2  0  0  0  0
 35 60  1  0  0  0  0
 35 67  1  0  0  0  0
 35 77  2  0  0  0  0
 36 61  1  0  0  0  0
 36 72  1  0  0  0  0
 36 78  2  0  0  0  0
 37 40  1  0  0  0  0
 38 47  1  0  0  0  0
 39 67  1  0  0  0  0
 40 42  1  0  0  0  0
 41 43  1  0  0  0  0
 41 44  1  0  0  0  0
 42 46  1  0  0  0  0
 43 48  1  0  0  0  0
 44 68  1  0  0  0  0
 45 48  1  0  0  0  0
 45 68  1  0  0  0  0
 46 71  1  0  0  0  0
 47 67  1  0  0  0  0
 48 66  1  0  0  0  0
 49 57  1  0  0  0  0
 50 61  1  0  0  0  0
 51 62  1  0  0  0  0
 52 62  1  0  0  0  0
 53 62  1  0  0  0  0
 54 73  1  0  0  0  0
 56 58  1  0  0  0  0
 58 59  1  0  0  0  0
 59 80  1  0  0  0  0
 60 62  1  0  0  0  0
 60 72  1  0  0  0  0
 61 73  1  0  0  0  0
 64 66  1  0  0  0  0
M  CHG  1  73   1
M  ISO  4  34 100  55 100  59 101  80 101
M  END
> <Batch ID>
0050

> <Smiles>
CCc1nc([100CH2:0][100C:0](=O)N2CCCC(n3nc(-c4ccc(Oc5ccc(F)cc5F)cc4)c(C(N)=O)c3N)C2)cnc1CC[101CH2:1][101O:1]c1ccc2c(c1)CN(C(=O)C(NC(=O)C(C)NC)C(C)(C)C)C(C(=O)NC1CCCc3ccccc31)C2

> <Shape>
0.280

> <Color>
0.079

> <Negative vol penalty>
0.000

$$$$

  -OEChem-04052317313D

 83 91  0     1  0  0  0  0  0999 V2000
  -22.4463  -10.7728   20.3402 C   0  0  0  0  0  0  0  0  0  0  0  0
  -21.9363  -11.9454   20.8881 C   0  0  0  0  0  0  0  0  0  0  0  0
  -30.3566  -27.3436   18.3425 C   0  0  0  0  0  0  0  0  0  0  0  0
  -31.1076  -28.1507   20.4923 C   0  0  0  0  0  0  0  0  0  0  0  0
  -23.8154  -10.6523   20.1056 C   0  0  0  0  0  0  0  0  0  0  0  0
  -22.7952  -12.9979   21.2028 C   0  0  0  0  0  0  0  0  0  0  0  0
  -21.5826  -18.9870   20.7959 C   0  0  0  0  0  0  0  0  0  0  0  0
  -31.6479  -27.4907   17.8361 C   0  0  0  0  0  0  0  0  0  0  0  0
  -32.3990  -28.2978   19.9859 C   0  0  0  0  0  0  0  0  0  0  0  0
  -21.1930  -19.9317   21.7443 C   0  0  0  0  0  0  0  0  0  0  0  0
  -34.8249  -27.3123   16.0783 C   0  0  0  0  0  0  0  0  0  0  0  0
  -35.3411  -26.2718   15.3060 C   0  0  0  0  0  0  0  0  0  0  0  0
  -21.5695  -28.3337   21.8378 C   0  0  0  0  0  0  0  0  0  0  0  0
  -23.4947  -20.6013   22.0143 C   0  0  0  0  0  0  0  0  0  0  0  0
  -35.0922  -24.7611   17.1750 C   0  0  0  0  0  0  0  0  0  0  0  0
  -20.3419  -27.9050   21.3755 C   0  0  0  0  0  0  0  0  0  0  0  0
  -30.0864  -27.6737   19.6706 C   0  0  0  0  0  0  0  0  0  0  0  0
  -28.2065  -26.3822   20.8132 C   0  0  0  0  0  0  0  0  0  0  0  0
  -24.6904  -11.7074   20.4087 C   0  0  0  0  0  0  0  0  0  0  0  0
  -22.9348  -18.8346   20.4570 C   0  0  0  0  0  0  0  0  0  0  0  0
  -24.1775  -12.8908   20.9733 C   0  0  0  0  0  0  0  0  0  0  0  0
  -23.8986  -19.6557   21.0594 C   0  0  0  0  0  0  0  0  0  0  0  0
  -32.6691  -27.9678   18.6578 C   0  0  0  0  0  0  0  0  0  0  0  0
  -22.1493  -20.7370   22.3558 C   0  0  0  0  0  0  0  0  0  0  0  0
  -34.4424  -27.0773   17.3990 C   0  0  0  0  0  0  0  0  0  0  0  0
  -35.4747  -24.9962   15.8543 C   0  0  0  0  0  0  0  0  0  0  0  0
  -34.5760  -25.8017   17.9473 C   0  0  0  0  0  0  0  0  0  0  0  0
  -28.7525  -27.5225   20.1941 C   0  0  0  0  0  0  0  0  0  0  0  0
  -21.9368  -27.8623   23.0816 C   0  0  0  0  0  0  0  0  0  0  0  0
  -26.9196  -26.7452   21.1274 C   0  0  0  0  0  0  0  0  0  0  0  0
  -19.9984  -26.6893   23.2652 C   0  0  0  0  0  0  0  0  0  0  0  0
  -28.8086  -25.1087   21.0804 C   0  0  0  0  0  0  0  0  0  0  0  0
  -25.0473  -16.4689   20.6678 C   0  0  0  0  0  0  0  0  0  0  0  0
  -26.9373  -18.5321   19.0266 C   0  0  0  0  0  0  0  0  0  0  0  0
  -27.6499  -21.7602   18.1789 C   0  0  0  0  0  0  0  0  0  0  0  0
  -23.6135  -30.7632   23.4170 C   0  0  0  0  0  0  0  0  0  0  0  0
  -26.1686  -11.5127   20.1813 C   0  0  0  0  0  0  0  0  0  0  0  0
  -23.3358  -17.8294   19.4124 C   0  0  0  0  0  0  0  0  0  0  0  0
  -25.3609  -19.5456   20.7157 C   0  0  0  0  0  0  0  0  0  0  0  0
  -26.9637  -12.8158   20.1949 C   0  0  0  0  0  0  0  0  0  0  0  0
  -24.1865  -30.7645   19.7600 C   0  0  0  0  0  0  0  0  0  0  0  0
  -26.5558  -13.6776   21.3855 C   0  0  0  0  0  0  0  0  0  0  0  0
  -25.4254  -29.8822   19.6167 C   0  0  0  0  0  0  0  0  0  0  0  0
  -24.1454  -31.4692   21.1126 C   0  0  0  0  0  0  0  0  0  0  0  0
  -25.4941  -29.6649   22.1324 C   0  0  0  0  0  0  0  0  0  0  0  0
  -25.0740  -14.0639   21.3051 C   0  0  1  0  0  0  0  0  0  0  0  0
  -24.7976  -17.4063   19.5204 C   0  0  1  0  0  0  0  0  0  0  0  0
  -25.5422  -28.9042   20.7987 C   0  0  2  0  0  0  0  0  0  0  0  0
  -28.7880  -23.6612   17.0008 C   0  0  0  0  0  0  0  0  0  0  0  0
  -29.0335  -18.1538   21.2113 C   0  0  0  0  0  0  0  0  0  0  0  0
  -30.1855  -20.2092   20.3649 C   0  0  0  0  0  0  0  0  0  0  0  0
  -29.9502  -18.2147   18.8853 C   0  0  0  0  0  0  0  0  0  0  0  0
  -22.5002  -29.8421   25.4149 C   0  0  0  0  0  0  0  0  0  0  0  0
  -25.7508  -21.6449   15.9119 C   0  0  0  0  0  0  0  0  0  0  0  0
  -23.2472  -28.2718   23.6652 C   0  0  0  0  0  0  0  0  0  0  0  0
  -19.1157  -25.7666   24.0674 C   0  0  0  0  0  0  0  0  0  0  0  0
  -19.1216  -24.3168   23.5702 C   0  0  0  0  0  0  0  0  0  0  0  0
  -20.4947  -23.6522   23.6790 C   0  0  0  0  0  0  0  0  0  0  0  0
  -20.4709  -22.2284   23.1397 C   0  0  0  0  0  0  0  0  0  1  0  0
  -27.9135  -19.6197   19.4049 C   0  0  1  0  0  0  0  0  0  0  0  0
  -27.9414  -22.4085   16.8375 C   0  0  2  0  0  0  0  0  0  0  0  0
  -29.2434  -19.0503   19.9747 C   0  0  0  0  0  0  0  0  0  0  0  0
  -19.5276  -27.0797   22.0655 N   0  0  0  0  0  0  0  0  0  0  0  0
  -27.8836  -28.5341   20.1184 N   0  0  0  0  0  0  0  0  0  0  0  0
  -21.1729  -27.0358   23.8257 N   0  0  0  0  0  0  0  0  0  0  0  0
  -26.7785  -28.0306   20.6940 N   0  0  0  0  0  0  0  0  0  0  0  0
  -25.7038  -18.5435   19.6931 N   0  0  0  0  0  0  0  0  0  0  0  0
  -24.3018  -30.5217   22.2167 N   0  0  0  0  0  0  0  0  0  0  0  0
  -25.9063  -26.0869   21.7293 N   0  0  0  0  0  0  0  0  0  0  0  0
  -30.1395  -24.9042   20.6914 N   0  0  0  0  0  0  0  0  0  0  0  0
  -24.8819  -15.1343   20.3502 N   0  0  0  0  0  0  0  0  0  0  0  0
  -28.0795  -20.4505   18.2172 N   0  0  0  0  0  0  0  0  0  0  0  0
  -23.2264  -29.6435   24.1687 N   0  0  0  0  0  0  0  0  0  0  0  0
  -26.6702  -22.7857   16.1573 N   0  3  0  0  0  0  0  0  0  0  0  0
  -28.1799  -24.1743   21.6325 O   0  0  0  0  0  0  0  0  0  0  0  0
  -25.3679  -16.9228   21.7600 O   0  0  0  0  0  0  0  0  0  0  0  0
  -27.2547  -17.7072   18.1661 O   0  0  0  0  0  0  0  0  0  0  0  0
  -27.0997  -22.3570   19.1017 O   0  0  0  0  0  0  0  0  0  0  0  0
  -23.3512  -31.9137   23.7904 O   0  0  0  0  0  0  0  0  0  0  0  0
  -33.9294  -28.1112   18.1641 O   0  0  0  0  0  0  0  0  0  0  0  0
  -21.7718  -21.6594   23.2823 O   0  0  0  0  0  0  0  0  0  1  0  0
  -35.9690  -23.9967   15.1121 F   0  0  0  0  0  0  0  0  0  0  0  0
  -34.2092  -25.5696   19.2151 F   0  0  0  0  0  0  0  0  0  0  0  0
  1  2  1  0  0  0  0
  1  5  2  0  0  0  0
  2  6  2  0  0  0  0
  3  8  2  0  0  0  0
  3 17  1  0  0  0  0
  4  9  1  0  0  0  0
  4 17  2  0  0  0  0
  5 19  1  0  0  0  0
  6 21  1  0  0  0  0
  7 10  2  0  0  0  0
  7 20  1  0  0  0  0
  8 23  1  0  0  0  0
  9 23  2  0  0  0  0
 10 24  1  0  0  0  0
 11 12  2  0  0  0  0
 11 25  1  0  0  0  0
 12 26  1  0  0  0  0
 13 16  1  0  0  0  0
 13 29  2  0  0  0  0
 14 22  1  0  0  0  0
 14 24  2  0  0  0  0
 15 26  2  0  0  0  0
 15 27  1  0  0  0  0
 16 63  2  0  0  0  0
 17 28  1  0  0  0  0
 18 28  1  0  0  0  0
 18 30  2  0  0  0  0
 18 32  1  0  0  0  0
 19 21  2  0  0  0  0
 19 37  1  0  0  0  0
 20 22  2  0  0  0  0
 20 38  1  0  0  0  0
 21 46  1  0  0  0  0
 22 39  1  0  0  0  0
 23 80  1  0  0  0  0
 24 81  1  0  0  0  0
 25 27  2  0  0  0  0
 25 80  1  0  0  0  0
 26 82  1  0  0  0  0
 27 83  1  0  0  0  0
 28 64  2  0  0  0  0
 29 55  1  0  0  0  0
 29 65  1  0  0  0  0
 30 66  1  0  0  0  0
 30 69  1  0  0  0  0
 31 56  1  0  0  0  0
 31 63  1  0  0  0  0
 31 65  2  0  0  0  0
 32 70  1  0  0  0  0
 32 75  2  0  0  0  0
 33 47  1  0  0  0  0
 33 71  1  0  0  0  0
 33 76  2  0  0  0  0
 34 60  1  0  0  0  0
 34 67  1  0  0  0  0
 34 77  2  0  0  0  0
 35 61  1  0  0  0  0
 35 72  1  0  0  0  0
 35 78  2  0  0  0  0
 36 68  1  0  0  0  0
 36 73  1  0  0  0  0
 36 79  2  0  0  0  0
 37 40  1  0  0  0  0
 38 47  1  0  0  0  0
 39 67  1  0  0  0  0
 40 42  1  0  0  0  0
 41 43  1  0  0  0  0
 41 44  1  0  0  0  0
 42 46  1  0  0  0  0
 43 48  1  0  0  0  0
 44 68  1  0  0  0  0
 45 48  1  0  0  0  0
 45 68  1  0  0  0  0
 46 71  1  0  0  0  0
 47 67  1  0  0  0  0
 48 66  1  0  0  0  0
 49 61  1  0  0  0  0
 50 62  1  0  0  0  0
 51 62  1  0  0  0  0
 52 62  1  0  0  0  0
 53 73  1  0  0  0  0
 54 74  1  0  0  0  0
 55 73  1  0  0  0  0
 56 57  1  0  0  0  0
 57 58  1  0  0  0  0
 58 59  1  0  0  0  0
 59 81  1  0  0  0  0
 60 62  1  0  0  0  0
 60 72  1  0  0  0  0
 61 74  1  0  0  0  0
 64 66  1  0  0  0  0
M  CHG  1  74   1
M  ISO  4  36 100  59 101  73 100  81 101
M  END
> <Batch ID>
0050

> <Smiles>
CNC(C)C(=O)NC(C(=O)N1Cc2cc([101O:1][101CH2:1]CCCc3nccc(C[100N:0](C)[100C:0](=O)N4CCCC(n5nc(-c6ccc(Oc7ccc(F)cc7F)cc6)c(C(N)=O)c5N)C4)n3)ccc2CC1C(=O)NC1CCCc2ccccc21)C(C)(C)C

> <Shape>
0.229

> <Color>
0.073

> <Negative vol penalty>
0.000

$$$$

  -OEChem-04052317313D

 89 97  0     1  0  0  0  0  0999 V2000
  -24.1935  -31.2868   21.6925 C   0  0  0  0  0  0  0  0  0  0  0  0
  -23.3827  -30.8624   20.6459 C   0  0  0  0  0  0  0  0  0  0  0  0
  -28.2654  -20.6728   17.9683 C   0  0  0  0  0  0  0  0  0  0  0  0
  -27.9816  -20.8464   20.3613 C   0  0  0  0  0  0  0  0  0  0  0  0
  -25.4149  -30.6571   21.9225 C   0  0  0  0  0  0  0  0  0  0  0  0
  -23.7875  -29.8005   19.8363 C   0  0  0  0  0  0  0  0  0  0  0  0
  -24.2422  -22.1167   19.9230 C   0  0  0  0  0  0  0  0  0  0  0  0
  -28.3439  -22.0624   17.8768 C   0  0  0  0  0  0  0  0  0  0  0  0
  -28.0601  -22.2360   20.2698 C   0  0  0  0  0  0  0  0  0  0  0  0
  -24.4906  -21.2677   21.0006 C   0  0  0  0  0  0  0  0  0  0  0  0
  -28.9803  -25.5464   17.0572 C   0  0  0  0  0  0  0  0  0  0  0  0
  -29.9842  -26.0878   16.2542 C   0  0  0  0  0  0  0  0  0  0  0  0
  -22.9982  -22.5784   22.3695 C   0  0  0  0  0  0  0  0  0  0  0  0
  -31.6592  -25.0111   17.6225 C   0  0  0  0  0  0  0  0  0  0  0  0
  -28.0842  -20.0648   19.2106 C   0  0  0  0  0  0  0  0  0  0  0  0
  -29.0668  -17.7282   19.4976 C   0  0  0  0  0  0  0  0  0  0  0  0
  -25.8397  -29.5951   21.1071 C   0  0  0  0  0  0  0  0  0  0  0  0
  -23.3768  -23.2111   20.0638 C   0  0  0  0  0  0  0  0  0  0  0  0
  -25.0058  -29.1364   20.0672 C   0  0  0  0  0  0  0  0  0  0  0  0
  -22.7384  -23.4383   21.2914 C   0  0  0  0  0  0  0  0  0  0  0  0
  -28.2412  -22.8440   19.0275 C   0  0  0  0  0  0  0  0  0  0  0  0
  -23.8709  -21.5002   22.2249 C   0  0  0  0  0  0  0  0  0  0  0  0
  -29.3159  -24.7374   18.1429 C   0  0  0  0  0  0  0  0  0  0  0  0
  -31.3236  -25.8201   16.5369 C   0  0  0  0  0  0  0  0  0  0  0  0
  -30.6553  -24.4697   18.4255 C   0  0  0  0  0  0  0  0  0  0  0  0
  -28.0025  -18.6294   19.3057 C   0  0  0  0  0  0  0  0  0  0  0  0
  -25.1227  -18.7819   24.3204 C   0  0  0  0  0  0  0  0  0  0  0  0
  -25.8042  -19.0901   25.4741 C   0  0  0  0  0  0  0  0  0  0  0  0
  -28.4701  -16.4912   19.5174 C   0  0  0  0  0  0  0  0  0  0  0  0
  -24.7912  -17.1394   25.6330 C   0  0  0  0  0  0  0  0  0  0  0  0
  -30.4695  -17.9861   19.6448 C   0  0  0  0  0  0  0  0  0  0  0  0
  -23.6915  -26.3650   19.8237 C   0  0  0  0  0  0  0  0  0  0  0  0
  -22.8704  -14.7585   20.8413 C   0  0  0  0  0  0  0  0  0  0  0  0
  -20.4717  -26.3248   20.2151 C   0  0  0  0  0  0  0  0  0  0  0  0
  -17.7159  -24.6883   21.3874 C   0  0  0  0  0  0  0  0  0  0  0  0
  -27.1674  -28.9444   21.4056 C   0  0  0  0  0  0  0  0  0  0  0  0
  -23.0986  -24.1019   18.8842 C   0  0  0  0  0  0  0  0  0  0  0  0
  -21.7851  -24.5875   21.4887 C   0  0  0  0  0  0  0  0  0  0  0  0
  -27.7084  -28.1326   20.2332 C   0  0  0  0  0  0  0  0  0  0  0  0
  -24.6856  -14.1233   17.8177 C   0  0  0  0  0  0  0  0  0  0  0  0
  -26.6277  -27.2028   19.7020 C   0  0  0  0  0  0  0  0  0  0  0  0
  -25.8221  -15.1440   17.8602 C   0  0  0  0  0  0  0  0  0  0  0  0
  -23.4061  -14.6866   18.4284 C   0  0  0  0  0  0  0  0  0  0  0  0
  -24.7090  -16.2216   19.8665 C   0  0  0  0  0  0  0  0  0  0  0  0
  -25.4393  -28.0035   19.1546 C   0  0  1  0  0  0  0  0  0  0  0  0
  -22.5982  -25.4860   19.2855 C   0  0  1  0  0  0  0  0  0  0  0  0
  -26.0288  -15.6821   19.2871 C   0  0  2  0  0  0  0  0  0  0  0  0
  -28.8527  -21.4570   25.5748 C   0  0  0  0  0  0  0  0  0  0  0  0
  -19.1204  -16.4091   25.9483 C   0  0  0  0  0  0  0  0  0  0  0  0
  -25.0373  -18.1602   28.7024 C   0  0  0  0  0  0  0  0  0  0  0  0
  -15.2261  -24.9225   21.5959 C   0  0  0  0  0  0  0  0  0  0  0  0
  -20.8520  -28.2956   22.5131 C   0  0  0  0  0  0  0  0  0  0  0  0
  -18.5257  -27.7585   23.2667 C   0  0  0  0  0  0  0  0  0  0  0  0
  -18.9024  -28.7899   21.0268 C   0  0  0  0  0  0  0  0  0  0  0  0
  -17.2346  -22.2751   19.7430 C   0  0  0  0  0  0  0  0  0  0  0  0
  -25.0112  -19.5873   23.0593 C   0  0  0  0  0  0  0  0  0  1  0  0
  -26.6206  -20.2578   25.8518 C   0  0  0  0  0  0  0  0  0  0  0  0
  -24.3538  -15.8628   26.2345 C   0  0  0  0  0  0  0  0  0  0  0  0
  -23.1824  -15.3381   22.1980 C   0  0  0  0  0  0  0  0  0  0  0  0
  -28.0258  -20.2327   25.2151 C   0  0  0  0  0  0  0  0  0  0  0  0
  -20.3380  -16.3867   25.0386 C   0  0  0  0  0  0  0  0  0  0  0  0
  -26.0936  -17.8748   27.6488 C   0  0  0  0  0  0  0  0  0  0  0  0
  -23.7763  -14.8492   25.2367 C   0  0  0  0  0  0  0  0  0  0  0  0
  -22.2632  -14.7637   23.2608 C   0  0  0  0  0  0  0  0  0  0  0  0
  -21.3519  -15.3529   25.5020 C   0  0  0  0  0  0  0  0  0  0  0  0
  -19.5382  -26.3716   21.4006 C   0  0  1  0  0  0  0  0  0  0  0  0
  -16.3715  -24.3930   20.7471 C   0  0  2  0  0  0  0  0  0  0  0  0
  -19.4740  -27.7833   22.0490 C   0  0  0  0  0  0  0  0  0  0  0  0
  -26.8193  -18.0171   19.2103 N   0  0  0  0  0  0  0  0  0  0  0  0
  -24.4940  -17.5665   24.4258 N   0  0  0  0  0  0  0  0  0  0  0  0
  -25.5822  -18.0289   26.3057 N   0  0  0  0  0  0  0  0  0  0  0  0
  -27.1366  -16.7179   19.3426 N   0  0  0  0  0  0  0  0  0  0  0  0
  -21.5504  -25.4339   20.3072 N   0  0  0  0  0  0  0  0  0  0  0  0
  -23.6491  -15.2078   19.7747 N   0  0  0  0  0  0  0  0  0  0  0  0
  -28.9612  -15.2427   19.6669 N   0  0  0  0  0  0  0  0  0  0  0  0
  -30.9128  -19.3149   19.6002 N   0  0  0  0  0  0  0  0  0  0  0  0
  -24.3551  -27.0941   18.8554 N   0  0  0  0  0  0  0  0  0  0  0  0
  -18.2517  -25.8725   20.9270 N   0  0  0  0  0  0  0  0  0  0  0  0
  -16.1903  -22.9236   20.5772 N   0  3  0  0  0  0  0  0  0  0  0  0
  -22.5576  -15.4024   24.5960 N   0  3  1  0  0  0  0  0  0  0  0  0
  -31.3070  -17.0642   19.7945 O   0  0  0  0  0  0  0  0  0  0  0  0
  -23.9155  -26.3816   21.0284 O   0  0  0  0  0  0  0  0  0  0  0  0
  -21.9633  -13.9289   20.7351 O   0  0  0  0  0  0  0  0  0  0  0  0
  -20.2478  -27.0467   19.2402 O   0  0  0  0  0  0  0  0  0  0  0  0
  -18.2367  -23.9449   22.2159 O   0  0  0  0  0  0  0  0  0  0  0  0
  -28.3180  -24.2001   18.9386 O   0  0  0  0  0  0  0  0  0  0  0  0
  -24.1121  -20.6735   23.2786 O   0  0  0  0  0  0  0  0  0  1  0  0
  -32.2875  -26.3388   15.7648 F   0  0  0  0  0  0  0  0  0  0  0  0
  -30.9838  -23.6923   19.4664 F   0  0  0  0  0  0  0  0  0  0  0  0
  1  2  1  0  0  0  0
  1  5  2  0  0  0  0
  2  6  2  0  0  0  0
  3  8  2  0  0  0  0
  3 15  1  0  0  0  0
  4  9  1  0  0  0  0
  4 15  2  0  0  0  0
  5 17  1  0  0  0  0
  6 19  1  0  0  0  0
  7 10  2  0  0  0  0
  7 18  1  0  0  0  0
  8 21  1  0  0  0  0
  9 21  2  0  0  0  0
 10 22  1  0  0  0  0
 11 12  2  0  0  0  0
 11 23  1  0  0  0  0
 12 24  1  0  0  0  0
 13 20  1  0  0  0  0
 13 22  2  0  0  0  0
 14 24  2  0  0  0  0
 14 25  1  0  0  0  0
 15 26  1  0  0  0  0
 16 26  1  0  0  0  0
 16 29  2  0  0  0  0
 16 31  1  0  0  0  0
 17 19  2  0  0  0  0
 17 36  1  0  0  0  0
 18 20  2  0  0  0  0
 18 37  1  0  0  0  0
 19 45  1  0  0  0  0
 20 38  1  0  0  0  0
 21 86  1  0  0  0  0
 22 87  1  0  0  0  0
 23 25  2  0  0  0  0
 23 86  1  0  0  0  0
 24 88  1  0  0  0  0
 25 89  1  0  0  0  0
 26 69  2  0  0  0  0
 27 28  2  0  0  0  0
 27 56  1  0  0  0  0
 27 70  1  0  0  0  0
 28 57  1  0  0  0  0
 28 71  1  0  0  0  0
 29 72  1  0  0  0  0
 29 75  1  0  0  0  0
 30 58  1  0  0  0  0
 30 70  2  0  0  0  0
 30 71  1  0  0  0  0
 31 76  1  0  0  0  0
 31 81  2  0  0  0  0
 32 46  1  0  0  0  0
 32 77  1  0  0  0  0
 32 82  2  0  0  0  0
 33 59  1  0  0  0  0
 33 74  1  0  0  0  0
 33 83  2  0  0  0  0
 34 66  1  0  0  0  0
 34 73  1  0  0  0  0
 34 84  2  0  0  0  0
 35 67  1  0  0  0  0
 35 78  1  0  0  0  0
 35 85  2  0  0  0  0
 36 39  1  0  0  0  0
 37 46  1  0  0  0  0
 38 73  1  0  0  0  0
 39 41  1  0  0  0  0
 40 42  1  0  0  0  0
 40 43  1  0  0  0  0
 41 45  1  0  0  0  0
 42 47  1  0  0  0  0
 43 74  1  0  0  0  0
 44 47  1  0  0  0  0
 44 74  1  0  0  0  0
 45 77  1  0  0  0  0
 46 73  1  0  0  0  0
 47 72  1  0  0  0  0
 48 60  1  0  0  0  0
 49 61  1  0  0  0  0
 50 62  1  0  0  0  0
 51 67  1  0  0  0  0
 52 68  1  0  0  0  0
 53 68  1  0  0  0  0
 54 68  1  0  0  0  0
 55 79  1  0  0  0  0
 56 87  1  0  0  0  0
 57 60  1  0  0  0  0
 58 63  1  0  0  0  0
 59 64  1  0  0  0  0
 61 65  1  0  0  0  0
 62 71  1  0  0  0  0
 63 80  1  0  0  0  0
 64 80  1  0  0  0  0
 65 80  1  0  0  0  0
 66 68  1  0  0  0  0
 66 78  1  0  0  0  0
 67 79  1  0  0  0  0
 69 72  1  0  0  0  0
M  CHG  2  79   1  80   1
M  ISO  4  33 100  56 101  59 100  87 101
M  END
> <Batch ID>
0050

> <Smiles>
CCCc1c([101CH2:1][101O:1]c2ccc3c(c2)CN(C(=O)C(NC(=O)C(C)NC)C(C)(C)C)C(C(=O)NC2CCCc4ccccc42)C3)nc(CCN(CCC)C[100CH2:0][100C:0](=O)N2CCCC(n3nc(-c4ccc(Oc5ccc(F)cc5F)cc4)c(C(N)=O)c3N)C2)n1CC

> <Shape>
0.199

> <Color>
0.050

> <Negative vol penalty>
0.000

$$$$

  -OEChem-04052317313D

 83 91  0     1  0  0  0  0  0999 V2000
  -22.6198   -8.2522   20.7631 C   0  0  0  0  0  0  0  0  0  0  0  0
  -21.8787   -9.4278   20.6981 C   0  0  0  0  0  0  0  0  0  0  0  0
  -29.5924  -25.6719   18.4436 C   0  0  0  0  0  0  0  0  0  0  0  0
  -30.2312  -26.9225   20.4096 C   0  0  0  0  0  0  0  0  0  0  0  0
  -23.9137   -8.2730   21.2819 C   0  0  0  0  0  0  0  0  0  0  0  0
  -22.4308  -10.6247   21.1530 C   0  0  0  0  0  0  0  0  0  0  0  0
  -21.4990  -16.2204   18.8452 C   0  0  0  0  0  0  0  0  0  0  0  0
  -30.9376  -25.4754   18.1315 C   0  0  0  0  0  0  0  0  0  0  0  0
  -31.5764  -26.7260   20.0975 C   0  0  0  0  0  0  0  0  0  0  0  0
  -20.6570  -17.2641   19.2267 C   0  0  0  0  0  0  0  0  0  0  0  0
  -33.4610  -23.4642   19.1417 C   0  0  0  0  0  0  0  0  0  0  0  0
  -33.8567  -22.1833   18.7567 C   0  0  0  0  0  0  0  0  0  0  0  0
  -22.4723  -18.2713   20.4554 C   0  0  0  0  0  0  0  0  0  0  0  0
  -34.6006  -23.0528   16.6288 C   0  0  0  0  0  0  0  0  0  0  0  0
  -20.6843  -26.3520   19.3782 C   0  0  0  0  0  0  0  0  0  0  0  0
  -20.1528  -26.3603   21.5118 C   0  0  0  0  0  0  0  0  0  0  0  0
  -29.2392  -26.3955   19.5826 C   0  0  0  0  0  0  0  0  0  0  0  0
  -26.8822  -25.6092   20.1603 C   0  0  0  0  0  0  0  0  0  0  0  0
  -24.4855   -9.4725   21.7344 C   0  0  0  0  0  0  0  0  0  0  0  0
  -22.8332  -16.1886   19.2756 C   0  0  0  0  0  0  0  0  0  0  0  0
  -23.7331  -10.6613   21.6796 C   0  0  0  0  0  0  0  0  0  0  0  0
  -23.3298  -17.2275   20.0758 C   0  0  0  0  0  0  0  0  0  0  0  0
  -20.0857  -25.5743   20.3874 C   0  0  0  0  0  0  0  0  0  0  0  0
  -31.9296  -26.0024   18.9585 C   0  0  0  0  0  0  0  0  0  0  0  0
  -21.1428  -18.2883   20.0343 C   0  0  0  0  0  0  0  0  0  0  0  0
  -33.6350  -24.5394   18.2703 C   0  0  0  0  0  0  0  0  0  0  0  0
  -34.4265  -21.9776   17.5002 C   0  0  0  0  0  0  0  0  0  0  0  0
  -34.2048  -24.3337   17.0139 C   0  0  0  0  0  0  0  0  0  0  0  0
  -27.8498  -26.5993   19.9052 C   0  0  0  0  0  0  0  0  0  0  0  0
  -25.7298  -26.3123   20.4136 C   0  0  0  0  0  0  0  0  0  0  0  0
  -27.0133  -24.1814   20.1676 C   0  0  0  0  0  0  0  0  0  0  0  0
  -24.5714  -14.2043   21.0490 C   0  0  0  0  0  0  0  0  0  0  0  0
  -27.0016  -16.1602   20.1596 C   0  0  0  0  0  0  0  0  0  0  0  0
  -27.9930  -19.2410   19.0770 C   0  0  0  0  0  0  0  0  0  0  0  0
  -23.4288  -30.6654   23.2550 C   0  0  0  0  0  0  0  0  0  0  0  0
  -25.8703   -9.4370   22.3308 C   0  0  0  0  0  0  0  0  0  0  0  0
  -23.7359  -15.0696   18.8334 C   0  0  0  0  0  0  0  0  0  0  0  0
  -24.7599  -17.2506   20.5479 C   0  0  0  0  0  0  0  0  0  0  0  0
  -26.5197  -10.8137   22.4455 C   0  0  0  0  0  0  0  0  0  0  0  0
  -24.6324  -31.2020   19.7960 C   0  0  0  0  0  0  0  0  0  0  0  0
  -25.5380  -11.8192   23.0388 C   0  0  0  0  0  0  0  0  0  0  0  0
  -25.5522  -30.0027   19.5735 C   0  0  0  0  0  0  0  0  0  0  0  0
  -24.5596  -31.5956   21.2682 C   0  0  0  0  0  0  0  0  0  0  0  0
  -25.0922  -29.2791   21.9495 C   0  0  0  0  0  0  0  0  0  0  0  0
  -24.3064  -11.9840   22.1402 C   0  0  1  0  0  0  0  0  0  0  0  0
  -24.9367  -14.8716   19.7532 C   0  0  1  0  0  0  0  0  0  0  0  0
  -25.1512  -28.8278   20.4824 C   0  0  2  0  0  0  0  0  0  0  0  0
  -30.0474  -20.5505   18.4749 C   0  0  0  0  0  0  0  0  0  0  0  0
  -27.6663  -16.4742   23.1209 C   0  0  0  0  0  0  0  0  0  0  0  0
  -29.0535  -18.4718   22.5262 C   0  0  0  0  0  0  0  0  0  0  0  0
  -29.6557  -16.2246   21.6260 C   0  0  0  0  0  0  0  0  0  0  0  0
  -21.7448  -29.7930   24.8307 C   0  0  0  0  0  0  0  0  0  0  0  0
  -27.0580  -19.6525   16.2993 C   0  0  0  0  0  0  0  0  0  0  0  0
  -19.4992  -24.1906   20.2640 C   0  0  0  0  0  0  0  0  0  0  0  0
  -20.5061  -23.0655   20.5281 C   0  0  0  0  0  0  0  0  0  0  0  0
  -19.9130  -21.6709   20.3230 C   0  0  0  0  0  0  0  0  0  0  0  0
  -21.0580  -28.6532   21.9614 C   0  0  0  0  0  0  0  0  0  0  0  0
  -22.2900  -28.4446   22.8381 C   0  0  0  0  0  0  0  0  0  0  0  0
  -20.9293  -20.5801   20.6325 C   0  0  0  0  0  0  0  0  0  1  0  0
  -27.6203  -17.4187   20.7184 C   0  0  1  0  0  0  0  0  0  0  0  0
  -28.9266  -19.6627   17.9567 C   0  0  2  0  0  0  0  0  0  0  0  0
  -28.4714  -17.1462   21.9907 C   0  0  0  0  0  0  0  0  0  0  0  0
  -21.1009  -27.5408   19.8221 N   0  0  0  0  0  0  0  0  0  0  0  0
  -27.3552  -27.8373   19.9887 N   0  0  0  0  0  0  0  0  0  0  0  0
  -20.7635  -27.5161   21.1227 N   0  0  0  0  0  0  0  0  0  0  0  0
  -26.0642  -27.6296   20.2990 N   0  0  0  0  0  0  0  0  0  0  0  0
  -25.6014  -16.1310   20.0941 N   0  0  0  0  0  0  0  0  0  0  0  0
  -24.2191  -30.4510   22.1138 N   0  0  0  0  0  0  0  0  0  0  0  0
  -24.4733  -25.9262   20.7209 N   0  0  0  0  0  0  0  0  0  0  0  0
  -26.7913  -23.4839   18.9724 N   0  0  0  0  0  0  0  0  0  0  0  0
  -24.6186  -12.8240   21.0038 N   0  0  0  0  0  0  0  0  0  0  0  0
  -28.3636  -18.0299   19.6219 N   0  0  0  0  0  0  0  0  0  0  0  0
  -22.5919  -29.6145   23.6600 N   0  0  0  0  0  0  0  0  0  0  0  0
  -28.1757  -20.4153   16.9123 N   0  3  0  0  0  0  0  0  0  0  0  0
  -27.3021  -23.5417   21.2072 O   0  0  0  0  0  0  0  0  0  0  0  0
  -24.2706  -14.8909   22.0184 O   0  0  0  0  0  0  0  0  0  0  0  0
  -27.7340  -15.2397   19.7880 O   0  0  0  0  0  0  0  0  0  0  0  0
  -27.0334  -19.9201   19.4354 O   0  0  0  0  0  0  0  0  0  0  0  0
  -23.4618  -31.7385   23.8708 O   0  0  0  0  0  0  0  0  0  0  0  0
  -33.2424  -25.8106   18.6544 O   0  0  0  0  0  0  0  0  0  0  0  0
  -20.3230  -19.3079   20.4086 O   0  0  0  0  0  0  0  0  0  1  0  0
  -34.8079  -20.7477   17.1311 F   0  0  0  0  0  0  0  0  0  0  0  0
  -34.3756  -25.3629   16.1729 F   0  0  0  0  0  0  0  0  0  0  0  0
  1  2  1  0  0  0  0
  1  5  2  0  0  0  0
  2  6  2  0  0  0  0
  3  8  2  0  0  0  0
  3 17  1  0  0  0  0
  4  9  1  0  0  0  0
  4 17  2  0  0  0  0
  5 19  1  0  0  0  0
  6 21  1  0  0  0  0
  7 10  2  0  0  0  0
  7 20  1  0  0  0  0
  8 24  1  0  0  0  0
  9 24  2  0  0  0  0
 10 25  1  0  0  0  0
 11 12  2  0  0  0  0
 11 26  1  0  0  0  0
 12 27  1  0  0  0  0
 13 22  1  0  0  0  0
 13 25  2  0  0  0  0
 14 27  2  0  0  0  0
 14 28  1  0  0  0  0
 15 23  1  0  0  0  0
 15 63  2  0  0  0  0
 16 23  2  0  0  0  0
 16 65  1  0  0  0  0
 17 29  1  0  0  0  0
 18 29  1  0  0  0  0
 18 30  2  0  0  0  0
 18 31  1  0  0  0  0
 19 21  2  0  0  0  0
 19 36  1  0  0  0  0
 20 22  2  0  0  0  0
 20 37  1  0  0  0  0
 21 45  1  0  0  0  0
 22 38  1  0  0  0  0
 23 54  1  0  0  0  0
 24 80  1  0  0  0  0
 25 81  1  0  0  0  0
 26 28  2  0  0  0  0
 26 80  1  0  0  0  0
 27 82  1  0  0  0  0
 28 83  1  0  0  0  0
 29 64  2  0  0  0  0
 30 66  1  0  0  0  0
 30 69  1  0  0  0  0
 31 70  1  0  0  0  0
 31 75  2  0  0  0  0
 32 46  1  0  0  0  0
 32 71  1  0  0  0  0
 32 76  2  0  0  0  0
 33 60  1  0  0  0  0
 33 67  1  0  0  0  0
 33 77  2  0  0  0  0
 34 61  1  0  0  0  0
 34 72  1  0  0  0  0
 34 78  2  0  0  0  0
 35 68  1  0  0  0  0
 35 73  1  0  0  0  0
 35 79  2  0  0  0  0
 36 39  1  0  0  0  0
 37 46  1  0  0  0  0
 38 67  1  0  0  0  0
 39 41  1  0  0  0  0
 40 42  1  0  0  0  0
 40 43  1  0  0  0  0
 41 45  1  0  0  0  0
 42 47  1  0  0  0  0
 43 68  1  0  0  0  0
 44 47  1  0  0  0  0
 44 68  1  0  0  0  0
 45 71  1  0  0  0  0
 46 67  1  0  0  0  0
 47 66  1  0  0  0  0
 48 61  1  0  0  0  0
 49 62  1  0  0  0  0
 50 62  1  0  0  0  0
 51 62  1  0  0  0  0
 52 73  1  0  0  0  0
 53 74  1  0  0  0  0
 54 55  1  0  0  0  0
 55 56  1  0  0  0  0
 56 59  1  0  0  0  0
 57 58  1  0  0  0  0
 57 65  1  0  0  0  0
 58 73  1  0  0  0  0
 59 81  1  0  0  0  0
 60 62  1  0  0  0  0
 60 72  1  0  0  0  0
 61 74  1  0  0  0  0
 63 65  1  0  0  0  0
 64 66  1  0  0  0  0
M  CHG  1  74   1
M  ISO  4  35 100  59 101  73 100  81 101
M  END
> <Batch ID>
0050

> <Smiles>
CNC(C)C(=O)NC(C(=O)N1Cc2cc([101O:1][101CH2:1]CCCc3cnn(CC[100N:0](C)[100C:0](=O)N4CCCC(n5nc(-c6ccc(Oc7ccc(F)cc7F)cc6)c(C(N)=O)c5N)C4)c3)ccc2CC1C(=O)NC1CCCc2ccccc21)C(C)(C)C

> <Shape>
0.235

> <Color>
0.058

> <Negative vol penalty>
0.000

$$$$

  -OEChem-04052317313D

 83 91  0     1  0  0  0  0  0999 V2000
  -19.0047  -26.8788   23.0654 C   0  0  0  0  0  0  0  0  0  0  0  0
  -19.5274  -25.6271   22.7564 C   0  0  0  0  0  0  0  0  0  0  0  0
  -23.4939  -15.3727   22.8486 C   0  0  0  0  0  0  0  0  0  0  0  0
  -22.7484  -15.5926   20.5610 C   0  0  0  0  0  0  0  0  0  0  0  0
  -19.7705  -28.0244   22.8534 C   0  0  0  0  0  0  0  0  0  0  0  0
  -20.8159  -25.5204   22.2342 C   0  0  0  0  0  0  0  0  0  0  0  0
  -26.5050  -21.1672   22.2539 C   0  0  0  0  0  0  0  0  0  0  0  0
  -22.6432  -16.4117   23.2258 C   0  0  0  0  0  0  0  0  0  0  0  0
  -21.8977  -16.6317   20.9382 C   0  0  0  0  0  0  0  0  0  0  0  0
  -27.3699  -20.5211   21.3717 C   0  0  0  0  0  0  0  0  0  0  0  0
  -19.7953  -19.5817   21.2335 C   0  0  0  0  0  0  0  0  0  0  0  0
  -19.7665  -20.7205   20.4287 C   0  0  0  0  0  0  0  0  0  0  0  0
  -28.6304  -22.5626   21.1218 C   0  0  0  0  0  0  0  0  0  0  0  0
  -22.1222  -21.0687   20.8368 C   0  0  0  0  0  0  0  0  0  0  0  0
  -31.9533  -17.4583   18.3667 C   0  0  0  0  0  0  0  0  0  0  0  0
  -30.0356  -19.0371   17.3883 C   0  0  0  0  0  0  0  0  0  0  0  0
  -23.5465  -14.9631   21.5162 C   0  0  0  0  0  0  0  0  0  0  0  0
  -24.1253  -12.5152   21.0913 C   0  0  0  0  0  0  0  0  0  0  0  0
  -21.0727  -27.9310   22.3374 C   0  0  0  0  0  0  0  0  0  0  0  0
  -26.6902  -22.5210   22.5688 C   0  0  0  0  0  0  0  0  0  0  0  0
  -21.5994  -26.6660   22.0139 C   0  0  0  0  0  0  0  0  0  0  0  0
  -27.7680  -23.2229   22.0103 C   0  0  0  0  0  0  0  0  0  0  0  0
  -21.8451  -17.0413   22.2706 C   0  0  0  0  0  0  0  0  0  0  0  0
  -28.4310  -21.2195   20.8033 C   0  0  0  0  0  0  0  0  0  0  0  0
  -20.9876  -19.1864   21.8401 C   0  0  0  0  0  0  0  0  0  0  0  0
  -20.9299  -21.4640   20.2303 C   0  0  0  0  0  0  0  0  0  0  0  0
  -22.1510  -19.9299   21.6417 C   0  0  0  0  0  0  0  0  0  0  0  0
  -24.4255  -13.8902   21.1259 C   0  0  0  0  0  0  0  0  0  0  0  0
  -31.9221  -17.7948   17.0313 C   0  0  0  0  0  0  0  0  0  0  0  0
  -30.0663  -18.7000   18.7236 C   0  0  0  0  0  0  0  0  0  0  0  0
  -25.2846  -11.9215   20.6555 C   0  0  0  0  0  0  0  0  0  0  0  0
  -22.9073  -11.8355   21.4233 C   0  0  0  0  0  0  0  0  0  0  0  0
  -24.9729  -25.1683   22.1861 C   0  0  0  0  0  0  0  0  0  0  0  0
  -27.3564  -26.5014   23.9365 C   0  0  0  0  0  0  0  0  0  0  0  0
  -30.6028  -26.3748   24.9813 C   0  0  0  0  0  0  0  0  0  0  0  0
  -29.7382  -13.9449   17.3500 C   0  0  0  0  0  0  0  0  0  0  0  0
  -21.8448  -29.2009   22.0811 C   0  0  0  0  0  0  0  0  0  0  0  0
  -25.7642  -23.1963   23.5429 C   0  0  0  0  0  0  0  0  0  0  0  0
  -28.0223  -24.6722   22.3315 C   0  0  0  0  0  0  0  0  0  0  0  0
  -23.3403  -28.9736   21.8754 C   0  0  0  0  0  0  0  0  0  0  0  0
  -30.0328  -12.5232   20.6650 C   0  0  0  0  0  0  0  0  0  0  0  0
  -23.5765  -27.8154   20.9112 C   0  0  0  0  0  0  0  0  0  0  0  0
  -28.5842  -12.5857   21.1526 C   0  0  0  0  0  0  0  0  0  0  0  0
  -30.3872  -13.7477   19.8264 C   0  0  0  0  0  0  0  0  0  0  0  0
  -28.0362  -14.0433   19.1488 C   0  0  0  0  0  0  0  0  0  0  0  0
  -23.0023  -26.5074   21.4689 C   0  0  1  0  0  0  0  0  0  0  0  0
  -25.7435  -24.7144   23.3935 C   0  0  1  0  0  0  0  0  0  0  0  0
  -27.6093  -12.8224   19.9839 C   0  0  2  0  0  0  0  0  0  0  0  0
  -32.2735  -27.6243   26.3759 C   0  0  0  0  0  0  0  0  0  0  0  0
  -27.6665  -28.5657   21.7111 C   0  0  0  0  0  0  0  0  0  0  0  0
  -29.8974  -29.1673   22.6753 C   0  0  0  0  0  0  0  0  0  0  0  0
  -27.8267  -29.4962   24.0269 C   0  0  0  0  0  0  0  0  0  0  0  0
  -30.9520  -24.0845   26.8230 C   0  0  0  0  0  0  0  0  0  0  0  0
  -34.3516  -15.2880   15.5578 C   0  0  0  0  0  0  0  0  0  0  0  0
  -32.9634  -17.2833   16.0984 C   0  0  0  0  0  0  0  0  0  0  0  0
  -29.0171  -19.2159   19.6640 C   0  0  0  0  0  0  0  0  0  1  0  0
  -31.5524  -13.8299   15.6610 C   0  0  0  0  0  0  0  0  0  0  0  0
  -31.8900  -15.2305   15.1849 C   0  0  0  0  0  0  0  0  0  0  0  0
  -28.6810  -27.1520   23.6185 C   0  0  1  0  0  0  0  0  0  0  0  0
  -31.2244  -26.5235   26.3583 C   0  0  2  0  0  0  0  0  0  0  0  0
  -28.5123  -28.5685   23.0002 C   0  0  0  0  0  0  0  0  0  0  0  0
  -30.9629  -18.5904   16.5182 N   0  0  0  0  0  0  0  0  0  0  0  0
  -31.0258  -17.9046   19.2368 N   0  0  0  0  0  0  0  0  0  0  0  0
  -25.6774  -14.1544   20.7428 N   0  0  0  0  0  0  0  0  0  0  0  0
  -26.1742  -12.9373   20.4634 N   0  0  0  0  0  0  0  0  0  0  0  0
  -27.0856  -25.2900   23.2846 N   0  0  0  0  0  0  0  0  0  0  0  0
  -29.4321  -13.9055   18.7204 N   0  0  0  0  0  0  0  0  0  0  0  0
  -25.6197  -10.6348   20.4219 N   0  0  0  0  0  0  0  0  0  0  0  0
  -21.8129  -12.5977   21.8541 N   0  0  0  0  0  0  0  0  0  0  0  0
  -23.8803  -25.9611   22.4814 N   0  0  0  0  0  0  0  0  0  0  0  0
  -29.4548  -27.1281   24.8551 N   0  0  0  0  0  0  0  0  0  0  0  0
  -31.0838  -13.8144   17.0289 N   0  0  0  0  0  0  0  0  0  0  0  0
  -31.8741  -25.2483   26.7738 N   0  3  0  0  0  0  0  0  0  0  0  0
  -33.0102  -15.7960   16.0187 N   0  3  1  0  0  0  0  0  0  0  0  0
  -22.7981  -10.5877   21.3562 O   0  0  0  0  0  0  0  0  0  0  0  0
  -25.3430  -24.8259   21.0692 O   0  0  0  0  0  0  0  0  0  0  0  0
  -26.5933  -27.0443   24.7394 O   0  0  0  0  0  0  0  0  0  0  0  0
  -31.0892  -25.6646   24.1041 O   0  0  0  0  0  0  0  0  0  0  0  0
  -28.8751  -14.0810   16.4761 O   0  0  0  0  0  0  0  0  0  0  0  0
  -21.0148  -18.0551   22.6383 O   0  0  0  0  0  0  0  0  0  0  0  0
  -29.2763  -20.5915   19.9413 O   0  0  0  0  0  0  0  0  0  1  0  0
  -20.9024  -22.5567   19.4561 F   0  0  0  0  0  0  0  0  0  0  0  0
  -23.2996  -19.5543   22.2209 F   0  0  0  0  0  0  0  0  0  0  0  0
  1  2  1  0  0  0  0
  1  5  2  0  0  0  0
  2  6  2  0  0  0  0
  3  8  2  0  0  0  0
  3 17  1  0  0  0  0
  4  9  1  0  0  0  0
  4 17  2  0  0  0  0
  5 19  1  0  0  0  0
  6 21  1  0  0  0  0
  7 10  2  0  0  0  0
  7 20  1  0  0  0  0
  8 23  1  0  0  0  0
  9 23  2  0  0  0  0
 10 24  1  0  0  0  0
 11 12  2  0  0  0  0
 11 25  1  0  0  0  0
 12 26  1  0  0  0  0
 13 22  1  0  0  0  0
 13 24  2  0  0  0  0
 14 26  2  0  0  0  0
 14 27  1  0  0  0  0
 15 29  2  0  0  0  0
 15 63  1  0  0  0  0
 16 30  1  0  0  0  0
 16 62  2  0  0  0  0
 17 28  1  0  0  0  0
 18 28  1  0  0  0  0
 18 31  2  0  0  0  0
 18 32  1  0  0  0  0
 19 21  2  0  0  0  0
 19 37  1  0  0  0  0
 20 22  2  0  0  0  0
 20 38  1  0  0  0  0
 21 46  1  0  0  0  0
 22 39  1  0  0  0  0
 23 80  1  0  0  0  0
 24 81  1  0  0  0  0
 25 27  2  0  0  0  0
 25 80  1  0  0  0  0
 26 82  1  0  0  0  0
 27 83  1  0  0  0  0
 28 64  2  0  0  0  0
 29 55  1  0  0  0  0
 29 62  1  0  0  0  0
 30 56  1  0  0  0  0
 30 63  2  0  0  0  0
 31 65  1  0  0  0  0
 31 68  1  0  0  0  0
 32 69  1  0  0  0  0
 32 75  2  0  0  0  0
 33 47  1  0  0  0  0
 33 70  1  0  0  0  0
 33 76  2  0  0  0  0
 34 59  1  0  0  0  0
 34 66  1  0  0  0  0
 34 77  2  0  0  0  0
 35 60  1  0  0  0  0
 35 71  1  0  0  0  0
 35 78  2  0  0  0  0
 36 67  1  0  0  0  0
 36 72  1  0  0  0  0
 36 79  2  0  0  0  0
 37 40  1  0  0  0  0
 38 47  1  0  0  0  0
 39 66  1  0  0  0  0
 40 42  1  0  0  0  0
 41 43  1  0  0  0  0
 41 44  1  0  0  0  0
 42 46  1  0  0  0  0
 43 48  1  0  0  0  0
 44 67  1  0  0  0  0
 45 48  1  0  0  0  0
 45 67  1  0  0  0  0
 46 70  1  0  0  0  0
 47 66  1  0  0  0  0
 48 65  1  0  0  0  0
 49 60  1  0  0  0  0
 50 61  1  0  0  0  0
 51 61  1  0  0  0  0
 52 61  1  0  0  0  0
 53 73  1  0  0  0  0
 54 74  1  0  0  0  0
 55 74  1  0  0  0  0
 56 81  1  0  0  0  0
 57 58  1  0  0  0  0
 57 72  1  0  0  0  0
 58 74  1  0  0  0  0
 59 61  1  0  0  0  0
 59 71  1  0  0  0  0
 60 73  1  0  0  0  0
 64 65  1  0  0  0  0
M  CHG  2  73   1  74   1
M  ISO  4  36 100  56 101  72 100  81 101
M  END
> <Batch ID>
0050

> <Smiles>
CNC(C)C(=O)NC(C(=O)N1Cc2cc([101O:1][101CH2:1]c3cnc(CN(C)CC[100NH:0][100C:0](=O)N4CCCC(n5nc(-c6ccc(Oc7ccc(F)cc7F)cc6)c(C(N)=O)c5N)C4)cn3)ccc2CC1C(=O)NC1CCCc2ccccc21)C(C)(C)C

> <Shape>
0.186

> <Color>
0.084

> <Negative vol penalty>
0.000

$$$$

  -OEChem-04052317312D

  0  0  0     0  0  0  0  0  0999 V2000
M  END
$$$$
