
  -OEChem-04052317333D

 84 92  0     1  0  0  0  0  0999 V2000
  -18.2665  -31.9443   19.6381 C   0  0  0  0  0  0  0  0  0  0  0  0
  -19.5907  -31.6843   19.3000 C   0  0  0  0  0  0  0  0  0  0  0  0
  -29.3507  -16.8464   20.9791 C   0  0  0  0  0  0  0  0  0  0  0  0
  -28.3549  -16.2619   18.8569 C   0  0  0  0  0  0  0  0  0  0  0  0
  -17.8298  -31.7423   20.9467 C   0  0  0  0  0  0  0  0  0  0  0  0
  -20.4793  -31.2232   20.2706 C   0  0  0  0  0  0  0  0  0  0  0  0
  -25.1018  -27.2888   19.4585 C   0  0  0  0  0  0  0  0  0  0  0  0
  -28.9429  -15.6217   21.5077 C   0  0  0  0  0  0  0  0  0  0  0  0
  -27.9471  -15.0372   19.3855 C   0  0  0  0  0  0  0  0  0  0  0  0
  -26.4718  -27.4753   19.2798 C   0  0  0  0  0  0  0  0  0  0  0  0
  -25.4688  -13.8838   21.3751 C   0  0  0  0  0  0  0  0  0  0  0  0
  -24.1651  -13.4651   21.1093 C   0  0  0  0  0  0  0  0  0  0  0  0
  -26.8222  -27.1179   21.6396 C   0  0  0  0  0  0  0  0  0  0  0  0
  -32.1789  -24.7868   18.0463 C   0  0  0  0  0  0  0  0  0  0  0  0
  -31.9362  -25.3769   20.3692 C   0  0  0  0  0  0  0  0  0  0  0  0
  -25.0228  -11.4890   20.0155 C   0  0  0  0  0  0  0  0  0  0  0  0
  -29.0567  -17.1665   19.6537 C   0  0  0  0  0  0  0  0  0  0  0  0
  -30.6938  -18.7150   18.4580 C   0  0  0  0  0  0  0  0  0  0  0  0
  -18.7112  -31.2693   21.9317 C   0  0  0  0  0  0  0  0  0  0  0  0
  -24.5795  -27.0258   20.7331 C   0  0  0  0  0  0  0  0  0  0  0  0
  -20.0544  -31.0159   21.5940 C   0  0  0  0  0  0  0  0  0  0  0  0
  -25.4455  -26.9259   21.8314 C   0  0  0  0  0  0  0  0  0  0  0  0
  -32.3269  -24.4662   19.3922 C   0  0  0  0  0  0  0  0  0  0  0  0
  -28.2411  -14.7171   20.7110 C   0  0  0  0  0  0  0  0  0  0  0  0
  -27.3319  -27.3927   20.3709 C   0  0  0  0  0  0  0  0  0  0  0  0
  -26.5495  -13.1052   20.9611 C   0  0  0  0  0  0  0  0  0  0  0  0
  -23.9421  -12.2677   20.4295 C   0  0  0  0  0  0  0  0  0  0  0  0
  -26.3265  -11.9078   20.2813 C   0  0  0  0  0  0  0  0  0  0  0  0
  -29.4772  -18.4317   19.1072 C   0  0  0  0  0  0  0  0  0  0  0  0
  -31.6397  -26.0200   17.7084 C   0  0  0  0  0  0  0  0  0  0  0  0
  -31.4032  -26.5952   19.9726 C   0  0  0  0  0  0  0  0  0  0  0  0
  -30.6067  -20.0463   18.1313 C   0  0  0  0  0  0  0  0  0  0  0  0
  -31.8034  -17.8521   18.1755 C   0  0  0  0  0  0  0  0  0  0  0  0
  -22.5447  -28.5087   22.6732 C   0  0  0  0  0  0  0  0  0  0  0  0
  -22.8920  -25.8209   24.4557 C   0  0  0  0  0  0  0  0  0  0  0  0
  -24.8036  -23.1154   25.2762 C   0  0  0  0  0  0  0  0  0  0  0  0
  -27.3365  -24.1091   15.8695 C   0  0  0  0  0  0  0  0  0  0  0  0
  -18.2048  -31.1113   23.3435 C   0  0  0  0  0  0  0  0  0  0  0  0
  -23.1023  -26.8006   20.9048 C   0  0  0  0  0  0  0  0  0  0  0  0
  -24.9373  -26.6257   23.2171 C   0  0  0  0  0  0  0  0  0  0  0  0
  -19.1171  -30.2638   24.2265 C   0  0  0  0  0  0  0  0  0  0  0  0
  -27.2936  -23.5890   19.5341 C   0  0  0  0  0  0  0  0  0  0  0  0
  -20.5713  -30.6925   24.0585 C   0  0  0  0  0  0  0  0  0  0  0  0
  -27.8944  -22.1918   19.6792 C   0  0  0  0  0  0  0  0  0  0  0  0
  -26.5842  -23.7650   18.1948 C   0  0  0  0  0  0  0  0  0  0  0  0
  -28.0366  -22.0514   17.1612 C   0  0  0  0  0  0  0  0  0  0  0  0
  -21.0423  -30.4911   22.6131 C   0  0  1  0  0  0  0  0  0  0  0  0
  -22.6221  -27.0476   22.3316 C   0  0  1  0  0  0  0  0  0  0  0  0
  -28.7987  -21.8563   18.4805 C   0  0  2  0  0  0  0  0  0  0  0  0
  -24.8410  -21.1172   26.7937 C   0  0  0  0  0  0  0  0  0  0  0  0
  -23.6088  -27.6250   26.8097 C   0  0  0  0  0  0  0  0  0  0  0  0
  -24.5385  -25.6149   27.9773 C   0  0  0  0  0  0  0  0  0  0  0  0
  -22.1167  -25.7024   27.3855 C   0  0  0  0  0  0  0  0  0  0  0  0
  -28.3705  -24.3523   13.6444 C   0  0  0  0  0  0  0  0  0  0  0  0
  -24.8759  -21.2362   22.9910 C   0  0  0  0  0  0  0  0  0  0  0  0
  -31.4496  -26.4371   16.2955 C   0  0  0  0  0  0  0  0  0  0  0  0
  -30.9576  -27.6374   20.9693 C   0  0  0  0  0  0  0  0  0  0  0  0
  -30.0807  -26.0579   15.6906 C   0  0  0  0  0  0  0  0  0  0  0  0
  -29.8160  -24.5549   15.6332 C   0  0  0  0  0  0  0  0  0  0  0  0
  -29.4927  -27.4765   21.3608 C   0  0  0  0  0  0  0  0  0  1  0  0
  -23.8294  -25.3800   25.5538 C   0  0  1  0  0  0  0  0  0  0  0  0
  -24.4582  -21.6442   25.4195 C   0  0  2  0  0  0  0  0  0  0  0  0
  -23.5330  -26.0882   26.9059 C   0  0  0  0  0  0  0  0  0  0  0  0
  -28.6760  -19.4973   19.1891 N   0  0  0  0  0  0  0  0  0  0  0  0
  -29.3907  -20.4632   18.5872 N   0  0  0  0  0  0  0  0  0  0  0  0
  -31.2718  -26.8783   18.6695 N   0  3  0  0  0  0  0  0  0  0  0  0
  -23.4843  -26.4196   23.3348 N   0  0  0  0  0  0  0  0  0  0  0  0
  -27.4520  -23.3981   17.0752 N   0  0  0  0  0  0  0  0  0  0  0  0
  -32.8713  -23.2205   19.7662 N   0  0  0  0  0  0  0  0  0  0  0  0
  -31.4524  -20.8892   17.5015 N   0  0  0  0  0  0  0  0  0  0  0  0
  -31.7280  -16.5125   18.5806 N   0  0  0  0  0  0  0  0  0  0  0  0
  -21.3317  -29.0949   22.3657 N   0  0  0  0  0  0  0  0  0  0  0  0
  -23.7381  -23.9250   25.6088 N   0  0  0  0  0  0  0  0  0  0  0  0
  -28.4961  -24.2402   15.0906 N   0  0  0  0  0  0  0  0  0  0  0  0
  -25.1773  -20.8407   24.3909 N   0  3  0  0  0  0  0  0  0  0  0  0
  -32.8380  -18.2609   17.5960 O   0  0  0  0  0  0  0  0  0  0  0  0
  -23.5132  -29.0629   23.1798 O   0  0  0  0  0  0  0  0  0  0  0  0
  -21.6795  -25.6343   24.5846 O   0  0  0  0  0  0  0  0  0  0  0  0
  -25.9093  -23.5074   24.9096 O   0  0  0  0  0  0  0  0  0  0  0  0
  -26.2604  -24.6070   15.5143 O   0  0  0  0  0  0  0  0  0  0  0  0
  -27.8432  -13.5219   21.2264 O   0  0  0  0  0  0  0  0  0  0  0  0
  -28.6696  -27.5750   20.1993 O   0  0  0  0  0  0  0  0  0  1  0  0
  -22.6901  -11.8649   20.1757 F   0  0  0  0  0  0  0  0  0  0  0  0
  -27.3608  -11.1549   19.8821 F   0  0  0  0  0  0  0  0  0  0  0  0
  1  2  1  0  0  0  0
  1  5  2  0  0  0  0
  2  6  2  0  0  0  0
  3  8  2  0  0  0  0
  3 17  1  0  0  0  0
  4  9  1  0  0  0  0
  4 17  2  0  0  0  0
  5 19  1  0  0  0  0
  6 21  1  0  0  0  0
  7 10  2  0  0  0  0
  7 20  1  0  0  0  0
  8 24  1  0  0  0  0
  9 24  2  0  0  0  0
 10 25  1  0  0  0  0
 11 12  2  0  0  0  0
 11 26  1  0  0  0  0
 12 27  1  0  0  0  0
 13 22  1  0  0  0  0
 13 25  2  0  0  0  0
 14 23  1  0  0  0  0
 14 30  2  0  0  0  0
 15 23  2  0  0  0  0
 15 31  1  0  0  0  0
 16 27  2  0  0  0  0
 16 28  1  0  0  0  0
 17 29  1  0  0  0  0
 18 29  1  0  0  0  0
 18 32  2  0  0  0  0
 18 33  1  0  0  0  0
 19 21  2  0  0  0  0
 19 38  1  0  0  0  0
 20 22  2  0  0  0  0
 20 39  1  0  0  0  0
 21 47  1  0  0  0  0
 22 40  1  0  0  0  0
 23 69  1  0  0  0  0
 24 81  1  0  0  0  0
 25 82  1  0  0  0  0
 26 28  2  0  0  0  0
 26 81  1  0  0  0  0
 27 83  1  0  0  0  0
 28 84  1  0  0  0  0
 29 64  2  0  0  0  0
 30 56  1  0  0  0  0
 30 66  1  0  0  0  0
 31 57  1  0  0  0  0
 31 66  2  0  0  0  0
 32 65  1  0  0  0  0
 32 70  1  0  0  0  0
 33 71  1  0  0  0  0
 33 76  2  0  0  0  0
 34 48  1  0  0  0  0
 34 72  1  0  0  0  0
 34 77  2  0  0  0  0
 35 61  1  0  0  0  0
 35 67  1  0  0  0  0
 35 78  2  0  0  0  0
 36 62  1  0  0  0  0
 36 73  1  0  0  0  0
 36 79  2  0  0  0  0
 37 68  1  0  0  0  0
 37 74  1  0  0  0  0
 37 80  2  0  0  0  0
 38 41  1  0  0  0  0
 39 48  1  0  0  0  0
 40 67  1  0  0  0  0
 41 43  1  0  0  0  0
 42 44  1  0  0  0  0
 42 45  1  0  0  0  0
 43 47  1  0  0  0  0
 44 49  1  0  0  0  0
 45 68  1  0  0  0  0
 46 49  1  0  0  0  0
 46 68  1  0  0  0  0
 47 72  1  0  0  0  0
 48 67  1  0  0  0  0
 49 65  1  0  0  0  0
 50 62  1  0  0  0  0
 51 63  1  0  0  0  0
 52 63  1  0  0  0  0
 53 63  1  0  0  0  0
 54 74  1  0  0  0  0
 55 75  1  0  0  0  0
 56 58  1  0  0  0  0
 57 60  1  0  0  0  0
 58 59  1  0  0  0  0
 59 74  1  0  0  0  0
 60 82  1  0  0  0  0
 61 63  1  0  0  0  0
 61 73  1  0  0  0  0
 62 75  1  0  0  0  0
 64 65  1  0  0  0  0
M  CHG  2  66   1  75   1
M  ISO  4  37 100  60 101  74 100  82 101
M  END
> <Batch ID>
0051

> <Smiles>
CNC(C)C(=O)NC(C(=O)N1Cc2cc([101O:1][101CH2:1]Cc3cc(N)cc(CCC[100N:0](C)[100C:0](=O)N4CCCC(n5nc(-c6ccc(Oc7ccc(F)cc7F)cc6)c(C(N)=O)c5N)C4)n3)ccc2CC1C(=O)NC1CCCc2ccccc21)C(C)(C)C

> <Shape>
0.193

> <Color>
0.071

> <Negative vol penalty>
0.000

$$$$

  -OEChem-04052317333D

 84 92  0     1  0  0  0  0  0999 V2000
  -21.9300  -10.9293   20.0060 C   0  0  0  0  0  0  0  0  0  0  0  0
  -21.6715  -12.1091   20.6966 C   0  0  0  0  0  0  0  0  0  0  0  0
  -25.0641  -26.7511   19.2902 C   0  0  0  0  0  0  0  0  0  0  0  0
  -25.5445  -25.9700   21.5255 C   0  0  0  0  0  0  0  0  0  0  0  0
  -23.2453  -10.5591   19.7288 C   0  0  0  0  0  0  0  0  0  0  0  0
  -22.7283  -12.9188   21.1113 C   0  0  0  0  0  0  0  0  0  0  0  0
  -22.7771  -19.0348   21.4240 C   0  0  0  0  0  0  0  0  0  0  0  0
  -26.4120  -27.0606   19.1087 C   0  0  0  0  0  0  0  0  0  0  0  0
  -26.8924  -26.2795   21.3439 C   0  0  0  0  0  0  0  0  0  0  0  0
  -22.5886  -19.9213   22.4834 C   0  0  0  0  0  0  0  0  0  0  0  0
  -29.6686  -28.3905   18.1871 C   0  0  0  0  0  0  0  0  0  0  0  0
  -29.9808  -29.6192   17.6054 C   0  0  0  0  0  0  0  0  0  0  0  0
  -24.9784  -20.0686   22.7775 C   0  0  0  0  0  0  0  0  0  0  0  0
  -28.8560  -30.7610   19.4132 C   0  0  0  0  0  0  0  0  0  0  0  0
  -19.2465  -24.4263   26.8040 C   0  0  0  0  0  0  0  0  0  0  0  0
  -24.6303  -26.2058   20.4986 C   0  0  0  0  0  0  0  0  0  0  0  0
  -22.5992  -24.6657   20.3979 C   0  0  0  0  0  0  0  0  0  0  0  0
  -24.3183  -11.3696   20.1319 C   0  0  0  0  0  0  0  0  0  0  0  0
  -24.0695  -18.6493   21.0398 C   0  0  0  0  0  0  0  0  0  0  0  0
  -24.0592  -12.5584   20.8404 C   0  0  0  0  0  0  0  0  0  0  0  0
  -25.1807  -19.1790   21.7113 C   0  0  0  0  0  0  0  0  0  0  0  0
  -18.1316  -23.9141   26.1722 C   0  0  0  0  0  0  0  0  0  0  0  0
  -27.3261  -26.8248   20.1355 C   0  0  0  0  0  0  0  0  0  0  0  0
  -23.6892  -20.4362   23.1622 C   0  0  0  0  0  0  0  0  0  0  0  0
  -28.9500  -28.3471   19.3819 C   0  0  0  0  0  0  0  0  0  0  0  0
  -29.5745  -30.8045   18.2184 C   0  0  0  0  0  0  0  0  0  0  0  0
  -28.5437  -29.5323   19.9949 C   0  0  0  0  0  0  0  0  0  0  0  0
  -23.2380  -25.8864   20.6870 C   0  0  0  0  0  0  0  0  0  0  0  0
  -18.1504  -22.5544   25.9375 C   0  0  0  0  0  0  0  0  0  0  0  0
  -21.2883  -24.8717   20.7525 C   0  0  0  0  0  0  0  0  0  0  0  0
  -20.2022  -22.3660   26.8976 C   0  0  0  0  0  0  0  0  0  0  0  0
  -23.1422  -23.4539   19.8572 C   0  0  0  0  0  0  0  0  0  0  0  0
  -25.6486  -15.8929   20.9298 C   0  0  0  0  0  0  0  0  0  0  0  0
  -27.9266  -17.7029   19.4956 C   0  0  0  0  0  0  0  0  0  0  0  0
  -29.2910  -20.7930   19.0098 C   0  0  0  0  0  0  0  0  0  0  0  0
  -17.7775  -26.8755   24.7494 C   0  0  0  0  0  0  0  0  0  0  0  0
  -25.7251  -10.9041   19.8508 C   0  0  0  0  0  0  0  0  0  0  0  0
  -24.2569  -17.7129   19.8778 C   0  0  0  0  0  0  0  0  0  0  0  0
  -26.5895  -18.8126   21.3248 C   0  0  0  0  0  0  0  0  0  0  0  0
  -26.7718  -12.0058   19.9968 C   0  0  0  0  0  0  0  0  0  0  0  0
  -18.8164  -29.1001   21.9793 C   0  0  0  0  0  0  0  0  0  0  0  0
  -26.5479  -12.7872   21.2876 C   0  0  0  0  0  0  0  0  0  0  0  0
  -20.0497  -28.3886   21.4254 C   0  0  0  0  0  0  0  0  0  0  0  0
  -18.6125  -28.8093   23.4631 C   0  0  0  0  0  0  0  0  0  0  0  0
  -19.7906  -26.6471   23.2367 C   0  0  0  0  0  0  0  0  0  0  0  0
  -25.1777  -13.4757   21.2851 C   0  0  1  0  0  0  0  0  0  0  0  0
  -25.5998  -16.9895   19.9038 C   0  0  1  0  0  0  0  0  0  0  0  0
  -19.9982  -26.8819   21.7329 C   0  0  2  0  0  0  0  0  0  0  0  0
  -15.2707  -25.2918   23.1918 C   0  0  0  0  0  0  0  0  0  0  0  0
  -31.1695  -21.9514   17.8153 C   0  0  0  0  0  0  0  0  0  0  0  0
  -29.8953  -16.6494   21.5751 C   0  0  0  0  0  0  0  0  0  0  0  0
  -31.4480  -18.5099   20.9458 C   0  0  0  0  0  0  0  0  0  0  0  0
  -30.8097  -16.7936   19.2519 C   0  0  0  0  0  0  0  0  0  0  0  0
  -27.4177  -22.4556   17.4333 C   0  0  0  0  0  0  0  0  0  0  0  0
  -16.9912  -24.7743   25.7724 C   0  0  0  0  0  0  0  0  0  0  0  0
  -21.3647  -21.4969   27.3061 C   0  0  0  0  0  0  0  0  0  0  0  0
  -22.5812  -21.6233   26.3864 C   0  0  0  0  0  0  0  0  0  0  0  0
  -16.7591  -25.0439   23.3313 C   0  0  0  0  0  0  0  0  0  0  0  0
  -22.3104  -21.1594   24.9599 C   0  0  0  0  0  0  0  0  0  1  0  0
  -29.1053  -18.5152   19.9750 C   0  0  1  0  0  0  0  0  0  0  0  0
  -29.7127  -21.5206   17.7460 C   0  0  2  0  0  0  0  0  0  0  0  0
  -30.2881  -17.6226   20.4457 C   0  0  0  0  0  0  0  0  0  0  0  0
  -20.3038  -23.6783   27.1821 N   0  0  0  0  0  0  0  0  0  0  0  0
  -22.4018  -26.8003   21.1866 N   0  0  0  0  0  0  0  0  0  0  0  0
  -19.1731  -21.7472   26.2879 N   0  0  0  0  0  0  0  0  0  0  0  0
  -21.2241  -26.1534   21.2141 N   0  0  0  0  0  0  0  0  0  0  0  0
  -26.7206  -17.8886   20.1862 N   0  0  0  0  0  0  0  0  0  0  0  0
  -18.6108  -27.3712   23.7332 N   0  0  0  0  0  0  0  0  0  0  0  0
  -20.1959  -24.0796   20.7112 N   0  0  0  0  0  0  0  0  0  0  0  0
  -24.5087  -23.4134   19.5486 N   0  0  0  0  0  0  0  0  0  0  0  0
  -25.2122  -14.6672   20.4643 N   0  0  0  0  0  0  0  0  0  0  0  0
  -29.4413  -19.4279   18.8875 N   0  0  0  0  0  0  0  0  0  0  0  0
  -17.2795  -25.5734   24.5900 N   0  0  0  0  0  0  0  0  0  0  0  0
  -28.8728  -22.7348   17.5426 N   0  3  0  0  0  0  0  0  0  0  0  0
  -22.4332  -22.4424   19.6384 O   0  0  0  0  0  0  0  0  0  0  0  0
  -26.0536  -16.1401   22.0597 O   0  0  0  0  0  0  0  0  0  0  0  0
  -28.0689  -16.9372   18.5390 O   0  0  0  0  0  0  0  0  0  0  0  0
  -28.8738  -21.3776   20.0072 O   0  0  0  0  0  0  0  0  0  0  0  0
  -17.4870  -27.5613   25.7379 O   0  0  0  0  0  0  0  0  0  0  0  0
  -28.6415  -27.1265   19.9587 O   0  0  0  0  0  0  0  0  0  0  0  0
  -23.5080  -21.3012   24.1969 O   0  0  0  0  0  0  0  0  0  1  0  0
  -29.8757  -31.9843   17.6604 F   0  0  0  0  0  0  0  0  0  0  0  0
  -27.8542  -29.4969   21.1434 F   0  0  0  0  0  0  0  0  0  0  0  0
  -17.1008  -21.9839   25.3247 F   0  0  0  0  0  0  0  0  0  0  0  0
  1  2  1  0  0  0  0
  1  5  2  0  0  0  0
  2  6  2  0  0  0  0
  3  8  2  0  0  0  0
  3 16  1  0  0  0  0
  4  9  1  0  0  0  0
  4 16  2  0  0  0  0
  5 18  1  0  0  0  0
  6 20  1  0  0  0  0
  7 10  2  0  0  0  0
  7 19  1  0  0  0  0
  8 23  1  0  0  0  0
  9 23  2  0  0  0  0
 10 24  1  0  0  0  0
 11 12  2  0  0  0  0
 11 25  1  0  0  0  0
 12 26  1  0  0  0  0
 13 21  1  0  0  0  0
 13 24  2  0  0  0  0
 14 26  2  0  0  0  0
 14 27  1  0  0  0  0
 15 22  1  0  0  0  0
 15 63  2  0  0  0  0
 16 28  1  0  0  0  0
 17 28  1  0  0  0  0
 17 30  2  0  0  0  0
 17 32  1  0  0  0  0
 18 20  2  0  0  0  0
 18 37  1  0  0  0  0
 19 21  2  0  0  0  0
 19 38  1  0  0  0  0
 20 46  1  0  0  0  0
 21 39  1  0  0  0  0
 22 29  2  0  0  0  0
 22 55  1  0  0  0  0
 23 80  1  0  0  0  0
 24 81  1  0  0  0  0
 25 27  2  0  0  0  0
 25 80  1  0  0  0  0
 26 82  1  0  0  0  0
 27 83  1  0  0  0  0
 28 64  2  0  0  0  0
 29 65  1  0  0  0  0
 29 84  1  0  0  0  0
 30 66  1  0  0  0  0
 30 69  1  0  0  0  0
 31 56  1  0  0  0  0
 31 63  1  0  0  0  0
 31 65  2  0  0  0  0
 32 70  1  0  0  0  0
 32 75  2  0  0  0  0
 33 47  1  0  0  0  0
 33 71  1  0  0  0  0
 33 76  2  0  0  0  0
 34 60  1  0  0  0  0
 34 67  1  0  0  0  0
 34 77  2  0  0  0  0
 35 61  1  0  0  0  0
 35 72  1  0  0  0  0
 35 78  2  0  0  0  0
 36 68  1  0  0  0  0
 36 73  1  0  0  0  0
 36 79  2  0  0  0  0
 37 40  1  0  0  0  0
 38 47  1  0  0  0  0
 39 67  1  0  0  0  0
 40 42  1  0  0  0  0
 41 43  1  0  0  0  0
 41 44  1  0  0  0  0
 42 46  1  0  0  0  0
 43 48  1  0  0  0  0
 44 68  1  0  0  0  0
 45 48  1  0  0  0  0
 45 68  1  0  0  0  0
 46 71  1  0  0  0  0
 47 67  1  0  0  0  0
 48 66  1  0  0  0  0
 49 58  1  0  0  0  0
 50 61  1  0  0  0  0
 51 62  1  0  0  0  0
 52 62  1  0  0  0  0
 53 62  1  0  0  0  0
 54 74  1  0  0  0  0
 55 73  1  0  0  0  0
 56 57  1  0  0  0  0
 57 59  1  0  0  0  0
 58 73  1  0  0  0  0
 59 81  1  0  0  0  0
 60 62  1  0  0  0  0
 60 72  1  0  0  0  0
 61 74  1  0  0  0  0
 64 66  1  0  0  0  0
M  CHG  1  74   1
M  ISO  4  36 100  59 101  73 100  81 101
M  END
> <Batch ID>
0051

> <Smiles>
CC[100N:0](Cc1cnc(CC[101CH2:1][101O:1]c2ccc3c(c2)CN(C(=O)C(NC(=O)C(C)NC)C(C)(C)C)C(C(=O)NC2CCCc4ccccc42)C3)nc1F)[100C:0](=O)N1CCCC(n2nc(-c3ccc(Oc4ccc(F)cc4F)cc3)c(C(N)=O)c2N)C1

> <Shape>
0.187

> <Color>
0.072

> <Negative vol penalty>
0.000

$$$$

  -OEChem-04052317333D

 90 98  0     1  0  0  0  0  0999 V2000
  -26.9435  -10.9362   15.0610 C   0  0  0  0  0  0  0  0  0  0  0  0
  -26.0749  -12.0105   15.2241 C   0  0  0  0  0  0  0  0  0  0  0  0
  -25.9977  -31.2297   22.7781 C   0  0  0  0  0  0  0  0  0  0  0  0
  -24.3730  -32.3635   24.1608 C   0  0  0  0  0  0  0  0  0  0  0  0
  -27.8671  -10.6302   16.0597 C   0  0  0  0  0  0  0  0  0  0  0  0
  -26.1285  -12.7788   16.3865 C   0  0  0  0  0  0  0  0  0  0  0  0
  -25.1273  -18.8014   16.8683 C   0  0  0  0  0  0  0  0  0  0  0  0
  -26.4947  -32.4613   22.3522 C   0  0  0  0  0  0  0  0  0  0  0  0
  -24.8701  -33.5952   23.7349 C   0  0  0  0  0  0  0  0  0  0  0  0
  -24.0093  -19.5383   17.2570 C   0  0  0  0  0  0  0  0  0  0  0  0
  -27.5112  -35.5871   24.4260 C   0  0  0  0  0  0  0  0  0  0  0  0
  -27.7217  -36.5691   25.3940 C   0  0  0  0  0  0  0  0  0  0  0  0
  -24.8956  -19.6907   19.4954 C   0  0  0  0  0  0  0  0  0  0  0  0
  -26.1587  -38.0215   24.2605 C   0  0  0  0  0  0  0  0  0  0  0  0
  -18.0589  -23.8051   21.4531 C   0  0  0  0  0  0  0  0  0  0  0  0
  -24.9367  -31.1807   23.6824 C   0  0  0  0  0  0  0  0  0  0  0  0
  -24.8468  -29.1593   25.2359 C   0  0  0  0  0  0  0  0  0  0  0  0
  -27.9386  -11.4010   17.2307 C   0  0  0  0  0  0  0  0  0  0  0  0
  -26.1342  -18.4938   17.7945 C   0  0  0  0  0  0  0  0  0  0  0  0
  -27.0530  -12.4820   17.4024 C   0  0  0  0  0  0  0  0  0  0  0  0
  -26.0265  -18.9520   19.1153 C   0  0  0  0  0  0  0  0  0  0  0  0
  -17.5950  -24.8104   20.6202 C   0  0  0  0  0  0  0  0  0  0  0  0
  -17.2014  -24.4598   19.3336 C   0  0  0  0  0  0  0  0  0  0  0  0
  -17.2826  -23.1332   18.9249 C   0  0  0  0  0  0  0  0  0  0  0  0
  -25.9310  -33.6441   22.8306 C   0  0  0  0  0  0  0  0  0  0  0  0
  -23.8920  -19.9806   18.5714 C   0  0  0  0  0  0  0  0  0  0  0  0
  -26.6245  -35.8224   23.3751 C   0  0  0  0  0  0  0  0  0  0  0  0
  -27.0454  -37.7863   25.3112 C   0  0  0  0  0  0  0  0  0  0  0  0
  -25.9483  -37.0395   23.2924 C   0  0  0  0  0  0  0  0  0  0  0  0
  -24.4224  -29.9087   24.1223 C   0  0  0  0  0  0  0  0  0  0  0  0
  -17.7607  -22.2029   19.8337 C   0  0  0  0  0  0  0  0  0  0  0  0
  -24.0509  -28.0400   25.2201 C   0  0  0  0  0  0  0  0  0  0  0  0
  -25.8690  -29.4491   26.1986 C   0  0  0  0  0  0  0  0  0  0  0  0
  -27.3352  -15.8055   18.9922 C   0  0  0  0  0  0  0  0  0  0  0  0
  -29.4585  -17.8299   20.3763 C   0  0  0  0  0  0  0  0  0  0  0  0
  -30.1598  -20.9821   21.4801 C   0  0  0  0  0  0  0  0  0  0  0  0
  -18.7187  -26.9582   23.2189 C   0  0  0  0  0  0  0  0  0  0  0  0
  -28.9216  -11.0028   18.3030 C   0  0  0  0  0  0  0  0  0  0  0  0
  -27.3466  -17.7209   17.3529 C   0  0  0  0  0  0  0  0  0  0  0  0
  -27.0895  -18.6658   20.1432 C   0  0  0  0  0  0  0  0  0  0  0  0
  -29.1670  -12.0954   19.3405 C   0  0  0  0  0  0  0  0  0  0  0  0
  -21.6231  -25.2020   22.2430 C   0  0  0  0  0  0  0  0  0  0  0  0
  -27.8446  -12.6972   19.8050 C   0  0  0  0  0  0  0  0  0  0  0  0
  -22.7237  -26.1490   22.7192 C   0  0  0  0  0  0  0  0  0  0  0  0
  -20.4362  -25.9568   21.6413 C   0  0  0  0  0  0  0  0  0  0  0  0
  -20.9789  -27.9476   23.0068 C   0  0  0  0  0  0  0  0  0  0  0  0
  -27.0973  -13.3542   18.6383 C   0  0  1  0  0  0  0  0  0  0  0  0
  -28.0646  -17.0257   18.5056 C   0  0  1  0  0  0  0  0  0  0  0  0
  -22.1568  -27.2174   23.6702 C   0  0  2  0  0  0  0  0  0  0  0  0
  -16.7330  -21.2110   17.4118 C   0  0  0  0  0  0  0  0  0  0  0  0
  -15.4390  -27.0257   23.3231 C   0  0  0  0  0  0  0  0  0  0  0  0
  -31.9622  -22.3217   22.6000 C   0  0  0  0  0  0  0  0  0  0  0  0
  -17.3438  -26.8918   18.6927 C   0  0  0  0  0  0  0  0  0  0  0  0
  -15.1483  -25.6725   18.5206 C   0  0  0  0  0  0  0  0  0  0  0  0
  -16.9638  -25.2332   16.8798 C   0  0  0  0  0  0  0  0  0  0  0  0
  -28.7428  -16.5510   23.0526 C   0  0  0  0  0  0  0  0  0  0  0  0
  -29.8113  -18.5066   24.1937 C   0  0  0  0  0  0  0  0  0  0  0  0
  -31.1800  -17.0146   22.7365 C   0  0  0  0  0  0  0  0  0  0  0  0
  -30.4112  -22.8009   19.1589 C   0  0  0  0  0  0  0  0  0  0  0  0
  -16.8664  -22.7250   17.5517 C   0  0  0  0  0  0  0  0  0  0  0  0
  -17.5299  -26.2151   21.1119 C   0  0  0  0  0  0  0  0  0  0  0  0
  -17.8728  -20.7494   19.4482 C   0  0  0  0  0  0  0  0  0  0  0  0
  -19.0691  -20.4398   18.5416 C   0  0  0  0  0  0  0  0  0  0  0  0
  -20.4156  -20.7178   19.2113 C   0  0  0  0  0  0  0  0  0  0  0  0
  -16.4821  -25.9266   23.3266 C   0  0  0  0  0  0  0  0  0  0  0  0
  -21.5777  -20.4367   18.2683 C   0  0  0  0  0  0  0  0  0  1  0  0
  -29.5150  -18.5947   21.6767 C   0  0  1  0  0  0  0  0  0  0  0  0
  -31.3688  -21.8764   21.2725 C   0  0  2  0  0  0  0  0  0  0  0  0
  -16.6932  -25.5068   18.3949 C   0  0  0  0  0  0  0  0  0  0  0  0
  -29.7911  -17.6706   22.8962 C   0  0  0  0  0  0  0  0  0  0  0  0
  -18.1523  -22.5057   21.0918 N   0  0  0  0  0  0  0  0  0  0  0  0
  -23.4338  -29.3155   23.4481 N   0  0  0  0  0  0  0  0  0  0  0  0
  -23.2304  -28.1814   24.1398 N   0  0  0  0  0  0  0  0  0  0  0  0
  -28.2528  -17.9011   19.6643 N   0  0  0  0  0  0  0  0  0  0  0  0
  -19.9569  -26.9976   22.5609 N   0  0  0  0  0  0  0  0  0  0  0  0
  -23.9800  -26.9585   26.0248 N   0  0  0  0  0  0  0  0  0  0  0  0
  -26.5915  -30.6428   26.0673 N   0  0  0  0  0  0  0  0  0  0  0  0
  -27.6777  -14.6431   18.3281 N   0  0  0  0  0  0  0  0  0  0  0  0
  -30.5069  -19.6477   21.4881 N   0  0  0  0  0  0  0  0  0  0  0  0
  -17.6643  -26.3037   22.5646 N   0  0  0  0  0  0  0  0  0  0  0  0
  -30.9878  -23.0907   20.4970 N   0  3  0  0  0  0  0  0  0  0  0  0
  -26.1451  -28.6646   27.1377 O   0  0  0  0  0  0  0  0  0  0  0  0
  -26.5229  -15.9106   19.9037 O   0  0  0  0  0  0  0  0  0  0  0  0
  -30.4502  -17.1985   20.0025 O   0  0  0  0  0  0  0  0  0  0  0  0
  -29.0219  -21.4234   21.6246 O   0  0  0  0  0  0  0  0  0  0  0  0
  -18.5603  -27.4859   24.3273 O   0  0  0  0  0  0  0  0  0  0  0  0
  -26.4160  -34.8462   22.4153 O   0  0  0  0  0  0  0  0  0  0  0  0
  -22.8015  -20.6994   18.9535 O   0  0  0  0  0  0  0  0  0  1  0  0
  -27.2465  -38.7286   26.2417 F   0  0  0  0  0  0  0  0  0  0  0  0
  -25.0943  -37.2709   22.2859 F   0  0  0  0  0  0  0  0  0  0  0  0
  1  2  1  0  0  0  0
  1  5  2  0  0  0  0
  2  6  2  0  0  0  0
  3  8  2  0  0  0  0
  3 16  1  0  0  0  0
  4  9  1  0  0  0  0
  4 16  2  0  0  0  0
  5 18  1  0  0  0  0
  6 20  1  0  0  0  0
  7 10  2  0  0  0  0
  7 19  1  0  0  0  0
  8 25  1  0  0  0  0
  9 25  2  0  0  0  0
 10 26  1  0  0  0  0
 11 12  2  0  0  0  0
 11 27  1  0  0  0  0
 12 28  1  0  0  0  0
 13 21  1  0  0  0  0
 13 26  2  0  0  0  0
 14 28  2  0  0  0  0
 14 29  1  0  0  0  0
 15 22  2  0  0  0  0
 15 71  1  0  0  0  0
 16 30  1  0  0  0  0
 17 30  1  0  0  0  0
 17 32  2  0  0  0  0
 17 33  1  0  0  0  0
 18 20  2  0  0  0  0
 18 38  1  0  0  0  0
 19 21  2  0  0  0  0
 19 39  1  0  0  0  0
 20 47  1  0  0  0  0
 21 40  1  0  0  0  0
 22 23  1  0  0  0  0
 22 61  1  0  0  0  0
 23 24  2  0  0  0  0
 23 69  1  0  0  0  0
 24 31  1  0  0  0  0
 24 60  1  0  0  0  0
 25 87  1  0  0  0  0
 26 88  1  0  0  0  0
 27 29  2  0  0  0  0
 27 87  1  0  0  0  0
 28 89  1  0  0  0  0
 29 90  1  0  0  0  0
 30 72  2  0  0  0  0
 31 62  1  0  0  0  0
 31 71  2  0  0  0  0
 32 73  1  0  0  0  0
 32 76  1  0  0  0  0
 33 77  1  0  0  0  0
 33 82  2  0  0  0  0
 34 48  1  0  0  0  0
 34 78  1  0  0  0  0
 34 83  2  0  0  0  0
 35 67  1  0  0  0  0
 35 74  1  0  0  0  0
 35 84  2  0  0  0  0
 36 68  1  0  0  0  0
 36 79  1  0  0  0  0
 36 85  2  0  0  0  0
 37 75  1  0  0  0  0
 37 80  1  0  0  0  0
 37 86  2  0  0  0  0
 38 41  1  0  0  0  0
 39 48  1  0  0  0  0
 40 74  1  0  0  0  0
 41 43  1  0  0  0  0
 42 44  1  0  0  0  0
 42 45  1  0  0  0  0
 43 47  1  0  0  0  0
 44 49  1  0  0  0  0
 45 75  1  0  0  0  0
 46 49  1  0  0  0  0
 46 75  1  0  0  0  0
 47 78  1  0  0  0  0
 48 74  1  0  0  0  0
 49 73  1  0  0  0  0
 50 60  1  0  0  0  0
 51 65  1  0  0  0  0
 52 68  1  0  0  0  0
 53 69  1  0  0  0  0
 54 69  1  0  0  0  0
 55 69  1  0  0  0  0
 56 70  1  0  0  0  0
 57 70  1  0  0  0  0
 58 70  1  0  0  0  0
 59 81  1  0  0  0  0
 61 80  1  0  0  0  0
 62 63  1  0  0  0  0
 63 64  1  0  0  0  0
 64 66  1  0  0  0  0
 65 80  1  0  0  0  0
 66 88  1  0  0  0  0
 67 70  1  0  0  0  0
 67 79  1  0  0  0  0
 68 81  1  0  0  0  0
 72 73  1  0  0  0  0
M  CHG  1  81   1
M  ISO  4  37 100  66 101  80 100  88 101
M  END
> <Batch ID>
0051

> <Smiles>
CCc1c(CCC[101CH2:1][101O:1]c2ccc3c(c2)CN(C(=O)C(NC(=O)C(C)NC)C(C)(C)C)C(C(=O)NC2CCCc4ccccc42)C3)ncc(C[100N:0](CC)[100C:0](=O)N2CCCC(n3nc(-c4ccc(Oc5ccc(F)cc5F)cc4)c(C(N)=O)c3N)C2)c1C(C)(C)C

> <Shape>
0.231

> <Color>
0.051

> <Negative vol penalty>
0.000

$$$$

  -OEChem-04052317333D

 84 92  0     1  0  0  0  0  0999 V2000
  -15.0330  -27.4989   18.6835 C   0  0  0  0  0  0  0  0  0  0  0  0
  -15.7959  -26.3939   18.3197 C   0  0  0  0  0  0  0  0  0  0  0  0
  -23.0580   -9.8947   19.9364 C   0  0  0  0  0  0  0  0  0  0  0  0
  -23.8481   -9.8600   22.2193 C   0  0  0  0  0  0  0  0  0  0  0  0
  -15.4821  -28.3542   19.6888 C   0  0  0  0  0  0  0  0  0  0  0  0
  -17.0091  -26.1443   18.9602 C   0  0  0  0  0  0  0  0  0  0  0  0
  -21.2013  -20.7295   21.0630 C   0  0  0  0  0  0  0  0  0  0  0  0
  -22.3120   -8.7409   20.1770 C   0  0  0  0  0  0  0  0  0  0  0  0
  -23.1020   -8.7062   22.4600 C   0  0  0  0  0  0  0  0  0  0  0  0
  -22.5188  -20.2851   20.9611 C   0  0  0  0  0  0  0  0  0  0  0  0
  -19.8783   -7.9132   23.0919 C   0  0  0  0  0  0  0  0  0  0  0  0
  -19.1367   -7.8572   24.2719 C   0  0  0  0  0  0  0  0  0  0  0  0
  -23.1564  -21.7866   22.7382 C   0  0  0  0  0  0  0  0  0  0  0  0
  -20.3785   -5.9021   24.9595 C   0  0  0  0  0  0  0  0  0  0  0  0
  -23.8261  -10.4542   20.9576 C   0  0  0  0  0  0  0  0  0  0  0  0
  -24.1783  -12.9794   20.8750 C   0  0  0  0  0  0  0  0  0  0  0  0
  -16.6967  -28.1095   20.3487 C   0  0  0  0  0  0  0  0  0  0  0  0
  -20.8530  -21.7154   21.9974 C   0  0  0  0  0  0  0  0  0  0  0  0
  -17.4755  -26.9979   19.9744 C   0  0  0  0  0  0  0  0  0  0  0  0
  -21.8333  -22.2400   22.8517 C   0  0  0  0  0  0  0  0  0  0  0  0
  -22.3340   -8.1467   21.4388 C   0  0  0  0  0  0  0  0  0  0  0  0
  -23.4972  -20.8157   21.7968 C   0  0  0  0  0  0  0  0  0  0  0  0
  -20.8700   -6.9636   22.8456 C   0  0  0  0  0  0  0  0  0  0  0  0
  -19.3868   -6.8516   25.2057 C   0  0  0  0  0  0  0  0  0  0  0  0
  -21.1201   -5.9581   23.7795 C   0  0  0  0  0  0  0  0  0  0  0  0
  -24.5974  -11.6457   20.7095 C   0  0  0  0  0  0  0  0  0  0  0  0
  -28.5456  -18.8971   19.7389 C   0  0  0  0  0  0  0  0  0  0  0  0
  -27.0769  -18.5129   21.9349 C   0  0  0  0  0  0  0  0  0  0  0  0
  -26.5162  -19.0242   20.7853 C   0  0  0  0  0  0  0  0  0  0  0  0
  -29.1065  -18.3865   20.8887 C   0  0  0  0  0  0  0  0  0  0  0  0
  -25.2692  -13.7299   20.5097 C   0  0  0  0  0  0  0  0  0  0  0  0
  -22.9160  -13.4940   21.3192 C   0  0  0  0  0  0  0  0  0  0  0  0
  -19.6619  -24.6568   21.8162 C   0  0  0  0  0  0  0  0  0  0  0  0
  -19.5628  -24.3962   25.0480 C   0  0  0  0  0  0  0  0  0  0  0  0
  -20.7757  -22.9162   27.8738 C   0  0  0  0  0  0  0  0  0  0  0  0
  -30.7597  -14.7207   20.6423 C   0  0  0  0  0  0  0  0  0  0  0  0
  -17.1637  -29.0886   21.3965 C   0  0  0  0  0  0  0  0  0  0  0  0
  -19.4222  -22.1648   22.1130 C   0  0  0  0  0  0  0  0  0  0  0  0
  -21.5071  -23.2857   23.8854 C   0  0  0  0  0  0  0  0  0  0  0  0
  -18.2797  -28.5442   22.2845 C   0  0  0  0  0  0  0  0  0  0  0  0
  -29.5794  -12.3815   18.2315 C   0  0  0  0  0  0  0  0  0  0  0  0
  -19.3565  -27.8733   21.4377 C   0  0  0  0  0  0  0  0  0  0  0  0
  -28.1464  -12.0872   18.6785 C   0  0  0  0  0  0  0  0  0  0  0  0
  -30.5133  -12.5781   19.4237 C   0  0  0  0  0  0  0  0  0  0  0  0
  -28.6335  -13.2946   20.8473 C   0  0  0  0  0  0  0  0  0  0  0  0
  -18.7850  -26.6797   20.6630 C   0  0  1  0  0  0  0  0  0  0  0  0
  -19.2786  -23.5436   22.7498 C   0  0  1  0  0  0  0  0  0  0  0  0
  -27.6431  -13.1441   19.6799 C   0  0  2  0  0  0  0  0  0  0  0  0
  -29.3574  -19.1155   18.5082 C   0  0  0  0  0  0  0  0  0  0  0  0
  -26.7565  -17.1023   23.9829 C   0  0  0  0  0  0  0  0  0  0  0  0
  -31.4281  -19.2377   21.3467 C   0  0  0  0  0  0  0  0  0  0  0  0
  -20.5258  -22.9366   30.3707 C   0  0  0  0  0  0  0  0  0  0  0  0
  -21.1354  -27.0075   25.1817 C   0  0  0  0  0  0  0  0  0  0  0  0
  -21.6673  -26.4838   27.5714 C   0  0  0  0  0  0  0  0  0  0  0  0
  -19.2970  -26.8095   26.8656 C   0  0  0  0  0  0  0  0  0  0  0  0
  -19.9415  -20.0772   27.9296 C   0  0  0  0  0  0  0  0  0  0  0  0
  -26.2646  -18.2944   23.1654 C   0  0  0  0  0  0  0  0  0  0  0  0
  -25.0614  -19.3855   20.7181 C   0  0  0  0  0  0  0  0  0  1  0  0
  -30.8521  -16.8501   21.9138 C   0  0  0  0  0  0  0  0  0  0  0  0
  -30.5519  -18.0289   20.9557 C   0  0  1  0  0  0  0  0  0  0  0  0
  -20.5179  -24.7059   26.1753 C   0  0  1  0  0  0  0  0  0  0  0  0
  -20.0721  -22.2967   29.0678 C   0  0  2  0  0  0  0  0  0  0  0  0
  -20.6612  -26.2334   26.4278 C   0  0  0  0  0  0  0  0  0  0  0  0
  -25.8561  -11.5511   20.2729 N   0  0  0  0  0  0  0  0  0  0  0  0
  -27.2403  -19.2252   19.6665 N   0  0  0  0  0  0  0  0  0  0  0  0
  -28.3822  -18.1852   22.0074 N   0  0  0  0  0  0  0  0  0  0  0  0
  -26.2374  -12.8349   20.1609 N   0  0  0  0  0  0  0  0  0  0  0  0
  -20.0953  -23.6973   23.9554 N   0  0  0  0  0  0  0  0  0  0  0  0
  -29.9794  -13.5942   20.3338 N   0  0  0  0  0  0  0  0  0  0  0  0
  -25.4849  -15.0614   20.4561 N   0  0  0  0  0  0  0  0  0  0  0  0
  -21.9043  -12.5839   21.6547 N   0  0  0  0  0  0  0  0  0  0  0  0
  -18.6331  -25.5360   21.5366 N   0  0  0  0  0  0  0  0  0  0  0  0
  -20.0443  -23.9512   27.3305 N   0  0  0  0  0  0  0  0  0  0  0  0
  -30.1761  -15.6381   21.5075 N   0  0  0  0  0  0  0  0  0  0  0  0
  -20.3583  -20.8358   29.1370 N   0  3  0  0  0  0  0  0  0  0  0  0
  -22.6863  -14.7245   21.4001 O   0  0  0  0  0  0  0  0  0  0  0  0
  -20.8067  -24.7147   21.3828 O   0  0  0  0  0  0  0  0  0  0  0  0
  -18.3858  -24.7548   25.1368 O   0  0  0  0  0  0  0  0  0  0  0  0
  -21.8668  -22.5239   27.4663 O   0  0  0  0  0  0  0  0  0  0  0  0
  -31.8904  -14.8986   20.1766 O   0  0  0  0  0  0  0  0  0  0  0  0
  -21.6060   -7.0210   21.6740 O   0  0  0  0  0  0  0  0  0  0  0  0
  -24.7841  -20.3842   21.6990 O   0  0  0  0  0  0  0  0  0  1  0  0
  -18.6755   -6.7989   26.3395 F   0  0  0  0  0  0  0  0  0  0  0  0
  -22.0723   -5.0437   23.5490 F   0  0  0  0  0  0  0  0  0  0  0  0
  1  2  1  0  0  0  0
  1  5  2  0  0  0  0
  2  6  2  0  0  0  0
  3  8  2  0  0  0  0
  3 15  1  0  0  0  0
  4  9  1  0  0  0  0
  4 15  2  0  0  0  0
  5 17  1  0  0  0  0
  6 19  1  0  0  0  0
  7 10  2  0  0  0  0
  7 18  1  0  0  0  0
  8 21  1  0  0  0  0
  9 21  2  0  0  0  0
 10 22  1  0  0  0  0
 11 12  2  0  0  0  0
 11 23  1  0  0  0  0
 12 24  1  0  0  0  0
 13 20  1  0  0  0  0
 13 22  2  0  0  0  0
 14 24  2  0  0  0  0
 14 25  1  0  0  0  0
 15 26  1  0  0  0  0
 16 26  1  0  0  0  0
 16 31  2  0  0  0  0
 16 32  1  0  0  0  0
 17 19  2  0  0  0  0
 17 37  1  0  0  0  0
 18 20  2  0  0  0  0
 18 38  1  0  0  0  0
 19 46  1  0  0  0  0
 20 39  1  0  0  0  0
 21 81  1  0  0  0  0
 22 82  1  0  0  0  0
 23 25  2  0  0  0  0
 23 81  1  0  0  0  0
 24 83  1  0  0  0  0
 25 84  1  0  0  0  0
 26 64  2  0  0  0  0
 27 30  1  0  0  0  0
 27 49  1  0  0  0  0
 27 65  2  0  0  0  0
 28 29  2  0  0  0  0
 28 57  1  0  0  0  0
 28 66  1  0  0  0  0
 29 58  1  0  0  0  0
 29 65  1  0  0  0  0
 30 60  1  0  0  0  0
 30 66  2  0  0  0  0
 31 67  1  0  0  0  0
 31 70  1  0  0  0  0
 32 71  1  0  0  0  0
 32 76  2  0  0  0  0
 33 47  1  0  0  0  0
 33 72  1  0  0  0  0
 33 77  2  0  0  0  0
 34 61  1  0  0  0  0
 34 68  1  0  0  0  0
 34 78  2  0  0  0  0
 35 62  1  0  0  0  0
 35 73  1  0  0  0  0
 35 79  2  0  0  0  0
 36 69  1  0  0  0  0
 36 74  1  0  0  0  0
 36 80  2  0  0  0  0
 37 40  1  0  0  0  0
 38 47  1  0  0  0  0
 39 68  1  0  0  0  0
 40 42  1  0  0  0  0
 41 43  1  0  0  0  0
 41 44  1  0  0  0  0
 42 46  1  0  0  0  0
 43 48  1  0  0  0  0
 44 69  1  0  0  0  0
 45 48  1  0  0  0  0
 45 69  1  0  0  0  0
 46 72  1  0  0  0  0
 47 68  1  0  0  0  0
 48 67  1  0  0  0  0
 50 57  1  0  0  0  0
 51 60  1  0  0  0  0
 52 62  1  0  0  0  0
 53 63  1  0  0  0  0
 54 63  1  0  0  0  0
 55 63  1  0  0  0  0
 56 75  1  0  0  0  0
 58 82  1  0  0  0  0
 59 60  1  0  0  0  0
 59 74  1  0  0  0  0
 61 63  1  0  0  0  0
 61 73  1  0  0  0  0
 62 75  1  0  0  0  0
 64 67  1  0  0  0  0
M  CHG  1  75   1
M  ISO  4  36 100  58 101  74 100  82 101
M  END
> <Batch ID>
0051

> <Smiles>
CCc1nc(C(C)C[100NH:0][100C:0](=O)N2CCCC(n3nc(-c4ccc(Oc5ccc(F)cc5F)cc4)c(C(N)=O)c3N)C2)c(C)nc1[101CH2:1][101O:1]c1ccc2c(c1)CN(C(=O)C(NC(=O)C(C)NC)C(C)(C)C)C(C(=O)NC1CCCc3ccccc31)C2

> <Shape>
0.232

> <Color>
0.184

> <Negative vol penalty>
0.000

$$$$

  -OEChem-04052317333D

 89 97  0     1  0  0  0  0  0999 V2000
  -27.4510  -33.8597   25.9457 C   0  0  0  0  0  0  0  0  0  0  0  0
  -27.7203  -32.6590   25.2967 C   0  0  0  0  0  0  0  0  0  0  0  0
  -23.8093   -9.7838   22.3942 C   0  0  0  0  0  0  0  0  0  0  0  0
  -23.1923   -9.9589   20.0648 C   0  0  0  0  0  0  0  0  0  0  0  0
  -26.1431  -34.1750   26.3115 C   0  0  0  0  0  0  0  0  0  0  0  0
  -26.6818  -31.7724   25.0140 C   0  0  0  0  0  0  0  0  0  0  0  0
  -26.9414  -29.9123   20.3111 C   0  0  0  0  0  0  0  0  0  0  0  0
  -22.8990   -8.7395   22.5567 C   0  0  0  0  0  0  0  0  0  0  0  0
  -22.2821   -8.9145   20.2274 C   0  0  0  0  0  0  0  0  0  0  0  0
  -27.8646  -28.8937   20.0793 C   0  0  0  0  0  0  0  0  0  0  0  0
  -22.7587   -5.4295   21.8804 C   0  0  0  0  0  0  0  0  0  0  0  0
  -23.1825   -4.3046   22.5878 C   0  0  0  0  0  0  0  0  0  0  0  0
  -26.0936  -27.2627   20.2299 C   0  0  0  0  0  0  0  0  0  0  0  0
  -21.4233   -4.6592   24.2055 C   0  0  0  0  0  0  0  0  0  0  0  0
  -24.8825  -22.5035   17.0580 C   0  0  0  0  0  0  0  0  0  0  0  0
  -23.9559  -10.3936   21.1482 C   0  0  0  0  0  0  0  0  0  0  0  0
  -26.2508  -11.3705   20.6129 C   0  0  0  0  0  0  0  0  0  0  0  0
  -25.0867  -33.2962   26.0246 C   0  0  0  0  0  0  0  0  0  0  0  0
  -25.5868  -29.6125   20.5152 C   0  0  0  0  0  0  0  0  0  0  0  0
  -25.3587  -32.0756   25.3775 C   0  0  0  0  0  0  0  0  0  0  0  0
  -25.1548  -28.2796   20.4615 C   0  0  0  0  0  0  0  0  0  0  0  0
  -22.1355   -8.3048   21.4734 C   0  0  0  0  0  0  0  0  0  0  0  0
  -27.4412  -27.5683   20.0416 C   0  0  0  0  0  0  0  0  0  0  0  0
  -21.6673   -6.1694   22.3355 C   0  0  0  0  0  0  0  0  0  0  0  0
  -22.5147   -3.9194   23.7503 C   0  0  0  0  0  0  0  0  0  0  0  0
  -20.9996   -5.7843   23.4980 C   0  0  0  0  0  0  0  0  0  0  0  0
  -24.8955  -11.4728   20.9798 C   0  0  0  0  0  0  0  0  0  0  0  0
  -25.6942  -21.6754   17.7806 C   0  0  0  0  0  0  0  0  0  0  0  0
  -26.6995  -12.6685   20.5908 C   0  0  0  0  0  0  0  0  0  0  0  0
  -26.9637  -22.8185   16.3727 C   0  0  0  0  0  0  0  0  0  0  0  0
  -27.0341  -10.2063   20.3184 C   0  0  0  0  0  0  0  0  0  0  0  0
  -23.5365  -30.0149   22.9106 C   0  0  0  0  0  0  0  0  0  0  0  0
  -21.3918  -28.9013   20.7467 C   0  0  0  0  0  0  0  0  0  0  0  0
  -20.8077  -27.0839   17.9178 C   0  0  0  0  0  0  0  0  0  0  0  0
  -24.1153  -17.7726   19.6543 C   0  0  0  0  0  0  0  0  0  0  0  0
  -23.6960  -33.6590   26.4817 C   0  0  0  0  0  0  0  0  0  0  0  0
  -24.5992  -30.7249   20.7374 C   0  0  0  0  0  0  0  0  0  0  0  0
  -23.7084  -27.9064   20.6543 C   0  0  0  0  0  0  0  0  0  0  0  0
  -22.6000  -32.8346   25.8113 C   0  0  0  0  0  0  0  0  0  0  0  0
  -25.9217  -16.9435   22.5734 C   0  0  0  0  0  0  0  0  0  0  0  0
  -22.9652  -31.3536   25.8198 C   0  0  0  0  0  0  0  0  0  0  0  0
  -25.9897  -15.4208   22.4650 C   0  0  0  0  0  0  0  0  0  0  0  0
  -24.5614  -17.4905   22.1368 C   0  0  0  0  0  0  0  0  0  0  0  0
  -24.2097  -15.5210   20.6808 C   0  0  0  0  0  0  0  0  0  0  0  0
  -24.2557  -31.0991   25.0315 C   0  0  1  0  0  0  0  0  0  0  0  0
  -23.3280  -30.2633   21.4434 C   0  0  1  0  0  0  0  0  0  0  0  0
  -25.5861  -14.9510   21.0566 C   0  0  2  0  0  0  0  0  0  0  0  0
  -21.4364  -19.5977   20.4988 C   0  0  0  0  0  0  0  0  0  0  0  0
  -18.9482  -26.3225   16.4144 C   0  0  0  0  0  0  0  0  0  0  0  0
  -20.5778  -26.8117   22.8157 C   0  0  0  0  0  0  0  0  0  0  0  0
  -19.4538  -25.5332   20.9798 C   0  0  0  0  0  0  0  0  0  0  0  0
  -18.6722  -27.8308   21.5569 C   0  0  0  0  0  0  0  0  0  0  0  0
  -23.7071  -24.3491   15.3424 C   0  0  0  0  0  0  0  0  0  0  0  0
  -25.6253  -23.7553   13.8102 C   0  0  0  0  0  0  0  0  0  0  0  0
  -25.8513  -25.5986   15.4595 C   0  0  0  0  0  0  0  0  0  0  0  0
  -21.9560  -28.5007   15.5870 C   0  0  0  0  0  0  0  0  0  0  0  0
  -25.3942  -20.7079   18.8393 C   0  0  0  0  0  0  0  0  0  0  0  0
  -28.1750  -23.3290   15.6335 C   0  0  0  0  0  0  0  0  0  0  0  0
  -29.2648  -23.8985   16.5488 C   0  0  0  0  0  0  0  0  0  0  0  0
  -28.8035  -25.1288   17.3364 C   0  0  0  0  0  0  0  0  0  0  0  0
  -29.9093  -25.6434   18.2563 C   0  0  0  0  0  0  0  0  0  0  0  0
  -22.8981  -19.6101   20.8981 C   0  0  0  0  0  0  0  0  0  0  0  0
  -23.9977  -20.0574   18.7355 C   0  0  0  0  0  0  0  0  0  0  0  0
  -29.4755  -26.8911   19.0125 C   0  0  0  0  0  0  0  0  0  1  0  0
  -20.8775  -27.5368   20.3559 C   0  0  1  0  0  0  0  0  0  0  0  0
  -19.9978  -27.3926   16.6715 C   0  0  2  0  0  0  0  0  0  0  0  0
  -19.9230  -26.9347   21.4253 C   0  0  0  0  0  0  0  0  0  0  0  0
  -25.2407  -24.1921   15.2414 C   0  0  0  0  0  0  0  0  0  0  0  0
  -24.5086  -12.7360   21.1767 N   0  0  0  0  0  0  0  0  0  0  0  0
  -25.6945  -23.1993   16.1951 N   0  0  0  0  0  0  0  0  0  0  0  0
  -25.6275  -13.4393   20.9328 N   0  0  0  0  0  0  0  0  0  0  0  0
  -26.9762  -21.8910   17.3356 N   0  3  0  0  0  0  0  0  0  0  0  0
  -22.7821  -29.0292   20.8748 N   0  0  0  0  0  0  0  0  0  0  0  0
  -24.1935  -16.9802   20.8090 N   0  0  0  0  0  0  0  0  0  0  0  0
  -27.9024  -13.2142   20.3125 N   0  0  0  0  0  0  0  0  0  0  0  0
  -26.4164   -8.9502   20.3883 N   0  0  0  0  0  0  0  0  0  0  0  0
  -23.9907  -31.1175   23.6088 N   0  0  0  0  0  0  0  0  0  0  0  0
  -20.2753  -27.6902   19.0360 N   0  0  0  0  0  0  0  0  0  0  0  0
  -23.7565  -19.1185   19.8220 N   0  0  0  0  0  0  0  0  0  0  0  0
  -20.8900  -27.4715   15.4804 N   0  3  0  0  0  0  0  0  0  0  0  0
  -28.2501  -10.2766   20.0186 O   0  0  0  0  0  0  0  0  0  0  0  0
  -23.3011  -28.9056   23.3750 O   0  0  0  0  0  0  0  0  0  0  0  0
  -20.5899  -29.8217   20.9245 O   0  0  0  0  0  0  0  0  0  0  0  0
  -21.8100  -26.3727   17.9017 O   0  0  0  0  0  0  0  0  0  0  0  0
  -24.3456  -17.3025   18.5327 O   0  0  0  0  0  0  0  0  0  0  0  0
  -21.2474   -7.2856   21.6316 O   0  0  0  0  0  0  0  0  0  0  0  0
  -28.3404  -26.5720   19.8162 O   0  0  0  0  0  0  0  0  0  1  0  0
  -22.9208   -2.8382   24.4287 F   0  0  0  0  0  0  0  0  0  0  0  0
  -19.9497   -6.4904   23.9395 F   0  0  0  0  0  0  0  0  0  0  0  0
  1  2  1  0  0  0  0
  1  5  2  0  0  0  0
  2  6  2  0  0  0  0
  3  8  2  0  0  0  0
  3 16  1  0  0  0  0
  4  9  1  0  0  0  0
  4 16  2  0  0  0  0
  5 18  1  0  0  0  0
  6 20  1  0  0  0  0
  7 10  2  0  0  0  0
  7 19  1  0  0  0  0
  8 22  1  0  0  0  0
  9 22  2  0  0  0  0
 10 23  1  0  0  0  0
 11 12  2  0  0  0  0
 11 24  1  0  0  0  0
 12 25  1  0  0  0  0
 13 21  1  0  0  0  0
 13 23  2  0  0  0  0
 14 25  2  0  0  0  0
 14 26  1  0  0  0  0
 15 28  2  0  0  0  0
 15 70  1  0  0  0  0
 16 27  1  0  0  0  0
 17 27  1  0  0  0  0
 17 29  2  0  0  0  0
 17 31  1  0  0  0  0
 18 20  2  0  0  0  0
 18 36  1  0  0  0  0
 19 21  2  0  0  0  0
 19 37  1  0  0  0  0
 20 45  1  0  0  0  0
 21 38  1  0  0  0  0
 22 86  1  0  0  0  0
 23 87  1  0  0  0  0
 24 26  2  0  0  0  0
 24 86  1  0  0  0  0
 25 88  1  0  0  0  0
 26 89  1  0  0  0  0
 27 69  2  0  0  0  0
 28 57  1  0  0  0  0
 28 72  1  0  0  0  0
 29 71  1  0  0  0  0
 29 75  1  0  0  0  0
 30 58  1  0  0  0  0
 30 70  1  0  0  0  0
 30 72  2  0  0  0  0
 31 76  1  0  0  0  0
 31 81  2  0  0  0  0
 32 46  1  0  0  0  0
 32 77  1  0  0  0  0
 32 82  2  0  0  0  0
 33 65  1  0  0  0  0
 33 73  1  0  0  0  0
 33 83  2  0  0  0  0
 34 66  1  0  0  0  0
 34 78  1  0  0  0  0
 34 84  2  0  0  0  0
 35 74  1  0  0  0  0
 35 79  1  0  0  0  0
 35 85  2  0  0  0  0
 36 39  1  0  0  0  0
 37 46  1  0  0  0  0
 38 73  1  0  0  0  0
 39 41  1  0  0  0  0
 40 42  1  0  0  0  0
 40 43  1  0  0  0  0
 41 45  1  0  0  0  0
 42 47  1  0  0  0  0
 43 74  1  0  0  0  0
 44 47  1  0  0  0  0
 44 74  1  0  0  0  0
 45 77  1  0  0  0  0
 46 73  1  0  0  0  0
 47 71  1  0  0  0  0
 48 62  1  0  0  0  0
 49 66  1  0  0  0  0
 50 67  1  0  0  0  0
 51 67  1  0  0  0  0
 52 67  1  0  0  0  0
 53 68  1  0  0  0  0
 54 68  1  0  0  0  0
 55 68  1  0  0  0  0
 56 80  1  0  0  0  0
 57 63  1  0  0  0  0
 58 59  1  0  0  0  0
 59 60  1  0  0  0  0
 60 61  1  0  0  0  0
 61 64  1  0  0  0  0
 62 79  1  0  0  0  0
 63 79  1  0  0  0  0
 64 87  1  0  0  0  0
 65 67  1  0  0  0  0
 65 78  1  0  0  0  0
 66 80  1  0  0  0  0
 68 70  1  0  0  0  0
 69 71  1  0  0  0  0
M  CHG  2  72   1  80   1
M  ISO  4  35 100  64 101  79 100  87 101
M  END
> <Batch ID>
0051

> <Smiles>
CC[100N:0](CCc1cn(C(C)(C)C)c(CCCC[101CH2:1][101O:1]c2ccc3c(c2)CN(C(=O)C(NC(=O)C(C)NC)C(C)(C)C)C(C(=O)NC2CCCc4ccccc42)C3)n1)[100C:0](=O)N1CCCC(n2nc(-c3ccc(Oc4ccc(F)cc4F)cc3)c(C(N)=O)c2N)C1

> <Shape>
0.283

> <Color>
0.118

> <Negative vol penalty>
0.000

$$$$

  -OEChem-04052317333D

 90 98  0     1  0  0  0  0  0999 V2000
  -17.4913  -25.8419   21.8526 C   0  0  0  0  0  0  0  0  0  0  0  0
  -18.2562  -26.3366   20.8011 C   0  0  0  0  0  0  0  0  0  0  0  0
  -29.3498  -13.9381   20.7800 C   0  0  0  0  0  0  0  0  0  0  0  0
  -27.9062  -14.5945   18.9573 C   0  0  0  0  0  0  0  0  0  0  0  0
  -17.3937  -26.5632   23.0417 C   0  0  0  0  0  0  0  0  0  0  0  0
  -18.9231  -27.5536   20.9378 C   0  0  0  0  0  0  0  0  0  0  0  0
  -25.6206  -26.9609   20.9510 C   0  0  0  0  0  0  0  0  0  0  0  0
  -30.8850  -22.7858   21.3557 C   0  0  0  0  0  0  0  0  0  0  0  0
  -29.5033  -12.6769   20.2042 C   0  0  0  0  0  0  0  0  0  0  0  0
  -28.0597  -13.3334   18.3815 C   0  0  0  0  0  0  0  0  0  0  0  0
  -26.8890  -26.8210   20.3875 C   0  0  0  0  0  0  0  0  0  0  0  0
  -29.9968   -8.9537   18.5675 C   0  0  0  0  0  0  0  0  0  0  0  0
  -30.8053   -8.0304   19.2304 C   0  0  0  0  0  0  0  0  0  0  0  0
  -31.1429  -24.0051   20.7392 C   0  0  0  0  0  0  0  0  0  0  0  0
  -26.8924  -29.1636   19.7873 C   0  0  0  0  0  0  0  0  0  0  0  0
  -31.2433   -9.6573   20.9620 C   0  0  0  0  0  0  0  0  0  0  0  0
  -28.5512  -14.8969   20.1566 C   0  0  0  0  0  0  0  0  0  0  0  0
  -28.9680  -16.6638   21.9488 C   0  0  0  0  0  0  0  0  0  0  0  0
  -18.0675  -27.7849   23.1966 C   0  0  0  0  0  0  0  0  0  0  0  0
  -24.9890  -28.2077   20.9485 C   0  0  0  0  0  0  0  0  0  0  0  0
  -18.8333  -28.2926   22.1297 C   0  0  0  0  0  0  0  0  0  0  0  0
  -25.6272  -29.3126   20.3614 C   0  0  0  0  0  0  0  0  0  0  0  0
  -29.6088  -22.2375   21.2929 C   0  0  0  0  0  0  0  0  0  0  0  0
  -28.8583  -12.3746   19.0050 C   0  0  0  0  0  0  0  0  0  0  0  0
  -27.5232  -27.9196   19.8068 C   0  0  0  0  0  0  0  0  0  0  0  0
  -29.8116  -10.2289   19.1017 C   0  0  0  0  0  0  0  0  0  0  0  0
  -31.4285   -8.3822   20.4277 C   0  0  0  0  0  0  0  0  0  0  0  0
  -30.4349  -10.5806   20.2990 C   0  0  0  0  0  0  0  0  0  0  0  0
  -28.3918  -16.1997   20.7511 C   0  0  0  0  0  0  0  0  0  0  0  0
  -30.0986  -24.6311   20.0779 C   0  0  0  0  0  0  0  0  0  0  0  0
  -28.6331  -22.9427   20.6070 C   0  0  0  0  0  0  0  0  0  0  0  0
  -28.5117  -17.9534   22.0721 C   0  0  0  0  0  0  0  0  0  0  0  0
  -29.8380  -15.9896   22.8675 C   0  0  0  0  0  0  0  0  0  0  0  0
  -21.9762  -30.2237   21.9154 C   0  0  0  0  0  0  0  0  0  0  0  0
  -24.4333  -31.9801   22.4522 C   0  0  0  0  0  0  0  0  0  0  0  0
  -24.3022  -34.8665   20.6387 C   0  0  0  0  0  0  0  0  0  0  0  0
  -27.0305  -22.3250   18.2888 C   0  0  0  0  0  0  0  0  0  0  0  0
  -17.8937  -28.5518   24.4836 C   0  0  0  0  0  0  0  0  0  0  0  0
  -23.5969  -28.3911   21.4893 C   0  0  0  0  0  0  0  0  0  0  0  0
  -24.8951  -30.6267   20.3508 C   0  0  0  0  0  0  0  0  0  0  0  0
  -18.9342  -29.6507   24.6831 C   0  0  0  0  0  0  0  0  0  0  0  0
  -24.8695  -19.3297   19.1810 C   0  0  0  0  0  0  0  0  0  0  0  0
  -19.0959  -30.4708   23.4071 C   0  0  0  0  0  0  0  0  0  0  0  0
  -25.4343  -19.2630   20.5982 C   0  0  0  0  0  0  0  0  0  0  0  0
  -25.2658  -20.6257   18.4757 C   0  0  0  0  0  0  0  0  0  0  0  0
  -27.5184  -20.0606   19.3364 C   0  0  0  0  0  0  0  0  0  0  0  0
  -19.5915  -29.5968   22.2487 C   0  0  1  0  0  0  0  0  0  0  0  0
  -23.3839  -29.7627   22.1547 C   0  0  1  0  0  0  0  0  0  0  0  0
  -26.9685  -19.4490   20.6370 C   0  0  2  0  0  0  0  0  0  0  0  0
  -26.8009  -22.2190   19.0559 C   0  0  0  0  0  0  0  0  0  0  0  0
  -22.5736  -34.2179   18.9391 C   0  0  0  0  0  0  0  0  0  0  0  0
  -27.8572  -33.2093   22.6064 C   0  0  0  0  0  0  0  0  0  0  0  0
  -27.2328  -32.6636   20.2441 C   0  0  0  0  0  0  0  0  0  0  0  0
  -26.8498  -30.9883   22.0523 C   0  0  0  0  0  0  0  0  0  0  0  0
  -28.8951  -24.0245   18.1498 C   0  0  0  0  0  0  0  0  0  0  0  0
  -25.0004  -36.3226   17.4749 C   0  0  0  0  0  0  0  0  0  0  0  0
  -31.5180  -18.2850   19.4333 C   0  0  0  0  0  0  0  0  0  0  0  0
  -29.3262  -20.9321   21.9525 C   0  0  0  0  0  0  0  0  0  0  0  0
  -30.3431  -25.9552   19.3959 C   0  0  0  0  0  0  0  0  0  0  0  0
  -27.2452  -22.4006   20.5041 C   0  0  0  0  0  0  0  0  0  0  0  0
  -28.7313  -19.8593   21.0184 C   0  0  0  0  0  0  0  0  0  0  0  0
  -28.6730  -20.4209   19.3365 C   0  0  0  0  0  0  0  0  0  0  0  0
  -29.2705  -21.8147   19.1770 C   0  0  0  0  0  0  0  0  0  0  0  0
  -29.5385  -18.5686   20.9172 C   0  0  0  0  0  0  0  0  0  0  0  0
  -29.4518  -19.3667   18.5600 C   0  0  0  0  0  0  0  0  0  0  0  0
  -29.0898  -26.4988   18.7185 C   0  0  0  0  0  0  0  0  0  1  0  0
  -25.3724  -33.0361   21.9267 C   0  0  1  0  0  0  0  0  0  0  0  0
  -23.7066  -35.1745   19.2768 C   0  0  2  0  0  0  0  0  0  0  0  0
  -26.8159  -32.4962   21.7209 C   0  0  0  0  0  0  0  0  0  0  0  0
  -27.6276  -17.1195   20.1562 N   0  0  0  0  0  0  0  0  0  0  0  0
  -28.8459  -24.1295   19.9956 N   0  0  0  0  0  0  0  0  0  0  0  0
  -27.7204  -18.1745   20.9835 N   0  0  0  0  0  0  0  0  0  0  0  0
  -24.2418  -30.8483   21.6503 N   0  0  0  0  0  0  0  0  0  0  0  0
  -26.6145  -21.0880   18.8077 N   0  0  0  0  0  0  0  0  0  0  0  0
  -28.7140  -18.9084   23.0046 N   0  0  0  0  0  0  0  0  0  0  0  0
  -30.2084  -14.6669   22.5888 N   0  0  0  0  0  0  0  0  0  0  0  0
  -21.0114  -29.3476   22.3751 N   0  0  0  0  0  0  0  0  0  0  0  0
  -24.7544  -33.5662   20.7161 N   0  0  0  0  0  0  0  0  0  0  0  0
  -28.3218  -22.7633   18.6110 N   0  0  0  0  0  0  0  0  0  0  0  0
  -24.7491  -35.0609   18.2179 N   0  3  0  0  0  0  0  0  0  0  0  0
  -30.0128  -18.3547   19.5301 N   0  3  1  0  0  0  0  0  0  0  0  0
  -30.2608  -16.5381   23.9134 O   0  0  0  0  0  0  0  0  0  0  0  0
  -21.7784  -31.2961   21.3563 O   0  0  0  0  0  0  0  0  0  0  0  0
  -23.8788  -32.1538   23.5410 O   0  0  0  0  0  0  0  0  0  0  0  0
  -24.3638  -35.6974   21.5422 O   0  0  0  0  0  0  0  0  0  0  0  0
  -26.2819  -23.0043   17.5733 O   0  0  0  0  0  0  0  0  0  0  0  0
  -29.0081  -11.1441   18.4428 O   0  0  0  0  0  0  0  0  0  0  0  0
  -28.7634  -27.7770   19.2624 O   0  0  0  0  0  0  0  0  0  1  0  0
  -32.2036   -7.4949   21.0650 F   0  0  0  0  0  0  0  0  0  0  0  0
  -30.2598  -11.8038   20.8178 F   0  0  0  0  0  0  0  0  0  0  0  0
  1  2  1  0  0  0  0
  1  5  2  0  0  0  0
  2  6  2  0  0  0  0
  3  9  2  0  0  0  0
  3 17  1  0  0  0  0
  4 10  1  0  0  0  0
  4 17  2  0  0  0  0
  5 19  1  0  0  0  0
  6 21  1  0  0  0  0
  7 11  2  0  0  0  0
  7 20  1  0  0  0  0
  8 14  2  0  0  0  0
  8 23  1  0  0  0  0
  9 24  1  0  0  0  0
 10 24  2  0  0  0  0
 11 25  1  0  0  0  0
 12 13  2  0  0  0  0
 12 26  1  0  0  0  0
 13 27  1  0  0  0  0
 14 30  1  0  0  0  0
 15 22  1  0  0  0  0
 15 25  2  0  0  0  0
 16 27  2  0  0  0  0
 16 28  1  0  0  0  0
 17 29  1  0  0  0  0
 18 29  1  0  0  0  0
 18 32  2  0  0  0  0
 18 33  1  0  0  0  0
 19 21  2  0  0  0  0
 19 38  1  0  0  0  0
 20 22  2  0  0  0  0
 20 39  1  0  0  0  0
 21 47  1  0  0  0  0
 22 40  1  0  0  0  0
 23 31  2  0  0  0  0
 23 58  1  0  0  0  0
 24 87  1  0  0  0  0
 25 88  1  0  0  0  0
 26 28  2  0  0  0  0
 26 87  1  0  0  0  0
 27 89  1  0  0  0  0
 28 90  1  0  0  0  0
 29 70  2  0  0  0  0
 30 59  1  0  0  0  0
 30 71  2  0  0  0  0
 31 60  1  0  0  0  0
 31 71  1  0  0  0  0
 32 72  1  0  0  0  0
 32 75  1  0  0  0  0
 33 76  1  0  0  0  0
 33 82  2  0  0  0  0
 34 48  1  0  0  0  0
 34 77  1  0  0  0  0
 34 83  2  0  0  0  0
 35 67  1  0  0  0  0
 35 73  1  0  0  0  0
 35 84  2  0  0  0  0
 36 68  1  0  0  0  0
 36 78  1  0  0  0  0
 36 85  2  0  0  0  0
 37 74  1  0  0  0  0
 37 79  1  0  0  0  0
 37 86  2  0  0  0  0
 38 41  1  0  0  0  0
 39 48  1  0  0  0  0
 40 73  1  0  0  0  0
 41 43  1  0  0  0  0
 42 44  1  0  0  0  0
 42 45  1  0  0  0  0
 43 47  1  0  0  0  0
 44 49  1  0  0  0  0
 45 74  1  0  0  0  0
 46 49  1  0  0  0  0
 46 74  1  0  0  0  0
 47 77  1  0  0  0  0
 48 73  1  0  0  0  0
 49 72  1  0  0  0  0
 50 60  1  0  0  0  0
 51 68  1  0  0  0  0
 52 69  1  0  0  0  0
 53 69  1  0  0  0  0
 54 69  1  0  0  0  0
 55 79  1  0  0  0  0
 56 80  1  0  0  0  0
 57 81  1  0  0  0  0
 58 61  1  0  0  0  0
 59 66  1  0  0  0  0
 61 64  1  0  0  0  0
 62 63  1  0  0  0  0
 62 65  1  0  0  0  0
 63 79  1  0  0  0  0
 64 81  1  0  0  0  0
 65 81  1  0  0  0  0
 66 88  1  0  0  0  0
 67 69  1  0  0  0  0
 67 78  1  0  0  0  0
 68 80  1  0  0  0  0
 70 72  1  0  0  0  0
M  CHG  2  80   1  81   1
M  ISO  4  37 100  66 101  79 100  88 101
M  END
> <Batch ID>
0051

> <Smiles>
CCc1nc(C[101CH2:1][101O:1]c2ccc3c(c2)CN(C(=O)C(NC(=O)C(C)NC)C(C)(C)C)C(C(=O)NC2CCCc4ccccc42)C3)ccc1CCCN(C)CCC[100N:0](C)[100C:0](=O)N1CCCC(n2nc(-c3ccc(Oc4ccc(F)cc4F)cc3)c(C(N)=O)c2N)C1

> <Shape>
0.306

> <Color>
0.084

> <Negative vol penalty>
0.000

$$$$

  -OEChem-04052317333D

 88 96  0     1  0  0  0  0  0999 V2000
  -28.5842  -24.3934   16.6414 C   0  0  0  0  0  0  0  0  0  0  0  0
  -27.4056  -24.4933   17.3736 C   0  0  0  0  0  0  0  0  0  0  0  0
  -29.3965  -12.0321   17.6437 C   0  0  0  0  0  0  0  0  0  0  0  0
  -30.4496  -12.3924   19.7880 C   0  0  0  0  0  0  0  0  0  0  0  0
  -29.7448  -25.0131   17.1029 C   0  0  0  0  0  0  0  0  0  0  0  0
  -27.3871  -25.2121   18.5684 C   0  0  0  0  0  0  0  0  0  0  0  0
  -23.3404  -28.2317   18.9566 C   0  0  0  0  0  0  0  0  0  0  0  0
  -30.3405  -11.0496   17.3451 C   0  0  0  0  0  0  0  0  0  0  0  0
  -31.3937  -11.4099   19.4894 C   0  0  0  0  0  0  0  0  0  0  0  0
  -22.1307  -27.6334   19.3063 C   0  0  0  0  0  0  0  0  0  0  0  0
  -30.8916   -7.8059   18.1243 C   0  0  0  0  0  0  0  0  0  0  0  0
  -30.4314   -6.6121   17.5687 C   0  0  0  0  0  0  0  0  0  0  0  0
  -22.4342  -28.3652   21.5848 C   0  0  0  0  0  0  0  0  0  0  0  0
  -31.7953   -6.9970   15.6120 C   0  0  0  0  0  0  0  0  0  0  0  0
  -20.5639  -22.2447   19.9211 C   0  0  0  0  0  0  0  0  0  0  0  0
  -29.4511  -12.7035   18.8652 C   0  0  0  0  0  0  0  0  0  0  0  0
  -27.2355  -13.5394   19.8139 C   0  0  0  0  0  0  0  0  0  0  0  0
  -29.7382  -25.7479   18.2990 C   0  0  0  0  0  0  0  0  0  0  0  0
  -24.1127  -28.8930   19.9223 C   0  0  0  0  0  0  0  0  0  0  0  0
  -28.5490  -25.8410   19.0470 C   0  0  0  0  0  0  0  0  0  0  0  0
  -23.6521  -28.9733   21.2443 C   0  0  0  0  0  0  0  0  0  0  0  0
  -31.3391  -10.7385   18.2680 C   0  0  0  0  0  0  0  0  0  0  0  0
  -21.6788  -27.6975   20.6211 C   0  0  0  0  0  0  0  0  0  0  0  0
  -31.8037   -8.5952   17.4237 C   0  0  0  0  0  0  0  0  0  0  0  0
  -30.8832   -6.2077   16.3125 C   0  0  0  0  0  0  0  0  0  0  0  0
  -32.2555   -8.1908   16.1676 C   0  0  0  0  0  0  0  0  0  0  0  0
  -28.4765  -13.7189   19.1740 C   0  0  0  0  0  0  0  0  0  0  0  0
  -19.3990  -22.9465   19.6872 C   0  0  0  0  0  0  0  0  0  0  0  0
  -21.3119  -22.6717   20.9993 C   0  0  0  0  0  0  0  0  0  0  0  0
  -26.6925  -14.7998   19.8697 C   0  0  0  0  0  0  0  0  0  0  0  0
  -19.8022  -24.3065   21.4634 C   0  0  0  0  0  0  0  0  0  0  0  0
  -26.6278  -12.3407   20.3132 C   0  0  0  0  0  0  0  0  0  0  0  0
  -27.0252  -28.4862   21.1288 C   0  0  0  0  0  0  0  0  0  0  0  0
  -26.3653  -31.2791   22.6409 C   0  0  0  0  0  0  0  0  0  0  0  0
  -24.0100  -33.4454   23.8270 C   0  0  0  0  0  0  0  0  0  0  0  0
  -27.6508  -20.1809   21.1852 C   0  0  0  0  0  0  0  0  0  0  0  0
  -31.0290  -26.3607   18.7816 C   0  0  0  0  0  0  0  0  0  0  0  0
  -25.4024  -29.5564   19.5235 C   0  0  0  0  0  0  0  0  0  0  0  0
  -24.4340  -29.6888   22.3144 C   0  0  0  0  0  0  0  0  0  0  0  0
  -30.8337  -27.4172   19.8660 C   0  0  0  0  0  0  0  0  0  0  0  0
  -28.0902  -19.1028   17.6304 C   0  0  0  0  0  0  0  0  0  0  0  0
  -29.8666  -26.9144   20.9331 C   0  0  0  0  0  0  0  0  0  0  0  0
  -28.1932  -17.5874   17.7960 C   0  0  0  0  0  0  0  0  0  0  0  0
  -28.5981  -19.8292   18.8701 C   0  0  0  0  0  0  0  0  0  0  0  0
  -28.0153  -17.9022   20.3068 C   0  0  0  0  0  0  0  0  0  0  0  0
  -28.4830  -26.6326   20.3351 C   0  0  1  0  0  0  0  0  0  0  0  0
  -26.3570  -29.7604   20.6959 C   0  0  1  0  0  0  0  0  0  0  0  0
  -27.4939  -17.1260   19.0860 C   0  0  2  0  0  0  0  0  0  0  0  0
  -18.5234  -22.5575   18.5434 C   0  0  0  0  0  0  0  0  0  0  0  0
  -19.1235  -25.0156   23.7803 C   0  0  0  0  0  0  0  0  0  0  0  0
  -23.7754  -35.6244   25.0493 C   0  0  0  0  0  0  0  0  0  0  0  0
  -27.0709  -29.8828   25.2605 C   0  0  0  0  0  0  0  0  0  0  0  0
  -25.9307  -31.7480   26.4809 C   0  0  0  0  0  0  0  0  0  0  0  0
  -27.9269  -32.2243   25.0629 C   0  0  0  0  0  0  0  0  0  0  0  0
  -28.6800  -22.1050   19.9054 C   0  0  0  0  0  0  0  0  0  0  0  0
  -22.5995  -34.7040   21.5498 C   0  0  0  0  0  0  0  0  0  0  0  0
  -23.8210  -23.0988   19.4852 C   0  0  0  0  0  0  0  0  0  0  0  0
  -22.5874  -21.9726   21.3320 C   0  0  0  0  0  0  0  0  0  0  0  0
  -26.1668  -23.1052   21.5542 C   0  0  0  0  0  0  0  0  0  0  0  0
  -27.4809  -22.4924   22.0263 C   0  0  0  0  0  0  0  0  0  0  0  0
  -25.0758  -22.0584   21.3681 C   0  0  0  0  0  0  0  0  0  0  0  0
  -20.3806  -26.6258   22.3010 C   0  0  0  0  0  0  0  0  0  1  0  0
  -19.3695  -25.4717   22.3394 C   0  0  1  0  0  0  0  0  0  0  0  0
  -25.7260  -31.6584   23.9549 C   0  0  1  0  0  0  0  0  0  0  0  0
  -23.8651  -34.9502   23.6891 C   0  0  2  0  0  0  0  0  0  0  0  0
  -26.6496  -31.3632   25.1703 C   0  0  0  0  0  0  0  0  0  0  0  0
  -28.7084  -14.9929   18.8466 N   0  0  0  0  0  0  0  0  0  0  0  0
  -18.9862  -23.9865   20.4411 N   0  0  0  0  0  0  0  0  0  0  0  0
  -20.9597  -23.7031   21.7946 N   0  0  0  0  0  0  0  0  0  0  0  0
  -27.6056  -15.6254   19.2824 N   0  0  0  0  0  0  0  0  0  0  0  0
  -25.6918  -30.3161   21.8762 N   0  0  0  0  0  0  0  0  0  0  0  0
  -27.9355  -19.3487   20.0900 N   0  0  0  0  0  0  0  0  0  0  0  0
  -25.5279  -15.2714   20.3633 N   0  0  0  0  0  0  0  0  0  0  0  0
  -27.3227  -11.1314   20.1743 N   0  0  0  0  0  0  0  0  0  0  0  0
  -27.7582  -27.8689   20.1333 N   0  0  0  0  0  0  0  0  0  0  0  0
  -25.3332  -33.0578   23.8288 N   0  0  0  0  0  0  0  0  0  0  0  0
  -28.0178  -21.5305   21.0743 N   0  0  0  0  0  0  0  0  0  0  0  0
  -22.6346  -35.2835   22.9173 N   0  3  0  0  0  0  0  0  0  0  0  0
  -23.8011  -22.7456   20.9503 N   0  3  1  0  0  0  0  0  0  0  0  0
  -25.4948  -12.3393   20.8516 O   0  0  0  0  0  0  0  0  0  0  0  0
  -26.8873  -28.0929   22.2812 O   0  0  0  0  0  0  0  0  0  0  0  0
  -27.4195  -31.8227   22.3021 O   0  0  0  0  0  0  0  0  0  0  0  0
  -23.0459  -32.6897   23.9270 O   0  0  0  0  0  0  0  0  0  0  0  0
  -27.0910  -19.7448   22.1993 O   0  0  0  0  0  0  0  0  0  0  0  0
  -32.2603   -9.7797   17.9770 O   0  0  0  0  0  0  0  0  0  0  0  0
  -20.4987  -27.1138   20.9652 O   0  0  0  0  0  0  0  0  0  1  0  0
  -30.4423   -5.0605   15.7798 F   0  0  0  0  0  0  0  0  0  0  0  0
  -33.1326   -8.9443   15.4903 F   0  0  0  0  0  0  0  0  0  0  0  0
  1  2  1  0  0  0  0
  1  5  2  0  0  0  0
  2  6  2  0  0  0  0
  3  8  2  0  0  0  0
  3 16  1  0  0  0  0
  4  9  1  0  0  0  0
  4 16  2  0  0  0  0
  5 18  1  0  0  0  0
  6 20  1  0  0  0  0
  7 10  2  0  0  0  0
  7 19  1  0  0  0  0
  8 22  1  0  0  0  0
  9 22  2  0  0  0  0
 10 23  1  0  0  0  0
 11 12  2  0  0  0  0
 11 24  1  0  0  0  0
 12 25  1  0  0  0  0
 13 21  1  0  0  0  0
 13 23  2  0  0  0  0
 14 25  2  0  0  0  0
 14 26  1  0  0  0  0
 15 28  1  0  0  0  0
 15 29  2  0  0  0  0
 16 27  1  0  0  0  0
 17 27  1  0  0  0  0
 17 30  2  0  0  0  0
 17 32  1  0  0  0  0
 18 20  2  0  0  0  0
 18 37  1  0  0  0  0
 19 21  2  0  0  0  0
 19 38  1  0  0  0  0
 20 46  1  0  0  0  0
 21 39  1  0  0  0  0
 22 85  1  0  0  0  0
 23 86  1  0  0  0  0
 24 26  2  0  0  0  0
 24 85  1  0  0  0  0
 25 87  1  0  0  0  0
 26 88  1  0  0  0  0
 27 67  2  0  0  0  0
 28 49  1  0  0  0  0
 28 68  2  0  0  0  0
 29 58  1  0  0  0  0
 29 69  1  0  0  0  0
 30 70  1  0  0  0  0
 30 73  1  0  0  0  0
 31 63  1  0  0  0  0
 31 68  1  0  0  0  0
 31 69  2  0  0  0  0
 32 74  1  0  0  0  0
 32 80  2  0  0  0  0
 33 47  1  0  0  0  0
 33 75  1  0  0  0  0
 33 81  2  0  0  0  0
 34 64  1  0  0  0  0
 34 71  1  0  0  0  0
 34 82  2  0  0  0  0
 35 65  1  0  0  0  0
 35 76  1  0  0  0  0
 35 83  2  0  0  0  0
 36 72  1  0  0  0  0
 36 77  1  0  0  0  0
 36 84  2  0  0  0  0
 37 40  1  0  0  0  0
 38 47  1  0  0  0  0
 39 71  1  0  0  0  0
 40 42  1  0  0  0  0
 41 43  1  0  0  0  0
 41 44  1  0  0  0  0
 42 46  1  0  0  0  0
 43 48  1  0  0  0  0
 44 72  1  0  0  0  0
 45 48  1  0  0  0  0
 45 72  1  0  0  0  0
 46 75  1  0  0  0  0
 47 71  1  0  0  0  0
 48 70  1  0  0  0  0
 50 63  1  0  0  0  0
 51 65  1  0  0  0  0
 52 66  1  0  0  0  0
 53 66  1  0  0  0  0
 54 66  1  0  0  0  0
 55 77  1  0  0  0  0
 56 78  1  0  0  0  0
 57 79  1  0  0  0  0
 58 79  1  0  0  0  0
 59 60  1  0  0  0  0
 59 61  1  0  0  0  0
 60 77  1  0  0  0  0
 61 79  1  0  0  0  0
 62 63  1  0  0  0  0
 62 86  1  0  0  0  0
 64 66  1  0  0  0  0
 64 76  1  0  0  0  0
 65 78  1  0  0  0  0
 67 70  1  0  0  0  0
M  CHG  2  78   1  79   1
M  ISO  4  36 100  62 101  77 100  86 101
M  END
> <Batch ID>
0051

> <Smiles>
CNC(C)C(=O)NC(C(=O)N1Cc2cc([101O:1][101CH2:1]C(C)c3nc(C)cc(CN(C)CCC[100N:0](C)[100C:0](=O)N4CCCC(n5nc(-c6ccc(Oc7ccc(F)cc7F)cc6)c(C(N)=O)c5N)C4)n3)ccc2CC1C(=O)NC1CCCc2ccccc21)C(C)(C)C

> <Shape>
0.303

> <Color>
0.096

> <Negative vol penalty>
0.000

$$$$

  -OEChem-04052317332D

  0  0  0     0  0  0  0  0  0999 V2000
M  END
$$$$

  -OEChem-04052317333D

 85 93  0     1  0  0  0  0  0999 V2000
  -21.4823  -22.4899   15.3808 C   0  0  0  0  0  0  0  0  0  0  0  0
  -21.8581  -21.2867   15.9694 C   0  0  0  0  0  0  0  0  0  0  0  0
  -26.1402  -27.8270   18.8492 C   0  0  0  0  0  0  0  0  0  0  0  0
  -26.2528  -27.5340   21.2447 C   0  0  0  0  0  0  0  0  0  0  0  0
  -21.7801  -23.6966   16.0127 C   0  0  0  0  0  0  0  0  0  0  0  0
  -22.5328  -21.2894   17.1897 C   0  0  0  0  0  0  0  0  0  0  0  0
  -20.7051  -17.8516   20.4278 C   0  0  0  0  0  0  0  0  0  0  0  0
  -25.0703  -28.7078   19.0071 C   0  0  0  0  0  0  0  0  0  0  0  0
  -25.1829  -28.4149   21.4027 C   0  0  0  0  0  0  0  0  0  0  0  0
  -21.0846  -16.5248   20.2292 C   0  0  0  0  0  0  0  0  0  0  0  0
  -21.8168  -28.3257   21.0990 C   0  0  0  0  0  0  0  0  0  0  0  0
  -20.8007  -27.9594   21.9815 C   0  0  0  0  0  0  0  0  0  0  0  0
  -22.7389  -16.7435   21.9713 C   0  0  0  0  0  0  0  0  0  0  0  0
  -21.2304  -29.9391   23.2980 C   0  0  0  0  0  0  0  0  0  0  0  0
  -26.7315  -27.2400   19.9679 C   0  0  0  0  0  0  0  0  0  0  0  0
  -29.2066  -26.6516   19.7806 C   0  0  0  0  0  0  0  0  0  0  0  0
  -22.4502  -23.7138   17.2461 C   0  0  0  0  0  0  0  0  0  0  0  0
  -21.3481  -18.6388   21.3938 C   0  0  0  0  0  0  0  0  0  0  0  0
  -22.8410  -22.4975   17.8380 C   0  0  0  0  0  0  0  0  0  0  0  0
  -22.3639  -18.0792   22.1820 C   0  0  0  0  0  0  0  0  0  0  0  0
  -24.5916  -29.0018   20.2839 C   0  0  0  0  0  0  0  0  0  0  0  0
  -22.1036  -15.9714   20.9990 C   0  0  0  0  0  0  0  0  0  0  0  0
  -22.5398  -29.4987   21.3160 C   0  0  0  0  0  0  0  0  0  0  0  0
  -20.5074  -28.7661   23.0810 C   0  0  0  0  0  0  0  0  0  0  0  0
  -22.2465  -30.3054   22.4155 C   0  0  0  0  0  0  0  0  0  0  0  0
  -27.8364  -26.3296   19.8054 C   0  0  0  0  0  0  0  0  0  0  0  0
  -25.5445  -12.9686   21.1022 C   0  0  0  0  0  0  0  0  0  0  0  0
  -26.4106  -13.9206   20.6290 C   0  0  0  0  0  0  0  0  0  0  0  0
  -29.8396  -25.4455   19.6042 C   0  0  0  0  0  0  0  0  0  0  0  0
  -23.8319  -14.3984   20.7521 C   0  0  0  0  0  0  0  0  0  1  0  0
  -29.8498  -27.9269   19.9058 C   0  0  0  0  0  0  0  0  0  0  0  0
  -23.0850  -21.3001   21.3251 C   0  0  0  0  0  0  0  0  0  0  0  0
  -22.9184  -21.0285   24.5532 C   0  0  0  0  0  0  0  0  0  0  0  0
  -28.1312  -19.9188   20.9504 C   0  0  0  0  0  0  0  0  0  0  0  0
  -22.4811  -19.0131   27.2724 C   0  0  0  0  0  0  0  0  0  0  0  0
  -22.7921  -25.0445   17.8681 C   0  0  0  0  0  0  0  0  0  0  0  0
  -20.9089  -20.0604   21.6142 C   0  0  0  0  0  0  0  0  0  0  0  0
  -23.0720  -18.8760   23.2460 C   0  0  0  0  0  0  0  0  0  0  0  0
  -23.1782  -24.9469   19.3417 C   0  0  0  0  0  0  0  0  0  0  0  0
  -29.1994  -21.1168   17.6868 C   0  0  0  0  0  0  0  0  0  0  0  0
  -24.1693  -23.8080   19.5596 C   0  0  0  0  0  0  0  0  0  0  0  0
  -29.0653  -22.6294   17.8576 C   0  0  0  0  0  0  0  0  0  0  0  0
  -28.1093  -20.3672   18.4483 C   0  0  0  0  0  0  0  0  0  0  0  0
  -27.9108  -22.2222   20.0744 C   0  0  0  0  0  0  0  0  0  0  0  0
  -23.5523  -22.4584   19.1731 C   0  0  1  0  0  0  0  0  0  0  0  0
  -21.9819  -20.9221   22.2726 C   0  0  1  0  0  0  0  0  0  0  0  0
  -29.0100  -23.0140   19.3464 C   0  0  2  0  0  0  0  0  0  0  0  0
  -26.0293  -11.6359   21.5608 C   0  0  0  0  0  0  0  0  0  0  0  0
  -22.4363  -19.0715   29.7807 C   0  0  0  0  0  0  0  0  0  0  0  0
  -25.9635  -21.2156   24.6008 C   0  0  0  0  0  0  0  0  0  0  0  0
  -25.9118  -20.3302   26.9421 C   0  0  0  0  0  0  0  0  0  0  0  0
  -24.8108  -22.5040   26.4080 C   0  0  0  0  0  0  0  0  0  0  0  0
  -19.6742  -18.0789   27.3596 C   0  0  0  0  0  0  0  0  0  0  0  0
  -30.4640  -16.4166   21.6080 C   0  0  0  0  0  0  0  0  0  0  0  0
  -27.8772  -13.6824   20.5402 C   0  0  0  0  0  0  0  0  0  0  0  0
  -28.6340  -13.8417   21.8747 C   0  0  0  0  0  0  0  0  0  0  0  0
  -28.4955  -15.2084   22.5384 C   0  0  0  0  0  0  0  0  0  0  0  0
  -28.2992  -17.6100   21.9104 C   0  0  0  0  0  0  0  0  0  0  0  0
  -23.7519  -20.3500   25.6134 C   0  0  1  0  0  0  0  0  0  0  0  0
  -28.2477  -18.4467   20.6453 C   0  0  1  0  0  0  0  0  0  0  0  0
  -21.6104  -19.1621   28.5070 C   0  0  2  0  0  0  0  0  0  0  0  0
  -25.0977  -21.0853   25.8698 C   0  0  0  0  0  0  0  0  0  0  0  0
  -27.6113  -25.0215   19.6565 N   0  0  0  0  0  0  0  0  0  0  0  0
  -24.2228  -13.1871   21.1755 N   0  0  0  0  0  0  0  0  0  0  0  0
  -25.9596  -15.1195   20.2174 N   0  0  0  0  0  0  0  0  0  0  0  0
  -24.6354  -15.3710   20.2781 N   0  0  0  0  0  0  0  0  0  0  0  0
  -28.8486  -24.5109   19.5363 N   0  0  0  0  0  0  0  0  0  0  0  0
  -22.6109  -20.2634   23.4192 N   0  0  0  0  0  0  0  0  0  0  0  0
  -28.0711  -20.7817   19.8558 N   0  0  0  0  0  0  0  0  0  0  0  0
  -31.1416  -25.1039   19.5019 N   0  0  0  0  0  0  0  0  0  0  0  0
  -29.0498  -29.0642   20.0818 N   0  0  0  0  0  0  0  0  0  0  0  0
  -22.6561  -21.9965   20.2113 N   0  0  0  0  0  0  0  0  0  0  0  0
  -22.8994  -20.2360   26.7918 N   0  0  0  0  0  0  0  0  0  0  0  0
  -20.5737  -18.0921   28.5419 N   0  3  0  0  0  0  0  0  0  0  0  0
  -28.9603  -16.2819   21.6294 N   0  3  1  0  0  0  0  0  0  0  0  0
  -31.0961  -28.0562   19.8466 O   0  0  0  0  0  0  0  0  0  0  0  0
  -24.2401  -20.9846   21.5859 O   0  0  0  0  0  0  0  0  0  0  0  0
  -22.5478  -22.1920   24.7280 O   0  0  0  0  0  0  0  0  0  0  0  0
  -28.0975  -20.2890   22.1268 O   0  0  0  0  0  0  0  0  0  0  0  0
  -22.7650  -17.9210   26.7853 O   0  0  0  0  0  0  0  0  0  0  0  0
  -23.5477  -29.8614   20.4384 O   0  0  0  0  0  0  0  0  0  0  0  0
  -22.4764  -14.6769   20.8067 O   0  0  0  0  0  0  0  0  0  1  0  0
  -19.5306  -28.4150   23.9276 F   0  0  0  0  0  0  0  0  0  0  0  0
  -22.9369  -31.4341   22.6284 F   0  0  0  0  0  0  0  0  0  0  0  0
  -27.2107  -18.0275   19.8717 F   0  0  0  0  0  0  0  0  0  0  0  0
  1  2  1  0  0  0  0
  1  5  2  0  0  0  0
  2  6  2  0  0  0  0
  3  8  2  0  0  0  0
  3 15  1  0  0  0  0
  4  9  1  0  0  0  0
  4 15  2  0  0  0  0
  5 17  1  0  0  0  0
  6 19  1  0  0  0  0
  7 10  2  0  0  0  0
  7 18  1  0  0  0  0
  8 21  1  0  0  0  0
  9 21  2  0  0  0  0
 10 22  1  0  0  0  0
 11 12  2  0  0  0  0
 11 23  1  0  0  0  0
 12 24  1  0  0  0  0
 13 20  1  0  0  0  0
 13 22  2  0  0  0  0
 14 24  2  0  0  0  0
 14 25  1  0  0  0  0
 15 26  1  0  0  0  0
 16 26  1  0  0  0  0
 16 29  2  0  0  0  0
 16 31  1  0  0  0  0
 17 19  2  0  0  0  0
 17 36  1  0  0  0  0
 18 20  2  0  0  0  0
 18 37  1  0  0  0  0
 19 45  1  0  0  0  0
 20 38  1  0  0  0  0
 21 81  1  0  0  0  0
 22 82  1  0  0  0  0
 23 25  2  0  0  0  0
 23 81  1  0  0  0  0
 24 83  1  0  0  0  0
 25 84  1  0  0  0  0
 26 63  2  0  0  0  0
 27 28  2  0  0  0  0
 27 48  1  0  0  0  0
 27 64  1  0  0  0  0
 28 55  1  0  0  0  0
 28 65  1  0  0  0  0
 29 67  1  0  0  0  0
 29 70  1  0  0  0  0
 30 64  2  0  0  0  0
 30 66  1  0  0  0  0
 30 82  1  0  0  0  0
 31 71  1  0  0  0  0
 31 76  2  0  0  0  0
 32 46  1  0  0  0  0
 32 72  1  0  0  0  0
 32 77  2  0  0  0  0
 33 59  1  0  0  0  0
 33 68  1  0  0  0  0
 33 78  2  0  0  0  0
 34 60  1  0  0  0  0
 34 69  1  0  0  0  0
 34 79  2  0  0  0  0
 35 61  1  0  0  0  0
 35 73  1  0  0  0  0
 35 80  2  0  0  0  0
 36 39  1  0  0  0  0
 37 46  1  0  0  0  0
 38 68  1  0  0  0  0
 39 41  1  0  0  0  0
 40 42  1  0  0  0  0
 40 43  1  0  0  0  0
 41 45  1  0  0  0  0
 42 47  1  0  0  0  0
 43 69  1  0  0  0  0
 44 47  1  0  0  0  0
 44 69  1  0  0  0  0
 45 72  1  0  0  0  0
 46 68  1  0  0  0  0
 47 67  1  0  0  0  0
 49 61  1  0  0  0  0
 50 62  1  0  0  0  0
 51 62  1  0  0  0  0
 52 62  1  0  0  0  0
 53 74  1  0  0  0  0
 54 75  1  0  0  0  0
 55 56  1  0  0  0  0
 56 57  1  0  0  0  0
 57 75  1  0  0  0  0
 58 60  1  0  0  0  0
 58 75  1  0  0  0  0
 59 62  1  0  0  0  0
 59 73  1  0  0  0  0
 60 85  1  0  0  0  0
 61 74  1  0  0  0  0
 63 67  1  0  0  0  0
 65 66  2  0  0  0  0
M  CHG  2  74   1  75   1
M  ISO  4  30 101  34 100  60 100  82 101
M  END
> <Batch ID>
0051

> <Smiles>
CNC(C)C(=O)NC(C(=O)N1Cc2cc([101O:1][101c:1]3nnc(CCCN(C)C[100CH:0](F)[100C:0](=O)N4CCCC(n5nc(-c6ccc(Oc7ccc(F)cc7F)cc6)c(C(N)=O)c5N)C4)c(C)n3)ccc2CC1C(=O)NC1CCCc2ccccc21)C(C)(C)C

> <Shape>
0.215

> <Color>
0.074

> <Negative vol penalty>
0.000

$$$$

  -OEChem-04052317333D

 84 92  0     1  0  0  0  0  0999 V2000
  -22.8268  -37.4959   22.8800 C   0  0  0  0  0  0  0  0  0  0  0  0
  -23.1889  -36.4784   22.0030 C   0  0  0  0  0  0  0  0  0  0  0  0
  -25.4342  -13.6275   21.5306 C   0  0  0  0  0  0  0  0  0  0  0  0
  -25.2222  -14.1383   19.1787 C   0  0  0  0  0  0  0  0  0  0  0  0
  -23.5788  -37.7220   24.0321 C   0  0  0  0  0  0  0  0  0  0  0  0
  -24.3040  -35.6873   22.2771 C   0  0  0  0  0  0  0  0  0  0  0  0
  -23.4210  -30.7579   21.5243 C   0  0  0  0  0  0  0  0  0  0  0  0
  -24.4889  -12.6109   21.3950 C   0  0  0  0  0  0  0  0  0  0  0  0
  -24.2769  -13.1216   19.0431 C   0  0  0  0  0  0  0  0  0  0  0  0
  -23.4312  -30.3032   20.2064 C   0  0  0  0  0  0  0  0  0  0  0  0
  -24.3982   -9.4299   20.2522 C   0  0  0  0  0  0  0  0  0  0  0  0
  -24.6741   -8.2035   20.8565 C   0  0  0  0  0  0  0  0  0  0  0  0
  -25.6758  -29.4754   20.5159 C   0  0  0  0  0  0  0  0  0  0  0  0
  -22.6749   -8.4143   22.1968 C   0  0  0  0  0  0  0  0  0  0  0  0
  -23.5981  -25.3779   17.8053 C   0  0  0  0  0  0  0  0  0  0  0  0
  -25.5627  -26.2719   17.3857 C   0  0  0  0  0  0  0  0  0  0  0  0
  -25.8009  -14.3913   20.4224 C   0  0  0  0  0  0  0  0  0  0  0  0
  -28.1723  -15.3314   20.4120 C   0  0  0  0  0  0  0  0  0  0  0  0
  -24.6980  -36.9270   24.3253 C   0  0  0  0  0  0  0  0  0  0  0  0
  -24.5439  -30.5842   22.3460 C   0  0  0  0  0  0  0  0  0  0  0  0
  -25.0725  -35.9039   23.4335 C   0  0  0  0  0  0  0  0  0  0  0  0
  -25.6763  -29.9265   21.8446 C   0  0  0  0  0  0  0  0  0  0  0  0
  -24.2176  -26.5343   17.2946 C   0  0  0  0  0  0  0  0  0  0  0  0
  -23.9102  -12.3579   20.1513 C   0  0  0  0  0  0  0  0  0  0  0  0
  -24.5598  -29.6644   19.7011 C   0  0  0  0  0  0  0  0  0  0  0  0
  -23.2608  -10.1487   20.6201 C   0  0  0  0  0  0  0  0  0  0  0  0
  -23.8124   -7.6957   21.8288 C   0  0  0  0  0  0  0  0  0  0  0  0
  -22.3991   -9.6409   21.5924 C   0  0  0  0  0  0  0  0  0  0  0  0
  -26.7769  -15.4420   20.5619 C   0  0  0  0  0  0  0  0  0  0  0  0
  -28.6442  -16.6002   20.6441 C   0  0  0  0  0  0  0  0  0  0  0  0
  -28.9705  -14.1843   20.0914 C   0  0  0  0  0  0  0  0  0  0  0  0
  -26.5435  -32.5407   23.8551 C   0  0  0  0  0  0  0  0  0  0  0  0
  -27.7099  -29.7729   25.0803 C   0  0  0  0  0  0  0  0  0  0  0  0
  -28.1020  -26.3984   24.7544 C   0  0  0  0  0  0  0  0  0  0  0  0
  -28.5019  -21.9401   19.9916 C   0  0  0  0  0  0  0  0  0  0  0  0
  -25.5076  -37.2399   25.5587 C   0  0  0  0  0  0  0  0  0  0  0  0
  -24.5071  -31.0566   23.7735 C   0  0  0  0  0  0  0  0  0  0  0  0
  -26.9002  -29.6971   22.6920 C   0  0  0  0  0  0  0  0  0  0  0  0
  -26.4552  -36.1148   25.9669 C   0  0  0  0  0  0  0  0  0  0  0  0
  -26.3412  -20.6955   22.4924 C   0  0  0  0  0  0  0  0  0  0  0  0
  -27.2187  -35.5934   24.7537 C   0  0  0  0  0  0  0  0  0  0  0  0
  -26.3666  -19.1968   22.1958 C   0  0  0  0  0  0  0  0  0  0  0  0
  -26.3146  -21.5341   21.2131 C   0  0  0  0  0  0  0  0  0  0  0  0
  -27.4267  -19.7096   19.9653 C   0  0  0  0  0  0  0  0  0  0  0  0
  -26.2609  -35.0084   23.7087 C   0  0  1  0  0  0  0  0  0  0  0  0
  -25.8955  -31.2840   24.3636 C   0  0  1  0  0  0  0  0  0  0  0  0
  -27.5142  -18.8459   21.2330 C   0  0  2  0  0  0  0  0  0  0  0  0
  -29.1327  -24.4157   25.8962 C   0  0  0  0  0  0  0  0  0  0  0  0
  -26.9837  -23.0320   17.3722 C   0  0  0  0  0  0  0  0  0  0  0  0
  -30.2785  -23.9735   21.3118 C   0  0  0  0  0  0  0  0  0  0  0  0
  -30.3259  -24.0022   18.7978 C   0  0  0  0  0  0  0  0  0  0  0  0
  -30.4674  -30.6544   24.1164 C   0  0  0  0  0  0  0  0  0  0  0  0
  -31.2488  -28.2944   24.4131 C   0  0  0  0  0  0  0  0  0  0  0  0
  -30.4433  -29.5966   26.3824 C   0  0  0  0  0  0  0  0  0  0  0  0
  -25.4763  -25.0706   25.0730 C   0  0  0  0  0  0  0  0  0  0  0  0
  -23.5550  -27.7821   16.7631 C   0  0  0  0  0  0  0  0  0  0  0  0
  -27.0366  -23.9837   19.7060 C   0  0  0  0  0  0  0  0  0  0  0  0
  -23.3227  -28.8239   17.8520 C   0  0  0  0  0  0  0  0  0  1  0  0
  -28.7736  -28.7849   24.6662 C   0  0  1  0  0  0  0  0  0  0  0  0
  -27.8780  -25.2592   25.7325 C   0  0  2  0  0  0  0  0  0  0  0  0
  -26.8848  -24.3102   18.2118 C   0  0  2  0  0  0  0  0  0  0  0  0
  -29.4705  -24.2068   20.0415 C   0  0  0  0  0  0  0  0  0  0  0  0
  -30.2111  -29.3385   24.8777 C   0  0  0  0  0  0  0  0  0  0  0  0
  -24.4774  -24.4499   18.1920 N   0  0  0  0  0  0  0  0  0  0  0  0
  -26.3877  -16.6830   20.8660 N   0  0  0  0  0  0  0  0  0  0  0  0
  -25.6632  -25.0228   17.9241 N   0  0  0  0  0  0  0  0  0  0  0  0
  -27.5456  -17.3638   20.9091 N   0  0  0  0  0  0  0  0  0  0  0  0
  -26.8178  -30.1828   24.0793 N   0  0  0  0  0  0  0  0  0  0  0  0
  -27.3965  -21.1348   20.3027 N   0  0  0  0  0  0  0  0  0  0  0  0
  -29.8875  -17.1260   20.6455 N   0  0  0  0  0  0  0  0  0  0  0  0
  -28.3248  -12.9578   19.8840 N   0  0  0  0  0  0  0  0  0  0  0  0
  -25.8195  -33.6898   24.1098 N   0  0  0  0  0  0  0  0  0  0  0  0
  -28.4939  -27.5537   25.3971 N   0  0  0  0  0  0  0  0  0  0  0  0
  -28.3087  -23.3297   20.0065 N   0  0  0  0  0  0  0  0  0  0  0  0
  -26.7767  -24.3758   25.2553 N   0  3  0  0  0  0  0  0  0  0  0  0
  -30.2208  -14.2417   20.0080 O   0  0  0  0  0  0  0  0  0  0  0  0
  -27.6213  -32.4730   23.2760 O   0  0  0  0  0  0  0  0  0  0  0  0
  -27.6675  -30.1609   26.2504 O   0  0  0  0  0  0  0  0  0  0  0  0
  -27.9484  -26.2747   23.5413 O   0  0  0  0  0  0  0  0  0  0  0  0
  -29.6006  -21.4457   19.7077 O   0  0  0  0  0  0  0  0  0  0  0  0
  -22.9879  -11.3658   20.0186 O   0  0  0  0  0  0  0  0  0  0  0  0
  -24.5727  -29.2202   18.4149 O   0  0  0  0  0  0  0  0  0  1  0  0
  -24.0766   -6.5171   22.4080 F   0  0  0  0  0  0  0  0  0  0  0  0
  -21.3042  -10.3262   21.9492 F   0  0  0  0  0  0  0  0  0  0  0  0
  1  2  1  0  0  0  0
  1  5  2  0  0  0  0
  2  6  2  0  0  0  0
  3  8  2  0  0  0  0
  3 17  1  0  0  0  0
  4  9  1  0  0  0  0
  4 17  2  0  0  0  0
  5 19  1  0  0  0  0
  6 21  1  0  0  0  0
  7 10  2  0  0  0  0
  7 20  1  0  0  0  0
  8 24  1  0  0  0  0
  9 24  2  0  0  0  0
 10 25  1  0  0  0  0
 11 12  2  0  0  0  0
 11 26  1  0  0  0  0
 12 27  1  0  0  0  0
 13 22  1  0  0  0  0
 13 25  2  0  0  0  0
 14 27  2  0  0  0  0
 14 28  1  0  0  0  0
 15 23  1  0  0  0  0
 15 64  2  0  0  0  0
 16 23  2  0  0  0  0
 16 66  1  0  0  0  0
 17 29  1  0  0  0  0
 18 29  1  0  0  0  0
 18 30  2  0  0  0  0
 18 31  1  0  0  0  0
 19 21  2  0  0  0  0
 19 36  1  0  0  0  0
 20 22  2  0  0  0  0
 20 37  1  0  0  0  0
 21 45  1  0  0  0  0
 22 38  1  0  0  0  0
 23 56  1  0  0  0  0
 24 81  1  0  0  0  0
 25 82  1  0  0  0  0
 26 28  2  0  0  0  0
 26 81  1  0  0  0  0
 27 83  1  0  0  0  0
 28 84  1  0  0  0  0
 29 65  2  0  0  0  0
 30 67  1  0  0  0  0
 30 70  1  0  0  0  0
 31 71  1  0  0  0  0
 31 76  2  0  0  0  0
 32 46  1  0  0  0  0
 32 72  1  0  0  0  0
 32 77  2  0  0  0  0
 33 59  1  0  0  0  0
 33 68  1  0  0  0  0
 33 78  2  0  0  0  0
 34 60  1  0  0  0  0
 34 73  1  0  0  0  0
 34 79  2  0  0  0  0
 35 69  1  0  0  0  0
 35 74  1  0  0  0  0
 35 80  2  0  0  0  0
 36 39  1  0  0  0  0
 37 46  1  0  0  0  0
 38 68  1  0  0  0  0
 39 41  1  0  0  0  0
 40 42  1  0  0  0  0
 40 43  1  0  0  0  0
 41 45  1  0  0  0  0
 42 47  1  0  0  0  0
 43 69  1  0  0  0  0
 44 47  1  0  0  0  0
 44 69  1  0  0  0  0
 45 72  1  0  0  0  0
 46 68  1  0  0  0  0
 47 67  1  0  0  0  0
 48 60  1  0  0  0  0
 49 61  1  0  0  0  0
 50 62  1  0  0  0  0
 51 62  1  0  0  0  0
 52 63  1  0  0  0  0
 53 63  1  0  0  0  0
 54 63  1  0  0  0  0
 55 75  1  0  0  0  0
 56 58  1  0  0  0  0
 57 61  1  0  0  0  0
 57 74  1  0  0  0  0
 58 82  1  0  0  0  0
 59 63  1  0  0  0  0
 59 73  1  0  0  0  0
 60 75  1  0  0  0  0
 61 66  1  0  0  0  0
 62 74  1  0  0  0  0
 64 66  1  0  0  0  0
 65 67  1  0  0  0  0
M  CHG  1  75   1
M  ISO  4  35 100  58 101  74 100  82 101
M  END
> <Batch ID>
0051

> <Smiles>
CNC(C)C(=O)NC(C(=O)N1Cc2cc([101O:1][101CH2:1]Cc3cnn(C(C)C[100N:0](C(C)C)[100C:0](=O)N4CCCC(n5nc(-c6ccc(Oc7ccc(F)cc7F)cc6)c(C(N)=O)c5N)C4)c3)ccc2CC1C(=O)NC1CCCc2ccccc21)C(C)(C)C

> <Shape>
0.289

> <Color>
0.077

> <Negative vol penalty>
0.000

$$$$

  -OEChem-04052317333D

 85 93  0     1  0  0  0  0  0999 V2000
  -27.7401  -23.3890   18.5170 C   0  0  0  0  0  0  0  0  0  0  0  0
  -26.5484  -23.8229   19.0887 C   0  0  0  0  0  0  0  0  0  0  0  0
  -27.5524  -14.4348   21.5542 C   0  0  0  0  0  0  0  0  0  0  0  0
  -25.6252  -14.9321   20.1847 C   0  0  0  0  0  0  0  0  0  0  0  0
  -28.9568  -23.8859   18.9824 C   0  0  0  0  0  0  0  0  0  0  0  0
  -26.5727  -24.7532   20.1271 C   0  0  0  0  0  0  0  0  0  0  0  0
  -23.1281  -28.4176   19.5336 C   0  0  0  0  0  0  0  0  0  0  0  0
  -27.3142  -13.0698   21.3938 C   0  0  0  0  0  0  0  0  0  0  0  0
  -25.3870  -13.5671   20.0242 C   0  0  0  0  0  0  0  0  0  0  0  0
  -21.8069  -28.1071   19.8524 C   0  0  0  0  0  0  0  0  0  0  0  0
  -24.0218  -11.0485   21.8196 C   0  0  0  0  0  0  0  0  0  0  0  0
  -22.7095  -10.5982   21.9642 C   0  0  0  0  0  0  0  0  0  0  0  0
  -22.0687  -29.2075   21.9830 C   0  0  0  0  0  0  0  0  0  0  0  0
  -22.7455   -9.7654   19.6965 C   0  0  0  0  0  0  0  0  0  0  0  0
  -26.7078  -15.3660   20.9497 C   0  0  0  0  0  0  0  0  0  0  0  0
  -27.7469  -17.6028   20.2981 C   0  0  0  0  0  0  0  0  0  0  0  0
  -28.9956  -24.8301   20.0205 C   0  0  0  0  0  0  0  0  0  0  0  0
  -23.9343  -29.1170   20.4431 C   0  0  0  0  0  0  0  0  0  0  0  0
  -27.7911  -25.2623   20.6078 C   0  0  0  0  0  0  0  0  0  0  0  0
  -23.3991  -29.5279   21.6723 C   0  0  0  0  0  0  0  0  0  0  0  0
  -26.2315  -12.6360   20.6288 C   0  0  0  0  0  0  0  0  0  0  0  0
  -21.2778  -28.4996   21.0784 C   0  0  0  0  0  0  0  0  0  0  0  0
  -24.6959  -10.8573   20.6135 C   0  0  0  0  0  0  0  0  0  0  0  0
  -22.0714   -9.9567   20.9027 C   0  0  0  0  0  0  0  0  0  0  0  0
  -24.0578  -10.2157   19.5520 C   0  0  0  0  0  0  0  0  0  0  0  0
  -26.9530  -16.7761   21.1155 C   0  0  0  0  0  0  0  0  0  0  0  0
  -21.1348  -23.3063   22.7374 C   0  0  0  0  0  0  0  0  0  0  0  0
  -21.7462  -23.8971   23.8180 C   0  0  0  0  0  0  0  0  0  0  0  0
  -27.6562  -18.8456   20.8757 C   0  0  0  0  0  0  0  0  0  0  0  0
  -19.9736  -25.0363   23.1725 C   0  0  0  0  0  0  0  0  0  0  0  0
  -28.4991  -17.2764   19.1219 C   0  0  0  0  0  0  0  0  0  0  0  0
  -26.6256  -28.4767   22.0086 C   0  0  0  0  0  0  0  0  0  0  0  0
  -26.3763  -31.5803   22.9184 C   0  0  0  0  0  0  0  0  0  0  0  0
  -24.3747  -34.2949   23.4392 C   0  0  0  0  0  0  0  0  0  0  0  0
  -24.8832  -22.8809   23.1091 C   0  0  0  0  0  0  0  0  0  0  0  0
  -30.3371  -25.3030   20.5219 C   0  0  0  0  0  0  0  0  0  0  0  0
  -25.3494  -29.4675   20.0732 C   0  0  0  0  0  0  0  0  0  0  0  0
  -24.2167  -30.2986   22.6753 C   0  0  0  0  0  0  0  0  0  0  0  0
  -30.2579  -26.5677   21.3731 C   0  0  0  0  0  0  0  0  0  0  0  0
  -25.7770  -20.2883   25.3342 C   0  0  0  0  0  0  0  0  0  0  0  0
  -29.1387  -26.4490   22.4027 C   0  0  0  0  0  0  0  0  0  0  0  0
  -26.2235  -19.1964   24.3630 C   0  0  0  0  0  0  0  0  0  0  0  0
  -24.5467  -21.0419   24.8255 C   0  0  0  0  0  0  0  0  0  0  0  0
  -25.1505  -20.4986   22.4882 C   0  0  0  0  0  0  0  0  0  0  0  0
  -27.7752  -26.2891   21.7194 C   0  0  1  0  0  0  0  0  0  0  0  0
  -26.2353  -29.7350   21.2861 C   0  0  1  0  0  0  0  0  0  0  0  0
  -26.4207  -19.7662   22.9475 C   0  0  2  0  0  0  0  0  0  0  0  0
  -21.7844  -22.3090   20.5306 C   0  0  0  0  0  0  0  0  0  0  0  0
  -25.6293  -25.5826   24.8168 C   0  0  0  0  0  0  0  0  0  0  0  0
  -24.4518  -36.6783   24.2208 C   0  0  0  0  0  0  0  0  0  0  0  0
  -26.6183  -30.6231   25.8055 C   0  0  0  0  0  0  0  0  0  0  0  0
  -25.7504  -32.8523   26.5440 C   0  0  0  0  0  0  0  0  0  0  0  0
  -27.8998  -32.7070   25.2865 C   0  0  0  0  0  0  0  0  0  0  0  0
  -21.2252  -25.9630   25.1410 C   0  0  0  0  0  0  0  0  0  0  0  0
  -23.3911  -35.3022   20.8359 C   0  0  0  0  0  0  0  0  0  0  0  0
  -21.5230  -22.0788   22.0247 C   0  0  0  0  0  0  0  0  0  0  0  0
  -22.9402  -23.5240   24.5976 C   0  0  0  0  0  0  0  0  0  0  0  0
  -18.9322  -26.1267   23.1679 C   0  0  0  0  0  0  0  0  0  0  0  0
  -18.3873  -26.4522   21.7755 C   0  0  0  0  0  0  0  0  0  0  0  0
  -24.5519  -25.2198   23.8150 C   0  0  0  0  0  0  0  0  0  0  0  0
  -19.4450  -27.0050   20.8273 C   0  0  0  0  0  0  0  0  0  1  0  0
  -25.7211  -32.3082   24.0673 C   0  0  1  0  0  0  0  0  0  0  0  0
  -24.5177  -35.7470   23.0203 C   0  0  2  0  0  0  0  0  0  0  0  0
  -26.4823  -32.1064   25.4079 C   0  0  0  0  0  0  0  0  0  0  0  0
  -26.3989  -17.4380   22.1348 N   0  0  0  0  0  0  0  0  0  0  0  0
  -20.0321  -24.0205   22.3402 N   0  0  0  0  0  0  0  0  0  0  0  0
  -20.9913  -25.0043   24.0849 N   0  0  0  0  0  0  0  0  0  0  0  0
  -26.8453  -18.6937   21.9617 N   0  0  0  0  0  0  0  0  0  0  0  0
  -25.5970  -30.6118   22.2699 N   0  0  0  0  0  0  0  0  0  0  0  0
  -24.7595  -21.5273   23.4552 N   0  0  0  0  0  0  0  0  0  0  0  0
  -28.1918  -20.0427   20.5554 N   0  0  0  0  0  0  0  0  0  0  0  0
  -28.4830  -15.9516   18.6648 N   0  0  0  0  0  0  0  0  0  0  0  0
  -27.3055  -27.5650   21.2237 N   0  0  0  0  0  0  0  0  0  0  0  0
  -25.6010  -33.7017   23.6522 N   0  0  0  0  0  0  0  0  0  0  0  0
  -24.1911  -23.8115   23.8985 N   0  0  0  0  0  0  0  0  0  0  0  0
  -23.4296  -36.1227   22.0738 N   0  3  0  0  0  0  0  0  0  0  0  0
  -29.1789  -18.1308   18.5043 O   0  0  0  0  0  0  0  0  0  0  0  0
  -26.3328  -28.3434   23.1910 O   0  0  0  0  0  0  0  0  0  0  0  0
  -27.5342  -31.8656   22.6033 O   0  0  0  0  0  0  0  0  0  0  0  0
  -23.2840  -33.7432   23.5683 O   0  0  0  0  0  0  0  0  0  0  0  0
  -25.5682  -23.2395   22.1424 O   0  0  0  0  0  0  0  0  0  0  0  0
  -25.9989  -11.3041   20.4718 O   0  0  0  0  0  0  0  0  0  0  0  0
  -19.9887  -28.1972   21.3924 O   0  0  0  0  0  0  0  0  0  1  0  0
  -20.8118   -9.5230   21.0421 F   0  0  0  0  0  0  0  0  0  0  0  0
  -24.7007  -10.0280   18.3913 F   0  0  0  0  0  0  0  0  0  0  0  0
  1  2  1  0  0  0  0
  1  5  2  0  0  0  0
  2  6  2  0  0  0  0
  3  8  2  0  0  0  0
  3 15  1  0  0  0  0
  4  9  1  0  0  0  0
  4 15  2  0  0  0  0
  5 17  1  0  0  0  0
  6 19  1  0  0  0  0
  7 10  2  0  0  0  0
  7 18  1  0  0  0  0
  8 21  1  0  0  0  0
  9 21  2  0  0  0  0
 10 22  1  0  0  0  0
 11 12  2  0  0  0  0
 11 23  1  0  0  0  0
 12 24  1  0  0  0  0
 13 20  1  0  0  0  0
 13 22  2  0  0  0  0
 14 24  2  0  0  0  0
 14 25  1  0  0  0  0
 15 26  1  0  0  0  0
 16 26  1  0  0  0  0
 16 29  2  0  0  0  0
 16 31  1  0  0  0  0
 17 19  2  0  0  0  0
 17 36  1  0  0  0  0
 18 20  2  0  0  0  0
 18 37  1  0  0  0  0
 19 45  1  0  0  0  0
 20 38  1  0  0  0  0
 21 82  1  0  0  0  0
 22 83  1  0  0  0  0
 23 25  2  0  0  0  0
 23 82  1  0  0  0  0
 24 84  1  0  0  0  0
 25 85  1  0  0  0  0
 26 65  2  0  0  0  0
 27 28  2  0  0  0  0
 27 56  1  0  0  0  0
 27 66  1  0  0  0  0
 28 57  1  0  0  0  0
 28 67  1  0  0  0  0
 29 68  1  0  0  0  0
 29 71  1  0  0  0  0
 30 58  1  0  0  0  0
 30 66  2  0  0  0  0
 30 67  1  0  0  0  0
 31 72  1  0  0  0  0
 31 77  2  0  0  0  0
 32 46  1  0  0  0  0
 32 73  1  0  0  0  0
 32 78  2  0  0  0  0
 33 62  1  0  0  0  0
 33 69  1  0  0  0  0
 33 79  2  0  0  0  0
 34 63  1  0  0  0  0
 34 74  1  0  0  0  0
 34 80  2  0  0  0  0
 35 70  1  0  0  0  0
 35 75  1  0  0  0  0
 35 81  2  0  0  0  0
 36 39  1  0  0  0  0
 37 46  1  0  0  0  0
 38 69  1  0  0  0  0
 39 41  1  0  0  0  0
 40 42  1  0  0  0  0
 40 43  1  0  0  0  0
 41 45  1  0  0  0  0
 42 47  1  0  0  0  0
 43 70  1  0  0  0  0
 44 47  1  0  0  0  0
 44 70  1  0  0  0  0
 45 73  1  0  0  0  0
 46 69  1  0  0  0  0
 47 68  1  0  0  0  0
 48 56  1  0  0  0  0
 49 60  1  0  0  0  0
 50 63  1  0  0  0  0
 51 64  1  0  0  0  0
 52 64  1  0  0  0  0
 53 64  1  0  0  0  0
 54 67  1  0  0  0  0
 55 76  1  0  0  0  0
 57 75  1  0  0  0  0
 58 59  1  0  0  0  0
 59 61  1  0  0  0  0
 60 75  1  0  0  0  0
 61 83  1  0  0  0  0
 62 64  1  0  0  0  0
 62 74  1  0  0  0  0
 63 76  1  0  0  0  0
 65 68  1  0  0  0  0
M  CHG  1  76   1
M  ISO  4  35 100  61 101  75 100  83 101
M  END
> <Batch ID>
0051

> <Smiles>
CCc1nc(CC[101CH2:1][101O:1]c2ccc3c(c2)CN(C(=O)C(NC(=O)C(C)NC)C(C)(C)C)C(C(=O)NC2CCCc4ccccc42)C3)n(C)c1C[100N:0](CC)[100C:0](=O)N1CCCC(n2nc(-c3ccc(Oc4ccc(F)cc4F)cc3)c(C(N)=O)c2N)C1

> <Shape>
0.279

> <Color>
0.064

> <Negative vol penalty>
0.000

$$$$

  -OEChem-04052317333D

 86 94  0     1  0  0  0  0  0999 V2000
  -16.4975  -28.8153   24.1407 C   0  0  0  0  0  0  0  0  0  0  0  0
  -17.4646  -27.8157   24.1098 C   0  0  0  0  0  0  0  0  0  0  0  0
  -26.3440  -12.7555   21.6652 C   0  0  0  0  0  0  0  0  0  0  0  0
  -25.9168  -13.7706   19.5148 C   0  0  0  0  0  0  0  0  0  0  0  0
  -16.8198  -30.1083   23.7305 C   0  0  0  0  0  0  0  0  0  0  0  0
  -18.7543  -28.1082   23.6676 C   0  0  0  0  0  0  0  0  0  0  0  0
  -22.3293  -26.1170   26.6507 C   0  0  0  0  0  0  0  0  0  0  0  0
  -25.0949  -12.1364   21.6212 C   0  0  0  0  0  0  0  0  0  0  0  0
  -24.6677  -13.1514   19.4707 C   0  0  0  0  0  0  0  0  0  0  0  0
  -22.5956  -24.7563   26.5042 C   0  0  0  0  0  0  0  0  0  0  0  0
  -23.7006   -9.4443   20.1241 C   0  0  0  0  0  0  0  0  0  0  0  0
  -23.6315   -8.0979   20.4817 C   0  0  0  0  0  0  0  0  0  0  0  0
  -24.5304  -25.2853   25.1641 C   0  0  0  0  0  0  0  0  0  0  0  0
  -22.0988   -8.6504   22.2657 C   0  0  0  0  0  0  0  0  0  0  0  0
  -26.7584  -22.0028   20.5871 C   0  0  0  0  0  0  0  0  0  0  0  0
  -26.7550  -13.5727   20.6121 C   0  0  0  0  0  0  0  0  0  0  0  0
  -29.2647  -13.7028   20.1739 C   0  0  0  0  0  0  0  0  0  0  0  0
  -18.1167  -30.4191   23.2922 C   0  0  0  0  0  0  0  0  0  0  0  0
  -23.1568  -27.0734   26.0449 C   0  0  0  0  0  0  0  0  0  0  0  0
  -19.0938  -29.4063   23.2499 C   0  0  0  0  0  0  0  0  0  0  0  0
  -24.2739  -26.6576   25.3065 C   0  0  0  0  0  0  0  0  0  0  0  0
  -24.2568  -12.3343   20.5239 C   0  0  0  0  0  0  0  0  0  0  0  0
  -23.6946  -24.3402   25.7584 C   0  0  0  0  0  0  0  0  0  0  0  0
  -22.9689  -10.3938   20.8373 C   0  0  0  0  0  0  0  0  0  0  0  0
  -22.8306   -7.7009   21.5525 C   0  0  0  0  0  0  0  0  0  0  0  0
  -22.1680   -9.9969   21.9080 C   0  0  0  0  0  0  0  0  0  0  0  0
  -28.0450  -14.2130   20.6573 C   0  0  0  0  0  0  0  0  0  0  0  0
  -25.8324  -21.0197   20.3800 C   0  0  0  0  0  0  0  0  0  0  0  0
  -30.1829  -14.6850   20.4542 C   0  0  0  0  0  0  0  0  0  0  0  0
  -26.3698  -21.0106   22.5275 C   0  0  0  0  0  0  0  0  0  0  0  0
  -29.5428  -12.4528   19.5291 C   0  0  0  0  0  0  0  0  0  0  0  0
  -22.7398  -29.3292   23.8445 C   0  0  0  0  0  0  0  0  0  0  0  0
  -25.7961  -30.0973   24.6137 C   0  0  0  0  0  0  0  0  0  0  0  0
  -28.7999  -29.1013   25.8913 C   0  0  0  0  0  0  0  0  0  0  0  0
  -29.8160  -20.4376   21.0710 C   0  0  0  0  0  0  0  0  0  0  0  0
  -18.4050  -31.8201   22.8139 C   0  0  0  0  0  0  0  0  0  0  0  0
  -22.8713  -28.5380   26.2346 C   0  0  0  0  0  0  0  0  0  0  0  0
  -25.2048  -27.6449   24.6529 C   0  0  0  0  0  0  0  0  0  0  0  0
  -19.8954  -32.1348   22.7135 C   0  0  0  0  0  0  0  0  0  0  0  0
  -31.0660  -18.2314   23.5291 C   0  0  0  0  0  0  0  0  0  0  0  0
  -20.6345  -30.9998   22.0118 C   0  0  0  0  0  0  0  0  0  0  0  0
  -30.5402  -16.8880   23.0254 C   0  0  0  0  0  0  0  0  0  0  0  0
  -30.0395  -19.3522   23.3543 C   0  0  0  0  0  0  0  0  0  0  0  0
  -28.9958  -18.1352   21.4695 C   0  0  0  0  0  0  0  0  0  0  0  0
  -20.5106  -29.6903   22.8001 C   0  0  1  0  0  0  0  0  0  0  0  0
  -23.4859  -29.4125   25.1461 C   0  0  1  0  0  0  0  0  0  0  0  0
  -30.0301  -17.0043   21.5786 C   0  0  2  0  0  0  0  0  0  0  0  0
  -25.1375  -20.5847   19.1657 C   0  0  0  0  0  0  0  0  0  0  0  0
  -31.1188  -29.9406   26.3556 C   0  0  0  0  0  0  0  0  0  0  0  0
  -32.9656  -22.1322   21.5345 C   0  0  0  0  0  0  0  0  0  0  0  0
  -32.6171  -23.4518   19.4338 C   0  0  0  0  0  0  0  0  0  0  0  0
  -26.4639  -29.8878   21.6439 C   0  0  0  0  0  0  0  0  0  0  0  0
  -28.8867  -29.7876   22.2670 C   0  0  0  0  0  0  0  0  0  0  0  0
  -27.5406  -31.8132   22.8220 C   0  0  0  0  0  0  0  0  0  0  0  0
  -28.5180  -28.6180   28.7975 C   0  0  0  0  0  0  0  0  0  0  0  0
  -26.4099  -20.6384   23.9881 C   0  0  0  0  0  0  0  0  0  0  0  0
  -25.2020  -21.1373   24.7842 C   0  0  0  0  0  0  0  0  0  0  0  0
  -28.0201  -22.8571   22.5766 C   0  0  0  0  0  0  0  0  0  0  0  0
  -29.3703  -22.1944   22.8373 C   0  0  0  0  0  0  0  0  0  0  0  0
  -30.6243  -22.7493   20.7865 C   0  0  0  0  0  0  0  0  0  0  0  0
  -25.0990  -22.6572   24.8359 C   0  0  0  0  0  0  0  0  0  1  0  0
  -27.1601  -29.6780   24.1212 C   0  0  1  0  0  0  0  0  0  0  0  0
  -29.7197  -29.7392   26.9166 C   0  0  2  0  0  0  0  0  0  0  0  0
  -32.0386  -22.3637   20.3390 C   0  0  0  0  0  0  0  0  0  0  0  0
  -27.4944  -30.2727   22.7241 C   0  0  0  0  0  0  0  0  0  0  0  0
  -28.1733  -15.4252   21.2034 N   0  0  0  0  0  0  0  0  0  0  0  0
  -27.0726  -21.9750   21.9245 N   0  0  0  0  0  0  0  0  0  0  0  0
  -29.4846  -15.6848   21.0650 N   0  0  0  0  0  0  0  0  0  0  0  0
  -25.6110  -20.4220   21.5973 N   0  3  0  0  0  0  0  0  0  0  0  0
  -24.8799  -29.0655   24.8622 N   0  0  0  0  0  0  0  0  0  0  0  0
  -29.5439  -19.3975   21.9719 N   0  0  0  0  0  0  0  0  0  0  0  0
  -31.5115  -14.7824   20.2354 N   0  0  0  0  0  0  0  0  0  0  0  0
  -28.4837  -11.5593   19.3187 N   0  0  0  0  0  0  0  0  0  0  0  0
  -21.4105  -29.6956   23.9335 N   0  0  0  0  0  0  0  0  0  0  0  0
  -28.1044  -30.0484   25.1698 N   0  0  0  0  0  0  0  0  0  0  0  0
  -30.0033  -21.7200   21.6083 N   0  0  0  0  0  0  0  0  0  0  0  0
  -29.8191  -28.8790   28.1295 N   0  3  0  0  0  0  0  0  0  0  0  0
  -30.6993  -12.1304   19.1656 O   0  0  0  0  0  0  0  0  0  0  0  0
  -23.3272  -28.9612   22.8339 O   0  0  0  0  0  0  0  0  0  0  0  0
  -25.5548  -31.2957   24.7789 O   0  0  0  0  0  0  0  0  0  0  0  0
  -28.7103  -27.8846   25.7425 O   0  0  0  0  0  0  0  0  0  0  0  0
  -29.8805  -20.2345   19.8517 O   0  0  0  0  0  0  0  0  0  0  0  0
  -23.0379  -11.7301   20.4804 O   0  0  0  0  0  0  0  0  0  0  0  0
  -23.9564  -23.0127   25.6134 O   0  0  0  0  0  0  0  0  0  1  0  0
  -22.7632   -6.4077   21.8949 F   0  0  0  0  0  0  0  0  0  0  0  0
  -21.4617  -10.9043   22.5962 F   0  0  0  0  0  0  0  0  0  0  0  0
  1  2  1  0  0  0  0
  1  5  2  0  0  0  0
  2  6  2  0  0  0  0
  3  8  2  0  0  0  0
  3 16  1  0  0  0  0
  4  9  1  0  0  0  0
  4 16  2  0  0  0  0
  5 18  1  0  0  0  0
  6 20  1  0  0  0  0
  7 10  2  0  0  0  0
  7 19  1  0  0  0  0
  8 22  1  0  0  0  0
  9 22  2  0  0  0  0
 10 23  1  0  0  0  0
 11 12  2  0  0  0  0
 11 24  1  0  0  0  0
 12 25  1  0  0  0  0
 13 21  1  0  0  0  0
 13 23  2  0  0  0  0
 14 25  2  0  0  0  0
 14 26  1  0  0  0  0
 15 28  2  0  0  0  0
 15 67  1  0  0  0  0
 16 27  1  0  0  0  0
 17 27  1  0  0  0  0
 17 29  2  0  0  0  0
 17 31  1  0  0  0  0
 18 20  2  0  0  0  0
 18 36  1  0  0  0  0
 19 21  2  0  0  0  0
 19 37  1  0  0  0  0
 20 45  1  0  0  0  0
 21 38  1  0  0  0  0
 22 83  1  0  0  0  0
 23 84  1  0  0  0  0
 24 26  2  0  0  0  0
 24 83  1  0  0  0  0
 25 85  1  0  0  0  0
 26 86  1  0  0  0  0
 27 66  2  0  0  0  0
 28 48  1  0  0  0  0
 28 69  1  0  0  0  0
 29 68  1  0  0  0  0
 29 72  1  0  0  0  0
 30 56  1  0  0  0  0
 30 67  1  0  0  0  0
 30 69  2  0  0  0  0
 31 73  1  0  0  0  0
 31 78  2  0  0  0  0
 32 46  1  0  0  0  0
 32 74  1  0  0  0  0
 32 79  2  0  0  0  0
 33 62  1  0  0  0  0
 33 70  1  0  0  0  0
 33 80  2  0  0  0  0
 34 63  1  0  0  0  0
 34 75  1  0  0  0  0
 34 81  2  0  0  0  0
 35 71  1  0  0  0  0
 35 76  1  0  0  0  0
 35 82  2  0  0  0  0
 36 39  1  0  0  0  0
 37 46  1  0  0  0  0
 38 70  1  0  0  0  0
 39 41  1  0  0  0  0
 40 42  1  0  0  0  0
 40 43  1  0  0  0  0
 41 45  1  0  0  0  0
 42 47  1  0  0  0  0
 43 71  1  0  0  0  0
 44 47  1  0  0  0  0
 44 71  1  0  0  0  0
 45 74  1  0  0  0  0
 46 70  1  0  0  0  0
 47 68  1  0  0  0  0
 49 63  1  0  0  0  0
 50 64  1  0  0  0  0
 51 64  1  0  0  0  0
 52 65  1  0  0  0  0
 53 65  1  0  0  0  0
 54 65  1  0  0  0  0
 55 77  1  0  0  0  0
 56 57  1  0  0  0  0
 57 61  1  0  0  0  0
 58 59  1  0  0  0  0
 58 67  1  0  0  0  0
 59 76  1  0  0  0  0
 60 64  1  0  0  0  0
 60 76  1  0  0  0  0
 61 84  1  0  0  0  0
 62 65  1  0  0  0  0
 62 75  1  0  0  0  0
 63 77  1  0  0  0  0
 66 68  1  0  0  0  0
M  CHG  2  69   1  77   1
M  ISO  4  35 100  61 101  76 100  84 101
M  END
> <Batch ID>
0051

> <Smiles>
CNC(C)C(=O)NC(C(=O)N1Cc2cc([101O:1][101CH2:1]CCc3nc(C)cn3CC[100N:0](CC(C)C)[100C:0](=O)N3CCCC(n4nc(-c5ccc(Oc6ccc(F)cc6F)cc5)c(C(N)=O)c4N)C3)ccc2CC1C(=O)NC1CCCc2ccccc21)C(C)(C)C

> <Shape>
0.252

> <Color>
0.100

> <Negative vol penalty>
0.000

$$$$

  -OEChem-04052317333D

 84 93  0     1  0  0  0  0  0999 V2000
  -28.6112  -36.0317   14.7562 C   0  0  0  0  0  0  0  0  0  0  0  0
  -28.8326  -35.1694   15.8253 C   0  0  0  0  0  0  0  0  0  0  0  0
  -22.7507  -10.2019   20.1027 C   0  0  0  0  0  0  0  0  0  0  0  0
  -24.3511   -9.3906   21.7206 C   0  0  0  0  0  0  0  0  0  0  0  0
  -28.2027  -35.5223   13.5243 C   0  0  0  0  0  0  0  0  0  0  0  0
  -28.6445  -33.7973   15.6634 C   0  0  0  0  0  0  0  0  0  0  0  0
  -31.2105  -27.5047   17.9296 C   0  0  0  0  0  0  0  0  0  0  0  0
  -22.0206   -9.0205   20.2325 C   0  0  0  0  0  0  0  0  0  0  0  0
  -23.6210   -8.2092   21.8504 C   0  0  0  0  0  0  0  0  0  0  0  0
  -30.7765  -26.3008   18.4827 C   0  0  0  0  0  0  0  0  0  0  0  0
  -20.8213   -7.1746   23.4354 C   0  0  0  0  0  0  0  0  0  0  0  0
  -20.5926   -6.6942   24.7248 C   0  0  0  0  0  0  0  0  0  0  0  0
  -30.1457  -25.5263   16.2869 C   0  0  0  0  0  0  0  0  0  0  0  0
  -21.7544   -4.6500   24.1692 C   0  0  0  0  0  0  0  0  0  0  0  0
  -30.2362  -18.9791   19.1732 C   0  0  0  0  0  0  0  0  0  0  0  0
  -23.9160  -10.3869   20.8468 C   0  0  0  0  0  0  0  0  0  0  0  0
  -24.2242  -12.9161   20.9737 C   0  0  0  0  0  0  0  0  0  0  0  0
  -28.0188  -34.1422   13.3445 C   0  0  0  0  0  0  0  0  0  0  0  0
  -31.1052  -27.7331   16.5500 C   0  0  0  0  0  0  0  0  0  0  0  0
  -28.2318  -33.2691   14.4283 C   0  0  0  0  0  0  0  0  0  0  0  0
  -30.5815  -26.7330   15.7184 C   0  0  0  0  0  0  0  0  0  0  0  0
  -29.8785  -20.1303   19.8578 C   0  0  0  0  0  0  0  0  0  0  0  0
  -22.4557   -8.0241   21.1063 C   0  0  0  0  0  0  0  0  0  0  0  0
  -30.2413  -25.3125   17.6618 C   0  0  0  0  0  0  0  0  0  0  0  0
  -21.5165   -6.3926   22.5129 C   0  0  0  0  0  0  0  0  0  0  0  0
  -21.0592   -5.4319   25.0917 C   0  0  0  0  0  0  0  0  0  0  0  0
  -21.9830   -5.1304   22.8798 C   0  0  0  0  0  0  0  0  0  0  0  0
  -24.6710  -11.6068   20.7127 C   0  0  0  0  0  0  0  0  0  0  0  0
  -29.2930  -19.9315   21.1041 C   0  0  0  0  0  0  0  0  0  0  0  0
  -25.3092  -13.7110   20.6955 C   0  0  0  0  0  0  0  0  0  0  0  0
  -29.4421  -17.6642   20.8425 C   0  0  0  0  0  0  0  0  0  0  0  0
  -22.9430  -13.3728   21.4271 C   0  0  0  0  0  0  0  0  0  0  0  0
  -29.5544  -29.8326   14.7359 C   0  0  0  0  0  0  0  0  0  0  0  0
  -31.2291  -28.4166   12.3458 C   0  0  0  0  0  0  0  0  0  0  0  0
  -32.8936  -25.6613   11.2125 C   0  0  0  0  0  0  0  0  0  0  0  0
  -30.8990  -14.4327   21.4372 C   0  0  0  0  0  0  0  0  0  0  0  0
  -27.5308  -33.6430   12.0076 C   0  0  0  0  0  0  0  0  0  0  0  0
  -31.6025  -29.0267   15.9654 C   0  0  0  0  0  0  0  0  0  0  0  0
  -30.1779  -21.4917   19.3039 C   0  0  0  0  0  0  0  0  0  0  0  0
  -30.4654  -26.9207   14.2286 C   0  0  0  0  0  0  0  0  0  0  0  0
  -28.8316  -21.0963   21.9377 C   0  0  0  0  0  0  0  0  0  0  0  0
  -27.7161  -32.1402   11.8140 C   0  0  0  0  0  0  0  0  0  0  0  0
  -29.4823  -22.4193   21.5348 C   0  0  0  0  0  0  0  0  0  0  0  0
  -29.6928  -12.6522   18.4245 C   0  0  0  0  0  0  0  0  0  0  0  0
  -27.2432  -31.3804   13.0493 C   0  0  0  0  0  0  0  0  0  0  0  0
  -28.2649  -12.2716   18.8119 C   0  0  0  0  0  0  0  0  0  0  0  0
  -30.6015  -12.7620   19.6451 C   0  0  0  0  0  0  0  0  0  0  0  0
  -28.6638  -13.3055   21.0818 C   0  0  0  0  0  0  0  0  0  0  0  0
  -28.0624  -31.7721   14.2850 C   0  0  1  0  0  0  0  0  0  0  0  0
  -30.9732  -29.3529   14.6146 C   0  0  1  0  0  0  0  0  0  0  0  0
  -29.4054  -22.6142   20.0158 C   0  0  1  0  0  0  0  0  0  0  0  0
  -27.7114  -13.2321   19.8788 C   0  0  2  0  0  0  0  0  0  0  0  0
  -34.1216  -24.7887    9.2054 C   0  0  0  0  0  0  0  0  0  0  0  0
  -28.5707  -27.9721   10.9157 C   0  0  0  0  0  0  0  0  0  0  0  0
  -29.7215  -26.3070    9.4421 C   0  0  0  0  0  0  0  0  0  0  0  0
  -30.4475  -28.6935    9.4285 C   0  0  0  0  0  0  0  0  0  0  0  0
  -31.2779  -16.5243   22.6867 C   0  0  0  0  0  0  0  0  0  0  0  0
  -35.4029  -25.3311   12.7466 C   0  0  0  0  0  0  0  0  0  0  0  0
  -29.1918  -16.2997   21.3893 C   0  0  0  0  0  0  0  0  0  0  0  0
  -29.9484  -23.9829   19.6117 C   0  0  0  0  0  0  0  0  0  1  0  0
  -30.9944  -27.2430   11.4257 C   0  0  1  0  0  0  0  0  0  0  0  0
  -34.2459  -25.5071   10.5401 C   0  0  2  0  0  0  0  0  0  0  0  0
  -29.9338  -27.5508   10.3313 C   0  0  0  0  0  0  0  0  0  0  0  0
  -30.0288  -17.7297   19.6352 N   0  0  0  0  0  0  0  0  0  0  0  0
  -25.9408  -11.5679   20.3003 N   0  0  0  0  0  0  0  0  0  0  0  0
  -29.0559  -18.6991   21.6118 N   0  0  0  0  0  0  0  0  0  0  0  0
  -26.3011  -12.8626   20.2999 N   0  0  0  0  0  0  0  0  0  0  0  0
  -30.9595  -28.2051   13.7054 N   0  0  0  0  0  0  0  0  0  0  0  0
  -30.0311  -13.6468   20.6614 N   0  0  0  0  0  0  0  0  0  0  0  0
  -25.5019  -15.0459   20.7531 N   0  0  0  0  0  0  0  0  0  0  0  0
  -22.7222  -13.4811   22.8069 N   0  0  0  0  0  0  0  0  0  0  0  0
  -29.3522  -31.1159   14.2651 N   0  0  0  0  0  0  0  0  0  0  0  0
  -32.3029  -26.8676   10.9010 N   0  0  0  0  0  0  0  0  0  0  0  0
  -30.4115  -15.6686   21.8885 N   0  0  0  0  0  0  0  0  0  0  0  0
  -35.1708  -24.7266   11.4096 N   0  3  0  0  0  0  0  0  0  0  0  0
  -22.0158  -13.6602   20.6326 O   0  0  0  0  0  0  0  0  0  0  0  0
  -28.7057  -29.0927   15.2195 O   0  0  0  0  0  0  0  0  0  0  0  0
  -31.6434  -29.4795   11.8766 O   0  0  0  0  0  0  0  0  0  0  0  0
  -32.4082  -24.7963   11.9383 O   0  0  0  0  0  0  0  0  0  0  0  0
  -32.0475  -14.0556   21.7029 O   0  0  0  0  0  0  0  0  0  0  0  0
  -21.7434   -6.8713   21.2334 O   0  0  0  0  0  0  0  0  0  0  0  0
  -29.8163  -24.1367   18.1992 O   0  0  0  0  0  0  0  0  0  1  0  0
  -20.8408   -4.9714   26.3304 F   0  0  0  0  0  0  0  0  0  0  0  0
  -22.6525   -4.3751   21.9982 F   0  0  0  0  0  0  0  0  0  0  0  0
  1  2  1  0  0  0  0
  1  5  2  0  0  0  0
  2  6  2  0  0  0  0
  3  8  2  0  0  0  0
  3 16  1  0  0  0  0
  4  9  1  0  0  0  0
  4 16  2  0  0  0  0
  5 18  1  0  0  0  0
  6 20  1  0  0  0  0
  7 10  2  0  0  0  0
  7 19  1  0  0  0  0
  8 23  1  0  0  0  0
  9 23  2  0  0  0  0
 10 24  1  0  0  0  0
 11 12  2  0  0  0  0
 11 25  1  0  0  0  0
 12 26  1  0  0  0  0
 13 21  1  0  0  0  0
 13 24  2  0  0  0  0
 14 26  2  0  0  0  0
 14 27  1  0  0  0  0
 15 22  1  0  0  0  0
 15 64  2  0  0  0  0
 16 28  1  0  0  0  0
 17 28  1  0  0  0  0
 17 30  2  0  0  0  0
 17 32  1  0  0  0  0
 18 20  2  0  0  0  0
 18 37  1  0  0  0  0
 19 21  2  0  0  0  0
 19 38  1  0  0  0  0
 20 49  1  0  0  0  0
 21 40  1  0  0  0  0
 22 29  2  0  0  0  0
 22 39  1  0  0  0  0
 23 81  1  0  0  0  0
 24 82  1  0  0  0  0
 25 27  2  0  0  0  0
 25 81  1  0  0  0  0
 26 83  1  0  0  0  0
 27 84  1  0  0  0  0
 28 65  2  0  0  0  0
 29 41  1  0  0  0  0
 29 66  1  0  0  0  0
 30 67  1  0  0  0  0
 30 70  1  0  0  0  0
 31 59  1  0  0  0  0
 31 64  1  0  0  0  0
 31 66  2  0  0  0  0
 32 71  1  0  0  0  0
 32 76  2  0  0  0  0
 33 50  1  0  0  0  0
 33 72  1  0  0  0  0
 33 77  2  0  0  0  0
 34 61  1  0  0  0  0
 34 68  1  0  0  0  0
 34 78  2  0  0  0  0
 35 62  1  0  0  0  0
 35 73  1  0  0  0  0
 35 79  2  0  0  0  0
 36 69  1  0  0  0  0
 36 74  1  0  0  0  0
 36 80  2  0  0  0  0
 37 42  1  0  0  0  0
 38 50  1  0  0  0  0
 39 51  1  0  0  0  0
 40 68  1  0  0  0  0
 41 43  1  0  0  0  0
 42 45  1  0  0  0  0
 43 51  1  0  0  0  0
 44 46  1  0  0  0  0
 44 47  1  0  0  0  0
 45 49  1  0  0  0  0
 46 52  1  0  0  0  0
 47 69  1  0  0  0  0
 48 52  1  0  0  0  0
 48 69  1  0  0  0  0
 49 72  1  0  0  0  0
 50 68  1  0  0  0  0
 51 60  1  0  0  0  0
 52 67  1  0  0  0  0
 53 62  1  0  0  0  0
 54 63  1  0  0  0  0
 55 63  1  0  0  0  0
 56 63  1  0  0  0  0
 57 74  1  0  0  0  0
 58 75  1  0  0  0  0
 59 74  1  0  0  0  0
 60 82  1  0  0  0  0
 61 63  1  0  0  0  0
 61 73  1  0  0  0  0
 62 75  1  0  0  0  0
 65 67  1  0  0  0  0
M  CHG  1  75   1
M  ISO  4  36 100  60 101  74 100  82 101
M  END
> <Batch ID>
0051

> <Smiles>
CNC(C)C(=O)NC(C(=O)N1Cc2cc([101O:1][101CH2:1]C3CCc4nc(C[100N:0](C)[100C:0](=O)N5CCCC(n6nc(-c7ccc(Oc8ccc(F)cc8F)cc7)c(C(N)=O)c6N)C5)ncc4C3)ccc2CC1C(=O)NC1CCCc2ccccc21)C(C)(C)C

> <Shape>
0.268

> <Color>
0.180

> <Negative vol penalty>
0.000

$$$$

  -OEChem-04052317333D

 82 90  0     1  0  0  0  0  0999 V2000
  -28.3332  -22.5054   15.8678 C   0  0  0  0  0  0  0  0  0  0  0  0
  -27.7433  -22.1867   17.0868 C   0  0  0  0  0  0  0  0  0  0  0  0
  -24.4698  -11.3099   20.7629 C   0  0  0  0  0  0  0  0  0  0  0  0
  -24.9416  -12.2282   22.9472 C   0  0  0  0  0  0  0  0  0  0  0  0
  -28.6228  -23.8344   15.5612 C   0  0  0  0  0  0  0  0  0  0  0  0
  -27.4435  -23.1967   18.0003 C   0  0  0  0  0  0  0  0  0  0  0  0
  -22.8313  -22.6779   20.0259 C   0  0  0  0  0  0  0  0  0  0  0  0
  -24.5349  -10.0205   21.2909 C   0  0  0  0  0  0  0  0  0  0  0  0
  -25.0066  -10.9388   23.4753 C   0  0  0  0  0  0  0  0  0  0  0  0
  -22.6829  -21.7294   21.0369 C   0  0  0  0  0  0  0  0  0  0  0  0
  -24.2197   -6.4989   22.1358 C   0  0  0  0  0  0  0  0  0  0  0  0
  -23.2249   -5.5948   21.7637 C   0  0  0  0  0  0  0  0  0  0  0  0
  -22.8076  -23.4813   22.6906 C   0  0  0  0  0  0  0  0  0  0  0  0
  -21.5463   -7.0527   22.7091 C   0  0  0  0  0  0  0  0  0  0  0  0
  -25.7927  -19.5275   24.4228 C   0  0  0  0  0  0  0  0  0  0  0  0
  -24.1283  -18.2099   23.8309 C   0  0  0  0  0  0  0  0  0  0  0  0
  -24.6732  -12.4138   21.5911 C   0  0  0  0  0  0  0  0  0  0  0  0
  -23.4681  -14.5679   20.9467 C   0  0  0  0  0  0  0  0  0  0  0  0
  -28.3176  -24.8621   16.4674 C   0  0  0  0  0  0  0  0  0  0  0  0
  -22.9802  -24.0363   20.3407 C   0  0  0  0  0  0  0  0  0  0  0  0
  -27.7305  -24.5405   17.7060 C   0  0  0  0  0  0  0  0  0  0  0  0
  -22.9552  -24.4453   21.6816 C   0  0  0  0  0  0  0  0  0  0  0  0
  -24.8033   -9.8350   22.6471 C   0  0  0  0  0  0  0  0  0  0  0  0
  -22.6740  -22.1306   22.3696 C   0  0  0  0  0  0  0  0  0  0  0  0
  -23.8778   -7.6799   22.7946 C   0  0  0  0  0  0  0  0  0  0  0  0
  -21.8882   -5.8717   22.0503 C   0  0  0  0  0  0  0  0  0  0  0  0
  -22.5411   -7.9569   23.0812 C   0  0  0  0  0  0  0  0  0  0  0  0
  -24.6066  -13.7460   21.0461 C   0  0  0  0  0  0  0  0  0  0  0  0
  -26.2277  -18.4950   23.6258 C   0  0  0  0  0  0  0  0  0  0  0  0
  -23.9282  -15.7228   20.3627 C   0  0  0  0  0  0  0  0  0  0  0  0
  -22.1155  -14.3105   21.3466 C   0  0  0  0  0  0  0  0  0  0  0  0
  -25.2561  -26.2080   19.8853 C   0  0  0  0  0  0  0  0  0  0  0  0
  -23.0331  -28.2266   21.1126 C   0  0  0  0  0  0  0  0  0  0  0  0
  -20.2488  -28.6435   23.0414 C   0  0  0  0  0  0  0  0  0  0  0  0
  -29.6545  -17.8971   20.2198 C   0  0  0  0  0  0  0  0  0  0  0  0
  -28.6926  -26.2789   16.1113 C   0  0  0  0  0  0  0  0  0  0  0  0
  -23.1124  -25.0500   19.2374 C   0  0  0  0  0  0  0  0  0  0  0  0
  -23.0909  -25.8938   22.0716 C   0  0  0  0  0  0  0  0  0  0  0  0
  -28.0007  -27.3282   16.9777 C   0  0  0  0  0  0  0  0  0  0  0  0
  -27.3131  -17.3465   17.4062 C   0  0  0  0  0  0  0  0  0  0  0  0
  -28.0821  -26.9419   18.4511 C   0  0  0  0  0  0  0  0  0  0  0  0
  -26.2994  -16.3713   18.0024 C   0  0  0  0  0  0  0  0  0  0  0  0
  -28.6856  -17.2064   18.0574 C   0  0  0  0  0  0  0  0  0  0  0  0
  -27.6508  -16.3572   20.1364 C   0  0  0  0  0  0  0  0  0  0  0  0
  -27.3677  -25.6105   18.7127 C   0  0  1  0  0  0  0  0  0  0  0  0
  -23.7723  -26.3475   19.6941 C   0  0  1  0  0  0  0  0  0  0  0  0
  -26.2454  -16.5046   19.5343 C   0  0  2  0  0  0  0  0  0  0  0  0
  -30.5751  -20.6485   21.7546 C   0  0  0  0  0  0  0  0  0  0  0  0
  -18.6859  -30.4150   23.8879 C   0  0  0  0  0  0  0  0  0  0  0  0
  -25.1363  -29.1106   23.1387 C   0  0  0  0  0  0  0  0  0  0  0  0
  -23.2968  -30.1237   24.5017 C   0  0  0  0  0  0  0  0  0  0  0  0
  -23.7491  -30.9667   22.1979 C   0  0  0  0  0  0  0  0  0  0  0  0
  -17.9256  -27.4026   21.6916 C   0  0  0  0  0  0  0  0  0  0  0  0
  -27.5965  -18.2132   23.1675 C   0  0  0  0  0  0  0  0  0  0  0  0
  -23.4852  -20.1913   25.3302 C   0  0  0  0  0  0  0  0  0  0  0  0
  -30.3888  -19.2052   22.1767 C   0  0  0  0  0  0  0  0  0  0  0  0
  -27.9680  -18.8818   21.8288 C   0  0  0  0  0  0  0  0  0  0  0  0
  -23.1512  -21.4935   24.6106 C   0  0  0  0  0  0  0  0  0  1  0  0
  -22.6688  -28.7007   22.4988 C   0  0  1  0  0  0  0  0  0  0  0  0
  -18.9538  -29.3953   22.7919 C   0  0  2  0  0  0  0  0  0  0  0  0
  -23.7121  -29.6978   23.0773 C   0  0  0  0  0  0  0  0  0  0  0  0
  -25.1867  -17.6785   23.2605 N   0  0  0  0  0  0  0  0  0  0  0  0
  -25.7072  -14.3291   20.5638 N   0  0  0  0  0  0  0  0  0  0  0  0
  -24.4459  -19.3318   24.5450 N   0  0  0  0  0  0  0  0  0  0  0  0
  -25.2624  -15.5298   20.1556 N   0  0  0  0  0  0  0  0  0  0  0  0
  -23.2240  -26.8464   20.9570 N   0  0  0  0  0  0  0  0  0  0  0  0
  -28.5996  -17.2936   19.5156 N   0  0  0  0  0  0  0  0  0  0  0  0
  -23.3176  -16.8743   20.0112 N   0  0  0  0  0  0  0  0  0  0  0  0
  -21.8156  -13.0724   21.9310 N   0  0  0  0  0  0  0  0  0  0  0  0
  -25.9341  -25.8052   18.7506 N   0  0  0  0  0  0  0  0  0  0  0  0
  -21.3163  -29.2392   22.4037 N   0  0  0  0  0  0  0  0  0  0  0  0
  -29.3312  -18.5542   21.4166 N   0  0  0  0  0  0  0  0  0  0  0  0
  -17.8056  -28.4467   22.7415 N   0  3  0  0  0  0  0  0  0  0  0  0
  -21.1966  -15.1471   21.1752 O   0  0  0  0  0  0  0  0  0  0  0  0
  -25.7494  -26.4496   20.9807 O   0  0  0  0  0  0  0  0  0  0  0  0
  -23.1372  -29.0499   20.1998 O   0  0  0  0  0  0  0  0  0  0  0  0
  -20.3081  -27.6312   23.7359 O   0  0  0  0  0  0  0  0  0  0  0  0
  -30.8174  -17.8593   19.7977 O   0  0  0  0  0  0  0  0  0  0  0  0
  -24.8666   -8.5769   23.1627 O   0  0  0  0  0  0  0  0  0  0  0  0
  -22.5299  -21.2068   23.3584 O   0  0  0  0  0  0  0  0  0  1  0  0
  -20.9328   -5.0041   21.6916 F   0  0  0  0  0  0  0  0  0  0  0  0
  -22.2064   -9.0904   23.7128 F   0  0  0  0  0  0  0  0  0  0  0  0
  1  2  1  0  0  0  0
  1  5  2  0  0  0  0
  2  6  2  0  0  0  0
  3  8  2  0  0  0  0
  3 17  1  0  0  0  0
  4  9  1  0  0  0  0
  4 17  2  0  0  0  0
  5 19  1  0  0  0  0
  6 21  1  0  0  0  0
  7 10  2  0  0  0  0
  7 20  1  0  0  0  0
  8 23  1  0  0  0  0
  9 23  2  0  0  0  0
 10 24  1  0  0  0  0
 11 12  2  0  0  0  0
 11 25  1  0  0  0  0
 12 26  1  0  0  0  0
 13 22  1  0  0  0  0
 13 24  2  0  0  0  0
 14 26  2  0  0  0  0
 14 27  1  0  0  0  0
 15 29  2  0  0  0  0
 15 64  1  0  0  0  0
 16 62  2  0  0  0  0
 16 64  1  0  0  0  0
 17 28  1  0  0  0  0
 18 28  1  0  0  0  0
 18 30  2  0  0  0  0
 18 31  1  0  0  0  0
 19 21  2  0  0  0  0
 19 36  1  0  0  0  0
 20 22  2  0  0  0  0
 20 37  1  0  0  0  0
 21 45  1  0  0  0  0
 22 38  1  0  0  0  0
 23 79  1  0  0  0  0
 24 80  1  0  0  0  0
 25 27  2  0  0  0  0
 25 79  1  0  0  0  0
 26 81  1  0  0  0  0
 27 82  1  0  0  0  0
 28 63  2  0  0  0  0
 29 54  1  0  0  0  0
 29 62  1  0  0  0  0
 30 65  1  0  0  0  0
 30 68  1  0  0  0  0
 31 69  1  0  0  0  0
 31 74  2  0  0  0  0
 32 46  1  0  0  0  0
 32 70  1  0  0  0  0
 32 75  2  0  0  0  0
 33 59  1  0  0  0  0
 33 66  1  0  0  0  0
 33 76  2  0  0  0  0
 34 60  1  0  0  0  0
 34 71  1  0  0  0  0
 34 77  2  0  0  0  0
 35 67  1  0  0  0  0
 35 72  1  0  0  0  0
 35 78  2  0  0  0  0
 36 39  1  0  0  0  0
 37 46  1  0  0  0  0
 38 66  1  0  0  0  0
 39 41  1  0  0  0  0
 40 42  1  0  0  0  0
 40 43  1  0  0  0  0
 41 45  1  0  0  0  0
 42 47  1  0  0  0  0
 43 67  1  0  0  0  0
 44 47  1  0  0  0  0
 44 67  1  0  0  0  0
 45 70  1  0  0  0  0
 46 66  1  0  0  0  0
 47 65  1  0  0  0  0
 48 56  1  0  0  0  0
 49 60  1  0  0  0  0
 50 61  1  0  0  0  0
 51 61  1  0  0  0  0
 52 61  1  0  0  0  0
 53 73  1  0  0  0  0
 54 57  1  0  0  0  0
 55 58  1  0  0  0  0
 55 64  1  0  0  0  0
 56 72  1  0  0  0  0
 57 72  1  0  0  0  0
 58 80  1  0  0  0  0
 59 61  1  0  0  0  0
 59 71  1  0  0  0  0
 60 73  1  0  0  0  0
 63 65  1  0  0  0  0
M  CHG  1  73   1
M  ISO  4  35 100  58 101  72 100  80 101
M  END
> <Batch ID>
0051

> <Smiles>
CC[100N:0](CCc1cn(C[101CH2:1][101O:1]c2ccc3c(c2)CN(C(=O)C(NC(=O)C(C)NC)C(C)(C)C)C(C(=O)NC2CCCc4ccccc42)C3)cn1)[100C:0](=O)N1CCCC(n2nc(-c3ccc(Oc4ccc(F)cc4F)cc3)c(C(N)=O)c2N)C1

> <Shape>
0.216

> <Color>
0.062

> <Negative vol penalty>
0.000

$$$$

  -OEChem-04052317333D

 85 93  0     1  0  0  0  0  0999 V2000
  -26.0167  -23.6643   17.0217 C   0  0  0  0  0  0  0  0  0  0  0  0
  -25.0767  -24.1580   17.9206 C   0  0  0  0  0  0  0  0  0  0  0  0
  -25.8044  -12.9417   19.5014 C   0  0  0  0  0  0  0  0  0  0  0  0
  -24.1988  -13.4570   21.2316 C   0  0  0  0  0  0  0  0  0  0  0  0
  -27.3657  -23.9774   17.1834 C   0  0  0  0  0  0  0  0  0  0  0  0
  -25.4852  -24.9644   18.9823 C   0  0  0  0  0  0  0  0  0  0  0  0
  -22.5090  -29.0143   19.6032 C   0  0  0  0  0  0  0  0  0  0  0  0
  -25.9236  -11.6439   19.9985 C   0  0  0  0  0  0  0  0  0  0  0  0
  -24.3179  -12.1591   21.7287 C   0  0  0  0  0  0  0  0  0  0  0  0
  -21.2837  -28.8128   20.2372 C   0  0  0  0  0  0  0  0  0  0  0  0
  -23.1625   -9.0800   20.9511 C   0  0  0  0  0  0  0  0  0  0  0  0
  -21.9881   -8.4040   21.2820 C   0  0  0  0  0  0  0  0  0  0  0  0
  -22.2201  -29.6456   22.2984 C   0  0  0  0  0  0  0  0  0  0  0  0
  -22.7508   -8.1967   23.5651 C   0  0  0  0  0  0  0  0  0  0  0  0
  -18.6593  -23.3999   20.7152 C   0  0  0  0  0  0  0  0  0  0  0  0
  -24.9420  -13.8483   20.1180 C   0  0  0  0  0  0  0  0  0  0  0  0
  -23.9135  -15.6463   18.6292 C   0  0  0  0  0  0  0  0  0  0  0  0
  -27.7898  -24.7960   18.2420 C   0  0  0  0  0  0  0  0  0  0  0  0
  -23.6040  -29.5236   20.3160 C   0  0  0  0  0  0  0  0  0  0  0  0
  -26.8413  -25.2877   19.1590 C   0  0  0  0  0  0  0  0  0  0  0  0
  -23.4575  -29.8550   21.6706 C   0  0  0  0  0  0  0  0  0  0  0  0
  -25.1803  -11.2526   21.1121 C   0  0  0  0  0  0  0  0  0  0  0  0
  -21.1400  -29.1258   21.5857 C   0  0  0  0  0  0  0  0  0  0  0  0
  -24.1311   -9.3143   21.9272 C   0  0  0  0  0  0  0  0  0  0  0  0
  -21.7822   -7.9624   22.5890 C   0  0  0  0  0  0  0  0  0  0  0  0
  -23.9252   -8.8726   23.2341 C   0  0  0  0  0  0  0  0  0  0  0  0
  -24.8190  -15.1892   19.6054 C   0  0  0  0  0  0  0  0  0  0  0  0
  -19.3756  -23.3291   21.9181 C   0  0  0  0  0  0  0  0  0  0  0  0
  -24.1980  -16.9834   18.4962 C   0  0  0  0  0  0  0  0  0  0  0  0
  -22.9052  -14.9267   17.9072 C   0  0  0  0  0  0  0  0  0  0  0  0
  -26.4985  -28.4391   21.0574 C   0  0  0  0  0  0  0  0  0  0  0  0
  -26.8942  -31.4367   22.2322 C   0  0  0  0  0  0  0  0  0  0  0  0
  -25.4613  -34.2763   23.4691 C   0  0  0  0  0  0  0  0  0  0  0  0
  -26.6689  -21.0116   22.1731 C   0  0  0  0  0  0  0  0  0  0  0  0
  -29.2645  -25.0683   18.4033 C   0  0  0  0  0  0  0  0  0  0  0  0
  -24.9114  -29.7602   19.6110 C   0  0  0  0  0  0  0  0  0  0  0  0
  -24.5965  -30.4235   22.4755 C   0  0  0  0  0  0  0  0  0  0  0  0
  -29.5696  -26.2362   19.3378 C   0  0  0  0  0  0  0  0  0  0  0  0
  -27.7983  -20.1057   18.9203 C   0  0  0  0  0  0  0  0  0  0  0  0
  -28.7438  -26.1271   20.6157 C   0  0  0  0  0  0  0  0  0  0  0  0
  -27.0811  -18.7842   18.6389 C   0  0  0  0  0  0  0  0  0  0  0  0
  -28.1988  -20.2290   20.3888 C   0  0  0  0  0  0  0  0  0  0  0  0
  -26.3800  -18.7111   21.0683 C   0  0  0  0  0  0  0  0  0  0  0  0
  -27.2424  -26.1858   20.3091 C   0  0  1  0  0  0  0  0  0  0  0  0
  -26.1039  -29.8015   20.5616 C   0  0  1  0  0  0  0  0  0  0  0  0
  -25.9069  -18.5653   19.6119 C   0  0  2  0  0  0  0  0  0  0  0  0
  -26.0437  -36.5411   24.3797 C   0  0  0  0  0  0  0  0  0  0  0  0
  -27.7371  -30.1565   24.8705 C   0  0  0  0  0  0  0  0  0  0  0  0
  -27.3829  -32.3733   25.9790 C   0  0  0  0  0  0  0  0  0  0  0  0
  -29.1035  -32.1369   24.1885 C   0  0  0  0  0  0  0  0  0  0  0  0
  -23.9865  -35.6540   21.3044 C   0  0  0  0  0  0  0  0  0  0  0  0
  -22.1742  -23.3987   20.9427 C   0  0  0  0  0  0  0  0  0  0  0  0
  -20.3932  -22.3556   22.3357 C   0  0  0  0  0  0  0  0  0  0  0  0
  -18.3067  -27.3097   22.8762 C   0  0  0  0  0  0  0  0  0  0  0  0
  -24.0098  -22.6122   23.3519 C   0  0  0  0  0  0  0  0  0  0  0  0
  -17.3702  -26.1721   22.4631 C   0  0  0  0  0  0  0  0  0  0  0  0
  -25.0478  -21.6604   23.9366 C   0  0  0  0  0  0  0  0  0  0  0  0
  -22.7892  -21.8759   22.8147 C   0  0  0  0  0  0  0  0  0  0  0  0
  -19.1256  -27.8685   21.7184 C   0  0  0  0  0  0  0  0  0  1  0  0
  -26.6535  -32.1029   23.5653 C   0  0  1  0  0  0  0  0  0  0  0  0
  -25.6802  -35.7416   23.1381 C   0  0  2  0  0  0  0  0  0  0  0  0
  -27.6981  -31.6799   24.6364 C   0  0  0  0  0  0  0  0  0  0  0  0
  -17.8273  -24.4448   20.7440 N   0  0  0  0  0  0  0  0  0  0  0  0
  -25.6190  -16.1572   20.0602 N   0  0  0  0  0  0  0  0  0  0  0  0
  -19.0075  -24.3291   22.7239 N   0  0  0  0  0  0  0  0  0  0  0  0
  -25.2172  -17.2360   19.3666 N   0  0  0  0  0  0  0  0  0  0  0  0
  -18.0896  -24.9454   21.9621 N   0  0  0  0  0  0  0  0  0  0  0  0
  -25.8566  -30.6307   21.7429 N   0  0  0  0  0  0  0  0  0  0  0  0
  -27.0399  -20.0123   21.2583 N   0  0  0  0  0  0  0  0  0  0  0  0
  -23.6734  -17.9560   17.7207 N   0  0  0  0  0  0  0  0  0  0  0  0
  -22.7463  -13.5585   18.1662 N   0  0  0  0  0  0  0  0  0  0  0  0
  -26.8318  -27.5499   20.0536 N   0  0  0  0  0  0  0  0  0  0  0  0
  -26.6137  -33.5376   23.3034 N   0  0  0  0  0  0  0  0  0  0  0  0
  -25.5555  -20.7284   22.9545 N   0  0  0  0  0  0  0  0  0  0  0  0
  -24.4452  -36.3289   22.5458 N   0  3  0  0  0  0  0  0  0  0  0  0
  -21.7956  -22.8815   22.3028 N   0  3  1  0  0  0  0  0  0  0  0  0
  -22.1782  -15.4770   17.0458 O   0  0  0  0  0  0  0  0  0  0  0  0
  -26.5018  -28.2120   22.2616 O   0  0  0  0  0  0  0  0  0  0  0  0
  -27.9607  -31.6302   21.6433 O   0  0  0  0  0  0  0  0  0  0  0  0
  -24.3774  -33.8322   23.8413 O   0  0  0  0  0  0  0  0  0  0  0  0
  -27.2812  -22.0795   22.2813 O   0  0  0  0  0  0  0  0  0  0  0  0
  -25.2961   -9.9862   21.5972 O   0  0  0  0  0  0  0  0  0  0  0  0
  -19.9453  -28.9295   22.2071 O   0  0  0  0  0  0  0  0  0  1  0  0
  -20.6537   -7.3147   22.9070 F   0  0  0  0  0  0  0  0  0  0  0  0
  -24.8515   -9.0958   24.1764 F   0  0  0  0  0  0  0  0  0  0  0  0
  1  2  1  0  0  0  0
  1  5  2  0  0  0  0
  2  6  2  0  0  0  0
  3  8  2  0  0  0  0
  3 16  1  0  0  0  0
  4  9  1  0  0  0  0
  4 16  2  0  0  0  0
  5 18  1  0  0  0  0
  6 20  1  0  0  0  0
  7 10  2  0  0  0  0
  7 19  1  0  0  0  0
  8 22  1  0  0  0  0
  9 22  2  0  0  0  0
 10 23  1  0  0  0  0
 11 12  2  0  0  0  0
 11 24  1  0  0  0  0
 12 25  1  0  0  0  0
 13 21  1  0  0  0  0
 13 23  2  0  0  0  0
 14 25  2  0  0  0  0
 14 26  1  0  0  0  0
 15 28  1  0  0  0  0
 15 63  2  0  0  0  0
 16 27  1  0  0  0  0
 17 27  1  0  0  0  0
 17 29  2  0  0  0  0
 17 30  1  0  0  0  0
 18 20  2  0  0  0  0
 18 35  1  0  0  0  0
 19 21  2  0  0  0  0
 19 36  1  0  0  0  0
 20 44  1  0  0  0  0
 21 37  1  0  0  0  0
 22 82  1  0  0  0  0
 23 83  1  0  0  0  0
 24 26  2  0  0  0  0
 24 82  1  0  0  0  0
 25 84  1  0  0  0  0
 26 85  1  0  0  0  0
 27 64  2  0  0  0  0
 28 53  1  0  0  0  0
 28 65  2  0  0  0  0
 29 66  1  0  0  0  0
 29 70  1  0  0  0  0
 30 71  1  0  0  0  0
 30 77  2  0  0  0  0
 31 45  1  0  0  0  0
 31 72  1  0  0  0  0
 31 78  2  0  0  0  0
 32 60  1  0  0  0  0
 32 68  1  0  0  0  0
 32 79  2  0  0  0  0
 33 61  1  0  0  0  0
 33 73  1  0  0  0  0
 33 80  2  0  0  0  0
 34 69  1  0  0  0  0
 34 74  1  0  0  0  0
 34 81  2  0  0  0  0
 35 38  1  0  0  0  0
 36 45  1  0  0  0  0
 37 68  1  0  0  0  0
 38 40  1  0  0  0  0
 39 41  1  0  0  0  0
 39 42  1  0  0  0  0
 40 44  1  0  0  0  0
 41 46  1  0  0  0  0
 42 69  1  0  0  0  0
 43 46  1  0  0  0  0
 43 69  1  0  0  0  0
 44 72  1  0  0  0  0
 45 68  1  0  0  0  0
 46 66  1  0  0  0  0
 47 61  1  0  0  0  0
 48 62  1  0  0  0  0
 49 62  1  0  0  0  0
 50 62  1  0  0  0  0
 51 75  1  0  0  0  0
 52 76  1  0  0  0  0
 53 76  1  0  0  0  0
 54 56  1  0  0  0  0
 54 59  1  0  0  0  0
 55 57  1  0  0  0  0
 55 58  1  0  0  0  0
 56 67  1  0  0  0  0
 57 74  1  0  0  0  0
 58 76  1  0  0  0  0
 59 83  1  0  0  0  0
 60 62  1  0  0  0  0
 60 73  1  0  0  0  0
 61 75  1  0  0  0  0
 63 67  1  0  0  0  0
 64 66  1  0  0  0  0
 65 67  1  0  0  0  0
M  CHG  2  75   1  76   1
M  ISO  4  34 100  59 101  74 100  83 101
M  END
> <Batch ID>
0051

> <Smiles>
CNC(C)C(=O)NC(C(=O)N1Cc2cc([101O:1][101CH2:1]CCn3ncc(CN(C)CCC[100NH:0][100C:0](=O)N4CCCC(n5nc(-c6ccc(Oc7ccc(F)cc7F)cc6)c(C(N)=O)c5N)C4)n3)ccc2CC1C(=O)NC1CCCc2ccccc21)C(C)(C)C

> <Shape>
0.294

> <Color>
0.050

> <Negative vol penalty>
0.000

$$$$

  -OEChem-04052317333D

 81 89  0     1  0  0  0  0  0999 V2000
  -28.7672  -11.8545   21.2078 C   0  0  0  0  0  0  0  0  0  0  0  0
  -28.9112  -13.1966   20.8746 C   0  0  0  0  0  0  0  0  0  0  0  0
  -22.6329  -29.5330   21.2755 C   0  0  0  0  0  0  0  0  0  0  0  0
  -23.8652  -28.5801   23.1223 C   0  0  0  0  0  0  0  0  0  0  0  0
  -27.5035  -11.2679   21.1912 C   0  0  0  0  0  0  0  0  0  0  0  0
  -27.7902  -13.9555   20.5364 C   0  0  0  0  0  0  0  0  0  0  0  0
  -28.4690  -18.7876   19.9090 C   0  0  0  0  0  0  0  0  0  0  0  0
  -21.5539  -29.7817   22.1238 C   0  0  0  0  0  0  0  0  0  0  0  0
  -22.7862  -28.8289   23.9706 C   0  0  0  0  0  0  0  0  0  0  0  0
  -29.1358  -19.3181   18.8054 C   0  0  0  0  0  0  0  0  0  0  0  0
  -18.3380  -30.3399   23.7268 C   0  0  0  0  0  0  0  0  0  0  0  0
  -17.0617  -30.0143   23.2678 C   0  0  0  0  0  0  0  0  0  0  0  0
  -27.0195  -19.9650   17.8453 C   0  0  0  0  0  0  0  0  0  0  0  0
  -17.7326  -27.7044   23.0409 C   0  0  0  0  0  0  0  0  0  0  0  0
  -30.4543  -22.9655   15.6158 C   0  0  0  0  0  0  0  0  0  0  0  0
  -23.7885  -28.9322   21.7747 C   0  0  0  0  0  0  0  0  0  0  0  0
  -25.9832  -29.5340   20.6219 C   0  0  0  0  0  0  0  0  0  0  0  0
  -26.3687  -12.0176   20.8403 C   0  0  0  0  0  0  0  0  0  0  0  0
  -27.0694  -18.8322   19.9840 C   0  0  0  0  0  0  0  0  0  0  0  0
  -26.5033  -13.3877   20.5370 C   0  0  0  0  0  0  0  0  0  0  0  0
  -26.3375  -19.4367   18.9521 C   0  0  0  0  0  0  0  0  0  0  0  0
  -21.6306  -29.4297   23.4713 C   0  0  0  0  0  0  0  0  0  0  0  0
  -28.4109  -19.9043   17.7720 C   0  0  0  0  0  0  0  0  0  0  0  0
  -19.3116  -29.3478   23.8428 C   0  0  0  0  0  0  0  0  0  0  0  0
  -16.7590  -28.6966   22.9249 C   0  0  0  0  0  0  0  0  0  0  0  0
  -19.0089  -28.0301   23.4998 C   0  0  0  0  0  0  0  0  0  0  0  0
  -24.9032  -28.6744   20.8988 C   0  0  0  0  0  0  0  0  0  0  0  0
  -30.3365  -24.3304   15.5365 C   0  0  0  0  0  0  0  0  0  0  0  0
  -26.7645  -28.8300   19.7385 C   0  0  0  0  0  0  0  0  0  0  0  0
  -26.2558  -30.8509   21.1189 C   0  0  0  0  0  0  0  0  0  0  0  0
  -24.7604  -16.6527   20.1311 C   0  0  0  0  0  0  0  0  0  0  0  0
  -22.8669  -19.2532   20.5488 C   0  0  0  0  0  0  0  0  0  0  0  0
  -22.4074  -22.6048   20.0989 C   0  0  0  0  0  0  0  0  0  0  0  0
  -29.2018  -23.8210   18.6045 C   0  0  0  0  0  0  0  0  0  0  0  0
  -25.0239  -11.3343   20.8463 C   0  0  0  0  0  0  0  0  0  0  0  0
  -26.3668  -18.2795   21.1936 C   0  0  0  0  0  0  0  0  0  0  0  0
  -24.8347  -19.5281   18.9940 C   0  0  0  0  0  0  0  0  0  0  0  0
  -23.9673  -12.0944   20.0513 C   0  0  0  0  0  0  0  0  0  0  0  0
  -25.8614  -24.5637   17.1932 C   0  0  0  0  0  0  0  0  0  0  0  0
  -23.9601  -13.5588   20.4639 C   0  0  0  0  0  0  0  0  0  0  0  0
  -25.3831  -25.7251   18.0630 C   0  0  0  0  0  0  0  0  0  0  0  0
  -26.8297  -23.6543   17.9437 C   0  0  0  0  0  0  0  0  0  0  0  0
  -27.5174  -25.5307   19.3999 C   0  0  0  0  0  0  0  0  0  0  0  0
  -25.3023  -14.2251   20.1362 C   0  0  1  0  0  0  0  0  0  0  0  0
  -24.9088  -17.9196   20.9252 C   0  0  1  0  0  0  0  0  0  0  0  0
  -26.5765  -26.4922   18.6585 C   0  0  2  0  0  0  0  0  0  0  0  0
  -20.7444  -24.4382   20.5124 C   0  0  0  0  0  0  0  0  0  0  0  0
  -21.1726  -18.2375   18.2233 C   0  0  0  0  0  0  0  0  0  0  0  0
  -20.1428  -20.5145   18.0702 C   0  0  0  0  0  0  0  0  0  0  0  0
  -19.8626  -19.1577   20.1446 C   0  0  0  0  0  0  0  0  0  0  0  0
  -31.5443  -24.2970   19.2094 C   0  0  0  0  0  0  0  0  0  0  0  0
  -24.3019  -24.0940   21.8171 C   0  0  0  0  0  0  0  0  0  0  0  0
  -31.0768  -25.3665   16.2681 C   0  0  0  0  0  0  0  0  0  0  0  0
  -29.2107  -21.0801   14.3748 C   0  0  0  0  0  0  0  0  0  0  0  0
  -30.4257  -25.7945   17.5995 C   0  0  0  0  0  0  0  0  0  0  0  0
  -28.3657  -20.4000   15.4465 C   0  0  0  0  0  0  0  0  0  1  0  0
  -22.1143  -20.1862   19.6311 C   0  0  1  0  0  0  0  0  0  0  0  0
  -21.9574  -23.6968   21.0526 C   0  0  2  0  0  0  0  0  0  0  0  0
  -20.8513  -19.5207   19.0153 C   0  0  0  0  0  0  0  0  0  0  0  0
  -24.9874  -27.5132   20.2442 N   0  0  0  0  0  0  0  0  0  0  0  0
  -29.3746  -24.6561   14.6210 N   0  0  0  0  0  0  0  0  0  0  0  0
  -28.8846  -23.5257   14.1240 N   0  0  0  0  0  0  0  0  0  0  0  0
  -29.5332  -22.5132   14.7219 N   0  0  0  0  0  0  0  0  0  0  0  0
  -26.1295  -27.6382   19.5471 N   0  0  0  0  0  0  0  0  0  0  0  0
  -24.1931  -18.9677   20.1947 N   0  0  0  0  0  0  0  0  0  0  0  0
  -27.9307  -24.4146   18.5360 N   0  0  0  0  0  0  0  0  0  0  0  0
  -27.9257  -29.1204   19.1143 N   0  0  0  0  0  0  0  0  0  0  0  0
  -25.3491  -31.4261   22.0197 N   0  0  0  0  0  0  0  0  0  0  0  0
  -25.3311  -15.5447   20.7277 N   0  0  0  0  0  0  0  0  0  0  0  0
  -21.8369  -21.3885   20.4095 N   0  0  0  0  0  0  0  0  0  0  0  0
  -30.3118  -24.6763   18.5333 N   0  0  0  0  0  0  0  0  0  0  0  0
  -23.0544  -24.6828   21.2657 N   0  3  0  0  0  0  0  0  0  0  0  0
  -27.2648  -31.5050   20.7617 O   0  0  0  0  0  0  0  0  0  0  0  0
  -24.1704  -16.6783   19.0574 O   0  0  0  0  0  0  0  0  0  0  0  0
  -22.3011  -18.8002   21.5470 O   0  0  0  0  0  0  0  0  0  0  0  0
  -23.1841  -22.8110   19.1691 O   0  0  0  0  0  0  0  0  0  0  0  0
  -29.3369  -22.5954   18.7128 O   0  0  0  0  0  0  0  0  0  0  0  0
  -20.5780  -29.6725   24.2994 O   0  0  0  0  0  0  0  0  0  0  0  0
  -29.0592  -20.4222   16.6934 O   0  0  0  0  0  0  0  0  0  1  0  0
  -15.5329  -28.3838   22.4856 F   0  0  0  0  0  0  0  0  0  0  0  0
  -19.9398  -27.0724   23.6103 F   0  0  0  0  0  0  0  0  0  0  0  0
  1  2  1  0  0  0  0
  1  5  2  0  0  0  0
  2  6  2  0  0  0  0
  3  8  2  0  0  0  0
  3 16  1  0  0  0  0
  4  9  1  0  0  0  0
  4 16  2  0  0  0  0
  5 18  1  0  0  0  0
  6 20  1  0  0  0  0
  7 10  2  0  0  0  0
  7 19  1  0  0  0  0
  8 22  1  0  0  0  0
  9 22  2  0  0  0  0
 10 23  1  0  0  0  0
 11 12  2  0  0  0  0
 11 24  1  0  0  0  0
 12 25  1  0  0  0  0
 13 21  1  0  0  0  0
 13 23  2  0  0  0  0
 14 25  2  0  0  0  0
 14 26  1  0  0  0  0
 15 28  2  0  0  0  0
 15 63  1  0  0  0  0
 16 27  1  0  0  0  0
 17 27  1  0  0  0  0
 17 29  2  0  0  0  0
 17 30  1  0  0  0  0
 18 20  2  0  0  0  0
 18 35  1  0  0  0  0
 19 21  2  0  0  0  0
 19 36  1  0  0  0  0
 20 44  1  0  0  0  0
 21 37  1  0  0  0  0
 22 78  1  0  0  0  0
 23 79  1  0  0  0  0
 24 26  2  0  0  0  0
 24 78  1  0  0  0  0
 25 80  1  0  0  0  0
 26 81  1  0  0  0  0
 27 60  2  0  0  0  0
 28 53  1  0  0  0  0
 28 61  1  0  0  0  0
 29 64  1  0  0  0  0
 29 67  1  0  0  0  0
 30 68  1  0  0  0  0
 30 73  2  0  0  0  0
 31 45  1  0  0  0  0
 31 69  1  0  0  0  0
 31 74  2  0  0  0  0
 32 57  1  0  0  0  0
 32 65  1  0  0  0  0
 32 75  2  0  0  0  0
 33 58  1  0  0  0  0
 33 70  1  0  0  0  0
 33 76  2  0  0  0  0
 34 66  1  0  0  0  0
 34 71  1  0  0  0  0
 34 77  2  0  0  0  0
 35 38  1  0  0  0  0
 36 45  1  0  0  0  0
 37 65  1  0  0  0  0
 38 40  1  0  0  0  0
 39 41  1  0  0  0  0
 39 42  1  0  0  0  0
 40 44  1  0  0  0  0
 41 46  1  0  0  0  0
 42 66  1  0  0  0  0
 43 46  1  0  0  0  0
 43 66  1  0  0  0  0
 44 69  1  0  0  0  0
 45 65  1  0  0  0  0
 46 64  1  0  0  0  0
 47 58  1  0  0  0  0
 48 59  1  0  0  0  0
 49 59  1  0  0  0  0
 50 59  1  0  0  0  0
 51 71  1  0  0  0  0
 52 72  1  0  0  0  0
 53 55  1  0  0  0  0
 54 56  1  0  0  0  0
 54 63  1  0  0  0  0
 55 71  1  0  0  0  0
 56 79  1  0  0  0  0
 57 59  1  0  0  0  0
 57 70  1  0  0  0  0
 58 72  1  0  0  0  0
 60 64  1  0  0  0  0
 61 62  2  0  0  0  0
 62 63  1  0  0  0  0
M  CHG  1  72   1
M  ISO  4  34 100  56 101  71 100  79 101
M  END
> <Batch ID>
0051

> <Smiles>
CNC(C)C(=O)NC(C(=O)N1Cc2cc([101O:1][101CH2:1]Cn3cc(CC[100N:0](C)[100C:0](=O)N4CCCC(n5nc(-c6ccc(Oc7ccc(F)cc7F)cc6)c(C(N)=O)c5N)C4)nn3)ccc2CC1C(=O)NC1CCCc2ccccc21)C(C)(C)C

> <Shape>
0.247

> <Color>
0.083

> <Negative vol penalty>
0.000

$$$$

  -OEChem-04052317333D

 87 95  0     1  0  0  0  0  0999 V2000
  -21.7409  -24.8480   16.5712 C   0  0  0  0  0  0  0  0  0  0  0  0
  -22.5258  -23.7016   16.6427 C   0  0  0  0  0  0  0  0  0  0  0  0
  -26.3732  -28.9800   19.1970 C   0  0  0  0  0  0  0  0  0  0  0  0
  -26.2072  -28.2061   21.4797 C   0  0  0  0  0  0  0  0  0  0  0  0
  -21.0343  -25.2788   17.6933 C   0  0  0  0  0  0  0  0  0  0  0  0
  -22.6054  -22.9859   17.8368 C   0  0  0  0  0  0  0  0  0  0  0  0
  -23.1358  -16.9169   18.4628 C   0  0  0  0  0  0  0  0  0  0  0  0
  -25.5377  -30.0548   19.5006 C   0  0  0  0  0  0  0  0  0  0  0  0
  -25.3718  -29.2810   21.7833 C   0  0  0  0  0  0  0  0  0  0  0  0
  -24.2340  -16.0905   18.6965 C   0  0  0  0  0  0  0  0  0  0  0  0
  -25.7001  -32.5772   22.4529 C   0  0  0  0  0  0  0  0  0  0  0  0
  -25.9506  -33.2776   23.6328 C   0  0  0  0  0  0  0  0  0  0  0  0
  -23.7371  -16.1077   21.0570 C   0  0  0  0  0  0  0  0  0  0  0  0
  -23.7388  -32.7235   24.4314 C   0  0  0  0  0  0  0  0  0  0  0  0
  -26.7079  -28.0555   20.1865 C   0  0  0  0  0  0  0  0  0  0  0  0
  -28.9748  -26.9072   19.9630 C   0  0  0  0  0  0  0  0  0  0  0  0
  -21.0976  -24.5626   18.8989 C   0  0  0  0  0  0  0  0  0  0  0  0
  -22.3350  -17.3546   19.5275 C   0  0  0  0  0  0  0  0  0  0  0  0
  -21.9000  -23.4082   18.9764 C   0  0  0  0  0  0  0  0  0  0  0  0
  -22.6278  -16.9376   20.8339 C   0  0  0  0  0  0  0  0  0  0  0  0
  -25.0370  -30.2054   20.7938 C   0  0  0  0  0  0  0  0  0  0  0  0
  -24.5366  -15.6881   19.9940 C   0  0  0  0  0  0  0  0  0  0  0  0
  -24.4689  -31.9499   22.2621 C   0  0  0  0  0  0  0  0  0  0  0  0
  -24.9700  -33.3507   24.6220 C   0  0  0  0  0  0  0  0  0  0  0  0
  -23.4882  -32.0231   23.2514 C   0  0  0  0  0  0  0  0  0  0  0  0
  -27.5704  -26.9446   19.8733 C   0  0  0  0  0  0  0  0  0  0  0  0
  -29.3110  -25.6385   19.5582 C   0  0  0  0  0  0  0  0  0  0  0  0
  -28.1729  -11.6934   20.5425 C   0  0  0  0  0  0  0  0  0  0  0  0
  -29.6820  -13.1391   19.7244 C   0  0  0  0  0  0  0  0  0  0  0  0
  -27.4896  -13.5844   19.5454 C   0  0  0  0  0  0  0  0  0  0  0  0
  -29.8934  -27.9279   20.3753 C   0  0  0  0  0  0  0  0  0  0  0  0
  -21.6021  -20.1890   20.7655 C   0  0  0  0  0  0  0  0  0  0  0  0
  -19.5780  -18.4321   22.5927 C   0  0  0  0  0  0  0  0  0  0  0  0
  -18.8004  -15.4056   23.9647 C   0  0  0  0  0  0  0  0  0  0  0  0
  -28.6750  -20.2947   19.5808 C   0  0  0  0  0  0  0  0  0  0  0  0
  -20.3536  -25.0935   20.0986 C   0  0  0  0  0  0  0  0  0  0  0  0
  -21.1381  -18.2240   19.2557 C   0  0  0  0  0  0  0  0  0  0  0  0
  -21.7876  -17.3632   22.0092 C   0  0  0  0  0  0  0  0  0  0  0  0
  -20.1947  -24.0691   21.2192 C   0  0  0  0  0  0  0  0  0  0  0  0
  -26.5471  -22.0302   17.3599 C   0  0  0  0  0  0  0  0  0  0  0  0
  -21.5187  -23.3601   21.4860 C   0  0  0  0  0  0  0  0  0  0  0  0
  -26.7305  -23.4725   17.8301 C   0  0  0  0  0  0  0  0  0  0  0  0
  -26.4903  -21.0470   18.5306 C   0  0  0  0  0  0  0  0  0  0  0  0
  -27.8243  -22.5946   19.9264 C   0  0  0  0  0  0  0  0  0  0  0  0
  -21.9922  -22.5910   20.2468 C   0  0  1  0  0  0  0  0  0  0  0  0
  -20.6943  -19.0277   20.4741 C   0  0  1  0  0  0  0  0  0  0  0  0
  -27.9446  -23.5955   18.7670 C   0  0  2  0  0  0  0  0  0  0  0  0
  -27.8562  -10.4137   21.2385 C   0  0  0  0  0  0  0  0  0  0  0  0
  -17.1063  -14.2891   25.4415 C   0  0  0  0  0  0  0  0  0  0  0  0
  -20.8552  -19.7347   25.0386 C   0  0  0  0  0  0  0  0  0  0  0  0
  -19.8301  -17.9352   26.4455 C   0  0  0  0  0  0  0  0  0  0  0  0
  -18.3687  -19.4972   25.1621 C   0  0  0  0  0  0  0  0  0  0  0  0
  -27.0301  -18.3750   19.6979 C   0  0  0  0  0  0  0  0  0  0  0  0
  -17.9919  -13.5345   21.8190 C   0  0  0  0  0  0  0  0  0  0  0  0
  -32.3552  -17.1848   20.0503 C   0  0  0  0  0  0  0  0  0  0  0  0
  -31.1015  -13.5230   19.4792 C   0  0  0  0  0  0  0  0  0  0  0  0
  -26.3796  -14.4863   19.0915 C   0  0  0  0  0  0  0  0  0  1  0  0
  -31.8189  -14.1289   20.7015 C   0  0  0  0  0  0  0  0  0  0  0  0
  -29.4151  -17.9719   19.2130 C   0  0  0  0  0  0  0  0  0  0  0  0
  -31.1651  -15.3784   21.2836 C   0  0  0  0  0  0  0  0  0  0  0  0
  -29.9192  -17.3958   20.5230 C   0  0  0  0  0  0  0  0  0  0  0  0
  -19.6789  -17.7253   23.9228 C   0  0  1  0  0  0  0  0  0  0  0  0
  -17.4992  -14.6252   24.0113 C   0  0  2  0  0  0  0  0  0  0  0  0
  -19.7004  -18.7165   25.1205 C   0  0  0  0  0  0  0  0  0  0  0  0
  -27.0501  -25.7914   19.4451 N   0  0  0  0  0  0  0  0  0  0  0  0
  -29.4732  -11.9731   20.3565 N   0  0  0  0  0  0  0  0  0  0  0  0
  -27.1290  -12.4492   20.1652 N   0  0  0  0  0  0  0  0  0  0  0  0
  -28.7425  -13.9947   19.2905 N   0  0  0  0  0  0  0  0  0  0  0  0
  -28.1334  -25.0174   19.2619 N   0  0  0  0  0  0  0  0  0  0  0  0
  -20.6317  -18.2184   21.6928 N   0  0  0  0  0  0  0  0  0  0  0  0
  -27.6417  -21.2304   19.4247 N   0  0  0  0  0  0  0  0  0  0  0  0
  -30.4961  -25.0047   19.4303 N   0  0  0  0  0  0  0  0  0  0  0  0
  -29.3792  -29.1739   20.7595 N   0  0  0  0  0  0  0  0  0  0  0  0
  -21.2548  -21.3535   20.1076 N   0  0  0  0  0  0  0  0  0  0  0  0
  -18.5798  -16.7667   23.9601 N   0  0  0  0  0  0  0  0  0  0  0  0
  -28.3467  -18.9412   19.4115 N   0  0  0  0  0  0  0  0  0  0  0  0
  -17.6313  -13.3518   23.2485 N   0  3  0  0  0  0  0  0  0  0  0  0
  -31.0577  -16.4405   20.2564 N   0  3  1  0  0  0  0  0  0  0  0  0
  -31.1345  -27.7460   20.3866 O   0  0  0  0  0  0  0  0  0  0  0  0
  -22.5468  -20.0400   21.5317 O   0  0  0  0  0  0  0  0  0  0  0  0
  -18.5968  -19.1420   22.3580 O   0  0  0  0  0  0  0  0  0  0  0  0
  -19.9025  -14.8622   23.9390 O   0  0  0  0  0  0  0  0  0  0  0  0
  -29.8272  -20.6474   19.8639 O   0  0  0  0  0  0  0  0  0  0  0  0
  -24.2219  -31.2543   21.0905 O   0  0  0  0  0  0  0  0  0  0  0  0
  -25.6083  -14.8820   20.2250 O   0  0  0  0  0  0  0  0  0  1  0  0
  -25.2113  -34.0220   25.7557 F   0  0  0  0  0  0  0  0  0  0  0  0
  -22.3039  -31.4215   23.0743 F   0  0  0  0  0  0  0  0  0  0  0  0
  1  2  1  0  0  0  0
  1  5  2  0  0  0  0
  2  6  2  0  0  0  0
  3  8  2  0  0  0  0
  3 15  1  0  0  0  0
  4  9  1  0  0  0  0
  4 15  2  0  0  0  0
  5 17  1  0  0  0  0
  6 19  1  0  0  0  0
  7 10  2  0  0  0  0
  7 18  1  0  0  0  0
  8 21  1  0  0  0  0
  9 21  2  0  0  0  0
 10 22  1  0  0  0  0
 11 12  2  0  0  0  0
 11 23  1  0  0  0  0
 12 24  1  0  0  0  0
 13 20  1  0  0  0  0
 13 22  2  0  0  0  0
 14 24  2  0  0  0  0
 14 25  1  0  0  0  0
 15 26  1  0  0  0  0
 16 26  1  0  0  0  0
 16 27  2  0  0  0  0
 16 31  1  0  0  0  0
 17 19  2  0  0  0  0
 17 36  1  0  0  0  0
 18 20  2  0  0  0  0
 18 37  1  0  0  0  0
 19 45  1  0  0  0  0
 20 38  1  0  0  0  0
 21 84  1  0  0  0  0
 22 85  1  0  0  0  0
 23 25  2  0  0  0  0
 23 84  1  0  0  0  0
 24 86  1  0  0  0  0
 25 87  1  0  0  0  0
 26 65  2  0  0  0  0
 27 69  1  0  0  0  0
 27 72  1  0  0  0  0
 28 48  1  0  0  0  0
 28 66  1  0  0  0  0
 28 67  2  0  0  0  0
 29 56  1  0  0  0  0
 29 66  2  0  0  0  0
 29 68  1  0  0  0  0
 30 57  1  0  0  0  0
 30 67  1  0  0  0  0
 30 68  2  0  0  0  0
 31 73  1  0  0  0  0
 31 79  2  0  0  0  0
 32 46  1  0  0  0  0
 32 74  1  0  0  0  0
 32 80  2  0  0  0  0
 33 62  1  0  0  0  0
 33 70  1  0  0  0  0
 33 81  2  0  0  0  0
 34 63  1  0  0  0  0
 34 75  1  0  0  0  0
 34 82  2  0  0  0  0
 35 71  1  0  0  0  0
 35 76  1  0  0  0  0
 35 83  2  0  0  0  0
 36 39  1  0  0  0  0
 37 46  1  0  0  0  0
 38 70  1  0  0  0  0
 39 41  1  0  0  0  0
 40 42  1  0  0  0  0
 40 43  1  0  0  0  0
 41 45  1  0  0  0  0
 42 47  1  0  0  0  0
 43 71  1  0  0  0  0
 44 47  1  0  0  0  0
 44 71  1  0  0  0  0
 45 74  1  0  0  0  0
 46 70  1  0  0  0  0
 47 69  1  0  0  0  0
 49 63  1  0  0  0  0
 50 64  1  0  0  0  0
 51 64  1  0  0  0  0
 52 64  1  0  0  0  0
 53 76  1  0  0  0  0
 54 77  1  0  0  0  0
 55 78  1  0  0  0  0
 56 58  1  0  0  0  0
 57 85  1  0  0  0  0
 58 60  1  0  0  0  0
 59 61  1  0  0  0  0
 59 76  1  0  0  0  0
 60 78  1  0  0  0  0
 61 78  1  0  0  0  0
 62 64  1  0  0  0  0
 62 75  1  0  0  0  0
 63 77  1  0  0  0  0
 65 69  1  0  0  0  0
M  CHG  2  77   1  78   1
M  ISO  4  35 100  57 101  76 100  85 101
M  END
> <Batch ID>
0051

> <Smiles>
CNC(C)C(=O)NC(C(=O)N1Cc2cc([101O:1][101CH2:1]c3nc(C)nc(CCCN(C)CC[100N:0](C)[100C:0](=O)N4CCCC(n5nc(-c6ccc(Oc7ccc(F)cc7F)cc6)c(C(N)=O)c5N)C4)n3)ccc2CC1C(=O)NC1CCCc2ccccc21)C(C)(C)C

> <Shape>
0.225

> <Color>
0.068

> <Negative vol penalty>
0.000

$$$$

  -OEChem-04052317333D

 91 99  0     1  0  0  0  0  0999 V2000
  -30.6196  -22.6056   27.8129 C   0  0  0  0  0  0  0  0  0  0  0  0
  -30.3948  -22.3273   26.4685 C   0  0  0  0  0  0  0  0  0  0  0  0
  -23.1334   -9.8569   19.9096 C   0  0  0  0  0  0  0  0  0  0  0  0
  -23.7752   -9.8873   22.2386 C   0  0  0  0  0  0  0  0  0  0  0  0
  -30.0192  -23.7167   28.4035 C   0  0  0  0  0  0  0  0  0  0  0  0
  -29.5686  -23.1595   25.7141 C   0  0  0  0  0  0  0  0  0  0  0  0
  -30.2033  -24.5913   19.7936 C   0  0  0  0  0  0  0  0  0  0  0  0
  -22.3671   -8.7135   20.1357 C   0  0  0  0  0  0  0  0  0  0  0  0
  -23.0090   -8.7439   22.4647 C   0  0  0  0  0  0  0  0  0  0  0  0
  -29.5993  -24.0960   18.6388 C   0  0  0  0  0  0  0  0  0  0  0  0
  -19.7471   -7.9816   22.9113 C   0  0  0  0  0  0  0  0  0  0  0  0
  -18.9310   -7.9634   24.0423 C   0  0  0  0  0  0  0  0  0  0  0  0
  -27.9936  -25.8946   18.7143 C   0  0  0  0  0  0  0  0  0  0  0  0
  -20.1153   -6.0253   24.8657 C   0  0  0  0  0  0  0  0  0  0  0  0
  -26.9534  -21.0811   16.1693 C   0  0  0  0  0  0  0  0  0  0  0  0
  -23.8375  -10.4438   20.9610 C   0  0  0  0  0  0  0  0  0  0  0  0
  -24.2082  -12.9641   20.8268 C   0  0  0  0  0  0  0  0  0  0  0  0
  -29.1929  -24.5684   27.6536 C   0  0  0  0  0  0  0  0  0  0  0  0
  -29.6994  -25.7378   20.4246 C   0  0  0  0  0  0  0  0  0  0  0  0
  -28.9555  -24.2824   26.2956 C   0  0  0  0  0  0  0  0  0  0  0  0
  -28.5946  -26.4040   19.8755 C   0  0  0  0  0  0  0  0  0  0  0  0
  -22.3049   -8.1570   21.4132 C   0  0  0  0  0  0  0  0  0  0  0  0
  -28.4926  -24.7459   18.1006 C   0  0  0  0  0  0  0  0  0  0  0  0
  -20.7472   -7.0216   22.7574 C   0  0  0  0  0  0  0  0  0  0  0  0
  -19.1151   -6.9853   25.0195 C   0  0  0  0  0  0  0  0  0  0  0  0
  -20.9314   -6.0434   23.7346 C   0  0  0  0  0  0  0  0  0  0  0  0
  -24.6296  -11.6246   20.7280 C   0  0  0  0  0  0  0  0  0  0  0  0
  -25.8520  -20.2358   17.7827 C   0  0  0  0  0  0  0  0  0  0  0  0
  -25.3345  -21.4973   17.6054 C   0  0  0  0  0  0  0  0  0  0  0  0
  -25.3243  -13.6995   20.5105 C   0  0  0  0  0  0  0  0  0  0  0  0
  -22.9227  -13.4962   21.1737 C   0  0  0  0  0  0  0  0  0  0  0  0
  -28.4555  -26.3618   23.2824 C   0  0  0  0  0  0  0  0  0  0  0  0
  -28.5437  -29.4254   22.2200 C   0  0  0  0  0  0  0  0  0  0  0  0
  -28.5979  -31.5715   19.5670 C   0  0  0  0  0  0  0  0  0  0  0  0
  -30.7138  -14.7325   20.8178 C   0  0  0  0  0  0  0  0  0  0  0  0
  -28.5280  -25.7308   28.3474 C   0  0  0  0  0  0  0  0  0  0  0  0
  -30.3787  -26.2748   21.6545 C   0  0  0  0  0  0  0  0  0  0  0  0
  -28.0275  -27.6501   20.5033 C   0  0  0  0  0  0  0  0  0  0  0  0
  -27.9660  -26.7740   27.3851 C   0  0  0  0  0  0  0  0  0  0  0  0
  -29.7579  -12.2942   18.5446 C   0  0  0  0  0  0  0  0  0  0  0  0
  -27.1820  -26.0988   26.2642 C   0  0  0  0  0  0  0  0  0  0  0  0
  -28.3035  -12.0009   18.9103 C   0  0  0  0  0  0  0  0  0  0  0  0
  -30.6070  -12.4804   19.7964 C   0  0  0  0  0  0  0  0  0  0  0  0
  -28.6507  -13.2771   21.0845 C   0  0  0  0  0  0  0  0  0  0  0  0
  -28.0853  -25.1754   25.4379 C   0  0  1  0  0  0  0  0  0  0  0  0
  -29.4672  -27.1548   22.5044 C   0  0  1  0  0  0  0  0  0  0  0  0
  -27.7435  -13.0808   19.8525 C   0  0  2  0  0  0  0  0  0  0  0  0
  -24.2593  -22.2257   18.3021 C   0  0  0  0  0  0  0  0  0  0  0  0
  -28.6302  -34.0189   19.0134 C   0  0  0  0  0  0  0  0  0  0  0  0
  -33.0189  -13.9248   22.9694 C   0  0  0  0  0  0  0  0  0  0  0  0
  -32.0758  -14.0326   25.2878 C   0  0  0  0  0  0  0  0  0  0  0  0
  -25.5780  -29.6184   22.9109 C   0  0  0  0  0  0  0  0  0  0  0  0
  -25.4535  -31.6790   21.4944 C   0  0  0  0  0  0  0  0  0  0  0  0
  -26.9224  -31.6402   23.5102 C   0  0  0  0  0  0  0  0  0  0  0  0
  -31.1972  -31.3399   18.1710 C   0  0  0  0  0  0  0  0  0  0  0  0
  -27.9114  -21.0229   22.1739 C   0  0  0  0  0  0  0  0  0  0  0  0
  -25.4575  -19.2142   18.7654 C   0  0  0  0  0  0  0  0  0  0  0  0
  -26.0296  -19.4175   20.1910 C   0  0  0  0  0  0  0  0  0  0  0  0
  -29.2906  -17.5058   21.8997 C   0  0  0  0  0  0  0  0  0  0  0  0
  -25.8866  -23.3985   15.9610 C   0  0  0  0  0  0  0  0  0  0  0  0
  -30.6543  -16.8483   22.0817 C   0  0  0  0  0  0  0  0  0  0  0  0
  -30.6463  -14.7308   23.3477 C   0  0  0  0  0  0  0  0  0  0  0  0
  -27.5526  -19.4573   20.2711 C   0  0  0  0  0  0  0  0  0  0  0  0
  -29.3770  -19.0267   21.9102 C   0  0  0  0  0  0  0  0  0  0  0  0
  -26.4999  -24.4934   16.8272 C   0  0  0  0  0  0  0  0  0  1  0  0
  -27.5952  -30.3214   21.4608 C   0  0  1  0  0  0  0  0  0  0  0  0
  -29.4703  -32.7761   19.2636 C   0  0  2  0  0  0  0  0  0  0  0  0
  -32.0737  -14.6832   23.9040 C   0  0  0  0  0  0  0  0  0  0  0  0
  -26.3965  -30.7902   22.3331 C   0  0  0  0  0  0  0  0  0  0  0  0
  -26.8596  -19.9830   16.8858 N   0  0  0  0  0  0  0  0  0  0  0  0
  -25.9132  -11.5125   20.3762 N   0  0  0  0  0  0  0  0  0  0  0  0
  -26.0503  -22.0266   16.5688 N   0  0  0  0  0  0  0  0  0  0  0  0
  -26.3080  -12.7910   20.2512 N   0  0  0  0  0  0  0  0  0  0  0  0
  -28.7227  -28.1325   21.7081 N   0  0  0  0  0  0  0  0  0  0  0  0
  -30.0431  -13.5092   20.6707 N   0  0  0  0  0  0  0  0  0  0  0  0
  -25.5504  -15.0280   20.4316 N   0  0  0  0  0  0  0  0  0  0  0  0
  -21.8866  -12.6002   21.4702 N   0  0  0  0  0  0  0  0  0  0  0  0
  -28.8987  -25.9491   24.5245 N   0  0  0  0  0  0  0  0  0  0  0  0
  -28.4042  -31.4096   20.9226 N   0  0  0  0  0  0  0  0  0  0  0  0
  -30.5781  -15.3947   22.0473 N   0  0  0  0  0  0  0  0  0  0  0  0
  -30.3036  -32.5209   18.0547 N   0  3  0  0  0  0  0  0  0  0  0  0
  -27.9999  -19.6001   21.6762 N   0  3  1  0  0  0  0  0  0  0  0  0
  -22.6952  -14.7294   21.2033 O   0  0  0  0  0  0  0  0  0  0  0  0
  -27.3539  -26.1420   22.7927 O   0  0  0  0  0  0  0  0  0  0  0  0
  -29.1106  -29.8592   23.2260 O   0  0  0  0  0  0  0  0  0  0  0  0
  -28.1316  -30.8487   18.6892 O   0  0  0  0  0  0  0  0  0  0  0  0
  -31.4028  -15.2045   19.9043 O   0  0  0  0  0  0  0  0  0  0  0  0
  -21.5571   -7.0414   21.6343 O   0  0  0  0  0  0  0  0  0  0  0  0
  -27.9007  -24.2641   16.9738 O   0  0  0  0  0  0  0  0  0  1  0  0
  -18.3324   -6.9689   26.1064 F   0  0  0  0  0  0  0  0  0  0  0  0
  -21.8914   -5.1192   23.5928 F   0  0  0  0  0  0  0  0  0  0  0  0
  1  2  1  0  0  0  0
  1  5  2  0  0  0  0
  2  6  2  0  0  0  0
  3  8  2  0  0  0  0
  3 16  1  0  0  0  0
  4  9  1  0  0  0  0
  4 16  2  0  0  0  0
  5 18  1  0  0  0  0
  6 20  1  0  0  0  0
  7 10  2  0  0  0  0
  7 19  1  0  0  0  0
  8 22  1  0  0  0  0
  9 22  2  0  0  0  0
 10 23  1  0  0  0  0
 11 12  2  0  0  0  0
 11 24  1  0  0  0  0
 12 25  1  0  0  0  0
 13 21  1  0  0  0  0
 13 23  2  0  0  0  0
 14 25  2  0  0  0  0
 14 26  1  0  0  0  0
 15 70  2  0  0  0  0
 15 72  1  0  0  0  0
 16 27  1  0  0  0  0
 17 27  1  0  0  0  0
 17 30  2  0  0  0  0
 17 31  1  0  0  0  0
 18 20  2  0  0  0  0
 18 36  1  0  0  0  0
 19 21  2  0  0  0  0
 19 37  1  0  0  0  0
 20 45  1  0  0  0  0
 21 38  1  0  0  0  0
 22 88  1  0  0  0  0
 23 89  1  0  0  0  0
 24 26  2  0  0  0  0
 24 88  1  0  0  0  0
 25 90  1  0  0  0  0
 26 91  1  0  0  0  0
 27 71  2  0  0  0  0
 28 29  2  0  0  0  0
 28 57  1  0  0  0  0
 28 70  1  0  0  0  0
 29 48  1  0  0  0  0
 29 72  1  0  0  0  0
 30 73  1  0  0  0  0
 30 76  1  0  0  0  0
 31 77  1  0  0  0  0
 31 83  2  0  0  0  0
 32 46  1  0  0  0  0
 32 78  1  0  0  0  0
 32 84  2  0  0  0  0
 33 66  1  0  0  0  0
 33 74  1  0  0  0  0
 33 85  2  0  0  0  0
 34 67  1  0  0  0  0
 34 79  1  0  0  0  0
 34 86  2  0  0  0  0
 35 75  1  0  0  0  0
 35 80  1  0  0  0  0
 35 87  2  0  0  0  0
 36 39  1  0  0  0  0
 37 46  1  0  0  0  0
 38 74  1  0  0  0  0
 39 41  1  0  0  0  0
 40 42  1  0  0  0  0
 40 43  1  0  0  0  0
 41 45  1  0  0  0  0
 42 47  1  0  0  0  0
 43 75  1  0  0  0  0
 44 47  1  0  0  0  0
 44 75  1  0  0  0  0
 45 78  1  0  0  0  0
 46 74  1  0  0  0  0
 47 73  1  0  0  0  0
 49 67  1  0  0  0  0
 50 68  1  0  0  0  0
 51 68  1  0  0  0  0
 52 69  1  0  0  0  0
 53 69  1  0  0  0  0
 54 69  1  0  0  0  0
 55 81  1  0  0  0  0
 56 82  1  0  0  0  0
 57 58  1  0  0  0  0
 58 63  1  0  0  0  0
 59 61  1  0  0  0  0
 59 64  1  0  0  0  0
 60 65  1  0  0  0  0
 60 72  1  0  0  0  0
 61 80  1  0  0  0  0
 62 68  1  0  0  0  0
 62 80  1  0  0  0  0
 63 82  1  0  0  0  0
 64 82  1  0  0  0  0
 65 89  1  0  0  0  0
 66 69  1  0  0  0  0
 66 79  1  0  0  0  0
 67 81  1  0  0  0  0
 71 73  1  0  0  0  0
M  CHG  2  81   1  82   1
M  ISO  4  35 100  65 101  80 100  89 101
M  END
> <Batch ID>
0051

> <Smiles>
CNC(C)C(=O)NC(C(=O)N1Cc2cc([101O:1][101CH2:1]Cn3cnc(CCCN(C)CCC[100N:0](CC(C)C)[100C:0](=O)N4CCCC(n5nc(-c6ccc(Oc7ccc(F)cc7F)cc6)c(C(N)=O)c5N)C4)c3C)ccc2CC1C(=O)NC1CCCc2ccccc21)C(C)(C)C

> <Shape>
0.264

> <Color>
0.176

> <Negative vol penalty>
0.000

$$$$

  -OEChem-04052317333D

 92100  0     1  0  0  0  0  0999 V2000
  -27.8269  -21.4396   24.7493 C   0  0  0  0  0  0  0  0  0  0  0  0
  -27.3962  -22.7607   24.7965 C   0  0  0  0  0  0  0  0  0  0  0  0
  -26.3596  -12.7573   20.3088 C   0  0  0  0  0  0  0  0  0  0  0  0
  -24.6018  -14.3799   19.9710 C   0  0  0  0  0  0  0  0  0  0  0  0
  -27.1979  -20.5355   23.8960 C   0  0  0  0  0  0  0  0  0  0  0  0
  -26.3287  -23.1752   23.9993 C   0  0  0  0  0  0  0  0  0  0  0  0
  -24.6453  -27.7420   24.7164 C   0  0  0  0  0  0  0  0  0  0  0  0
  -25.4752  -11.9474   21.0211 C   0  0  0  0  0  0  0  0  0  0  0  0
  -23.7173  -13.5700   20.6833 C   0  0  0  0  0  0  0  0  0  0  0  0
  -25.3533  -28.8767   24.3229 C   0  0  0  0  0  0  0  0  0  0  0  0
  -23.5851   -9.2849   22.6191 C   0  0  0  0  0  0  0  0  0  0  0  0
  -23.5817   -7.9198   22.3326 C   0  0  0  0  0  0  0  0  0  0  0  0
  -23.8795  -29.1325   22.4304 C   0  0  0  0  0  0  0  0  0  0  0  0
  -28.8185  -24.5055   20.6302 C   0  0  0  0  0  0  0  0  0  0  0  0
  -22.9808   -8.4018   20.0427 C   0  0  0  0  0  0  0  0  0  0  0  0
  -30.4226  -24.5201   18.4229 C   0  0  0  0  0  0  0  0  0  0  0  0
  -25.9229  -13.9736   19.7838 C   0  0  0  0  0  0  0  0  0  0  0  0
  -27.0817  -14.7888   17.6624 C   0  0  0  0  0  0  0  0  0  0  0  0
  -26.1304  -20.9430   23.0791 C   0  0  0  0  0  0  0  0  0  0  0  0
  -23.5540  -27.2869   23.9626 C   0  0  0  0  0  0  0  0  0  0  0  0
  -25.6653  -22.2720   23.1492 C   0  0  0  0  0  0  0  0  0  0  0  0
  -23.1577  -27.9932   22.8179 C   0  0  0  0  0  0  0  0  0  0  0  0
  -28.4562  -23.7526   19.5187 C   0  0  0  0  0  0  0  0  0  0  0  0
  -29.2681  -23.7547   18.3900 C   0  0  0  0  0  0  0  0  0  0  0  0
  -24.1540  -12.3537   21.2083 C   0  0  0  0  0  0  0  0  0  0  0  0
  -24.9722  -29.5705   23.1781 C   0  0  0  0  0  0  0  0  0  0  0  0
  -23.2862  -10.2085   21.6174 C   0  0  0  0  0  0  0  0  0  0  0  0
  -23.2796   -7.4783   21.0445 C   0  0  0  0  0  0  0  0  0  0  0  0
  -22.9841   -9.7669   20.3292 C   0  0  0  0  0  0  0  0  0  0  0  0
  -26.8362  -14.8110   19.0484 C   0  0  0  0  0  0  0  0  0  0  0  0
  -29.9932  -25.2371   20.5629 C   0  0  0  0  0  0  0  0  0  0  0  0
  -28.0233  -15.7690   17.4647 C   0  0  0  0  0  0  0  0  0  0  0  0
  -26.5097  -13.9566   16.6446 C   0  0  0  0  0  0  0  0  0  0  0  0
  -22.8908  -24.6251   22.3568 C   0  0  0  0  0  0  0  0  0  0  0  0
  -29.8649  -20.9564   18.4591 C   0  0  0  0  0  0  0  0  0  0  0  0
  -19.9816  -26.0189   22.0164 C   0  0  0  0  0  0  0  0  0  0  0  0
  -18.1320  -28.8863   21.9566 C   0  0  0  0  0  0  0  0  0  0  0  0
  -25.4807  -19.9211   22.1798 C   0  0  0  0  0  0  0  0  0  0  0  0
  -22.7842  -26.0766   24.4154 C   0  0  0  0  0  0  0  0  0  0  0  0
  -21.9807  -27.5576   21.9852 C   0  0  0  0  0  0  0  0  0  0  0  0
  -24.6608  -20.5513   21.0587 C   0  0  0  0  0  0  0  0  0  0  0  0
  -30.8100  -18.3836   20.7672 C   0  0  0  0  0  0  0  0  0  0  0  0
  -23.7283  -21.6098   21.6286 C   0  0  0  0  0  0  0  0  0  0  0  0
  -29.8605  -17.2341   20.4321 C   0  0  0  0  0  0  0  0  0  0  0  0
  -30.1299  -19.7381   20.5945 C   0  0  0  0  0  0  0  0  0  0  0  0
  -28.5855  -18.8029   18.9028 C   0  0  0  0  0  0  0  0  0  0  0  0
  -24.5261  -22.7529   22.2687 C   0  0  1  0  0  0  0  0  0  0  0  0
  -22.0065  -25.4065   23.2869 C   0  0  1  0  0  0  0  0  0  0  0  0
  -29.2423  -17.4174   19.0347 C   0  0  2  0  0  0  0  0  0  0  0  0
  -27.1964  -22.9528   19.5594 C   0  0  0  0  0  0  0  0  0  0  0  0
  -27.4005  -24.8387   16.1554 C   0  0  0  0  0  0  0  0  0  0  0  0
  -27.9795  -29.5476   18.1119 C   0  0  0  0  0  0  0  0  0  0  0  0
  -15.7859  -29.7105   21.6184 C   0  0  0  0  0  0  0  0  0  0  0  0
  -29.9502  -23.0788   15.9832 C   0  0  0  0  0  0  0  0  0  0  0  0
  -20.2666  -25.5892   19.0090 C   0  0  0  0  0  0  0  0  0  0  0  0
  -18.4121  -27.2362   18.6683 C   0  0  0  0  0  0  0  0  0  0  0  0
  -17.9845  -25.1202   19.9182 C   0  0  0  0  0  0  0  0  0  0  0  0
  -18.0206  -30.0388   24.6802 C   0  0  0  0  0  0  0  0  0  0  0  0
  -30.4174  -26.0656   21.7493 C   0  0  0  0  0  0  0  0  0  0  0  0
  -28.8092  -21.4254   17.4898 C   0  0  0  0  0  0  0  0  0  0  0  0
  -27.5173  -23.3760   16.5762 C   0  0  0  0  0  0  0  0  0  0  0  0
  -29.8798  -27.5009   21.7267 C   0  0  0  0  0  0  0  0  0  0  0  0
  -30.2735  -28.2690   20.4613 C   0  0  0  0  0  0  0  0  0  0  0  0
  -27.7732  -31.5591   22.0706 C   0  0  0  0  0  0  0  0  0  0  0  0
  -27.6673  -28.8522   19.4189 C   0  0  0  0  0  0  0  0  0  0  0  0
  -29.7437  -29.6953   20.5043 C   0  0  0  0  0  0  0  0  0  0  0  0
  -27.6361  -31.0124   20.6575 C   0  0  0  0  0  0  0  0  0  0  0  0
  -27.0491  -30.7278   23.1225 C   0  0  0  0  0  0  0  0  0  1  0  0
  -19.3526  -26.9472   21.0056 C   0  0  1  0  0  0  0  0  0  0  0  0
  -16.8238  -29.2555   22.6326 C   0  0  2  0  0  0  0  0  0  0  0  0
  -28.9274  -22.9672   17.1727 C   0  0  1  0  0  0  0  0  0  0  0  0
  -19.0274  -26.2305   19.6647 C   0  0  0  0  0  0  0  0  0  0  0  0
  -30.8074  -25.2640   19.4841 N   0  0  0  0  0  0  0  0  0  0  0  0
  -27.5633  -15.7322   19.6861 N   0  0  0  0  0  0  0  0  0  0  0  0
  -28.2750  -16.2979   18.6964 N   0  0  0  0  0  0  0  0  0  0  0  0
  -21.2639  -26.3647   22.4655 N   0  0  0  0  0  0  0  0  0  0  0  0
  -29.5361  -19.8642   19.2623 N   0  0  0  0  0  0  0  0  0  0  0  0
  -28.6523  -16.2214   16.3592 N   0  0  0  0  0  0  0  0  0  0  0  0
  -25.5562  -13.0007   17.0208 N   0  0  0  0  0  0  0  0  0  0  0  0
  -23.6155  -23.6252   22.9770 N   0  0  0  0  0  0  0  0  0  0  0  0
  -18.1929  -27.5405   21.6626 N   0  0  0  0  0  0  0  0  0  0  0  0
  -17.0398  -30.3584   23.6112 N   0  3  0  0  0  0  0  0  0  0  0  0
  -28.2353  -29.6608   20.5604 N   0  3  1  0  0  0  0  0  0  0  0  0
  -26.8466  -14.0464   15.4396 O   0  0  0  0  0  0  0  0  0  0  0  0
  -22.9129  -24.9073   21.1646 O   0  0  0  0  0  0  0  0  0  0  0  0
  -30.9498  -21.5427   18.4978 O   0  0  0  0  0  0  0  0  0  0  0  0
  -19.3552  -25.0274   22.3988 O   0  0  0  0  0  0  0  0  0  0  0  0
  -19.0102  -29.7101   21.7103 O   0  0  0  0  0  0  0  0  0  0  0  0
  -23.2907  -11.5635   21.9031 O   0  0  0  0  0  0  0  0  0  0  0  0
  -25.6619  -30.6780   22.7913 O   0  0  0  0  0  0  0  0  0  1  0  0
  -23.2780   -6.1674   20.7691 F   0  0  0  0  0  0  0  0  0  0  0  0
  -22.6973  -10.6495   19.3624 F   0  0  0  0  0  0  0  0  0  0  0  0
  1  2  1  0  0  0  0
  1  5  2  0  0  0  0
  2  6  2  0  0  0  0
  3  8  2  0  0  0  0
  3 17  1  0  0  0  0
  4  9  1  0  0  0  0
  4 17  2  0  0  0  0
  5 19  1  0  0  0  0
  6 21  1  0  0  0  0
  7 10  2  0  0  0  0
  7 20  1  0  0  0  0
  8 25  1  0  0  0  0
  9 25  2  0  0  0  0
 10 26  1  0  0  0  0
 11 12  2  0  0  0  0
 11 27  1  0  0  0  0
 12 28  1  0  0  0  0
 13 22  1  0  0  0  0
 13 26  2  0  0  0  0
 14 23  2  0  0  0  0
 14 31  1  0  0  0  0
 15 28  2  0  0  0  0
 15 29  1  0  0  0  0
 16 24  2  0  0  0  0
 16 73  1  0  0  0  0
 17 30  1  0  0  0  0
 18 30  1  0  0  0  0
 18 32  2  0  0  0  0
 18 33  1  0  0  0  0
 19 21  2  0  0  0  0
 19 38  1  0  0  0  0
 20 22  2  0  0  0  0
 20 39  1  0  0  0  0
 21 47  1  0  0  0  0
 22 40  1  0  0  0  0
 23 24  1  0  0  0  0
 23 50  1  0  0  0  0
 24 71  1  0  0  0  0
 25 89  1  0  0  0  0
 26 90  1  0  0  0  0
 27 29  2  0  0  0  0
 27 89  1  0  0  0  0
 28 91  1  0  0  0  0
 29 92  1  0  0  0  0
 30 74  2  0  0  0  0
 31 59  1  0  0  0  0
 31 73  2  0  0  0  0
 32 75  1  0  0  0  0
 32 78  1  0  0  0  0
 33 79  1  0  0  0  0
 33 84  2  0  0  0  0
 34 48  1  0  0  0  0
 34 80  1  0  0  0  0
 34 85  2  0  0  0  0
 35 60  1  0  0  0  0
 35 77  1  0  0  0  0
 35 86  2  0  0  0  0
 36 69  1  0  0  0  0
 36 76  1  0  0  0  0
 36 87  2  0  0  0  0
 37 70  1  0  0  0  0
 37 81  1  0  0  0  0
 37 88  2  0  0  0  0
 38 41  1  0  0  0  0
 39 48  1  0  0  0  0
 40 76  1  0  0  0  0
 41 43  1  0  0  0  0
 42 44  1  0  0  0  0
 42 45  1  0  0  0  0
 43 47  1  0  0  0  0
 44 49  1  0  0  0  0
 45 77  1  0  0  0  0
 46 49  1  0  0  0  0
 46 77  1  0  0  0  0
 47 80  1  0  0  0  0
 48 76  1  0  0  0  0
 49 75  1  0  0  0  0
 51 61  1  0  0  0  0
 52 65  1  0  0  0  0
 53 70  1  0  0  0  0
 54 71  1  0  0  0  0
 55 72  1  0  0  0  0
 56 72  1  0  0  0  0
 57 72  1  0  0  0  0
 58 82  1  0  0  0  0
 59 62  1  0  0  0  0
 60 71  1  0  0  0  0
 61 71  1  0  0  0  0
 62 63  1  0  0  0  0
 63 66  1  0  0  0  0
 64 67  1  0  0  0  0
 64 68  1  0  0  0  0
 65 83  1  0  0  0  0
 66 83  1  0  0  0  0
 67 83  1  0  0  0  0
 68 90  1  0  0  0  0
 69 72  1  0  0  0  0
 69 81  1  0  0  0  0
 70 82  1  0  0  0  0
 74 75  1  0  0  0  0
M  CHG  2  82   1  83   1
M  ISO  4  35 100  60 100  68 101  90 101
M  END
> <Batch ID>
0051

> <Smiles>
CCN(CCCCc1cc(C)c(C(C)(CC)[100CH2:0][100C:0](=O)N2CCCC(n3nc(-c4ccc(Oc5ccc(F)cc5F)cc4)c(C(N)=O)c3N)C2)cn1)CC[101CH2:1][101O:1]c1ccc2c(c1)CN(C(=O)C(NC(=O)C(C)NC)C(C)(C)C)C(C(=O)NC1CCCc3ccccc31)C2

> <Shape>
0.263

> <Color>
0.046

> <Negative vol penalty>
0.000

$$$$

  -OEChem-04052317333D

 87 95  0     1  0  0  0  0  0999 V2000
  -22.3292  -33.9176   28.4545 C   0  0  0  0  0  0  0  0  0  0  0  0
  -22.5906  -32.5526   28.5178 C   0  0  0  0  0  0  0  0  0  0  0  0
  -23.2188   -9.7824   21.4543 C   0  0  0  0  0  0  0  0  0  0  0  0
  -23.7634  -10.7556   23.5975 C   0  0  0  0  0  0  0  0  0  0  0  0
  -22.1550  -34.5361   27.2171 C   0  0  0  0  0  0  0  0  0  0  0  0
  -22.6768  -31.8051   27.3439 C   0  0  0  0  0  0  0  0  0  0  0  0
  -26.3561  -27.0254   26.2846 C   0  0  0  0  0  0  0  0  0  0  0  0
  -22.4999   -8.7735   22.0952 C   0  0  0  0  0  0  0  0  0  0  0  0
  -23.0444   -9.7467   24.2384 C   0  0  0  0  0  0  0  0  0  0  0  0
  -26.1417  -25.6485   26.3295 C   0  0  0  0  0  0  0  0  0  0  0  0
  -23.1698   -5.8951   23.7354 C   0  0  0  0  0  0  0  0  0  0  0  0
  -23.3622   -4.5848   23.2974 C   0  0  0  0  0  0  0  0  0  0  0  0
  -25.9864  -14.8886   25.3562 C   0  0  0  0  0  0  0  0  0  0  0  0
  -25.7454  -25.6387   23.9500 C   0  0  0  0  0  0  0  0  0  0  0  0
  -21.0156   -4.4248   22.7451 C   0  0  0  0  0  0  0  0  0  0  0  0
  -25.6361  -15.1678   26.6908 C   0  0  0  0  0  0  0  0  0  0  0  0
  -23.8507  -10.7735   22.2055 C   0  0  0  0  0  0  0  0  0  0  0  0
  -24.1050  -13.0601   21.1035 C   0  0  0  0  0  0  0  0  0  0  0  0
  -22.2487  -33.7976   26.0269 C   0  0  0  0  0  0  0  0  0  0  0  0
  -26.2559  -27.7221   25.0718 C   0  0  0  0  0  0  0  0  0  0  0  0
  -22.5023  -32.4141   26.0895 C   0  0  0  0  0  0  0  0  0  0  0  0
  -25.9615  -27.0240   23.8919 C   0  0  0  0  0  0  0  0  0  0  0  0
  -22.4126   -8.7556   23.4872 C   0  0  0  0  0  0  0  0  0  0  0  0
  -25.8334  -24.9554   25.1626 C   0  0  0  0  0  0  0  0  0  0  0  0
  -21.9002   -6.4702   23.6783 C   0  0  0  0  0  0  0  0  0  0  0  0
  -22.2852   -3.8497   22.8023 C   0  0  0  0  0  0  0  0  0  0  0  0
  -20.8232   -5.7350   23.1832 C   0  0  0  0  0  0  0  0  0  0  0  0
  -24.5940  -11.8157   21.5442 C   0  0  0  0  0  0  0  0  0  0  0  0
  -27.1892  -15.5268   25.1762 C   0  0  0  0  0  0  0  0  0  0  0  0
  -25.1964  -13.6799   20.5457 C   0  0  0  0  0  0  0  0  0  0  0  0
  -22.7825  -13.6070   21.1908 C   0  0  0  0  0  0  0  0  0  0  0  0
  -24.3949  -30.0518   23.9704 C   0  0  0  0  0  0  0  0  0  0  0  0
  -26.3894  -29.9077   21.4162 C   0  0  0  0  0  0  0  0  0  0  0  0
  -28.5872  -28.0755   19.5562 C   0  0  0  0  0  0  0  0  0  0  0  0
  -31.1360  -12.5878   21.5789 C   0  0  0  0  0  0  0  0  0  0  0  0
  -22.0061  -34.5011   24.7151 C   0  0  0  0  0  0  0  0  0  0  0  0
  -26.5164  -29.2031   25.0357 C   0  0  0  0  0  0  0  0  0  0  0  0
  -25.8622  -27.7222   22.5611 C   0  0  0  0  0  0  0  0  0  0  0  0
  -22.4846  -33.7087   23.5013 C   0  0  0  0  0  0  0  0  0  0  0  0
  -29.3346  -12.7396   18.3488 C   0  0  0  0  0  0  0  0  0  0  0  0
  -22.0310  -32.2556   23.5998 C   0  0  0  0  0  0  0  0  0  0  0  0
  -27.8782  -12.5525   18.7705 C   0  0  0  0  0  0  0  0  0  0  0  0
  -30.2975  -12.0608   19.3182 C   0  0  0  0  0  0  0  0  0  0  0  0
  -28.6609  -12.2889   21.1577 C   0  0  0  0  0  0  0  0  0  0  0  0
  -22.6278  -31.5740   24.8370 C   0  0  1  0  0  0  0  0  0  0  0  0
  -25.8825  -29.8921   23.8312 C   0  0  1  0  0  0  0  0  0  0  0  0
  -27.6670  -13.0003   20.2273 C   0  0  2  0  0  0  0  0  0  0  0  0
  -33.1363  -14.7426   23.0379 C   0  0  0  0  0  0  0  0  0  0  0  0
  -30.0265  -28.2148   17.5053 C   0  0  0  0  0  0  0  0  0  0  0  0
  -23.9149  -29.5838   19.6606 C   0  0  0  0  0  0  0  0  0  0  0  0
  -25.4119  -28.7893   17.8178 C   0  0  0  0  0  0  0  0  0  0  0  0
  -25.6686  -31.0999   18.7222 C   0  0  0  0  0  0  0  0  0  0  0  0
  -31.0598  -27.6274   21.1196 C   0  0  0  0  0  0  0  0  0  0  0  0
  -28.0717  -15.6160   23.9985 C   0  0  0  0  0  0  0  0  0  0  0  0
  -29.1398  -14.4995   23.8941 C   0  0  0  0  0  0  0  0  0  0  0  0
  -27.6507  -19.2277   26.1587 C   0  0  0  0  0  0  0  0  0  0  0  0
  -27.3392  -20.6207   26.7099 C   0  0  0  0  0  0  0  0  0  0  0  0
  -28.3608  -18.3631   27.2052 C   0  0  0  0  0  0  0  0  0  0  0  0
  -26.6015  -21.4730   25.6796 C   0  0  0  0  0  0  0  0  0  0  0  0
  -28.6910  -16.9555   26.6959 C   0  0  0  0  0  0  0  0  0  0  0  0
  -32.1426  -13.7099   23.5301 C   0  0  0  0  0  0  0  0  0  0  0  0
  -30.0144  -14.5895   22.6454 C   0  0  0  0  0  0  0  0  0  0  0  0
  -26.3244  -22.8747   26.2044 C   0  0  0  0  0  0  0  0  0  1  0  0
  -26.4145  -29.1310   20.1219 C   0  0  1  0  0  0  0  0  0  0  0  0
  -29.9659  -28.4047   19.0130 C   0  0  2  0  0  0  0  0  0  0  0  0
  -25.3524  -29.6379   19.1059 C   0  0  0  0  0  0  0  0  0  0  0  0
  -26.5432  -15.9243   27.3145 N   0  0  0  0  0  0  0  0  0  0  0  0
  -25.8947  -11.6528   21.2882 N   0  0  0  0  0  0  0  0  0  0  0  0
  -27.4753  -16.1258   26.3676 N   0  0  0  0  0  0  0  0  0  0  0  0
  -26.2324  -12.8030   20.6806 N   0  0  0  0  0  0  0  0  0  0  0  0
  -26.1192  -29.1717   22.5786 N   0  0  0  0  0  0  0  0  0  0  0  0
  -30.0465  -12.4714   20.7001 N   0  0  0  0  0  0  0  0  0  0  0  0
  -25.3615  -14.8839   19.9579 N   0  0  0  0  0  0  0  0  0  0  0  0
  -21.7794  -12.8366   21.7946 N   0  0  0  0  0  0  0  0  0  0  0  0
  -24.0111  -31.2199   24.6011 N   0  0  0  0  0  0  0  0  0  0  0  0
  -27.7877  -29.1963   19.6334 N   0  0  0  0  0  0  0  0  0  0  0  0
  -31.0341  -13.5438   22.6008 N   0  0  0  0  0  0  0  0  0  0  0  0
  -30.9930  -27.5248   19.6391 N   0  3  0  0  0  0  0  0  0  0  0  0
  -22.4950  -14.7384   20.7317 O   0  0  0  0  0  0  0  0  0  0  0  0
  -23.6505  -29.1806   23.5363 O   0  0  0  0  0  0  0  0  0  0  0  0
  -26.6086  -31.1215   21.3974 O   0  0  0  0  0  0  0  0  0  0  0  0
  -28.2516  -26.9373   19.8764 O   0  0  0  0  0  0  0  0  0  0  0  0
  -32.1463  -11.8843   21.4512 O   0  0  0  0  0  0  0  0  0  0  0  0
  -21.7109   -7.7713   24.1128 O   0  0  0  0  0  0  0  0  0  0  0  0
  -25.6230  -23.6116   25.2038 O   0  0  0  0  0  0  0  0  0  1  0  0
  -22.4705   -2.5920   22.3803 F   0  0  0  0  0  0  0  0  0  0  0  0
  -19.6014   -6.2825   23.1248 F   0  0  0  0  0  0  0  0  0  0  0  0
  1  2  1  0  0  0  0
  1  5  2  0  0  0  0
  2  6  2  0  0  0  0
  3  8  2  0  0  0  0
  3 17  1  0  0  0  0
  4  9  1  0  0  0  0
  4 17  2  0  0  0  0
  5 19  1  0  0  0  0
  6 21  1  0  0  0  0
  7 10  2  0  0  0  0
  7 20  1  0  0  0  0
  8 23  1  0  0  0  0
  9 23  2  0  0  0  0
 10 24  1  0  0  0  0
 11 12  2  0  0  0  0
 11 25  1  0  0  0  0
 12 26  1  0  0  0  0
 13 16  1  0  0  0  0
 13 29  2  0  0  0  0
 14 22  1  0  0  0  0
 14 24  2  0  0  0  0
 15 26  2  0  0  0  0
 15 27  1  0  0  0  0
 16 67  2  0  0  0  0
 17 28  1  0  0  0  0
 18 28  1  0  0  0  0
 18 30  2  0  0  0  0
 18 31  1  0  0  0  0
 19 21  2  0  0  0  0
 19 36  1  0  0  0  0
 20 22  2  0  0  0  0
 20 37  1  0  0  0  0
 21 45  1  0  0  0  0
 22 38  1  0  0  0  0
 23 84  1  0  0  0  0
 24 85  1  0  0  0  0
 25 27  2  0  0  0  0
 25 84  1  0  0  0  0
 26 86  1  0  0  0  0
 27 87  1  0  0  0  0
 28 68  2  0  0  0  0
 29 54  1  0  0  0  0
 29 69  1  0  0  0  0
 30 70  1  0  0  0  0
 30 73  1  0  0  0  0
 31 74  1  0  0  0  0
 31 79  2  0  0  0  0
 32 46  1  0  0  0  0
 32 75  1  0  0  0  0
 32 80  2  0  0  0  0
 33 64  1  0  0  0  0
 33 71  1  0  0  0  0
 33 81  2  0  0  0  0
 34 65  1  0  0  0  0
 34 76  1  0  0  0  0
 34 82  2  0  0  0  0
 35 72  1  0  0  0  0
 35 77  1  0  0  0  0
 35 83  2  0  0  0  0
 36 39  1  0  0  0  0
 37 46  1  0  0  0  0
 38 71  1  0  0  0  0
 39 41  1  0  0  0  0
 40 42  1  0  0  0  0
 40 43  1  0  0  0  0
 41 45  1  0  0  0  0
 42 47  1  0  0  0  0
 43 72  1  0  0  0  0
 44 47  1  0  0  0  0
 44 72  1  0  0  0  0
 45 75  1  0  0  0  0
 46 71  1  0  0  0  0
 47 70  1  0  0  0  0
 48 61  1  0  0  0  0
 49 65  1  0  0  0  0
 50 66  1  0  0  0  0
 51 66  1  0  0  0  0
 52 66  1  0  0  0  0
 53 78  1  0  0  0  0
 54 55  1  0  0  0  0
 55 62  1  0  0  0  0
 56 57  1  0  0  0  0
 56 58  1  0  0  0  0
 57 59  1  0  0  0  0
 58 60  1  0  0  0  0
 59 63  1  0  0  0  0
 60 69  1  0  0  0  0
 61 77  1  0  0  0  0
 62 77  1  0  0  0  0
 63 85  1  0  0  0  0
 64 66  1  0  0  0  0
 64 76  1  0  0  0  0
 65 78  1  0  0  0  0
 67 69  1  0  0  0  0
 68 70  1  0  0  0  0
M  CHG  1  78   1
M  ISO  4  35 100  63 101  77 100  85 101
M  END
> <Batch ID>
0051

> <Smiles>
CC[100N:0](CCCc1ccnn1CCCCC[101CH2:1][101O:1]c1ccc2c(c1)CN(C(=O)C(NC(=O)C(C)NC)C(C)(C)C)C(C(=O)NC1CCCc3ccccc31)C2)[100C:0](=O)N1CCCC(n2nc(-c3ccc(Oc4ccc(F)cc4F)cc3)c(C(N)=O)c2N)C1

> <Shape>
0.220

> <Color>
0.175

> <Negative vol penalty>
0.000

$$$$

  -OEChem-04052317333D

 89 97  0     1  0  0  0  0  0999 V2000
  -25.3970  -27.6951   36.0809 C   0  0  0  0  0  0  0  0  0  0  0  0
  -25.5426  -26.9333   34.9259 C   0  0  0  0  0  0  0  0  0  0  0  0
  -22.8762   -9.9690   20.0519 C   0  0  0  0  0  0  0  0  0  0  0  0
  -23.6245   -9.9984   22.3489 C   0  0  0  0  0  0  0  0  0  0  0  0
  -25.1444  -29.0629   35.9852 C   0  0  0  0  0  0  0  0  0  0  0  0
  -25.4345  -27.5389   33.6744 C   0  0  0  0  0  0  0  0  0  0  0  0
  -29.0683  -26.0516   30.4763 C   0  0  0  0  0  0  0  0  0  0  0  0
  -22.0501   -8.8814   20.3349 C   0  0  0  0  0  0  0  0  0  0  0  0
  -22.7983   -8.9107   22.6319 C   0  0  0  0  0  0  0  0  0  0  0  0
  -28.9166  -24.8021   29.8767 C   0  0  0  0  0  0  0  0  0  0  0  0
  -22.8516   -5.5596   22.1871 C   0  0  0  0  0  0  0  0  0  0  0  0
  -23.3884   -4.5174   22.9429 C   0  0  0  0  0  0  0  0  0  0  0  0
  -28.1027  -25.8693   27.8723 C   0  0  0  0  0  0  0  0  0  0  0  0
  -21.6964   -4.8700   24.6310 C   0  0  0  0  0  0  0  0  0  0  0  0
  -32.4671  -13.3097   23.9270 C   0  0  0  0  0  0  0  0  0  0  0  0
  -23.6635  -10.5275   21.0589 C   0  0  0  0  0  0  0  0  0  0  0  0
  -24.1869  -13.0161   20.8575 C   0  0  0  0  0  0  0  0  0  0  0  0
  -25.0428  -29.6873   34.7320 C   0  0  0  0  0  0  0  0  0  0  0  0
  -28.7275  -27.2207   29.7810 C   0  0  0  0  0  0  0  0  0  0  0  0
  -25.1790  -28.9161   33.5619 C   0  0  0  0  0  0  0  0  0  0  0  0
  -28.2535  -27.1326   28.4643 C   0  0  0  0  0  0  0  0  0  0  0  0
  -33.3566  -14.0722   23.1465 C   0  0  0  0  0  0  0  0  0  0  0  0
  -22.0111   -8.3522   21.6249 C   0  0  0  0  0  0  0  0  0  0  0  0
  -28.4310  -24.7106   28.5756 C   0  0  0  0  0  0  0  0  0  0  0  0
  -21.7372   -6.2571   22.6533 C   0  0  0  0  0  0  0  0  0  0  0  0
  -22.8108   -4.1726   24.1648 C   0  0  0  0  0  0  0  0  0  0  0  0
  -21.1596   -5.9123   23.8752 C   0  0  0  0  0  0  0  0  0  0  0  0
  -24.5175  -11.6507   20.7671 C   0  0  0  0  0  0  0  0  0  0  0  0
  -33.5346  -15.2310   23.8621 C   0  0  0  0  0  0  0  0  0  0  0  0
  -25.3318  -13.6726   20.4771 C   0  0  0  0  0  0  0  0  0  0  0  0
  -22.9550  -13.6357   21.2504 C   0  0  0  0  0  0  0  0  0  0  0  0
  -26.6147  -29.5550   30.2178 C   0  0  0  0  0  0  0  0  0  0  0  0
  -28.1254  -30.8710   27.6666 C   0  0  0  0  0  0  0  0  0  0  0  0
  -30.0225  -30.4087   24.8677 C   0  0  0  0  0  0  0  0  0  0  0  0
  -30.6558  -14.4473   20.6015 C   0  0  0  0  0  0  0  0  0  0  0  0
  -24.7219  -31.1600   34.6786 C   0  0  0  0  0  0  0  0  0  0  0  0
  -28.9223  -28.5625   30.4323 C   0  0  0  0  0  0  0  0  0  0  0  0
  -27.8925  -28.3588   27.6677 C   0  0  0  0  0  0  0  0  0  0  0  0
  -24.9940  -31.7937   33.3167 C   0  0  0  0  0  0  0  0  0  0  0  0
  -29.5744  -11.9527   18.3478 C   0  0  0  0  0  0  0  0  0  0  0  0
  -24.4277  -30.9226   32.1999 C   0  0  0  0  0  0  0  0  0  0  0  0
  -28.1256  -11.7525   18.7904 C   0  0  0  0  0  0  0  0  0  0  0  0
  -30.5168  -12.1475   19.5370 C   0  0  0  0  0  0  0  0  0  0  0  0
  -28.6503  -13.0264   20.9032 C   0  0  0  0  0  0  0  0  0  0  0  0
  -25.0931  -29.5412   32.1864 C   0  0  1  0  0  0  0  0  0  0  0  0
  -28.0584  -29.6576   29.8143 C   0  0  1  0  0  0  0  0  0  0  0  0
  -27.6739  -12.8882   19.7249 C   0  0  2  0  0  0  0  0  0  0  0  0
  -34.3464  -16.4313   23.5854 C   0  0  0  0  0  0  0  0  0  0  0  0
  -32.5775  -15.6820   17.7467 C   0  0  0  0  0  0  0  0  0  0  0  0
  -31.0667  -31.6689   22.9653 C   0  0  0  0  0  0  0  0  0  0  0  0
  -25.3912  -31.1229   26.3360 C   0  0  0  0  0  0  0  0  0  0  0  0
  -26.5638  -31.4760   24.1523 C   0  0  0  0  0  0  0  0  0  0  0  0
  -26.8917  -33.0983   26.0187 C   0  0  0  0  0  0  0  0  0  0  0  0
  -32.7493  -29.5727   25.6580 C   0  0  0  0  0  0  0  0  0  0  0  0
  -33.9581  -13.7047   21.8539 C   0  0  0  0  0  0  0  0  0  0  0  0
  -33.4784  -15.8464   18.9629 C   0  0  0  0  0  0  0  0  0  0  0  0
  -30.5302  -19.3537   26.4852 C   0  0  0  0  0  0  0  0  0  0  0  0
  -31.4974  -18.2303   26.8619 C   0  0  0  0  0  0  0  0  0  0  0  0
  -30.3211  -20.3224   27.6508 C   0  0  0  0  0  0  0  0  0  0  0  0
  -31.6808  -17.2436   25.7075 C   0  0  0  0  0  0  0  0  0  0  0  0
  -29.3754  -21.4628   27.2622 C   0  0  0  0  0  0  0  0  0  0  0  0
  -32.6171  -16.0986   26.1001 C   0  0  0  0  0  0  0  0  0  0  0  0
  -32.9347  -13.3574   20.7551 C   0  0  0  0  0  0  0  0  0  0  0  0
  -32.7127  -15.7676   20.2782 C   0  0  0  0  0  0  0  0  0  0  0  0
  -29.1769  -22.4594   28.3978 C   0  0  0  0  0  0  0  0  0  1  0  0
  -27.9481  -30.8062   26.1688 C   0  0  1  0  0  0  0  0  0  0  0  0
  -31.2691  -31.1161   24.3676 C   0  0  2  0  0  0  0  0  0  0  0  0
  -26.7036  -31.6024   25.6844 C   0  0  0  0  0  0  0  0  0  0  0  0
  -32.1053  -13.9317   25.0523 N   0  0  0  0  0  0  0  0  0  0  0  0
  -25.7740  -11.4503   20.3609 N   0  0  0  0  0  0  0  0  0  0  0  0
  -32.7710  -15.0972   24.9842 N   0  0  0  0  0  0  0  0  0  0  0  0
  -26.2430  -12.6984   20.1926 N   0  0  0  0  0  0  0  0  0  0  0  0
  -28.0945  -29.6474   28.3505 N   0  0  0  0  0  0  0  0  0  0  0  0
  -30.0240  -13.2072   20.4276 N   0  0  0  0  0  0  0  0  0  0  0  0
  -25.6379  -14.9823   20.3614 N   0  0  0  0  0  0  0  0  0  0  0  0
  -21.8787  -12.8134   21.6107 N   0  0  0  0  0  0  0  0  0  0  0  0
  -26.4060  -29.6184   31.5823 N   0  0  0  0  0  0  0  0  0  0  0  0
  -29.2086  -31.2566   25.5887 N   0  0  0  0  0  0  0  0  0  0  0  0
  -32.0510  -14.4831   20.4581 N   0  0  0  0  0  0  0  0  0  0  0  0
  -32.4233  -30.1738   24.3392 N   0  3  0  0  0  0  0  0  0  0  0  0
  -22.8078  -14.8813   21.2653 O   0  0  0  0  0  0  0  0  0  0  0  0
  -25.7537  -29.4293   29.3549 O   0  0  0  0  0  0  0  0  0  0  0  0
  -28.2925  -31.9663   28.2089 O   0  0  0  0  0  0  0  0  0  0  0  0
  -29.7920  -29.2234   24.6384 O   0  0  0  0  0  0  0  0  0  0  0  0
  -30.0105  -15.4668   20.8780 O   0  0  0  0  0  0  0  0  0  0  0  0
  -21.2049   -7.2911   21.9014 O   0  0  0  0  0  0  0  0  0  0  0  0
  -28.2813  -23.4922   27.9883 O   0  0  0  0  0  0  0  0  0  1  0  0
  -23.3255   -3.1707   24.8897 F   0  0  0  0  0  0  0  0  0  0  0  0
  -20.0882   -6.5780   24.3278 F   0  0  0  0  0  0  0  0  0  0  0  0
  1  2  1  0  0  0  0
  1  5  2  0  0  0  0
  2  6  2  0  0  0  0
  3  8  2  0  0  0  0
  3 16  1  0  0  0  0
  4  9  1  0  0  0  0
  4 16  2  0  0  0  0
  5 18  1  0  0  0  0
  6 20  1  0  0  0  0
  7 10  2  0  0  0  0
  7 19  1  0  0  0  0
  8 23  1  0  0  0  0
  9 23  2  0  0  0  0
 10 24  1  0  0  0  0
 11 12  2  0  0  0  0
 11 25  1  0  0  0  0
 12 26  1  0  0  0  0
 13 21  1  0  0  0  0
 13 24  2  0  0  0  0
 14 26  2  0  0  0  0
 14 27  1  0  0  0  0
 15 22  1  0  0  0  0
 15 69  2  0  0  0  0
 16 28  1  0  0  0  0
 17 28  1  0  0  0  0
 17 30  2  0  0  0  0
 17 31  1  0  0  0  0
 18 20  2  0  0  0  0
 18 36  1  0  0  0  0
 19 21  2  0  0  0  0
 19 37  1  0  0  0  0
 20 45  1  0  0  0  0
 21 38  1  0  0  0  0
 22 29  2  0  0  0  0
 22 55  1  0  0  0  0
 23 86  1  0  0  0  0
 24 87  1  0  0  0  0
 25 27  2  0  0  0  0
 25 86  1  0  0  0  0
 26 88  1  0  0  0  0
 27 89  1  0  0  0  0
 28 70  2  0  0  0  0
 29 48  1  0  0  0  0
 29 71  1  0  0  0  0
 30 72  1  0  0  0  0
 30 75  1  0  0  0  0
 31 76  1  0  0  0  0
 31 81  2  0  0  0  0
 32 46  1  0  0  0  0
 32 77  1  0  0  0  0
 32 82  2  0  0  0  0
 33 66  1  0  0  0  0
 33 73  1  0  0  0  0
 33 83  2  0  0  0  0
 34 67  1  0  0  0  0
 34 78  1  0  0  0  0
 34 84  2  0  0  0  0
 35 74  1  0  0  0  0
 35 79  1  0  0  0  0
 35 85  2  0  0  0  0
 36 39  1  0  0  0  0
 37 46  1  0  0  0  0
 38 73  1  0  0  0  0
 39 41  1  0  0  0  0
 40 42  1  0  0  0  0
 40 43  1  0  0  0  0
 41 45  1  0  0  0  0
 42 47  1  0  0  0  0
 43 74  1  0  0  0  0
 44 47  1  0  0  0  0
 44 74  1  0  0  0  0
 45 77  1  0  0  0  0
 46 73  1  0  0  0  0
 47 72  1  0  0  0  0
 49 56  1  0  0  0  0
 50 67  1  0  0  0  0
 51 68  1  0  0  0  0
 52 68  1  0  0  0  0
 53 68  1  0  0  0  0
 54 80  1  0  0  0  0
 55 63  1  0  0  0  0
 56 64  1  0  0  0  0
 57 58  1  0  0  0  0
 57 59  1  0  0  0  0
 58 60  1  0  0  0  0
 59 61  1  0  0  0  0
 60 62  1  0  0  0  0
 61 65  1  0  0  0  0
 62 71  1  0  0  0  0
 63 79  1  0  0  0  0
 64 79  1  0  0  0  0
 65 87  1  0  0  0  0
 66 68  1  0  0  0  0
 66 78  1  0  0  0  0
 67 80  1  0  0  0  0
 69 71  1  0  0  0  0
 70 72  1  0  0  0  0
M  CHG  1  80   1
M  ISO  4  35 100  65 101  79 100  87 101
M  END
> <Batch ID>
0051

> <Smiles>
CCC[100N:0](CCc1cnn(CCCCCC[101CH2:1][101O:1]c2ccc3c(c2)CN(C(=O)C(NC(=O)C(C)NC)C(C)(C)C)C(C(=O)NC2CCCc4ccccc42)C3)c1C)[100C:0](=O)N1CCCC(n2nc(-c3ccc(Oc4ccc(F)cc4F)cc3)c(C(N)=O)c2N)C1

> <Shape>
0.197

> <Color>
0.186

> <Negative vol penalty>
0.000

$$$$

  -OEChem-04052317333D

 85 93  0     1  0  0  0  0  0999 V2000
  -20.9417  -32.8844   26.0391 C   0  0  0  0  0  0  0  0  0  0  0  0
  -22.1580  -32.3594   25.6143 C   0  0  0  0  0  0  0  0  0  0  0  0
  -24.8242  -13.6034   21.5968 C   0  0  0  0  0  0  0  0  0  0  0  0
  -25.8552  -13.6192   19.4119 C   0  0  0  0  0  0  0  0  0  0  0  0
  -19.7550  -32.2108   25.7530 C   0  0  0  0  0  0  0  0  0  0  0  0
  -22.1883  -31.1598   24.9039 C   0  0  0  0  0  0  0  0  0  0  0  0
  -26.0617  -29.6387   20.4107 C   0  0  0  0  0  0  0  0  0  0  0  0
  -24.8504  -12.2088   21.5991 C   0  0  0  0  0  0  0  0  0  0  0  0
  -25.8815  -12.2246   19.4142 C   0  0  0  0  0  0  0  0  0  0  0  0
  -27.2299  -28.8778   20.3969 C   0  0  0  0  0  0  0  0  0  0  0  0
  -24.3180   -8.6368   22.0243 C   0  0  0  0  0  0  0  0  0  0  0  0
  -23.1691   -7.9657   22.4431 C   0  0  0  0  0  0  0  0  0  0  0  0
  -25.9576  -26.9481   19.7065 C   0  0  0  0  0  0  0  0  0  0  0  0
  -21.9113   -9.0081   20.6631 C   0  0  0  0  0  0  0  0  0  0  0  0
  -29.7795  -21.6248   18.3052 C   0  0  0  0  0  0  0  0  0  0  0  0
  -28.3378  -21.5635   19.9644 C   0  0  0  0  0  0  0  0  0  0  0  0
  -25.3266  -14.3086   20.5031 C   0  0  0  0  0  0  0  0  0  0  0  0
  -26.2976  -16.6195   20.9771 C   0  0  0  0  0  0  0  0  0  0  0  0
  -19.7699  -31.0073   25.0304 C   0  0  0  0  0  0  0  0  0  0  0  0
  -24.8290  -29.0564   20.0826 C   0  0  0  0  0  0  0  0  0  0  0  0
  -21.0007  -30.4688   24.6090 C   0  0  0  0  0  0  0  0  0  0  0  0
  -24.7756  -27.7044   19.7144 C   0  0  0  0  0  0  0  0  0  0  0  0
  -28.6177  -20.9708   18.7574 C   0  0  0  0  0  0  0  0  0  0  0  0
  -25.3791  -11.5194   20.5078 C   0  0  0  0  0  0  0  0  0  0  0  0
  -27.1775  -27.5316   20.0475 C   0  0  0  0  0  0  0  0  0  0  0  0
  -24.2635   -9.4936   20.9249 C   0  0  0  0  0  0  0  0  0  0  0  0
  -21.9658   -8.1513   21.7625 C   0  0  0  0  0  0  0  0  0  0  0  0
  -23.0601   -9.6793   20.2443 C   0  0  0  0  0  0  0  0  0  0  0  0
  -25.2992  -15.7492   20.4999 C   0  0  0  0  0  0  0  0  0  0  0  0
  -25.7950  -17.8770   20.7481 C   0  0  0  0  0  0  0  0  0  0  0  0
  -27.5659  -16.3181   21.5739 C   0  0  0  0  0  0  0  0  0  0  0  0
  -22.0910  -28.5810   21.6257 C   0  0  0  0  0  0  0  0  0  0  0  0
  -21.0855  -27.5423   18.7219 C   0  0  0  0  0  0  0  0  0  0  0  0
  -21.9697  -26.8413   15.7830 C   0  0  0  0  0  0  0  0  0  0  0  0
  -23.2600  -21.2919   16.9759 C   0  0  0  0  0  0  0  0  0  0  0  0
  -18.4654  -30.2910   24.7861 C   0  0  0  0  0  0  0  0  0  0  0  0
  -23.5819  -29.8973   20.0764 C   0  0  0  0  0  0  0  0  0  0  0  0
  -23.4803  -27.0367   19.3341 C   0  0  0  0  0  0  0  0  0  0  0  0
  -18.5531  -29.2179   23.7039 C   0  0  0  0  0  0  0  0  0  0  0  0
  -21.1786  -19.3983   19.3808 C   0  0  0  0  0  0  0  0  0  0  0  0
  -19.7893  -28.3490   23.9127 C   0  0  0  0  0  0  0  0  0  0  0  0
  -22.1359  -18.3109   19.8658 C   0  0  0  0  0  0  0  0  0  0  0  0
  -21.5120  -19.8570   17.9645 C   0  0  0  0  0  0  0  0  0  0  0  0
  -23.8791  -19.2138   18.2764 C   0  0  0  0  0  0  0  0  0  0  0  0
  -21.0726  -29.1828   23.8146 C   0  0  1  0  0  0  0  0  0  0  0  0
  -22.3056  -29.0745   20.2228 C   0  0  1  0  0  0  0  0  0  0  0  0
  -23.5993  -18.7624   19.7177 C   0  0  2  0  0  0  0  0  0  0  0  0
  -25.4064  -25.2285   15.8176 C   0  0  0  0  0  0  0  0  0  0  0  0
  -21.6356  -25.8426   13.5052 C   0  0  0  0  0  0  0  0  0  0  0  0
  -20.1924  -24.9663   20.0918 C   0  0  0  0  0  0  0  0  0  0  0  0
  -20.0580  -23.8941   17.8334 C   0  0  0  0  0  0  0  0  0  0  0  0
  -18.5977  -25.8424   18.3760 C   0  0  0  0  0  0  0  0  0  0  0  0
  -22.3636  -29.4551   14.4518 C   0  0  0  0  0  0  0  0  0  0  0  0
  -27.8682  -19.8959   18.0880 C   0  0  0  0  0  0  0  0  0  0  0  0
  -25.0126  -24.0764   16.7315 C   0  0  0  0  0  0  0  0  0  0  0  0
  -26.7429  -20.3731   17.1352 C   0  0  0  0  0  0  0  0  0  0  0  0
  -29.4784  -24.9057   20.9656 C   0  0  0  0  0  0  0  0  0  0  0  0
  -29.4457  -23.4222   21.3397 C   0  0  0  0  0  0  0  0  0  0  0  0
  -25.0192  -22.7297   16.0179 C   0  0  0  0  0  0  0  0  0  0  0  0
  -25.6399  -21.1715   17.8268 C   0  0  0  0  0  0  0  0  0  0  0  0
  -28.1855  -25.3954   20.3237 C   0  0  0  0  0  0  0  0  0  1  0  0
  -21.0716  -26.2120   18.0082 C   0  0  1  0  0  0  0  0  0  0  0  0
  -21.5335  -27.1014   14.3524 C   0  0  2  0  0  0  0  0  0  0  0  0
  -20.0042  -25.2405   18.5864 C   0  0  0  0  0  0  0  0  0  0  0  0
  -30.2081  -22.5613   19.1557 N   0  0  0  0  0  0  0  0  0  0  0  0
  -24.2422  -16.3989   20.0053 N   0  0  0  0  0  0  0  0  0  0  0  0
  -29.3108  -22.5002   20.1543 N   0  0  0  0  0  0  0  0  0  0  0  0
  -24.5736  -17.6908   20.1705 N   0  0  0  0  0  0  0  0  0  0  0  0
  -22.2874  -27.8994   19.3493 N   0  0  0  0  0  0  0  0  0  0  0  0
  -22.9191  -20.2393   17.8411 N   0  0  0  0  0  0  0  0  0  0  0  0
  -26.2831  -19.1129   20.9866 N   0  0  0  0  0  0  0  0  0  0  0  0
  -27.9258  -14.9731   21.7349 N   0  0  0  0  0  0  0  0  0  0  0  0
  -21.3909  -29.4596   22.4303 N   0  0  0  0  0  0  0  0  0  0  0  0
  -20.9019  -26.5111   16.5905 N   0  0  0  0  0  0  0  0  0  0  0  0
  -24.6174  -21.6372   16.8926 N   0  0  0  0  0  0  0  0  0  0  0  0
  -22.3873  -28.1547   13.7339 N   0  3  0  0  0  0  0  0  0  0  0  0
  -28.3495  -17.2147   21.9683 O   0  0  0  0  0  0  0  0  0  0  0  0
  -22.5270  -27.4836   21.9535 O   0  0  0  0  0  0  0  0  0  0  0  0
  -20.0696  -28.2420   18.7165 O   0  0  0  0  0  0  0  0  0  0  0  0
  -23.1410  -26.9193   16.1468 O   0  0  0  0  0  0  0  0  0  0  0  0
  -22.3990  -21.8954   16.3229 O   0  0  0  0  0  0  0  0  0  0  0  0
  -25.4051  -10.1585   20.5098 O   0  0  0  0  0  0  0  0  0  0  0  0
  -28.3161  -26.7865   20.0339 O   0  0  0  0  0  0  0  0  0  1  0  0
  -20.8630   -7.5056   22.1639 F   0  0  0  0  0  0  0  0  0  0  0  0
  -23.0019  -10.5002   19.1868 F   0  0  0  0  0  0  0  0  0  0  0  0
  1  2  1  0  0  0  0
  1  5  2  0  0  0  0
  2  6  2  0  0  0  0
  3  8  2  0  0  0  0
  3 17  1  0  0  0  0
  4  9  1  0  0  0  0
  4 17  2  0  0  0  0
  5 19  1  0  0  0  0
  6 21  1  0  0  0  0
  7 10  2  0  0  0  0
  7 20  1  0  0  0  0
  8 24  1  0  0  0  0
  9 24  2  0  0  0  0
 10 25  1  0  0  0  0
 11 12  2  0  0  0  0
 11 26  1  0  0  0  0
 12 27  1  0  0  0  0
 13 22  1  0  0  0  0
 13 25  2  0  0  0  0
 14 27  2  0  0  0  0
 14 28  1  0  0  0  0
 15 23  1  0  0  0  0
 15 65  2  0  0  0  0
 16 23  2  0  0  0  0
 16 67  1  0  0  0  0
 17 29  1  0  0  0  0
 18 29  1  0  0  0  0
 18 30  2  0  0  0  0
 18 31  1  0  0  0  0
 19 21  2  0  0  0  0
 19 36  1  0  0  0  0
 20 22  2  0  0  0  0
 20 37  1  0  0  0  0
 21 45  1  0  0  0  0
 22 38  1  0  0  0  0
 23 54  1  0  0  0  0
 24 82  1  0  0  0  0
 25 83  1  0  0  0  0
 26 28  2  0  0  0  0
 26 82  1  0  0  0  0
 27 84  1  0  0  0  0
 28 85  1  0  0  0  0
 29 66  2  0  0  0  0
 30 68  1  0  0  0  0
 30 71  1  0  0  0  0
 31 72  1  0  0  0  0
 31 77  2  0  0  0  0
 32 46  1  0  0  0  0
 32 73  1  0  0  0  0
 32 78  2  0  0  0  0
 33 62  1  0  0  0  0
 33 69  1  0  0  0  0
 33 79  2  0  0  0  0
 34 63  1  0  0  0  0
 34 74  1  0  0  0  0
 34 80  2  0  0  0  0
 35 70  1  0  0  0  0
 35 75  1  0  0  0  0
 35 81  2  0  0  0  0
 36 39  1  0  0  0  0
 37 46  1  0  0  0  0
 38 69  1  0  0  0  0
 39 41  1  0  0  0  0
 40 42  1  0  0  0  0
 40 43  1  0  0  0  0
 41 45  1  0  0  0  0
 42 47  1  0  0  0  0
 43 70  1  0  0  0  0
 44 47  1  0  0  0  0
 44 70  1  0  0  0  0
 45 73  1  0  0  0  0
 46 69  1  0  0  0  0
 47 68  1  0  0  0  0
 48 55  1  0  0  0  0
 49 63  1  0  0  0  0
 50 64  1  0  0  0  0
 51 64  1  0  0  0  0
 52 64  1  0  0  0  0
 53 76  1  0  0  0  0
 54 56  1  0  0  0  0
 55 59  1  0  0  0  0
 56 60  1  0  0  0  0
 57 58  1  0  0  0  0
 57 61  1  0  0  0  0
 58 67  1  0  0  0  0
 59 75  1  0  0  0  0
 60 75  1  0  0  0  0
 61 83  1  0  0  0  0
 62 64  1  0  0  0  0
 62 74  1  0  0  0  0
 63 76  1  0  0  0  0
 65 67  1  0  0  0  0
 66 68  1  0  0  0  0
M  CHG  1  76   1
M  ISO  4  35 100  61 101  75 100  83 101
M  END
> <Batch ID>
0051

> <Smiles>
CCC[100N:0](CCCc1cnn(CC[101CH2:1][101O:1]c2ccc3c(c2)CN(C(=O)C(NC(=O)C(C)NC)C(C)(C)C)C(C(=O)NC2CCCc4ccccc42)C3)c1)[100C:0](=O)N1CCCC(n2nc(-c3ccc(Oc4ccc(F)cc4F)cc3)c(C(N)=O)c2N)C1

> <Shape>
0.221

> <Color>
0.100

> <Negative vol penalty>
0.000

$$$$

  -OEChem-04052317333D

 85 93  0     1  0  0  0  0  0999 V2000
  -27.9380  -30.9458   27.9706 C   0  0  0  0  0  0  0  0  0  0  0  0
  -27.7996  -29.8791   27.0884 C   0  0  0  0  0  0  0  0  0  0  0  0
  -24.1885   -9.7089   21.7287 C   0  0  0  0  0  0  0  0  0  0  0  0
  -24.7865  -11.0448   23.6509 C   0  0  0  0  0  0  0  0  0  0  0  0
  -26.9426  -31.9190   28.0474 C   0  0  0  0  0  0  0  0  0  0  0  0
  -26.6651  -29.7843   26.2832 C   0  0  0  0  0  0  0  0  0  0  0  0
  -27.7782  -28.5821   21.4915 C   0  0  0  0  0  0  0  0  0  0  0  0
  -23.8192   -8.6610   22.5718 C   0  0  0  0  0  0  0  0  0  0  0  0
  -24.4171   -9.9968   24.4941 C   0  0  0  0  0  0  0  0  0  0  0  0
  -28.0722  -27.2462   21.2221 C   0  0  0  0  0  0  0  0  0  0  0  0
  -21.1808   -7.8449   24.5227 C   0  0  0  0  0  0  0  0  0  0  0  0
  -19.9781   -7.1911   24.2555 C   0  0  0  0  0  0  0  0  0  0  0  0
  -25.8299  -26.9265   20.3920 C   0  0  0  0  0  0  0  0  0  0  0  0
  -21.1731   -5.1114   23.9656 C   0  0  0  0  0  0  0  0  0  0  0  0
  -29.1282  -22.1263   21.1727 C   0  0  0  0  0  0  0  0  0  0  0  0
  -24.6723  -10.9009   22.2682 C   0  0  0  0  0  0  0  0  0  0  0  0
  -24.2342  -13.0269   20.9282 C   0  0  0  0  0  0  0  0  0  0  0  0
  -25.7997  -31.8413   27.2359 C   0  0  0  0  0  0  0  0  0  0  0  0
  -26.5024  -29.0983   21.2229 C   0  0  0  0  0  0  0  0  0  0  0  0
  -25.6528  -30.7566   26.3503 C   0  0  0  0  0  0  0  0  0  0  0  0
  -25.5231  -28.2699   20.6566 C   0  0  0  0  0  0  0  0  0  0  0  0
  -23.9335   -8.8048   23.9545 C   0  0  0  0  0  0  0  0  0  0  0  0
  -27.0971  -26.4174   20.6749 C   0  0  0  0  0  0  0  0  0  0  0  0
  -22.3798   -7.1321   24.5113 C   0  0  0  0  0  0  0  0  0  0  0  0
  -19.9742   -5.8243   23.9770 C   0  0  0  0  0  0  0  0  0  0  0  0
  -22.3759   -5.7653   24.2328 C   0  0  0  0  0  0  0  0  0  0  0  0
  -25.0545  -11.9836   21.3978 C   0  0  0  0  0  0  0  0  0  0  0  0
  -28.8227  -23.2153   20.3344 C   0  0  0  0  0  0  0  0  0  0  0  0
  -29.1168  -21.0362   20.3373 C   0  0  0  0  0  0  0  0  0  0  0  0
  -25.0638  -13.7885   20.1419 C   0  0  0  0  0  0  0  0  0  0  0  0
  -22.8465  -13.2846   21.1802 C   0  0  0  0  0  0  0  0  0  0  0  0
  -24.1819  -30.3722   22.9825 C   0  0  0  0  0  0  0  0  0  0  0  0
  -22.8170  -30.9128   20.0899 C   0  0  0  0  0  0  0  0  0  0  0  0
  -22.5656  -30.0484   16.7980 C   0  0  0  0  0  0  0  0  0  0  0  0
  -29.9579  -16.3201   19.2564 C   0  0  0  0  0  0  0  0  0  0  0  0
  -24.7284  -32.8918   27.3882 C   0  0  0  0  0  0  0  0  0  0  0  0
  -26.2093  -30.5484   21.4945 C   0  0  0  0  0  0  0  0  0  0  0  0
  -24.1441  -28.7806   20.3308 C   0  0  0  0  0  0  0  0  0  0  0  0
  -23.7325  -32.9184   26.2316 C   0  0  0  0  0  0  0  0  0  0  0  0
  -29.7303  -12.8665   18.4213 C   0  0  0  0  0  0  0  0  0  0  0  0
  -23.2702  -31.5049   25.8925 C   0  0  0  0  0  0  0  0  0  0  0  0
  -28.4297  -12.4140   19.0875 C   0  0  0  0  0  0  0  0  0  0  0  0
  -30.4710  -13.8967   19.2711 C   0  0  0  0  0  0  0  0  0  0  0  0
  -28.3657  -14.6156   20.3316 C   0  0  0  0  0  0  0  0  0  0  0  0
  -24.4482  -30.6322   25.4427 C   0  0  1  0  0  0  0  0  0  0  0  0
  -24.7202  -30.8365   21.6588 C   0  0  1  0  0  0  0  0  0  0  0  0
  -27.5554  -13.6182   19.4860 C   0  0  2  0  0  0  0  0  0  0  0  0
  -21.3383  -30.6467   14.6925 C   0  0  0  0  0  0  0  0  0  0  0  0
  -28.3890  -18.9237   21.6429 C   0  0  0  0  0  0  0  0  0  0  0  0
  -30.7893  -19.3849   21.2168 C   0  0  0  0  0  0  0  0  0  0  0  0
  -20.3322  -29.4832   21.1349 C   0  0  0  0  0  0  0  0  0  0  0  0
  -19.5443  -29.2707   18.7680 C   0  0  0  0  0  0  0  0  0  0  0  0
  -19.8642  -31.5299   19.7761 C   0  0  0  0  0  0  0  0  0  0  0  0
  -27.5673  -19.7074   18.0331 C   0  0  0  0  0  0  0  0  0  0  0  0
  -30.0249  -20.0495   17.5610 C   0  0  0  0  0  0  0  0  0  0  0  0
  -28.3322  -21.6144   16.6364 C   0  0  0  0  0  0  0  0  0  0  0  0
  -25.0746  -30.7647   15.4014 C   0  0  0  0  0  0  0  0  0  0  0  0
  -28.6986  -24.6598   20.7207 C   0  0  0  0  0  0  0  0  0  1  0  0
  -29.2991  -18.7123   19.3086 C   0  0  0  0  0  0  0  0  0  0  0  0
  -21.8905  -30.1388   19.1835 C   0  0  1  0  0  0  0  0  0  0  0  0
  -22.5833  -30.8864   15.5324 C   0  0  2  0  0  0  0  0  0  0  0  0
  -29.3600  -19.6072   20.6066 C   0  0  0  0  0  0  0  0  0  0  0  0
  -20.4331  -30.0952   19.7234 C   0  0  0  0  0  0  0  0  0  0  0  0
  -28.6889  -20.7583   17.8768 C   0  0  0  0  0  0  0  0  0  0  0  0
  -26.3088  -12.0712   20.9473 N   0  0  0  0  0  0  0  0  0  0  0  0
  -28.6312  -22.8501   19.0639 N   0  0  0  0  0  0  0  0  0  0  0  0
  -28.8171  -21.5196   19.0977 N   0  0  0  0  0  0  0  0  0  0  0  0
  -26.2830  -13.1787   20.1863 N   0  0  0  0  0  0  0  0  0  0  0  0
  -23.9042  -30.2040   20.6204 N   0  0  0  0  0  0  0  0  0  0  0  0
  -29.5867  -15.0133   19.6133 N   0  0  0  0  0  0  0  0  0  0  0  0
  -24.8621  -14.9136   19.4237 N   0  0  0  0  0  0  0  0  0  0  0  0
  -22.1433  -12.4020   22.0113 N   0  0  0  0  0  0  0  0  0  0  0  0
  -24.8105  -30.9380   24.0753 N   0  0  0  0  0  0  0  0  0  0  0  0
  -22.0197  -30.7383   17.8598 N   0  0  0  0  0  0  0  0  0  0  0  0
  -29.0601  -17.3190   19.6127 N   0  0  0  0  0  0  0  0  0  0  0  0
  -23.7785  -30.5529   14.7070 N   0  3  0  0  0  0  0  0  0  0  0  0
  -22.2438  -14.2592   20.6699 O   0  0  0  0  0  0  0  0  0  0  0  0
  -23.2631  -29.5617   23.0104 O   0  0  0  0  0  0  0  0  0  0  0  0
  -22.5887  -32.1043   20.3131 O   0  0  0  0  0  0  0  0  0  0  0  0
  -22.9900  -28.8957   16.8397 O   0  0  0  0  0  0  0  0  0  0  0  0
  -31.0089  -16.5770   18.6595 O   0  0  0  0  0  0  0  0  0  0  0  0
  -23.5730   -7.7825   24.7775 O   0  0  0  0  0  0  0  0  0  0  0  0
  -27.3812  -25.1128   20.4115 O   0  0  0  0  0  0  0  0  0  1  0  0
  -18.8189   -5.1962   23.7219 F   0  0  0  0  0  0  0  0  0  0  0  0
  -23.5244   -5.0749   24.2216 F   0  0  0  0  0  0  0  0  0  0  0  0
  1  2  1  0  0  0  0
  1  5  2  0  0  0  0
  2  6  2  0  0  0  0
  3  8  2  0  0  0  0
  3 16  1  0  0  0  0
  4  9  1  0  0  0  0
  4 16  2  0  0  0  0
  5 18  1  0  0  0  0
  6 20  1  0  0  0  0
  7 10  2  0  0  0  0
  7 19  1  0  0  0  0
  8 22  1  0  0  0  0
  9 22  2  0  0  0  0
 10 23  1  0  0  0  0
 11 12  2  0  0  0  0
 11 24  1  0  0  0  0
 12 25  1  0  0  0  0
 13 21  1  0  0  0  0
 13 23  2  0  0  0  0
 14 25  2  0  0  0  0
 14 26  1  0  0  0  0
 15 28  1  0  0  0  0
 15 29  2  0  0  0  0
 16 27  1  0  0  0  0
 17 27  1  0  0  0  0
 17 30  2  0  0  0  0
 17 31  1  0  0  0  0
 18 20  2  0  0  0  0
 18 36  1  0  0  0  0
 19 21  2  0  0  0  0
 19 37  1  0  0  0  0
 20 45  1  0  0  0  0
 21 38  1  0  0  0  0
 22 82  1  0  0  0  0
 23 83  1  0  0  0  0
 24 26  2  0  0  0  0
 24 82  1  0  0  0  0
 25 84  1  0  0  0  0
 26 85  1  0  0  0  0
 27 65  2  0  0  0  0
 28 58  1  0  0  0  0
 28 66  2  0  0  0  0
 29 62  1  0  0  0  0
 29 67  1  0  0  0  0
 30 68  1  0  0  0  0
 30 71  1  0  0  0  0
 31 72  1  0  0  0  0
 31 77  2  0  0  0  0
 32 46  1  0  0  0  0
 32 73  1  0  0  0  0
 32 78  2  0  0  0  0
 33 60  1  0  0  0  0
 33 69  1  0  0  0  0
 33 79  2  0  0  0  0
 34 61  1  0  0  0  0
 34 74  1  0  0  0  0
 34 80  2  0  0  0  0
 35 70  1  0  0  0  0
 35 75  1  0  0  0  0
 35 81  2  0  0  0  0
 36 39  1  0  0  0  0
 37 46  1  0  0  0  0
 38 69  1  0  0  0  0
 39 41  1  0  0  0  0
 40 42  1  0  0  0  0
 40 43  1  0  0  0  0
 41 45  1  0  0  0  0
 42 47  1  0  0  0  0
 43 70  1  0  0  0  0
 44 47  1  0  0  0  0
 44 70  1  0  0  0  0
 45 73  1  0  0  0  0
 46 69  1  0  0  0  0
 47 68  1  0  0  0  0
 48 61  1  0  0  0  0
 49 62  1  0  0  0  0
 50 62  1  0  0  0  0
 51 63  1  0  0  0  0
 52 63  1  0  0  0  0
 53 63  1  0  0  0  0
 54 64  1  0  0  0  0
 55 64  1  0  0  0  0
 56 64  1  0  0  0  0
 57 76  1  0  0  0  0
 58 83  1  0  0  0  0
 59 62  1  0  0  0  0
 59 75  1  0  0  0  0
 60 63  1  0  0  0  0
 60 74  1  0  0  0  0
 61 76  1  0  0  0  0
 64 67  1  0  0  0  0
 65 68  1  0  0  0  0
 66 67  1  0  0  0  0
M  CHG  1  76   1
M  ISO  4  35 100  58 101  75 100  83 101
M  END
> <Batch ID>
0051

> <Smiles>
CNC(C)C(=O)NC(C(=O)N1Cc2cc([101O:1][101CH2:1]c3cc(C(C)(C)C[100NH:0][100C:0](=O)N4CCCC(n5nc(-c6ccc(Oc7ccc(F)cc7F)cc6)c(C(N)=O)c5N)C4)n(C(C)(C)C)n3)ccc2CC1C(=O)NC1CCCc2ccccc21)C(C)(C)C

> <Shape>
0.309

> <Color>
0.132

> <Negative vol penalty>
0.000

$$$$

  -OEChem-04052317333D

 82 90  0     1  0  0  0  0  0999 V2000
  -26.7577  -30.1711   28.2728 C   0  0  0  0  0  0  0  0  0  0  0  0
  -26.3140  -28.8731   28.0411 C   0  0  0  0  0  0  0  0  0  0  0  0
  -22.7345  -10.2042   20.2188 C   0  0  0  0  0  0  0  0  0  0  0  0
  -24.3886   -9.5735   21.8630 C   0  0  0  0  0  0  0  0  0  0  0  0
  -26.9864  -31.0305   27.1990 C   0  0  0  0  0  0  0  0  0  0  0  0
  -26.0977  -28.4341   26.7354 C   0  0  0  0  0  0  0  0  0  0  0  0
  -27.9882  -23.8106   25.9021 C   0  0  0  0  0  0  0  0  0  0  0  0
  -22.0484   -9.0123   20.4519 C   0  0  0  0  0  0  0  0  0  0  0  0
  -23.7025   -8.3817   22.0961 C   0  0  0  0  0  0  0  0  0  0  0  0
  -27.2536  -22.7266   26.3806 C   0  0  0  0  0  0  0  0  0  0  0  0
  -22.3347   -5.7612   19.5730 C   0  0  0  0  0  0  0  0  0  0  0  0
  -21.8889   -5.0432   18.4634 C   0  0  0  0  0  0  0  0  0  0  0  0
  -26.3661  -22.3589   24.1678 C   0  0  0  0  0  0  0  0  0  0  0  0
  -19.6117   -5.2525   19.2427 C   0  0  0  0  0  0  0  0  0  0  0  0
  -27.2240  -16.3912   24.1078 C   0  0  0  0  0  0  0  0  0  0  0  0
  -26.8403  -17.5662   21.7415 C   0  0  0  0  0  0  0  0  0  0  0  0
  -23.9047  -10.4848   20.9243 C   0  0  0  0  0  0  0  0  0  0  0  0
  -24.1262  -13.0251   20.8527 C   0  0  0  0  0  0  0  0  0  0  0  0
  -26.7820  -30.5987   25.8790 C   0  0  0  0  0  0  0  0  0  0  0  0
  -27.9087  -24.1843   24.5529 C   0  0  0  0  0  0  0  0  0  0  0  0
  -26.3226  -29.2889   25.6430 C   0  0  0  0  0  0  0  0  0  0  0  0
  -27.1027  -23.4465   23.6741 C   0  0  0  0  0  0  0  0  0  0  0  0
  -22.5324   -8.1011   21.3905 C   0  0  0  0  0  0  0  0  0  0  0  0
  -26.4401  -22.0023   25.5141 C   0  0  0  0  0  0  0  0  0  0  0  0
  -21.4189   -6.2247   20.5176 C   0  0  0  0  0  0  0  0  0  0  0  0
  -20.5274   -4.7889   18.2982 C   0  0  0  0  0  0  0  0  0  0  0  0
  -20.0575   -5.9704   20.3525 C   0  0  0  0  0  0  0  0  0  0  0  0
  -24.6142  -11.7155   20.6836 C   0  0  0  0  0  0  0  0  0  0  0  0
  -26.1087  -17.1640   23.8704 C   0  0  0  0  0  0  0  0  0  0  0  0
  -27.9560  -16.7941   21.9790 C   0  0  0  0  0  0  0  0  0  0  0  0
  -25.1780  -13.8324   20.4943 C   0  0  0  0  0  0  0  0  0  0  0  0
  -22.8374  -13.4720   21.2944 C   0  0  0  0  0  0  0  0  0  0  0  0
  -26.9486  -26.7854   22.9985 C   0  0  0  0  0  0  0  0  0  0  0  0
  -28.0903  -25.1890   20.4158 C   0  0  0  0  0  0  0  0  0  0  0  0
  -28.8881  -22.1984   18.9781 C   0  0  0  0  0  0  0  0  0  0  0  0
  -30.7506  -14.7964   21.0725 C   0  0  0  0  0  0  0  0  0  0  0  0
  -26.9975  -31.5788   24.7530 C   0  0  0  0  0  0  0  0  0  0  0  0
  -28.7281  -25.3396   24.0467 C   0  0  0  0  0  0  0  0  0  0  0  0
  -26.9983  -23.7944   22.2125 C   0  0  0  0  0  0  0  0  0  0  0  0
  -27.1031  -30.9171   23.3814 C   0  0  0  0  0  0  0  0  0  0  0  0
  -29.5582  -12.7507   18.2273 C   0  0  0  0  0  0  0  0  0  0  0  0
  -25.9921  -29.8882   23.1981 C   0  0  0  0  0  0  0  0  0  0  0  0
  -28.1510  -12.3532   18.6696 C   0  0  0  0  0  0  0  0  0  0  0  0
  -30.4824  -12.9842   19.4186 C   0  0  0  0  0  0  0  0  0  0  0  0
  -28.5507  -13.5708   20.8464 C   0  0  0  0  0  0  0  0  0  0  0  0
  -26.1002  -28.7679   24.2397 C   0  0  1  0  0  0  0  0  0  0  0  0
  -28.1737  -25.9481   22.7623 C   0  0  1  0  0  0  0  0  0  0  0  0
  -27.5818  -13.3734   19.6708 C   0  0  2  0  0  0  0  0  0  0  0  0
  -29.7636  -21.2098   16.8442 C   0  0  0  0  0  0  0  0  0  0  0  0
  -25.3710  -25.6235   19.1017 C   0  0  0  0  0  0  0  0  0  0  0  0
  -25.9683  -23.8486   17.4400 C   0  0  0  0  0  0  0  0  0  0  0  0
  -27.3284  -25.9353   17.5766 C   0  0  0  0  0  0  0  0  0  0  0  0
  -31.0766  -16.9892   22.1519 C   0  0  0  0  0  0  0  0  0  0  0  0
  -31.2519  -21.0538   20.3423 C   0  0  0  0  0  0  0  0  0  0  0  0
  -25.0728  -17.3645   24.9476 C   0  0  0  0  0  0  0  0  0  0  0  0
  -28.9786  -16.5958   20.9153 C   0  0  0  0  0  0  0  0  0  0  0  0
  -25.3379  -18.5800   25.8386 C   0  0  0  0  0  0  0  0  0  0  0  0
  -25.4574  -19.8848   25.0598 C   0  0  0  0  0  0  0  0  0  1  0  0
  -27.5108  -24.2140   19.4195 C   0  0  1  0  0  0  0  0  0  0  0  0
  -30.1231  -21.7414   18.2229 C   0  0  2  0  0  0  0  0  0  0  0  0
  -26.5449  -24.8997   18.4123 C   0  0  0  0  0  0  0  0  0  0  0  0
  -25.8966  -17.7651   22.6830 N   0  0  0  0  0  0  0  0  0  0  0  0
  -28.1679  -16.1926   23.1664 N   0  0  0  0  0  0  0  0  0  0  0  0
  -25.8776  -11.6879   20.2512 N   0  0  0  0  0  0  0  0  0  0  0  0
  -26.1924  -12.9901   20.1455 N   0  0  0  0  0  0  0  0  0  0  0  0
  -27.8139  -24.9362   21.7669 N   0  0  0  0  0  0  0  0  0  0  0  0
  -29.8981  -13.9247   20.3753 N   0  0  0  0  0  0  0  0  0  0  0  0
  -25.3249  -15.1735   20.4466 N   0  0  0  0  0  0  0  0  0  0  0  0
  -22.6357  -13.6782   22.6659 N   0  0  0  0  0  0  0  0  0  0  0  0
  -27.1456  -27.8365   23.8735 N   0  0  0  0  0  0  0  0  0  0  0  0
  -28.6468  -23.5437   18.7961 N   0  0  0  0  0  0  0  0  0  0  0  0
  -30.2277  -16.0462   21.4377 N   0  0  0  0  0  0  0  0  0  0  0  0
  -30.8205  -20.6610   18.9761 N   0  3  0  0  0  0  0  0  0  0  0  0
  -21.8879  -13.6663   20.4981 O   0  0  0  0  0  0  0  0  0  0  0  0
  -25.9024  -26.4998   22.4279 O   0  0  0  0  0  0  0  0  0  0  0  0
  -28.7693  -26.1358   20.0106 O   0  0  0  0  0  0  0  0  0  0  0  0
  -28.2035  -21.4372   19.6582 O   0  0  0  0  0  0  0  0  0  0  0  0
  -31.9158  -14.4797   21.3442 O   0  0  0  0  0  0  0  0  0  0  0  0
  -21.8630   -6.9381   21.6184 O   0  0  0  0  0  0  0  0  0  0  0  0
  -25.7215  -20.9442   25.9787 O   0  0  0  0  0  0  0  0  0  1  0  0
  -20.0994   -4.1007   17.2317 F   0  0  0  0  0  0  0  0  0  0  0  0
  -19.1728   -6.4142   21.2560 F   0  0  0  0  0  0  0  0  0  0  0  0
  1  2  1  0  0  0  0
  1  5  2  0  0  0  0
  2  6  2  0  0  0  0
  3  8  2  0  0  0  0
  3 17  1  0  0  0  0
  4  9  1  0  0  0  0
  4 17  2  0  0  0  0
  5 19  1  0  0  0  0
  6 21  1  0  0  0  0
  7 10  2  0  0  0  0
  7 20  1  0  0  0  0
  8 23  1  0  0  0  0
  9 23  2  0  0  0  0
 10 24  1  0  0  0  0
 11 12  2  0  0  0  0
 11 25  1  0  0  0  0
 12 26  1  0  0  0  0
 13 22  1  0  0  0  0
 13 24  2  0  0  0  0
 14 26  2  0  0  0  0
 14 27  1  0  0  0  0
 15 29  1  0  0  0  0
 15 63  2  0  0  0  0
 16 30  2  0  0  0  0
 16 62  1  0  0  0  0
 17 28  1  0  0  0  0
 18 28  1  0  0  0  0
 18 31  2  0  0  0  0
 18 32  1  0  0  0  0
 19 21  2  0  0  0  0
 19 37  1  0  0  0  0
 20 22  2  0  0  0  0
 20 38  1  0  0  0  0
 21 46  1  0  0  0  0
 22 39  1  0  0  0  0
 23 79  1  0  0  0  0
 24 80  1  0  0  0  0
 25 27  2  0  0  0  0
 25 79  1  0  0  0  0
 26 81  1  0  0  0  0
 27 82  1  0  0  0  0
 28 64  2  0  0  0  0
 29 55  1  0  0  0  0
 29 62  2  0  0  0  0
 30 56  1  0  0  0  0
 30 63  1  0  0  0  0
 31 65  1  0  0  0  0
 31 68  1  0  0  0  0
 32 69  1  0  0  0  0
 32 74  2  0  0  0  0
 33 47  1  0  0  0  0
 33 70  1  0  0  0  0
 33 75  2  0  0  0  0
 34 59  1  0  0  0  0
 34 66  1  0  0  0  0
 34 76  2  0  0  0  0
 35 60  1  0  0  0  0
 35 71  1  0  0  0  0
 35 77  2  0  0  0  0
 36 67  1  0  0  0  0
 36 72  1  0  0  0  0
 36 78  2  0  0  0  0
 37 40  1  0  0  0  0
 38 47  1  0  0  0  0
 39 66  1  0  0  0  0
 40 42  1  0  0  0  0
 41 43  1  0  0  0  0
 41 44  1  0  0  0  0
 42 46  1  0  0  0  0
 43 48  1  0  0  0  0
 44 67  1  0  0  0  0
 45 48  1  0  0  0  0
 45 67  1  0  0  0  0
 46 70  1  0  0  0  0
 47 66  1  0  0  0  0
 48 65  1  0  0  0  0
 49 60  1  0  0  0  0
 50 61  1  0  0  0  0
 51 61  1  0  0  0  0
 52 61  1  0  0  0  0
 53 72  1  0  0  0  0
 54 73  1  0  0  0  0
 55 57  1  0  0  0  0
 56 72  1  0  0  0  0
 57 58  1  0  0  0  0
 58 80  1  0  0  0  0
 59 61  1  0  0  0  0
 59 71  1  0  0  0  0
 60 73  1  0  0  0  0
 64 65  1  0  0  0  0
M  CHG  1  73   1
M  ISO  4  36 100  58 101  72 100  80 101
M  END
> <Batch ID>
0051

> <Smiles>
CNC(C)C(=O)NC(C(=O)N1Cc2cc([101O:1][101CH2:1]CCc3cnc(C[100N:0](C)[100C:0](=O)N4CCCC(n5nc(-c6ccc(Oc7ccc(F)cc7F)cc6)c(C(N)=O)c5N)C4)cn3)ccc2CC1C(=O)NC1CCCc2ccccc21)C(C)(C)C

> <Shape>
0.232

> <Color>
0.172

> <Negative vol penalty>
0.000

$$$$

  -OEChem-04052317333D

 89 97  0     1  0  0  0  0  0999 V2000
  -16.9399  -28.2778   23.9544 C   0  0  0  0  0  0  0  0  0  0  0  0
  -18.1090  -27.7939   23.3761 C   0  0  0  0  0  0  0  0  0  0  0  0
  -24.6227   -9.0123   21.8680 C   0  0  0  0  0  0  0  0  0  0  0  0
  -22.9738  -10.0840   20.4645 C   0  0  0  0  0  0  0  0  0  0  0  0
  -16.6981  -29.6504   23.9913 C   0  0  0  0  0  0  0  0  0  0  0  0
  -19.0365  -28.6825   22.8333 C   0  0  0  0  0  0  0  0  0  0  0  0
  -23.7984  -27.5585   24.1395 C   0  0  0  0  0  0  0  0  0  0  0  0
  -23.6066   -8.3456   22.5526 C   0  0  0  0  0  0  0  0  0  0  0  0
  -21.9577   -9.4172   21.1492 C   0  0  0  0  0  0  0  0  0  0  0  0
  -24.4149  -26.5100   23.4582 C   0  0  0  0  0  0  0  0  0  0  0  0
  -21.6208   -5.6538   22.0591 C   0  0  0  0  0  0  0  0  0  0  0  0
  -21.7960   -4.2940   22.3156 C   0  0  0  0  0  0  0  0  0  0  0  0
  -25.5664  -28.1034   22.0602 C   0  0  0  0  0  0  0  0  0  0  0  0
  -21.6439   -4.7221   24.6885 C   0  0  0  0  0  0  0  0  0  0  0  0
  -31.2359  -18.7518   21.4279 C   0  0  0  0  0  0  0  0  0  0  0  0
  -30.3679  -17.7055   19.6484 C   0  0  0  0  0  0  0  0  0  0  0  0
  -24.3062   -9.8816   20.8240 C   0  0  0  0  0  0  0  0  0  0  0  0
  -26.0420  -10.1272   18.9707 C   0  0  0  0  0  0  0  0  0  0  0  0
  -17.6276  -30.5567   23.4573 C   0  0  0  0  0  0  0  0  0  0  0  0
  -24.0533  -28.8894   23.7785 C   0  0  0  0  0  0  0  0  0  0  0  0
  -18.8063  -30.0684   22.8619 C   0  0  0  0  0  0  0  0  0  0  0  0
  -24.9537  -29.1671   22.7402 C   0  0  0  0  0  0  0  0  0  0  0  0
  -29.9138  -19.1268   21.3347 C   0  0  0  0  0  0  0  0  0  0  0  0
  -29.3647  -18.4650   20.2088 C   0  0  0  0  0  0  0  0  0  0  0  0
  -22.2742   -8.5480   22.1932 C   0  0  0  0  0  0  0  0  0  0  0  0
  -25.2968  -26.7823   22.4164 C   0  0  0  0  0  0  0  0  0  0  0  0
  -21.4571   -6.5478   23.1173 C   0  0  0  0  0  0  0  0  0  0  0  0
  -21.8075   -3.8281   23.6303 C   0  0  0  0  0  0  0  0  0  0  0  0
  -21.4687   -6.0819   24.4320 C   0  0  0  0  0  0  0  0  0  0  0  0
  -25.3553  -10.5710   20.1167 C   0  0  0  0  0  0  0  0  0  0  0  0
  -26.9327  -11.1350   18.6924 C   0  0  0  0  0  0  0  0  0  0  0  0
  -25.8883   -8.9126   18.2245 C   0  0  0  0  0  0  0  0  0  0  0  0
  -22.2878  -31.2924   22.6776 C   0  0  0  0  0  0  0  0  0  0  0  0
  -25.0317  -32.9764   23.0740 C   0  0  0  0  0  0  0  0  0  0  0  0
  -28.4370  -32.9556   23.2993 C   0  0  0  0  0  0  0  0  0  0  0  0
  -27.5708  -16.6858   18.0707 C   0  0  0  0  0  0  0  0  0  0  0  0
  -17.3003  -32.0289   23.4781 C   0  0  0  0  0  0  0  0  0  0  0  0
  -23.4007  -30.0097   24.5410 C   0  0  0  0  0  0  0  0  0  0  0  0
  -25.2769  -30.5790   22.3272 C   0  0  0  0  0  0  0  0  0  0  0  0
  -18.5081  -32.9250   23.2163 C   0  0  0  0  0  0  0  0  0  0  0  0
  -28.3213  -15.1609   21.4029 C   0  0  0  0  0  0  0  0  0  0  0  0
  -19.3047  -32.4116   22.0211 C   0  0  0  0  0  0  0  0  0  0  0  0
  -27.6055  -13.8170   21.2763 C   0  0  0  0  0  0  0  0  0  0  0  0
  -27.6429  -16.2295   20.5541 C   0  0  0  0  0  0  0  0  0  0  0  0
  -26.8009  -14.5214   18.9761 C   0  0  0  0  0  0  0  0  0  0  0  0
  -19.8481  -31.0020   22.2847 C   0  0  1  0  0  0  0  0  0  0  0  0
  -23.3389  -31.3134   23.7511 C   0  0  1  0  0  0  0  0  0  0  0  0
  -27.4640  -13.4057   19.8009 C   0  0  2  0  0  0  0  0  0  0  0  0
  -27.4110  -20.5147   15.4711 C   0  0  0  0  0  0  0  0  0  0  0  0
  -30.4017  -34.4904   23.5851 C   0  0  0  0  0  0  0  0  0  0  0  0
  -24.7658  -33.8547   20.1641 C   0  0  0  0  0  0  0  0  0  0  0  0
  -27.1659  -34.5640   20.2316 C   0  0  0  0  0  0  0  0  0  0  0  0
  -25.5015  -35.6566   21.7345 C   0  0  0  0  0  0  0  0  0  0  0  0
  -32.7781  -17.2620   20.1425 C   0  0  0  0  0  0  0  0  0  0  0  0
  -29.2450  -31.6401   25.8243 C   0  0  0  0  0  0  0  0  0  0  0  0
  -28.6106  -22.9463   19.1404 C   0  0  0  0  0  0  0  0  0  0  0  0
  -29.1940  -20.0684   22.2668 C   0  0  0  0  0  0  0  0  0  0  0  0
  -27.9763  -18.5632   19.7170 C   0  0  0  0  0  0  0  0  0  0  0  0
  -27.0098  -19.5919   16.6134 C   0  0  0  0  0  0  0  0  0  0  0  0
  -29.8678  -21.4399   22.4064 C   0  0  0  0  0  0  0  0  0  0  0  0
  -26.3677  -23.4493   21.3119 C   0  0  0  0  0  0  0  0  0  0  0  0
  -28.2079  -18.9359   17.2893 C   0  0  0  0  0  0  0  0  0  0  0  0
  -29.9515  -22.2619   21.1239 C   0  0  0  0  0  0  0  0  0  0  0  0
  -27.8766  -23.6049   21.4272 C   0  0  0  0  0  0  0  0  0  0  0  0
  -25.5825  -24.4342   22.1693 C   0  0  0  0  0  0  0  0  0  1  0  0
  -26.2318  -33.2835   22.2112 C   0  0  1  0  0  0  0  0  0  0  0  0
  -29.3849  -33.6064   24.2904 C   0  0  2  0  0  0  0  0  0  0  0  0
  -25.9089  -34.3129   21.0916 C   0  0  0  0  0  0  0  0  0  0  0  0
  -25.7740  -11.7675   20.5376 N   0  0  0  0  0  0  0  0  0  0  0  0
  -31.5008  -17.8874   20.3979 N   0  0  0  0  0  0  0  0  0  0  0  0
  -26.7334  -12.0840   19.6514 N   0  0  0  0  0  0  0  0  0  0  0  0
  -24.6087  -31.6399   23.0990 N   0  0  0  0  0  0  0  0  0  0  0  0
  -27.4938  -15.7992   19.1575 N   0  0  0  0  0  0  0  0  0  0  0  0
  -27.8591  -11.2930   17.7233 N   0  0  0  0  0  0  0  0  0  0  0  0
  -24.9264   -7.9854   18.6479 N   0  0  0  0  0  0  0  0  0  0  0  0
  -21.0089  -31.0609   23.1470 N   0  0  0  0  0  0  0  0  0  0  0  0
  -27.2921  -33.7032   23.1211 N   0  0  0  0  0  0  0  0  0  0  0  0
  -27.8137  -18.0361   18.3640 N   0  0  0  0  0  0  0  0  0  0  0  0
  -30.1218  -32.5661   25.0622 N   0  3  0  0  0  0  0  0  0  0  0  0
  -28.5706  -22.5854   20.6059 N   0  3  1  0  0  0  0  0  0  0  0  0
  -26.5948   -8.6498   17.2218 O   0  0  0  0  0  0  0  0  0  0  0  0
  -22.6127  -31.4743   21.5101 O   0  0  0  0  0  0  0  0  0  0  0  0
  -24.4940  -33.8875   23.7084 O   0  0  0  0  0  0  0  0  0  0  0  0
  -28.6887  -31.8924   22.7365 O   0  0  0  0  0  0  0  0  0  0  0  0
  -27.4407  -16.2911   16.9049 O   0  0  0  0  0  0  0  0  0  0  0  0
  -21.2825   -7.8974   22.8609 O   0  0  0  0  0  0  0  0  0  0  0  0
  -25.8995  -25.7607   21.7493 O   0  0  0  0  0  0  0  0  0  1  0  0
  -21.9743   -2.5221   23.8764 F   0  0  0  0  0  0  0  0  0  0  0  0
  -21.3108   -6.9358   25.4527 F   0  0  0  0  0  0  0  0  0  0  0  0
  1  2  1  0  0  0  0
  1  5  2  0  0  0  0
  2  6  2  0  0  0  0
  3  8  2  0  0  0  0
  3 17  1  0  0  0  0
  4  9  1  0  0  0  0
  4 17  2  0  0  0  0
  5 19  1  0  0  0  0
  6 21  1  0  0  0  0
  7 10  2  0  0  0  0
  7 20  1  0  0  0  0
  8 25  1  0  0  0  0
  9 25  2  0  0  0  0
 10 26  1  0  0  0  0
 11 12  2  0  0  0  0
 11 27  1  0  0  0  0
 12 28  1  0  0  0  0
 13 22  1  0  0  0  0
 13 26  2  0  0  0  0
 14 28  2  0  0  0  0
 14 29  1  0  0  0  0
 15 23  2  0  0  0  0
 15 70  1  0  0  0  0
 16 24  2  0  0  0  0
 16 70  1  0  0  0  0
 17 30  1  0  0  0  0
 18 30  1  0  0  0  0
 18 31  2  0  0  0  0
 18 32  1  0  0  0  0
 19 21  2  0  0  0  0
 19 37  1  0  0  0  0
 20 22  2  0  0  0  0
 20 38  1  0  0  0  0
 21 46  1  0  0  0  0
 22 39  1  0  0  0  0
 23 24  1  0  0  0  0
 23 57  1  0  0  0  0
 24 58  1  0  0  0  0
 25 86  1  0  0  0  0
 26 87  1  0  0  0  0
 27 29  2  0  0  0  0
 27 86  1  0  0  0  0
 28 88  1  0  0  0  0
 29 89  1  0  0  0  0
 30 69  2  0  0  0  0
 31 71  1  0  0  0  0
 31 74  1  0  0  0  0
 32 75  1  0  0  0  0
 32 81  2  0  0  0  0
 33 47  1  0  0  0  0
 33 76  1  0  0  0  0
 33 82  2  0  0  0  0
 34 66  1  0  0  0  0
 34 72  1  0  0  0  0
 34 83  2  0  0  0  0
 35 67  1  0  0  0  0
 35 77  1  0  0  0  0
 35 84  2  0  0  0  0
 36 73  1  0  0  0  0
 36 78  1  0  0  0  0
 36 85  2  0  0  0  0
 37 40  1  0  0  0  0
 38 47  1  0  0  0  0
 39 72  1  0  0  0  0
 40 42  1  0  0  0  0
 41 43  1  0  0  0  0
 41 44  1  0  0  0  0
 42 46  1  0  0  0  0
 43 48  1  0  0  0  0
 44 73  1  0  0  0  0
 45 48  1  0  0  0  0
 45 73  1  0  0  0  0
 46 76  1  0  0  0  0
 47 72  1  0  0  0  0
 48 71  1  0  0  0  0
 49 59  1  0  0  0  0
 50 67  1  0  0  0  0
 51 68  1  0  0  0  0
 52 68  1  0  0  0  0
 53 68  1  0  0  0  0
 54 70  1  0  0  0  0
 55 79  1  0  0  0  0
 56 80  1  0  0  0  0
 57 60  1  0  0  0  0
 58 78  1  0  0  0  0
 59 62  1  0  0  0  0
 60 63  1  0  0  0  0
 61 64  1  0  0  0  0
 61 65  1  0  0  0  0
 62 78  1  0  0  0  0
 63 80  1  0  0  0  0
 64 80  1  0  0  0  0
 65 87  1  0  0  0  0
 66 68  1  0  0  0  0
 66 77  1  0  0  0  0
 67 79  1  0  0  0  0
 69 71  1  0  0  0  0
M  CHG  2  79   1  80   1
M  ISO  4  36 100  65 101  78 100  87 101
M  END
> <Batch ID>
0051

> <Smiles>
CCC[100N:0](Cc1cn(C)cc1CCCN(C)CC[101CH2:1][101O:1]c1ccc2c(c1)CN(C(=O)C(NC(=O)C(C)NC)C(C)(C)C)C(C(=O)NC1CCCc3ccccc31)C2)[100C:0](=O)N1CCCC(n2nc(-c3ccc(Oc4ccc(F)cc4F)cc3)c(C(N)=O)c2N)C1

> <Shape>
0.278

> <Color>
0.074

> <Negative vol penalty>
0.000

$$$$

  -OEChem-04052317333D

 87 95  0     1  0  0  0  0  0999 V2000
  -23.5641  -31.6977   16.4920 C   0  0  0  0  0  0  0  0  0  0  0  0
  -24.2949  -30.5672   16.1408 C   0  0  0  0  0  0  0  0  0  0  0  0
  -23.2569   -9.7958   19.8733 C   0  0  0  0  0  0  0  0  0  0  0  0
  -23.7183   -9.8663   22.2438 C   0  0  0  0  0  0  0  0  0  0  0  0
  -23.8589  -32.3780   17.6728 C   0  0  0  0  0  0  0  0  0  0  0  0
  -25.3217  -30.1169   16.9698 C   0  0  0  0  0  0  0  0  0  0  0  0
  -26.9601  -24.3020   17.9741 C   0  0  0  0  0  0  0  0  0  0  0  0
  -22.5240   -8.6223   20.0509 C   0  0  0  0  0  0  0  0  0  0  0  0
  -22.9854   -8.6929   22.4214 C   0  0  0  0  0  0  0  0  0  0  0  0
  -27.9749  -23.5081   17.4415 C   0  0  0  0  0  0  0  0  0  0  0  0
  -20.9339   -5.9124   23.5522 C   0  0  0  0  0  0  0  0  0  0  0  0
  -20.0366   -5.8625   24.6189 C   0  0  0  0  0  0  0  0  0  0  0  0
  -29.3745  -24.0384   19.3333 C   0  0  0  0  0  0  0  0  0  0  0  0
  -18.8347   -7.7441   23.6959 C   0  0  0  0  0  0  0  0  0  0  0  0
  -30.9721  -18.4297   22.0410 C   0  0  0  0  0  0  0  0  0  0  0  0
  -28.6696  -18.3913   20.6904 C   0  0  0  0  0  0  0  0  0  0  0  0
  -23.8540  -10.4178   20.9698 C   0  0  0  0  0  0  0  0  0  0  0  0
  -24.1285  -12.9507   20.8419 C   0  0  0  0  0  0  0  0  0  0  0  0
  -24.8835  -31.9302   18.5215 C   0  0  0  0  0  0  0  0  0  0  0  0
  -27.1493  -24.9800   19.1870 C   0  0  0  0  0  0  0  0  0  0  0  0
  -25.6314  -30.7925   18.1624 C   0  0  0  0  0  0  0  0  0  0  0  0
  -28.3597  -24.8383   19.8805 C   0  0  0  0  0  0  0  0  0  0  0  0
  -22.3882   -8.0709   21.3249 C   0  0  0  0  0  0  0  0  0  0  0  0
  -29.1834  -23.3785   18.1196 C   0  0  0  0  0  0  0  0  0  0  0  0
  -20.7817   -6.8782   22.5574 C   0  0  0  0  0  0  0  0  0  0  0  0
  -18.9870   -6.7783   24.6908 C   0  0  0  0  0  0  0  0  0  0  0  0
  -19.7321   -7.7940   22.6292 C   0  0  0  0  0  0  0  0  0  0  0  0
  -24.6117  -11.6297   20.7869 C   0  0  0  0  0  0  0  0  0  0  0  0
  -29.8250  -17.9174   22.6061 C   0  0  0  0  0  0  0  0  0  0  0  0
  -29.8164  -18.9043   20.1255 C   0  0  0  0  0  0  0  0  0  0  0  0
  -25.2338  -13.7308   20.6044 C   0  0  0  0  0  0  0  0  0  0  0  0
  -22.7994  -13.4300   21.0859 C   0  0  0  0  0  0  0  0  0  0  0  0
  -27.1846  -28.0339   20.0678 C   0  0  0  0  0  0  0  0  0  0  0  0
  -27.4181  -26.7683   23.0454 C   0  0  0  0  0  0  0  0  0  0  0  0
  -28.3198  -24.1257   25.0077 C   0  0  0  0  0  0  0  0  0  0  0  0
  -31.1421  -12.2892   21.3475 C   0  0  0  0  0  0  0  0  0  0  0  0
  -25.1968  -32.7258   19.7638 C   0  0  0  0  0  0  0  0  0  0  0  0
  -26.0350  -25.8112   19.7615 C   0  0  0  0  0  0  0  0  0  0  0  0
  -28.6055  -25.5290   21.1961 C   0  0  0  0  0  0  0  0  0  0  0  0
  -26.0530  -31.9662   20.7738 C   0  0  0  0  0  0  0  0  0  0  0  0
  -29.4537  -13.6828   18.3627 C   0  0  0  0  0  0  0  0  0  0  0  0
  -27.2263  -31.2867   20.0750 C   0  0  0  0  0  0  0  0  0  0  0  0
  -27.9850  -13.3567   18.6282 C   0  0  0  0  0  0  0  0  0  0  0  0
  -30.3875  -12.6775   19.0299 C   0  0  0  0  0  0  0  0  0  0  0  0
  -28.6857  -12.1904   20.7564 C   0  0  0  0  0  0  0  0  0  0  0  0
  -26.7364  -30.2587   19.0479 C   0  0  1  0  0  0  0  0  0  0  0  0
  -26.5247  -26.8675   20.7473 C   0  0  1  0  0  0  0  0  0  0  0  0
  -27.7193  -13.2110   20.1367 C   0  0  2  0  0  0  0  0  0  0  0  0
  -28.4285  -23.4010   27.4078 C   0  0  0  0  0  0  0  0  0  0  0  0
  -29.8859  -28.5146   23.4583 C   0  0  0  0  0  0  0  0  0  0  0  0
  -30.4815  -27.0863   25.4264 C   0  0  0  0  0  0  0  0  0  0  0  0
  -28.3545  -28.3895   25.4315 C   0  0  0  0  0  0  0  0  0  0  0  0
  -32.0707  -12.5683   23.6145 C   0  0  0  0  0  0  0  0  0  0  0  0
  -26.4615  -21.8719   24.5323 C   0  0  0  0  0  0  0  0  0  0  0  0
  -28.9391  -15.5512   25.4300 C   0  0  0  0  0  0  0  0  0  0  0  0
  -29.8441  -17.3706   23.9908 C   0  0  0  0  0  0  0  0  0  0  0  0
  -30.8234  -20.3866   16.9069 C   0  0  0  0  0  0  0  0  0  0  0  0
  -29.9678  -13.7334   23.0615 C   0  0  0  0  0  0  0  0  0  0  0  0
  -30.5601  -15.0151   23.6171 C   0  0  0  0  0  0  0  0  0  0  0  0
  -29.7804  -21.4884   16.8053 C   0  0  0  0  0  0  0  0  0  1  0  0
  -31.0174  -19.9173   18.3402 C   0  0  0  0  0  0  0  0  0  0  0  0
  -28.5578  -26.3546   23.9449 C   0  0  1  0  0  0  0  0  0  0  0  0
  -27.5944  -23.4154   26.1363 C   0  0  2  0  0  0  0  0  0  0  0  0
  -29.3163  -27.5746   24.5395 C   0  0  0  0  0  0  0  0  0  0  0  0
  -28.6532  -17.8887   21.9408 N   0  0  0  0  0  0  0  0  0  0  0  0
  -30.9883  -18.9326   20.7907 N   0  0  0  0  0  0  0  0  0  0  0  0
  -25.9219  -11.5699   20.5342 N   0  0  0  0  0  0  0  0  0  0  0  0
  -26.2713  -12.8632   20.4281 N   0  0  0  0  0  0  0  0  0  0  0  0
  -27.4878  -26.3355   21.7136 N   0  0  0  0  0  0  0  0  0  0  0  0
  -30.0850  -12.5264   20.4536 N   0  0  0  0  0  0  0  0  0  0  0  0
  -25.4096  -15.0672   20.5311 N   0  0  0  0  0  0  0  0  0  0  0  0
  -21.7820  -12.4927   21.3110 N   0  0  0  0  0  0  0  0  0  0  0  0
  -26.3121  -29.0444   19.7111 N   0  0  0  0  0  0  0  0  0  0  0  0
  -27.9843  -25.4617   24.9460 N   0  0  0  0  0  0  0  0  0  0  0  0
  -30.9968  -12.7791   22.6542 N   0  0  0  0  0  0  0  0  0  0  0  0
  -27.2957  -22.0062   25.7542 N   0  3  0  0  0  0  0  0  0  0  0  0
  -29.4546  -15.9344   24.0671 N   0  3  1  0  0  0  0  0  0  0  0  0
  -22.5190  -14.6527   21.0874 O   0  0  0  0  0  0  0  0  0  0  0  0
  -28.3958  -28.0190   19.8824 O   0  0  0  0  0  0  0  0  0  0  0  0
  -26.4964  -27.4443   23.5092 O   0  0  0  0  0  0  0  0  0  0  0  0
  -29.1082  -23.5535   24.2583 O   0  0  0  0  0  0  0  0  0  0  0  0
  -32.1619  -11.6829   20.9949 O   0  0  0  0  0  0  0  0  0  0  0  0
  -21.6730   -6.9260   21.4986 O   0  0  0  0  0  0  0  0  0  0  0  0
  -30.1757  -22.6046   17.6017 O   0  0  0  0  0  0  0  0  0  1  0  0
  -29.7932  -19.4067   18.8505 O   0  0  0  0  0  0  0  0  0  0  0  0
  -18.1244   -6.7293   25.7144 F   0  0  0  0  0  0  0  0  0  0  0  0
  -19.5800   -8.7234   21.6758 F   0  0  0  0  0  0  0  0  0  0  0  0
  1  2  1  0  0  0  0
  1  5  2  0  0  0  0
  2  6  2  0  0  0  0
  3  8  2  0  0  0  0
  3 17  1  0  0  0  0
  4  9  1  0  0  0  0
  4 17  2  0  0  0  0
  5 19  1  0  0  0  0
  6 21  1  0  0  0  0
  7 10  2  0  0  0  0
  7 20  1  0  0  0  0
  8 23  1  0  0  0  0
  9 23  2  0  0  0  0
 10 24  1  0  0  0  0
 11 12  2  0  0  0  0
 11 25  1  0  0  0  0
 12 26  1  0  0  0  0
 13 22  1  0  0  0  0
 13 24  2  0  0  0  0
 14 26  2  0  0  0  0
 14 27  1  0  0  0  0
 15 29  2  0  0  0  0
 15 66  1  0  0  0  0
 16 30  1  0  0  0  0
 16 65  2  0  0  0  0
 17 28  1  0  0  0  0
 18 28  1  0  0  0  0
 18 31  2  0  0  0  0
 18 32  1  0  0  0  0
 19 21  2  0  0  0  0
 19 37  1  0  0  0  0
 20 22  2  0  0  0  0
 20 38  1  0  0  0  0
 21 46  1  0  0  0  0
 22 39  1  0  0  0  0
 23 83  1  0  0  0  0
 24 84  1  0  0  0  0
 25 27  2  0  0  0  0
 25 83  1  0  0  0  0
 26 86  1  0  0  0  0
 27 87  1  0  0  0  0
 28 67  2  0  0  0  0
 29 56  1  0  0  0  0
 29 65  1  0  0  0  0
 30 66  2  0  0  0  0
 30 85  1  0  0  0  0
 31 68  1  0  0  0  0
 31 71  1  0  0  0  0
 32 72  1  0  0  0  0
 32 78  2  0  0  0  0
 33 47  1  0  0  0  0
 33 73  1  0  0  0  0
 33 79  2  0  0  0  0
 34 62  1  0  0  0  0
 34 69  1  0  0  0  0
 34 80  2  0  0  0  0
 35 63  1  0  0  0  0
 35 74  1  0  0  0  0
 35 81  2  0  0  0  0
 36 70  1  0  0  0  0
 36 75  1  0  0  0  0
 36 82  2  0  0  0  0
 37 40  1  0  0  0  0
 38 47  1  0  0  0  0
 39 69  1  0  0  0  0
 40 42  1  0  0  0  0
 41 43  1  0  0  0  0
 41 44  1  0  0  0  0
 42 46  1  0  0  0  0
 43 48  1  0  0  0  0
 44 70  1  0  0  0  0
 45 48  1  0  0  0  0
 45 70  1  0  0  0  0
 46 73  1  0  0  0  0
 47 69  1  0  0  0  0
 48 68  1  0  0  0  0
 49 63  1  0  0  0  0
 50 64  1  0  0  0  0
 51 64  1  0  0  0  0
 52 64  1  0  0  0  0
 53 75  1  0  0  0  0
 54 76  1  0  0  0  0
 55 77  1  0  0  0  0
 56 77  1  0  0  0  0
 57 60  1  0  0  0  0
 57 61  1  0  0  0  0
 58 59  1  0  0  0  0
 58 75  1  0  0  0  0
 59 77  1  0  0  0  0
 60 84  1  0  0  0  0
 61 85  1  0  0  0  0
 62 64  1  0  0  0  0
 62 74  1  0  0  0  0
 63 76  1  0  0  0  0
 67 68  1  0  0  0  0
M  CHG  2  76   1  77   1
M  ISO  4  36 100  60 101  75 100  84 101
M  END
> <Batch ID>
0051

> <Smiles>
CNC(C)C(=O)NC(C(=O)N1Cc2cc([101O:1][101CH2:1]CCOc3cnc(CN(C)CC[100N:0](C)[100C:0](=O)N4CCCC(n5nc(-c6ccc(Oc7ccc(F)cc7F)cc6)c(C(N)=O)c5N)C4)cn3)ccc2CC1C(=O)NC1CCCc2ccccc21)C(C)(C)C

> <Shape>
0.235

> <Color>
0.175

> <Negative vol penalty>
0.000

$$$$

  -OEChem-04052317333D

 84 92  0     1  0  0  0  0  0999 V2000
  -34.4947  -23.4521   27.1454 C   0  0  0  0  0  0  0  0  0  0  0  0
  -33.2405  -22.8753   26.9727 C   0  0  0  0  0  0  0  0  0  0  0  0
  -23.2866   -9.7812   19.9344 C   0  0  0  0  0  0  0  0  0  0  0  0
  -23.7157   -9.9589   22.3054 C   0  0  0  0  0  0  0  0  0  0  0  0
  -34.6575  -24.8267   26.9782 C   0  0  0  0  0  0  0  0  0  0  0  0
  -32.1482  -23.6730   26.6339 C   0  0  0  0  0  0  0  0  0  0  0  0
  -29.3205  -21.6359   22.9597 C   0  0  0  0  0  0  0  0  0  0  0  0
  -22.5534   -8.6153   20.1545 C   0  0  0  0  0  0  0  0  0  0  0  0
  -22.9824   -8.7929   22.5255 C   0  0  0  0  0  0  0  0  0  0  0  0
  -28.4494  -20.6094   23.3217 C   0  0  0  0  0  0  0  0  0  0  0  0
  -20.9204   -6.0612   23.7519 C   0  0  0  0  0  0  0  0  0  0  0  0
  -20.0087   -6.0571   24.8076 C   0  0  0  0  0  0  0  0  0  0  0  0
  -26.6194  -22.1808   23.3510 C   0  0  0  0  0  0  0  0  0  0  0  0
  -18.8163   -7.8927   23.7850 C   0  0  0  0  0  0  0  0  0  0  0  0
  -27.9649  -15.2450   25.4963 C   0  0  0  0  0  0  0  0  0  0  0  0
  -26.0175  -15.1793   24.4669 C   0  0  0  0  0  0  0  0  0  0  0  0
  -23.8678  -10.4530   21.0099 C   0  0  0  0  0  0  0  0  0  0  0  0
  -24.1398  -12.9784   20.7724 C   0  0  0  0  0  0  0  0  0  0  0  0
  -33.5685  -25.6403   26.6276 C   0  0  0  0  0  0  0  0  0  0  0  0
  -28.8488  -22.9469   22.8010 C   0  0  0  0  0  0  0  0  0  0  0  0
  -32.2963  -25.0600   26.4631 C   0  0  0  0  0  0  0  0  0  0  0  0
  -27.4861  -23.2217   22.9845 C   0  0  0  0  0  0  0  0  0  0  0  0
  -22.4012   -8.1211   21.4500 C   0  0  0  0  0  0  0  0  0  0  0  0
  -27.0991  -20.8822   23.5202 C   0  0  0  0  0  0  0  0  0  0  0  0
  -20.7801   -6.9812   22.7128 C   0  0  0  0  0  0  0  0  0  0  0  0
  -18.9566   -6.9728   24.8241 C   0  0  0  0  0  0  0  0  0  0  0  0
  -19.7280   -7.8969   22.7293 C   0  0  0  0  0  0  0  0  0  0  0  0
  -24.6259  -11.6572   20.7832 C   0  0  0  0  0  0  0  0  0  0  0  0
  -27.9417  -14.2713   24.5259 C   0  0  0  0  0  0  0  0  0  0  0  0
  -25.2469  -13.7495   20.5151 C   0  0  0  0  0  0  0  0  0  0  0  0
  -22.8067  -13.4650   20.9767 C   0  0  0  0  0  0  0  0  0  0  0  0
  -29.4388  -25.7302   24.2185 C   0  0  0  0  0  0  0  0  0  0  0  0
  -27.5033  -26.8851   21.8857 C   0  0  0  0  0  0  0  0  0  0  0  0
  -25.0067  -26.2933   19.6354 C   0  0  0  0  0  0  0  0  0  0  0  0
  -31.1469  -12.3560   21.4018 C   0  0  0  0  0  0  0  0  0  0  0  0
  -33.7839  -27.1279   26.5041 C   0  0  0  0  0  0  0  0  0  0  0  0
  -29.7965  -24.0380   22.3841 C   0  0  0  0  0  0  0  0  0  0  0  0
  -26.9258  -24.6084   22.8068 C   0  0  0  0  0  0  0  0  0  0  0  0
  -32.6513  -27.8491   25.7779 C   0  0  0  0  0  0  0  0  0  0  0  0
  -29.4970  -13.6108   18.3351 C   0  0  0  0  0  0  0  0  0  0  0  0
  -31.2977  -27.3892   26.3099 C   0  0  0  0  0  0  0  0  0  0  0  0
  -28.0253  -13.2936   18.5950 C   0  0  0  0  0  0  0  0  0  0  0  0
  -30.4232  -12.6385   19.0592 C   0  0  0  0  0  0  0  0  0  0  0  0
  -28.6990  -12.2253   20.7826 C   0  0  0  0  0  0  0  0  0  0  0  0
  -31.0921  -25.8884   26.0712 C   0  0  1  0  0  0  0  0  0  0  0  0
  -29.3005  -25.4330   22.7521 C   0  0  1  0  0  0  0  0  0  0  0  0
  -27.7394  -13.2150   20.1048 C   0  0  2  0  0  0  0  0  0  0  0  0
  -33.0446  -13.8751   23.6075 C   0  0  0  0  0  0  0  0  0  0  0  0
  -23.6105  -27.4415   17.8948 C   0  0  0  0  0  0  0  0  0  0  0  0
  -25.1376  -19.1969   26.5021 C   0  0  0  0  0  0  0  0  0  0  0  0
  -25.8429  -28.1951   24.0851 C   0  0  0  0  0  0  0  0  0  0  0  0
  -24.0004  -28.4982   22.4173 C   0  0  0  0  0  0  0  0  0  0  0  0
  -26.2005  -29.6184   22.0601 C   0  0  0  0  0  0  0  0  0  0  0  0
  -26.0193  -24.5244   17.4896 C   0  0  0  0  0  0  0  0  0  0  0  0
  -29.0159  -13.3429   24.1421 C   0  0  0  0  0  0  0  0  0  0  0  0
  -26.2262  -16.9452   26.3173 C   0  0  0  0  0  0  0  0  0  0  0  0
  -32.0442  -12.7385   23.6664 C   0  0  0  0  0  0  0  0  0  0  0  0
  -29.9471  -13.8729   23.0334 C   0  0  0  0  0  0  0  0  0  0  0  0
  -26.7890  -18.8076   24.6409 C   0  0  0  0  0  0  0  0  0  1  0  0
  -26.0180  -27.1164   21.7459 C   0  0  1  0  0  0  0  0  0  0  0  0
  -24.8745  -26.6396   18.1633 C   0  0  2  0  0  0  0  0  0  0  0  0
  -25.7088  -18.1641   25.5235 C   0  0  2  0  0  0  0  0  0  0  0  0
  -25.5261  -28.3312   22.5824 C   0  0  0  0  0  0  0  0  0  0  0  0
  -26.7267  -14.2357   23.8885 N   0  0  0  0  0  0  0  0  0  0  0  0
  -25.9395  -11.5892   20.5511 N   0  0  0  0  0  0  0  0  0  0  0  0
  -26.7256  -15.8184   25.4464 N   0  0  0  0  0  0  0  0  0  0  0  0
  -26.2882  -12.8773   20.3919 N   0  0  0  0  0  0  0  0  0  0  0  0
  -27.8935  -25.6425   22.4048 N   0  0  0  0  0  0  0  0  0  0  0  0
  -30.1017  -12.5506   20.4840 N   0  0  0  0  0  0  0  0  0  0  0  0
  -25.4215  -15.0817   20.3844 N   0  0  0  0  0  0  0  0  0  0  0  0
  -21.7879  -12.5365   21.2298 N   0  0  0  0  0  0  0  0  0  0  0  0
  -30.7343  -25.6406   24.6909 N   0  0  0  0  0  0  0  0  0  0  0  0
  -25.7555  -27.2304   20.3153 N   0  0  0  0  0  0  0  0  0  0  0  0
  -30.9831  -12.9037   22.6832 N   0  0  0  0  0  0  0  0  0  0  0  0
  -24.8265  -25.3975   17.3412 N   0  3  0  0  0  0  0  0  0  0  0  0
  -22.5243  -14.6859   20.9196 O   0  0  0  0  0  0  0  0  0  0  0  0
  -28.4440  -26.0206   24.8725 O   0  0  0  0  0  0  0  0  0  0  0  0
  -28.2885  -27.7715   21.5401 O   0  0  0  0  0  0  0  0  0  0  0  0
  -24.4936  -25.2935   20.1332 O   0  0  0  0  0  0  0  0  0  0  0  0
  -32.1724  -11.7369   21.0906 O   0  0  0  0  0  0  0  0  0  0  0  0
  -21.6856   -6.9835   21.6651 O   0  0  0  0  0  0  0  0  0  0  0  0
  -26.2468  -19.8822   23.8743 O   0  0  0  0  0  0  0  0  0  1  0  0
  -18.0803   -6.9677   25.8371 F   0  0  0  0  0  0  0  0  0  0  0  0
  -19.5874   -8.7823   21.7333 F   0  0  0  0  0  0  0  0  0  0  0  0
  1  2  1  0  0  0  0
  1  5  2  0  0  0  0
  2  6  2  0  0  0  0
  3  8  2  0  0  0  0
  3 17  1  0  0  0  0
  4  9  1  0  0  0  0
  4 17  2  0  0  0  0
  5 19  1  0  0  0  0
  6 21  1  0  0  0  0
  7 10  2  0  0  0  0
  7 20  1  0  0  0  0
  8 23  1  0  0  0  0
  9 23  2  0  0  0  0
 10 24  1  0  0  0  0
 11 12  2  0  0  0  0
 11 25  1  0  0  0  0
 12 26  1  0  0  0  0
 13 22  1  0  0  0  0
 13 24  2  0  0  0  0
 14 26  2  0  0  0  0
 14 27  1  0  0  0  0
 15 29  2  0  0  0  0
 15 66  1  0  0  0  0
 16 64  2  0  0  0  0
 16 66  1  0  0  0  0
 17 28  1  0  0  0  0
 18 28  1  0  0  0  0
 18 30  2  0  0  0  0
 18 31  1  0  0  0  0
 19 21  2  0  0  0  0
 19 36  1  0  0  0  0
 20 22  2  0  0  0  0
 20 37  1  0  0  0  0
 21 45  1  0  0  0  0
 22 38  1  0  0  0  0
 23 81  1  0  0  0  0
 24 82  1  0  0  0  0
 25 27  2  0  0  0  0
 25 81  1  0  0  0  0
 26 83  1  0  0  0  0
 27 84  1  0  0  0  0
 28 65  2  0  0  0  0
 29 55  1  0  0  0  0
 29 64  1  0  0  0  0
 30 67  1  0  0  0  0
 30 70  1  0  0  0  0
 31 71  1  0  0  0  0
 31 76  2  0  0  0  0
 32 46  1  0  0  0  0
 32 72  1  0  0  0  0
 32 77  2  0  0  0  0
 33 60  1  0  0  0  0
 33 68  1  0  0  0  0
 33 78  2  0  0  0  0
 34 61  1  0  0  0  0
 34 73  1  0  0  0  0
 34 79  2  0  0  0  0
 35 69  1  0  0  0  0
 35 74  1  0  0  0  0
 35 80  2  0  0  0  0
 36 39  1  0  0  0  0
 37 46  1  0  0  0  0
 38 68  1  0  0  0  0
 39 41  1  0  0  0  0
 40 42  1  0  0  0  0
 40 43  1  0  0  0  0
 41 45  1  0  0  0  0
 42 47  1  0  0  0  0
 43 69  1  0  0  0  0
 44 47  1  0  0  0  0
 44 69  1  0  0  0  0
 45 72  1  0  0  0  0
 46 68  1  0  0  0  0
 47 67  1  0  0  0  0
 48 57  1  0  0  0  0
 49 61  1  0  0  0  0
 50 62  1  0  0  0  0
 51 63  1  0  0  0  0
 52 63  1  0  0  0  0
 53 63  1  0  0  0  0
 54 75  1  0  0  0  0
 55 58  1  0  0  0  0
 56 62  1  0  0  0  0
 56 66  1  0  0  0  0
 57 74  1  0  0  0  0
 58 74  1  0  0  0  0
 59 62  1  0  0  0  0
 59 82  1  0  0  0  0
 60 63  1  0  0  0  0
 60 73  1  0  0  0  0
 61 75  1  0  0  0  0
 65 67  1  0  0  0  0
M  CHG  1  75   1
M  ISO  4  35 100  59 101  74 100  82 101
M  END
> <Batch ID>
0051

> <Smiles>
CC[100N:0](CCc1cn(CC(C)[101CH2:1][101O:1]c2ccc3c(c2)CN(C(=O)C(NC(=O)C(C)NC)C(C)(C)C)C(C(=O)NC2CCCc4ccccc42)C3)cn1)[100C:0](=O)N1CCCC(n2nc(-c3ccc(Oc4ccc(F)cc4F)cc3)c(C(N)=O)c2N)C1

> <Shape>
0.169

> <Color>
0.174

> <Negative vol penalty>
0.000

$$$$

  -OEChem-04052317333D

 84 92  0     1  0  0  0  0  0999 V2000
  -17.0271  -24.6413   24.1262 C   0  0  0  0  0  0  0  0  0  0  0  0
  -17.7707  -23.9140   23.2023 C   0  0  0  0  0  0  0  0  0  0  0  0
  -27.0196  -16.3503   21.7933 C   0  0  0  0  0  0  0  0  0  0  0  0
  -26.8042  -16.6342   19.4038 C   0  0  0  0  0  0  0  0  0  0  0  0
  -17.2161  -26.0178   24.2427 C   0  0  0  0  0  0  0  0  0  0  0  0
  -18.7029  -24.5630   22.3936 C   0  0  0  0  0  0  0  0  0  0  0  0
  -24.0577  -22.3329   20.4290 C   0  0  0  0  0  0  0  0  0  0  0  0
  -25.7583  -15.7562   21.8364 C   0  0  0  0  0  0  0  0  0  0  0  0
  -25.5429  -16.0401   19.4468 C   0  0  0  0  0  0  0  0  0  0  0  0
  -24.4453  -21.7498   19.2234 C   0  0  0  0  0  0  0  0  0  0  0  0
  -24.4023  -12.7365   21.1468 C   0  0  0  0  0  0  0  0  0  0  0  0
  -24.2592  -11.5732   21.9029 C   0  0  0  0  0  0  0  0  0  0  0  0
  -25.2622  -23.8871   18.4593 C   0  0  0  0  0  0  0  0  0  0  0  0
  -22.6047  -12.6712   23.2792 C   0  0  0  0  0  0  0  0  0  0  0  0
  -29.1337  -19.9818   15.3717 C   0  0  0  0  0  0  0  0  0  0  0  0
  -27.5425  -16.7893   20.5770 C   0  0  0  0  0  0  0  0  0  0  0  0
  -30.0827  -16.7595   20.3436 C   0  0  0  0  0  0  0  0  0  0  0  0
  -18.1580  -26.6824   23.4417 C   0  0  0  0  0  0  0  0  0  0  0  0
  -24.2599  -23.7021   20.6549 C   0  0  0  0  0  0  0  0  0  0  0  0
  -18.9037  -25.9499   22.4985 C   0  0  0  0  0  0  0  0  0  0  0  0
  -24.8786  -24.4847   19.6696 C   0  0  0  0  0  0  0  0  0  0  0  0
  -28.9896  -21.1290   14.5687 C   0  0  0  0  0  0  0  0  0  0  0  0
  -25.0200  -15.6011   20.6632 C   0  0  0  0  0  0  0  0  0  0  0  0
  -25.0450  -22.5275   18.2372 C   0  0  0  0  0  0  0  0  0  0  0  0
  -23.6466  -13.8673   21.4569 C   0  0  0  0  0  0  0  0  0  0  0  0
  -23.3604  -11.5404   22.9691 C   0  0  0  0  0  0  0  0  0  0  0  0
  -22.7478  -13.8346   22.5231 C   0  0  0  0  0  0  0  0  0  0  0  0
  -28.8451  -17.4036   20.5319 C   0  0  0  0  0  0  0  0  0  0  0  0
  -27.6335  -21.3384   14.5092 C   0  0  0  0  0  0  0  0  0  0  0  0
  -31.0071  -17.7747   20.3801 C   0  0  0  0  0  0  0  0  0  0  0  0
  -30.3708  -15.3680   20.1528 C   0  0  0  0  0  0  0  0  0  0  0  0
  -22.3593  -26.1883   21.2120 C   0  0  0  0  0  0  0  0  0  0  0  0
  -30.5502  -23.6601   19.2557 C   0  0  0  0  0  0  0  0  0  0  0  0
  -25.1719  -27.7440   21.6492 C   0  0  0  0  0  0  0  0  0  0  0  0
  -28.5210  -27.9085   21.0142 C   0  0  0  0  0  0  0  0  0  0  0  0
  -18.2934  -28.1790   23.5705 C   0  0  0  0  0  0  0  0  0  0  0  0
  -23.8604  -24.3104   21.9713 C   0  0  0  0  0  0  0  0  0  0  0  0
  -25.1365  -25.9549   19.8707 C   0  0  0  0  0  0  0  0  0  0  0  0
  -19.5680  -28.7320   22.9382 C   0  0  0  0  0  0  0  0  0  0  0  0
  -31.7521  -22.1058   22.2522 C   0  0  0  0  0  0  0  0  0  0  0  0
  -19.7764  -28.1369   21.5492 C   0  0  0  0  0  0  0  0  0  0  0  0
  -31.2312  -20.6730   22.1472 C   0  0  0  0  0  0  0  0  0  0  0  0
  -30.7649  -23.1039   21.6554 C   0  0  0  0  0  0  0  0  0  0  0  0
  -29.8594  -21.3751   20.1347 C   0  0  0  0  0  0  0  0  0  0  0  0
  -19.9422  -26.6141   21.6207 C   0  0  1  0  0  0  0  0  0  0  0  0
  -23.6472  -25.8190   21.8921 C   0  0  1  0  0  0  0  0  0  0  0  0
  -30.8403  -20.3317   20.6984 C   0  0  2  0  0  0  0  0  0  0  0  0
  -26.8374  -22.3755   13.8259 C   0  0  0  0  0  0  0  0  0  0  0  0
  -30.8842  -28.7365   21.1786 C   0  0  0  0  0  0  0  0  0  0  0  0
  -24.2118  -29.7947   19.6040 C   0  0  0  0  0  0  0  0  0  0  0  0
  -26.5748  -30.5974   19.4031 C   0  0  0  0  0  0  0  0  0  0  0  0
  -25.3826  -30.7689   21.5876 C   0  0  0  0  0  0  0  0  0  0  0  0
  -29.1029  -26.1413   23.3158 C   0  0  0  0  0  0  0  0  0  0  0  0
  -29.6644  -25.0147   14.5723 C   0  0  0  0  0  0  0  0  0  0  0  0
  -30.0570  -21.9224   13.9369 C   0  0  0  0  0  0  0  0  0  0  0  0
  -30.1586  -23.2033   17.8730 C   0  0  0  0  0  0  0  0  0  0  0  0
  -25.5982  -20.1216   15.5042 C   0  0  0  0  0  0  0  0  0  0  0  0
  -30.8331  -22.8399   14.8957 C   0  0  0  0  0  0  0  0  0  0  0  0
  -30.3707  -24.3077   16.8533 C   0  0  0  0  0  0  0  0  0  0  0  0
  -25.1765  -20.5645   16.9011 C   0  0  0  0  0  0  0  0  0  1  0  0
  -26.1256  -28.5000   20.7559 C   0  0  1  0  0  0  0  0  0  0  0  0
  -29.7105  -28.1294   21.9312 C   0  0  2  0  0  0  0  0  0  0  0  0
  -25.5672  -29.8880   20.3328 C   0  0  0  0  0  0  0  0  0  0  0  0
  -27.9626  -19.4965   15.7924 N   0  0  0  0  0  0  0  0  0  0  0  0
  -28.9687  -18.7256   20.6774 N   0  0  0  0  0  0  0  0  0  0  0  0
  -27.0697  -20.3429   15.2517 N   0  0  0  0  0  0  0  0  0  0  0  0
  -30.2949  -18.9204   20.5806 N   0  0  0  0  0  0  0  0  0  0  0  0
  -24.7222  -26.5047   21.1721 N   0  0  0  0  0  0  0  0  0  0  0  0
  -30.4014  -22.7324   20.2868 N   0  0  0  0  0  0  0  0  0  0  0  0
  -32.3516  -17.7901   20.2601 N   0  0  0  0  0  0  0  0  0  0  0  0
  -29.3032  -14.4600   20.1418 N   0  0  0  0  0  0  0  0  0  0  0  0
  -21.2759  -26.2712   22.0657 N   0  0  0  0  0  0  0  0  0  0  0  0
  -27.3952  -28.5597   21.4722 N   0  0  0  0  0  0  0  0  0  0  0  0
  -30.1522  -26.8368   22.5271 N   0  3  0  0  0  0  0  0  0  0  0  0
  -29.9173  -23.8443   15.4906 N   0  3  1  0  0  0  0  0  0  0  0  0
  -31.5418  -14.9405   20.0129 O   0  0  0  0  0  0  0  0  0  0  0  0
  -22.3495  -26.3850   20.0025 O   0  0  0  0  0  0  0  0  0  0  0  0
  -30.9782  -24.8067   19.4122 O   0  0  0  0  0  0  0  0  0  0  0  0
  -24.8438  -28.2318   22.7337 O   0  0  0  0  0  0  0  0  0  0  0  0
  -28.5852  -27.2295   19.9918 O   0  0  0  0  0  0  0  0  0  0  0  0
  -23.7893  -15.0212   20.7048 O   0  0  0  0  0  0  0  0  0  0  0  0
  -25.4237  -21.9610   17.0593 O   0  0  0  0  0  0  0  0  0  1  0  0
  -23.2219  -10.4227   23.6941 F   0  0  0  0  0  0  0  0  0  0  0  0
  -22.0183  -14.9173   22.8251 F   0  0  0  0  0  0  0  0  0  0  0  0
  1  2  1  0  0  0  0
  1  5  2  0  0  0  0
  2  6  2  0  0  0  0
  3  8  2  0  0  0  0
  3 16  1  0  0  0  0
  4  9  1  0  0  0  0
  4 16  2  0  0  0  0
  5 18  1  0  0  0  0
  6 20  1  0  0  0  0
  7 10  2  0  0  0  0
  7 19  1  0  0  0  0
  8 23  1  0  0  0  0
  9 23  2  0  0  0  0
 10 24  1  0  0  0  0
 11 12  2  0  0  0  0
 11 25  1  0  0  0  0
 12 26  1  0  0  0  0
 13 21  1  0  0  0  0
 13 24  2  0  0  0  0
 14 26  2  0  0  0  0
 14 27  1  0  0  0  0
 15 22  1  0  0  0  0
 15 64  2  0  0  0  0
 16 28  1  0  0  0  0
 17 28  1  0  0  0  0
 17 30  2  0  0  0  0
 17 31  1  0  0  0  0
 18 20  2  0  0  0  0
 18 36  1  0  0  0  0
 19 21  2  0  0  0  0
 19 37  1  0  0  0  0
 20 45  1  0  0  0  0
 21 38  1  0  0  0  0
 22 29  2  0  0  0  0
 22 55  1  0  0  0  0
 23 81  1  0  0  0  0
 24 82  1  0  0  0  0
 25 27  2  0  0  0  0
 25 81  1  0  0  0  0
 26 83  1  0  0  0  0
 27 84  1  0  0  0  0
 28 65  2  0  0  0  0
 29 48  1  0  0  0  0
 29 66  1  0  0  0  0
 30 67  1  0  0  0  0
 30 70  1  0  0  0  0
 31 71  1  0  0  0  0
 31 76  2  0  0  0  0
 32 46  1  0  0  0  0
 32 72  1  0  0  0  0
 32 77  2  0  0  0  0
 33 56  1  0  0  0  0
 33 69  1  0  0  0  0
 33 78  2  0  0  0  0
 34 61  1  0  0  0  0
 34 68  1  0  0  0  0
 34 79  2  0  0  0  0
 35 62  1  0  0  0  0
 35 73  1  0  0  0  0
 35 80  2  0  0  0  0
 36 39  1  0  0  0  0
 37 46  1  0  0  0  0
 38 68  1  0  0  0  0
 39 41  1  0  0  0  0
 40 42  1  0  0  0  0
 40 43  1  0  0  0  0
 41 45  1  0  0  0  0
 42 47  1  0  0  0  0
 43 69  1  0  0  0  0
 44 47  1  0  0  0  0
 44 69  1  0  0  0  0
 45 72  1  0  0  0  0
 46 68  1  0  0  0  0
 47 67  1  0  0  0  0
 49 62  1  0  0  0  0
 50 63  1  0  0  0  0
 51 63  1  0  0  0  0
 52 63  1  0  0  0  0
 53 74  1  0  0  0  0
 54 75  1  0  0  0  0
 55 58  1  0  0  0  0
 56 59  1  0  0  0  0
 57 60  1  0  0  0  0
 57 66  1  0  0  0  0
 58 75  1  0  0  0  0
 59 75  1  0  0  0  0
 60 82  1  0  0  0  0
 61 63  1  0  0  0  0
 61 73  1  0  0  0  0
 62 74  1  0  0  0  0
 64 66  1  0  0  0  0
 65 67  1  0  0  0  0
M  CHG  2  74   1  75   1
M  ISO  4  33 100  56 100  60 101  82 101
M  END
> <Batch ID>
0051

> <Smiles>
CNC(C)C(=O)NC(C(=O)N1Cc2cc([101O:1][101CH2:1]Cn3ncc(CCN(C)C[100CH2:0][100C:0](=O)N4CCCC(n5nc(-c6ccc(Oc7ccc(F)cc7F)cc6)c(C(N)=O)c5N)C4)c3C)ccc2CC1C(=O)NC1CCCc2ccccc21)C(C)(C)C

> <Shape>
0.219

> <Color>
0.068

> <Negative vol penalty>
0.000

$$$$

  -OEChem-04052317333D

 85 93  0     1  0  0  0  0  0999 V2000
  -27.9071  -24.1531   17.5827 C   0  0  0  0  0  0  0  0  0  0  0  0
  -26.7221  -24.4624   18.2426 C   0  0  0  0  0  0  0  0  0  0  0  0
  -26.2178  -18.3475   20.6243 C   0  0  0  0  0  0  0  0  0  0  0  0
  -23.9141  -17.9805   21.2533 C   0  0  0  0  0  0  0  0  0  0  0  0
  -29.1179  -24.6609   18.0518 C   0  0  0  0  0  0  0  0  0  0  0  0
  -26.7473  -25.2790   19.3727 C   0  0  0  0  0  0  0  0  0  0  0  0
  -23.1102  -28.8020   19.3055 C   0  0  0  0  0  0  0  0  0  0  0  0
  -26.3493  -16.9935   20.3162 C   0  0  0  0  0  0  0  0  0  0  0  0
  -24.0457  -16.6265   20.9451 C   0  0  0  0  0  0  0  0  0  0  0  0
  -21.8202  -28.3918   19.6396 C   0  0  0  0  0  0  0  0  0  0  0  0
  -27.3949  -13.5646   19.7053 C   0  0  0  0  0  0  0  0  0  0  0  0
  -28.5386  -12.9040   20.1538 C   0  0  0  0  0  0  0  0  0  0  0  0
  -22.1219  -29.2753   21.8639 C   0  0  0  0  0  0  0  0  0  0  0  0
  -27.9460  -13.4280   22.4367 C   0  0  0  0  0  0  0  0  0  0  0  0
  -19.9662  -24.6373   22.8333 C   0  0  0  0  0  0  0  0  0  0  0  0
  -25.0001  -18.8410   21.0929 C   0  0  0  0  0  0  0  0  0  0  0  0
  -24.4622  -21.2739   20.5455 C   0  0  0  0  0  0  0  0  0  0  0  0
  -29.1569  -25.4920   19.1825 C   0  0  0  0  0  0  0  0  0  0  0  0
  -23.9210  -29.4432   20.2531 C   0  0  0  0  0  0  0  0  0  0  0  0
  -27.9600  -25.7973   19.8581 C   0  0  0  0  0  0  0  0  0  0  0  0
  -23.4208  -29.6949   21.5386 C   0  0  0  0  0  0  0  0  0  0  0  0
  -25.2633  -16.1330   20.4765 C   0  0  0  0  0  0  0  0  0  0  0  0
  -21.3269  -28.6259   20.9198 C   0  0  0  0  0  0  0  0  0  0  0  0
  -26.5267  -14.1570   20.6225 C   0  0  0  0  0  0  0  0  0  0  0  0
  -28.8142  -12.8357   21.5195 C   0  0  0  0  0  0  0  0  0  0  0  0
  -26.8023  -14.0887   21.9882 C   0  0  0  0  0  0  0  0  0  0  0  0
  -24.8638  -20.2395   21.4119 C   0  0  0  0  0  0  0  0  0  0  0  0
  -19.3323  -25.8590   22.7783 C   0  0  0  0  0  0  0  0  0  0  0  0
  -20.5751  -25.0506   24.9984 C   0  0  0  0  0  0  0  0  0  0  0  0
  -19.9419  -26.2727   24.9433 C   0  0  0  0  0  0  0  0  0  0  0  0
  -24.4936  -22.4052   21.3237 C   0  0  0  0  0  0  0  0  0  0  0  0
  -24.0937  -21.2171   19.1611 C   0  0  0  0  0  0  0  0  0  0  0  0
  -26.7051  -28.7827   21.6373 C   0  0  0  0  0  0  0  0  0  0  0  0
  -26.3485  -31.7569   22.8820 C   0  0  0  0  0  0  0  0  0  0  0  0
  -24.2449  -34.2948   23.7655 C   0  0  0  0  0  0  0  0  0  0  0  0
  -24.1874  -22.8374   27.4276 C   0  0  0  0  0  0  0  0  0  0  0  0
  -30.4950  -25.9786   19.6799 C   0  0  0  0  0  0  0  0  0  0  0  0
  -25.3005  -29.9033   19.8689 C   0  0  0  0  0  0  0  0  0  0  0  0
  -24.2438  -30.3976   22.5862 C   0  0  0  0  0  0  0  0  0  0  0  0
  -30.3929  -27.1415   20.6636 C   0  0  0  0  0  0  0  0  0  0  0  0
  -26.6937  -24.2907   25.1237 C   0  0  0  0  0  0  0  0  0  0  0  0
  -29.3263  -26.8579   21.7166 C   0  0  0  0  0  0  0  0  0  0  0  0
  -26.5144  -23.4480   23.8620 C   0  0  0  0  0  0  0  0  0  0  0  0
  -26.3182  -23.5144   26.3823 C   0  0  0  0  0  0  0  0  0  0  0  0
  -24.7697  -22.0899   25.0835 C   0  0  0  0  0  0  0  0  0  0  0  0
  -27.9436  -26.6999   21.0727 C   0  0  1  0  0  0  0  0  0  0  0  0
  -26.2246  -30.0878   21.0687 C   0  0  1  0  0  0  0  0  0  0  0  0
  -25.0952  -22.8578   23.7936 C   0  0  2  0  0  0  0  0  0  0  0  0
  -18.4976  -27.4593   26.6343 C   0  0  0  0  0  0  0  0  0  0  0  0
  -20.6332  -28.5294   25.8284 C   0  0  0  0  0  0  0  0  0  0  0  0
  -24.2427  -36.5840   24.7936 C   0  0  0  0  0  0  0  0  0  0  0  0
  -26.7609  -30.5165   25.6391 C   0  0  0  0  0  0  0  0  0  0  0  0
  -25.8211  -32.6083   26.6439 C   0  0  0  0  0  0  0  0  0  0  0  0
  -27.9183  -32.7069   25.2969 C   0  0  0  0  0  0  0  0  0  0  0  0
  -21.9317  -22.8388   28.4234 C   0  0  0  0  0  0  0  0  0  0  0  0
  -23.1024  -35.5168   21.3241 C   0  0  0  0  0  0  0  0  0  0  0  0
  -18.6327  -26.3028   21.5166 C   0  0  0  0  0  0  0  0  0  0  0  0
  -21.2717  -24.5911   26.2335 C   0  0  0  0  0  0  0  0  0  0  0  0
  -22.1484  -23.3509   26.0199 C   0  0  0  0  0  0  0  0  0  0  0  0
  -19.5580  -27.0729   20.5807 C   0  0  0  0  0  0  0  0  0  1  0  0
  -19.9239  -27.1922   26.1163 C   0  0  0  0  0  0  0  0  0  0  0  0
  -25.7101  -32.3257   24.1262 C   0  0  1  0  0  0  0  0  0  0  0  0
  -24.3005  -35.7882   23.4989 C   0  0  2  0  0  0  0  0  0  0  0  0
  -26.5376  -32.0244   25.4076 C   0  0  0  0  0  0  0  0  0  0  0  0
  -20.5989  -24.2111   23.9443 N   0  0  0  0  0  0  0  0  0  0  0  0
  -25.1308  -20.6751   22.6460 N   0  0  0  0  0  0  0  0  0  0  0  0
  -19.3088  -26.6987   23.8323 N   0  0  0  0  0  0  0  0  0  0  0  0
  -24.8967  -21.9957   22.5607 N   0  0  0  0  0  0  0  0  0  0  0  0
  -25.5887  -30.8226   22.1641 N   0  0  0  0  0  0  0  0  0  0  0  0
  -24.9820  -22.9281   26.2730 N   0  0  0  0  0  0  0  0  0  0  0  0
  -24.2155  -23.7004   21.0637 N   0  0  0  0  0  0  0  0  0  0  0  0
  -24.1159  -19.9740   18.5142 N   0  0  0  0  0  0  0  0  0  0  0  0
  -27.3928  -27.9947   20.7342 N   0  0  0  0  0  0  0  0  0  0  0  0
  -25.5061  -33.7468   23.8671 N   0  0  0  0  0  0  0  0  0  0  0  0
  -22.7972  -22.9162   27.2551 N   0  0  0  0  0  0  0  0  0  0  0  0
  -23.1557  -36.2040   22.6401 N   0  3  0  0  0  0  0  0  0  0  0  0
  -23.7706  -22.2410   18.5124 O   0  0  0  0  0  0  0  0  0  0  0  0
  -26.4707  -28.5114   22.8091 O   0  0  0  0  0  0  0  0  0  0  0  0
  -27.4769  -32.1332   22.5552 O   0  0  0  0  0  0  0  0  0  0  0  0
  -23.1883  -33.6769   23.8766 O   0  0  0  0  0  0  0  0  0  0  0  0
  -24.6922  -22.7038   28.5498 O   0  0  0  0  0  0  0  0  0  0  0  0
  -25.3913  -14.8118   20.1757 O   0  0  0  0  0  0  0  0  0  0  0  0
  -20.0684  -28.2260   21.2487 O   0  0  0  0  0  0  0  0  0  1  0  0
  -29.9117  -12.2000   21.9501 F   0  0  0  0  0  0  0  0  0  0  0  0
  -25.9714  -14.6548   22.8741 F   0  0  0  0  0  0  0  0  0  0  0  0
  1  2  1  0  0  0  0
  1  5  2  0  0  0  0
  2  6  2  0  0  0  0
  3  8  2  0  0  0  0
  3 16  1  0  0  0  0
  4  9  1  0  0  0  0
  4 16  2  0  0  0  0
  5 18  1  0  0  0  0
  6 20  1  0  0  0  0
  7 10  2  0  0  0  0
  7 19  1  0  0  0  0
  8 22  1  0  0  0  0
  9 22  2  0  0  0  0
 10 23  1  0  0  0  0
 11 12  2  0  0  0  0
 11 24  1  0  0  0  0
 12 25  1  0  0  0  0
 13 21  1  0  0  0  0
 13 23  2  0  0  0  0
 14 25  2  0  0  0  0
 14 26  1  0  0  0  0
 15 28  1  0  0  0  0
 15 65  2  0  0  0  0
 16 27  1  0  0  0  0
 17 27  1  0  0  0  0
 17 31  2  0  0  0  0
 17 32  1  0  0  0  0
 18 20  2  0  0  0  0
 18 37  1  0  0  0  0
 19 21  2  0  0  0  0
 19 38  1  0  0  0  0
 20 46  1  0  0  0  0
 21 39  1  0  0  0  0
 22 82  1  0  0  0  0
 23 83  1  0  0  0  0
 24 26  2  0  0  0  0
 24 82  1  0  0  0  0
 25 84  1  0  0  0  0
 26 85  1  0  0  0  0
 27 66  2  0  0  0  0
 28 57  1  0  0  0  0
 28 67  2  0  0  0  0
 29 30  2  0  0  0  0
 29 58  1  0  0  0  0
 29 65  1  0  0  0  0
 30 61  1  0  0  0  0
 30 67  1  0  0  0  0
 31 68  1  0  0  0  0
 31 71  1  0  0  0  0
 32 72  1  0  0  0  0
 32 77  2  0  0  0  0
 33 47  1  0  0  0  0
 33 73  1  0  0  0  0
 33 78  2  0  0  0  0
 34 62  1  0  0  0  0
 34 69  1  0  0  0  0
 34 79  2  0  0  0  0
 35 63  1  0  0  0  0
 35 74  1  0  0  0  0
 35 80  2  0  0  0  0
 36 70  1  0  0  0  0
 36 75  1  0  0  0  0
 36 81  2  0  0  0  0
 37 40  1  0  0  0  0
 38 47  1  0  0  0  0
 39 69  1  0  0  0  0
 40 42  1  0  0  0  0
 41 43  1  0  0  0  0
 41 44  1  0  0  0  0
 42 46  1  0  0  0  0
 43 48  1  0  0  0  0
 44 70  1  0  0  0  0
 45 48  1  0  0  0  0
 45 70  1  0  0  0  0
 46 73  1  0  0  0  0
 47 69  1  0  0  0  0
 48 68  1  0  0  0  0
 49 61  1  0  0  0  0
 50 61  1  0  0  0  0
 51 63  1  0  0  0  0
 52 64  1  0  0  0  0
 53 64  1  0  0  0  0
 54 64  1  0  0  0  0
 55 75  1  0  0  0  0
 56 76  1  0  0  0  0
 57 60  1  0  0  0  0
 58 59  1  0  0  0  0
 59 75  1  0  0  0  0
 60 83  1  0  0  0  0
 62 64  1  0  0  0  0
 62 74  1  0  0  0  0
 63 76  1  0  0  0  0
 66 68  1  0  0  0  0
M  CHG  1  76   1
M  ISO  4  36 100  60 101  75 100  83 101
M  END
> <Batch ID>
0051

> <Smiles>
CNC(C)C(=O)NC(C(=O)N1Cc2cc([101O:1][101CH2:1]Cc3cnc(CC[100N:0](C)[100C:0](=O)N4CCCC(n5nc(-c6ccc(Oc7ccc(F)cc7F)cc6)c(C(N)=O)c5N)C4)c(C(C)C)n3)ccc2CC1C(=O)NC1CCCc2ccccc21)C(C)(C)C

> <Shape>
0.249

> <Color>
0.064

> <Negative vol penalty>
0.000

$$$$

  -OEChem-04052317333D

 84 92  0     1  0  0  0  0  0999 V2000
  -23.8046  -37.6350   19.3112 C   0  0  0  0  0  0  0  0  0  0  0  0
  -24.6714  -36.5951   18.9908 C   0  0  0  0  0  0  0  0  0  0  0  0
  -26.3618  -11.2569   21.2463 C   0  0  0  0  0  0  0  0  0  0  0  0
  -25.5734  -12.5696   19.3776 C   0  0  0  0  0  0  0  0  0  0  0  0
  -23.1931  -37.6704   20.5636 C   0  0  0  0  0  0  0  0  0  0  0  0
  -24.9280  -35.5905   19.9232 C   0  0  0  0  0  0  0  0  0  0  0  0
  -25.9480  -29.6643   18.7632 C   0  0  0  0  0  0  0  0  0  0  0  0
  -25.0512  -10.8730   21.5297 C   0  0  0  0  0  0  0  0  0  0  0  0
  -24.2627  -12.1857   19.6609 C   0  0  0  0  0  0  0  0  0  0  0  0
  -27.1204  -28.9165   18.6622 C   0  0  0  0  0  0  0  0  0  0  0  0
  -22.7942   -8.6525   20.3429 C   0  0  0  0  0  0  0  0  0  0  0  0
  -22.5593   -7.3066   20.6237 C   0  0  0  0  0  0  0  0  0  0  0  0
  -26.8780  -28.2370   20.9641 C   0  0  0  0  0  0  0  0  0  0  0  0
  -21.7148   -7.9091   22.8056 C   0  0  0  0  0  0  0  0  0  0  0  0
  -28.1752  -23.7726   18.8858 C   0  0  0  0  0  0  0  0  0  0  0  0
  -26.6230  -12.1053   20.1703 C   0  0  0  0  0  0  0  0  0  0  0  0
  -28.8908  -11.8472   19.0310 C   0  0  0  0  0  0  0  0  0  0  0  0
  -23.4348  -36.6606   21.5083 C   0  0  0  0  0  0  0  0  0  0  0  0
  -25.2365  -29.7129   19.9706 C   0  0  0  0  0  0  0  0  0  0  0  0
  -24.3202  -35.6131   21.1900 C   0  0  0  0  0  0  0  0  0  0  0  0
  -25.6955  -28.9841   21.0770 C   0  0  0  0  0  0  0  0  0  0  0  0
  -24.0016  -11.3373   20.7369 C   0  0  0  0  0  0  0  0  0  0  0  0
  -27.5871  -28.2050   19.7637 C   0  0  0  0  0  0  0  0  0  0  0  0
  -22.4894   -9.6268   21.2935 C   0  0  0  0  0  0  0  0  0  0  0  0
  -22.0195   -6.9349   21.8550 C   0  0  0  0  0  0  0  0  0  0  0  0
  -21.9497   -9.2551   22.5249 C   0  0  0  0  0  0  0  0  0  0  0  0
  -27.9766  -12.5027   19.8774 C   0  0  0  0  0  0  0  0  0  0  0  0
  -27.8802  -22.9996   19.9805 C   0  0  0  0  0  0  0  0  0  0  0  0
  -30.0269  -12.6167   19.0911 C   0  0  0  0  0  0  0  0  0  0  0  0
  -28.7276  -10.6499   18.2594 C   0  0  0  0  0  0  0  0  0  0  0  0
  -24.4421  -32.0135   22.0150 C   0  0  0  0  0  0  0  0  0  0  0  0
  -30.4346  -18.5553   20.7976 C   0  0  0  0  0  0  0  0  0  0  0  0
  -22.7530  -29.6343   23.4323 C   0  0  0  0  0  0  0  0  0  0  0  0
  -22.3411  -26.2867   23.9528 C   0  0  0  0  0  0  0  0  0  0  0  0
  -22.7874  -36.7669   22.8664 C   0  0  0  0  0  0  0  0  0  0  0  0
  -23.9593  -30.5027   20.0553 C   0  0  0  0  0  0  0  0  0  0  0  0
  -24.9575  -28.9869   22.3900 C   0  0  0  0  0  0  0  0  0  0  0  0
  -22.8214  -35.4640   23.6610 C   0  0  0  0  0  0  0  0  0  0  0  0
  -32.0724  -15.6097   22.3126 C   0  0  0  0  0  0  0  0  0  0  0  0
  -24.2129  -34.8414   23.6063 C   0  0  0  0  0  0  0  0  0  0  0  0
  -31.5262  -14.3984   21.5554 C   0  0  0  0  0  0  0  0  0  0  0  0
  -32.1117  -16.8677   21.4564 C   0  0  0  0  0  0  0  0  0  0  0  0
  -29.8898  -16.0948   20.5956 C   0  0  0  0  0  0  0  0  0  0  0  0
  -24.6045  -34.4918   22.1655 C   0  0  1  0  0  0  0  0  0  0  0  0
  -23.5924  -30.8940   21.4835 C   0  0  1  0  0  0  0  0  0  0  0  0
  -30.6522  -14.7839   20.3488 C   0  0  2  0  0  0  0  0  0  0  0  0
  -25.5153  -22.8932   22.0375 C   0  0  0  0  0  0  0  0  0  0  0  0
  -20.8969  -24.6484   25.1888 C   0  0  0  0  0  0  0  0  0  0  0  0
  -24.1888  -30.3337   26.0322 C   0  0  0  0  0  0  0  0  0  0  0  0
  -23.4487  -28.1264   26.9532 C   0  0  0  0  0  0  0  0  0  0  0  0
  -21.7525  -29.8305   26.2887 C   0  0  0  0  0  0  0  0  0  0  0  0
  -21.4422  -25.0066   21.4404 C   0  0  0  0  0  0  0  0  0  0  0  0
  -27.2844  -20.4099   18.1746 C   0  0  0  0  0  0  0  0  0  0  0  0
  -29.0563  -18.8327   20.2489 C   0  0  0  0  0  0  0  0  0  0  0  0
  -26.3249  -21.6995   21.5458 C   0  0  0  0  0  0  0  0  0  0  0  0
  -29.8898  -25.6688   18.5598 C   0  0  0  0  0  0  0  0  0  0  0  0
  -28.7995  -20.3255   20.1489 C   0  0  0  0  0  0  0  0  0  0  0  0
  -29.0486  -26.9290   18.3883 C   0  0  0  0  0  0  0  0  0  1  0  0
  -26.8899  -21.9232   20.1126 C   0  0  2  0  0  0  0  0  0  0  0  0
  -23.0446  -28.6030   24.4954 C   0  0  1  0  0  0  0  0  0  0  0  0
  -21.1104  -25.4006   23.8844 C   0  0  2  0  0  0  0  0  0  0  0  0
  -23.1238  -29.2247   25.9183 C   0  0  0  0  0  0  0  0  0  0  0  0
  -28.4879  -13.6038   20.4345 N   0  0  0  0  0  0  0  0  0  0  0  0
  -28.6774  -23.3652   21.0295 N   0  0  0  0  0  0  0  0  0  0  0  0
  -29.4663  -24.3518   20.6180 N   0  0  0  0  0  0  0  0  0  0  0  0
  -29.1635  -24.5947   19.3325 N   0  0  0  0  0  0  0  0  0  0  0  0
  -29.7356  -13.6461   19.9372 N   0  0  0  0  0  0  0  0  0  0  0  0
  -23.7172  -29.7793   22.4247 N   0  0  0  0  0  0  0  0  0  0  0  0
  -30.7860  -17.2104   20.9355 N   0  0  0  0  0  0  0  0  0  0  0  0
  -31.2367  -12.5065   18.5024 N   0  0  0  0  0  0  0  0  0  0  0  0
  -27.4956   -9.9837   18.3122 N   0  0  0  0  0  0  0  0  0  0  0  0
  -23.9455  -33.2742   21.7440 N   0  0  0  0  0  0  0  0  0  0  0  0
  -22.0260  -27.5686   24.3512 N   0  0  0  0  0  0  0  0  0  0  0  0
  -21.2498  -24.4045   22.7848 N   0  3  0  0  0  0  0  0  0  0  0  0
  -27.4075  -20.5724   19.6574 N   0  3  1  0  0  0  0  0  0  0  0  0
  -29.6524  -10.1755   17.5571 O   0  0  0  0  0  0  0  0  0  0  0  0
  -25.4712  -31.7527   22.6270 O   0  0  0  0  0  0  0  0  0  0  0  0
  -31.1748  -19.4979   21.0885 O   0  0  0  0  0  0  0  0  0  0  0  0
  -21.7049  -30.2822   23.4896 O   0  0  0  0  0  0  0  0  0  0  0  0
  -23.4696  -25.8812   23.6837 O   0  0  0  0  0  0  0  0  0  0  0  0
  -22.7225  -10.9627   21.0130 O   0  0  0  0  0  0  0  0  0  0  0  0
  -28.7315  -27.4749   19.6681 O   0  0  0  0  0  0  0  0  0  1  0  0
  -21.7926   -5.6425   22.1239 F   0  0  0  0  0  0  0  0  0  0  0  0
  -21.6538  -10.1867   23.4416 F   0  0  0  0  0  0  0  0  0  0  0  0
  1  2  1  0  0  0  0
  1  5  2  0  0  0  0
  2  6  2  0  0  0  0
  3  8  2  0  0  0  0
  3 16  1  0  0  0  0
  4  9  1  0  0  0  0
  4 16  2  0  0  0  0
  5 18  1  0  0  0  0
  6 20  1  0  0  0  0
  7 10  2  0  0  0  0
  7 19  1  0  0  0  0
  8 22  1  0  0  0  0
  9 22  2  0  0  0  0
 10 23  1  0  0  0  0
 11 12  2  0  0  0  0
 11 24  1  0  0  0  0
 12 25  1  0  0  0  0
 13 21  1  0  0  0  0
 13 23  2  0  0  0  0
 14 25  2  0  0  0  0
 14 26  1  0  0  0  0
 15 28  2  0  0  0  0
 15 66  1  0  0  0  0
 16 27  1  0  0  0  0
 17 27  1  0  0  0  0
 17 29  2  0  0  0  0
 17 30  1  0  0  0  0
 18 20  2  0  0  0  0
 18 35  1  0  0  0  0
 19 21  2  0  0  0  0
 19 36  1  0  0  0  0
 20 44  1  0  0  0  0
 21 37  1  0  0  0  0
 22 81  1  0  0  0  0
 23 82  1  0  0  0  0
 24 26  2  0  0  0  0
 24 81  1  0  0  0  0
 25 83  1  0  0  0  0
 26 84  1  0  0  0  0
 27 63  2  0  0  0  0
 28 59  1  0  0  0  0
 28 64  1  0  0  0  0
 29 67  1  0  0  0  0
 29 70  1  0  0  0  0
 30 71  1  0  0  0  0
 30 76  2  0  0  0  0
 31 45  1  0  0  0  0
 31 72  1  0  0  0  0
 31 77  2  0  0  0  0
 32 54  1  0  0  0  0
 32 69  1  0  0  0  0
 32 78  2  0  0  0  0
 33 60  1  0  0  0  0
 33 68  1  0  0  0  0
 33 79  2  0  0  0  0
 34 61  1  0  0  0  0
 34 73  1  0  0  0  0
 34 80  2  0  0  0  0
 35 38  1  0  0  0  0
 36 45  1  0  0  0  0
 37 68  1  0  0  0  0
 38 40  1  0  0  0  0
 39 41  1  0  0  0  0
 39 42  1  0  0  0  0
 40 44  1  0  0  0  0
 41 46  1  0  0  0  0
 42 69  1  0  0  0  0
 43 46  1  0  0  0  0
 43 69  1  0  0  0  0
 44 72  1  0  0  0  0
 45 68  1  0  0  0  0
 46 67  1  0  0  0  0
 47 55  1  0  0  0  0
 48 61  1  0  0  0  0
 49 62  1  0  0  0  0
 50 62  1  0  0  0  0
 51 62  1  0  0  0  0
 52 74  1  0  0  0  0
 53 75  1  0  0  0  0
 54 57  1  0  0  0  0
 55 59  1  0  0  0  0
 56 58  1  0  0  0  0
 56 66  1  0  0  0  0
 57 75  1  0  0  0  0
 58 82  1  0  0  0  0
 59 75  1  0  0  0  0
 60 62  1  0  0  0  0
 60 73  1  0  0  0  0
 61 74  1  0  0  0  0
 63 67  1  0  0  0  0
 64 65  2  0  0  0  0
 65 66  1  0  0  0  0
M  CHG  2  74   1  75   1
M  ISO  4  32 100  54 100  58 101  82 101
M  END
> <Batch ID>
0051

> <Smiles>
CCC(c1cn(C[101CH2:1][101O:1]c2ccc3c(c2)CN(C(=O)C(NC(=O)C(C)NC)C(C)(C)C)C(C(=O)NC2CCCc4ccccc42)C3)nn1)N(C)C[100CH2:0][100C:0](=O)N1CCCC(n2nc(-c3ccc(Oc4ccc(F)cc4F)cc3)c(C(N)=O)c2N)C1

> <Shape>
0.305

> <Color>
0.062

> <Negative vol penalty>
0.000

$$$$

  -OEChem-04052317333D

 83 91  0     1  0  0  0  0  0999 V2000
  -34.4296   -9.3686   20.3906 C   0  0  0  0  0  0  0  0  0  0  0  0
  -34.1898  -10.7222   20.6044 C   0  0  0  0  0  0  0  0  0  0  0  0
  -25.0138  -29.4860   21.9233 C   0  0  0  0  0  0  0  0  0  0  0  0
  -24.2540  -27.3536   21.0793 C   0  0  0  0  0  0  0  0  0  0  0  0
  -33.5353   -8.6147   19.6320 C   0  0  0  0  0  0  0  0  0  0  0  0
  -33.0559  -11.3229   20.0587 C   0  0  0  0  0  0  0  0  0  0  0  0
  -29.7192  -15.8210   22.5364 C   0  0  0  0  0  0  0  0  0  0  0  0
  -23.7010  -29.9570   21.9154 C   0  0  0  0  0  0  0  0  0  0  0  0
  -22.9411  -27.8245   21.0714 C   0  0  0  0  0  0  0  0  0  0  0  0
  -29.7037  -17.1999   22.3308 C   0  0  0  0  0  0  0  0  0  0  0  0
  -19.3443  -28.3458   21.1702 C   0  0  0  0  0  0  0  0  0  0  0  0
  -18.3512  -27.5086   21.6784 C   0  0  0  0  0  0  0  0  0  0  0  0
  -27.8732  -16.9423   20.7809 C   0  0  0  0  0  0  0  0  0  0  0  0
  -19.4662  -27.4869   23.8216 C   0  0  0  0  0  0  0  0  0  0  0  0
  -25.2904  -28.1843   21.5052 C   0  0  0  0  0  0  0  0  0  0  0  0
  -27.3091  -27.0432   22.5684 C   0  0  0  0  0  0  0  0  0  0  0  0
  -32.3848   -9.2043   19.0847 C   0  0  0  0  0  0  0  0  0  0  0  0
  -28.8174  -14.9899   21.8563 C   0  0  0  0  0  0  0  0  0  0  0  0
  -32.1460  -10.5765   19.2909 C   0  0  0  0  0  0  0  0  0  0  0  0
  -27.8776  -15.5535   20.9816 C   0  0  0  0  0  0  0  0  0  0  0  0
  -22.6646  -29.1263   21.4895 C   0  0  0  0  0  0  0  0  0  0  0  0
  -28.7826  -17.7604   21.4508 C   0  0  0  0  0  0  0  0  0  0  0  0
  -20.3985  -28.7536   21.9877 C   0  0  0  0  0  0  0  0  0  0  0  0
  -18.4121  -27.0792   23.0041 C   0  0  0  0  0  0  0  0  0  0  0  0
  -20.4594  -28.3241   23.3134 C   0  0  0  0  0  0  0  0  0  0  0  0
  -26.6465  -27.6974   21.5126 C   0  0  0  0  0  0  0  0  0  0  0  0
  -28.1107  -22.1763   19.7810 C   0  0  0  0  0  0  0  0  0  0  0  0
  -28.8300  -22.0017   20.9398 C   0  0  0  0  0  0  0  0  0  0  0  0
  -28.5667  -26.7879   22.0788 C   0  0  0  0  0  0  0  0  0  0  0  0
  -29.9689  -23.1607   19.4511 C   0  0  0  0  0  0  0  0  0  0  0  0
  -26.8305  -26.6971   23.8748 C   0  0  0  0  0  0  0  0  0  0  0  0
  -29.0976  -12.6091   19.7690 C   0  0  0  0  0  0  0  0  0  0  0  0
  -25.8883  -12.3856   20.1843 C   0  0  0  0  0  0  0  0  0  0  0  0
  -22.9687  -13.9127   21.0735 C   0  0  0  0  0  0  0  0  0  0  0  0
  -30.8257  -25.3484   16.7959 C   0  0  0  0  0  0  0  0  0  0  0  0
  -31.4716   -8.3595   18.2321 C   0  0  0  0  0  0  0  0  0  0  0  0
  -28.8292  -13.5072   22.1093 C   0  0  0  0  0  0  0  0  0  0  0  0
  -26.8748  -14.7070   20.2424 C   0  0  0  0  0  0  0  0  0  0  0  0
  -30.0993   -8.9872   18.0024 C   0  0  0  0  0  0  0  0  0  0  0  0
  -31.3447  -28.6257   18.4365 C   0  0  0  0  0  0  0  0  0  0  0  0
  -30.2420  -10.4559   17.6158 C   0  0  0  0  0  0  0  0  0  0  0  0
  -30.1975  -28.6792   19.4440 C   0  0  0  0  0  0  0  0  0  0  0  0
  -30.9925  -27.7740   17.2207 C   0  0  0  0  0  0  0  0  0  0  0  0
  -29.3968  -26.4496   18.5676 C   0  0  0  0  0  0  0  0  0  0  0  0
  -30.9142  -11.2585   18.7362 C   0  0  1  0  0  0  0  0  0  0  0  0
  -28.2047  -12.7023   20.9738 C   0  0  1  0  0  0  0  0  0  0  0  0
  -29.7364  -27.2620   19.8262 C   0  0  2  0  0  0  0  0  0  0  0  0
  -25.6937  -22.8022   19.5514 C   0  0  0  0  0  0  0  0  0  0  0  0
  -20.5041  -13.4855   21.2755 C   0  0  0  0  0  0  0  0  0  0  0  0
  -25.6083  -12.5816   17.1523 C   0  0  0  0  0  0  0  0  0  0  0  0
  -23.1817  -13.1038   17.4799 C   0  0  0  0  0  0  0  0  0  0  0  0
  -24.0961  -10.9087   18.2336 C   0  0  0  0  0  0  0  0  0  0  0  0
  -31.1222  -22.7398   21.6404 C   0  0  0  0  0  0  0  0  0  0  0  0
  -31.3035  -22.9358   16.6213 C   0  0  0  0  0  0  0  0  0  0  0  0
  -22.9944  -14.4604   23.9819 C   0  0  0  0  0  0  0  0  0  0  0  0
  -26.7555  -21.6982   19.4645 C   0  0  0  0  0  0  0  0  0  0  0  0
  -28.5009  -21.2952   22.2324 C   0  0  0  0  0  0  0  0  0  0  0  0
  -31.0923  -23.9254   18.8712 C   0  0  0  0  0  0  0  0  0  0  0  0
  -29.1766  -19.9322   22.3364 C   0  0  0  0  0  0  0  0  0  1  0  0
  -24.6792  -13.0031   19.5240 C   0  0  1  0  0  0  0  0  0  0  0  0
  -21.8439  -13.4767   21.9951 C   0  0  2  0  0  0  0  0  0  0  0  0
  -24.4114  -12.4153   18.1097 C   0  0  0  0  0  0  0  0  0  0  0  0
  -27.4193  -27.8485   20.4337 N   0  0  0  0  0  0  0  0  0  0  0  0
  -28.8254  -22.8983   18.8582 N   0  0  0  0  0  0  0  0  0  0  0  0
  -30.0182  -22.6374   20.7132 N   0  0  0  0  0  0  0  0  0  0  0  0
  -28.5805  -27.2857   20.8090 N   0  0  0  0  0  0  0  0  0  0  0  0
  -26.9304  -13.2620   20.5186 N   0  0  0  0  0  0  0  0  0  0  0  0
  -30.5165  -26.4474   17.6141 N   0  0  0  0  0  0  0  0  0  0  0  0
  -29.6510  -26.1885   22.6148 N   0  0  0  0  0  0  0  0  0  0  0  0
  -25.5129  -27.0330   24.2144 N   0  0  0  0  0  0  0  0  0  0  0  0
  -29.9687  -11.5368   19.7959 N   0  0  0  0  0  0  0  0  0  0  0  0
  -23.5728  -12.8357   20.4601 N   0  0  0  0  0  0  0  0  0  0  0  0
  -30.9716  -24.1031   17.4257 N   0  0  0  0  0  0  0  0  0  0  0  0
  -21.7527  -14.3899   23.1692 N   0  3  0  0  0  0  0  0  0  0  0  0
  -27.5553  -26.1220   24.7220 O   0  0  0  0  0  0  0  0  0  0  0  0
  -29.0022  -13.4471   18.8800 O   0  0  0  0  0  0  0  0  0  0  0  0
  -25.9043  -11.1715   20.4020 O   0  0  0  0  0  0  0  0  0  0  0  0
  -23.2778  -15.0911   20.9111 O   0  0  0  0  0  0  0  0  0  0  0  0
  -30.9729  -25.4749   15.5735 O   0  0  0  0  0  0  0  0  0  0  0  0
  -21.3833  -29.5854   21.4819 O   0  0  0  0  0  0  0  0  0  0  0  0
  -28.7659  -19.1059   21.2478 O   0  0  0  0  0  0  0  0  0  1  0  0
  -17.4574  -26.2764   23.4925 F   0  0  0  0  0  0  0  0  0  0  0  0
  -21.4690  -28.7135   24.1039 F   0  0  0  0  0  0  0  0  0  0  0  0
  1  2  1  0  0  0  0
  1  5  2  0  0  0  0
  2  6  2  0  0  0  0
  3  8  2  0  0  0  0
  3 15  1  0  0  0  0
  4  9  1  0  0  0  0
  4 15  2  0  0  0  0
  5 17  1  0  0  0  0
  6 19  1  0  0  0  0
  7 10  2  0  0  0  0
  7 18  1  0  0  0  0
  8 21  1  0  0  0  0
  9 21  2  0  0  0  0
 10 22  1  0  0  0  0
 11 12  2  0  0  0  0
 11 23  1  0  0  0  0
 12 24  1  0  0  0  0
 13 20  1  0  0  0  0
 13 22  2  0  0  0  0
 14 24  2  0  0  0  0
 14 25  1  0  0  0  0
 15 26  1  0  0  0  0
 16 26  1  0  0  0  0
 16 29  2  0  0  0  0
 16 31  1  0  0  0  0
 17 19  2  0  0  0  0
 17 36  1  0  0  0  0
 18 20  2  0  0  0  0
 18 37  1  0  0  0  0
 19 45  1  0  0  0  0
 20 38  1  0  0  0  0
 21 80  1  0  0  0  0
 22 81  1  0  0  0  0
 23 25  2  0  0  0  0
 23 80  1  0  0  0  0
 24 82  1  0  0  0  0
 25 83  1  0  0  0  0
 26 63  2  0  0  0  0
 27 28  2  0  0  0  0
 27 56  1  0  0  0  0
 27 64  1  0  0  0  0
 28 57  1  0  0  0  0
 28 65  1  0  0  0  0
 29 66  1  0  0  0  0
 29 69  1  0  0  0  0
 30 58  1  0  0  0  0
 30 64  2  0  0  0  0
 30 65  1  0  0  0  0
 31 70  1  0  0  0  0
 31 75  2  0  0  0  0
 32 46  1  0  0  0  0
 32 71  1  0  0  0  0
 32 76  2  0  0  0  0
 33 60  1  0  0  0  0
 33 67  1  0  0  0  0
 33 77  2  0  0  0  0
 34 61  1  0  0  0  0
 34 72  1  0  0  0  0
 34 78  2  0  0  0  0
 35 68  1  0  0  0  0
 35 73  1  0  0  0  0
 35 79  2  0  0  0  0
 36 39  1  0  0  0  0
 37 46  1  0  0  0  0
 38 67  1  0  0  0  0
 39 41  1  0  0  0  0
 40 42  1  0  0  0  0
 40 43  1  0  0  0  0
 41 45  1  0  0  0  0
 42 47  1  0  0  0  0
 43 68  1  0  0  0  0
 44 47  1  0  0  0  0
 44 68  1  0  0  0  0
 45 71  1  0  0  0  0
 46 67  1  0  0  0  0
 47 66  1  0  0  0  0
 48 56  1  0  0  0  0
 49 61  1  0  0  0  0
 50 62  1  0  0  0  0
 51 62  1  0  0  0  0
 52 62  1  0  0  0  0
 53 65  1  0  0  0  0
 54 73  1  0  0  0  0
 55 74  1  0  0  0  0
 57 59  1  0  0  0  0
 58 73  1  0  0  0  0
 59 81  1  0  0  0  0
 60 62  1  0  0  0  0
 60 72  1  0  0  0  0
 61 74  1  0  0  0  0
 63 66  1  0  0  0  0
M  CHG  1  74   1
M  ISO  4  35 100  59 101  73 100  81 101
M  END
> <Batch ID>
0051

> <Smiles>
CCc1nc(C[100N:0](C)[100C:0](=O)N2CCCC(n3nc(-c4ccc(Oc5ccc(F)cc5F)cc4)c(C(N)=O)c3N)C2)n(C)c1C[101CH2:1][101O:1]c1ccc2c(c1)CN(C(=O)C(NC(=O)C(C)NC)C(C)(C)C)C(C(=O)NC1CCCc3ccccc31)C2

> <Shape>
0.281

> <Color>
0.060

> <Negative vol penalty>
0.000

$$$$

  -OEChem-04052317333D

 85 93  0     1  0  0  0  0  0999 V2000
  -21.5025   -8.3107   24.4369 C   0  0  0  0  0  0  0  0  0  0  0  0
  -21.9188   -9.5920   24.7836 C   0  0  0  0  0  0  0  0  0  0  0  0
  -22.5335  -28.0818   20.8395 C   0  0  0  0  0  0  0  0  0  0  0  0
  -24.0266  -28.0423   22.7384 C   0  0  0  0  0  0  0  0  0  0  0  0
  -21.7670   -7.8142   23.1612 C   0  0  0  0  0  0  0  0  0  0  0  0
  -22.6010  -10.3773   23.8549 C   0  0  0  0  0  0  0  0  0  0  0  0
  -22.2469  -16.4570   23.2079 C   0  0  0  0  0  0  0  0  0  0  0  0
  -21.4435  -27.9117   21.6930 C   0  0  0  0  0  0  0  0  0  0  0  0
  -22.9366  -27.8723   23.5920 C   0  0  0  0  0  0  0  0  0  0  0  0
  -23.0615  -17.4967   23.6540 C   0  0  0  0  0  0  0  0  0  0  0  0
  -19.5813  -29.8258   23.7671 C   0  0  0  0  0  0  0  0  0  0  0  0
  -18.4609  -30.6292   23.5556 C   0  0  0  0  0  0  0  0  0  0  0  0
  -24.1910  -17.5182   21.5226 C   0  0  0  0  0  0  0  0  0  0  0  0
  -17.1145  -28.6561   23.1932 C   0  0  0  0  0  0  0  0  0  0  0  0
  -28.6232  -22.2436   21.9957 C   0  0  0  0  0  0  0  0  0  0  0  0
  -23.8251  -28.1470   21.3622 C   0  0  0  0  0  0  0  0  0  0  0  0
  -25.5200  -29.5391   20.0595 C   0  0  0  0  0  0  0  0  0  0  0  0
  -22.4442   -8.5974   22.2133 C   0  0  0  0  0  0  0  0  0  0  0  0
  -22.4058  -15.9318   21.9174 C   0  0  0  0  0  0  0  0  0  0  0  0
  -22.8760   -9.8904   22.5657 C   0  0  0  0  0  0  0  0  0  0  0  0
  -23.3754  -16.4735   21.0616 C   0  0  0  0  0  0  0  0  0  0  0  0
  -27.3728  -22.1006   21.3650 C   0  0  0  0  0  0  0  0  0  0  0  0
  -21.6450  -27.8070   23.0693 C   0  0  0  0  0  0  0  0  0  0  0  0
  -24.0357  -18.0256   22.8123 C   0  0  0  0  0  0  0  0  0  0  0  0
  -19.4684  -28.4375   23.6915 C   0  0  0  0  0  0  0  0  0  0  0  0
  -17.2275  -30.0444   23.2687 C   0  0  0  0  0  0  0  0  0  0  0  0
  -18.2350  -27.8527   23.4046 C   0  0  0  0  0  0  0  0  0  0  0  0
  -24.9515  -28.3221   20.4809 C   0  0  0  0  0  0  0  0  0  0  0  0
  -27.6736  -21.6403   20.1064 C   0  0  0  0  0  0  0  0  0  0  0  0
  -26.5562  -29.1677   19.2380 C   0  0  0  0  0  0  0  0  0  0  0  0
  -25.1450  -30.8849   20.3818 C   0  0  0  0  0  0  0  0  0  0  0  0
  -23.1792  -13.0849   20.7338 C   0  0  0  0  0  0  0  0  0  0  0  0
  -22.4903  -14.5087   17.9018 C   0  0  0  0  0  0  0  0  0  0  0  0
  -22.2059  -17.3955   16.1038 C   0  0  0  0  0  0  0  0  0  0  0  0
  -29.9324  -24.4642   18.9445 C   0  0  0  0  0  0  0  0  0  0  0  0
  -22.7489   -8.0000   20.8624 C   0  0  0  0  0  0  0  0  0  0  0  0
  -21.5012  -14.8281   21.4419 C   0  0  0  0  0  0  0  0  0  0  0  0
  -23.5727  -15.9587   19.6600 C   0  0  0  0  0  0  0  0  0  0  0  0
  -23.1473   -9.0358   19.8142 C   0  0  0  0  0  0  0  0  0  0  0  0
  -27.9432  -25.6755   16.2897 C   0  0  0  0  0  0  0  0  0  0  0  0
  -24.1744  -10.0073   20.3871 C   0  0  0  0  0  0  0  0  0  0  0  0
  -26.9900  -26.6133   17.0293 C   0  0  0  0  0  0  0  0  0  0  0  0
  -28.2139  -24.3928   17.0781 C   0  0  0  0  0  0  0  0  0  0  0  0
  -27.7301  -25.5670   19.2017 C   0  0  0  0  0  0  0  0  0  0  0  0
  -23.5968  -10.7819   21.5779 C   0  0  1  0  0  0  0  0  0  0  0  0
  -22.0943  -14.0244   20.2888 C   0  0  1  0  0  0  0  0  0  0  0  0
  -27.4888  -26.8898   18.4582 C   0  0  2  0  0  0  0  0  0  0  0  0
  -26.8076  -21.2944   18.9633 C   0  0  0  0  0  0  0  0  0  0  0  0
  -21.6629  -18.2379   13.8032 C   0  0  0  0  0  0  0  0  0  0  0  0
  -32.3901  -22.5631   19.9057 C   0  0  0  0  0  0  0  0  0  0  0  0
  -32.7479  -22.6250   17.4174 C   0  0  0  0  0  0  0  0  0  0  0  0
  -25.2463  -13.6291   16.9319 C   0  0  0  0  0  0  0  0  0  0  0  0
  -25.0309  -15.2682   15.0517 C   0  0  0  0  0  0  0  0  0  0  0  0
  -23.4171  -13.3759   15.2454 C   0  0  0  0  0  0  0  0  0  0  0  0
  -19.8839  -18.9418   17.0919 C   0  0  0  0  0  0  0  0  0  0  0  0
  -26.0118  -22.3896   21.9461 C   0  0  0  0  0  0  0  0  0  0  0  0
  -25.5163  -21.3164   22.9177 C   0  0  0  0  0  0  0  0  0  0  0  0
  -29.8344  -21.0972   18.9439 C   0  0  0  0  0  0  0  0  0  0  0  0
  -30.0106  -22.1721   17.8745 C   0  0  0  0  0  0  0  0  0  0  0  0
  -25.3104  -19.9562   22.2612 C   0  0  0  0  0  0  0  0  0  1  0  0
  -23.2765  -15.2974   16.8825 C   0  0  1  0  0  0  0  0  0  0  0  0
  -21.1129  -17.9039   15.1811 C   0  0  2  0  0  0  0  0  0  0  0  0
  -32.0789  -23.2989   18.6084 C   0  0  0  0  0  0  0  0  0  0  0  0
  -24.2405  -14.4013   16.0549 C   0  0  0  0  0  0  0  0  0  0  0  0
  -29.6425  -21.9015   21.2032 N   0  0  0  0  0  0  0  0  0  0  0  0
  -25.5748  -27.2573   19.9693 N   0  0  0  0  0  0  0  0  0  0  0  0
  -29.0330  -21.5390   20.0616 N   0  0  0  0  0  0  0  0  0  0  0  0
  -26.5456  -27.8040   19.2179 N   0  0  0  0  0  0  0  0  0  0  0  0
  -22.6679  -14.8745   19.2436 N   0  0  0  0  0  0  0  0  0  0  0  0
  -28.6416  -24.7013   18.4495 N   0  0  0  0  0  0  0  0  0  0  0  0
  -27.4663  -29.8779   18.5381 N   0  0  0  0  0  0  0  0  0  0  0  0
  -24.0564  -31.0876   21.2410 N   0  0  0  0  0  0  0  0  0  0  0  0
  -22.7219  -11.8386   21.1171 N   0  0  0  0  0  0  0  0  0  0  0  0
  -22.2953  -16.0197   16.0800 N   0  0  0  0  0  0  0  0  0  0  0  0
  -30.6401  -23.3818   18.4005 N   0  0  0  0  0  0  0  0  0  0  0  0
  -20.4866  -19.1319   15.7475 N   0  3  0  0  0  0  0  0  0  0  0  0
  -25.7468  -31.8785   19.9084 O   0  0  0  0  0  0  0  0  0  0  0  0
  -24.3451  -13.4623   20.7283 O   0  0  0  0  0  0  0  0  0  0  0  0
  -21.7407  -13.6062   17.5208 O   0  0  0  0  0  0  0  0  0  0  0  0
  -22.9123  -18.1441   16.7755 O   0  0  0  0  0  0  0  0  0  0  0  0
  -30.4242  -25.1753   19.8303 O   0  0  0  0  0  0  0  0  0  0  0  0
  -20.5816  -27.6413   23.9025 O   0  0  0  0  0  0  0  0  0  0  0  0
  -24.8326  -19.0401   23.2455 O   0  0  0  0  0  0  0  0  0  1  0  0
  -16.1513  -30.8160   23.0672 F   0  0  0  0  0  0  0  0  0  0  0  0
  -18.1201  -26.5196   23.3319 F   0  0  0  0  0  0  0  0  0  0  0  0
  1  2  1  0  0  0  0
  1  5  2  0  0  0  0
  2  6  2  0  0  0  0
  3  8  2  0  0  0  0
  3 16  1  0  0  0  0
  4  9  1  0  0  0  0
  4 16  2  0  0  0  0
  5 18  1  0  0  0  0
  6 20  1  0  0  0  0
  7 10  2  0  0  0  0
  7 19  1  0  0  0  0
  8 23  1  0  0  0  0
  9 23  2  0  0  0  0
 10 24  1  0  0  0  0
 11 12  2  0  0  0  0
 11 25  1  0  0  0  0
 12 26  1  0  0  0  0
 13 21  1  0  0  0  0
 13 24  2  0  0  0  0
 14 26  2  0  0  0  0
 14 27  1  0  0  0  0
 15 22  1  0  0  0  0
 15 65  2  0  0  0  0
 16 28  1  0  0  0  0
 17 28  1  0  0  0  0
 17 30  2  0  0  0  0
 17 31  1  0  0  0  0
 18 20  2  0  0  0  0
 18 36  1  0  0  0  0
 19 21  2  0  0  0  0
 19 37  1  0  0  0  0
 20 45  1  0  0  0  0
 21 38  1  0  0  0  0
 22 29  2  0  0  0  0
 22 56  1  0  0  0  0
 23 82  1  0  0  0  0
 24 83  1  0  0  0  0
 25 27  2  0  0  0  0
 25 82  1  0  0  0  0
 26 84  1  0  0  0  0
 27 85  1  0  0  0  0
 28 66  2  0  0  0  0
 29 48  1  0  0  0  0
 29 67  1  0  0  0  0
 30 68  1  0  0  0  0
 30 71  1  0  0  0  0
 31 72  1  0  0  0  0
 31 77  2  0  0  0  0
 32 46  1  0  0  0  0
 32 73  1  0  0  0  0
 32 78  2  0  0  0  0
 33 61  1  0  0  0  0
 33 69  1  0  0  0  0
 33 79  2  0  0  0  0
 34 62  1  0  0  0  0
 34 74  1  0  0  0  0
 34 80  2  0  0  0  0
 35 70  1  0  0  0  0
 35 75  1  0  0  0  0
 35 81  2  0  0  0  0
 36 39  1  0  0  0  0
 37 46  1  0  0  0  0
 38 69  1  0  0  0  0
 39 41  1  0  0  0  0
 40 42  1  0  0  0  0
 40 43  1  0  0  0  0
 41 45  1  0  0  0  0
 42 47  1  0  0  0  0
 43 70  1  0  0  0  0
 44 47  1  0  0  0  0
 44 70  1  0  0  0  0
 45 73  1  0  0  0  0
 46 69  1  0  0  0  0
 47 68  1  0  0  0  0
 49 62  1  0  0  0  0
 50 63  1  0  0  0  0
 51 63  1  0  0  0  0
 52 64  1  0  0  0  0
 53 64  1  0  0  0  0
 54 64  1  0  0  0  0
 55 76  1  0  0  0  0
 56 57  1  0  0  0  0
 57 60  1  0  0  0  0
 58 59  1  0  0  0  0
 58 67  1  0  0  0  0
 59 75  1  0  0  0  0
 60 83  1  0  0  0  0
 61 64  1  0  0  0  0
 61 74  1  0  0  0  0
 62 76  1  0  0  0  0
 63 75  1  0  0  0  0
 65 67  1  0  0  0  0
 66 68  1  0  0  0  0
M  CHG  1  76   1
M  ISO  4  35 100  60 101  75 100  83 101
M  END
> <Batch ID>
0051

> <Smiles>
CNC(C)C(=O)NC(C(=O)N1Cc2cc([101O:1][101CH2:1]CCc3cnn(CC[100N:0](C(C)C)[100C:0](=O)N4CCCC(n5nc(-c6ccc(Oc7ccc(F)cc7F)cc6)c(C(N)=O)c5N)C4)c3C)ccc2CC1C(=O)NC1CCCc2ccccc21)C(C)(C)C

> <Shape>
0.227

> <Color>
0.068

> <Negative vol penalty>
0.000

$$$$

  -OEChem-04052317333D

 82 90  0     1  0  0  0  0  0999 V2000
  -17.2538  -25.1296   25.0299 C   0  0  0  0  0  0  0  0  0  0  0  0
  -17.9168  -24.2242   24.2076 C   0  0  0  0  0  0  0  0  0  0  0  0
  -25.3586  -16.1162   21.6835 C   0  0  0  0  0  0  0  0  0  0  0  0
  -25.1969  -16.4965   19.3031 C   0  0  0  0  0  0  0  0  0  0  0  0
  -17.4584  -26.4988   24.8648 C   0  0  0  0  0  0  0  0  0  0  0  0
  -18.7842  -24.6876   23.2190 C   0  0  0  0  0  0  0  0  0  0  0  0
  -23.9519  -22.0147   21.3071 C   0  0  0  0  0  0  0  0  0  0  0  0
  -24.1213  -15.4726   21.6648 C   0  0  0  0  0  0  0  0  0  0  0  0
  -23.9596  -15.8528   19.2844 C   0  0  0  0  0  0  0  0  0  0  0  0
  -24.2382  -21.2042   20.2094 C   0  0  0  0  0  0  0  0  0  0  0  0
  -21.1720  -13.4111   22.1816 C   0  0  0  0  0  0  0  0  0  0  0  0
  -21.0536  -12.2128   22.8856 C   0  0  0  0  0  0  0  0  0  0  0  0
  -25.0016  -23.1391   18.9876 C   0  0  0  0  0  0  0  0  0  0  0  0
  -22.7867  -11.2362   21.5146 C   0  0  0  0  0  0  0  0  0  0  0  0
  -27.9217  -20.6211   15.2911 C   0  0  0  0  0  0  0  0  0  0  0  0
  -28.3321  -18.8389   16.5205 C   0  0  0  0  0  0  0  0  0  0  0  0
  -25.8964  -16.6283   20.5027 C   0  0  0  0  0  0  0  0  0  0  0  0
  -28.4411  -16.7069   20.3415 C   0  0  0  0  0  0  0  0  0  0  0  0
  -18.3361  -26.9789   23.8800 C   0  0  0  0  0  0  0  0  0  0  0  0
  -24.1785  -23.3973   21.2494 C   0  0  0  0  0  0  0  0  0  0  0  0
  -18.9997  -26.0646   23.0397 C   0  0  0  0  0  0  0  0  0  0  0  0
  -24.7198  -23.9645   20.0869 C   0  0  0  0  0  0  0  0  0  0  0  0
  -23.4218  -15.3408   20.4652 C   0  0  0  0  0  0  0  0  0  0  0  0
  -24.7604  -21.7668   19.0484 C   0  0  0  0  0  0  0  0  0  0  0  0
  -22.0977  -13.5220   21.1440 C   0  0  0  0  0  0  0  0  0  0  0  0
  -21.8610  -11.1253   22.5521 C   0  0  0  0  0  0  0  0  0  0  0  0
  -22.9050  -12.4345   20.8105 C   0  0  0  0  0  0  0  0  0  0  0  0
  -27.1742  -17.2938   20.5215 C   0  0  0  0  0  0  0  0  0  0  0  0
  -26.7634  -20.0858   15.8030 C   0  0  0  0  0  0  0  0  0  0  0  0
  -29.3230  -17.7544   20.4480 C   0  0  0  0  0  0  0  0  0  0  0  0
  -28.7895  -15.3373   20.0994 C   0  0  0  0  0  0  0  0  0  0  0  0
  -22.3416  -25.9824   21.4655 C   0  0  0  0  0  0  0  0  0  0  0  0
  -25.1881  -27.5353   21.3748 C   0  0  0  0  0  0  0  0  0  0  0  0
  -28.4759  -27.5071   20.4604 C   0  0  0  0  0  0  0  0  0  0  0  0
  -30.8891  -22.9174   19.3993 C   0  0  0  0  0  0  0  0  0  0  0  0
  -18.4890  -28.4695   23.7081 C   0  0  0  0  0  0  0  0  0  0  0  0
  -23.8895  -24.2539   22.4515 C   0  0  0  0  0  0  0  0  0  0  0  0
  -25.0005  -25.4405   19.9812 C   0  0  0  0  0  0  0  0  0  0  0  0
  -19.7113  -28.8654   22.8838 C   0  0  0  0  0  0  0  0  0  0  0  0
  -28.6322  -22.5093   22.0006 C   0  0  0  0  0  0  0  0  0  0  0  0
  -19.8041  -28.0118   21.6229 C   0  0  0  0  0  0  0  0  0  0  0  0
  -28.1449  -21.0697   21.8418 C   0  0  0  0  0  0  0  0  0  0  0  0
  -28.7672  -23.1910   20.6442 C   0  0  0  0  0  0  0  0  0  0  0  0
  -29.1995  -21.0267   19.5261 C   0  0  0  0  0  0  0  0  0  0  0  0
  -19.9674  -26.5276   21.9723 C   0  0  1  0  0  0  0  0  0  0  0  0
  -23.6782  -25.7236   22.1011 C   0  0  1  0  0  0  0  0  0  0  0  0
  -29.0459  -20.2868   20.8708 C   0  0  2  0  0  0  0  0  0  0  0  0
  -30.8489  -28.3028   20.2776 C   0  0  0  0  0  0  0  0  0  0  0  0
  -24.0767  -29.1767   19.0552 C   0  0  0  0  0  0  0  0  0  0  0  0
  -26.4198  -29.8779   18.5200 C   0  0  0  0  0  0  0  0  0  0  0  0
  -25.4084  -30.4878   20.7172 C   0  0  0  0  0  0  0  0  0  0  0  0
  -32.6954  -23.0757   17.7291 C   0  0  0  0  0  0  0  0  0  0  0  0
  -29.2324  -26.2005   23.0059 C   0  0  0  0  0  0  0  0  0  0  0  0
  -25.3467  -20.5715   15.6146 C   0  0  0  0  0  0  0  0  0  0  0  0
  -31.1140  -20.6068   16.6401 C   0  0  0  0  0  0  0  0  0  0  0  0
  -30.3291  -19.9532   15.4948 C   0  0  0  0  0  0  0  0  0  0  0  0
  -30.5882  -21.9746   17.0700 C   0  0  0  0  0  0  0  0  0  0  0  0
  -24.9310  -21.5758   16.6840 C   0  0  0  0  0  0  0  0  0  1  0  0
  -26.0705  -28.0871   20.2812 C   0  0  1  0  0  0  0  0  0  0  0  0
  -29.7365  -27.8747   21.2221 C   0  0  2  0  0  0  0  0  0  0  0  0
  -25.4869  -29.3798   19.6444 C   0  0  0  0  0  0  0  0  0  0  0  0
  -27.0257  -18.9767   16.5677 N   0  0  0  0  0  0  0  0  0  0  0  0
  -27.2410  -18.6118   20.7270 N   0  0  0  0  0  0  0  0  0  0  0  0
  -28.9181  -19.8120   15.7597 N   0  0  0  0  0  0  0  0  0  0  0  0
  -28.5605  -18.8619   20.6769 N   0  0  0  0  0  0  0  0  0  0  0  0
  -24.6952  -26.2371   21.1811 N   0  0  0  0  0  0  0  0  0  0  0  0
  -29.6250  -22.4176   19.7458 N   0  0  0  0  0  0  0  0  0  0  0  0
  -30.6686  -17.8270   20.3675 N   0  0  0  0  0  0  0  0  0  0  0  0
  -27.7596  -14.3901   20.0188 N   0  0  0  0  0  0  0  0  0  0  0  0
  -21.3309  -26.2489   22.3693 N   0  0  0  0  0  0  0  0  0  0  0  0
  -27.3940  -28.2566   20.8713 N   0  0  0  0  0  0  0  0  0  0  0  0
  -31.3910  -22.5725   18.1354 N   0  0  0  0  0  0  0  0  0  0  0  0
  -30.2183  -26.7110   22.0187 N   0  3  0  0  0  0  0  0  0  0  0  0
  -29.9799  -14.9620   19.9751 O   0  0  0  0  0  0  0  0  0  0  0  0
  -22.2354  -25.9446   20.2452 O   0  0  0  0  0  0  0  0  0  0  0  0
  -24.9509  -28.2278   22.3676 O   0  0  0  0  0  0  0  0  0  0  0  0
  -28.4541  -26.6441   19.5855 O   0  0  0  0  0  0  0  0  0  0  0  0
  -31.5318  -23.6389   20.1729 O   0  0  0  0  0  0  0  0  0  0  0  0
  -22.2145  -14.7126   20.4465 O   0  0  0  0  0  0  0  0  0  0  0  0
  -25.0401  -20.9782   17.9752 O   0  0  0  0  0  0  0  0  0  1  0  0
  -21.7483   -9.9752   23.2293 F   0  0  0  0  0  0  0  0  0  0  0  0
  -23.7970  -12.5353   19.8155 F   0  0  0  0  0  0  0  0  0  0  0  0
  1  2  1  0  0  0  0
  1  5  2  0  0  0  0
  2  6  2  0  0  0  0
  3  8  2  0  0  0  0
  3 17  1  0  0  0  0
  4  9  1  0  0  0  0
  4 17  2  0  0  0  0
  5 19  1  0  0  0  0
  6 21  1  0  0  0  0
  7 10  2  0  0  0  0
  7 20  1  0  0  0  0
  8 23  1  0  0  0  0
  9 23  2  0  0  0  0
 10 24  1  0  0  0  0
 11 12  2  0  0  0  0
 11 25  1  0  0  0  0
 12 26  1  0  0  0  0
 13 22  1  0  0  0  0
 13 24  2  0  0  0  0
 14 26  2  0  0  0  0
 14 27  1  0  0  0  0
 15 29  2  0  0  0  0
 15 64  1  0  0  0  0
 16 62  2  0  0  0  0
 16 64  1  0  0  0  0
 17 28  1  0  0  0  0
 18 28  1  0  0  0  0
 18 30  2  0  0  0  0
 18 31  1  0  0  0  0
 19 21  2  0  0  0  0
 19 36  1  0  0  0  0
 20 22  2  0  0  0  0
 20 37  1  0  0  0  0
 21 45  1  0  0  0  0
 22 38  1  0  0  0  0
 23 79  1  0  0  0  0
 24 80  1  0  0  0  0
 25 27  2  0  0  0  0
 25 79  1  0  0  0  0
 26 81  1  0  0  0  0
 27 82  1  0  0  0  0
 28 63  2  0  0  0  0
 29 54  1  0  0  0  0
 29 62  1  0  0  0  0
 30 65  1  0  0  0  0
 30 68  1  0  0  0  0
 31 69  1  0  0  0  0
 31 74  2  0  0  0  0
 32 46  1  0  0  0  0
 32 70  1  0  0  0  0
 32 75  2  0  0  0  0
 33 59  1  0  0  0  0
 33 66  1  0  0  0  0
 33 76  2  0  0  0  0
 34 60  1  0  0  0  0
 34 71  1  0  0  0  0
 34 77  2  0  0  0  0
 35 67  1  0  0  0  0
 35 72  1  0  0  0  0
 35 78  2  0  0  0  0
 36 39  1  0  0  0  0
 37 46  1  0  0  0  0
 38 66  1  0  0  0  0
 39 41  1  0  0  0  0
 40 42  1  0  0  0  0
 40 43  1  0  0  0  0
 41 45  1  0  0  0  0
 42 47  1  0  0  0  0
 43 67  1  0  0  0  0
 44 47  1  0  0  0  0
 44 67  1  0  0  0  0
 45 70  1  0  0  0  0
 46 66  1  0  0  0  0
 47 65  1  0  0  0  0
 48 60  1  0  0  0  0
 49 61  1  0  0  0  0
 50 61  1  0  0  0  0
 51 61  1  0  0  0  0
 52 72  1  0  0  0  0
 53 73  1  0  0  0  0
 54 58  1  0  0  0  0
 55 56  1  0  0  0  0
 55 57  1  0  0  0  0
 56 64  1  0  0  0  0
 57 72  1  0  0  0  0
 58 80  1  0  0  0  0
 59 61  1  0  0  0  0
 59 71  1  0  0  0  0
 60 73  1  0  0  0  0
 63 65  1  0  0  0  0
M  CHG  1  73   1
M  ISO  4  35 100  58 101  72 100  80 101
M  END
> <Batch ID>
0051

> <Smiles>
CNC(C)C(=O)NC(C(=O)N1Cc2cc([101O:1][101CH2:1]Cc3cn(CCC[100N:0](C)[100C:0](=O)N4CCCC(n5nc(-c6ccc(Oc7ccc(F)cc7F)cc6)c(C(N)=O)c5N)C4)cn3)ccc2CC1C(=O)NC1CCCc2ccccc21)C(C)(C)C

> <Shape>
0.225

> <Color>
0.067

> <Negative vol penalty>
0.000

$$$$

  -OEChem-04052317333D

 87 95  0     1  0  0  0  0  0999 V2000
  -16.4675  -28.8254   23.6474 C   0  0  0  0  0  0  0  0  0  0  0  0
  -17.0972  -28.8929   22.4088 C   0  0  0  0  0  0  0  0  0  0  0  0
  -24.5909   -8.9942   21.5391 C   0  0  0  0  0  0  0  0  0  0  0  0
  -22.8809  -10.1732   20.3049 C   0  0  0  0  0  0  0  0  0  0  0  0
  -17.0610  -29.4147   24.7629 C   0  0  0  0  0  0  0  0  0  0  0  0
  -18.3204  -29.5509   22.2847 C   0  0  0  0  0  0  0  0  0  0  0  0
  -25.1527  -26.9331   19.5471 C   0  0  0  0  0  0  0  0  0  0  0  0
  -23.7331   -7.9043   21.6865 C   0  0  0  0  0  0  0  0  0  0  0  0
  -22.0231   -9.0832   20.4523 C   0  0  0  0  0  0  0  0  0  0  0  0
  -26.4531  -26.5378   19.2328 C   0  0  0  0  0  0  0  0  0  0  0  0
  -21.1064   -7.0480   23.6337 C   0  0  0  0  0  0  0  0  0  0  0  0
  -21.0222   -6.4564   24.8940 C   0  0  0  0  0  0  0  0  0  0  0  0
  -27.3379  -28.2401   20.7049 C   0  0  0  0  0  0  0  0  0  0  0  0
  -21.7816   -4.3611   23.9611 C   0  0  0  0  0  0  0  0  0  0  0  0
  -32.4601  -25.3090   22.3172 C   0  0  0  0  0  0  0  0  0  0  0  0
  -24.1648  -10.1287   20.8483 C   0  0  0  0  0  0  0  0  0  0  0  0
  -25.9632  -11.4835   19.6491 C   0  0  0  0  0  0  0  0  0  0  0  0
  -18.2967  -30.0719   24.6544 C   0  0  0  0  0  0  0  0  0  0  0  0
  -24.9395  -27.9746   20.4545 C   0  0  0  0  0  0  0  0  0  0  0  0
  -18.9303  -30.1507   23.3995 C   0  0  0  0  0  0  0  0  0  0  0  0
  -26.0374  -28.6322   21.0332 C   0  0  0  0  0  0  0  0  0  0  0  0
  -31.3911  -25.1182   21.4213 C   0  0  0  0  0  0  0  0  0  0  0  0
  -22.4492   -7.9488   21.1431 C   0  0  0  0  0  0  0  0  0  0  0  0
  -27.5430  -27.1899   19.8101 C   0  0  0  0  0  0  0  0  0  0  0  0
  -21.5281   -6.2962   22.5370 C   0  0  0  0  0  0  0  0  0  0  0  0
  -21.3598   -5.1129   25.0578 C   0  0  0  0  0  0  0  0  0  0  0  0
  -21.8657   -4.9528   22.7008 C   0  0  0  0  0  0  0  0  0  0  0  0
  -25.0503  -11.2552   20.6962 C   0  0  0  0  0  0  0  0  0  0  0  0
  -30.3887  -24.5821   22.1921 C   0  0  0  0  0  0  0  0  0  0  0  0
  -26.5577  -12.6802   19.9669 C   0  0  0  0  0  0  0  0  0  0  0  0
  -26.2482  -10.6854   18.4927 C   0  0  0  0  0  0  0  0  0  0  0  0
  -22.4561  -30.1007   22.2953 C   0  0  0  0  0  0  0  0  0  0  0  0
  -24.7118  -29.4527   24.2707 C   0  0  0  0  0  0  0  0  0  0  0  0
  -27.1753  -28.1656   26.2486 C   0  0  0  0  0  0  0  0  0  0  0  0
  -25.6639  -17.9852   21.5986 C   0  0  0  0  0  0  0  0  0  0  0  0
  -18.8765  -30.7347   25.8788 C   0  0  0  0  0  0  0  0  0  0  0  0
  -23.5571  -28.4744   20.7755 C   0  0  0  0  0  0  0  0  0  0  0  0
  -25.7607  -29.7702   21.9774 C   0  0  0  0  0  0  0  0  0  0  0  0
  -20.3546  -31.0889   25.7375 C   0  0  0  0  0  0  0  0  0  0  0  0
  -26.4226  -15.4148   24.2080 C   0  0  0  0  0  0  0  0  0  0  0  0
  -20.6151  -31.7674   24.3963 C   0  0  0  0  0  0  0  0  0  0  0  0
  -26.1370  -14.1257   23.4391 C   0  0  0  0  0  0  0  0  0  0  0  0
  -25.5728  -16.5677   23.6874 C   0  0  0  0  0  0  0  0  0  0  0  0
  -25.4393  -15.5310   21.4459 C   0  0  0  0  0  0  0  0  0  0  0  0
  -20.2698  -30.8341   23.2296 C   0  0  1  0  0  0  0  0  0  0  0  0
  -23.4083  -28.9427   22.2342 C   0  0  1  0  0  0  0  0  0  0  0  0
  -26.2907  -14.3431   21.9242 C   0  0  2  0  0  0  0  0  0  0  0  0
  -28.0308  -28.2071   28.6073 C   0  0  0  0  0  0  0  0  0  0  0  0
  -25.9015  -32.2192   23.7866 C   0  0  0  0  0  0  0  0  0  0  0  0
  -27.4677  -31.8017   25.6948 C   0  0  0  0  0  0  0  0  0  0  0  0
  -25.0058  -31.8575   26.0934 C   0  0  0  0  0  0  0  0  0  0  0  0
  -30.2243  -23.9822   24.6269 C   0  0  0  0  0  0  0  0  0  0  0  0
  -25.3260  -19.0505   23.8681 C   0  0  0  0  0  0  0  0  0  0  0  0
  -26.7510  -25.2551   26.5767 C   0  0  0  0  0  0  0  0  0  0  0  0
  -29.7892  -22.0369   20.7969 C   0  0  0  0  0  0  0  0  0  0  0  0
  -31.3596  -25.4336   19.9471 C   0  0  0  0  0  0  0  0  0  0  0  0
  -29.0180  -24.1578   21.8494 C   0  0  0  0  0  0  0  0  0  0  0  0
  -31.2016  -26.9242   19.6394 C   0  0  0  0  0  0  0  0  0  0  0  0
  -27.1672  -20.8866   22.0588 C   0  0  0  0  0  0  0  0  0  0  0  0
  -25.7234  -20.4357   21.8657 C   0  0  0  0  0  0  0  0  0  0  0  0
  -27.4144  -22.2841   21.5049 C   0  0  0  0  0  0  0  0  0  0  0  0
  -29.8792  -27.5045   20.1271 C   0  0  0  0  0  0  0  0  0  1  0  0
  -26.0208  -29.8842   24.8818 C   0  0  1  0  0  0  0  0  0  0  0  0
  -27.1276  -27.4973   27.6108 C   0  0  2  0  0  0  0  0  0  0  0  0
  -26.0981  -31.4228   25.0920 C   0  0  0  0  0  0  0  0  0  0  0  0
  -32.1644  -24.9255   23.5619 N   0  0  0  0  0  0  0  0  0  0  0  0
  -25.0606  -12.2286   21.6108 N   0  0  0  0  0  0  0  0  0  0  0  0
  -30.8982  -24.4884   23.4537 N   0  0  0  0  0  0  0  0  0  0  0  0
  -25.9873  -13.0801   21.1394 N   0  0  0  0  0  0  0  0  0  0  0  0
  -24.6465  -29.4207   22.8724 N   0  0  0  0  0  0  0  0  0  0  0  0
  -25.7154  -16.7339   22.2348 N   0  0  0  0  0  0  0  0  0  0  0  0
  -27.5076  -13.4188   19.3549 N   0  0  0  0  0  0  0  0  0  0  0  0
  -25.5461   -9.4847   18.3200 N   0  0  0  0  0  0  0  0  0  0  0  0
  -21.3178  -29.8544   23.0389 N   0  0  0  0  0  0  0  0  0  0  0  0
  -26.1765  -29.1054   26.1056 N   0  0  0  0  0  0  0  0  0  0  0  0
  -25.4782  -19.1102   22.4161 N   0  0  0  0  0  0  0  0  0  0  0  0
  -27.5673  -26.0771   27.5066 N   0  3  0  0  0  0  0  0  0  0  0  0
  -28.8419  -22.6744   21.7766 N   0  3  1  0  0  0  0  0  0  0  0  0
  -27.1119  -11.0187   17.6463 O   0  0  0  0  0  0  0  0  0  0  0  0
  -22.7333  -31.1423   21.7122 O   0  0  0  0  0  0  0  0  0  0  0  0
  -23.7692  -29.1569   25.0106 O   0  0  0  0  0  0  0  0  0  0  0  0
  -28.0168  -27.8849   25.3980 O   0  0  0  0  0  0  0  0  0  0  0  0
  -25.7877  -18.0915   20.3717 O   0  0  0  0  0  0  0  0  0  0  0  0
  -21.6119   -6.8853   21.2866 O   0  0  0  0  0  0  0  0  0  0  0  0
  -28.8097  -26.7959   19.5022 O   0  0  0  0  0  0  0  0  0  1  0  0
  -21.2804   -4.5453   26.2684 F   0  0  0  0  0  0  0  0  0  0  0  0
  -22.2727   -4.2258   21.6512 F   0  0  0  0  0  0  0  0  0  0  0  0
  1  2  1  0  0  0  0
  1  5  2  0  0  0  0
  2  6  2  0  0  0  0
  3  8  2  0  0  0  0
  3 16  1  0  0  0  0
  4  9  1  0  0  0  0
  4 16  2  0  0  0  0
  5 18  1  0  0  0  0
  6 20  1  0  0  0  0
  7 10  2  0  0  0  0
  7 19  1  0  0  0  0
  8 23  1  0  0  0  0
  9 23  2  0  0  0  0
 10 24  1  0  0  0  0
 11 12  2  0  0  0  0
 11 25  1  0  0  0  0
 12 26  1  0  0  0  0
 13 21  1  0  0  0  0
 13 24  2  0  0  0  0
 14 26  2  0  0  0  0
 14 27  1  0  0  0  0
 15 22  1  0  0  0  0
 15 66  2  0  0  0  0
 16 28  1  0  0  0  0
 17 28  1  0  0  0  0
 17 30  2  0  0  0  0
 17 31  1  0  0  0  0
 18 20  2  0  0  0  0
 18 36  1  0  0  0  0
 19 21  2  0  0  0  0
 19 37  1  0  0  0  0
 20 45  1  0  0  0  0
 21 38  1  0  0  0  0
 22 29  2  0  0  0  0
 22 56  1  0  0  0  0
 23 84  1  0  0  0  0
 24 85  1  0  0  0  0
 25 27  2  0  0  0  0
 25 84  1  0  0  0  0
 26 86  1  0  0  0  0
 27 87  1  0  0  0  0
 28 67  2  0  0  0  0
 29 57  1  0  0  0  0
 29 68  1  0  0  0  0
 30 69  1  0  0  0  0
 30 72  1  0  0  0  0
 31 73  1  0  0  0  0
 31 79  2  0  0  0  0
 32 46  1  0  0  0  0
 32 74  1  0  0  0  0
 32 80  2  0  0  0  0
 33 63  1  0  0  0  0
 33 70  1  0  0  0  0
 33 81  2  0  0  0  0
 34 64  1  0  0  0  0
 34 75  1  0  0  0  0
 34 82  2  0  0  0  0
 35 71  1  0  0  0  0
 35 76  1  0  0  0  0
 35 83  2  0  0  0  0
 36 39  1  0  0  0  0
 37 46  1  0  0  0  0
 38 70  1  0  0  0  0
 39 41  1  0  0  0  0
 40 42  1  0  0  0  0
 40 43  1  0  0  0  0
 41 45  1  0  0  0  0
 42 47  1  0  0  0  0
 43 71  1  0  0  0  0
 44 47  1  0  0  0  0
 44 71  1  0  0  0  0
 45 74  1  0  0  0  0
 46 70  1  0  0  0  0
 47 69  1  0  0  0  0
 48 64  1  0  0  0  0
 49 65  1  0  0  0  0
 50 65  1  0  0  0  0
 51 65  1  0  0  0  0
 52 68  1  0  0  0  0
 53 76  1  0  0  0  0
 54 77  1  0  0  0  0
 55 78  1  0  0  0  0
 56 58  1  0  0  0  0
 57 78  1  0  0  0  0
 58 62  1  0  0  0  0
 59 60  1  0  0  0  0
 59 61  1  0  0  0  0
 60 76  1  0  0  0  0
 61 78  1  0  0  0  0
 62 85  1  0  0  0  0
 63 65  1  0  0  0  0
 63 75  1  0  0  0  0
 64 77  1  0  0  0  0
 66 68  1  0  0  0  0
 67 69  1  0  0  0  0
M  CHG  2  77   1  78   1
M  ISO  4  35 100  62 101  76 100  85 101
M  END
> <Batch ID>
0051

> <Smiles>
CNC(C)C(=O)NC(C(=O)N1Cc2cc([101O:1][101CH2:1]CCc3cnn(C)c3CN(C)CCC[100N:0](C)[100C:0](=O)N3CCCC(n4nc(-c5ccc(Oc6ccc(F)cc6F)cc5)c(C(N)=O)c4N)C3)ccc2CC1C(=O)NC1CCCc2ccccc21)C(C)(C)C

> <Shape>
0.313

> <Color>
0.141

> <Negative vol penalty>
0.000

$$$$

  -OEChem-04052317333D

 88 96  0     1  0  0  0  0  0999 V2000
  -39.4945  -23.4738   30.4291 C   0  0  0  0  0  0  0  0  0  0  0  0
  -39.1240  -22.1666   30.1301 C   0  0  0  0  0  0  0  0  0  0  0  0
  -22.9986   -9.8971   19.9862 C   0  0  0  0  0  0  0  0  0  0  0  0
  -23.7589   -9.9382   22.2791 C   0  0  0  0  0  0  0  0  0  0  0  0
  -38.5792  -24.3360   31.0314 C   0  0  0  0  0  0  0  0  0  0  0  0
  -37.8383  -21.7206   30.4341 C   0  0  0  0  0  0  0  0  0  0  0  0
  -32.7622  -17.2679   28.0417 C   0  0  0  0  0  0  0  0  0  0  0  0
  -22.2402   -8.7585   20.2580 C   0  0  0  0  0  0  0  0  0  0  0  0
  -23.0004   -8.7996   22.5510 C   0  0  0  0  0  0  0  0  0  0  0  0
  -31.9499  -16.2242   28.4828 C   0  0  0  0  0  0  0  0  0  0  0  0
  -23.2489   -5.4641   22.0571 C   0  0  0  0  0  0  0  0  0  0  0  0
  -23.8515   -4.4450   22.7946 C   0  0  0  0  0  0  0  0  0  0  0  0
  -30.4277  -17.8260   29.4506 C   0  0  0  0  0  0  0  0  0  0  0  0
  -22.1526   -4.6727   24.4973 C   0  0  0  0  0  0  0  0  0  0  0  0
  -27.0603  -16.4124   24.7920 C   0  0  0  0  0  0  0  0  0  0  0  0
  -23.7580  -10.4870   20.9967 C   0  0  0  0  0  0  0  0  0  0  0  0
  -24.1319  -13.0048   20.8285 C   0  0  0  0  0  0  0  0  0  0  0  0
  -37.2786  -23.9033   31.3342 C   0  0  0  0  0  0  0  0  0  0  0  0
  -32.4185  -18.6003   28.3117 C   0  0  0  0  0  0  0  0  0  0  0  0
  -36.9052  -22.5775   31.0423 C   0  0  0  0  0  0  0  0  0  0  0  0
  -31.2361  -18.8848   29.0096 C   0  0  0  0  0  0  0  0  0  0  0  0
  -22.2410   -8.2097   21.5404 C   0  0  0  0  0  0  0  0  0  0  0  0
  -30.7839  -16.5030   29.1899 C   0  0  0  0  0  0  0  0  0  0  0  0
  -22.0983   -6.0877   22.5398 C   0  0  0  0  0  0  0  0  0  0  0  0
  -23.3033   -4.0492   24.0147 C   0  0  0  0  0  0  0  0  0  0  0  0
  -21.5502   -5.6920   23.7599 C   0  0  0  0  0  0  0  0  0  0  0  0
  -24.5421  -11.6628   20.7164 C   0  0  0  0  0  0  0  0  0  0  0  0
  -28.3029  -17.0369   25.0103 C   0  0  0  0  0  0  0  0  0  0  0  0
  -27.1398  -15.2348   25.4945 C   0  0  0  0  0  0  0  0  0  0  0  0
  -25.2334  -13.7333   20.4511 C   0  0  0  0  0  0  0  0  0  0  0  0
  -22.8681  -13.5446   21.2374 C   0  0  0  0  0  0  0  0  0  0  0  0
  -33.7630  -20.9788   29.9362 C   0  0  0  0  0  0  0  0  0  0  0  0
  -31.3066  -22.6960   28.6954 C   0  0  0  0  0  0  0  0  0  0  0  0
  -30.7498  -14.6211   20.7188 C   0  0  0  0  0  0  0  0  0  0  0  0
  -28.1521  -22.7155   27.3932 C   0  0  0  0  0  0  0  0  0  0  0  0
  -36.3392  -24.8575   32.0282 C   0  0  0  0  0  0  0  0  0  0  0  0
  -33.2916  -19.7157   27.8058 C   0  0  0  0  0  0  0  0  0  0  0  0
  -30.8119  -20.2989   29.3077 C   0  0  0  0  0  0  0  0  0  0  0  0
  -34.8779  -24.4191   31.9765 C   0  0  0  0  0  0  0  0  0  0  0  0
  -29.5554  -12.2924   18.2712 C   0  0  0  0  0  0  0  0  0  0  0  0
  -34.7506  -22.9419   32.3347 C   0  0  0  0  0  0  0  0  0  0  0  0
  -28.1213  -12.0082   18.7158 C   0  0  0  0  0  0  0  0  0  0  0  0
  -30.4786  -12.5061   19.4666 C   0  0  0  0  0  0  0  0  0  0  0  0
  -28.5850  -13.2916   20.8519 C   0  0  0  0  0  0  0  0  0  0  0  0
  -35.5119  -22.0640   31.3342 C   0  0  1  0  0  0  0  0  0  0  0  0
  -33.1105  -21.0158   28.5832 C   0  0  1  0  0  0  0  0  0  0  0  0
  -27.6131  -13.0999   19.6741 C   0  0  2  0  0  0  0  0  0  0  0  0
  -26.2960  -13.0526   24.5932 C   0  0  0  0  0  0  0  0  0  0  0  0
  -26.0865  -23.6396   26.3085 C   0  0  0  0  0  0  0  0  0  0  0  0
  -27.6970  -15.5892   30.3245 C   0  0  0  0  0  0  0  0  0  0  0  0
  -30.6369  -23.5608   31.5438 C   0  0  0  0  0  0  0  0  0  0  0  0
  -28.3914  -24.2981   30.7176 C   0  0  0  0  0  0  0  0  0  0  0  0
  -30.4597  -25.3766   29.8333 C   0  0  0  0  0  0  0  0  0  0  0  0
  -29.2079  -22.2009   24.6767 C   0  0  0  0  0  0  0  0  0  0  0  0
  -31.8689  -18.2268   23.8180 C   0  0  0  0  0  0  0  0  0  0  0  0
  -28.7601  -18.3340   24.4838 C   0  0  0  0  0  0  0  0  0  0  0  0
  -26.1658  -14.1411   25.6648 C   0  0  0  0  0  0  0  0  0  0  0  0
  -28.4072  -14.1508   28.3800 C   0  0  0  0  0  0  0  0  0  0  0  0
  -28.9603  -14.1486   26.9475 C   0  0  0  0  0  0  0  0  0  0  0  0
  -29.4772  -18.2628   23.1260 C   0  0  0  0  0  0  0  0  0  0  0  0
  -31.0920  -16.7788   21.9468 C   0  0  0  0  0  0  0  0  0  0  0  0
  -29.8967  -23.0139   29.1315 C   0  0  1  0  0  0  0  0  0  0  0  0
  -30.1345  -15.6409   21.6437 C   0  0  1  0  0  0  0  0  0  0  0  0
  -27.5773  -23.3808   26.1557 C   0  0  2  0  0  0  0  0  0  0  0  0
  -28.6467  -15.4612   29.1401 C   0  0  2  0  0  0  0  0  0  1  0  0
  -29.8549  -24.0355   30.3028 C   0  0  0  0  0  0  0  0  0  0  0  0
  -25.8056  -11.5430   20.3001 N   0  0  0  0  0  0  0  0  0  0  0  0
  -29.1124  -16.3159   25.7906 N   0  0  0  0  0  0  0  0  0  0  0  0
  -28.3768  -15.2261   26.0688 N   0  0  0  0  0  0  0  0  0  0  0  0
  -26.1988  -12.8189   20.1473 N   0  0  0  0  0  0  0  0  0  0  0  0
  -31.7021  -21.3547   28.7975 N   0  0  0  0  0  0  0  0  0  0  0  0
  -29.9498  -13.5346   20.3643 N   0  0  0  0  0  0  0  0  0  0  0  0
  -25.4607  -15.0603   20.3528 N   0  0  0  0  0  0  0  0  0  0  0  0
  -21.8448  -12.6550   21.5919 N   0  0  0  0  0  0  0  0  0  0  0  0
  -34.7565  -21.9238   30.1078 N   0  0  0  0  0  0  0  0  0  0  0  0
  -29.1871  -23.4491   27.9334 N   0  0  0  0  0  0  0  0  0  0  0  0
  -27.7840  -22.5164   24.9595 N   0  3  0  0  0  0  0  0  0  0  0  0
  -30.7109  -17.4472   23.2450 N   0  3  1  0  0  0  0  0  0  0  0  0
  -22.6476  -14.7790   21.2712 O   0  0  0  0  0  0  0  0  0  0  0  0
  -33.3915  -20.1549   30.7638 O   0  0  0  0  0  0  0  0  0  0  0  0
  -32.0279  -23.6030   28.2727 O   0  0  0  0  0  0  0  0  0  0  0  0
  -31.9059  -14.7884   20.3218 O   0  0  0  0  0  0  0  0  0  0  0  0
  -27.7232  -21.6533   27.8385 O   0  0  0  0  0  0  0  0  0  0  0  0
  -21.5009   -7.0988   21.8061 O   0  0  0  0  0  0  0  0  0  0  0  0
  -29.9896  -15.4862   29.6221 O   0  0  0  0  0  0  0  0  0  1  0  0
  -23.8811   -3.0695   24.7220 F   0  0  0  0  0  0  0  0  0  0  0  0
  -20.4442   -6.2865   24.2281 F   0  0  0  0  0  0  0  0  0  0  0  0
  -28.9885  -16.1474   21.1148 F   0  0  0  0  0  0  0  0  0  0  0  0
  1  2  1  0  0  0  0
  1  5  2  0  0  0  0
  2  6  2  0  0  0  0
  3  8  2  0  0  0  0
  3 16  1  0  0  0  0
  4  9  1  0  0  0  0
  4 16  2  0  0  0  0
  5 18  1  0  0  0  0
  6 20  1  0  0  0  0
  7 10  2  0  0  0  0
  7 19  1  0  0  0  0
  8 22  1  0  0  0  0
  9 22  2  0  0  0  0
 10 23  1  0  0  0  0
 11 12  2  0  0  0  0
 11 24  1  0  0  0  0
 12 25  1  0  0  0  0
 13 21  1  0  0  0  0
 13 23  2  0  0  0  0
 14 25  2  0  0  0  0
 14 26  1  0  0  0  0
 15 28  1  0  0  0  0
 15 29  2  0  0  0  0
 16 27  1  0  0  0  0
 17 27  1  0  0  0  0
 17 30  2  0  0  0  0
 17 31  1  0  0  0  0
 18 20  2  0  0  0  0
 18 36  1  0  0  0  0
 19 21  2  0  0  0  0
 19 37  1  0  0  0  0
 20 45  1  0  0  0  0
 21 38  1  0  0  0  0
 22 84  1  0  0  0  0
 23 85  1  0  0  0  0
 24 26  2  0  0  0  0
 24 84  1  0  0  0  0
 25 86  1  0  0  0  0
 26 87  1  0  0  0  0
 27 67  2  0  0  0  0
 28 56  1  0  0  0  0
 28 68  2  0  0  0  0
 29 57  1  0  0  0  0
 29 69  1  0  0  0  0
 30 70  1  0  0  0  0
 30 73  1  0  0  0  0
 31 74  1  0  0  0  0
 31 79  2  0  0  0  0
 32 46  1  0  0  0  0
 32 75  1  0  0  0  0
 32 80  2  0  0  0  0
 33 62  1  0  0  0  0
 33 71  1  0  0  0  0
 33 81  2  0  0  0  0
 34 63  1  0  0  0  0
 34 72  1  0  0  0  0
 34 82  2  0  0  0  0
 35 64  1  0  0  0  0
 35 76  1  0  0  0  0
 35 83  2  0  0  0  0
 36 39  1  0  0  0  0
 37 46  1  0  0  0  0
 38 71  1  0  0  0  0
 39 41  1  0  0  0  0
 40 42  1  0  0  0  0
 40 43  1  0  0  0  0
 41 45  1  0  0  0  0
 42 47  1  0  0  0  0
 43 72  1  0  0  0  0
 44 47  1  0  0  0  0
 44 72  1  0  0  0  0
 45 75  1  0  0  0  0
 46 71  1  0  0  0  0
 47 70  1  0  0  0  0
 48 57  1  0  0  0  0
 49 64  1  0  0  0  0
 50 65  1  0  0  0  0
 51 66  1  0  0  0  0
 52 66  1  0  0  0  0
 53 66  1  0  0  0  0
 54 77  1  0  0  0  0
 55 78  1  0  0  0  0
 56 60  1  0  0  0  0
 58 59  1  0  0  0  0
 58 65  1  0  0  0  0
 59 69  1  0  0  0  0
 60 78  1  0  0  0  0
 61 63  1  0  0  0  0
 61 78  1  0  0  0  0
 62 66  1  0  0  0  0
 62 76  1  0  0  0  0
 63 88  1  0  0  0  0
 64 77  1  0  0  0  0
 65 85  1  0  0  0  0
 67 70  1  0  0  0  0
 68 69  1  0  0  0  0
M  CHG  2  77   1  78   1
M  ISO  4  34 100  63 100  65 101  85 101
M  END
> <Batch ID>
0051

> <Smiles>
CCc1cc(CCN(C)C[100CH:0](F)[100C:0](=O)N2CCCC(n3nc(-c4ccc(Oc5ccc(F)cc5F)cc4)c(C(N)=O)c3N)C2)nn1CC[101CH:1](C)[101O:1]c1ccc2c(c1)CN(C(=O)C(NC(=O)C(C)NC)C(C)(C)C)C(C(=O)NC1CCCc3ccccc31)C2

> <Shape>
0.170

> <Color>
0.192

> <Negative vol penalty>
0.000

$$$$

  -OEChem-04052317333D

 87 95  0     1  0  0  0  0  0999 V2000
  -25.3794  -35.4028   23.2046 C   0  0  0  0  0  0  0  0  0  0  0  0
  -25.9582  -34.1401   23.1274 C   0  0  0  0  0  0  0  0  0  0  0  0
  -24.3898   -8.5812   21.2164 C   0  0  0  0  0  0  0  0  0  0  0  0
  -23.6729  -10.5641   22.3958 C   0  0  0  0  0  0  0  0  0  0  0  0
  -23.9990  -35.5276   23.3552 C   0  0  0  0  0  0  0  0  0  0  0  0
  -25.1568  -33.0013   23.2018 C   0  0  0  0  0  0  0  0  0  0  0  0
  -26.3803  -29.5338   19.7199 C   0  0  0  0  0  0  0  0  0  0  0  0
  -23.9746   -7.7927   22.2895 C   0  0  0  0  0  0  0  0  0  0  0  0
  -23.2576   -9.7757   23.4689 C   0  0  0  0  0  0  0  0  0  0  0  0
  -27.5055  -28.7495   19.9702 C   0  0  0  0  0  0  0  0  0  0  0  0
  -22.7728   -5.2278   24.5680 C   0  0  0  0  0  0  0  0  0  0  0  0
  -22.0479   -4.0713   24.2807 C   0  0  0  0  0  0  0  0  0  0  0  0
  -26.0798  -26.9544   20.7211 C   0  0  0  0  0  0  0  0  0  0  0  0
  -20.3409   -5.4065   23.2127 C   0  0  0  0  0  0  0  0  0  0  0  0
  -29.5772  -19.0887   19.5630 C   0  0  0  0  0  0  0  0  0  0  0  0
  -24.2390   -9.9669   21.2695 C   0  0  0  0  0  0  0  0  0  0  0  0
  -23.9036  -11.1697   19.0450 C   0  0  0  0  0  0  0  0  0  0  0  0
  -23.1793  -34.3900   23.4218 C   0  0  0  0  0  0  0  0  0  0  0  0
  -25.0947  -29.0373   19.9790 C   0  0  0  0  0  0  0  0  0  0  0  0
  -23.7643  -33.1110   23.3548 C   0  0  0  0  0  0  0  0  0  0  0  0
  -24.9398  -27.7334   20.4708 C   0  0  0  0  0  0  0  0  0  0  0  0
  -23.4085   -8.3900   23.4157 C   0  0  0  0  0  0  0  0  0  0  0  0
  -27.3555  -27.4607   20.4736 C   0  0  0  0  0  0  0  0  0  0  0  0
  -22.2817   -6.4737   24.1777 C   0  0  0  0  0  0  0  0  0  0  0  0
  -20.8320   -4.1606   23.6031 C   0  0  0  0  0  0  0  0  0  0  0  0
  -21.0658   -6.5630   23.5001 C   0  0  0  0  0  0  0  0  0  0  0  0
  -24.6683  -10.7819   20.1616 C   0  0  0  0  0  0  0  0  0  0  0  0
  -30.6012  -18.3970   18.9545 C   0  0  0  0  0  0  0  0  0  0  0  0
  -30.7808  -21.0252   19.3876 C   0  0  0  0  0  0  0  0  0  0  0  0
  -31.8053  -20.3334   18.7797 C   0  0  0  0  0  0  0  0  0  0  0  0
  -24.7613  -11.9306   18.2889 C   0  0  0  0  0  0  0  0  0  0  0  0
  -22.5397  -10.8691   18.7205 C   0  0  0  0  0  0  0  0  0  0  0  0
  -22.7118  -29.8784   21.9072 C   0  0  0  0  0  0  0  0  0  0  0  0
  -21.1230  -27.5331   20.3268 C   0  0  0  0  0  0  0  0  0  0  0  0
  -21.2745  -24.6569   18.4962 C   0  0  0  0  0  0  0  0  0  0  0  0
  -28.4720  -15.7842   17.7049 C   0  0  0  0  0  0  0  0  0  0  0  0
  -21.6973  -34.5744   23.6324 C   0  0  0  0  0  0  0  0  0  0  0  0
  -23.8900  -29.8862   19.6783 C   0  0  0  0  0  0  0  0  0  0  0  0
  -23.5805  -27.1462   20.7467 C   0  0  0  0  0  0  0  0  0  0  0  0
  -20.8782  -33.3230   23.3266 C   0  0  0  0  0  0  0  0  0  0  0  0
  -29.7488  -12.6294   18.6477 C   0  0  0  0  0  0  0  0  0  0  0  0
  -21.5192  -32.0958   23.9670 C   0  0  0  0  0  0  0  0  0  0  0  0
  -28.4709  -11.8929   19.0470 C   0  0  0  0  0  0  0  0  0  0  0  0
  -29.7380  -14.0888   19.1064 C   0  0  0  0  0  0  0  0  0  0  0  0
  -27.2640  -14.1075   19.0693 C   0  0  0  0  0  0  0  0  0  0  0  0
  -22.9257  -31.8523   23.4068 C   0  0  1  0  0  0  0  0  0  0  0  0
  -22.6516  -29.4656   20.4638 C   0  0  1  0  0  0  0  0  0  0  0  0
  -27.2236  -12.6557   18.5679 C   0  0  2  0  0  0  0  0  0  0  0  0
  -34.2789  -20.1150   18.4335 C   0  0  0  0  0  0  0  0  0  0  0  0
  -31.0970  -15.6822   15.1620 C   0  0  0  0  0  0  0  0  0  0  0  0
  -19.8091  -22.9535   17.3790 C   0  0  0  0  0  0  0  0  0  0  0  0
  -20.4677  -26.3164   23.0471 C   0  0  0  0  0  0  0  0  0  0  0  0
  -19.8607  -24.1905   21.8722 C   0  0  0  0  0  0  0  0  0  0  0  0
  -18.5807  -26.2803   21.4063 C   0  0  0  0  0  0  0  0  0  0  0  0
  -22.4194  -25.2489   15.8321 C   0  0  0  0  0  0  0  0  0  0  0  0
  -30.8735  -22.5095   19.6364 C   0  0  0  0  0  0  0  0  0  0  0  0
  -33.0529  -21.0201   18.3398 C   0  0  0  0  0  0  0  0  0  0  0  0
  -30.4872  -16.9317   18.7185 C   0  0  0  0  0  0  0  0  0  0  0  0
  -31.0501  -17.1198   15.6606 C   0  0  0  0  0  0  0  0  0  0  0  0
  -29.5363  -23.1596   20.0087 C   0  0  0  0  0  0  0  0  0  0  0  0
  -29.6353  -24.6759   20.1815 C   0  0  0  0  0  0  0  0  0  0  0  0
  -29.7653  -17.4401   16.4150 C   0  0  0  0  0  0  0  0  0  0  0  0
  -28.2987  -25.2805   20.5893 C   0  0  0  0  0  0  0  0  0  1  0  0
  -20.9381  -26.0477   20.5227 C   0  0  1  0  0  0  0  0  0  0  0  0
  -20.5891  -24.2474   17.2051 C   0  0  2  0  0  0  0  0  0  0  0  0
  -19.9876  -25.7202   21.7088 C   0  0  0  0  0  0  0  0  0  0  0  0
  -29.6485  -20.4152   19.7904 N   0  0  0  0  0  0  0  0  0  0  0  0
  -25.9160  -11.2570   20.1222 N   0  0  0  0  0  0  0  0  0  0  0  0
  -31.7337  -19.0069   18.5520 N   0  0  0  0  0  0  0  0  0  0  0  0
  -25.9418  -11.9512   18.9717 N   0  0  0  0  0  0  0  0  0  0  0  0
  -22.4336  -28.0177   20.4425 N   0  0  0  0  0  0  0  0  0  0  0  0
  -28.5098  -14.7662   18.6690 N   0  0  0  0  0  0  0  0  0  0  0  0
  -24.6135  -12.5773   17.1132 N   0  0  0  0  0  0  0  0  0  0  0  0
  -21.8016  -10.0737   19.6075 N   0  0  0  0  0  0  0  0  0  0  0  0
  -22.8493  -31.2401   22.0977 N   0  0  0  0  0  0  0  0  0  0  0  0
  -20.4942  -25.5187   19.2376 N   0  0  0  0  0  0  0  0  0  0  0  0
  -29.5989  -16.6136   17.6022 N   0  0  0  0  0  0  0  0  0  0  0  0
  -21.5960  -24.0476   16.1248 N   0  3  0  0  0  0  0  0  0  0  0  0
  -21.9969  -11.2796   17.6668 O   0  0  0  0  0  0  0  0  0  0  0  0
  -22.6375  -29.0249   22.7834 O   0  0  0  0  0  0  0  0  0  0  0  0
  -20.1419  -28.2365   20.0732 O   0  0  0  0  0  0  0  0  0  0  0  0
  -22.3890  -24.2499   18.8168 O   0  0  0  0  0  0  0  0  0  0  0  0
  -27.4825  -15.9496   16.9799 O   0  0  0  0  0  0  0  0  0  0  0  0
  -23.0030   -7.6209   24.4629 O   0  0  0  0  0  0  0  0  0  0  0  0
  -28.4521  -26.6933   20.7195 O   0  0  0  0  0  0  0  0  0  1  0  0
  -20.1367   -3.0498   23.3259 F   0  0  0  0  0  0  0  0  0  0  0  0
  -20.5896   -7.7570   23.1215 F   0  0  0  0  0  0  0  0  0  0  0  0
  1  2  1  0  0  0  0
  1  5  2  0  0  0  0
  2  6  2  0  0  0  0
  3  8  2  0  0  0  0
  3 16  1  0  0  0  0
  4  9  1  0  0  0  0
  4 16  2  0  0  0  0
  5 18  1  0  0  0  0
  6 20  1  0  0  0  0
  7 10  2  0  0  0  0
  7 19  1  0  0  0  0
  8 22  1  0  0  0  0
  9 22  2  0  0  0  0
 10 23  1  0  0  0  0
 11 12  2  0  0  0  0
 11 24  1  0  0  0  0
 12 25  1  0  0  0  0
 13 21  1  0  0  0  0
 13 23  2  0  0  0  0
 14 25  2  0  0  0  0
 14 26  1  0  0  0  0
 15 28  1  0  0  0  0
 15 67  2  0  0  0  0
 16 27  1  0  0  0  0
 17 27  1  0  0  0  0
 17 31  2  0  0  0  0
 17 32  1  0  0  0  0
 18 20  2  0  0  0  0
 18 37  1  0  0  0  0
 19 21  2  0  0  0  0
 19 38  1  0  0  0  0
 20 46  1  0  0  0  0
 21 39  1  0  0  0  0
 22 84  1  0  0  0  0
 23 85  1  0  0  0  0
 24 26  2  0  0  0  0
 24 84  1  0  0  0  0
 25 86  1  0  0  0  0
 26 87  1  0  0  0  0
 27 68  2  0  0  0  0
 28 58  1  0  0  0  0
 28 69  2  0  0  0  0
 29 30  2  0  0  0  0
 29 56  1  0  0  0  0
 29 67  1  0  0  0  0
 30 57  1  0  0  0  0
 30 69  1  0  0  0  0
 31 70  1  0  0  0  0
 31 73  1  0  0  0  0
 32 74  1  0  0  0  0
 32 79  2  0  0  0  0
 33 47  1  0  0  0  0
 33 75  1  0  0  0  0
 33 80  2  0  0  0  0
 34 64  1  0  0  0  0
 34 71  1  0  0  0  0
 34 81  2  0  0  0  0
 35 65  1  0  0  0  0
 35 76  1  0  0  0  0
 35 82  2  0  0  0  0
 36 72  1  0  0  0  0
 36 77  1  0  0  0  0
 36 83  2  0  0  0  0
 37 40  1  0  0  0  0
 38 47  1  0  0  0  0
 39 71  1  0  0  0  0
 40 42  1  0  0  0  0
 41 43  1  0  0  0  0
 41 44  1  0  0  0  0
 42 46  1  0  0  0  0
 43 48  1  0  0  0  0
 44 72  1  0  0  0  0
 45 48  1  0  0  0  0
 45 72  1  0  0  0  0
 46 75  1  0  0  0  0
 47 71  1  0  0  0  0
 48 70  1  0  0  0  0
 49 57  1  0  0  0  0
 50 59  1  0  0  0  0
 51 65  1  0  0  0  0
 52 66  1  0  0  0  0
 53 66  1  0  0  0  0
 54 66  1  0  0  0  0
 55 78  1  0  0  0  0
 56 60  1  0  0  0  0
 58 77  1  0  0  0  0
 59 62  1  0  0  0  0
 60 61  1  0  0  0  0
 61 63  1  0  0  0  0
 62 77  1  0  0  0  0
 63 85  1  0  0  0  0
 64 66  1  0  0  0  0
 64 76  1  0  0  0  0
 65 78  1  0  0  0  0
 68 70  1  0  0  0  0
M  CHG  1  78   1
M  ISO  4  36 100  63 101  77 100  85 101
M  END
> <Batch ID>
0051

> <Smiles>
CCC[100N:0](Cc1cnc(CCC[101CH2:1][101O:1]c2ccc3c(c2)CN(C(=O)C(NC(=O)C(C)NC)C(C)(C)C)C(C(=O)NC2CCCc4ccccc42)C3)c(CC)n1)[100C:0](=O)N1CCCC(n2nc(-c3ccc(Oc4ccc(F)cc4F)cc3)c(C(N)=O)c2N)C1

> <Shape>
0.274

> <Color>
0.096

> <Negative vol penalty>
0.000

$$$$

  -OEChem-04052317333D

 87 95  0     1  0  0  0  0  0999 V2000
  -27.0350  -36.6162   16.9257 C   0  0  0  0  0  0  0  0  0  0  0  0
  -27.3118  -35.2546   16.8550 C   0  0  0  0  0  0  0  0  0  0  0  0
  -22.3081  -10.3386   20.5963 C   0  0  0  0  0  0  0  0  0  0  0  0
  -24.2660   -9.5210   21.7518 C   0  0  0  0  0  0  0  0  0  0  0  0
  -26.8488  -37.2251   18.1660 C   0  0  0  0  0  0  0  0  0  0  0  0
  -27.4035  -34.5013   18.0248 C   0  0  0  0  0  0  0  0  0  0  0  0
  -25.7040  -28.6676   18.7898 C   0  0  0  0  0  0  0  0  0  0  0  0
  -21.7628   -9.0549   20.6119 C   0  0  0  0  0  0  0  0  0  0  0  0
  -23.7207   -8.2373   21.7674 C   0  0  0  0  0  0  0  0  0  0  0  0
  -26.4223  -27.4728   18.7829 C   0  0  0  0  0  0  0  0  0  0  0  0
  -21.4080   -6.5368   23.5509 C   0  0  0  0  0  0  0  0  0  0  0  0
  -21.4813   -5.8177   24.7438 C   0  0  0  0  0  0  0  0  0  0  0  0
  -26.5705  -27.5550   21.1893 C   0  0  0  0  0  0  0  0  0  0  0  0
  -22.7587   -4.0971   23.6282 C   0  0  0  0  0  0  0  0  0  0  0  0
  -31.6913  -22.1413   18.5462 C   0  0  0  0  0  0  0  0  0  0  0  0
  -23.5598  -10.5717   21.1662 C   0  0  0  0  0  0  0  0  0  0  0  0
  -23.9670  -12.9001   22.1254 C   0  0  0  0  0  0  0  0  0  0  0  0
  -26.9288  -36.4769   19.3512 C   0  0  0  0  0  0  0  0  0  0  0  0
  -25.4225  -29.3219   19.9978 C   0  0  0  0  0  0  0  0  0  0  0  0
  -27.2196  -35.1010   19.2823 C   0  0  0  0  0  0  0  0  0  0  0  0
  -25.8462  -28.7567   21.2090 C   0  0  0  0  0  0  0  0  0  0  0  0
  -22.4690   -8.0042   21.1975 C   0  0  0  0  0  0  0  0  0  0  0  0
  -26.8582  -26.9178   19.9825 C   0  0  0  0  0  0  0  0  0  0  0  0
  -22.0100   -6.0360   22.3965 C   0  0  0  0  0  0  0  0  0  0  0  0
  -22.1567   -4.5979   24.7825 C   0  0  0  0  0  0  0  0  0  0  0  0
  -22.6854   -4.8162   22.4352 C   0  0  0  0  0  0  0  0  0  0  0  0
  -24.1239  -11.8974   21.1498 C   0  0  0  0  0  0  0  0  0  0  0  0
  -31.7283  -23.5207   18.5385 C   0  0  0  0  0  0  0  0  0  0  0  0
  -32.8521  -21.5152   18.9522 C   0  0  0  0  0  0  0  0  0  0  0  0
  -24.6943  -13.9622   21.6463 C   0  0  0  0  0  0  0  0  0  0  0  0
  -33.8791  -23.5174   19.2741 C   0  0  0  0  0  0  0  0  0  0  0  0
  -23.2299  -12.8738   23.3549 C   0  0  0  0  0  0  0  0  0  0  0  0
  -26.1629  -32.1518   21.2416 C   0  0  0  0  0  0  0  0  0  0  0  0
  -24.1402  -31.2102   23.5961 C   0  0  0  0  0  0  0  0  0  0  0  0
  -22.6274  -28.6442   25.2617 C   0  0  0  0  0  0  0  0  0  0  0  0
  -29.0970  -16.1201   19.4279 C   0  0  0  0  0  0  0  0  0  0  0  0
  -26.7669  -37.1884   20.6711 C   0  0  0  0  0  0  0  0  0  0  0  0
  -24.6234  -30.5962   19.9902 C   0  0  0  0  0  0  0  0  0  0  0  0
  -25.5524  -29.4091   22.5343 C   0  0  0  0  0  0  0  0  0  0  0  0
  -26.5100  -36.2456   21.8438 C   0  0  0  0  0  0  0  0  0  0  0  0
  -26.7932  -14.7579   17.1238 C   0  0  0  0  0  0  0  0  0  0  0  0
  -27.4824  -35.0709   21.8073 C   0  0  0  0  0  0  0  0  0  0  0  0
  -25.8762  -13.9592   18.0491 C   0  0  0  0  0  0  0  0  0  0  0  0
  -28.2623  -14.6483   17.5362 C   0  0  0  0  0  0  0  0  0  0  0  0
  -27.5968  -14.2018   19.8773 C   0  0  0  0  0  0  0  0  0  0  0  0
  -27.3025  -34.2453   20.5277 C   0  0  1  0  0  0  0  0  0  0  0  0
  -24.8379  -31.4434   21.2406 C   0  0  1  0  0  0  0  0  0  0  0  0
  -26.1091  -14.3438   19.5204 C   0  0  2  0  0  0  0  0  0  0  0  0
  -35.0933  -24.2810   19.6820 C   0  0  0  0  0  0  0  0  0  0  0  0
  -21.0571  -28.1851   27.1645 C   0  0  0  0  0  0  0  0  0  0  0  0
  -26.3809  -31.7943   25.5830 C   0  0  0  0  0  0  0  0  0  0  0  0
  -25.1269  -30.4531   27.2850 C   0  0  0  0  0  0  0  0  0  0  0  0
  -24.1077  -32.5205   26.3311 C   0  0  0  0  0  0  0  0  0  0  0  0
  -30.9815  -15.8085   17.7677 C   0  0  0  0  0  0  0  0  0  0  0  0
  -20.6600  -27.3404   23.4760 C   0  0  0  0  0  0  0  0  0  0  0  0
  -32.9251  -19.5720   21.4434 C   0  0  0  0  0  0  0  0  0  0  0  0
  -30.5069  -24.2944   18.1104 C   0  0  0  0  0  0  0  0  0  0  0  0
  -32.9070  -20.0247   18.9948 C   0  0  0  0  0  0  0  0  0  0  0  0
  -29.5553  -24.6292   19.2610 C   0  0  0  0  0  0  0  0  0  0  0  0
  -30.6215  -17.9794   18.8829 C   0  0  0  0  0  0  0  0  0  0  0  0
  -31.7493  -18.0133   19.8974 C   0  0  0  0  0  0  0  0  0  0  0  0
  -28.3680  -25.4841   18.8332 C   0  0  0  0  0  0  0  0  0  1  0  0
  -24.2880  -30.4497   24.8918 C   0  0  1  0  0  0  0  0  0  0  0  0
  -21.1818  -28.4199   25.6671 C   0  0  2  0  0  0  0  0  0  0  0  0
  -24.9832  -31.2929   25.9978 C   0  0  0  0  0  0  0  0  0  0  0  0
  -24.8905  -12.2876   20.1280 N   0  0  0  0  0  0  0  0  0  0  0  0
  -32.8094  -24.2436   18.8976 N   0  0  0  0  0  0  0  0  0  0  0  0
  -33.9689  -22.1746   19.3242 N   0  0  0  0  0  0  0  0  0  0  0  0
  -25.2218  -13.5473   20.4589 N   0  0  0  0  0  0  0  0  0  0  0  0
  -24.7733  -30.6569   22.4741 N   0  0  0  0  0  0  0  0  0  0  0  0
  -28.4330  -14.9774   18.9580 N   0  0  0  0  0  0  0  0  0  0  0  0
  -24.9277  -15.2011   22.1290 N   0  0  0  0  0  0  0  0  0  0  0  0
  -22.5392  -11.7026   23.6949 N   0  0  0  0  0  0  0  0  0  0  0  0
  -26.1376  -33.3934   20.6354 N   0  0  0  0  0  0  0  0  0  0  0  0
  -22.9516  -29.9843   25.2467 N   0  0  0  0  0  0  0  0  0  0  0  0
  -30.1401  -16.6271   18.6385 N   0  0  0  0  0  0  0  0  0  0  0  0
  -20.6226  -27.2348   24.9574 N   0  3  0  0  0  0  0  0  0  0  0  0
  -32.1679  -19.4395   20.1470 N   0  3  1  0  0  0  0  0  0  0  0  0
  -23.1716  -13.8653   24.1212 O   0  0  0  0  0  0  0  0  0  0  0  0
  -27.1360  -31.6126   21.7555 O   0  0  0  0  0  0  0  0  0  0  0  0
  -23.4811  -32.2527   23.5786 O   0  0  0  0  0  0  0  0  0  0  0  0
  -23.3934  -27.7225   24.9893 O   0  0  0  0  0  0  0  0  0  0  0  0
  -28.7814  -16.6547   20.4988 O   0  0  0  0  0  0  0  0  0  0  0  0
  -21.9371   -6.7515   21.2131 O   0  0  0  0  0  0  0  0  0  0  0  0
  -27.5601  -25.7519   19.9786 O   0  0  0  0  0  0  0  0  0  1  0  0
  -22.2283   -3.9082   25.9285 F   0  0  0  0  0  0  0  0  0  0  0  0
  -23.2667   -4.3305   21.3297 F   0  0  0  0  0  0  0  0  0  0  0  0
  1  2  1  0  0  0  0
  1  5  2  0  0  0  0
  2  6  2  0  0  0  0
  3  8  2  0  0  0  0
  3 16  1  0  0  0  0
  4  9  1  0  0  0  0
  4 16  2  0  0  0  0
  5 18  1  0  0  0  0
  6 20  1  0  0  0  0
  7 10  2  0  0  0  0
  7 19  1  0  0  0  0
  8 22  1  0  0  0  0
  9 22  2  0  0  0  0
 10 23  1  0  0  0  0
 11 12  2  0  0  0  0
 11 24  1  0  0  0  0
 12 25  1  0  0  0  0
 13 21  1  0  0  0  0
 13 23  2  0  0  0  0
 14 25  2  0  0  0  0
 14 26  1  0  0  0  0
 15 28  1  0  0  0  0
 15 29  2  0  0  0  0
 16 27  1  0  0  0  0
 17 27  1  0  0  0  0
 17 30  2  0  0  0  0
 17 32  1  0  0  0  0
 18 20  2  0  0  0  0
 18 37  1  0  0  0  0
 19 21  2  0  0  0  0
 19 38  1  0  0  0  0
 20 46  1  0  0  0  0
 21 39  1  0  0  0  0
 22 84  1  0  0  0  0
 23 85  1  0  0  0  0
 24 26  2  0  0  0  0
 24 84  1  0  0  0  0
 25 86  1  0  0  0  0
 26 87  1  0  0  0  0
 27 66  2  0  0  0  0
 28 57  1  0  0  0  0
 28 67  2  0  0  0  0
 29 58  1  0  0  0  0
 29 68  1  0  0  0  0
 30 69  1  0  0  0  0
 30 72  1  0  0  0  0
 31 49  1  0  0  0  0
 31 67  1  0  0  0  0
 31 68  2  0  0  0  0
 32 73  1  0  0  0  0
 32 79  2  0  0  0  0
 33 47  1  0  0  0  0
 33 74  1  0  0  0  0
 33 80  2  0  0  0  0
 34 63  1  0  0  0  0
 34 70  1  0  0  0  0
 34 81  2  0  0  0  0
 35 64  1  0  0  0  0
 35 75  1  0  0  0  0
 35 82  2  0  0  0  0
 36 71  1  0  0  0  0
 36 76  1  0  0  0  0
 36 83  2  0  0  0  0
 37 40  1  0  0  0  0
 38 47  1  0  0  0  0
 39 70  1  0  0  0  0
 40 42  1  0  0  0  0
 41 43  1  0  0  0  0
 41 44  1  0  0  0  0
 42 46  1  0  0  0  0
 43 48  1  0  0  0  0
 44 71  1  0  0  0  0
 45 48  1  0  0  0  0
 45 71  1  0  0  0  0
 46 74  1  0  0  0  0
 47 70  1  0  0  0  0
 48 69  1  0  0  0  0
 50 64  1  0  0  0  0
 51 65  1  0  0  0  0
 52 65  1  0  0  0  0
 53 65  1  0  0  0  0
 54 76  1  0  0  0  0
 55 77  1  0  0  0  0
 56 78  1  0  0  0  0
 57 59  1  0  0  0  0
 58 78  1  0  0  0  0
 59 62  1  0  0  0  0
 60 61  1  0  0  0  0
 60 76  1  0  0  0  0
 61 78  1  0  0  0  0
 62 85  1  0  0  0  0
 63 65  1  0  0  0  0
 63 75  1  0  0  0  0
 64 77  1  0  0  0  0
 66 69  1  0  0  0  0
M  CHG  2  77   1  78   1
M  ISO  4  36 100  62 101  76 100  85 101
M  END
> <Batch ID>
0051

> <Smiles>
CNC(C)C(=O)NC(C(=O)N1Cc2cc([101O:1][101CH2:1]CCc3cc(CN(C)CC[100N:0](C)[100C:0](=O)N4CCCC(n5nc(-c6ccc(Oc7ccc(F)cc7F)cc6)c(C(N)=O)c5N)C4)nc(C)n3)ccc2CC1C(=O)NC1CCCc2ccccc21)C(C)(C)C

> <Shape>
0.266

> <Color>
0.126

> <Negative vol penalty>
0.000

$$$$

  -OEChem-04052317333D

 86 94  0     1  0  0  0  0  0999 V2000
  -20.3853  -30.3515   24.5309 C   0  0  0  0  0  0  0  0  0  0  0  0
  -21.6605  -29.8524   24.2854 C   0  0  0  0  0  0  0  0  0  0  0  0
  -23.5722   -9.7575   19.8408 C   0  0  0  0  0  0  0  0  0  0  0  0
  -24.4365   -9.7056   22.0963 C   0  0  0  0  0  0  0  0  0  0  0  0
  -19.2694  -29.6946   24.0140 C   0  0  0  0  0  0  0  0  0  0  0  0
  -21.8205  -28.6954   23.5237 C   0  0  0  0  0  0  0  0  0  0  0  0
  -25.5277  -29.1206   20.1001 C   0  0  0  0  0  0  0  0  0  0  0  0
  -23.1999   -8.4180   19.9526 C   0  0  0  0  0  0  0  0  0  0  0  0
  -24.0642   -8.3660   22.2082 C   0  0  0  0  0  0  0  0  0  0  0  0
  -26.8373  -28.9901   20.5602 C   0  0  0  0  0  0  0  0  0  0  0  0
  -21.2342   -6.6080   22.7748 C   0  0  0  0  0  0  0  0  0  0  0  0
  -20.5914   -6.2113   23.9474 C   0  0  0  0  0  0  0  0  0  0  0  0
  -26.8788  -26.7089   19.7769 C   0  0  0  0  0  0  0  0  0  0  0  0
  -22.3706   -4.6380   24.3905 C   0  0  0  0  0  0  0  0  0  0  0  0
  -32.9027  -23.5186   21.6826 C   0  0  0  0  0  0  0  0  0  0  0  0
  -31.6395  -22.7351   19.8807 C   0  0  0  0  0  0  0  0  0  0  0  0
  -24.1906  -10.4014   20.9127 C   0  0  0  0  0  0  0  0  0  0  0  0
  -23.7991  -12.9135   21.1214 C   0  0  0  0  0  0  0  0  0  0  0  0
  -19.4164  -28.5344   23.2374 C   0  0  0  0  0  0  0  0  0  0  0  0
  -24.8789  -28.0410   19.4837 C   0  0  0  0  0  0  0  0  0  0  0  0
  -20.7054  -28.0216   22.9970 C   0  0  0  0  0  0  0  0  0  0  0  0
  -25.5618  -26.8290   19.3076 C   0  0  0  0  0  0  0  0  0  0  0  0
  -32.3116  -22.4439   21.0501 C   0  0  0  0  0  0  0  0  0  0  0  0
  -23.4459   -7.7222   21.1363 C   0  0  0  0  0  0  0  0  0  0  0  0
  -27.5120  -27.7832   20.4012 C   0  0  0  0  0  0  0  0  0  0  0  0
  -22.4452   -6.0196   22.4099 C   0  0  0  0  0  0  0  0  0  0  0  0
  -21.1596   -5.2264   24.7553 C   0  0  0  0  0  0  0  0  0  0  0  0
  -23.0133   -5.0347   23.2178 C   0  0  0  0  0  0  0  0  0  0  0  0
  -24.5759  -11.7850   20.7976 C   0  0  0  0  0  0  0  0  0  0  0  0
  -24.6118  -13.9832   20.8355 C   0  0  0  0  0  0  0  0  0  0  0  0
  -32.1636  -24.9390   20.0690 C   0  0  0  0  0  0  0  0  0  0  0  0
  -22.4625  -12.9882   21.6349 C   0  0  0  0  0  0  0  0  0  0  0  0
  -22.2950  -26.3081   20.1352 C   0  0  0  0  0  0  0  0  0  0  0  0
  -22.9206  -24.9971   17.2348 C   0  0  0  0  0  0  0  0  0  0  0  0
  -25.2102  -24.3089   14.7995 C   0  0  0  0  0  0  0  0  0  0  0  0
  -29.3273  -16.5718   20.9911 C   0  0  0  0  0  0  0  0  0  0  0  0
  -18.1778  -27.8324   22.7396 C   0  0  0  0  0  0  0  0  0  0  0  0
  -23.4753  -28.2062   18.9689 C   0  0  0  0  0  0  0  0  0  0  0  0
  -24.9170  -25.6461   18.6342 C   0  0  0  0  0  0  0  0  0  0  0  0
  -18.4549  -26.8229   21.6285 C   0  0  0  0  0  0  0  0  0  0  0  0
  -29.0120  -14.2245   18.3714 C   0  0  0  0  0  0  0  0  0  0  0  0
  -19.6480  -25.9443   21.9908 C   0  0  0  0  0  0  0  0  0  0  0  0
  -27.7615  -13.4583   18.8005 C   0  0  0  0  0  0  0  0  0  0  0  0
  -29.9157  -14.5606   19.5591 C   0  0  0  0  0  0  0  0  0  0  0  0
  -27.9701  -14.5027   21.0869 C   0  0  0  0  0  0  0  0  0  0  0  0
  -20.9212  -26.7831   22.1546 C   0  0  1  0  0  0  0  0  0  0  0  0
  -22.7345  -26.8812   18.8176 C   0  0  1  0  0  0  0  0  0  0  0  0
  -27.0158  -14.2052   19.9201 C   0  0  2  0  0  0  0  0  0  0  0  0
  -25.4320  -23.1922   12.5631 C   0  0  0  0  0  0  0  0  0  0  0  0
  -22.8563  -22.2664   18.5947 C   0  0  0  0  0  0  0  0  0  0  0  0
  -23.9963  -21.3136   16.5795 C   0  0  0  0  0  0  0  0  0  0  0  0
  -21.7359  -22.3457   16.3602 C   0  0  0  0  0  0  0  0  0  0  0  0
  -31.8476  -16.3533   20.9184 C   0  0  0  0  0  0  0  0  0  0  0  0
  -26.0405  -26.8311   13.4927 C   0  0  0  0  0  0  0  0  0  0  0  0
  -30.9116  -21.1937   23.5920 C   0  0  0  0  0  0  0  0  0  0  0  0
  -32.3917  -21.0664   21.5936 C   0  0  0  0  0  0  0  0  0  0  0  0
  -32.0772  -26.3403   19.5192 C   0  0  0  0  0  0  0  0  0  0  0  0
  -31.0768  -27.2315   20.2586 C   0  0  0  0  0  0  0  0  0  0  0  0
  -30.7658  -18.5695   20.8560 C   0  0  0  0  0  0  0  0  0  0  0  0
  -31.0225  -19.0949   22.2561 C   0  0  0  0  0  0  0  0  0  0  0  0
  -29.6366  -26.7455   20.1454 C   0  0  0  0  0  0  0  0  0  1  0  0
  -23.7450  -23.8317   16.7437 C   0  0  1  0  0  0  0  0  0  0  0  0
  -25.1676  -24.4993   13.2940 C   0  0  2  0  0  0  0  0  0  0  0  0
  -23.0951  -22.4609   17.0840 C   0  0  0  0  0  0  0  0  0  0  0  0
  -32.8483  -24.7842   21.2183 N   0  0  0  0  0  0  0  0  0  0  0  0
  -31.5449  -23.9760   19.3595 N   0  0  0  0  0  0  0  0  0  0  0  0
  -25.7888  -12.1077   20.3407 N   0  0  0  0  0  0  0  0  0  0  0  0
  -25.7803  -13.4511   20.3754 N   0  0  0  0  0  0  0  0  0  0  0  0
  -23.5413  -25.8553   18.1536 N   0  0  0  0  0  0  0  0  0  0  0  0
  -29.1548  -15.2293   20.6234 N   0  0  0  0  0  0  0  0  0  0  0  0
  -24.4337  -15.3177   20.9352 N   0  0  0  0  0  0  0  0  0  0  0  0
  -21.7701  -11.7929   21.8719 N   0  0  0  0  0  0  0  0  0  0  0  0
  -21.4621  -27.1388   20.8602 N   0  0  0  0  0  0  0  0  0  0  0  0
  -23.9580  -24.0545   15.3177 N   0  0  0  0  0  0  0  0  0  0  0  0
  -30.6078  -17.1222   20.8303 N   0  0  0  0  0  0  0  0  0  0  0  0
  -26.1944  -25.4920   12.8682 N   0  3  0  0  0  0  0  0  0  0  0  0
  -31.1241  -20.5969   22.2260 N   0  3  1  0  0  0  0  0  0  0  0  0
  -21.8930  -14.0828   21.8608 O   0  0  0  0  0  0  0  0  0  0  0  0
  -22.6816  -25.1941   20.4686 O   0  0  0  0  0  0  0  0  0  0  0  0
  -21.7708  -25.1447   16.8131 O   0  0  0  0  0  0  0  0  0  0  0  0
  -26.2508  -24.3751   15.4501 O   0  0  0  0  0  0  0  0  0  0  0  0
  -28.3910  -17.2414   21.4461 O   0  0  0  0  0  0  0  0  0  0  0  0
  -23.0825   -6.4151   21.2459 O   0  0  0  0  0  0  0  0  0  0  0  0
  -28.7901  -27.6530   20.8500 O   0  0  0  0  0  0  0  0  0  1  0  0
  -20.5430   -4.8466   25.8821 F   0  0  0  0  0  0  0  0  0  0  0  0
  -24.1771   -4.4666   22.8731 F   0  0  0  0  0  0  0  0  0  0  0  0
  1  2  1  0  0  0  0
  1  5  2  0  0  0  0
  2  6  2  0  0  0  0
  3  8  2  0  0  0  0
  3 17  1  0  0  0  0
  4  9  1  0  0  0  0
  4 17  2  0  0  0  0
  5 19  1  0  0  0  0
  6 21  1  0  0  0  0
  7 10  2  0  0  0  0
  7 20  1  0  0  0  0
  8 24  1  0  0  0  0
  9 24  2  0  0  0  0
 10 25  1  0  0  0  0
 11 12  2  0  0  0  0
 11 26  1  0  0  0  0
 12 27  1  0  0  0  0
 13 22  1  0  0  0  0
 13 25  2  0  0  0  0
 14 27  2  0  0  0  0
 14 28  1  0  0  0  0
 15 23  1  0  0  0  0
 15 65  2  0  0  0  0
 16 23  2  0  0  0  0
 16 66  1  0  0  0  0
 17 29  1  0  0  0  0
 18 29  1  0  0  0  0
 18 30  2  0  0  0  0
 18 32  1  0  0  0  0
 19 21  2  0  0  0  0
 19 37  1  0  0  0  0
 20 22  2  0  0  0  0
 20 38  1  0  0  0  0
 21 46  1  0  0  0  0
 22 39  1  0  0  0  0
 23 56  1  0  0  0  0
 24 83  1  0  0  0  0
 25 84  1  0  0  0  0
 26 28  2  0  0  0  0
 26 83  1  0  0  0  0
 27 85  1  0  0  0  0
 28 86  1  0  0  0  0
 29 67  2  0  0  0  0
 30 68  1  0  0  0  0
 30 71  1  0  0  0  0
 31 57  1  0  0  0  0
 31 65  1  0  0  0  0
 31 66  2  0  0  0  0
 32 72  1  0  0  0  0
 32 78  2  0  0  0  0
 33 47  1  0  0  0  0
 33 73  1  0  0  0  0
 33 79  2  0  0  0  0
 34 62  1  0  0  0  0
 34 69  1  0  0  0  0
 34 80  2  0  0  0  0
 35 63  1  0  0  0  0
 35 74  1  0  0  0  0
 35 81  2  0  0  0  0
 36 70  1  0  0  0  0
 36 75  1  0  0  0  0
 36 82  2  0  0  0  0
 37 40  1  0  0  0  0
 38 47  1  0  0  0  0
 39 69  1  0  0  0  0
 40 42  1  0  0  0  0
 41 43  1  0  0  0  0
 41 44  1  0  0  0  0
 42 46  1  0  0  0  0
 43 48  1  0  0  0  0
 44 70  1  0  0  0  0
 45 48  1  0  0  0  0
 45 70  1  0  0  0  0
 46 73  1  0  0  0  0
 47 69  1  0  0  0  0
 48 68  1  0  0  0  0
 49 63  1  0  0  0  0
 50 64  1  0  0  0  0
 51 64  1  0  0  0  0
 52 64  1  0  0  0  0
 53 75  1  0  0  0  0
 54 76  1  0  0  0  0
 55 77  1  0  0  0  0
 56 77  1  0  0  0  0
 57 58  1  0  0  0  0
 58 61  1  0  0  0  0
 59 60  1  0  0  0  0
 59 75  1  0  0  0  0
 60 77  1  0  0  0  0
 61 84  1  0  0  0  0
 62 64  1  0  0  0  0
 62 74  1  0  0  0  0
 63 76  1  0  0  0  0
 67 68  1  0  0  0  0
M  CHG  2  76   1  77   1
M  ISO  4  36 100  61 101  75 100  84 101
M  END
> <Batch ID>
0051

> <Smiles>
CNC(C)C(=O)NC(C(=O)N1Cc2cc([101O:1][101CH2:1]CCc3ncc(CN(C)CC[100N:0](C)[100C:0](=O)N4CCCC(n5nc(-c6ccc(Oc7ccc(F)cc7F)cc6)c(C(N)=O)c5N)C4)cn3)ccc2CC1C(=O)NC1CCCc2ccccc21)C(C)(C)C

> <Shape>
0.302

> <Color>
0.123

> <Negative vol penalty>
0.000

$$$$

  -OEChem-04052317333D

 87 95  0     1  0  0  0  0  0999 V2000
  -28.4982  -32.2811   17.0362 C   0  0  0  0  0  0  0  0  0  0  0  0
  -28.4634  -31.0005   16.4939 C   0  0  0  0  0  0  0  0  0  0  0  0
  -23.0390   -9.9245   19.9319 C   0  0  0  0  0  0  0  0  0  0  0  0
  -23.8538   -9.8494   22.2052 C   0  0  0  0  0  0  0  0  0  0  0  0
  -28.2583  -32.4675   18.3970 C   0  0  0  0  0  0  0  0  0  0  0  0
  -28.1898  -29.9052   17.3124 C   0  0  0  0  0  0  0  0  0  0  0  0
  -25.0245  -23.4805   17.1678 C   0  0  0  0  0  0  0  0  0  0  0  0
  -22.2885   -8.7717   20.1628 C   0  0  0  0  0  0  0  0  0  0  0  0
  -23.1032   -8.6966   22.4361 C   0  0  0  0  0  0  0  0  0  0  0  0
  -25.2824  -22.1455   17.4764 C   0  0  0  0  0  0  0  0  0  0  0  0
  -19.8817   -7.9134   23.0911 C   0  0  0  0  0  0  0  0  0  0  0  0
  -19.1527   -7.8435   24.2782 C   0  0  0  0  0  0  0  0  0  0  0  0
  -24.8054  -22.5962   19.7977 C   0  0  0  0  0  0  0  0  0  0  0  0
  -20.3896   -5.8705   24.9217 C   0  0  0  0  0  0  0  0  0  0  0  0
  -28.6045  -18.0173   19.3218 C   0  0  0  0  0  0  0  0  0  0  0  0
  -23.8217  -10.4633   20.9531 C   0  0  0  0  0  0  0  0  0  0  0  0
  -24.1888  -12.9873   20.9058 C   0  0  0  0  0  0  0  0  0  0  0  0
  -27.9720  -31.3750   19.2307 C   0  0  0  0  0  0  0  0  0  0  0  0
  -24.6651  -24.3873   18.1753 C   0  0  0  0  0  0  0  0  0  0  0  0
  -27.9471  -30.0769   18.6858 C   0  0  0  0  0  0  0  0  0  0  0  0
  -24.5410  -23.9415   19.4989 C   0  0  0  0  0  0  0  0  0  0  0  0
  -22.3205   -8.1577   21.4149 C   0  0  0  0  0  0  0  0  0  0  0  0
  -25.1757  -21.7038   18.7919 C   0  0  0  0  0  0  0  0  0  0  0  0
  -20.8646   -6.9617   22.8193 C   0  0  0  0  0  0  0  0  0  0  0  0
  -19.4066   -6.8221   25.1935 C   0  0  0  0  0  0  0  0  0  0  0  0
  -21.1186   -5.9403   23.7346 C   0  0  0  0  0  0  0  0  0  0  0  0
  -24.5977  -11.6538   20.7150 C   0  0  0  0  0  0  0  0  0  0  0  0
  -27.2252  -18.1583   19.5656 C   0  0  0  0  0  0  0  0  0  0  0  0
  -29.1830  -18.0990   20.5648 C   0  0  0  0  0  0  0  0  0  0  0  0
  -25.2803  -13.7367   20.5402 C   0  0  0  0  0  0  0  0  0  0  0  0
  -22.9346  -13.5025   21.3718 C   0  0  0  0  0  0  0  0  0  0  0  0
  -25.9405  -27.0479   19.3577 C   0  0  0  0  0  0  0  0  0  0  0  0
  -23.1725  -27.1609   21.0453 C   0  0  0  0  0  0  0  0  0  0  0  0
  -20.5128  -25.4779   22.3645 C   0  0  0  0  0  0  0  0  0  0  0  0
  -30.7780  -14.6919   20.6276 C   0  0  0  0  0  0  0  0  0  0  0  0
  -27.7660  -31.6208   20.7044 C   0  0  0  0  0  0  0  0  0  0  0  0
  -24.3642  -25.8180   17.8219 C   0  0  0  0  0  0  0  0  0  0  0  0
  -24.1386  -24.8705   20.6141 C   0  0  0  0  0  0  0  0  0  0  0  0
  -27.1137  -30.4482   21.4322 C   0  0  0  0  0  0  0  0  0  0  0  0
  -29.5569  -12.3978   18.1940 C   0  0  0  0  0  0  0  0  0  0  0  0
  -27.7840  -29.1358   21.0382 C   0  0  0  0  0  0  0  0  0  0  0  0
  -28.1270  -12.1052   18.6522 C   0  0  0  0  0  0  0  0  0  0  0  0
  -30.5049  -12.5701   19.3787 C   0  0  0  0  0  0  0  0  0  0  0  0
  -28.6453  -13.2758   20.8339 C   0  0  0  0  0  0  0  0  0  0  0  0
  -27.6293  -28.8664   19.5365 C   0  0  1  0  0  0  0  0  0  0  0  0
  -24.5064  -26.7687   19.0066 C   0  0  1  0  0  0  0  0  0  0  0  0
  -27.6413  -13.1495   19.6753 C   0  0  2  0  0  0  0  0  0  0  0  0
  -18.4340  -25.8344   23.7241 C   0  0  0  0  0  0  0  0  0  0  0  0
  -26.1883  -19.8071   23.5041 C   0  0  0  0  0  0  0  0  0  0  0  0
  -28.3211  -20.1665   24.7424 C   0  0  0  0  0  0  0  0  0  0  0  0
  -27.5610  -17.2226   23.5502 C   0  0  0  0  0  0  0  0  0  0  0  0
  -31.1633  -19.2926   21.7267 C   0  0  0  0  0  0  0  0  0  0  0  0
  -31.5408  -17.8530   19.7415 C   0  0  0  0  0  0  0  0  0  0  0  0
  -24.8680  -27.3997   23.5708 C   0  0  0  0  0  0  0  0  0  0  0  0
  -22.8376  -26.7992   24.9068 C   0  0  0  0  0  0  0  0  0  0  0  0
  -22.8502  -28.8764   23.5255 C   0  0  0  0  0  0  0  0  0  0  0  0
  -18.7739  -24.5173   20.1709 C   0  0  0  0  0  0  0  0  0  0  0  0
  -26.1064  -18.1486   18.5524 C   0  0  0  0  0  0  0  0  0  0  0  0
  -30.8977  -16.8006   21.9308 C   0  0  0  0  0  0  0  0  0  0  0  0
  -25.7962  -19.5425   18.0177 C   0  0  0  0  0  0  0  0  0  1  0  0
  -22.7115  -26.6268   22.3799 C   0  0  1  0  0  0  0  0  0  0  0  0
  -19.0217  -25.7596   22.3235 C   0  0  2  0  0  0  0  0  0  0  0  0
  -27.7170  -19.7916   23.3808 C   0  0  0  0  0  0  0  0  0  0  0  0
  -28.2536  -18.4176   22.8776 C   0  0  2  0  0  0  0  0  0  0  0  0
  -30.5949  -18.0248   20.9827 C   0  0  0  0  0  0  0  0  0  0  0  0
  -23.3263  -27.4082   23.5753 C   0  0  0  0  0  0  0  0  0  0  0  0
  -25.8510  -11.5584   20.2632 N   0  0  0  0  0  0  0  0  0  0  0  0
  -26.9442  -18.3172   20.8616 N   0  0  0  0  0  0  0  0  0  0  0  0
  -28.1550  -18.2766   21.4434 N   0  0  0  0  0  0  0  0  0  0  0  0
  -26.2391  -12.8414   20.1669 N   0  0  0  0  0  0  0  0  0  0  0  0
  -23.8610  -26.2613   20.2191 N   0  0  0  0  0  0  0  0  0  0  0  0
  -29.9874  -13.5751   20.3103 N   0  0  0  0  0  0  0  0  0  0  0  0
  -25.5038  -15.0676   20.5049 N   0  0  0  0  0  0  0  0  0  0  0  0
  -21.9210  -12.5935   21.7043 N   0  0  0  0  0  0  0  0  0  0  0  0
  -26.2985  -28.3778   19.2452 N   0  0  0  0  0  0  0  0  0  0  0  0
  -21.2531  -26.6410   22.3435 N   0  0  0  0  0  0  0  0  0  0  0  0
  -30.2097  -15.5992   21.5133 N   0  0  0  0  0  0  0  0  0  0  0  0
  -18.3121  -24.6854   21.5728 N   0  3  0  0  0  0  0  0  0  0  0  0
  -22.7136  -14.7331   21.4743 O   0  0  0  0  0  0  0  0  0  0  0  0
  -26.6678  -26.1254   19.7063 O   0  0  0  0  0  0  0  0  0  0  0  0
  -22.9244  -28.3311   20.7438 O   0  0  0  0  0  0  0  0  0  0  0  0
  -20.9746  -24.3400   22.4143 O   0  0  0  0  0  0  0  0  0  0  0  0
  -31.9047  -14.8701   20.1523 O   0  0  0  0  0  0  0  0  0  0  0  0
  -21.5881   -7.0329   21.6406 O   0  0  0  0  0  0  0  0  0  0  0  0
  -25.4275  -20.4015   19.0959 O   0  0  0  0  0  0  0  0  0  1  0  0
  -18.7075   -6.7560   26.3342 F   0  0  0  0  0  0  0  0  0  0  0  0
  -22.0625   -5.0239   23.4795 F   0  0  0  0  0  0  0  0  0  0  0  0
  1  2  1  0  0  0  0
  1  5  2  0  0  0  0
  2  6  2  0  0  0  0
  3  8  2  0  0  0  0
  3 16  1  0  0  0  0
  4  9  1  0  0  0  0
  4 16  2  0  0  0  0
  5 18  1  0  0  0  0
  6 20  1  0  0  0  0
  7 10  2  0  0  0  0
  7 19  1  0  0  0  0
  8 22  1  0  0  0  0
  9 22  2  0  0  0  0
 10 23  1  0  0  0  0
 11 12  2  0  0  0  0
 11 24  1  0  0  0  0
 12 25  1  0  0  0  0
 13 21  1  0  0  0  0
 13 23  2  0  0  0  0
 14 25  2  0  0  0  0
 14 26  1  0  0  0  0
 15 28  1  0  0  0  0
 15 29  2  0  0  0  0
 16 27  1  0  0  0  0
 17 27  1  0  0  0  0
 17 30  2  0  0  0  0
 17 31  1  0  0  0  0
 18 20  2  0  0  0  0
 18 36  1  0  0  0  0
 19 21  2  0  0  0  0
 19 37  1  0  0  0  0
 20 45  1  0  0  0  0
 21 38  1  0  0  0  0
 22 84  1  0  0  0  0
 23 85  1  0  0  0  0
 24 26  2  0  0  0  0
 24 84  1  0  0  0  0
 25 86  1  0  0  0  0
 26 87  1  0  0  0  0
 27 67  2  0  0  0  0
 28 58  1  0  0  0  0
 28 68  2  0  0  0  0
 29 65  1  0  0  0  0
 29 69  1  0  0  0  0
 30 70  1  0  0  0  0
 30 73  1  0  0  0  0
 31 74  1  0  0  0  0
 31 79  2  0  0  0  0
 32 46  1  0  0  0  0
 32 75  1  0  0  0  0
 32 80  2  0  0  0  0
 33 61  1  0  0  0  0
 33 71  1  0  0  0  0
 33 81  2  0  0  0  0
 34 62  1  0  0  0  0
 34 76  1  0  0  0  0
 34 82  2  0  0  0  0
 35 72  1  0  0  0  0
 35 77  1  0  0  0  0
 35 83  2  0  0  0  0
 36 39  1  0  0  0  0
 37 46  1  0  0  0  0
 38 71  1  0  0  0  0
 39 41  1  0  0  0  0
 40 42  1  0  0  0  0
 40 43  1  0  0  0  0
 41 45  1  0  0  0  0
 42 47  1  0  0  0  0
 43 72  1  0  0  0  0
 44 47  1  0  0  0  0
 44 72  1  0  0  0  0
 45 75  1  0  0  0  0
 46 71  1  0  0  0  0
 47 70  1  0  0  0  0
 48 62  1  0  0  0  0
 49 63  1  0  0  0  0
 50 63  1  0  0  0  0
 51 64  1  0  0  0  0
 52 65  1  0  0  0  0
 53 65  1  0  0  0  0
 54 66  1  0  0  0  0
 55 66  1  0  0  0  0
 56 66  1  0  0  0  0
 57 78  1  0  0  0  0
 58 60  1  0  0  0  0
 59 65  1  0  0  0  0
 59 77  1  0  0  0  0
 60 85  1  0  0  0  0
 61 66  1  0  0  0  0
 61 76  1  0  0  0  0
 62 78  1  0  0  0  0
 63 64  1  0  0  0  0
 64 69  1  0  0  0  0
 67 70  1  0  0  0  0
 68 69  1  0  0  0  0
M  CHG  1  78   1
M  ISO  4  35 100  60 101  77 100  85 101
M  END
> <Batch ID>
0051

> <Smiles>
CNC(C)C(=O)NC(C(=O)N1Cc2cc([101O:1][101CH2:1]Cc3cc(C(C)(C)C[100NH:0][100C:0](=O)N4CCCC(n5nc(-c6ccc(Oc7ccc(F)cc7F)cc6)c(C(N)=O)c5N)C4)n(C(C)C(C)C)n3)ccc2CC1C(=O)NC1CCCc2ccccc21)C(C)(C)C

> <Shape>
0.282

> <Color>
0.187

> <Negative vol penalty>
0.000

$$$$

  -OEChem-04052317333D

 88 96  0     1  0  0  0  0  0999 V2000
  -30.1209  -24.3823   18.4311 C   0  0  0  0  0  0  0  0  0  0  0  0
  -28.7407  -24.5502   18.3837 C   0  0  0  0  0  0  0  0  0  0  0  0
  -27.7839  -11.1214   20.5073 C   0  0  0  0  0  0  0  0  0  0  0  0
  -27.3337  -11.8320   18.2424 C   0  0  0  0  0  0  0  0  0  0  0  0
  -30.8444  -24.8702   19.5185 C   0  0  0  0  0  0  0  0  0  0  0  0
  -28.0830  -25.2053   19.4243 C   0  0  0  0  0  0  0  0  0  0  0  0
  -23.1642  -28.8253   18.9699 C   0  0  0  0  0  0  0  0  0  0  0  0
  -21.1023  -21.3522   18.6269 C   0  0  0  0  0  0  0  0  0  0  0  0
  -27.1172   -9.9208   20.2631 C   0  0  0  0  0  0  0  0  0  0  0  0
  -26.6671  -10.6313   17.9982 C   0  0  0  0  0  0  0  0  0  0  0  0
  -21.8055  -28.5922   19.1786 C   0  0  0  0  0  0  0  0  0  0  0  0
  -23.9199   -8.8395   20.0829 C   0  0  0  0  0  0  0  0  0  0  0  0
  -23.0226   -8.3888   21.0511 C   0  0  0  0  0  0  0  0  0  0  0  0
  -22.0670  -20.4242   18.2510 C   0  0  0  0  0  0  0  0  0  0  0  0
  -22.0081  -29.4554   21.4220 C   0  0  0  0  0  0  0  0  0  0  0  0
  -24.3217   -6.3689   21.3148 C   0  0  0  0  0  0  0  0  0  0  0  0
  -27.8921  -12.0771   19.4970 C   0  0  0  0  0  0  0  0  0  0  0  0
  -29.9495  -13.5840   19.5599 C   0  0  0  0  0  0  0  0  0  0  0  0
  -30.1964  -25.5400   20.5683 C   0  0  0  0  0  0  0  0  0  0  0  0
  -23.9586  -29.3660   19.9912 C   0  0  0  0  0  0  0  0  0  0  0  0
  -28.7983  -25.7014   20.5274 C   0  0  0  0  0  0  0  0  0  0  0  0
  -23.3760  -29.6968   21.2229 C   0  0  0  0  0  0  0  0  0  0  0  0
  -21.4831  -22.5107   19.2950 C   0  0  0  0  0  0  0  0  0  0  0  0
  -26.5589   -9.6757   19.0086 C   0  0  0  0  0  0  0  0  0  0  0  0
  -21.2279  -28.9046   20.4057 C   0  0  0  0  0  0  0  0  0  0  0  0
  -25.0181   -8.0549   19.7307 C   0  0  0  0  0  0  0  0  0  0  0  0
  -23.2235   -7.1535   21.6670 C   0  0  0  0  0  0  0  0  0  0  0  0
  -25.2190   -6.8197   20.3466 C   0  0  0  0  0  0  0  0  0  0  0  0
  -28.5801  -13.3178   19.7488 C   0  0  0  0  0  0  0  0  0  0  0  0
  -23.3884  -20.6994   18.5640 C   0  0  0  0  0  0  0  0  0  0  0  0
  -22.8306  -22.6924   19.5614 C   0  0  0  0  0  0  0  0  0  0  0  0
  -30.1001  -14.8951   19.9404 C   0  0  0  0  0  0  0  0  0  0  0  0
  -30.9922  -12.7231   19.0830 C   0  0  0  0  0  0  0  0  0  0  0  0
  -26.4869  -28.3625   21.6358 C   0  0  0  0  0  0  0  0  0  0  0  0
  -26.4089  -31.3728   22.8419 C   0  0  0  0  0  0  0  0  0  0  0  0
  -24.5839  -34.1755   23.5207 C   0  0  0  0  0  0  0  0  0  0  0  0
  -26.0556  -19.4070   20.0156 C   0  0  0  0  0  0  0  0  0  0  0  0
  -31.0149  -26.0083   21.7455 C   0  0  0  0  0  0  0  0  0  0  0  0
  -25.4170  -29.6362   19.7413 C   0  0  0  0  0  0  0  0  0  0  0  0
  -24.1810  -30.2981   22.3449 C   0  0  0  0  0  0  0  0  0  0  0  0
  -30.2892  -27.0209   22.6277 C   0  0  0  0  0  0  0  0  0  0  0  0
  -27.7911  -17.8796   22.9897 C   0  0  0  0  0  0  0  0  0  0  0  0
  -28.8667  -26.5531   22.9182 C   0  0  0  0  0  0  0  0  0  0  0  0
  -28.6837  -16.8160   22.3488 C   0  0  0  0  0  0  0  0  0  0  0  0
  -27.4266  -18.9885   22.0143 C   0  0  0  0  0  0  0  0  0  0  0  0
  -27.0470  -17.0981   20.4211 C   0  0  0  0  0  0  0  0  0  0  0  0
  -28.0520  -26.4284   21.6250 C   0  0  1  0  0  0  0  0  0  0  0  0
  -26.2390  -29.7124   21.0242 C   0  0  1  0  0  0  0  0  0  0  0  0
  -28.4752  -16.6954   20.8275 C   0  0  2  0  0  0  0  0  0  0  0  0
  -23.2981  -23.9193   20.2734 C   0  0  0  0  0  0  0  0  0  0  0  0
  -24.7858  -36.4576   24.5448 C   0  0  0  0  0  0  0  0  0  0  0  0
  -18.5176  -29.4461   22.4148 C   0  0  0  0  0  0  0  0  0  0  0  0
  -26.3899  -30.1228   25.6252 C   0  0  0  0  0  0  0  0  0  0  0  0
  -25.6429  -32.3319   26.5362 C   0  0  0  0  0  0  0  0  0  0  0  0
  -27.8534  -32.1378   25.3966 C   0  0  0  0  0  0  0  0  0  0  0  0
  -24.0489  -17.8831   19.7629 C   0  0  0  0  0  0  0  0  0  0  0  0
  -23.8500  -35.5071   20.9815 C   0  0  0  0  0  0  0  0  0  0  0  0
  -19.7576  -22.1024   21.6357 C   0  0  0  0  0  0  0  0  0  0  0  0
  -20.4466  -23.5152   19.7044 C   0  0  0  0  0  0  0  0  0  0  0  0
  -24.4501  -19.7259   18.1738 C   0  0  0  0  0  0  0  0  0  0  0  0
  -19.8210  -25.8913   21.5206 C   0  0  0  0  0  0  0  0  0  0  0  0
  -18.8509  -26.9872   21.9743 C   0  0  0  0  0  0  0  0  0  0  0  0
  -19.1633  -24.5203   21.5868 C   0  0  0  0  0  0  0  0  0  0  0  0
  -25.7357  -32.0356   24.0193 C   0  0  1  0  0  0  0  0  0  0  0  0
  -24.8611  -35.6454   23.2613 C   0  0  2  0  0  0  0  0  0  0  0  0
  -19.4948  -28.3764   21.9463 C   0  0  1  0  0  0  0  0  0  1  0  0
  -26.3904  -31.6439   25.3740 C   0  0  0  0  0  0  0  0  0  0  0  0
  -27.9086  -14.3748   20.2133 N   0  0  0  0  0  0  0  0  0  0  0  0
  -23.7966  -21.8135   19.2118 N   0  0  0  0  0  0  0  0  0  0  0  0
  -28.8601  -15.3179   20.3196 N   0  0  0  0  0  0  0  0  0  0  0  0
  -25.6042  -30.5376   22.0540 N   0  0  0  0  0  0  0  0  0  0  0  0
  -26.7375  -18.4816   20.8244 N   0  0  0  0  0  0  0  0  0  0  0  0
  -31.1709  -15.7159   19.9844 N   0  0  0  0  0  0  0  0  0  0  0  0
  -30.6641  -11.4055   18.7357 N   0  0  0  0  0  0  0  0  0  0  0  0
  -27.6253  -27.7338   21.1686 N   0  0  0  0  0  0  0  0  0  0  0  0
  -25.7464  -33.4680   23.7425 N   0  0  0  0  0  0  0  0  0  0  0  0
  -24.9342  -18.9516   19.3083 N   0  0  0  0  0  0  0  0  0  0  0  0
  -23.8681  -36.1974   22.2969 N   0  3  0  0  0  0  0  0  0  0  0  0
  -20.1490  -23.4885   21.1840 N   0  3  1  0  0  0  0  0  0  0  0  0
  -32.1826  -13.1059   18.9840 O   0  0  0  0  0  0  0  0  0  0  0  0
  -25.7042  -27.9246   22.4707 O   0  0  0  0  0  0  0  0  0  0  0  0
  -27.6030  -31.5937   22.6249 O   0  0  0  0  0  0  0  0  0  0  0  0
  -23.4493  -33.7031   23.5296 O   0  0  0  0  0  0  0  0  0  0  0  0
  -26.4386  -20.5813   19.9254 O   0  0  0  0  0  0  0  0  0  0  0  0
  -25.9085   -8.5041   18.7699 O   0  0  0  0  0  0  0  0  0  0  0  0
  -19.9021  -28.6775   20.6122 O   0  0  0  0  0  0  0  0  0  1  0  0
  -22.3626   -6.7215   22.5978 F   0  0  0  0  0  0  0  0  0  0  0  0
  -26.2729   -6.0620   20.0132 F   0  0  0  0  0  0  0  0  0  0  0  0
  1  2  1  0  0  0  0
  1  5  2  0  0  0  0
  2  6  2  0  0  0  0
  3  9  2  0  0  0  0
  3 17  1  0  0  0  0
  4 10  1  0  0  0  0
  4 17  2  0  0  0  0
  5 19  1  0  0  0  0
  6 21  1  0  0  0  0
  7 11  2  0  0  0  0
  7 20  1  0  0  0  0
  8 14  2  0  0  0  0
  8 23  1  0  0  0  0
  9 24  1  0  0  0  0
 10 24  2  0  0  0  0
 11 25  1  0  0  0  0
 12 13  2  0  0  0  0
 12 26  1  0  0  0  0
 13 27  1  0  0  0  0
 14 30  1  0  0  0  0
 15 22  1  0  0  0  0
 15 25  2  0  0  0  0
 16 27  2  0  0  0  0
 16 28  1  0  0  0  0
 17 29  1  0  0  0  0
 18 29  1  0  0  0  0
 18 32  2  0  0  0  0
 18 33  1  0  0  0  0
 19 21  2  0  0  0  0
 19 38  1  0  0  0  0
 20 22  2  0  0  0  0
 20 39  1  0  0  0  0
 21 47  1  0  0  0  0
 22 40  1  0  0  0  0
 23 31  2  0  0  0  0
 23 59  1  0  0  0  0
 24 85  1  0  0  0  0
 25 86  1  0  0  0  0
 26 28  2  0  0  0  0
 26 85  1  0  0  0  0
 27 87  1  0  0  0  0
 28 88  1  0  0  0  0
 29 68  2  0  0  0  0
 30 60  1  0  0  0  0
 30 69  2  0  0  0  0
 31 50  1  0  0  0  0
 31 69  1  0  0  0  0
 32 70  1  0  0  0  0
 32 73  1  0  0  0  0
 33 74  1  0  0  0  0
 33 80  2  0  0  0  0
 34 48  1  0  0  0  0
 34 75  1  0  0  0  0
 34 81  2  0  0  0  0
 35 64  1  0  0  0  0
 35 71  1  0  0  0  0
 35 82  2  0  0  0  0
 36 65  1  0  0  0  0
 36 76  1  0  0  0  0
 36 83  2  0  0  0  0
 37 72  1  0  0  0  0
 37 77  1  0  0  0  0
 37 84  2  0  0  0  0
 38 41  1  0  0  0  0
 39 48  1  0  0  0  0
 40 71  1  0  0  0  0
 41 43  1  0  0  0  0
 42 44  1  0  0  0  0
 42 45  1  0  0  0  0
 43 47  1  0  0  0  0
 44 49  1  0  0  0  0
 45 72  1  0  0  0  0
 46 49  1  0  0  0  0
 46 72  1  0  0  0  0
 47 75  1  0  0  0  0
 48 71  1  0  0  0  0
 49 70  1  0  0  0  0
 51 65  1  0  0  0  0
 52 66  1  0  0  0  0
 53 67  1  0  0  0  0
 54 67  1  0  0  0  0
 55 67  1  0  0  0  0
 56 77  1  0  0  0  0
 57 78  1  0  0  0  0
 58 79  1  0  0  0  0
 59 79  1  0  0  0  0
 60 77  1  0  0  0  0
 61 62  1  0  0  0  0
 61 63  1  0  0  0  0
 62 66  1  0  0  0  0
 63 79  1  0  0  0  0
 64 67  1  0  0  0  0
 64 76  1  0  0  0  0
 65 78  1  0  0  0  0
 66 86  1  0  0  0  0
 68 70  1  0  0  0  0
M  CHG  2  78   1  79   1
M  ISO  4  37 100  66 101  77 100  86 101
M  END
> <Batch ID>
0051

> <Smiles>
CNC(C)C(=O)NC(C(=O)N1Cc2cc([101O:1][101CH:1](C)CCCN(C)Cc3ccc(C[100N:0](C)[100C:0](=O)N4CCCC(n5nc(-c6ccc(Oc7ccc(F)cc7F)cc6)c(C(N)=O)c5N)C4)nc3C)ccc2CC1C(=O)NC1CCCc2ccccc21)C(C)(C)C

> <Shape>
0.293

> <Color>
0.055

> <Negative vol penalty>
0.000

$$$$

  -OEChem-04052317333D

 86 94  0     1  0  0  0  0  0999 V2000
  -29.6444  -12.2061   19.8149 C   0  0  0  0  0  0  0  0  0  0  0  0
  -29.6007  -13.4881   20.3533 C   0  0  0  0  0  0  0  0  0  0  0  0
  -30.3728  -21.9956   22.0013 C   0  0  0  0  0  0  0  0  0  0  0  0
  -28.7440  -21.8607   20.2220 C   0  0  0  0  0  0  0  0  0  0  0  0
  -28.6142  -11.7639   18.9860 C   0  0  0  0  0  0  0  0  0  0  0  0
  -28.5273  -14.3292   20.0621 C   0  0  0  0  0  0  0  0  0  0  0  0
  -24.5628  -19.5345   22.9782 C   0  0  0  0  0  0  0  0  0  0  0  0
  -30.6104  -20.6258   21.8876 C   0  0  0  0  0  0  0  0  0  0  0  0
  -28.9817  -20.4909   20.1083 C   0  0  0  0  0  0  0  0  0  0  0  0
  -24.1176  -20.8282   22.7097 C   0  0  0  0  0  0  0  0  0  0  0  0
  -29.1229  -17.7510   22.8608 C   0  0  0  0  0  0  0  0  0  0  0  0
  -29.1933  -17.0063   24.0381 C   0  0  0  0  0  0  0  0  0  0  0  0
  -22.3555  -19.9288   21.3294 C   0  0  0  0  0  0  0  0  0  0  0  0
  -31.4536  -16.3527   23.4896 C   0  0  0  0  0  0  0  0  0  0  0  0
  -21.8385  -25.4850   22.6374 C   0  0  0  0  0  0  0  0  0  0  0  0
  -29.4395  -22.6130   21.1685 C   0  0  0  0  0  0  0  0  0  0  0  0
  -29.8544  -25.0654   20.6017 C   0  0  0  0  0  0  0  0  0  0  0  0
  -27.5228  -12.5966   18.6923 C   0  0  0  0  0  0  0  0  0  0  0  0
  -23.9132  -18.4269   22.4146 C   0  0  0  0  0  0  0  0  0  0  0  0
  -27.4822  -13.8983   19.2274 C   0  0  0  0  0  0  0  0  0  0  0  0
  -22.7929  -18.6220   21.5944 C   0  0  0  0  0  0  0  0  0  0  0  0
  -29.9149  -19.8735   20.9411 C   0  0  0  0  0  0  0  0  0  0  0  0
  -23.0156  -21.0256   21.8828 C   0  0  0  0  0  0  0  0  0  0  0  0
  -30.2179  -17.7965   21.9978 C   0  0  0  0  0  0  0  0  0  0  0  0
  -30.3586  -16.3072   24.3525 C   0  0  0  0  0  0  0  0  0  0  0  0
  -31.3832  -17.0974   22.3122 C   0  0  0  0  0  0  0  0  0  0  0  0
  -29.1932  -24.0278   21.2859 C   0  0  0  0  0  0  0  0  0  0  0  0
  -22.6511  -24.6604   21.8365 C   0  0  0  0  0  0  0  0  0  0  0  0
  -21.5096  -26.5397   21.8214 C   0  0  0  0  0  0  0  0  0  0  0  0
  -29.2571  -26.2141   21.0602 C   0  0  0  0  0  0  0  0  0  0  0  0
  -30.9136  -24.9970   19.6379 C   0  0  0  0  0  0  0  0  0  0  0  0
  -24.7665  -16.0985   20.4262 C   0  0  0  0  0  0  0  0  0  0  0  0
  -21.8089  -14.9575   21.1138 C   0  0  0  0  0  0  0  0  0  0  0  0
  -24.6703  -29.0135   22.2447 C   0  0  0  0  0  0  0  0  0  0  0  0
  -18.4937  -16.3177   21.5341 C   0  0  0  0  0  0  0  0  0  0  0  0
  -26.4563  -12.0914   17.7531 C   0  0  0  0  0  0  0  0  0  0  0  0
  -24.3895  -17.0367   22.7356 C   0  0  0  0  0  0  0  0  0  0  0  0
  -22.0481  -17.4655   20.9809 C   0  0  0  0  0  0  0  0  0  0  0  0
  -25.1691  -12.9109   17.7958 C   0  0  0  0  0  0  0  0  0  0  0  0
  -26.0742  -26.9724   24.9073 C   0  0  0  0  0  0  0  0  0  0  0  0
  -25.4841  -14.4026   17.7445 C   0  0  0  0  0  0  0  0  0  0  0  0
  -27.0481  -26.0862   24.1320 C   0  0  0  0  0  0  0  0  0  0  0  0
  -24.8193  -27.2741   24.0924 C   0  0  0  0  0  0  0  0  0  0  0  0
  -26.0740  -26.9936   21.9778 C   0  0  0  0  0  0  0  0  0  0  0  0
  -26.3223  -14.8313   18.9549 C   0  0  1  0  0  0  0  0  0  0  0  0
  -23.9664  -16.0050   21.6945 C   0  0  1  0  0  0  0  0  0  0  0  0
  -27.3669  -26.6909   22.7535 C   0  0  2  0  0  0  0  0  0  0  0  0
  -19.6737  -30.3174   21.2271 C   0  0  0  0  0  0  0  0  0  0  0  0
  -16.5456  -15.4823   22.8774 C   0  0  0  0  0  0  0  0  0  0  0  0
  -21.7289  -29.1577   24.6734 C   0  0  0  0  0  0  0  0  0  0  0  0
  -23.3162  -31.0419   22.3026 C   0  0  0  0  0  0  0  0  0  0  0  0
  -24.4417  -30.2200   24.3811 C   0  0  0  0  0  0  0  0  0  0  0  0
  -20.9577  -13.6185   18.5075 C   0  0  0  0  0  0  0  0  0  0  0  0
  -18.5846  -14.1785   19.0761 C   0  0  0  0  0  0  0  0  0  0  0  0
  -19.8984  -12.6671   20.5635 C   0  0  0  0  0  0  0  0  0  0  0  0
  -22.0754  -27.1159   19.4419 C   0  0  0  0  0  0  0  0  0  0  0  0
  -18.2521  -18.8810   22.9937 C   0  0  0  0  0  0  0  0  0  0  0  0
  -23.2979  -23.3626   22.2218 C   0  0  0  0  0  0  0  0  0  1  0  0
  -20.6839  -27.7356   22.0700 C   0  0  0  0  0  0  0  0  0  0  0  0
  -20.5910  -30.1986   22.4245 C   0  0  0  0  0  0  0  0  0  0  0  0
  -20.4299  -15.1386   20.5266 C   0  0  1  0  0  0  0  0  0  0  0  0
  -17.7219  -16.4453   22.8351 C   0  0  2  0  0  0  0  0  0  0  0  0
  -22.4764  -28.8750   23.3702 C   0  0  2  0  0  0  0  0  0  0  0  0
  -23.7042  -29.7875   23.1058 C   0  0  0  0  0  0  0  0  0  0  0  0
  -19.9873  -13.9212   19.6667 C   0  0  0  0  0  0  0  0  0  0  0  0
  -28.2484  -24.4776   22.1159 N   0  0  0  0  0  0  0  0  0  0  0  0
  -22.8276  -25.1493   20.6060 N   0  0  0  0  0  0  0  0  0  0  0  0
  -22.1212  -26.2923   20.6277 N   0  0  0  0  0  0  0  0  0  0  0  0
  -28.3116  -25.8105   21.9565 N   0  0  0  0  0  0  0  0  0  0  0  0
  -22.5561  -16.1259   21.3196 N   0  0  0  0  0  0  0  0  0  0  0  0
  -25.1664  -27.8228   22.7760 N   0  0  0  0  0  0  0  0  0  0  0  0
  -29.4538  -27.5200   20.7803 N   0  0  0  0  0  0  0  0  0  0  0  0
  -31.4106  -23.7365   19.2796 N   0  0  0  0  0  0  0  0  0  0  0  0
  -25.4864  -14.9569   20.1297 N   0  0  0  0  0  0  0  0  0  0  0  0
  -19.5440  -15.4317   21.6481 N   0  0  0  0  0  0  0  0  0  0  0  0
  -17.2000  -17.8321   22.9939 N   0  3  0  0  0  0  0  0  0  0  0  0
  -21.4739  -28.9924   22.2546 N   0  3  1  0  0  0  0  0  0  0  0  0
  -31.4161  -26.0242   19.1223 O   0  0  0  0  0  0  0  0  0  0  0  0
  -24.7320  -17.1295   19.7647 O   0  0  0  0  0  0  0  0  0  0  0  0
  -22.2056  -13.8217   21.3866 O   0  0  0  0  0  0  0  0  0  0  0  0
  -24.9757  -29.4568   21.1346 O   0  0  0  0  0  0  0  0  0  0  0  0
  -18.1925  -16.9389   20.5173 O   0  0  0  0  0  0  0  0  0  0  0  0
  -30.1467  -18.5369   20.8297 O   0  0  0  0  0  0  0  0  0  0  0  0
  -22.5794  -22.2873   21.6186 O   0  0  0  0  0  0  0  0  0  1  0  0
  -30.4266  -15.5933   25.4839 F   0  0  0  0  0  0  0  0  0  0  0  0
  -32.4388  -17.1383   21.4877 F   0  0  0  0  0  0  0  0  0  0  0  0
  1  2  1  0  0  0  0
  1  5  2  0  0  0  0
  2  6  2  0  0  0  0
  3  8  2  0  0  0  0
  3 16  1  0  0  0  0
  4  9  1  0  0  0  0
  4 16  2  0  0  0  0
  5 18  1  0  0  0  0
  6 20  1  0  0  0  0
  7 10  2  0  0  0  0
  7 19  1  0  0  0  0
  8 22  1  0  0  0  0
  9 22  2  0  0  0  0
 10 23  1  0  0  0  0
 11 12  2  0  0  0  0
 11 24  1  0  0  0  0
 12 25  1  0  0  0  0
 13 21  1  0  0  0  0
 13 23  2  0  0  0  0
 14 25  2  0  0  0  0
 14 26  1  0  0  0  0
 15 28  1  0  0  0  0
 15 29  2  0  0  0  0
 16 27  1  0  0  0  0
 17 27  1  0  0  0  0
 17 30  2  0  0  0  0
 17 31  1  0  0  0  0
 18 20  2  0  0  0  0
 18 36  1  0  0  0  0
 19 21  2  0  0  0  0
 19 37  1  0  0  0  0
 20 45  1  0  0  0  0
 21 38  1  0  0  0  0
 22 83  1  0  0  0  0
 23 84  1  0  0  0  0
 24 26  2  0  0  0  0
 24 83  1  0  0  0  0
 25 85  1  0  0  0  0
 26 86  1  0  0  0  0
 27 66  2  0  0  0  0
 28 58  1  0  0  0  0
 28 67  2  0  0  0  0
 29 59  1  0  0  0  0
 29 68  1  0  0  0  0
 30 69  1  0  0  0  0
 30 72  1  0  0  0  0
 31 73  1  0  0  0  0
 31 78  2  0  0  0  0
 32 46  1  0  0  0  0
 32 74  1  0  0  0  0
 32 79  2  0  0  0  0
 33 61  1  0  0  0  0
 33 70  1  0  0  0  0
 33 80  2  0  0  0  0
 34 64  1  0  0  0  0
 34 71  1  0  0  0  0
 34 81  2  0  0  0  0
 35 62  1  0  0  0  0
 35 75  1  0  0  0  0
 35 82  2  0  0  0  0
 36 39  1  0  0  0  0
 37 46  1  0  0  0  0
 38 70  1  0  0  0  0
 39 41  1  0  0  0  0
 40 42  1  0  0  0  0
 40 43  1  0  0  0  0
 41 45  1  0  0  0  0
 42 47  1  0  0  0  0
 43 71  1  0  0  0  0
 44 47  1  0  0  0  0
 44 71  1  0  0  0  0
 45 74  1  0  0  0  0
 46 70  1  0  0  0  0
 47 69  1  0  0  0  0
 48 60  1  0  0  0  0
 49 62  1  0  0  0  0
 50 63  1  0  0  0  0
 51 64  1  0  0  0  0
 52 64  1  0  0  0  0
 53 65  1  0  0  0  0
 54 65  1  0  0  0  0
 55 65  1  0  0  0  0
 56 68  1  0  0  0  0
 57 76  1  0  0  0  0
 58 84  1  0  0  0  0
 59 77  1  0  0  0  0
 60 77  1  0  0  0  0
 61 65  1  0  0  0  0
 61 75  1  0  0  0  0
 62 76  1  0  0  0  0
 63 64  1  0  0  0  0
 63 77  1  0  0  0  0
 66 69  1  0  0  0  0
 67 68  1  0  0  0  0
M  CHG  2  76   1  77   1
M  ISO  4  34 100  58 101  64 100  84 101
M  END
> <Batch ID>
0051

> <Smiles>
CCN(Cc1cc([101CH2:1][101O:1]c2ccc3c(c2)CN(C(=O)C(NC(=O)C(C)NC)C(C)(C)C)C(C(=O)NC2CCCc4ccccc42)C3)nn1C)C(C)[100C:0](C)(C)[100C:0](=O)N1CCCC(n2nc(-c3ccc(Oc4ccc(F)cc4F)cc3)c(C(N)=O)c2N)C1

> <Shape>
0.204

> <Color>
0.065

> <Negative vol penalty>
0.000

$$$$

  -OEChem-04052317333D

 85 93  0     1  0  0  0  0  0999 V2000
  -23.8437  -24.1022   21.2971 C   0  0  0  0  0  0  0  0  0  0  0  0
  -24.6811  -23.1072   20.8055 C   0  0  0  0  0  0  0  0  0  0  0  0
  -26.3197  -28.6454   18.7355 C   0  0  0  0  0  0  0  0  0  0  0  0
  -26.4553  -28.8560   21.1385 C   0  0  0  0  0  0  0  0  0  0  0  0
  -22.8609  -23.7820   22.2313 C   0  0  0  0  0  0  0  0  0  0  0  0
  -24.5283  -21.7897   21.2389 C   0  0  0  0  0  0  0  0  0  0  0  0
  -27.2437  -18.3648   18.9807 C   0  0  0  0  0  0  0  0  0  0  0  0
  -25.1294  -29.3726   18.7390 C   0  0  0  0  0  0  0  0  0  0  0  0
  -25.2651  -29.5833   21.1420 C   0  0  0  0  0  0  0  0  0  0  0  0
  -28.6196  -18.2467   19.1723 C   0  0  0  0  0  0  0  0  0  0  0  0
  -22.0750  -31.1863   21.8227 C   0  0  0  0  0  0  0  0  0  0  0  0
  -21.1189  -30.8605   22.7847 C   0  0  0  0  0  0  0  0  0  0  0  0
  -28.2505  -16.3407   20.6042 C   0  0  0  0  0  0  0  0  0  0  0  0
  -20.9949  -28.6153   21.9010 C   0  0  0  0  0  0  0  0  0  0  0  0
  -32.5374  -19.5857   20.9519 C   0  0  0  0  0  0  0  0  0  0  0  0
  -26.9826  -28.3870   19.9353 C   0  0  0  0  0  0  0  0  0  0  0  0
  -29.5192  -28.1441   19.8143 C   0  0  0  0  0  0  0  0  0  0  0  0
  -22.7048  -22.4619   22.6853 C   0  0  0  0  0  0  0  0  0  0  0  0
  -26.3587  -17.4769   19.6092 C   0  0  0  0  0  0  0  0  0  0  0  0
  -23.5266  -21.4423   22.1634 C   0  0  0  0  0  0  0  0  0  0  0  0
  -26.8640  -16.4481   20.4169 C   0  0  0  0  0  0  0  0  0  0  0  0
  -24.6021  -29.8416   19.9422 C   0  0  0  0  0  0  0  0  0  0  0  0
  -29.1230  -17.2363   19.9864 C   0  0  0  0  0  0  0  0  0  0  0  0
  -22.4910  -30.2267   20.8998 C   0  0  0  0  0  0  0  0  0  0  0  0
  -20.5789  -29.5750   22.8238 C   0  0  0  0  0  0  0  0  0  0  0  0
  -21.9510  -28.9412   20.9390 C   0  0  0  0  0  0  0  0  0  0  0  0
  -28.2119  -27.6353   19.9325 C   0  0  0  0  0  0  0  0  0  0  0  0
  -32.3133  -18.6173   21.8893 C   0  0  0  0  0  0  0  0  0  0  0  0
  -30.3258  -27.0337   19.8669 C   0  0  0  0  0  0  0  0  0  0  0  0
  -32.1726  -20.5852   22.8931 C   0  0  0  0  0  0  0  0  0  0  0  0
  -29.9645  -29.4993   19.6699 C   0  0  0  0  0  0  0  0  0  0  0  0
  -24.0116  -17.7761   21.7318 C   0  0  0  0  0  0  0  0  0  0  0  0
  -23.5768  -14.6215   21.1142 C   0  0  0  0  0  0  0  0  0  0  0  0
  -24.9053  -11.6722   20.0261 C   0  0  0  0  0  0  0  0  0  0  0  0
  -29.0744  -21.5278   22.2454 C   0  0  0  0  0  0  0  0  0  0  0  0
  -21.6197  -22.1698   23.6915 C   0  0  0  0  0  0  0  0  0  0  0  0
  -24.8788  -17.6013   19.3710 C   0  0  0  0  0  0  0  0  0  0  0  0
  -25.9574  -15.4569   21.0981 C   0  0  0  0  0  0  0  0  0  0  0  0
  -21.8234  -20.8440   24.4175 C   0  0  0  0  0  0  0  0  0  0  0  0
  -30.3526  -22.3598   18.8726 C   0  0  0  0  0  0  0  0  0  0  0  0
  -22.0987  -19.7371   23.4107 C   0  0  0  0  0  0  0  0  0  0  0  0
  -29.9895  -23.8373   18.7339 C   0  0  0  0  0  0  0  0  0  0  0  0
  -29.3899  -21.6237   19.7994 C   0  0  0  0  0  0  0  0  0  0  0  0
  -28.8909  -23.7238   21.0056 C   0  0  0  0  0  0  0  0  0  0  0  0
  -23.3989  -20.0079   22.6433 C   0  0  1  0  0  0  0  0  0  0  0  0
  -24.0403  -16.9585   20.4715 C   0  0  1  0  0  0  0  0  0  0  0  0
  -29.8690  -24.5046   20.1150 C   0  0  2  0  0  0  0  0  0  0  0  0
  -24.3169   -9.2588   19.6708 C   0  0  0  0  0  0  0  0  0  0  0  0
  -32.7153  -17.3896   26.3868 C   0  0  0  0  0  0  0  0  0  0  0  0
  -34.0736  -19.1780   25.2813 C   0  0  0  0  0  0  0  0  0  0  0  0
  -23.7689  -14.1346   24.1202 C   0  0  0  0  0  0  0  0  0  0  0  0
  -24.1298  -11.7054   23.6332 C   0  0  0  0  0  0  0  0  0  0  0  0
  -21.9955  -12.8071   22.9596 C   0  0  0  0  0  0  0  0  0  0  0  0
  -28.9325  -21.6955   24.7013 C   0  0  0  0  0  0  0  0  0  0  0  0
  -25.4392  -11.8496   17.1205 C   0  0  0  0  0  0  0  0  0  0  0  0
  -32.2907  -17.1138   21.7570 C   0  0  0  0  0  0  0  0  0  0  0  0
  -31.9974  -21.6442   23.9179 C   0  0  0  0  0  0  0  0  0  0  0  0
  -31.8100  -18.6217   24.3514 C   0  0  0  0  0  0  0  0  0  0  0  0
  -30.9018  -22.6654   23.5756 C   0  0  0  0  0  0  0  0  0  0  0  0
  -30.9011  -16.5819   21.4238 C   0  0  0  0  0  0  0  0  0  1  0  0
  -24.1172  -13.3349   21.6901 C   0  0  1  0  0  0  0  0  0  0  0  0
  -24.3922  -10.6398   19.0386 C   0  0  2  0  0  0  0  0  0  0  0  0
  -33.0579  -18.0569   25.0530 C   0  0  0  0  0  0  0  0  0  0  0  0
  -23.5201  -13.0152   23.0896 C   0  0  0  0  0  0  0  0  0  0  0  0
  -28.1850  -26.3052   20.0511 N   0  0  0  0  0  0  0  0  0  0  0  0
  -32.0910  -19.2641   23.0811 N   0  0  0  0  0  0  0  0  0  0  0  0
  -29.4854  -25.9688   20.0076 N   0  0  0  0  0  0  0  0  0  0  0  0
  -32.4440  -20.7934   21.6007 N   0  3  0  0  0  0  0  0  0  0  0  0
  -24.5177  -15.6239   20.8392 N   0  0  0  0  0  0  0  0  0  0  0  0
  -29.2610  -22.3030   21.0891 N   0  0  0  0  0  0  0  0  0  0  0  0
  -31.6649  -26.8742   19.8060 N   0  0  0  0  0  0  0  0  0  0  0  0
  -29.0029  -30.5184   19.6341 N   0  0  0  0  0  0  0  0  0  0  0  0
  -23.5160  -19.0547   21.5618 N   0  0  0  0  0  0  0  0  0  0  0  0
  -23.8732  -12.3043   20.6867 N   0  0  0  0  0  0  0  0  0  0  0  0
  -29.5882  -22.0380   23.4472 N   0  0  0  0  0  0  0  0  0  0  0  0
  -25.2917  -10.5654   17.8527 N   0  3  0  0  0  0  0  0  0  0  0  0
  -31.1782  -29.7963   19.5589 O   0  0  0  0  0  0  0  0  0  0  0  0
  -24.4083  -17.2829   22.7811 O   0  0  0  0  0  0  0  0  0  0  0  0
  -22.3653  -14.7303   20.9090 O   0  0  0  0  0  0  0  0  0  0  0  0
  -26.1022  -11.8931   20.1973 O   0  0  0  0  0  0  0  0  0  0  0  0
  -28.4907  -20.4372   22.2041 O   0  0  0  0  0  0  0  0  0  0  0  0
  -23.4408  -30.5515   19.9459 O   0  0  0  0  0  0  0  0  0  0  0  0
  -30.4655  -17.1192   20.1756 O   0  0  0  0  0  0  0  0  0  1  0  0
  -19.6619  -29.2619   23.7486 F   0  0  0  0  0  0  0  0  0  0  0  0
  -22.3476  -28.0147   20.0557 F   0  0  0  0  0  0  0  0  0  0  0  0
  1  2  1  0  0  0  0
  1  5  2  0  0  0  0
  2  6  2  0  0  0  0
  3  8  2  0  0  0  0
  3 16  1  0  0  0  0
  4  9  1  0  0  0  0
  4 16  2  0  0  0  0
  5 18  1  0  0  0  0
  6 20  1  0  0  0  0
  7 10  2  0  0  0  0
  7 19  1  0  0  0  0
  8 22  1  0  0  0  0
  9 22  2  0  0  0  0
 10 23  1  0  0  0  0
 11 12  2  0  0  0  0
 11 24  1  0  0  0  0
 12 25  1  0  0  0  0
 13 21  1  0  0  0  0
 13 23  2  0  0  0  0
 14 25  2  0  0  0  0
 14 26  1  0  0  0  0
 15 28  2  0  0  0  0
 15 68  1  0  0  0  0
 16 27  1  0  0  0  0
 17 27  1  0  0  0  0
 17 29  2  0  0  0  0
 17 31  1  0  0  0  0
 18 20  2  0  0  0  0
 18 36  1  0  0  0  0
 19 21  2  0  0  0  0
 19 37  1  0  0  0  0
 20 45  1  0  0  0  0
 21 38  1  0  0  0  0
 22 82  1  0  0  0  0
 23 83  1  0  0  0  0
 24 26  2  0  0  0  0
 24 82  1  0  0  0  0
 25 84  1  0  0  0  0
 26 85  1  0  0  0  0
 27 65  2  0  0  0  0
 28 56  1  0  0  0  0
 28 66  1  0  0  0  0
 29 67  1  0  0  0  0
 29 71  1  0  0  0  0
 30 57  1  0  0  0  0
 30 66  1  0  0  0  0
 30 68  2  0  0  0  0
 31 72  1  0  0  0  0
 31 77  2  0  0  0  0
 32 46  1  0  0  0  0
 32 73  1  0  0  0  0
 32 78  2  0  0  0  0
 33 61  1  0  0  0  0
 33 69  1  0  0  0  0
 33 79  2  0  0  0  0
 34 62  1  0  0  0  0
 34 74  1  0  0  0  0
 34 80  2  0  0  0  0
 35 70  1  0  0  0  0
 35 75  1  0  0  0  0
 35 81  2  0  0  0  0
 36 39  1  0  0  0  0
 37 46  1  0  0  0  0
 38 69  1  0  0  0  0
 39 41  1  0  0  0  0
 40 42  1  0  0  0  0
 40 43  1  0  0  0  0
 41 45  1  0  0  0  0
 42 47  1  0  0  0  0
 43 70  1  0  0  0  0
 44 47  1  0  0  0  0
 44 70  1  0  0  0  0
 45 73  1  0  0  0  0
 46 69  1  0  0  0  0
 47 67  1  0  0  0  0
 48 62  1  0  0  0  0
 49 63  1  0  0  0  0
 50 63  1  0  0  0  0
 51 64  1  0  0  0  0
 52 64  1  0  0  0  0
 53 64  1  0  0  0  0
 54 75  1  0  0  0  0
 55 76  1  0  0  0  0
 56 60  1  0  0  0  0
 57 59  1  0  0  0  0
 58 63  1  0  0  0  0
 58 66  1  0  0  0  0
 59 75  1  0  0  0  0
 60 83  1  0  0  0  0
 61 64  1  0  0  0  0
 61 74  1  0  0  0  0
 62 76  1  0  0  0  0
 65 67  1  0  0  0  0
M  CHG  2  68   1  76   1
M  ISO  4  35 100  60 101  75 100  83 101
M  END
> <Batch ID>
0051

> <Smiles>
CNC(C)C(=O)NC(C(=O)N1Cc2cc([101O:1][101CH2:1]Cc3cnc(CC[100N:0](C)[100C:0](=O)N4CCCC(n5nc(-c6ccc(Oc7ccc(F)cc7F)cc6)c(C(N)=O)c5N)C4)n3CC(C)C)ccc2CC1C(=O)NC1CCCc2ccccc21)C(C)(C)C

> <Shape>
0.224

> <Color>
0.070

> <Negative vol penalty>
0.000

$$$$

  -OEChem-04052317333D

 84 92  0     1  0  0  0  0  0999 V2000
  -28.8855  -32.6161   21.5182 C   0  0  0  0  0  0  0  0  0  0  0  0
  -28.8387  -31.2393   21.7124 C   0  0  0  0  0  0  0  0  0  0  0  0
  -22.4740  -13.3176   20.9784 C   0  0  0  0  0  0  0  0  0  0  0  0
  -23.4279  -13.4870   23.1917 C   0  0  0  0  0  0  0  0  0  0  0  0
  -27.7605  -33.3952   21.7848 C   0  0  0  0  0  0  0  0  0  0  0  0
  -27.6669  -30.6410   22.1744 C   0  0  0  0  0  0  0  0  0  0  0  0
  -26.4966  -26.4300   19.6165 C   0  0  0  0  0  0  0  0  0  0  0  0
  -21.3240  -12.7416   21.5182 C   0  0  0  0  0  0  0  0  0  0  0  0
  -22.2779  -12.9110   23.7314 C   0  0  0  0  0  0  0  0  0  0  0  0
  -27.2052  -25.2728   19.9367 C   0  0  0  0  0  0  0  0  0  0  0  0
  -18.2837  -10.8962   22.2765 C   0  0  0  0  0  0  0  0  0  0  0  0
  -17.7564   -9.7749   21.6362 C   0  0  0  0  0  0  0  0  0  0  0  0
  -25.3551  -24.5217   21.2903 C   0  0  0  0  0  0  0  0  0  0  0  0
  -19.8255   -8.5861   22.0140 C   0  0  0  0  0  0  0  0  0  0  0  0
  -29.7718  -19.5691   20.4833 C   0  0  0  0  0  0  0  0  0  0  0  0
  -29.6819  -21.5710   22.2473 C   0  0  0  0  0  0  0  0  0  0  0  0
  -23.5260  -13.6902   21.8152 C   0  0  0  0  0  0  0  0  0  0  0  0
  -24.9610  -15.6546   21.0473 C   0  0  0  0  0  0  0  0  0  0  0  0
  -26.5713  -32.8049   22.2411 C   0  0  0  0  0  0  0  0  0  0  0  0
  -25.2141  -26.6472   20.1404 C   0  0  0  0  0  0  0  0  0  0  0  0
  -26.5253  -31.4131   22.4487 C   0  0  0  0  0  0  0  0  0  0  0  0
  -24.6313  -25.6812   20.9732 C   0  0  0  0  0  0  0  0  0  0  0  0
  -21.2259  -12.5383   22.8946 C   0  0  0  0  0  0  0  0  0  0  0  0
  -26.6357  -24.3198   20.7761 C   0  0  0  0  0  0  0  0  0  0  0  0
  -19.5820  -10.8626   22.7855 C   0  0  0  0  0  0  0  0  0  0  0  0
  -18.5273   -8.6198   21.5049 C   0  0  0  0  0  0  0  0  0  0  0  0
  -20.3529   -9.7076   22.6543 C   0  0  0  0  0  0  0  0  0  0  0  0
  -24.7144  -14.2847   21.2582 C   0  0  0  0  0  0  0  0  0  0  0  0
  -30.2458  -19.4076   21.7666 C   0  0  0  0  0  0  0  0  0  0  0  0
  -29.2085  -21.7328   20.9639 C   0  0  0  0  0  0  0  0  0  0  0  0
  -26.2209  -15.6968   20.5020 C   0  0  0  0  0  0  0  0  0  0  0  0
  -24.1258  -16.7877   21.3200 C   0  0  0  0  0  0  0  0  0  0  0  0
  -23.9062  -28.8400   22.0337 C   0  0  0  0  0  0  0  0  0  0  0  0
  -21.1649  -27.2605   21.3176 C   0  0  0  0  0  0  0  0  0  0  0  0
  -19.6696  -24.3643   20.3061 C   0  0  0  0  0  0  0  0  0  0  0  0
  -31.2283  -12.6124   21.2059 C   0  0  0  0  0  0  0  0  0  0  0  0
  -25.3957  -33.6940   22.5609 C   0  0  0  0  0  0  0  0  0  0  0  0
  -24.4521  -27.8881   19.7639 C   0  0  0  0  0  0  0  0  0  0  0  0
  -23.2493  -25.8573   21.5454 C   0  0  0  0  0  0  0  0  0  0  0  0
  -24.0767  -32.9365   22.6905 C   0  0  0  0  0  0  0  0  0  0  0  0
  -29.1308  -12.4712   18.1593 C   0  0  0  0  0  0  0  0  0  0  0  0
  -24.2578  -31.6934   23.5558 C   0  0  0  0  0  0  0  0  0  0  0  0
  -27.7824  -12.9868   18.6591 C   0  0  0  0  0  0  0  0  0  0  0  0
  -29.9286  -11.7983   19.2722 C   0  0  0  0  0  0  0  0  0  0  0  0
  -28.7723  -13.1674   20.9759 C   0  0  0  0  0  0  0  0  0  0  0  0
  -25.2650  -30.7242   22.9251 C   0  0  1  0  0  0  0  0  0  0  0  0
  -23.3594  -28.2456   20.7667 C   0  0  1  0  0  0  0  0  0  0  0  0
  -27.9632  -13.8922   19.8899 C   0  0  2  0  0  0  0  0  0  0  0  0
  -17.4120  -23.3679   19.8504 C   0  0  0  0  0  0  0  0  0  0  0  0
  -20.6712  -27.0127   24.3184 C   0  0  0  0  0  0  0  0  0  0  0  0
  -18.9743  -25.2400   23.8223 C   0  0  0  0  0  0  0  0  0  0  0  0
  -18.6383  -27.5596   22.9684 C   0  0  0  0  0  0  0  0  0  0  0  0
  -32.8457  -13.7918   22.6457 C   0  0  0  0  0  0  0  0  0  0  0  0
  -20.3392  -23.8536   17.4689 C   0  0  0  0  0  0  0  0  0  0  0  0
  -28.7661  -17.4800   23.4601 C   0  0  0  0  0  0  0  0  0  0  0  0
  -30.8216  -18.1054   22.2014 C   0  0  0  0  0  0  0  0  0  0  0  0
  -28.6278  -23.0451   20.5257 C   0  0  0  0  0  0  0  0  0  1  0  0
  -31.0539  -15.1091   21.5781 C   0  0  0  0  0  0  0  0  0  0  0  0
  -30.4073  -15.7253   22.8047 C   0  0  0  0  0  0  0  0  0  0  0  0
  -20.4132  -26.0972   21.9181 C   0  0  1  0  0  0  0  0  0  0  0  0
  -18.6091  -24.0922   19.2546 C   0  0  2  0  0  0  0  0  0  0  0  0
  -19.7011  -26.4746   23.2477 C   0  0  0  0  0  0  0  0  0  0  0  0
  -30.2091  -20.4055   22.6717 N   0  0  0  0  0  0  0  0  0  0  0  0
  -29.2449  -20.7347   20.0588 N   0  0  0  0  0  0  0  0  0  0  0  0
  -25.7356  -13.5125   20.8777 N   0  0  0  0  0  0  0  0  0  0  0  0
  -26.6361  -14.4001   20.4222 N   0  0  0  0  0  0  0  0  0  0  0  0
  -22.5468  -27.0903   21.1530 N   0  0  0  0  0  0  0  0  0  0  0  0
  -30.0483  -12.6640   20.4459 N   0  0  0  0  0  0  0  0  0  0  0  0
  -27.0029  -16.7161   20.0877 N   0  0  0  0  0  0  0  0  0  0  0  0
  -22.8609  -16.5657   21.8814 N   0  0  0  0  0  0  0  0  0  0  0  0
  -24.6487  -29.9894   21.8412 N   0  0  0  0  0  0  0  0  0  0  0  0
  -19.5152  -25.6101   20.8767 N   0  0  0  0  0  0  0  0  0  0  0  0
  -31.6230  -13.7920   21.8551 N   0  0  0  0  0  0  0  0  0  0  0  0
  -19.1696  -23.2514   18.1591 N   0  3  0  0  0  0  0  0  0  0  0  0
  -29.7944  -17.0538   22.4448 N   0  3  1  0  0  0  0  0  0  0  0  0
  -24.4839  -17.9610   21.0581 O   0  0  0  0  0  0  0  0  0  0  0  0
  -23.6706  -28.2969   23.1067 O   0  0  0  0  0  0  0  0  0  0  0  0
  -20.5475  -28.2799   20.9994 O   0  0  0  0  0  0  0  0  0  0  0  0
  -20.5449  -23.5515   20.5953 O   0  0  0  0  0  0  0  0  0  0  0  0
  -31.8964  -11.5740   21.2912 O   0  0  0  0  0  0  0  0  0  0  0  0
  -20.1038  -11.9765   23.4217 O   0  0  0  0  0  0  0  0  0  0  0  0
  -27.3254  -23.1897   21.0908 O   0  0  0  0  0  0  0  0  0  1  0  0
  -18.0202   -7.5425   20.8913 F   0  0  0  0  0  0  0  0  0  0  0  0
  -21.6003   -9.6689   23.1423 F   0  0  0  0  0  0  0  0  0  0  0  0
  1  2  1  0  0  0  0
  1  5  2  0  0  0  0
  2  6  2  0  0  0  0
  3  8  2  0  0  0  0
  3 17  1  0  0  0  0
  4  9  1  0  0  0  0
  4 17  2  0  0  0  0
  5 19  1  0  0  0  0
  6 21  1  0  0  0  0
  7 10  2  0  0  0  0
  7 20  1  0  0  0  0
  8 23  1  0  0  0  0
  9 23  2  0  0  0  0
 10 24  1  0  0  0  0
 11 12  2  0  0  0  0
 11 25  1  0  0  0  0
 12 26  1  0  0  0  0
 13 22  1  0  0  0  0
 13 24  2  0  0  0  0
 14 26  2  0  0  0  0
 14 27  1  0  0  0  0
 15 29  2  0  0  0  0
 15 64  1  0  0  0  0
 16 30  1  0  0  0  0
 16 63  2  0  0  0  0
 17 28  1  0  0  0  0
 18 28  1  0  0  0  0
 18 31  2  0  0  0  0
 18 32  1  0  0  0  0
 19 21  2  0  0  0  0
 19 37  1  0  0  0  0
 20 22  2  0  0  0  0
 20 38  1  0  0  0  0
 21 46  1  0  0  0  0
 22 39  1  0  0  0  0
 23 81  1  0  0  0  0
 24 82  1  0  0  0  0
 25 27  2  0  0  0  0
 25 81  1  0  0  0  0
 26 83  1  0  0  0  0
 27 84  1  0  0  0  0
 28 65  2  0  0  0  0
 29 56  1  0  0  0  0
 29 63  1  0  0  0  0
 30 57  1  0  0  0  0
 30 64  2  0  0  0  0
 31 66  1  0  0  0  0
 31 69  1  0  0  0  0
 32 70  1  0  0  0  0
 32 76  2  0  0  0  0
 33 47  1  0  0  0  0
 33 71  1  0  0  0  0
 33 77  2  0  0  0  0
 34 60  1  0  0  0  0
 34 67  1  0  0  0  0
 34 78  2  0  0  0  0
 35 61  1  0  0  0  0
 35 72  1  0  0  0  0
 35 79  2  0  0  0  0
 36 68  1  0  0  0  0
 36 73  1  0  0  0  0
 36 80  2  0  0  0  0
 37 40  1  0  0  0  0
 38 47  1  0  0  0  0
 39 67  1  0  0  0  0
 40 42  1  0  0  0  0
 41 43  1  0  0  0  0
 41 44  1  0  0  0  0
 42 46  1  0  0  0  0
 43 48  1  0  0  0  0
 44 68  1  0  0  0  0
 45 48  1  0  0  0  0
 45 68  1  0  0  0  0
 46 71  1  0  0  0  0
 47 67  1  0  0  0  0
 48 66  1  0  0  0  0
 49 61  1  0  0  0  0
 50 62  1  0  0  0  0
 51 62  1  0  0  0  0
 52 62  1  0  0  0  0
 53 73  1  0  0  0  0
 54 74  1  0  0  0  0
 55 75  1  0  0  0  0
 56 75  1  0  0  0  0
 57 82  1  0  0  0  0
 58 59  1  0  0  0  0
 58 73  1  0  0  0  0
 59 75  1  0  0  0  0
 60 62  1  0  0  0  0
 60 72  1  0  0  0  0
 61 74  1  0  0  0  0
 65 66  1  0  0  0  0
M  CHG  2  74   1  75   1
M  ISO  4  36 100  57 101  73 100  82 101
M  END
> <Batch ID>
0051

> <Smiles>
CNC(C)C(=O)NC(C(=O)N1Cc2cc([101O:1][101CH2:1]c3cnc(CN(C)CC[100N:0](C)[100C:0](=O)N4CCCC(n5nc(-c6ccc(Oc7ccc(F)cc7F)cc6)c(C(N)=O)c5N)C4)cn3)ccc2CC1C(=O)NC1CCCc2ccccc21)C(C)(C)C

> <Shape>
0.259

> <Color>
0.049

> <Negative vol penalty>
0.000

$$$$

  -OEChem-04052317333D

 86 94  0     1  0  0  0  0  0999 V2000
  -19.2701  -33.6172   20.6488 C   0  0  0  0  0  0  0  0  0  0  0  0
  -20.4955  -33.1245   20.2117 C   0  0  0  0  0  0  0  0  0  0  0  0
  -25.9601  -13.2541   20.0033 C   0  0  0  0  0  0  0  0  0  0  0  0
  -25.9558  -14.0820   22.2730 C   0  0  0  0  0  0  0  0  0  0  0  0
  -18.7606  -33.2193   21.8842 C   0  0  0  0  0  0  0  0  0  0  0  0
  -21.2127  -32.2343   21.0102 C   0  0  0  0  0  0  0  0  0  0  0  0
  -24.7202  -27.5880   19.1089 C   0  0  0  0  0  0  0  0  0  0  0  0
  -25.6080  -11.9859   20.4651 C   0  0  0  0  0  0  0  0  0  0  0  0
  -25.6036  -12.8138   22.7349 C   0  0  0  0  0  0  0  0  0  0  0  0
  -26.0976  -27.4635   18.9328 C   0  0  0  0  0  0  0  0  0  0  0  0
  -24.3575   -8.6170   21.0143 C   0  0  0  0  0  0  0  0  0  0  0  0
  -23.3514   -7.9341   20.3308 C   0  0  0  0  0  0  0  0  0  0  0  0
  -26.2816  -26.4678   21.1222 C   0  0  0  0  0  0  0  0  0  0  0  0
  -21.8019   -9.7201   20.8272 C   0  0  0  0  0  0  0  0  0  0  0  0
  -26.1341  -14.3021   20.9072 C   0  0  0  0  0  0  0  0  0  0  0  0
  -25.6278  -16.6510   20.0504 C   0  0  0  0  0  0  0  0  0  0  0  0
  -19.4674  -32.3163   22.6939 C   0  0  0  0  0  0  0  0  0  0  0  0
  -24.1136  -27.1625   20.2995 C   0  0  0  0  0  0  0  0  0  0  0  0
  -20.7128  -31.8249   22.2581 C   0  0  0  0  0  0  0  0  0  0  0  0
  -24.8959  -26.5855   21.3100 C   0  0  0  0  0  0  0  0  0  0  0  0
  -25.4297  -11.7658   21.8309 C   0  0  0  0  0  0  0  0  0  0  0  0
  -26.8789  -26.9060   19.9407 C   0  0  0  0  0  0  0  0  0  0  0  0
  -24.0857   -9.8514   21.6044 C   0  0  0  0  0  0  0  0  0  0  0  0
  -22.0737   -8.4857   20.2372 C   0  0  0  0  0  0  0  0  0  0  0  0
  -22.8080  -10.4030   21.5108 C   0  0  0  0  0  0  0  0  0  0  0  0
  -26.4984  -15.6122   20.4308 C   0  0  0  0  0  0  0  0  0  0  0  0
  -26.4604  -17.6780   19.6783 C   0  0  0  0  0  0  0  0  0  0  0  0
  -32.4908  -27.0156   20.7092 C   0  0  0  0  0  0  0  0  0  0  0  0
  -32.1183  -25.2982   19.3134 C   0  0  0  0  0  0  0  0  0  0  0  0
  -30.4189  -26.1833   20.4819 C   0  0  0  0  0  0  0  0  0  0  0  0
  -24.1945  -16.6846   20.0350 C   0  0  0  0  0  0  0  0  0  0  0  0
  -22.4632  -28.5900   22.6108 C   0  0  0  0  0  0  0  0  0  0  0  0
  -22.0752  -25.5510   23.6768 C   0  0  0  0  0  0  0  0  0  0  0  0
  -23.2230  -22.3379   23.7508 C   0  0  0  0  0  0  0  0  0  0  0  0
  -31.8456  -19.2017   21.1900 C   0  0  0  0  0  0  0  0  0  0  0  0
  -18.8987  -31.9519   24.0424 C   0  0  0  0  0  0  0  0  0  0  0  0
  -22.6229  -27.2792   20.4632 C   0  0  0  0  0  0  0  0  0  0  0  0
  -24.2906  -26.0946   22.5988 C   0  0  0  0  0  0  0  0  0  0  0  0
  -19.5442  -30.7149   24.6617 C   0  0  0  0  0  0  0  0  0  0  0  0
  -30.8045  -18.5261   17.8837 C   0  0  0  0  0  0  0  0  0  0  0  0
  -21.0636  -30.7938   24.5515 C   0  0  0  0  0  0  0  0  0  0  0  0
  -29.4884  -17.7885   18.1256 C   0  0  0  0  0  0  0  0  0  0  0  0
  -31.8823  -18.1243   18.8923 C   0  0  0  0  0  0  0  0  0  0  0  0
  -30.1436  -17.5219   20.5467 C   0  0  0  0  0  0  0  0  0  0  0  0
  -21.5088  -30.8384   23.0848 C   0  0  1  0  0  0  0  0  0  0  0  0
  -22.1808  -27.2842   21.9233 C   0  0  1  0  0  0  0  0  0  0  0  0
  -29.0261  -17.9520   19.5839 C   0  0  2  0  0  0  0  0  0  0  0  0
  -33.4283  -27.9934   21.3319 C   0  0  0  0  0  0  0  0  0  0  0  0
  -22.7156  -20.0871   24.7375 C   0  0  0  0  0  0  0  0  0  0  0  0
  -23.1565  -26.4909   26.3707 C   0  0  0  0  0  0  0  0  0  0  0  0
  -23.5191  -24.0908   26.9840 C   0  0  0  0  0  0  0  0  0  0  0  0
  -21.2142  -24.9222   26.5160 C   0  0  0  0  0  0  0  0  0  0  0  0
  -34.2559  -18.7777   20.5454 C   0  0  0  0  0  0  0  0  0  0  0  0
  -22.8845  -21.1136   21.0777 C   0  0  0  0  0  0  0  0  0  0  0  0
  -34.5523  -22.8047   17.8215 C   0  0  0  0  0  0  0  0  0  0  0  0
  -32.6271  -24.3001   18.3297 C   0  0  0  0  0  0  0  0  0  0  0  0
  -28.9633  -26.2037   20.8451 C   0  0  0  0  0  0  0  0  0  1  0  0
  -34.1398  -21.8824   20.7817 C   0  0  0  0  0  0  0  0  0  0  0  0
  -33.6091  -20.8310   21.7503 C   0  0  0  0  0  0  0  0  0  0  0  0
  -33.0851  -22.3253   19.7758 C   0  0  0  0  0  0  0  0  0  0  0  0
  -22.8412  -24.6366   24.6020 C   0  0  1  0  0  0  0  0  0  0  0  0
  -22.5155  -21.0106   23.5459 C   0  0  2  0  0  0  0  0  0  0  0  0
  -22.6947  -25.0461   26.0948 C   0  0  0  0  0  0  0  0  0  0  0  0
  -27.7855  -15.9484   20.3111 N   0  0  0  0  0  0  0  0  0  0  0  0
  -33.0200  -26.1467   19.8326 N   0  0  0  0  0  0  0  0  0  0  0  0
  -31.2031  -27.0932   21.0820 N   0  0  0  0  0  0  0  0  0  0  0  0
  -30.8050  -25.2570   19.5897 N   0  0  0  0  0  0  0  0  0  0  0  0
  -27.7298  -17.2100   19.8513 N   0  0  0  0  0  0  0  0  0  0  0  0
  -22.8297  -26.2363   22.7140 N   0  0  0  0  0  0  0  0  0  0  0  0
  -31.3841  -18.2499   20.2689 N   0  0  0  0  0  0  0  0  0  0  0  0
  -26.2233  -18.9266   19.2232 N   0  0  0  0  0  0  0  0  0  0  0  0
  -23.4949  -15.5430   20.4492 N   0  0  0  0  0  0  0  0  0  0  0  0
  -21.4452  -29.5175   22.4969 N   0  0  0  0  0  0  0  0  0  0  0  0
  -22.3861  -23.2824   24.3065 N   0  0  0  0  0  0  0  0  0  0  0  0
  -33.1804  -19.6168   21.0704 N   0  0  0  0  0  0  0  0  0  0  0  0
  -23.0381  -20.3274   22.3289 N   0  3  0  0  0  0  0  0  0  0  0  0
  -33.6691  -23.3955   18.8900 N   0  3  1  0  0  0  0  0  0  0  0  0
  -23.5532  -17.6913   19.6492 O   0  0  0  0  0  0  0  0  0  0  0  0
  -23.5254  -28.7442   23.2021 O   0  0  0  0  0  0  0  0  0  0  0  0
  -20.8515  -25.6480   23.7990 O   0  0  0  0  0  0  0  0  0  0  0  0
  -24.4014  -22.5178   23.4515 O   0  0  0  0  0  0  0  0  0  0  0  0
  -31.1084  -19.6513   22.0769 O   0  0  0  0  0  0  0  0  0  0  0  0
  -25.0858  -10.5285   22.2819 O   0  0  0  0  0  0  0  0  0  0  0  0
  -28.2237  -26.7840   19.7716 O   0  0  0  0  0  0  0  0  0  1  0  0
  -21.1081   -7.8306   19.5795 F   0  0  0  0  0  0  0  0  0  0  0  0
  -22.5412  -11.5891   22.0745 F   0  0  0  0  0  0  0  0  0  0  0  0
  1  2  1  0  0  0  0
  1  5  2  0  0  0  0
  2  6  2  0  0  0  0
  3  8  2  0  0  0  0
  3 15  1  0  0  0  0
  4  9  1  0  0  0  0
  4 15  2  0  0  0  0
  5 17  1  0  0  0  0
  6 19  1  0  0  0  0
  7 10  2  0  0  0  0
  7 18  1  0  0  0  0
  8 21  1  0  0  0  0
  9 21  2  0  0  0  0
 10 22  1  0  0  0  0
 11 12  2  0  0  0  0
 11 23  1  0  0  0  0
 12 24  1  0  0  0  0
 13 20  1  0  0  0  0
 13 22  2  0  0  0  0
 14 24  2  0  0  0  0
 14 25  1  0  0  0  0
 15 26  1  0  0  0  0
 16 26  1  0  0  0  0
 16 27  2  0  0  0  0
 16 31  1  0  0  0  0
 17 19  2  0  0  0  0
 17 36  1  0  0  0  0
 18 20  2  0  0  0  0
 18 37  1  0  0  0  0
 19 45  1  0  0  0  0
 20 38  1  0  0  0  0
 21 83  1  0  0  0  0
 22 84  1  0  0  0  0
 23 25  2  0  0  0  0
 23 83  1  0  0  0  0
 24 85  1  0  0  0  0
 25 86  1  0  0  0  0
 26 64  2  0  0  0  0
 27 68  1  0  0  0  0
 27 71  1  0  0  0  0
 28 48  1  0  0  0  0
 28 65  1  0  0  0  0
 28 66  2  0  0  0  0
 29 56  1  0  0  0  0
 29 65  2  0  0  0  0
 29 67  1  0  0  0  0
 30 57  1  0  0  0  0
 30 66  1  0  0  0  0
 30 67  2  0  0  0  0
 31 72  1  0  0  0  0
 31 78  2  0  0  0  0
 32 46  1  0  0  0  0
 32 73  1  0  0  0  0
 32 79  2  0  0  0  0
 33 61  1  0  0  0  0
 33 69  1  0  0  0  0
 33 80  2  0  0  0  0
 34 62  1  0  0  0  0
 34 74  1  0  0  0  0
 34 81  2  0  0  0  0
 35 70  1  0  0  0  0
 35 75  1  0  0  0  0
 35 82  2  0  0  0  0
 36 39  1  0  0  0  0
 37 46  1  0  0  0  0
 38 69  1  0  0  0  0
 39 41  1  0  0  0  0
 40 42  1  0  0  0  0
 40 43  1  0  0  0  0
 41 45  1  0  0  0  0
 42 47  1  0  0  0  0
 43 70  1  0  0  0  0
 44 47  1  0  0  0  0
 44 70  1  0  0  0  0
 45 73  1  0  0  0  0
 46 69  1  0  0  0  0
 47 68  1  0  0  0  0
 49 62  1  0  0  0  0
 50 63  1  0  0  0  0
 51 63  1  0  0  0  0
 52 63  1  0  0  0  0
 53 75  1  0  0  0  0
 54 76  1  0  0  0  0
 55 77  1  0  0  0  0
 56 77  1  0  0  0  0
 57 84  1  0  0  0  0
 58 59  1  0  0  0  0
 58 60  1  0  0  0  0
 59 75  1  0  0  0  0
 60 77  1  0  0  0  0
 61 63  1  0  0  0  0
 61 74  1  0  0  0  0
 62 76  1  0  0  0  0
 64 68  1  0  0  0  0
M  CHG  2  76   1  77   1
M  ISO  4  35 100  57 101  75 100  84 101
M  END
> <Batch ID>
0051

> <Smiles>
CNC(C)C(=O)NC(C(=O)N1Cc2cc([101O:1][101CH2:1]c3nc(C)nc(CN(C)CCC[100N:0](C)[100C:0](=O)N4CCCC(n5nc(-c6ccc(Oc7ccc(F)cc7F)cc6)c(C(N)=O)c5N)C4)n3)ccc2CC1C(=O)NC1CCCc2ccccc21)C(C)(C)C

> <Shape>
0.190

> <Color>
0.101

> <Negative vol penalty>
0.000

$$$$

  -OEChem-04052317333D

 84 92  0     1  0  0  0  0  0999 V2000
  -24.8967  -33.2994   28.4855 C   0  0  0  0  0  0  0  0  0  0  0  0
  -25.7208  -32.5024   27.6975 C   0  0  0  0  0  0  0  0  0  0  0  0
  -26.8314  -10.5441   20.9939 C   0  0  0  0  0  0  0  0  0  0  0  0
  -25.7133  -12.2157   19.6551 C   0  0  0  0  0  0  0  0  0  0  0  0
  -23.5119  -33.2236   28.3425 C   0  0  0  0  0  0  0  0  0  0  0  0
  -25.1605  -31.6282   26.7668 C   0  0  0  0  0  0  0  0  0  0  0  0
  -27.4595  -30.1033   21.2992 C   0  0  0  0  0  0  0  0  0  0  0  0
  -25.5951  -10.0272   21.3811 C   0  0  0  0  0  0  0  0  0  0  0  0
  -24.4769  -11.6988   20.0422 C   0  0  0  0  0  0  0  0  0  0  0  0
  -28.1929  -29.0001   20.8646 C   0  0  0  0  0  0  0  0  0  0  0  0
  -23.2097   -8.0248   20.0647 C   0  0  0  0  0  0  0  0  0  0  0  0
  -23.0502   -6.6393   20.0412 C   0  0  0  0  0  0  0  0  0  0  0  0
  -26.1577  -27.9572   20.0968 C   0  0  0  0  0  0  0  0  0  0  0  0
  -22.5781   -6.6535   22.4106 C   0  0  0  0  0  0  0  0  0  0  0  0
  -30.9790  -24.0173   19.5950 C   0  0  0  0  0  0  0  0  0  0  0  0
  -28.7673  -23.8684   18.8585 C   0  0  0  0  0  0  0  0  0  0  0  0
  -26.8905  -11.6384   20.1309 C   0  0  0  0  0  0  0  0  0  0  0  0
  -28.9360  -11.7934   18.6145 C   0  0  0  0  0  0  0  0  0  0  0  0
  -22.9346  -32.3550   27.4029 C   0  0  0  0  0  0  0  0  0  0  0  0
  -26.0661  -30.1371   21.1454 C   0  0  0  0  0  0  0  0  0  0  0  0
  -23.7666  -31.5397   26.6121 C   0  0  0  0  0  0  0  0  0  0  0  0
  -25.4092  -29.0631   20.5279 C   0  0  0  0  0  0  0  0  0  0  0  0
  -29.9172  -24.6250   18.9565 C   0  0  0  0  0  0  0  0  0  0  0  0
  -24.4178  -10.6045   20.9053 C   0  0  0  0  0  0  0  0  0  0  0  0
  -27.5417  -27.9256   20.2659 C   0  0  0  0  0  0  0  0  0  0  0  0
  -23.0534   -8.7247   21.2611 C   0  0  0  0  0  0  0  0  0  0  0  0
  -22.7344   -5.9536   21.2141 C   0  0  0  0  0  0  0  0  0  0  0  0
  -22.7376   -8.0390   22.4341 C   0  0  0  0  0  0  0  0  0  0  0  0
  -28.1673  -12.1732   19.7310 C   0  0  0  0  0  0  0  0  0  0  0  0
  -30.0517  -12.5919   18.6781 C   0  0  0  0  0  0  0  0  0  0  0  0
  -29.7561  -22.1332   19.9440 C   0  0  0  0  0  0  0  0  0  0  0  0
  -28.6656  -10.8071   17.6096 C   0  0  0  0  0  0  0  0  0  0  0  0
  -23.5930  -30.2997   23.1357 C   0  0  0  0  0  0  0  0  0  0  0  0
  -21.8955  -30.5669   20.3845 C   0  0  0  0  0  0  0  0  0  0  0  0
  -21.7070  -29.9801   17.0278 C   0  0  0  0  0  0  0  0  0  0  0  0
  -31.2015  -17.8728   21.0162 C   0  0  0  0  0  0  0  0  0  0  0  0
  -21.4310  -32.2734   27.3175 C   0  0  0  0  0  0  0  0  0  0  0  0
  -25.2925  -31.3460   21.5953 C   0  0  0  0  0  0  0  0  0  0  0  0
  -23.9174  -29.0591   20.3211 C   0  0  0  0  0  0  0  0  0  0  0  0
  -20.9291  -31.5940   26.0460 C   0  0  0  0  0  0  0  0  0  0  0  0
  -32.8348  -14.9128   21.7887 C   0  0  0  0  0  0  0  0  0  0  0  0
  -21.7063  -30.3076   25.7857 C   0  0  0  0  0  0  0  0  0  0  0  0
  -31.9049  -13.8278   21.2474 C   0  0  0  0  0  0  0  0  0  0  0  0
  -32.0387  -16.0339   22.4459 C   0  0  0  0  0  0  0  0  0  0  0  0
  -30.0881  -15.5913   20.9897 C   0  0  0  0  0  0  0  0  0  0  0  0
  -23.1973  -30.5970   25.5741 C   0  0  1  0  0  0  0  0  0  0  0  0
  -23.8184  -31.0501   21.8536 C   0  0  1  0  0  0  0  0  0  0  0  0
  -30.8424  -14.4295   20.3110 C   0  0  2  0  0  0  0  0  0  0  0  0
  -27.5495  -16.0287   18.6466 C   0  0  0  0  0  0  0  0  0  0  0  0
  -20.1803  -30.2780   15.0587 C   0  0  0  0  0  0  0  0  0  0  0  0
  -20.1874  -28.2338   21.3588 C   0  0  0  0  0  0  0  0  0  0  0  0
  -19.3403  -27.9672   19.0180 C   0  0  0  0  0  0  0  0  0  0  0  0
  -18.9039  -30.0819   20.2671 C   0  0  0  0  0  0  0  0  0  0  0  0
  -23.6665  -31.6946   15.6208 C   0  0  0  0  0  0  0  0  0  0  0  0
  -30.0090  -26.0248   18.3995 C   0  0  0  0  0  0  0  0  0  0  0  0
  -29.6668  -20.7483   20.4892 C   0  0  0  0  0  0  0  0  0  0  0  0
  -28.9113  -16.6754   18.8581 C   0  0  0  0  0  0  0  0  0  0  0  0
  -30.3330  -19.6929   19.5981 C   0  0  0  0  0  0  0  0  0  0  0  0
  -28.9023  -17.7177   19.9700 C   0  0  0  0  0  0  0  0  0  0  0  0
  -29.5973  -27.0823   19.4179 C   0  0  0  0  0  0  0  0  0  1  0  0
  -21.2405  -29.5943   19.4337 C   0  0  1  0  0  0  0  0  0  0  0  0
  -21.3185  -30.8795   15.8683 C   0  0  2  0  0  0  0  0  0  0  0  0
  -19.9459  -28.9682   20.0249 C   0  0  0  0  0  0  0  0  0  0  0  0
  -30.9330  -22.7681   20.1027 N   0  0  0  0  0  0  0  0  0  0  0  0
  -28.6513  -22.6145   19.3427 N   0  0  0  0  0  0  0  0  0  0  0  0
  -28.7458  -13.1378   20.4513 N   0  0  0  0  0  0  0  0  0  0  0  0
  -29.8900  -13.3708   19.7859 N   0  0  0  0  0  0  0  0  0  0  0  0
  -23.2043  -30.2613   20.7836 N   0  0  0  0  0  0  0  0  0  0  0  0
  -31.0356  -16.5782   21.5303 N   0  0  0  0  0  0  0  0  0  0  0  0
  -31.1456  -12.6966   17.8940 N   0  0  0  0  0  0  0  0  0  0  0  0
  -27.4728  -10.0762   17.6946 N   0  0  0  0  0  0  0  0  0  0  0  0
  -23.4280  -31.1119   24.2414 N   0  0  0  0  0  0  0  0  0  0  0  0
  -21.0369  -30.3193   18.1842 N   0  0  0  0  0  0  0  0  0  0  0  0
  -30.2073  -18.3511   20.1493 N   0  0  0  0  0  0  0  0  0  0  0  0
  -22.4824  -31.0867   14.9609 N   0  3  0  0  0  0  0  0  0  0  0  0
  -29.4660  -10.5691   16.6735 O   0  0  0  0  0  0  0  0  0  0  0  0
  -23.5691  -29.0746   23.1225 O   0  0  0  0  0  0  0  0  0  0  0  0
  -21.2714  -31.5648   20.7537 O   0  0  0  0  0  0  0  0  0  0  0  0
  -22.5206  -29.0655   16.9179 O   0  0  0  0  0  0  0  0  0  0  0  0
  -32.1799  -18.5673   21.3202 O   0  0  0  0  0  0  0  0  0  0  0  0
  -23.2113  -10.1003   21.2827 O   0  0  0  0  0  0  0  0  0  0  0  0
  -28.2550  -26.8472   19.8414 O   0  0  0  0  0  0  0  0  0  1  0  0
  -22.5798   -4.6233   21.1911 F   0  0  0  0  0  0  0  0  0  0  0  0
  -22.5851   -8.7060   23.5863 F   0  0  0  0  0  0  0  0  0  0  0  0
  1  2  1  0  0  0  0
  1  5  2  0  0  0  0
  2  6  2  0  0  0  0
  3  8  2  0  0  0  0
  3 17  1  0  0  0  0
  4  9  1  0  0  0  0
  4 17  2  0  0  0  0
  5 19  1  0  0  0  0
  6 21  1  0  0  0  0
  7 10  2  0  0  0  0
  7 20  1  0  0  0  0
  8 24  1  0  0  0  0
  9 24  2  0  0  0  0
 10 25  1  0  0  0  0
 11 12  2  0  0  0  0
 11 26  1  0  0  0  0
 12 27  1  0  0  0  0
 13 22  1  0  0  0  0
 13 25  2  0  0  0  0
 14 27  2  0  0  0  0
 14 28  1  0  0  0  0
 15 23  1  0  0  0  0
 15 64  2  0  0  0  0
 16 23  2  0  0  0  0
 16 65  1  0  0  0  0
 17 29  1  0  0  0  0
 18 29  1  0  0  0  0
 18 30  2  0  0  0  0
 18 32  1  0  0  0  0
 19 21  2  0  0  0  0
 19 37  1  0  0  0  0
 20 22  2  0  0  0  0
 20 38  1  0  0  0  0
 21 46  1  0  0  0  0
 22 39  1  0  0  0  0
 23 55  1  0  0  0  0
 24 81  1  0  0  0  0
 25 82  1  0  0  0  0
 26 28  2  0  0  0  0
 26 81  1  0  0  0  0
 27 83  1  0  0  0  0
 28 84  1  0  0  0  0
 29 66  2  0  0  0  0
 30 67  1  0  0  0  0
 30 70  1  0  0  0  0
 31 56  1  0  0  0  0
 31 64  1  0  0  0  0
 31 65  2  0  0  0  0
 32 71  1  0  0  0  0
 32 76  2  0  0  0  0
 33 47  1  0  0  0  0
 33 72  1  0  0  0  0
 33 77  2  0  0  0  0
 34 61  1  0  0  0  0
 34 68  1  0  0  0  0
 34 78  2  0  0  0  0
 35 62  1  0  0  0  0
 35 73  1  0  0  0  0
 35 79  2  0  0  0  0
 36 69  1  0  0  0  0
 36 74  1  0  0  0  0
 36 80  2  0  0  0  0
 37 40  1  0  0  0  0
 38 47  1  0  0  0  0
 39 68  1  0  0  0  0
 40 42  1  0  0  0  0
 41 43  1  0  0  0  0
 41 44  1  0  0  0  0
 42 46  1  0  0  0  0
 43 48  1  0  0  0  0
 44 69  1  0  0  0  0
 45 48  1  0  0  0  0
 45 69  1  0  0  0  0
 46 72  1  0  0  0  0
 47 68  1  0  0  0  0
 48 67  1  0  0  0  0
 49 57  1  0  0  0  0
 50 62  1  0  0  0  0
 51 63  1  0  0  0  0
 52 63  1  0  0  0  0
 53 63  1  0  0  0  0
 54 75  1  0  0  0  0
 55 60  1  0  0  0  0
 56 58  1  0  0  0  0
 57 59  1  0  0  0  0
 58 74  1  0  0  0  0
 59 74  1  0  0  0  0
 60 82  1  0  0  0  0
 61 63  1  0  0  0  0
 61 73  1  0  0  0  0
 62 75  1  0  0  0  0
 66 67  1  0  0  0  0
M  CHG  1  75   1
M  ISO  4  36 100  60 101  74 100  82 101
M  END
> <Batch ID>
0051

> <Smiles>
CCC[100N:0](CCc1ncc(C[101CH2:1][101O:1]c2ccc3c(c2)CN(C(=O)C(NC(=O)C(C)NC)C(C)(C)C)C(C(=O)NC2CCCc4ccccc42)C3)cn1)[100C:0](=O)N1CCCC(n2nc(-c3ccc(Oc4ccc(F)cc4F)cc3)c(C(N)=O)c2N)C1

> <Shape>
0.317

> <Color>
0.092

> <Negative vol penalty>
0.000

$$$$

  -OEChem-04052317333D

 87 95  0     1  0  0  0  0  0999 V2000
  -30.4458  -18.9736   16.2048 C   0  0  0  0  0  0  0  0  0  0  0  0
  -30.4121  -19.5145   17.4861 C   0  0  0  0  0  0  0  0  0  0  0  0
  -23.0276   -9.9682   19.9025 C   0  0  0  0  0  0  0  0  0  0  0  0
  -23.9177   -9.7945   22.1418 C   0  0  0  0  0  0  0  0  0  0  0  0
  -30.2989  -19.8042   15.0946 C   0  0  0  0  0  0  0  0  0  0  0  0
  -30.2327  -20.8866   17.6579 C   0  0  0  0  0  0  0  0  0  0  0  0
  -26.8771  -21.9669   21.2935 C   0  0  0  0  0  0  0  0  0  0  0  0
  -22.2991   -8.7954   20.1011 C   0  0  0  0  0  0  0  0  0  0  0  0
  -23.1892   -8.6216   22.3404 C   0  0  0  0  0  0  0  0  0  0  0  0
  -27.3140  -21.8661   22.6136 C   0  0  0  0  0  0  0  0  0  0  0  0
  -20.0008   -7.7635   23.0604 C   0  0  0  0  0  0  0  0  0  0  0  0
  -19.3123   -7.6263   24.2656 C   0  0  0  0  0  0  0  0  0  0  0  0
  -32.1637  -19.9557   24.9042 C   0  0  0  0  0  0  0  0  0  0  0  0
  -27.6124  -24.2586   22.6913 C   0  0  0  0  0  0  0  0  0  0  0  0
  -30.1360  -20.8428   25.8454 C   0  0  0  0  0  0  0  0  0  0  0  0
  -20.5937   -5.6416   24.7717 C   0  0  0  0  0  0  0  0  0  0  0  0
  -32.6323  -21.2572   24.8244 C   0  0  0  0  0  0  0  0  0  0  0  0
  -23.8369  -10.4678   20.9229 C   0  0  0  0  0  0  0  0  0  0  0  0
  -24.1716  -12.9959   20.9870 C   0  0  0  0  0  0  0  0  0  0  0  0
  -30.1080  -21.1858   15.2532 C   0  0  0  0  0  0  0  0  0  0  0  0
  -26.8148  -23.2153   20.6578 C   0  0  0  0  0  0  0  0  0  0  0  0
  -30.0845  -21.7367   16.5487 C   0  0  0  0  0  0  0  0  0  0  0  0
  -27.1719  -24.3729   21.3639 C   0  0  0  0  0  0  0  0  0  0  0  0
  -30.8908  -19.7531   25.4256 C   0  0  0  0  0  0  0  0  0  0  0  0
  -22.3799   -8.1221   21.3200 C   0  0  0  0  0  0  0  0  0  0  0  0
  -27.6845  -23.0117   23.3118 C   0  0  0  0  0  0  0  0  0  0  0  0
  -20.9858   -6.8397   22.7107 C   0  0  0  0  0  0  0  0  0  0  0  0
  -19.6087   -6.5654   25.1213 C   0  0  0  0  0  0  0  0  0  0  0  0
  -21.2822   -5.7788   23.5664 C   0  0  0  0  0  0  0  0  0  0  0  0
  -24.5901  -11.6789   20.7182 C   0  0  0  0  0  0  0  0  0  0  0  0
  -30.6954  -22.1045   25.7237 C   0  0  0  0  0  0  0  0  0  0  0  0
  -25.2412  -13.7770   20.6233 C   0  0  0  0  0  0  0  0  0  0  0  0
  -22.9272  -13.4707   21.5179 C   0  0  0  0  0  0  0  0  0  0  0  0
  -28.2275  -24.5154   18.1245 C   0  0  0  0  0  0  0  0  0  0  0  0
  -30.7532  -14.7285   20.6692 C   0  0  0  0  0  0  0  0  0  0  0  0
  -26.1837  -26.9613   18.7271 C   0  0  0  0  0  0  0  0  0  0  0  0
  -24.2411  -28.6234   20.9877 C   0  0  0  0  0  0  0  0  0  0  0  0
  -30.8697  -17.3788   24.4326 C   0  0  0  0  0  0  0  0  0  0  0  0
  -30.0013  -22.0500   14.0217 C   0  0  0  0  0  0  0  0  0  0  0  0
  -26.3159  -23.3101   19.2419 C   0  0  0  0  0  0  0  0  0  0  0  0
  -27.1038  -25.7390   20.7334 C   0  0  0  0  0  0  0  0  0  0  0  0
  -29.4403  -23.4419   14.3011 C   0  0  0  0  0  0  0  0  0  0  0  0
  -29.4471  -12.6341   18.0715 C   0  0  0  0  0  0  0  0  0  0  0  0
  -30.1212  -24.0572   15.5195 C   0  0  0  0  0  0  0  0  0  0  0  0
  -28.0442  -12.2827   18.5650 C   0  0  0  0  0  0  0  0  0  0  0  0
  -30.4349  -12.7439   19.2288 C   0  0  0  0  0  0  0  0  0  0  0  0
  -28.6151  -13.3554   20.7896 C   0  0  0  0  0  0  0  0  0  0  0  0
  -29.8670  -23.2168   16.7767 C   0  0  1  0  0  0  0  0  0  0  0  0
  -26.7814  -24.5753   18.5279 C   0  0  1  0  0  0  0  0  0  0  0  0
  -27.5794  -13.2649   19.6548 C   0  0  2  0  0  0  0  0  0  0  0  0
  -22.7184  -30.6074   21.1943 C   0  0  0  0  0  0  0  0  0  0  0  0
  -30.7954  -17.8026   26.9201 C   0  0  0  0  0  0  0  0  0  0  0  0
  -28.7792  -18.2223   25.5533 C   0  0  0  0  0  0  0  0  0  0  0  0
  -28.6066  -28.8157   18.7470 C   0  0  0  0  0  0  0  0  0  0  0  0
  -27.1870  -30.5443   19.8716 C   0  0  0  0  0  0  0  0  0  0  0  0
  -26.5943  -29.7409   17.5856 C   0  0  0  0  0  0  0  0  0  0  0  0
  -29.9320  -18.8065   22.5222 C   0  0  0  0  0  0  0  0  0  0  0  0
  -21.9378  -26.9236   21.7391 C   0  0  0  0  0  0  0  0  0  0  0  0
  -29.9048  -23.3107   26.1692 C   0  0  0  0  0  0  0  0  0  0  0  0
  -30.1804  -15.6407   21.7246 C   0  0  0  0  0  0  0  0  0  0  0  0
  -31.1689  -16.7414   22.0740 C   0  0  0  0  0  0  0  0  0  0  0  0
  -29.0522  -23.8921   25.0467 C   0  0  0  0  0  0  0  0  0  1  0  0
  -26.2340  -28.2139   19.5681 C   0  0  1  0  0  0  0  0  0  0  0  0
  -22.8068  -29.1152   20.9142 C   0  0  2  0  0  0  0  0  0  0  0  0
  -30.3379  -18.3726   25.5333 C   0  0  0  0  0  0  0  0  0  0  0  0
  -27.1587  -29.3029   18.9546 C   0  0  0  0  0  0  0  0  0  0  0  0
  -31.9284  -22.3407   25.2221 N   0  0  0  0  0  0  0  0  0  0  0  0
  -25.8288  -11.6227   20.2220 N   0  0  0  0  0  0  0  0  0  0  0  0
  -26.1979  -12.9141   20.1759 N   0  0  0  0  0  0  0  0  0  0  0  0
  -26.6155  -25.7791   19.3450 N   0  0  0  0  0  0  0  0  0  0  0  0
  -29.9467  -13.6690   20.2531 N   0  0  0  0  0  0  0  0  0  0  0  0
  -25.4472  -15.1110   20.6457 N   0  0  0  0  0  0  0  0  0  0  0  0
  -21.9362  -12.5328   21.8383 N   0  0  0  0  0  0  0  0  0  0  0  0
  -28.5347  -23.4604   17.2866 N   0  0  0  0  0  0  0  0  0  0  0  0
  -24.8503  -28.6387   19.7508 N   0  0  0  0  0  0  0  0  0  0  0  0
  -30.6424  -17.6596   23.0805 N   0  0  0  0  0  0  0  0  0  0  0  0
  -21.9619  -28.3990   21.9112 N   0  3  0  0  0  0  0  0  0  0  0  0
  -22.6948  -14.6917   21.6875 O   0  0  0  0  0  0  0  0  0  0  0  0
  -29.0067  -25.3644   18.5413 O   0  0  0  0  0  0  0  0  0  0  0  0
  -31.8826  -14.9542   20.2269 O   0  0  0  0  0  0  0  0  0  0  0  0
  -25.7697  -27.0279   17.5671 O   0  0  0  0  0  0  0  0  0  0  0  0
  -24.7695  -28.2653   22.0380 O   0  0  0  0  0  0  0  0  0  0  0  0
  -31.4914  -16.3648   24.7812 O   0  0  0  0  0  0  0  0  0  0  0  0
  -21.6691   -6.9778   21.5142 O   0  0  0  0  0  0  0  0  0  0  0  0
  -28.1119  -22.9160   24.6002 O   0  0  0  0  0  0  0  0  0  1  0  0
  -18.9484   -6.4346   26.2794 F   0  0  0  0  0  0  0  0  0  0  0  0
  -22.2282   -4.8888   23.2365 F   0  0  0  0  0  0  0  0  0  0  0  0
  1  2  1  0  0  0  0
  1  5  2  0  0  0  0
  2  6  2  0  0  0  0
  3  8  2  0  0  0  0
  3 18  1  0  0  0  0
  4  9  1  0  0  0  0
  4 18  2  0  0  0  0
  5 20  1  0  0  0  0
  6 22  1  0  0  0  0
  7 10  2  0  0  0  0
  7 21  1  0  0  0  0
  8 25  1  0  0  0  0
  9 25  2  0  0  0  0
 10 26  1  0  0  0  0
 11 12  2  0  0  0  0
 11 27  1  0  0  0  0
 12 28  1  0  0  0  0
 13 17  2  0  0  0  0
 13 24  1  0  0  0  0
 14 23  1  0  0  0  0
 14 26  2  0  0  0  0
 15 24  2  0  0  0  0
 15 31  1  0  0  0  0
 16 28  2  0  0  0  0
 16 29  1  0  0  0  0
 17 67  1  0  0  0  0
 18 30  1  0  0  0  0
 19 30  1  0  0  0  0
 19 32  2  0  0  0  0
 19 33  1  0  0  0  0
 20 22  2  0  0  0  0
 20 39  1  0  0  0  0
 21 23  2  0  0  0  0
 21 40  1  0  0  0  0
 22 48  1  0  0  0  0
 23 41  1  0  0  0  0
 24 65  1  0  0  0  0
 25 84  1  0  0  0  0
 26 85  1  0  0  0  0
 27 29  2  0  0  0  0
 27 84  1  0  0  0  0
 28 86  1  0  0  0  0
 29 87  1  0  0  0  0
 30 68  2  0  0  0  0
 31 59  1  0  0  0  0
 31 67  2  0  0  0  0
 32 69  1  0  0  0  0
 32 72  1  0  0  0  0
 33 73  1  0  0  0  0
 33 78  2  0  0  0  0
 34 49  1  0  0  0  0
 34 74  1  0  0  0  0
 34 79  2  0  0  0  0
 35 60  1  0  0  0  0
 35 71  1  0  0  0  0
 35 80  2  0  0  0  0
 36 63  1  0  0  0  0
 36 70  1  0  0  0  0
 36 81  2  0  0  0  0
 37 64  1  0  0  0  0
 37 75  1  0  0  0  0
 37 82  2  0  0  0  0
 38 65  1  0  0  0  0
 38 76  1  0  0  0  0
 38 83  2  0  0  0  0
 39 42  1  0  0  0  0
 40 49  1  0  0  0  0
 41 70  1  0  0  0  0
 42 44  1  0  0  0  0
 43 45  1  0  0  0  0
 43 46  1  0  0  0  0
 44 48  1  0  0  0  0
 45 50  1  0  0  0  0
 46 71  1  0  0  0  0
 47 50  1  0  0  0  0
 47 71  1  0  0  0  0
 48 74  1  0  0  0  0
 49 70  1  0  0  0  0
 50 69  1  0  0  0  0
 51 64  1  0  0  0  0
 52 65  1  0  0  0  0
 53 65  1  0  0  0  0
 54 66  1  0  0  0  0
 55 66  1  0  0  0  0
 56 66  1  0  0  0  0
 57 76  1  0  0  0  0
 58 77  1  0  0  0  0
 59 62  1  0  0  0  0
 60 61  1  0  0  0  0
 61 76  1  0  0  0  0
 62 85  1  0  0  0  0
 63 66  1  0  0  0  0
 63 75  1  0  0  0  0
 64 77  1  0  0  0  0
 68 69  1  0  0  0  0
M  CHG  1  77   1
M  ISO  4  35 100  60 100  62 101  85 101
M  END
> <Batch ID>
0051

> <Smiles>
CNC(C)C(=O)NC(C(=O)N1Cc2cc([101O:1][101CH2:1]Cc3cc(C(C)(C)C(=O)N(C)C[100CH2:0][100C:0](=O)N4CCCC(n5nc(-c6ccc(Oc7ccc(F)cc7F)cc6)c(C(N)=O)c5N)C4)ccn3)ccc2CC1C(=O)NC1CCCc2ccccc21)C(C)(C)C

> <Shape>
0.260

> <Color>
0.192

> <Negative vol penalty>
0.000

$$$$

  -OEChem-04052317333D

 87 95  0     1  0  0  0  0  0999 V2000
  -15.9811  -30.0973   23.5454 C   0  0  0  0  0  0  0  0  0  0  0  0
  -16.7802  -29.7678   22.4553 C   0  0  0  0  0  0  0  0  0  0  0  0
  -29.0417  -17.3931   19.4184 C   0  0  0  0  0  0  0  0  0  0  0  0
  -30.4681  -17.8905   21.3039 C   0  0  0  0  0  0  0  0  0  0  0  0
  -16.3512  -29.6924   24.8272 C   0  0  0  0  0  0  0  0  0  0  0  0
  -17.9504  -29.0341   22.6465 C   0  0  0  0  0  0  0  0  0  0  0  0
  -20.3402  -24.8611   18.8542 C   0  0  0  0  0  0  0  0  0  0  0  0
  -29.6457  -16.1422   19.2914 C   0  0  0  0  0  0  0  0  0  0  0  0
  -31.0721  -16.6396   21.1769 C   0  0  0  0  0  0  0  0  0  0  0  0
  -21.3579  -24.9310   17.9039 C   0  0  0  0  0  0  0  0  0  0  0  0
  -30.5636  -12.6755   18.6963 C   0  0  0  0  0  0  0  0  0  0  0  0
  -29.7342  -11.5723   18.4945 C   0  0  0  0  0  0  0  0  0  0  0  0
  -22.9262  -24.0855   19.5301 C   0  0  0  0  0  0  0  0  0  0  0  0
  -28.6307  -12.0172   20.5972 C   0  0  0  0  0  0  0  0  0  0  0  0
  -27.5127  -29.2003   20.1310 C   0  0  0  0  0  0  0  0  0  0  0  0
  -29.4529  -18.2673   20.4246 C   0  0  0  0  0  0  0  0  0  0  0  0
  -27.6975  -19.8832   21.3274 C   0  0  0  0  0  0  0  0  0  0  0  0
  -17.5215  -28.9449   25.0330 C   0  0  0  0  0  0  0  0  0  0  0  0
  -20.6105  -24.4124   20.1550 C   0  0  0  0  0  0  0  0  0  0  0  0
  -18.3371  -28.6198   23.9324 C   0  0  0  0  0  0  0  0  0  0  0  0
  -21.9097  -24.0084   20.4943 C   0  0  0  0  0  0  0  0  0  0  0  0
  -30.6608  -15.7654   20.1707 C   0  0  0  0  0  0  0  0  0  0  0  0
  -22.6517  -24.5459   18.2425 C   0  0  0  0  0  0  0  0  0  0  0  0
  -30.4266  -13.4495   19.8487 C   0  0  0  0  0  0  0  0  0  0  0  0
  -28.7677  -11.2432   19.4449 C   0  0  0  0  0  0  0  0  0  0  0  0
  -29.4601  -13.1204   20.7991 C   0  0  0  0  0  0  0  0  0  0  0  0
  -28.8298  -19.5598   20.5559 C   0  0  0  0  0  0  0  0  0  0  0  0
  -26.8367  -28.2502   20.9197 C   0  0  0  0  0  0  0  0  0  0  0  0
  -26.9355  -29.0892   18.8896 C   0  0  0  0  0  0  0  0  0  0  0  0
  -27.5102  -21.2273   21.1156 C   0  0  0  0  0  0  0  0  0  0  0  0
  -26.8876  -19.0437   22.1610 C   0  0  0  0  0  0  0  0  0  0  0  0
  -20.4227  -25.6984   23.0558 C   0  0  0  0  0  0  0  0  0  0  0  0
  -21.1836  -22.6935   24.0117 C   0  0  0  0  0  0  0  0  0  0  0  0
  -22.6219  -19.6912   23.2605 C   0  0  0  0  0  0  0  0  0  0  0  0
  -29.5287  -26.4106   20.6641 C   0  0  0  0  0  0  0  0  0  0  0  0
  -17.9050  -28.5702   26.4427 C   0  0  0  0  0  0  0  0  0  0  0  0
  -19.4962  -24.3176   21.1608 C   0  0  0  0  0  0  0  0  0  0  0  0
  -22.2479  -23.5002   21.8712 C   0  0  0  0  0  0  0  0  0  0  0  0
  -18.9651  -27.4742   26.5146 C   0  0  0  0  0  0  0  0  0  0  0  0
  -29.6324  -24.3580   17.7567 C   0  0  0  0  0  0  0  0  0  0  0  0
  -20.1045  -27.7692   25.5443 C   0  0  0  0  0  0  0  0  0  0  0  0
  -29.3458  -22.9533   18.2903 C   0  0  0  0  0  0  0  0  0  0  0  0
  -30.4729  -25.1734   18.7369 C   0  0  0  0  0  0  0  0  0  0  0  0
  -29.6417  -23.8449   20.6390 C   0  0  0  0  0  0  0  0  0  0  0  0
  -19.6010  -27.8039   24.0963 C   0  0  1  0  0  0  0  0  0  0  0  0
  -19.9909  -24.3320   22.6038 C   0  0  1  0  0  0  0  0  0  0  0  0
  -28.7498  -23.0036   19.7100 C   0  0  2  0  0  0  0  0  0  0  0  0
  -27.2006  -29.8088   17.6304 C   0  0  0  0  0  0  0  0  0  0  0  0
  -23.1242  -17.4434   24.2568 C   0  0  0  0  0  0  0  0  0  0  0  0
  -26.1418  -26.8205   22.9617 C   0  0  0  0  0  0  0  0  0  0  0  0
  -26.7807  -29.2016   23.2412 C   0  0  0  0  0  0  0  0  0  0  0  0
  -23.4755  -23.9173   25.6114 C   0  0  0  0  0  0  0  0  0  0  0  0
  -24.4787  -21.6305   25.7914 C   0  0  0  0  0  0  0  0  0  0  0  0
  -22.2396  -22.0904   26.7901 C   0  0  0  0  0  0  0  0  0  0  0  0
  -24.7570  -27.1611   14.7434 C   0  0  0  0  0  0  0  0  0  0  0  0
  -25.6303  -24.8606   15.1719 C   0  0  0  0  0  0  0  0  0  0  0  0
  -20.9785  -18.2962   21.2328 C   0  0  0  0  0  0  0  0  0  0  0  0
  -25.7970  -26.6646   16.9628 C   0  0  0  0  0  0  0  0  0  0  0  0
  -25.0651  -27.6142   17.9204 C   0  0  0  0  0  0  0  0  0  0  0  0
  -28.5421  -27.5061   22.6604 C   0  0  0  0  0  0  0  0  0  0  0  0
  -23.5351  -25.6242   16.3157 C   0  0  0  0  0  0  0  0  0  1  0  0
  -22.4702  -21.9494   24.2764 C   0  0  1  0  0  0  0  0  0  0  0  0
  -22.1340  -18.2658   23.4469 C   0  0  2  0  0  0  0  0  0  0  0  0
  -27.0591  -27.9438   22.3428 C   0  0  0  0  0  0  0  0  0  0  0  0
  -23.1603  -22.4083   25.5919 C   0  0  0  0  0  0  0  0  0  0  0  0
  -24.9284  -26.0673   15.8198 C   0  0  0  0  0  0  0  0  0  0  0  0
  -29.3267  -20.6135   19.9026 N   0  0  0  0  0  0  0  0  0  0  0  0
  -25.9015  -27.5846   20.2368 N   0  0  0  0  0  0  0  0  0  0  0  0
  -25.9856  -28.1174   19.0059 N   0  0  0  0  0  0  0  0  0  0  0  0
  -28.5028  -21.6121   20.2630 N   0  0  0  0  0  0  0  0  0  0  0  0
  -21.1254  -23.4320   22.8214 N   0  0  0  0  0  0  0  0  0  0  0  0
  -29.8521  -25.1826   20.0637 N   0  0  0  0  0  0  0  0  0  0  0  0
  -26.5949  -22.1056   21.5772 N   0  0  0  0  0  0  0  0  0  0  0  0
  -27.2202  -17.6863   22.2665 N   0  0  0  0  0  0  0  0  0  0  0  0
  -19.4045  -26.4597   23.5972 N   0  0  0  0  0  0  0  0  0  0  0  0
  -22.1354  -20.5298   24.2410 N   0  0  0  0  0  0  0  0  0  0  0  0
  -28.9375  -26.3295   21.9189 N   0  0  0  0  0  0  0  0  0  0  0  0
  -21.9457  -17.6056   22.1242 N   0  3  0  0  0  0  0  0  0  0  0  0
  -25.8884  -19.4809   22.7807 O   0  0  0  0  0  0  0  0  0  0  0  0
  -21.5933  -26.0363   22.9245 O   0  0  0  0  0  0  0  0  0  0  0  0
  -20.2616  -22.6163   24.8275 O   0  0  0  0  0  0  0  0  0  0  0  0
  -23.3636  -20.0263   22.3396 O   0  0  0  0  0  0  0  0  0  0  0  0
  -29.7456  -27.4985   20.1197 O   0  0  0  0  0  0  0  0  0  0  0  0
  -31.2503  -14.5448   20.0473 O   0  0  0  0  0  0  0  0  0  0  0  0
  -23.6471  -24.6137   17.3171 O   0  0  0  0  0  0  0  0  0  1  0  0
  -27.9703  -10.1848   19.2501 F   0  0  0  0  0  0  0  0  0  0  0  0
  -29.3230  -13.8609   21.9075 F   0  0  0  0  0  0  0  0  0  0  0  0
  1  2  1  0  0  0  0
  1  5  2  0  0  0  0
  2  6  2  0  0  0  0
  3  8  2  0  0  0  0
  3 16  1  0  0  0  0
  4  9  1  0  0  0  0
  4 16  2  0  0  0  0
  5 18  1  0  0  0  0
  6 20  1  0  0  0  0
  7 10  2  0  0  0  0
  7 19  1  0  0  0  0
  8 22  1  0  0  0  0
  9 22  2  0  0  0  0
 10 23  1  0  0  0  0
 11 12  2  0  0  0  0
 11 24  1  0  0  0  0
 12 25  1  0  0  0  0
 13 21  1  0  0  0  0
 13 23  2  0  0  0  0
 14 25  2  0  0  0  0
 14 26  1  0  0  0  0
 15 28  1  0  0  0  0
 15 29  2  0  0  0  0
 16 27  1  0  0  0  0
 17 27  1  0  0  0  0
 17 30  2  0  0  0  0
 17 31  1  0  0  0  0
 18 20  2  0  0  0  0
 18 36  1  0  0  0  0
 19 21  2  0  0  0  0
 19 37  1  0  0  0  0
 20 45  1  0  0  0  0
 21 38  1  0  0  0  0
 22 84  1  0  0  0  0
 23 85  1  0  0  0  0
 24 26  2  0  0  0  0
 24 84  1  0  0  0  0
 25 86  1  0  0  0  0
 26 87  1  0  0  0  0
 27 67  2  0  0  0  0
 28 64  1  0  0  0  0
 28 68  2  0  0  0  0
 29 48  1  0  0  0  0
 29 69  1  0  0  0  0
 30 70  1  0  0  0  0
 30 73  1  0  0  0  0
 31 74  1  0  0  0  0
 31 79  2  0  0  0  0
 32 46  1  0  0  0  0
 32 75  1  0  0  0  0
 32 80  2  0  0  0  0
 33 62  1  0  0  0  0
 33 71  1  0  0  0  0
 33 81  2  0  0  0  0
 34 63  1  0  0  0  0
 34 76  1  0  0  0  0
 34 82  2  0  0  0  0
 35 72  1  0  0  0  0
 35 77  1  0  0  0  0
 35 83  2  0  0  0  0
 36 39  1  0  0  0  0
 37 46  1  0  0  0  0
 38 71  1  0  0  0  0
 39 41  1  0  0  0  0
 40 42  1  0  0  0  0
 40 43  1  0  0  0  0
 41 45  1  0  0  0  0
 42 47  1  0  0  0  0
 43 72  1  0  0  0  0
 44 47  1  0  0  0  0
 44 72  1  0  0  0  0
 45 75  1  0  0  0  0
 46 71  1  0  0  0  0
 47 70  1  0  0  0  0
 49 63  1  0  0  0  0
 50 64  1  0  0  0  0
 51 64  1  0  0  0  0
 52 65  1  0  0  0  0
 53 65  1  0  0  0  0
 54 65  1  0  0  0  0
 55 66  1  0  0  0  0
 56 66  1  0  0  0  0
 57 78  1  0  0  0  0
 58 59  1  0  0  0  0
 58 66  1  0  0  0  0
 59 69  1  0  0  0  0
 60 64  1  0  0  0  0
 60 77  1  0  0  0  0
 61 66  1  0  0  0  0
 61 85  1  0  0  0  0
 62 65  1  0  0  0  0
 62 76  1  0  0  0  0
 63 78  1  0  0  0  0
 67 70  1  0  0  0  0
 68 69  1  0  0  0  0
M  CHG  1  78   1
M  ISO  4  35 100  61 101  77 100  85 101
M  END
> <Batch ID>
0051

> <Smiles>
CNC(C)C(=O)NC(C(=O)N1Cc2cc([101O:1][101CH2:1]C(C)(C)CCn3nc(C(C)(C)C[100NH:0][100C:0](=O)N4CCCC(n5nc(-c6ccc(Oc7ccc(F)cc7F)cc6)c(C(N)=O)c5N)C4)cc3C)ccc2CC1C(=O)NC1CCCc2ccccc21)C(C)(C)C

> <Shape>
0.225

> <Color>
0.068

> <Negative vol penalty>
0.000

$$$$

  -OEChem-04052317333D

 86 94  0     1  0  0  0  0  0999 V2000
  -17.2406  -12.8156   21.3932 C   0  0  0  0  0  0  0  0  0  0  0  0
  -17.8801  -13.9826   21.7988 C   0  0  0  0  0  0  0  0  0  0  0  0
  -22.6368  -29.2031   19.5342 C   0  0  0  0  0  0  0  0  0  0  0  0
  -22.6404  -27.5119   21.2596 C   0  0  0  0  0  0  0  0  0  0  0  0
  -17.8941  -11.5890   21.5046 C   0  0  0  0  0  0  0  0  0  0  0  0
  -19.1733  -13.9235   22.3173 C   0  0  0  0  0  0  0  0  0  0  0  0
  -23.6097  -18.0887   21.6283 C   0  0  0  0  0  0  0  0  0  0  0  0
  -21.2602  -29.3619   19.6927 C   0  0  0  0  0  0  0  0  0  0  0  0
  -21.2637  -27.6708   21.4182 C   0  0  0  0  0  0  0  0  0  0  0  0
  -24.0674  -19.1166   22.4516 C   0  0  0  0  0  0  0  0  0  0  0  0
  -19.1671  -29.8468   22.9313 C   0  0  0  0  0  0  0  0  0  0  0  0
  -18.6710  -29.9258   24.2325 C   0  0  0  0  0  0  0  0  0  0  0  0
  -25.8072  -17.6674   23.2835 C   0  0  0  0  0  0  0  0  0  0  0  0
  -17.3133  -27.9676   23.8337 C   0  0  0  0  0  0  0  0  0  0  0  0
  -28.0394  -20.9207   20.1286 C   0  0  0  0  0  0  0  0  0  0  0  0
  -23.3270  -28.2780   20.3176 C   0  0  0  0  0  0  0  0  0  0  0  0
  -25.7689  -28.8069   20.8321 C   0  0  0  0  0  0  0  0  0  0  0  0
  -19.1995  -11.5160   22.0157 C   0  0  0  0  0  0  0  0  0  0  0  0
  -24.2417  -16.8370   21.6344 C   0  0  0  0  0  0  0  0  0  0  0  0
  -19.8443  -12.6946   22.4370 C   0  0  0  0  0  0  0  0  0  0  0  0
  -25.3572  -16.6261   22.4574 C   0  0  0  0  0  0  0  0  0  0  0  0
  -20.5736  -28.5958   20.6347 C   0  0  0  0  0  0  0  0  0  0  0  0
  -25.1645  -18.9051   23.2815 C   0  0  0  0  0  0  0  0  0  0  0  0
  -18.7363  -28.8283   22.0812 C   0  0  0  0  0  0  0  0  0  0  0  0
  -17.7441  -28.9862   24.6838 C   0  0  0  0  0  0  0  0  0  0  0  0
  -17.8094  -27.8886   22.5325 C   0  0  0  0  0  0  0  0  0  0  0  0
  -24.7490  -28.1131   20.1539 C   0  0  0  0  0  0  0  0  0  0  0  0
  -29.3827  -21.2080   20.0256 C   0  0  0  0  0  0  0  0  0  0  0  0
  -29.3336  -22.1789   22.0956 C   0  0  0  0  0  0  0  0  0  0  0  0
  -27.9902  -21.8922   22.1982 C   0  0  0  0  0  0  0  0  0  0  0  0
  -26.9343  -28.2885   20.3227 C   0  0  0  0  0  0  0  0  0  0  0  0
  -25.6716  -29.8288   21.8332 C   0  0  0  0  0  0  0  0  0  0  0  0
  -23.3449  -13.8749   22.3594 C   0  0  0  0  0  0  0  0  0  0  0  0
  -26.2950  -13.1241   21.2388 C   0  0  0  0  0  0  0  0  0  0  0  0
  -29.4925  -14.1291   20.5967 C   0  0  0  0  0  0  0  0  0  0  0  0
  -30.0660  -24.1902   18.7871 C   0  0  0  0  0  0  0  0  0  0  0  0
  -19.8475  -10.1619   22.1611 C   0  0  0  0  0  0  0  0  0  0  0  0
  -23.7523  -15.7470   20.7207 C   0  0  0  0  0  0  0  0  0  0  0  0
  -26.0834  -15.3069   22.4862 C   0  0  0  0  0  0  0  0  0  0  0  0
  -21.3578  -10.2289   22.3722 C   0  0  0  0  0  0  0  0  0  0  0  0
  -27.7547  -25.2821   16.3503 C   0  0  0  0  0  0  0  0  0  0  0  0
  -21.7037  -11.2765   23.4257 C   0  0  0  0  0  0  0  0  0  0  0  0
  -26.8351  -26.1736   17.1835 C   0  0  0  0  0  0  0  0  0  0  0  0
  -28.1712  -24.0195   17.1071 C   0  0  0  0  0  0  0  0  0  0  0  0
  -27.8474  -25.1793   19.2687 C   0  0  0  0  0  0  0  0  0  0  0  0
  -21.2562  -12.6743   22.9813 C   0  0  1  0  0  0  0  0  0  0  0  0
  -24.1546  -14.3512   21.1867 C   0  0  1  0  0  0  0  0  0  0  0  0
  -27.4627  -26.4836   18.5535 C   0  0  2  0  0  0  0  0  0  0  0  0
  -30.0642  -22.8804   23.1892 C   0  0  0  0  0  0  0  0  0  0  0  0
  -32.4948  -24.4233   16.0643 C   0  0  0  0  0  0  0  0  0  0  0  0
  -31.6844  -13.2821   19.7160 C   0  0  0  0  0  0  0  0  0  0  0  0
  -26.7881  -11.6672   23.8740 C   0  0  0  0  0  0  0  0  0  0  0  0
  -29.2343  -11.6763   23.3409 C   0  0  0  0  0  0  0  0  0  0  0  0
  -27.6386  -10.4741   21.8473 C   0  0  0  0  0  0  0  0  0  0  0  0
  -29.4802  -16.0742   18.3661 C   0  0  0  0  0  0  0  0  0  0  0  0
  -30.1466  -20.8215   18.8079 C   0  0  0  0  0  0  0  0  0  0  0  0
  -27.1957  -22.2745   23.4214 C   0  0  0  0  0  0  0  0  0  0  0  0
  -32.8611  -23.1710   16.8485 C   0  0  0  0  0  0  0  0  0  0  0  0
  -27.4418  -21.3628   24.6254 C   0  0  0  0  0  0  0  0  0  0  0  0
  -30.1530  -21.8992   17.7155 C   0  0  0  0  0  0  0  0  0  0  0  0
  -32.2243  -23.1354   18.2327 C   0  0  0  0  0  0  0  0  0  0  0  0
  -27.0072  -19.9209   24.3898 C   0  0  0  0  0  0  0  0  0  1  0  0
  -27.6708  -13.0021   21.8480 C   0  0  1  0  0  0  0  0  0  0  0  0
  -30.3719  -13.9680   19.3699 C   0  0  2  0  0  0  0  0  0  0  0  0
  -27.8183  -11.7293   22.7287 C   0  0  0  0  0  0  0  0  0  0  0  0
  -27.3190  -21.2576   21.2167 N   0  0  0  0  0  0  0  0  0  0  0  0
  -25.2246  -27.2218   19.2801 N   0  0  0  0  0  0  0  0  0  0  0  0
  -30.0539  -21.8422   21.0074 N   0  0  0  0  0  0  0  0  0  0  0  0
  -26.5563  -27.3523   19.4057 N   0  0  0  0  0  0  0  0  0  0  0  0
  -25.5630  -14.2704   21.5793 N   0  0  0  0  0  0  0  0  0  0  0  0
  -28.7207  -24.3576   18.4272 N   0  0  0  0  0  0  0  0  0  0  0  0
  -28.2353  -28.5467   20.5741 N   0  0  0  0  0  0  0  0  0  0  0  0
  -24.3971  -30.2443   22.2421 N   0  0  0  0  0  0  0  0  0  0  0  0
  -22.1817  -13.2161   22.0095 N   0  0  0  0  0  0  0  0  0  0  0  0
  -28.6161  -13.0742   20.7391 N   0  0  0  0  0  0  0  0  0  0  0  0
  -30.7694  -23.1428   18.1736 N   0  0  0  0  0  0  0  0  0  0  0  0
  -30.6799  -15.2991   18.7749 N   0  3  0  0  0  0  0  0  0  0  0  0
  -26.6849  -30.3692   22.3379 O   0  0  0  0  0  0  0  0  0  0  0  0
  -23.7465  -14.0879   23.4974 O   0  0  0  0  0  0  0  0  0  0  0  0
  -25.8876  -12.2385   20.4829 O   0  0  0  0  0  0  0  0  0  0  0  0
  -29.5774  -15.0925   21.3552 O   0  0  0  0  0  0  0  0  0  0  0  0
  -30.6085  -24.9308   19.6174 O   0  0  0  0  0  0  0  0  0  0  0  0
  -19.2303  -28.7507   20.7899 O   0  0  0  0  0  0  0  0  0  0  0  0
  -25.6129  -19.9064   24.0866 O   0  0  0  0  0  0  0  0  0  1  0  0
  -17.2690  -29.0612   25.9339 F   0  0  0  0  0  0  0  0  0  0  0  0
  -17.3926  -26.9071   21.7208 F   0  0  0  0  0  0  0  0  0  0  0  0
  1  2  1  0  0  0  0
  1  5  2  0  0  0  0
  2  6  2  0  0  0  0
  3  8  2  0  0  0  0
  3 16  1  0  0  0  0
  4  9  1  0  0  0  0
  4 16  2  0  0  0  0
  5 18  1  0  0  0  0
  6 20  1  0  0  0  0
  7 10  2  0  0  0  0
  7 19  1  0  0  0  0
  8 22  1  0  0  0  0
  9 22  2  0  0  0  0
 10 23  1  0  0  0  0
 11 12  2  0  0  0  0
 11 24  1  0  0  0  0
 12 25  1  0  0  0  0
 13 21  1  0  0  0  0
 13 23  2  0  0  0  0
 14 25  2  0  0  0  0
 14 26  1  0  0  0  0
 15 28  1  0  0  0  0
 15 66  2  0  0  0  0
 16 27  1  0  0  0  0
 17 27  1  0  0  0  0
 17 31  2  0  0  0  0
 17 32  1  0  0  0  0
 18 20  2  0  0  0  0
 18 37  1  0  0  0  0
 19 21  2  0  0  0  0
 19 38  1  0  0  0  0
 20 46  1  0  0  0  0
 21 39  1  0  0  0  0
 22 83  1  0  0  0  0
 23 84  1  0  0  0  0
 24 26  2  0  0  0  0
 24 83  1  0  0  0  0
 25 85  1  0  0  0  0
 26 86  1  0  0  0  0
 27 67  2  0  0  0  0
 28 56  1  0  0  0  0
 28 68  2  0  0  0  0
 29 30  2  0  0  0  0
 29 49  1  0  0  0  0
 29 68  1  0  0  0  0
 30 57  1  0  0  0  0
 30 66  1  0  0  0  0
 31 69  1  0  0  0  0
 31 72  1  0  0  0  0
 32 73  1  0  0  0  0
 32 78  2  0  0  0  0
 33 47  1  0  0  0  0
 33 74  1  0  0  0  0
 33 79  2  0  0  0  0
 34 63  1  0  0  0  0
 34 70  1  0  0  0  0
 34 80  2  0  0  0  0
 35 64  1  0  0  0  0
 35 75  1  0  0  0  0
 35 81  2  0  0  0  0
 36 71  1  0  0  0  0
 36 76  1  0  0  0  0
 36 82  2  0  0  0  0
 37 40  1  0  0  0  0
 38 47  1  0  0  0  0
 39 70  1  0  0  0  0
 40 42  1  0  0  0  0
 41 43  1  0  0  0  0
 41 44  1  0  0  0  0
 42 46  1  0  0  0  0
 43 48  1  0  0  0  0
 44 71  1  0  0  0  0
 45 48  1  0  0  0  0
 45 71  1  0  0  0  0
 46 74  1  0  0  0  0
 47 70  1  0  0  0  0
 48 69  1  0  0  0  0
 50 58  1  0  0  0  0
 51 64  1  0  0  0  0
 52 65  1  0  0  0  0
 53 65  1  0  0  0  0
 54 65  1  0  0  0  0
 55 77  1  0  0  0  0
 56 60  1  0  0  0  0
 57 59  1  0  0  0  0
 58 61  1  0  0  0  0
 59 62  1  0  0  0  0
 60 76  1  0  0  0  0
 61 76  1  0  0  0  0
 62 84  1  0  0  0  0
 63 65  1  0  0  0  0
 63 75  1  0  0  0  0
 64 77  1  0  0  0  0
 67 69  1  0  0  0  0
M  CHG  1  77   1
M  ISO  4  36 100  62 101  76 100  84 101
M  END
> <Batch ID>
0051

> <Smiles>
CCC[100N:0](CCc1cnc(CC[101CH2:1][101O:1]c2ccc3c(c2)CN(C(=O)C(NC(=O)C(C)NC)C(C)(C)C)C(C(=O)NC2CCCc4ccccc42)C3)c(C)n1)[100C:0](=O)N1CCCC(n2nc(-c3ccc(Oc4ccc(F)cc4F)cc3)c(C(N)=O)c2N)C1

> <Shape>
0.245

> <Color>
0.077

> <Negative vol penalty>
0.000

$$$$

  -OEChem-04052317333D

 87 94  0     1  0  0  0  0  0999 V2000
  -27.9400  -33.2736   25.9128 C   0  0  0  0  0  0  0  0  0  0  0  0
  -28.1167  -32.1065   25.1764 C   0  0  0  0  0  0  0  0  0  0  0  0
  -24.5150   -9.1907   20.0529 C   0  0  0  0  0  0  0  0  0  0  0  0
  -24.0202   -9.8528   22.3231 C   0  0  0  0  0  0  0  0  0  0  0  0
  -26.6879  -33.5777   26.4452 C   0  0  0  0  0  0  0  0  0  0  0  0
  -27.0414  -31.2423   24.9730 C   0  0  0  0  0  0  0  0  0  0  0  0
  -26.7259  -29.6274   20.1837 C   0  0  0  0  0  0  0  0  0  0  0  0
  -24.3363   -7.8527   20.4042 C   0  0  0  0  0  0  0  0  0  0  0  0
  -23.8414   -8.5147   22.6744 C   0  0  0  0  0  0  0  0  0  0  0  0
  -27.6030  -28.6163   19.7937 C   0  0  0  0  0  0  0  0  0  0  0  0
  -21.4382   -6.1592   22.3632 C   0  0  0  0  0  0  0  0  0  0  0  0
  -20.3278   -5.8386   23.1441 C   0  0  0  0  0  0  0  0  0  0  0  0
  -25.8418  -26.9909   20.0682 C   0  0  0  0  0  0  0  0  0  0  0  0
  -21.7875   -4.9786   24.8666 C   0  0  0  0  0  0  0  0  0  0  0  0
  -24.3570  -10.1907   21.0124 C   0  0  0  0  0  0  0  0  0  0  0  0
  -23.5625  -12.4662   20.1766 C   0  0  0  0  0  0  0  0  0  0  0  0
  -25.5944  -32.7216   26.2401 C   0  0  0  0  0  0  0  0  0  0  0  0
  -25.4010  -29.3259   20.5301 C   0  0  0  0  0  0  0  0  0  0  0  0
  -25.7737  -31.5346   25.5044 C   0  0  0  0  0  0  0  0  0  0  0  0
  -24.9492  -28.0003   20.4599 C   0  0  0  0  0  0  0  0  0  0  0  0
  -23.9995   -7.5147   21.7149 C   0  0  0  0  0  0  0  0  0  0  0  0
  -27.1618  -27.2974   19.7386 C   0  0  0  0  0  0  0  0  0  0  0  0
  -22.7233   -5.8895   22.8340 C   0  0  0  0  0  0  0  0  0  0  0  0
  -20.5024   -5.2482   24.3958 C   0  0  0  0  0  0  0  0  0  0  0  0
  -22.8979   -5.2992   24.0857 C   0  0  0  0  0  0  0  0  0  0  0  0
  -24.5421  -11.5730   20.6504 C   0  0  0  0  0  0  0  0  0  0  0  0
  -24.2389  -13.6455   19.9810 C   0  0  0  0  0  0  0  0  0  0  0  0
  -22.1660  -12.2493   19.9350 C   0  0  0  0  0  0  0  0  0  0  0  0
  -23.6501  -29.6164   23.1670 C   0  0  0  0  0  0  0  0  0  0  0  0
  -30.1723  -17.7078   21.2592 C   0  0  0  0  0  0  0  0  0  0  0  0
  -21.2533  -28.6302   21.2163 C   0  0  0  0  0  0  0  0  0  0  0  0
  -29.1893  -15.7568   22.4932 C   0  0  0  0  0  0  0  0  0  0  0  0
  -20.3198  -26.9658   18.3870 C   0  0  0  0  0  0  0  0  0  0  0  0
  -24.2713  -33.0690   26.8753 C   0  0  0  0  0  0  0  0  0  0  0  0
  -24.4599  -30.4315   20.9230 C   0  0  0  0  0  0  0  0  0  0  0  0
  -23.5308  -27.6268   20.8020 C   0  0  0  0  0  0  0  0  0  0  0  0
  -23.0943  -32.2875   26.2972 C   0  0  0  0  0  0  0  0  0  0  0  0
  -28.5749  -15.3547   18.9312 C   0  0  0  0  0  0  0  0  0  0  0  0
  -23.4397  -30.8058   26.1875 C   0  0  0  0  0  0  0  0  0  0  0  0
  -27.3896  -14.3903   18.9325 C   0  0  0  0  0  0  0  0  0  0  0  0
  -29.5414  -15.0576   20.0747 C   0  0  0  0  0  0  0  0  0  0  0  0
  -27.7103  -14.0851   21.4259 C   0  0  0  0  0  0  0  0  0  0  0  0
  -24.6258  -30.5844   25.2411 C   0  0  1  0  0  0  0  0  0  0  0  0
  -23.2745  -29.9419   21.7491 C   0  0  1  0  0  0  0  0  0  0  0  0
  -26.6958  -14.3702   20.3058 C   0  0  2  0  0  0  0  0  0  0  0  0
  -29.7967  -25.1969   22.3113 C   0  0  0  0  0  0  0  0  0  0  0  0
  -26.4270  -19.5800   18.6688 C   0  0  0  0  0  0  0  0  0  0  0  0
  -18.2880  -26.2953   17.0757 C   0  0  0  0  0  0  0  0  0  0  0  0
  -30.5773  -17.3747   23.7071 C   0  0  0  0  0  0  0  0  0  0  0  0
  -31.5962  -15.7713   22.0540 C   0  0  0  0  0  0  0  0  0  0  0  0
  -20.6612  -26.4411   23.2577 C   0  0  0  0  0  0  0  0  0  0  0  0
  -19.3144  -25.2668   21.5040 C   0  0  0  0  0  0  0  0  0  0  0  0
  -18.6342  -27.5362   22.2849 C   0  0  0  0  0  0  0  0  0  0  0  0
  -29.6981  -24.0131   18.5885 C   0  0  0  0  0  0  0  0  0  0  0  0
  -21.2051  -28.4945   16.0124 C   0  0  0  0  0  0  0  0  0  0  0  0
  -28.9964  -18.6697   21.4041 C   0  0  0  0  0  0  0  0  0  0  0  0
  -30.1758  -24.9191   20.8613 C   0  0  0  0  0  0  0  0  0  0  0  0
  -28.8001  -22.7871   20.6241 C   0  0  0  0  0  0  0  0  0  0  0  0
  -26.4355  -19.8807   20.1517 C   0  0  0  0  0  0  0  0  0  0  0  0
  -28.9154  -19.7036   20.2909 C   0  0  0  0  0  0  0  0  0  0  0  0
  -27.8490  -21.9039   19.8197 C   0  0  0  0  0  0  0  0  0  0  0  0
  -27.7942  -25.0113   19.9105 C   0  0  0  0  0  0  0  0  0  1  0  0
  -20.6801  -27.2911   20.8198 C   0  0  1  0  0  0  0  0  0  0  0  0
  -19.3736  -27.3439   17.2617 C   0  0  2  0  0  0  0  0  0  0  0  0
  -30.3891  -16.6611   22.3648 C   0  0  0  0  0  0  0  0  0  0  0  0
  -19.8498  -26.6403   21.9620 C   0  0  0  0  0  0  0  0  0  0  0  0
  -29.0997  -24.1842   20.0039 C   0  0  2  0  0  0  0  0  0  0  0  0
  -25.7490  -12.1366   20.7496 N   0  0  0  0  0  0  0  0  0  0  0  0
  -25.5322  -13.3966   20.3353 N   0  0  0  0  0  0  0  0  0  0  0  0
  -22.6506  -28.7425   21.1865 N   0  0  0  0  0  0  0  0  0  0  0  0
  -28.8373  -15.0200   21.3621 N   0  0  0  0  0  0  0  0  0  0  0  0
  -23.8476  -14.8607   19.5420 N   0  0  0  0  0  0  0  0  0  0  0  0
  -21.6336  -10.9779   20.1889 N   0  0  0  0  0  0  0  0  0  0  0  0
  -24.1965  -30.6783   23.8622 N   0  0  0  0  0  0  0  0  0  0  0  0
  -19.9295  -27.5166   19.5893 N   0  0  0  0  0  0  0  0  0  0  0  0
  -20.1213  -27.4790   15.9796 N   0  3  0  0  0  0  0  0  0  0  0  0
  -27.7166  -20.5931   20.5066 N   0  3  1  0  0  0  0  0  0  0  0  0
  -21.4160  -13.1515   19.4910 O   0  0  0  0  0  0  0  0  0  0  0  0
  -23.4569  -28.4860   23.5989 O   0  0  0  0  0  0  0  0  0  0  0  0
  -30.9290  -17.7671   20.2872 O   0  0  0  0  0  0  0  0  0  0  0  0
  -20.4892  -29.5451   21.5336 O   0  0  0  0  0  0  0  0  0  0  0  0
  -28.5828  -15.7101   23.5666 O   0  0  0  0  0  0  0  0  0  0  0  0
  -21.3045  -26.2501   18.2171 O   0  0  0  0  0  0  0  0  0  0  0  0
  -23.8247   -6.2092   22.0579 O   0  0  0  0  0  0  0  0  0  0  0  0
  -28.0160  -26.3085   19.3588 O   0  0  0  0  0  0  0  0  0  1  0  0
  -19.4361   -4.9418   25.1462 F   0  0  0  0  0  0  0  0  0  0  0  0
  -24.1300   -5.0388   24.5438 F   0  0  0  0  0  0  0  0  0  0  0  0
  1  2  1  0  0  0  0
  1  5  2  0  0  0  0
  2  6  2  0  0  0  0
  3  8  2  0  0  0  0
  3 15  1  0  0  0  0
  4  9  1  0  0  0  0
  4 15  2  0  0  0  0
  5 17  1  0  0  0  0
  6 19  1  0  0  0  0
  7 10  2  0  0  0  0
  7 18  1  0  0  0  0
  8 21  1  0  0  0  0
  9 21  2  0  0  0  0
 10 22  1  0  0  0  0
 11 12  2  0  0  0  0
 11 23  1  0  0  0  0
 12 24  1  0  0  0  0
 13 20  1  0  0  0  0
 13 22  2  0  0  0  0
 14 24  2  0  0  0  0
 14 25  1  0  0  0  0
 15 26  1  0  0  0  0
 16 26  1  0  0  0  0
 16 27  2  0  0  0  0
 16 28  1  0  0  0  0
 17 19  2  0  0  0  0
 17 34  1  0  0  0  0
 18 20  2  0  0  0  0
 18 35  1  0  0  0  0
 19 43  1  0  0  0  0
 20 36  1  0  0  0  0
 21 84  1  0  0  0  0
 22 85  1  0  0  0  0
 23 25  2  0  0  0  0
 23 84  1  0  0  0  0
 24 86  1  0  0  0  0
 25 87  1  0  0  0  0
 26 68  2  0  0  0  0
 27 69  1  0  0  0  0
 27 72  1  0  0  0  0
 28 73  1  0  0  0  0
 28 78  2  0  0  0  0
 29 44  1  0  0  0  0
 29 74  1  0  0  0  0
 29 79  2  0  0  0  0
 30 56  1  0  0  0  0
 30 65  1  0  0  0  0
 30 80  2  0  0  0  0
 31 63  1  0  0  0  0
 31 70  1  0  0  0  0
 31 81  2  0  0  0  0
 32 65  1  0  0  0  0
 32 71  1  0  0  0  0
 32 82  2  0  0  0  0
 33 64  1  0  0  0  0
 33 75  1  0  0  0  0
 33 83  2  0  0  0  0
 34 37  1  0  0  0  0
 35 44  1  0  0  0  0
 36 70  1  0  0  0  0
 37 39  1  0  0  0  0
 38 40  1  0  0  0  0
 38 41  1  0  0  0  0
 39 43  1  0  0  0  0
 40 45  1  0  0  0  0
 41 71  1  0  0  0  0
 42 45  1  0  0  0  0
 42 71  1  0  0  0  0
 43 74  1  0  0  0  0
 44 70  1  0  0  0  0
 45 69  1  0  0  0  0
 46 57  1  0  0  0  0
 47 59  1  0  0  0  0
 48 64  1  0  0  0  0
 49 65  1  0  0  0  0
 50 65  1  0  0  0  0
 51 66  1  0  0  0  0
 52 66  1  0  0  0  0
 53 66  1  0  0  0  0
 54 67  1  0  0  0  0
 55 76  1  0  0  0  0
 56 60  1  0  0  0  0
 57 67  1  0  0  0  0
 58 61  1  0  0  0  0
 58 67  1  0  0  0  0
 59 77  1  0  0  0  0
 60 77  1  0  0  0  0
 61 77  1  0  0  0  0
 62 67  1  0  0  0  0
 62 85  1  0  0  0  0
 63 66  1  0  0  0  0
 63 75  1  0  0  0  0
 64 76  1  0  0  0  0
 68 69  1  0  0  0  0
M  CHG  2  76   1  77   1
M  ISO  4  32 100  62 101  65 100  85 101
M  END
> <Batch ID>
0051

> <Smiles>
CCN(CCC(=O)[100C:0](C)(C)[100C:0](=O)N1CCCC(n2nc(-c3ccc(Oc4ccc(F)cc4F)cc3)c(C(N)=O)c2N)C1)CCC(C)(CC)[101CH2:1][101O:1]c1ccc2c(c1)CN(C(=O)C(NC(=O)C(C)NC)C(C)(C)C)C(C(=O)NC1CCCc3ccccc31)C2

> <Shape>
0.364

> <Color>
0.112

> <Negative vol penalty>
0.000

$$$$

  -OEChem-04052317333D

 84 91  0     1  0  0  0  0  0999 V2000
  -18.1388  -25.3619   22.1324 C   0  0  0  0  0  0  0  0  0  0  0  0
  -19.5222  -25.2275   22.1915 C   0  0  0  0  0  0  0  0  0  0  0  0
  -24.2537  -12.7717   21.1248 C   0  0  0  0  0  0  0  0  0  0  0  0
  -26.5345  -12.4858   20.3811 C   0  0  0  0  0  0  0  0  0  0  0  0
  -17.5732  -26.5828   21.7669 C   0  0  0  0  0  0  0  0  0  0  0  0
  -20.3409  -26.3137   21.8841 C   0  0  0  0  0  0  0  0  0  0  0  0
  -24.1267  -26.8921   25.1974 C   0  0  0  0  0  0  0  0  0  0  0  0
  -23.9806  -11.4435   20.7980 C   0  0  0  0  0  0  0  0  0  0  0  0
  -26.2615  -11.1575   20.0543 C   0  0  0  0  0  0  0  0  0  0  0  0
  -25.2220  -26.0392   25.0680 C   0  0  0  0  0  0  0  0  0  0  0  0
  -22.7797   -8.0257   20.4958 C   0  0  0  0  0  0  0  0  0  0  0  0
  -22.0588   -7.2662   21.4173 C   0  0  0  0  0  0  0  0  0  0  0  0
  -26.4403  -27.7855   23.9342 C   0  0  0  0  0  0  0  0  0  0  0  0
  -23.7870   -7.6269   23.0666 C   0  0  0  0  0  0  0  0  0  0  0  0
  -25.5306  -13.2929   20.9163 C   0  0  0  0  0  0  0  0  0  0  0  0
  -26.2776  -15.1593   22.4867 C   0  0  0  0  0  0  0  0  0  0  0  0
  -18.3852  -27.6871   21.4642 C   0  0  0  0  0  0  0  0  0  0  0  0
  -24.1762  -28.1967   24.6856 C   0  0  0  0  0  0  0  0  0  0  0  0
  -19.7856  -27.5500   21.5129 C   0  0  0  0  0  0  0  0  0  0  0  0
  -25.3452  -28.6538   24.0606 C   0  0  0  0  0  0  0  0  0  0  0  0
  -24.9845  -10.6364   20.2628 C   0  0  0  0  0  0  0  0  0  0  0  0
  -26.3779  -26.4848   24.4338 C   0  0  0  0  0  0  0  0  0  0  0  0
  -24.0043   -8.5858   20.8597 C   0  0  0  0  0  0  0  0  0  0  0  0
  -22.5624   -7.0668   22.7027 C   0  0  0  0  0  0  0  0  0  0  0  0
  -24.5079   -8.3864   22.1451 C   0  0  0  0  0  0  0  0  0  0  0  0
  -25.8132  -14.6651   21.2531 C   0  0  0  0  0  0  0  0  0  0  0  0
  -26.3858  -16.5150   22.2947 C   0  0  0  0  0  0  0  0  0  0  0  0
  -26.5839  -14.4558   23.6979 C   0  0  0  0  0  0  0  0  0  0  0  0
  -22.5544  -29.8009   22.4719 C   0  0  0  0  0  0  0  0  0  0  0  0
  -24.3155  -32.3019   23.5517 C   0  0  0  0  0  0  0  0  0  0  0  0
  -28.0921  -20.7340   19.2016 C   0  0  0  0  0  0  0  0  0  0  0  0
  -27.1452  -33.3908   25.1183 C   0  0  0  0  0  0  0  0  0  0  0  0
  -17.7287  -28.9731   21.0283 C   0  0  0  0  0  0  0  0  0  0  0  0
  -22.9958  -29.1132   24.8569 C   0  0  0  0  0  0  0  0  0  0  0  0
  -25.4564  -30.0520   23.5120 C   0  0  0  0  0  0  0  0  0  0  0  0
  -18.6604  -30.1811   21.0813 C   0  0  0  0  0  0  0  0  0  0  0  0
  -24.7536  -19.4577   18.5288 C   0  0  0  0  0  0  0  0  0  0  0  0
  -20.0072  -29.8446   20.4491 C   0  0  0  0  0  0  0  0  0  0  0  0
  -24.7859  -18.1166   19.2605 C   0  0  0  0  0  0  0  0  0  0  0  0
  -26.1102  -19.7955   17.9159 C   0  0  0  0  0  0  0  0  0  0  0  0
  -27.2699  -18.4403   19.6313 C   0  0  0  0  0  0  0  0  0  0  0  0
  -20.7066  -28.7121   21.2106 C   0  0  1  0  0  0  0  0  0  0  0  0
  -22.9719  -30.2527   23.8428 C   0  0  1  0  0  0  0  0  0  0  0  0
  -25.9287  -18.0770   20.2901 C   0  0  2  0  0  0  0  0  0  0  0  0
  -28.3235  -35.4921   25.8208 C   0  0  0  0  0  0  0  0  0  0  0  0
  -28.4532  -25.2927   26.4427 C   0  0  0  0  0  0  0  0  0  0  0  0
  -28.1379  -21.6753   16.9108 C   0  0  0  0  0  0  0  0  0  0  0  0
  -29.0845  -22.9512   18.8440 C   0  0  0  0  0  0  0  0  0  0  0  0
  -25.1705  -32.7854   20.6629 C   0  0  0  0  0  0  0  0  0  0  0  0
  -27.0258  -34.2277   21.5267 C   0  0  0  0  0  0  0  0  0  0  0  0
  -24.6518  -34.8607   21.9586 C   0  0  0  0  0  0  0  0  0  0  0  0
  -26.2154  -22.1665   24.1700 C   0  0  0  0  0  0  0  0  0  0  0  0
  -28.4227  -21.3443   23.3646 C   0  0  0  0  0  0  0  0  0  0  0  0
  -27.0368  -32.6338   27.9773 C   0  0  0  0  0  0  0  0  0  0  0  0
  -25.4915  -24.4295   20.0573 C   0  0  0  0  0  0  0  0  0  0  0  0
  -27.3731  -23.3984   22.3217 C   0  0  0  0  0  0  0  0  0  0  0  0
  -28.3448  -23.4327   24.7468 C   0  0  0  0  0  0  0  0  0  0  0  0
  -26.7361  -22.5950   21.1914 C   0  0  0  0  0  0  0  0  0  0  0  0
  -26.6061  -22.6596   18.7056 C   0  0  0  0  0  0  0  0  0  0  0  0
  -25.6561  -32.8981   23.1962 C   0  0  1  0  0  0  0  0  0  0  0  0
  -27.3542  -34.3963   26.2362 C   0  0  2  0  0  0  0  0  0  0  0  0
  -27.6306  -24.6678   25.3198 C   0  0  2  0  0  0  0  0  0  1  0  0
  -27.9615  -22.0032   18.3980 C   0  0  0  0  0  0  0  0  0  0  0  0
  -25.6236  -33.6659   21.8446 C   0  0  0  0  0  0  0  0  0  0  0  0
  -27.5955  -22.6193   23.6470 C   0  0  0  0  0  0  0  0  0  0  0  0
  -25.6383  -15.6285   20.3446 N   0  0  0  0  0  0  0  0  0  0  0  0
  -25.9946  -16.7416   21.0079 N   0  0  0  0  0  0  0  0  0  0  0  0
  -24.2733  -30.9082   23.6985 N   0  0  0  0  0  0  0  0  0  0  0  0
  -27.1756  -19.7198   18.9226 N   0  0  0  0  0  0  0  0  0  0  0  0
  -26.7765  -17.5234   23.1027 N   0  0  0  0  0  0  0  0  0  0  0  0
  -26.4169  -13.0645   23.7229 N   0  0  0  0  0  0  0  0  0  0  0  0
  -21.3034  -29.2157   22.4291 N   0  0  0  0  0  0  0  0  0  0  0  0
  -26.0556  -33.7142   24.3376 N   0  0  0  0  0  0  0  0  0  0  0  0
  -27.9007  -33.7194   27.4462 N   0  3  0  0  0  0  0  0  0  0  0  0
  -26.6424  -23.4572   19.9852 N   0  3  1  0  0  0  0  0  0  0  0  0
  -26.9779  -15.0456   24.7325 O   0  0  0  0  0  0  0  0  0  0  0  0
  -23.3107  -29.9721   21.5230 O   0  0  0  0  0  0  0  0  0  0  0  0
  -23.3431  -33.0462   23.7010 O   0  0  0  0  0  0  0  0  0  0  0  0
  -28.9808  -20.6493   20.0531 O   0  0  0  0  0  0  0  0  0  0  0  0
  -27.8776  -32.4180   24.9517 O   0  0  0  0  0  0  0  0  0  0  0  0
  -24.7184   -9.3402   19.9441 O   0  0  0  0  0  0  0  0  0  0  0  0
  -27.4556  -25.6484   24.3047 O   0  0  0  0  0  0  0  0  0  1  0  0
  -21.8693   -6.3387   23.5879 F   0  0  0  0  0  0  0  0  0  0  0  0
  -25.6832   -8.9229   22.5009 F   0  0  0  0  0  0  0  0  0  0  0  0
  1  2  1  0  0  0  0
  1  5  2  0  0  0  0
  2  6  2  0  0  0  0
  3  8  2  0  0  0  0
  3 15  1  0  0  0  0
  4  9  1  0  0  0  0
  4 15  2  0  0  0  0
  5 17  1  0  0  0  0
  6 19  1  0  0  0  0
  7 10  2  0  0  0  0
  7 18  1  0  0  0  0
  8 21  1  0  0  0  0
  9 21  2  0  0  0  0
 10 22  1  0  0  0  0
 11 12  2  0  0  0  0
 11 23  1  0  0  0  0
 12 24  1  0  0  0  0
 13 20  1  0  0  0  0
 13 22  2  0  0  0  0
 14 24  2  0  0  0  0
 14 25  1  0  0  0  0
 15 26  1  0  0  0  0
 16 26  1  0  0  0  0
 16 27  2  0  0  0  0
 16 28  1  0  0  0  0
 17 19  2  0  0  0  0
 17 33  1  0  0  0  0
 18 20  2  0  0  0  0
 18 34  1  0  0  0  0
 19 42  1  0  0  0  0
 20 35  1  0  0  0  0
 21 81  1  0  0  0  0
 22 82  1  0  0  0  0
 23 25  2  0  0  0  0
 23 81  1  0  0  0  0
 24 83  1  0  0  0  0
 25 84  1  0  0  0  0
 26 66  2  0  0  0  0
 27 67  1  0  0  0  0
 27 70  1  0  0  0  0
 28 71  1  0  0  0  0
 28 76  2  0  0  0  0
 29 43  1  0  0  0  0
 29 72  1  0  0  0  0
 29 77  2  0  0  0  0
 30 60  1  0  0  0  0
 30 68  1  0  0  0  0
 30 78  2  0  0  0  0
 31 63  1  0  0  0  0
 31 69  1  0  0  0  0
 31 79  2  0  0  0  0
 32 61  1  0  0  0  0
 32 73  1  0  0  0  0
 32 80  2  0  0  0  0
 33 36  1  0  0  0  0
 34 43  1  0  0  0  0
 35 68  1  0  0  0  0
 36 38  1  0  0  0  0
 37 39  1  0  0  0  0
 37 40  1  0  0  0  0
 38 42  1  0  0  0  0
 39 44  1  0  0  0  0
 40 69  1  0  0  0  0
 41 44  1  0  0  0  0
 41 69  1  0  0  0  0
 42 72  1  0  0  0  0
 43 68  1  0  0  0  0
 44 67  1  0  0  0  0
 45 61  1  0  0  0  0
 46 62  1  0  0  0  0
 47 63  1  0  0  0  0
 48 63  1  0  0  0  0
 49 64  1  0  0  0  0
 50 64  1  0  0  0  0
 51 64  1  0  0  0  0
 52 65  1  0  0  0  0
 53 65  1  0  0  0  0
 54 74  1  0  0  0  0
 55 75  1  0  0  0  0
 56 58  1  0  0  0  0
 56 65  1  0  0  0  0
 57 62  1  0  0  0  0
 57 65  1  0  0  0  0
 58 75  1  0  0  0  0
 59 63  1  0  0  0  0
 59 75  1  0  0  0  0
 60 64  1  0  0  0  0
 60 73  1  0  0  0  0
 61 74  1  0  0  0  0
 62 82  1  0  0  0  0
 66 67  1  0  0  0  0
M  CHG  2  74   1  75   1
M  ISO  4  31 100  62 101  63 100  82 101
M  END
> <Batch ID>
0051

> <Smiles>
CNC(C)C(=O)NC(C(=O)N1Cc2cc([101O:1][101CH:1](C)CC(C)(C)CCN(C)C[100C:0](C)(C)[100C:0](=O)N3CCCC(n4nc(-c5ccc(Oc6ccc(F)cc6F)cc5)c(C(N)=O)c4N)C3)ccc2CC1C(=O)NC1CCCc2ccccc21)C(C)(C)C

> <Shape>
0.236

> <Color>
0.090

> <Negative vol penalty>
0.000

$$$$

  -OEChem-04052317333D

 93101  0     1  0  0  0  0  0999 V2000
  -27.2869  -38.0858   23.0539 C   0  0  0  0  0  0  0  0  0  0  0  0
  -27.8840  -36.9538   22.5086 C   0  0  0  0  0  0  0  0  0  0  0  0
  -20.7096  -11.4619   21.9617 C   0  0  0  0  0  0  0  0  0  0  0  0
  -20.6241  -11.0134   19.5892 C   0  0  0  0  0  0  0  0  0  0  0  0
  -26.2886  -37.9503   24.0178 C   0  0  0  0  0  0  0  0  0  0  0  0
  -27.4840  -35.6855   22.9277 C   0  0  0  0  0  0  0  0  0  0  0  0
  -27.1692  -30.6097   19.5154 C   0  0  0  0  0  0  0  0  0  0  0  0
  -19.6185  -12.3221   21.8384 C   0  0  0  0  0  0  0  0  0  0  0  0
  -19.5330  -11.8736   19.4659 C   0  0  0  0  0  0  0  0  0  0  0  0
  -28.0364  -29.5293   19.3591 C   0  0  0  0  0  0  0  0  0  0  0  0
  -19.0486  -15.4895   20.8054 C   0  0  0  0  0  0  0  0  0  0  0  0
  -19.1170  -16.7196   21.4593 C   0  0  0  0  0  0  0  0  0  0  0  0
  -26.7747  -28.2874   20.9978 C   0  0  0  0  0  0  0  0  0  0  0  0
  -17.1509  -16.1472   22.7415 C   0  0  0  0  0  0  0  0  0  0  0  0
  -28.2989  -18.2552   20.5311 C   0  0  0  0  0  0  0  0  0  0  0  0
  -21.2124  -10.8076   20.8371 C   0  0  0  0  0  0  0  0  0  0  0  0
  -22.3074   -8.5366   21.2260 C   0  0  0  0  0  0  0  0  0  0  0  0
  -25.8694  -36.6794   24.4419 C   0  0  0  0  0  0  0  0  0  0  0  0
  -26.1029  -30.5410   20.4236 C   0  0  0  0  0  0  0  0  0  0  0  0
  -26.4801  -35.5328   23.8992 C   0  0  0  0  0  0  0  0  0  0  0  0
  -25.8939  -29.3674   21.1619 C   0  0  0  0  0  0  0  0  0  0  0  0
  -27.9368  -19.5862   20.5711 C   0  0  0  0  0  0  0  0  0  0  0  0
  -19.0302  -12.5279   20.5905 C   0  0  0  0  0  0  0  0  0  0  0  0
  -27.8409  -28.3689   20.1025 C   0  0  0  0  0  0  0  0  0  0  0  0
  -18.0314  -14.5882   21.1194 C   0  0  0  0  0  0  0  0  0  0  0  0
  -18.1682  -17.0485   22.4274 C   0  0  0  0  0  0  0  0  0  0  0  0
  -17.0826  -14.9171   22.0875 C   0  0  0  0  0  0  0  0  0  0  0  0
  -22.3399   -9.9194   20.9637 C   0  0  0  0  0  0  0  0  0  0  0  0
  -26.6568  -19.8436   21.0179 C   0  0  0  0  0  0  0  0  0  0  0  0
  -23.6282   -8.1604   21.2487 C   0  0  0  0  0  0  0  0  0  0  0  0
  -26.2601  -17.6251   21.3143 C   0  0  0  0  0  0  0  0  0  0  0  0
  -21.1839   -7.6698   21.4308 C   0  0  0  0  0  0  0  0  0  0  0  0
  -25.2783  -32.1458   23.0405 C   0  0  0  0  0  0  0  0  0  0  0  0
  -22.5925  -30.3390   22.8307 C   0  0  0  0  0  0  0  0  0  0  0  0
  -21.1018  -27.4848   21.7001 C   0  0  0  0  0  0  0  0  0  0  0  0
  -25.7723  -12.8780   19.7099 C   0  0  0  0  0  0  0  0  0  0  0  0
  -24.8198  -36.5839   25.5207 C   0  0  0  0  0  0  0  0  0  0  0  0
  -25.1606  -31.7053   20.5610 C   0  0  0  0  0  0  0  0  0  0  0  0
  -24.7522  -29.2355   22.1352 C   0  0  0  0  0  0  0  0  0  0  0  0
  -24.1910  -35.1978   25.6376 C   0  0  0  0  0  0  0  0  0  0  0  0
  -26.4890  -11.0619   22.7911 C   0  0  0  0  0  0  0  0  0  0  0  0
  -25.2698  -34.1195   25.6264 C   0  0  0  0  0  0  0  0  0  0  0  0
  -26.5076   -9.6162   22.3077 C   0  0  0  0  0  0  0  0  0  0  0  0
  -27.0470  -12.0225   21.7446 C   0  0  0  0  0  0  0  0  0  0  0  0
  -26.3551  -10.4823   19.9195 C   0  0  0  0  0  0  0  0  0  0  0  0
  -26.0561  -34.1394   24.3100 C   0  0  1  0  0  0  0  0  0  0  0  0
  -24.4126  -31.7149   21.8906 C   0  0  1  0  0  0  0  0  0  0  0  0
  -25.8573   -9.4315   20.9275 C   0  0  2  0  0  0  0  0  0  0  0  0
  -26.1556  -21.2474   21.1037 C   0  0  0  0  0  0  0  0  0  0  0  0
  -18.9067  -26.2689   21.7177 C   0  0  0  0  0  0  0  0  0  0  0  0
  -24.3237  -17.0332   22.8448 C   0  0  0  0  0  0  0  0  0  0  0  0
  -26.0802  -15.3668   22.4871 C   0  0  0  0  0  0  0  0  0  0  0  0
  -23.0893  -29.4889   25.7187 C   0  0  0  0  0  0  0  0  0  0  0  0
  -21.4764  -27.6063   25.3687 C   0  0  0  0  0  0  0  0  0  0  0  0
  -20.6970  -29.9676   25.1689 C   0  0  0  0  0  0  0  0  0  0  0  0
  -23.5159  -14.7545   20.9314 C   0  0  0  0  0  0  0  0  0  0  0  0
  -23.6024  -16.9623   19.7874 C   0  0  0  0  0  0  0  0  0  0  0  0
  -27.6598  -14.4945   20.1752 C   0  0  0  0  0  0  0  0  0  0  0  0
  -20.8861  -27.5931   18.7504 C   0  0  0  0  0  0  0  0  0  0  0  0
  -28.9407  -20.3043   17.6866 C   0  0  0  0  0  0  0  0  0  0  0  0
  -28.8918  -20.6640   20.1501 C   0  0  0  0  0  0  0  0  0  0  0  0
  -28.3583  -23.5953   19.4750 C   0  0  0  0  0  0  0  0  0  0  0  0
  -28.8790  -25.0174   19.2812 C   0  0  0  0  0  0  0  0  0  0  0  0
  -25.4586  -15.3024   19.4110 C   0  0  0  0  0  0  0  0  0  0  0  0
  -29.1309  -22.6082   18.6127 C   0  0  0  0  0  0  0  0  0  0  0  0
  -28.1442  -26.0111   20.1697 C   0  0  0  0  0  0  0  0  0  1  0  0
  -22.1673  -28.9903   23.3592 C   0  0  1  0  0  0  0  0  0  0  0  0
  -19.7912  -27.2543   20.9697 C   0  0  2  0  0  0  0  0  0  0  0  0
  -25.3290  -16.5360   21.7279 C   0  0  0  0  0  0  0  0  0  0  0  0
  -21.8802  -29.0162   24.8870 C   0  0  0  0  0  0  0  0  0  0  0  0
  -24.4787  -15.8857   20.4803 C   0  0  0  0  0  0  0  0  0  0  0  0
  -27.4827  -17.2450   20.8967 N   0  0  0  0  0  0  0  0  0  0  0  0
  -23.5827  -10.3897   20.8295 N   0  0  0  0  0  0  0  0  0  0  0  0
  -25.7886  -18.8837   21.3987 N   0  0  0  0  0  0  0  0  0  0  0  0
  -24.3436   -9.2965   21.0083 N   0  0  0  0  0  0  0  0  0  0  0  0
  -23.8619  -30.4035   22.2387 N   0  0  0  0  0  0  0  0  0  0  0  0
  -26.3961  -11.8518   20.4393 N   0  0  0  0  0  0  0  0  0  0  0  0
  -24.2358   -6.9720   21.4508 N   0  0  0  0  0  0  0  0  0  0  0  0
  -19.8962   -8.2202   21.3739 N   0  0  0  0  0  0  0  0  0  0  0  0
  -25.2908  -33.5109   23.2547 N   0  0  0  0  0  0  0  0  0  0  0  0
  -21.0314  -28.5724   22.5447 N   0  0  0  0  0  0  0  0  0  0  0  0
  -26.2660  -14.1806   19.8690 N   0  0  0  0  0  0  0  0  0  0  0  0
  -20.0470  -26.7137   19.6047 N   0  3  0  0  0  0  0  0  0  0  0  0
  -28.5624  -21.2516   18.7992 N   0  3  1  0  0  0  0  0  0  0  0  0
  -21.3185   -6.4465   21.6738 O   0  0  0  0  0  0  0  0  0  0  0  0
  -25.8886  -31.3022   23.6867 O   0  0  0  0  0  0  0  0  0  0  0  0
  -21.8237  -31.2983   22.9327 O   0  0  0  0  0  0  0  0  0  0  0  0
  -22.0882  -26.7693   21.5403 O   0  0  0  0  0  0  0  0  0  0  0  0
  -24.8173  -12.6471   18.9563 O   0  0  0  0  0  0  0  0  0  0  0  0
  -17.9653  -13.3670   20.4699 O   0  0  0  0  0  0  0  0  0  0  0  0
  -28.6863  -27.3131   19.9523 O   0  0  0  0  0  0  0  0  0  1  0  0
  -18.2349  -18.2292   23.0564 F   0  0  0  0  0  0  0  0  0  0  0  0
  -16.1037  -14.0549   22.3944 F   0  0  0  0  0  0  0  0  0  0  0  0
  1  2  1  0  0  0  0
  1  5  2  0  0  0  0
  2  6  2  0  0  0  0
  3  8  2  0  0  0  0
  3 16  1  0  0  0  0
  4  9  1  0  0  0  0
  4 16  2  0  0  0  0
  5 18  1  0  0  0  0
  6 20  1  0  0  0  0
  7 10  2  0  0  0  0
  7 19  1  0  0  0  0
  8 23  1  0  0  0  0
  9 23  2  0  0  0  0
 10 24  1  0  0  0  0
 11 12  2  0  0  0  0
 11 25  1  0  0  0  0
 12 26  1  0  0  0  0
 13 21  1  0  0  0  0
 13 24  2  0  0  0  0
 14 26  2  0  0  0  0
 14 27  1  0  0  0  0
 15 22  1  0  0  0  0
 15 72  2  0  0  0  0
 16 28  1  0  0  0  0
 17 28  1  0  0  0  0
 17 30  2  0  0  0  0
 17 32  1  0  0  0  0
 18 20  2  0  0  0  0
 18 37  1  0  0  0  0
 19 21  2  0  0  0  0
 19 38  1  0  0  0  0
 20 46  1  0  0  0  0
 21 39  1  0  0  0  0
 22 29  2  0  0  0  0
 22 61  1  0  0  0  0
 23 90  1  0  0  0  0
 24 91  1  0  0  0  0
 25 27  2  0  0  0  0
 25 90  1  0  0  0  0
 26 92  1  0  0  0  0
 27 93  1  0  0  0  0
 28 73  2  0  0  0  0
 29 49  1  0  0  0  0
 29 74  1  0  0  0  0
 30 75  1  0  0  0  0
 30 78  1  0  0  0  0
 31 69  1  0  0  0  0
 31 72  1  0  0  0  0
 31 74  2  0  0  0  0
 32 79  1  0  0  0  0
 32 85  2  0  0  0  0
 33 47  1  0  0  0  0
 33 80  1  0  0  0  0
 33 86  2  0  0  0  0
 34 67  1  0  0  0  0
 34 76  1  0  0  0  0
 34 87  2  0  0  0  0
 35 68  1  0  0  0  0
 35 81  1  0  0  0  0
 35 88  2  0  0  0  0
 36 77  1  0  0  0  0
 36 82  1  0  0  0  0
 36 89  2  0  0  0  0
 37 40  1  0  0  0  0
 38 47  1  0  0  0  0
 39 76  1  0  0  0  0
 40 42  1  0  0  0  0
 41 43  1  0  0  0  0
 41 44  1  0  0  0  0
 42 46  1  0  0  0  0
 43 48  1  0  0  0  0
 44 77  1  0  0  0  0
 45 48  1  0  0  0  0
 45 77  1  0  0  0  0
 46 80  1  0  0  0  0
 47 76  1  0  0  0  0
 48 75  1  0  0  0  0
 50 68  1  0  0  0  0
 51 69  1  0  0  0  0
 52 69  1  0  0  0  0
 53 70  1  0  0  0  0
 54 70  1  0  0  0  0
 55 70  1  0  0  0  0
 56 71  1  0  0  0  0
 57 71  1  0  0  0  0
 58 82  1  0  0  0  0
 59 83  1  0  0  0  0
 60 84  1  0  0  0  0
 61 84  1  0  0  0  0
 62 63  1  0  0  0  0
 62 65  1  0  0  0  0
 63 66  1  0  0  0  0
 64 71  1  0  0  0  0
 64 82  1  0  0  0  0
 65 84  1  0  0  0  0
 66 91  1  0  0  0  0
 67 70  1  0  0  0  0
 67 81  1  0  0  0  0
 68 83  1  0  0  0  0
 69 71  1  0  0  0  0
 73 75  1  0  0  0  0
M  CHG  2  83   1  84   1
M  ISO  4  36 100  66 101  82 100  91 101
M  END
> <Batch ID>
0051

> <Smiles>
CNC(C)C(=O)NC(C(=O)N1Cc2cc([101O:1][101CH2:1]CCCN(C)Cc3cnc(C(C)(C)C(C)(C)C[100N:0](C)[100C:0](=O)N4CCCC(n5nc(-c6ccc(Oc7ccc(F)cc7F)cc6)c(C(N)=O)c5N)C4)nc3C)ccc2CC1C(=O)NC1CCCc2ccccc21)C(C)(C)C

> <Shape>
0.299

> <Color>
0.071

> <Negative vol penalty>
0.000

$$$$

  -OEChem-04052317333D

 85 93  0     1  0  0  0  0  0999 V2000
  -16.5104  -30.0491   23.1886 C   0  0  0  0  0  0  0  0  0  0  0  0
  -17.4549  -30.0865   22.1679 C   0  0  0  0  0  0  0  0  0  0  0  0
  -27.0100  -12.6174   19.0456 C   0  0  0  0  0  0  0  0  0  0  0  0
  -25.1886  -13.4991   20.3656 C   0  0  0  0  0  0  0  0  0  0  0  0
  -16.9172  -29.8420   24.5060 C   0  0  0  0  0  0  0  0  0  0  0  0
  -18.8070  -29.9178   22.4641 C   0  0  0  0  0  0  0  0  0  0  0  0
  -24.8331  -27.2089   19.6955 C   0  0  0  0  0  0  0  0  0  0  0  0
  -26.8219  -11.3623   19.6243 C   0  0  0  0  0  0  0  0  0  0  0  0
  -25.0004  -12.2440   20.9442 C   0  0  0  0  0  0  0  0  0  0  0  0
  -26.1527  -27.5701   19.4277 C   0  0  0  0  0  0  0  0  0  0  0  0
  -23.5590   -9.3056   20.1021 C   0  0  0  0  0  0  0  0  0  0  0  0
  -22.2511   -8.8335   20.2110 C   0  0  0  0  0  0  0  0  0  0  0  0
  -26.7314  -27.1399   21.7297 C   0  0  0  0  0  0  0  0  0  0  0  0
  -22.4946   -8.7128   22.6117 C   0  0  0  0  0  0  0  0  0  0  0  0
  -30.8346  -26.2298   21.1250 C   0  0  0  0  0  0  0  0  0  0  0  0
  -31.4573  -24.2095   20.3865 C   0  0  0  0  0  0  0  0  0  0  0  0
  -26.1935  -13.6859   19.4163 C   0  0  0  0  0  0  0  0  0  0  0  0
  -25.7811  -15.4801   17.6504 C   0  0  0  0  0  0  0  0  0  0  0  0
  -18.2741  -29.6611   24.8173 C   0  0  0  0  0  0  0  0  0  0  0  0
  -24.4497  -26.8203   20.9872 C   0  0  0  0  0  0  0  0  0  0  0  0
  -19.2325  -29.7094   23.7870 C   0  0  0  0  0  0  0  0  0  0  0  0
  -25.4068  -26.7718   22.0108 C   0  0  0  0  0  0  0  0  0  0  0  0
  -30.7884  -26.2627   19.7488 C   0  0  0  0  0  0  0  0  0  0  0  0
  -31.1825  -24.9846   19.2815 C   0  0  0  0  0  0  0  0  0  0  0  0
  -25.8170  -11.1756   20.5735 C   0  0  0  0  0  0  0  0  0  0  0  0
  -27.1015  -27.5384   20.4455 C   0  0  0  0  0  0  0  0  0  0  0  0
  -24.3348   -9.4813   21.2479 C   0  0  0  0  0  0  0  0  0  0  0  0
  -21.7188   -8.5371   21.4658 C   0  0  0  0  0  0  0  0  0  0  0  0
  -23.8026   -9.1849   22.5027 C   0  0  0  0  0  0  0  0  0  0  0  0
  -26.3877  -14.9828   18.8193 C   0  0  0  0  0  0  0  0  0  0  0  0
  -26.2921  -16.7473   17.5107 C   0  0  0  0  0  0  0  0  0  0  0  0
  -24.8397  -14.8527   16.7696 C   0  0  0  0  0  0  0  0  0  0  0  0
  -22.4168  -27.9440   23.1571 C   0  0  0  0  0  0  0  0  0  0  0  0
  -23.2207  -25.2325   24.7458 C   0  0  0  0  0  0  0  0  0  0  0  0
  -25.4977  -22.7430   25.2602 C   0  0  0  0  0  0  0  0  0  0  0  0
  -27.4571  -21.6446   20.1520 C   0  0  0  0  0  0  0  0  0  0  0  0
  -18.6705  -29.4874   26.2621 C   0  0  0  0  0  0  0  0  0  0  0  0
  -23.0279  -26.4079   21.2537 C   0  0  0  0  0  0  0  0  0  0  0  0
  -25.0507  -26.3424   23.4098 C   0  0  0  0  0  0  0  0  0  0  0  0
  -20.0852  -28.9437   26.4444 C   0  0  0  0  0  0  0  0  0  0  0  0
  -30.0967  -19.0628   19.8895 C   0  0  0  0  0  0  0  0  0  0  0  0
  -21.0644  -29.6911   25.5448 C   0  0  0  0  0  0  0  0  0  0  0  0
  -29.2982  -17.8023   19.5617 C   0  0  0  0  0  0  0  0  0  0  0  0
  -29.2724  -20.0629   20.6946 C   0  0  0  0  0  0  0  0  0  0  0  0
  -27.1794  -19.1672   19.7297 C   0  0  0  0  0  0  0  0  0  0  0  0
  -20.7060  -29.5058   24.0653 C   0  0  1  0  0  0  0  0  0  0  0  0
  -22.6382  -26.5223   22.7242 C   0  0  1  0  0  0  0  0  0  0  0  0
  -27.9662  -18.1587   18.8791 C   0  0  2  0  0  0  0  0  0  0  0  0
  -26.4461  -20.6076   26.1756 C   0  0  0  0  0  0  0  0  0  0  0  0
  -23.9068  -26.9900   27.1438 C   0  0  0  0  0  0  0  0  0  0  0  0
  -25.1577  -25.0523   28.1177 C   0  0  0  0  0  0  0  0  0  0  0  0
  -22.7029  -24.8730   27.7124 C   0  0  0  0  0  0  0  0  0  0  0  0
  -31.4162  -24.5318   22.8653 C   0  0  0  0  0  0  0  0  0  0  0  0
  -25.6069  -23.0597   19.3434 C   0  0  0  0  0  0  0  0  0  0  0  0
  -24.3363  -21.1463   23.0556 C   0  0  0  0  0  0  0  0  0  0  0  0
  -30.3882  -27.4484   18.9047 C   0  0  0  0  0  0  0  0  0  0  0  0
  -31.2840  -24.5516   17.8739 C   0  0  0  0  0  0  0  0  0  0  0  0
  -27.8551  -23.0531   17.1195 C   0  0  0  0  0  0  0  0  0  0  0  0
  -27.0135  -21.9093   17.6749 C   0  0  0  0  0  0  0  0  0  0  0  0
  -29.1849  -23.1982   17.8484 C   0  0  0  0  0  0  0  0  0  0  0  0
  -28.8773  -27.6500   18.8674 C   0  0  0  0  0  0  0  0  0  1  0  0
  -24.2888  -24.8548   25.7435 C   0  0  1  0  0  0  0  0  0  0  0  0
  -25.3407  -21.2353   25.3407 C   0  0  2  0  0  0  0  0  0  0  0  0
  -24.0207  -25.4525   27.1535 C   0  0  0  0  0  0  0  0  0  0  0  0
  -27.2207  -15.8623   19.3822 N   0  0  0  0  0  0  0  0  0  0  0  0
  -31.2421  -24.9766   21.5016 N   0  0  0  0  0  0  0  0  0  0  0  0
  -27.1411  -16.9249   18.5633 N   0  0  0  0  0  0  0  0  0  0  0  0
  -23.6463  -25.9547   23.6219 N   0  0  0  0  0  0  0  0  0  0  0  0
  -27.9932  -20.3508   20.0450 N   0  0  0  0  0  0  0  0  0  0  0  0
  -26.0938  -17.7157   16.5914 N   0  0  0  0  0  0  0  0  0  0  0  0
  -24.4197  -13.5475   17.0605 N   0  0  0  0  0  0  0  0  0  0  0  0
  -21.1342  -28.2038   23.6008 N   0  0  0  0  0  0  0  0  0  0  0  0
  -24.3744  -23.3986   25.7182 N   0  0  0  0  0  0  0  0  0  0  0  0
  -26.6723  -22.1021   19.0827 N   0  0  0  0  0  0  0  0  0  0  0  0
  -25.3843  -20.6364   23.9767 N   0  3  0  0  0  0  0  0  0  0  0  0
  -29.9633  -24.2949   17.2219 N   0  3  0  0  0  0  0  0  0  0  0  0
  -24.3969  -15.4262   15.7456 O   0  0  0  0  0  0  0  0  0  0  0  0
  -23.3416  -28.7456   23.0947 O   0  0  0  0  0  0  0  0  0  0  0  0
  -22.0530  -24.8929   24.9523 O   0  0  0  0  0  0  0  0  0  0  0  0
  -26.5164  -23.2851   24.8371 O   0  0  0  0  0  0  0  0  0  0  0  0
  -27.6758  -22.3541   21.1423 O   0  0  0  0  0  0  0  0  0  0  0  0
  -25.6329   -9.9509   21.1382 O   0  0  0  0  0  0  0  0  0  0  0  0
  -28.3902  -27.8911   20.1869 O   0  0  0  0  0  0  0  0  0  1  0  0
  -20.4622   -8.0852   21.5704 F   0  0  0  0  0  0  0  0  0  0  0  0
  -24.5427   -9.3528   23.6072 F   0  0  0  0  0  0  0  0  0  0  0  0
  1  2  1  0  0  0  0
  1  5  2  0  0  0  0
  2  6  2  0  0  0  0
  3  8  2  0  0  0  0
  3 17  1  0  0  0  0
  4  9  1  0  0  0  0
  4 17  2  0  0  0  0
  5 19  1  0  0  0  0
  6 21  1  0  0  0  0
  7 10  2  0  0  0  0
  7 20  1  0  0  0  0
  8 25  1  0  0  0  0
  9 25  2  0  0  0  0
 10 26  1  0  0  0  0
 11 12  2  0  0  0  0
 11 27  1  0  0  0  0
 12 28  1  0  0  0  0
 13 22  1  0  0  0  0
 13 26  2  0  0  0  0
 14 28  2  0  0  0  0
 14 29  1  0  0  0  0
 15 23  2  0  0  0  0
 15 66  1  0  0  0  0
 16 24  2  0  0  0  0
 16 66  1  0  0  0  0
 17 30  1  0  0  0  0
 18 30  1  0  0  0  0
 18 31  2  0  0  0  0
 18 32  1  0  0  0  0
 19 21  2  0  0  0  0
 19 37  1  0  0  0  0
 20 22  2  0  0  0  0
 20 38  1  0  0  0  0
 21 46  1  0  0  0  0
 22 39  1  0  0  0  0
 23 24  1  0  0  0  0
 23 56  1  0  0  0  0
 24 57  1  0  0  0  0
 25 82  1  0  0  0  0
 26 83  1  0  0  0  0
 27 29  2  0  0  0  0
 27 82  1  0  0  0  0
 28 84  1  0  0  0  0
 29 85  1  0  0  0  0
 30 65  2  0  0  0  0
 31 67  1  0  0  0  0
 31 70  1  0  0  0  0
 32 71  1  0  0  0  0
 32 77  2  0  0  0  0
 33 47  1  0  0  0  0
 33 72  1  0  0  0  0
 33 78  2  0  0  0  0
 34 62  1  0  0  0  0
 34 68  1  0  0  0  0
 34 79  2  0  0  0  0
 35 63  1  0  0  0  0
 35 73  1  0  0  0  0
 35 80  2  0  0  0  0
 36 69  1  0  0  0  0
 36 74  1  0  0  0  0
 36 81  2  0  0  0  0
 37 40  1  0  0  0  0
 38 47  1  0  0  0  0
 39 68  1  0  0  0  0
 40 42  1  0  0  0  0
 41 43  1  0  0  0  0
 41 44  1  0  0  0  0
 42 46  1  0  0  0  0
 43 48  1  0  0  0  0
 44 69  1  0  0  0  0
 45 48  1  0  0  0  0
 45 69  1  0  0  0  0
 46 72  1  0  0  0  0
 47 68  1  0  0  0  0
 48 67  1  0  0  0  0
 49 63  1  0  0  0  0
 50 64  1  0  0  0  0
 51 64  1  0  0  0  0
 52 64  1  0  0  0  0
 53 66  1  0  0  0  0
 54 74  1  0  0  0  0
 55 75  1  0  0  0  0
 56 61  1  0  0  0  0
 57 76  1  0  0  0  0
 58 59  1  0  0  0  0
 58 60  1  0  0  0  0
 59 74  1  0  0  0  0
 60 76  1  0  0  0  0
 61 83  1  0  0  0  0
 62 64  1  0  0  0  0
 62 73  1  0  0  0  0
 63 75  1  0  0  0  0
 65 67  1  0  0  0  0
M  CHG  2  75   1  76   1
M  ISO  4  36 100  61 101  74 100  83 101
M  END
> <Batch ID>
0051

> <Smiles>
CNC(C)C(=O)NC(C(=O)N1Cc2cc([101O:1][101CH2:1]Cc3cn(C)cc3CNCCC[100N:0](C)[100C:0](=O)N3CCCC(n4nc(-c5ccc(Oc6ccc(F)cc6F)cc5)c(C(N)=O)c4N)C3)ccc2CC1C(=O)NC1CCCc2ccccc21)C(C)(C)C

> <Shape>
0.227

> <Color>
0.069

> <Negative vol penalty>
0.000

$$$$

  -OEChem-04052317333D

 84 92  0     1  0  0  0  0  0999 V2000
  -24.2132  -17.6390   22.0984 C   0  0  0  0  0  0  0  0  0  0  0  0
  -24.9462  -18.6401   22.7257 C   0  0  0  0  0  0  0  0  0  0  0  0
  -26.3598  -12.7380   21.6762 C   0  0  0  0  0  0  0  0  0  0  0  0
  -25.6281  -13.9806   19.7377 C   0  0  0  0  0  0  0  0  0  0  0  0
  -23.4388  -17.9436   20.9810 C   0  0  0  0  0  0  0  0  0  0  0  0
  -24.8957  -19.9483   22.2430 C   0  0  0  0  0  0  0  0  0  0  0  0
  -27.9179  -24.9386   24.0011 C   0  0  0  0  0  0  0  0  0  0  0  0
  -25.1660  -12.0166   21.6644 C   0  0  0  0  0  0  0  0  0  0  0  0
  -24.4343  -13.2592   19.7259 C   0  0  0  0  0  0  0  0  0  0  0  0
  -29.1013  -25.5959   23.6675 C   0  0  0  0  0  0  0  0  0  0  0  0
  -23.8385   -9.4249   19.9457 C   0  0  0  0  0  0  0  0  0  0  0  0
  -23.9146   -8.0428   20.1176 C   0  0  0  0  0  0  0  0  0  0  0  0
  -27.8639  -27.0754   22.2186 C   0  0  0  0  0  0  0  0  0  0  0  0
  -22.5406   -8.2135   22.0975 C   0  0  0  0  0  0  0  0  0  0  0  0
  -26.5908  -13.7200   20.7129 C   0  0  0  0  0  0  0  0  0  0  0  0
  -29.1288  -13.9529   20.6024 C   0  0  0  0  0  0  0  0  0  0  0  0
  -23.3891  -19.2540   20.4775 C   0  0  0  0  0  0  0  0  0  0  0  0
  -26.6981  -25.3384   23.4366 C   0  0  0  0  0  0  0  0  0  0  0  0
  -24.1012  -20.2804   21.1309 C   0  0  0  0  0  0  0  0  0  0  0  0
  -26.6661  -26.4231   22.5486 C   0  0  0  0  0  0  0  0  0  0  0  0
  -24.2033  -12.2772   20.6892 C   0  0  0  0  0  0  0  0  0  0  0  0
  -29.0748  -26.6627   22.7740 C   0  0  0  0  0  0  0  0  0  0  0  0
  -23.1136  -10.2014   20.8498 C   0  0  0  0  0  0  0  0  0  0  0  0
  -23.2656   -7.4371   21.1935 C   0  0  0  0  0  0  0  0  0  0  0  0
  -22.4646   -9.5957   21.9256 C   0  0  0  0  0  0  0  0  0  0  0  0
  -27.8235  -14.4659   20.7249 C   0  0  0  0  0  0  0  0  0  0  0  0
  -29.9404  -15.0586   20.6739 C   0  0  0  0  0  0  0  0  0  0  0  0
  -31.5868  -25.7370   19.4703 C   0  0  0  0  0  0  0  0  0  0  0  0
  -30.5466  -24.0327   18.8617 C   0  0  0  0  0  0  0  0  0  0  0  0
  -29.5682  -12.5980   20.4385 C   0  0  0  0  0  0  0  0  0  0  0  0
  -24.5275  -23.9526   21.5733 C   0  0  0  0  0  0  0  0  0  0  0  0
  -22.8738  -26.6876   22.1281 C   0  0  0  0  0  0  0  0  0  0  0  0
  -22.9410  -29.9919   22.9789 C   0  0  0  0  0  0  0  0  0  0  0  0
  -28.9799  -20.7344   19.3629 C   0  0  0  0  0  0  0  0  0  0  0  0
  -22.5285  -19.5295   19.2698 C   0  0  0  0  0  0  0  0  0  0  0  0
  -25.4267  -24.6360   23.8273 C   0  0  0  0  0  0  0  0  0  0  0  0
  -25.3797  -26.9043   21.9306 C   0  0  0  0  0  0  0  0  0  0  0  0
  -22.8856  -20.8374   18.5712 C   0  0  0  0  0  0  0  0  0  0  0  0
  -30.1193  -19.4574   22.5517 C   0  0  0  0  0  0  0  0  0  0  0  0
  -22.9665  -21.9651   19.5892 C   0  0  0  0  0  0  0  0  0  0  0  0
  -29.7778  -17.9718   22.4240 C   0  0  0  0  0  0  0  0  0  0  0  0
  -29.0511  -20.3285   21.8972 C   0  0  0  0  0  0  0  0  0  0  0  0
  -28.4413  -18.5203   20.3377 C   0  0  0  0  0  0  0  0  0  0  0  0
  -24.0857  -21.7044   20.6052 C   0  0  1  0  0  0  0  0  0  0  0  0
  -24.3136  -24.7983   22.7968 C   0  0  1  0  0  0  0  0  0  0  0  0
  -29.4946  -17.5858   20.9601 C   0  0  2  0  0  0  0  0  0  0  0  0
  -28.1739  -23.5891   18.1300 C   0  0  0  0  0  0  0  0  0  0  0  0
  -21.4348  -31.9711   23.3126 C   0  0  0  0  0  0  0  0  0  0  0  0
  -33.9438  -22.5154   18.7530 C   0  0  0  0  0  0  0  0  0  0  0  0
  -32.6454  -22.7632   16.5946 C   0  0  0  0  0  0  0  0  0  0  0  0
  -22.6100  -26.9937   19.1037 C   0  0  0  0  0  0  0  0  0  0  0  0
  -21.9682  -29.3855   19.4718 C   0  0  0  0  0  0  0  0  0  0  0  0
  -20.5429  -27.5575   20.3936 C   0  0  0  0  0  0  0  0  0  0  0  0
  -23.7269  -30.2575   25.8198 C   0  0  0  0  0  0  0  0  0  0  0  0
  -31.8510  -27.1161   20.0197 C   0  0  0  0  0  0  0  0  0  0  0  0
  -32.4017  -27.1153   21.4474 C   0  0  0  0  0  0  0  0  0  0  0  0
  -31.4300  -26.5361   22.4690 C   0  0  0  0  0  0  0  0  0  1  0  0
  -29.5429  -23.0043   18.5338 C   0  0  2  0  0  0  0  0  0  0  0  0
  -22.7851  -28.0377   21.4586 C   0  0  1  0  0  0  0  0  0  0  0  0
  -22.1254  -30.7913   23.9789 C   0  0  2  0  0  0  0  0  0  0  0  0
  -32.5642  -22.7119   18.1214 C   0  0  0  0  0  0  0  0  0  0  0  0
  -22.0012  -27.9835   20.1169 C   0  0  0  0  0  0  0  0  0  0  0  0
  -27.8025  -15.7942   20.8639 N   0  0  0  0  0  0  0  0  0  0  0  0
  -30.3262  -25.2207   19.3751 N   0  0  0  0  0  0  0  0  0  0  0  0
  -32.5732  -24.9432   19.0482 N   0  0  0  0  0  0  0  0  0  0  0  0
  -29.1045  -16.1251   20.8292 N   0  0  0  0  0  0  0  0  0  0  0  0
  -31.8811  -23.8598   18.6642 N   0  0  0  0  0  0  0  0  0  0  0  0
  -24.1641  -26.1812   22.3391 N   0  0  0  0  0  0  0  0  0  0  0  0
  -28.8428  -19.9215   20.5004 N   0  0  0  0  0  0  0  0  0  0  0  0
  -31.2804  -15.2129   20.6186 N   0  0  0  0  0  0  0  0  0  0  0  0
  -29.7081  -12.0936   19.1383 N   0  0  0  0  0  0  0  0  0  0  0  0
  -23.9952  -22.6810   21.6682 N   0  0  0  0  0  0  0  0  0  0  0  0
  -22.2154  -28.9469   22.4471 N   0  0  0  0  0  0  0  0  0  0  0  0
  -29.3561  -22.0501   19.6041 N   0  0  0  0  0  0  0  0  0  0  0  0
  -23.0032  -31.3125   25.0646 N   0  3  0  0  0  0  0  0  0  0  0  0
  -29.8134  -11.8515   21.4163 O   0  0  0  0  0  0  0  0  0  0  0  0
  -25.1296  -24.4198   20.6137 O   0  0  0  0  0  0  0  0  0  0  0  0
  -21.8368  -26.1070   22.4582 O   0  0  0  0  0  0  0  0  0  0  0  0
  -24.1042  -30.2691   22.6948 O   0  0  0  0  0  0  0  0  0  0  0  0
  -28.7865  -20.3170   18.2160 O   0  0  0  0  0  0  0  0  0  0  0  0
  -23.0384  -11.5733   20.6773 O   0  0  0  0  0  0  0  0  0  0  0  0
  -30.2285  -27.3056   22.4461 O   0  0  0  0  0  0  0  0  0  1  0  0
  -23.3374   -6.1097   21.3576 F   0  0  0  0  0  0  0  0  0  0  0  0
  -21.7656  -10.3362   22.7968 F   0  0  0  0  0  0  0  0  0  0  0  0
  1  2  1  0  0  0  0
  1  5  2  0  0  0  0
  2  6  2  0  0  0  0
  3  8  2  0  0  0  0
  3 15  1  0  0  0  0
  4  9  1  0  0  0  0
  4 15  2  0  0  0  0
  5 17  1  0  0  0  0
  6 19  1  0  0  0  0
  7 10  2  0  0  0  0
  7 18  1  0  0  0  0
  8 21  1  0  0  0  0
  9 21  2  0  0  0  0
 10 22  1  0  0  0  0
 11 12  2  0  0  0  0
 11 23  1  0  0  0  0
 12 24  1  0  0  0  0
 13 20  1  0  0  0  0
 13 22  2  0  0  0  0
 14 24  2  0  0  0  0
 14 25  1  0  0  0  0
 15 26  1  0  0  0  0
 16 26  1  0  0  0  0
 16 27  2  0  0  0  0
 16 30  1  0  0  0  0
 17 19  2  0  0  0  0
 17 35  1  0  0  0  0
 18 20  2  0  0  0  0
 18 36  1  0  0  0  0
 19 44  1  0  0  0  0
 20 37  1  0  0  0  0
 21 81  1  0  0  0  0
 22 82  1  0  0  0  0
 23 25  2  0  0  0  0
 23 81  1  0  0  0  0
 24 83  1  0  0  0  0
 25 84  1  0  0  0  0
 26 63  2  0  0  0  0
 27 66  1  0  0  0  0
 27 70  1  0  0  0  0
 28 55  1  0  0  0  0
 28 64  1  0  0  0  0
 28 65  2  0  0  0  0
 29 58  1  0  0  0  0
 29 64  2  0  0  0  0
 29 67  1  0  0  0  0
 30 71  1  0  0  0  0
 30 76  2  0  0  0  0
 31 45  1  0  0  0  0
 31 72  1  0  0  0  0
 31 77  2  0  0  0  0
 32 59  1  0  0  0  0
 32 68  1  0  0  0  0
 32 78  2  0  0  0  0
 33 60  1  0  0  0  0
 33 73  1  0  0  0  0
 33 79  2  0  0  0  0
 34 69  1  0  0  0  0
 34 74  1  0  0  0  0
 34 80  2  0  0  0  0
 35 38  1  0  0  0  0
 36 45  1  0  0  0  0
 37 68  1  0  0  0  0
 38 40  1  0  0  0  0
 39 41  1  0  0  0  0
 39 42  1  0  0  0  0
 40 44  1  0  0  0  0
 41 46  1  0  0  0  0
 42 69  1  0  0  0  0
 43 46  1  0  0  0  0
 43 69  1  0  0  0  0
 44 72  1  0  0  0  0
 45 68  1  0  0  0  0
 46 66  1  0  0  0  0
 47 58  1  0  0  0  0
 48 60  1  0  0  0  0
 49 61  1  0  0  0  0
 50 61  1  0  0  0  0
 51 62  1  0  0  0  0
 52 62  1  0  0  0  0
 53 62  1  0  0  0  0
 54 75  1  0  0  0  0
 55 56  1  0  0  0  0
 56 57  1  0  0  0  0
 57 82  1  0  0  0  0
 58 74  1  0  0  0  0
 59 62  1  0  0  0  0
 59 73  1  0  0  0  0
 60 75  1  0  0  0  0
 61 67  1  0  0  0  0
 63 66  1  0  0  0  0
 65 67  1  0  0  0  0
M  CHG  1  75   1
M  ISO  4  34 100  57 101  74 100  82 101
M  END
> <Batch ID>
0051

> <Smiles>
CNC(C)C(=O)NC(C(=O)N1Cc2cc([101O:1][101CH2:1]CCc3nc(C(C)[100NH:0][100C:0](=O)N4CCCC(n5nc(-c6ccc(Oc7ccc(F)cc7F)cc6)c(C(N)=O)c5N)C4)n(C(C)C)n3)ccc2CC1C(=O)NC1CCCc2ccccc21)C(C)(C)C

> <Shape>
0.230

> <Color>
0.065

> <Negative vol penalty>
0.000

$$$$

  -OEChem-04052317333D

 89 97  0     1  0  0  0  0  0999 V2000
  -30.7753  -24.8457   27.2172 C   0  0  0  0  0  0  0  0  0  0  0  0
  -30.3065  -23.8488   26.3677 C   0  0  0  0  0  0  0  0  0  0  0  0
  -23.1182   -9.8928   19.9556 C   0  0  0  0  0  0  0  0  0  0  0  0
  -23.9125   -9.9141   22.2372 C   0  0  0  0  0  0  0  0  0  0  0  0
  -29.8790  -25.7366   27.8061 C   0  0  0  0  0  0  0  0  0  0  0  0
  -28.9408  -23.7414   26.1073 C   0  0  0  0  0  0  0  0  0  0  0  0
  -26.3201  -22.0137   20.8488 C   0  0  0  0  0  0  0  0  0  0  0  0
  -22.4035   -8.7234   20.2153 C   0  0  0  0  0  0  0  0  0  0  0  0
  -23.1978   -8.7448   22.4969 C   0  0  0  0  0  0  0  0  0  0  0  0
  -25.7965  -20.7956   20.4176 C   0  0  0  0  0  0  0  0  0  0  0  0
  -19.9974   -7.8761   23.1473 C   0  0  0  0  0  0  0  0  0  0  0  0
  -19.2593   -7.8185   24.3295 C   0  0  0  0  0  0  0  0  0  0  0  0
  -23.5897  -21.5205   21.0683 C   0  0  0  0  0  0  0  0  0  0  0  0
  -20.5538   -5.9079   25.0445 C   0  0  0  0  0  0  0  0  0  0  0  0
  -23.5788  -18.7140   15.1823 C   0  0  0  0  0  0  0  0  0  0  0  0
  -24.2455  -19.3942   14.2027 C   0  0  0  0  0  0  0  0  0  0  0  0
  -23.8727  -10.4881   20.9665 C   0  0  0  0  0  0  0  0  0  0  0  0
  -24.1575  -13.0202   20.8446 C   0  0  0  0  0  0  0  0  0  0  0  0
  -28.5026  -25.6461   27.5453 C   0  0  0  0  0  0  0  0  0  0  0  0
  -25.4825  -22.9917   21.4040 C   0  0  0  0  0  0  0  0  0  0  0  0
  -28.0251  -24.6311   26.6943 C   0  0  0  0  0  0  0  0  0  0  0  0
  -24.1047  -22.7512   21.5035 C   0  0  0  0  0  0  0  0  0  0  0  0
  -22.4433   -8.1494   21.4859 C   0  0  0  0  0  0  0  0  0  0  0  0
  -24.4316  -20.5477   20.5299 C   0  0  0  0  0  0  0  0  0  0  0  0
  -21.0135   -6.9495   22.9136 C   0  0  0  0  0  0  0  0  0  0  0  0
  -19.5376   -6.8344   25.2781 C   0  0  0  0  0  0  0  0  0  0  0  0
  -21.2918   -5.9655   23.8622 C   0  0  0  0  0  0  0  0  0  0  0  0
  -24.6116  -11.6957   20.6987 C   0  0  0  0  0  0  0  0  0  0  0  0
  -25.2274  -13.7937   20.4658 C   0  0  0  0  0  0  0  0  0  0  0  0
  -25.7327  -18.2361   15.3637 C   0  0  0  0  0  0  0  0  0  0  0  0
  -22.8826  -13.5078   21.2834 C   0  0  0  0  0  0  0  0  0  0  0  0
  -25.2763  -24.4248   24.2338 C   0  0  0  0  0  0  0  0  0  0  0  0
  -23.0223  -26.2084   22.7301 C   0  0  0  0  0  0  0  0  0  0  0  0
  -20.7433  -26.4671   20.2031 C   0  0  0  0  0  0  0  0  0  0  0  0
  -30.8253  -14.6281   20.9996 C   0  0  0  0  0  0  0  0  0  0  0  0
  -27.5673  -26.6022   28.2422 C   0  0  0  0  0  0  0  0  0  0  0  0
  -26.0588  -24.3109   21.8399 C   0  0  0  0  0  0  0  0  0  0  0  0
  -23.1598  -23.7762   22.0736 C   0  0  0  0  0  0  0  0  0  0  0  0
  -26.1745  -26.6545   27.6195 C   0  0  0  0  0  0  0  0  0  0  0  0
  -29.5675  -12.5586   18.2001 C   0  0  0  0  0  0  0  0  0  0  0  0
  -25.6529  -25.2449   27.3591 C   0  0  0  0  0  0  0  0  0  0  0  0
  -28.1530  -12.2052   18.6565 C   0  0  0  0  0  0  0  0  0  0  0  0
  -30.5033  -12.7917   19.3824 C   0  0  0  0  0  0  0  0  0  0  0  0
  -28.5942  -13.4541   20.8073 C   0  0  0  0  0  0  0  0  0  0  0  0
  -26.5534  -24.4979   26.3679 C   0  0  1  0  0  0  0  0  0  0  0  0
  -25.1887  -25.0343   22.8631 C   0  0  1  0  0  0  0  0  0  0  0  0
  -27.6147  -13.2586   19.6403 C   0  0  2  0  0  0  0  0  0  0  0  0
  -19.0239  -28.0288   19.2532 C   0  0  0  0  0  0  0  0  0  0  0  0
  -23.3508  -15.9217   16.6409 C   0  0  0  0  0  0  0  0  0  0  0  0
  -31.3339  -16.9445   18.6545 C   0  0  0  0  0  0  0  0  0  0  0  0
  -21.1160  -25.4868   25.0006 C   0  0  0  0  0  0  0  0  0  0  0  0
  -19.2182  -26.2475   23.5556 C   0  0  0  0  0  0  0  0  0  0  0  0
  -20.9853  -27.8674   24.2455 C   0  0  0  0  0  0  0  0  0  0  0  0
  -30.8626  -16.5653   22.5245 C   0  0  0  0  0  0  0  0  0  0  0  0
  -22.1655  -26.6437   17.6137 C   0  0  0  0  0  0  0  0  0  0  0  0
  -30.0639  -19.8627   18.4375 C   0  0  0  0  0  0  0  0  0  0  0  0
  -27.0242  -17.6693   15.8249 C   0  0  0  0  0  0  0  0  0  0  0  0
  -27.6302  -18.3678   17.0616 C   0  0  0  0  0  0  0  0  0  0  0  0
  -23.5945  -17.8437   18.2578 C   0  0  0  0  0  0  0  0  0  0  0  0
  -29.5340  -16.7344   20.4529 C   0  0  0  0  0  0  0  0  0  0  0  0
  -28.9788  -17.8191   17.5172 C   0  0  0  0  0  0  0  0  0  0  0  0
  -24.5875  -18.7071   19.0320 C   0  0  0  0  0  0  0  0  0  1  0  0
  -21.5308  -26.0959   22.5261 C   0  0  1  0  0  0  0  0  0  0  0  0
  -20.4739  -27.5732   19.1989 C   0  0  2  0  0  0  0  0  0  0  0  0
  -24.2339  -17.0997   17.0696 C   0  0  2  0  0  0  0  0  0  0  0  0
  -30.3665  -17.6704   19.5795 C   0  0  2  0  0  0  0  0  0  0  0  0
  -20.7304  -26.4041   23.8230 C   0  0  0  0  0  0  0  0  0  0  0  0
  -25.8718  -11.6279   20.2611 N   0  0  0  0  0  0  0  0  0  0  0  0
  -24.5233  -18.0055   15.8851 N   0  0  0  0  0  0  0  0  0  0  0  0
  -26.2186  -12.9196   20.1288 N   0  0  0  0  0  0  0  0  0  0  0  0
  -25.5763  -19.0802   14.3387 N   0  3  0  0  0  0  0  0  0  0  0  0
  -23.7724  -25.0480   22.4917 N   0  0  0  0  0  0  0  0  0  0  0  0
  -29.9476  -13.7648   20.3234 N   0  0  0  0  0  0  0  0  0  0  0  0
  -25.4076  -15.1295   20.3913 N   0  0  0  0  0  0  0  0  0  0  0  0
  -21.8960  -12.5764   21.6348 N   0  0  0  0  0  0  0  0  0  0  0  0
  -26.2925  -24.9409   25.0151 N   0  0  0  0  0  0  0  0  0  0  0  0
  -21.2056  -26.9671   21.4020 N   0  0  0  0  0  0  0  0  0  0  0  0
  -30.3357  -15.8975   21.3429 N   0  0  0  0  0  0  0  0  0  0  0  0
  -20.7664  -27.1002   17.8163 N   0  3  0  0  0  0  0  0  0  0  0  0
  -29.4441  -18.5188   18.7373 N   0  3  1  0  0  0  0  0  0  0  0  0
  -22.6205  -14.7329   21.3460 O   0  0  0  0  0  0  0  0  0  0  0  0
  -24.4798  -23.5521   24.5590 O   0  0  0  0  0  0  0  0  0  0  0  0
  -23.5050  -27.2880   23.0809 O   0  0  0  0  0  0  0  0  0  0  0  0
  -20.5582  -25.2786   19.9505 O   0  0  0  0  0  0  0  0  0  0  0  0
  -31.9836  -14.2874   21.2720 O   0  0  0  0  0  0  0  0  0  0  0  0
  -21.7459   -7.0085   21.7398 O   0  0  0  0  0  0  0  0  0  0  0  0
  -23.9181  -19.3594   20.1103 O   0  0  0  0  0  0  0  0  0  1  0  0
  -18.8298   -6.7802   26.4140 F   0  0  0  0  0  0  0  0  0  0  0  0
  -22.2676   -5.0733   23.6439 F   0  0  0  0  0  0  0  0  0  0  0  0
  1  2  1  0  0  0  0
  1  5  2  0  0  0  0
  2  6  2  0  0  0  0
  3  8  2  0  0  0  0
  3 17  1  0  0  0  0
  4  9  1  0  0  0  0
  4 17  2  0  0  0  0
  5 19  1  0  0  0  0
  6 21  1  0  0  0  0
  7 10  2  0  0  0  0
  7 20  1  0  0  0  0
  8 23  1  0  0  0  0
  9 23  2  0  0  0  0
 10 24  1  0  0  0  0
 11 12  2  0  0  0  0
 11 25  1  0  0  0  0
 12 26  1  0  0  0  0
 13 22  1  0  0  0  0
 13 24  2  0  0  0  0
 14 26  2  0  0  0  0
 14 27  1  0  0  0  0
 15 16  2  0  0  0  0
 15 69  1  0  0  0  0
 16 71  1  0  0  0  0
 17 28  1  0  0  0  0
 18 28  1  0  0  0  0
 18 29  2  0  0  0  0
 18 31  1  0  0  0  0
 19 21  2  0  0  0  0
 19 36  1  0  0  0  0
 20 22  2  0  0  0  0
 20 37  1  0  0  0  0
 21 45  1  0  0  0  0
 22 38  1  0  0  0  0
 23 86  1  0  0  0  0
 24 87  1  0  0  0  0
 25 27  2  0  0  0  0
 25 86  1  0  0  0  0
 26 88  1  0  0  0  0
 27 89  1  0  0  0  0
 28 68  2  0  0  0  0
 29 70  1  0  0  0  0
 29 74  1  0  0  0  0
 30 57  1  0  0  0  0
 30 69  1  0  0  0  0
 30 71  2  0  0  0  0
 31 75  1  0  0  0  0
 31 81  2  0  0  0  0
 32 46  1  0  0  0  0
 32 76  1  0  0  0  0
 32 82  2  0  0  0  0
 33 63  1  0  0  0  0
 33 72  1  0  0  0  0
 33 83  2  0  0  0  0
 34 64  1  0  0  0  0
 34 77  1  0  0  0  0
 34 84  2  0  0  0  0
 35 73  1  0  0  0  0
 35 78  1  0  0  0  0
 35 85  2  0  0  0  0
 36 39  1  0  0  0  0
 37 46  1  0  0  0  0
 38 72  1  0  0  0  0
 39 41  1  0  0  0  0
 40 42  1  0  0  0  0
 40 43  1  0  0  0  0
 41 45  1  0  0  0  0
 42 47  1  0  0  0  0
 43 73  1  0  0  0  0
 44 47  1  0  0  0  0
 44 73  1  0  0  0  0
 45 76  1  0  0  0  0
 46 72  1  0  0  0  0
 47 70  1  0  0  0  0
 48 64  1  0  0  0  0
 49 65  1  0  0  0  0
 50 66  1  0  0  0  0
 51 67  1  0  0  0  0
 52 67  1  0  0  0  0
 53 67  1  0  0  0  0
 54 78  1  0  0  0  0
 55 79  1  0  0  0  0
 56 80  1  0  0  0  0
 57 58  1  0  0  0  0
 58 61  1  0  0  0  0
 59 62  1  0  0  0  0
 59 65  1  0  0  0  0
 60 66  1  0  0  0  0
 60 78  1  0  0  0  0
 61 80  1  0  0  0  0
 62 87  1  0  0  0  0
 63 67  1  0  0  0  0
 63 77  1  0  0  0  0
 64 79  1  0  0  0  0
 65 69  1  0  0  0  0
 66 80  1  0  0  0  0
 68 70  1  0  0  0  0
M  CHG  3  71   1  79   1  80   1
M  ISO  4  35 100  62 101  78 100  87 101
M  END
> <Batch ID>
0051

> <Smiles>
CNC(C)C(=O)NC(C(=O)N1Cc2cc([101O:1][101CH2:1]CC(C)n3ccnc3CCCN(C)C(C)C[100N:0](C)[100C:0](=O)N3CCCC(n4nc(-c5ccc(Oc6ccc(F)cc6F)cc5)c(C(N)=O)c4N)C3)ccc2CC1C(=O)NC1CCCc2ccccc21)C(C)(C)C

> <Shape>
0.218

> <Color>
0.172

> <Negative vol penalty>
0.000

$$$$

  -OEChem-04052317333D

 87 95  0     1  0  0  0  0  0999 V2000
  -22.1280  -26.1758   11.7112 C   0  0  0  0  0  0  0  0  0  0  0  0
  -22.5632  -25.0999   12.4784 C   0  0  0  0  0  0  0  0  0  0  0  0
  -23.0687   -9.8959   19.9710 C   0  0  0  0  0  0  0  0  0  0  0  0
  -23.9481   -9.8893   22.2212 C   0  0  0  0  0  0  0  0  0  0  0  0
  -21.7945  -27.3808   12.3282 C   0  0  0  0  0  0  0  0  0  0  0  0
  -22.6661  -25.2287   13.8630 C   0  0  0  0  0  0  0  0  0  0  0  0
  -21.9686  -21.4222   19.8913 C   0  0  0  0  0  0  0  0  0  0  0  0
  -22.3608   -8.7255   20.2441 C   0  0  0  0  0  0  0  0  0  0  0  0
  -23.2402   -8.7188   22.4944 C   0  0  0  0  0  0  0  0  0  0  0  0
  -22.6695  -21.1106   21.0555 C   0  0  0  0  0  0  0  0  0  0  0  0
  -19.5086   -7.8537   21.8372 C   0  0  0  0  0  0  0  0  0  0  0  0
  -18.1791   -7.7881   21.4206 C   0  0  0  0  0  0  0  0  0  0  0  0
  -21.9905  -23.2148   22.0202 C   0  0  0  0  0  0  0  0  0  0  0  0
  -18.7048   -5.8728   20.0449 C   0  0  0  0  0  0  0  0  0  0  0  0
  -25.7228  -15.5710   26.8539 C   0  0  0  0  0  0  0  0  0  0  0  0
  -25.1640  -14.4492   26.3098 C   0  0  0  0  0  0  0  0  0  0  0  0
  -23.8624  -10.4778   20.9595 C   0  0  0  0  0  0  0  0  0  0  0  0
  -24.1499  -13.0104   20.8556 C   0  0  0  0  0  0  0  0  0  0  0  0
  -21.8841  -27.5214   13.7221 C   0  0  0  0  0  0  0  0  0  0  0  0
  -21.2813  -22.6392   19.7784 C   0  0  0  0  0  0  0  0  0  0  0  0
  -22.3347  -26.4371   14.4991 C   0  0  0  0  0  0  0  0  0  0  0  0
  -21.2795  -23.5383   20.8544 C   0  0  0  0  0  0  0  0  0  0  0  0
  -22.4465   -8.1370   21.5058 C   0  0  0  0  0  0  0  0  0  0  0  0
  -22.6829  -22.0082   22.1191 C   0  0  0  0  0  0  0  0  0  0  0  0
  -20.4363   -6.9290   21.3576 C   0  0  0  0  0  0  0  0  0  0  0  0
  -17.7771   -6.7976   20.5245 C   0  0  0  0  0  0  0  0  0  0  0  0
  -20.0344   -5.9385   20.4615 C   0  0  0  0  0  0  0  0  0  0  0  0
  -24.5943  -11.6865   20.6778 C   0  0  0  0  0  0  0  0  0  0  0  0
  -25.2071  -13.7855   20.4457 C   0  0  0  0  0  0  0  0  0  0  0  0
  -26.2536  -15.5166   24.7055 C   0  0  0  0  0  0  0  0  0  0  0  0
  -22.8938  -13.4962   21.3475 C   0  0  0  0  0  0  0  0  0  0  0  0
  -21.5010  -25.1708   17.8687 C   0  0  0  0  0  0  0  0  0  0  0  0
  -18.8176  -26.0993   19.4370 C   0  0  0  0  0  0  0  0  0  0  0  0
  -16.8789  -25.8876   22.2376 C   0  0  0  0  0  0  0  0  0  0  0  0
  -30.8235  -14.5996   20.7783 C   0  0  0  0  0  0  0  0  0  0  0  0
  -21.5578  -28.8583   14.3393 C   0  0  0  0  0  0  0  0  0  0  0  0
  -20.5079  -22.9487   18.5260 C   0  0  0  0  0  0  0  0  0  0  0  0
  -20.5407  -24.8493   20.7912 C   0  0  0  0  0  0  0  0  0  0  0  0
  -21.3366  -28.7947   15.8484 C   0  0  0  0  0  0  0  0  0  0  0  0
  -29.4555  -12.5653   18.0048 C   0  0  0  0  0  0  0  0  0  0  0  0
  -22.4379  -27.9766   16.5154 C   0  0  0  0  0  0  0  0  0  0  0  0
  -28.0580  -12.2103   18.5100 C   0  0  0  0  0  0  0  0  0  0  0  0
  -30.4356  -12.7825   19.1537 C   0  0  0  0  0  0  0  0  0  0  0  0
  -28.5833  -13.4335   20.6567 C   0  0  0  0  0  0  0  0  0  0  0  0
  -22.4358  -26.5301   16.0062 C   0  0  1  0  0  0  0  0  0  0  0  0
  -20.2688  -24.4419   18.3249 C   0  0  1  0  0  0  0  0  0  0  0  0
  -27.5602  -13.2537   19.5252 C   0  0  2  0  0  0  0  0  0  0  0  0
  -31.3725  -17.7243   21.6200 C   0  0  0  0  0  0  0  0  0  0  0  0
  -14.7651  -26.7921   23.2432 C   0  0  0  0  0  0  0  0  0  0  0  0
  -25.3160  -18.7033   27.2621 C   0  0  0  0  0  0  0  0  0  0  0  0
  -20.2392  -28.7272   20.0557 C   0  0  0  0  0  0  0  0  0  0  0  0
  -18.5080  -29.1704   21.8091 C   0  0  0  0  0  0  0  0  0  0  0  0
  -17.8335  -28.9679   19.4161 C   0  0  0  0  0  0  0  0  0  0  0  0
  -15.6600  -23.1948   22.3857 C   0  0  0  0  0  0  0  0  0  0  0  0
  -26.8164  -15.8598   23.3759 C   0  0  0  0  0  0  0  0  0  0  0  0
  -28.3105  -15.5109   23.1978 C   0  0  0  0  0  0  0  0  0  0  0  0
  -24.7284  -20.3006   24.6467 C   0  0  0  0  0  0  0  0  0  0  0  0
  -25.4924  -18.9784   24.7408 C   0  0  0  0  0  0  0  0  0  0  0  0
  -27.1629  -17.5021   25.9856 C   0  0  0  0  0  0  0  0  0  0  0  0
  -31.1862  -16.4315   22.3883 C   0  0  0  0  0  0  0  0  0  0  0  0
  -28.8656  -15.8260   21.8105 C   0  0  0  0  0  0  0  0  0  0  0  0
  -24.0483  -20.4537   23.2917 C   0  0  0  0  0  0  0  0  0  1  0  0
  -18.5314  -26.8965   20.6866 C   0  0  1  0  0  0  0  0  0  0  0  0
  -15.3861  -25.6773   22.4158 C   0  0  2  0  0  0  0  0  0  0  0  0
  -26.2645  -18.7545   26.0595 C   0  0  2  0  0  0  0  0  0  0  0  0
  -18.7936  -28.4167   20.4926 C   0  0  0  0  0  0  0  0  0  0  0  0
  -25.8369  -11.6205   20.1925 N   0  0  0  0  0  0  0  0  0  0  0  0
  -26.3913  -16.2121   25.8389 N   0  0  0  0  0  0  0  0  0  0  0  0
  -26.1824  -12.9127   20.0618 N   0  0  0  0  0  0  0  0  0  0  0  0
  -25.5083  -14.4410   24.9796 N   0  3  0  0  0  0  0  0  0  0  0  0
  -19.8045  -25.1090   19.5430 N   0  0  0  0  0  0  0  0  0  0  0  0
  -29.9185  -13.7463   20.1258 N   0  0  0  0  0  0  0  0  0  0  0  0
  -25.3883  -15.1216   20.3796 N   0  0  0  0  0  0  0  0  0  0  0  0
  -21.9183  -12.5633   21.7251 N   0  0  0  0  0  0  0  0  0  0  0  0
  -21.3719  -25.7752   16.6328 N   0  0  0  0  0  0  0  0  0  0  0  0
  -17.1632  -26.5708   21.0742 N   0  0  0  0  0  0  0  0  0  0  0  0
  -30.2894  -15.5177   21.6951 N   0  0  0  0  0  0  0  0  0  0  0  0
  -15.1240  -24.3807   23.1022 N   0  3  0  0  0  0  0  0  0  0  0  0
  -22.6378  -14.7211   21.4337 O   0  0  0  0  0  0  0  0  0  0  0  0
  -22.4948  -25.1849   18.5856 O   0  0  0  0  0  0  0  0  0  0  0  0
  -18.1837  -26.3412   18.4069 O   0  0  0  0  0  0  0  0  0  0  0  0
  -17.7095  -25.4892   23.0512 O   0  0  0  0  0  0  0  0  0  0  0  0
  -32.0384  -14.5504   20.5471 O   0  0  0  0  0  0  0  0  0  0  0  0
  -21.7558   -6.9950   21.7728 O   0  0  0  0  0  0  0  0  0  0  0  0
  -23.3667  -21.7069   23.2564 O   0  0  0  0  0  0  0  0  0  1  0  0
  -16.5000   -6.7337   20.1257 F   0  0  0  0  0  0  0  0  0  0  0  0
  -20.9207   -5.0466   19.9982 F   0  0  0  0  0  0  0  0  0  0  0  0
  1  2  1  0  0  0  0
  1  5  2  0  0  0  0
  2  6  2  0  0  0  0
  3  8  2  0  0  0  0
  3 17  1  0  0  0  0
  4  9  1  0  0  0  0
  4 17  2  0  0  0  0
  5 19  1  0  0  0  0
  6 21  1  0  0  0  0
  7 10  2  0  0  0  0
  7 20  1  0  0  0  0
  8 23  1  0  0  0  0
  9 23  2  0  0  0  0
 10 24  1  0  0  0  0
 11 12  2  0  0  0  0
 11 25  1  0  0  0  0
 12 26  1  0  0  0  0
 13 22  1  0  0  0  0
 13 24  2  0  0  0  0
 14 26  2  0  0  0  0
 14 27  1  0  0  0  0
 15 16  2  0  0  0  0
 15 68  1  0  0  0  0
 16 70  1  0  0  0  0
 17 28  1  0  0  0  0
 18 28  1  0  0  0  0
 18 29  2  0  0  0  0
 18 31  1  0  0  0  0
 19 21  2  0  0  0  0
 19 36  1  0  0  0  0
 20 22  2  0  0  0  0
 20 37  1  0  0  0  0
 21 45  1  0  0  0  0
 22 38  1  0  0  0  0
 23 84  1  0  0  0  0
 24 85  1  0  0  0  0
 25 27  2  0  0  0  0
 25 84  1  0  0  0  0
 26 86  1  0  0  0  0
 27 87  1  0  0  0  0
 28 67  2  0  0  0  0
 29 69  1  0  0  0  0
 29 73  1  0  0  0  0
 30 55  1  0  0  0  0
 30 68  1  0  0  0  0
 30 70  2  0  0  0  0
 31 74  1  0  0  0  0
 31 79  2  0  0  0  0
 32 46  1  0  0  0  0
 32 75  1  0  0  0  0
 32 80  2  0  0  0  0
 33 63  1  0  0  0  0
 33 71  1  0  0  0  0
 33 81  2  0  0  0  0
 34 64  1  0  0  0  0
 34 76  1  0  0  0  0
 34 82  2  0  0  0  0
 35 72  1  0  0  0  0
 35 77  1  0  0  0  0
 35 83  2  0  0  0  0
 36 39  1  0  0  0  0
 37 46  1  0  0  0  0
 38 71  1  0  0  0  0
 39 41  1  0  0  0  0
 40 42  1  0  0  0  0
 40 43  1  0  0  0  0
 41 45  1  0  0  0  0
 42 47  1  0  0  0  0
 43 72  1  0  0  0  0
 44 47  1  0  0  0  0
 44 72  1  0  0  0  0
 45 75  1  0  0  0  0
 46 71  1  0  0  0  0
 47 69  1  0  0  0  0
 48 60  1  0  0  0  0
 49 64  1  0  0  0  0
 50 65  1  0  0  0  0
 51 66  1  0  0  0  0
 52 66  1  0  0  0  0
 53 66  1  0  0  0  0
 54 78  1  0  0  0  0
 55 56  1  0  0  0  0
 56 61  1  0  0  0  0
 57 58  1  0  0  0  0
 57 62  1  0  0  0  0
 58 65  1  0  0  0  0
 59 65  1  0  0  0  0
 59 68  1  0  0  0  0
 60 77  1  0  0  0  0
 61 77  1  0  0  0  0
 62 85  1  0  0  0  0
 63 66  1  0  0  0  0
 63 76  1  0  0  0  0
 64 78  1  0  0  0  0
 67 69  1  0  0  0  0
M  CHG  2  70   1  78   1
M  ISO  4  35 100  62 101  77 100  85 101
M  END
> <Batch ID>
0051

> <Smiles>
CC[100N:0](CCCc1nccn1CC(C)CC[101CH2:1][101O:1]c1ccc2c(c1)CN(C(=O)C(NC(=O)C(C)NC)C(C)(C)C)C(C(=O)NC1CCCc3ccccc31)C2)[100C:0](=O)N1CCCC(n2nc(-c3ccc(Oc4ccc(F)cc4F)cc3)c(C(N)=O)c2N)C1

> <Shape>
0.173

> <Color>
0.182

> <Negative vol penalty>
0.000

$$$$

  -OEChem-04052317333D

 86 94  0     1  0  0  0  0  0999 V2000
  -24.9928  -23.9623   13.1669 C   0  0  0  0  0  0  0  0  0  0  0  0
  -26.2253  -24.3251   13.7004 C   0  0  0  0  0  0  0  0  0  0  0  0
  -23.0856   -9.8736   19.9399 C   0  0  0  0  0  0  0  0  0  0  0  0
  -23.7050   -9.9558   22.2737 C   0  0  0  0  0  0  0  0  0  0  0  0
  -23.8185  -24.4751   13.7164 C   0  0  0  0  0  0  0  0  0  0  0  0
  -26.2843  -25.2019   14.7830 C   0  0  0  0  0  0  0  0  0  0  0  0
  -29.5372  -23.6695   18.3489 C   0  0  0  0  0  0  0  0  0  0  0  0
  -22.3279   -8.7276   20.1813 C   0  0  0  0  0  0  0  0  0  0  0  0
  -22.9472   -8.8098   22.5151 C   0  0  0  0  0  0  0  0  0  0  0  0
  -30.8935  -23.8860   18.1089 C   0  0  0  0  0  0  0  0  0  0  0  0
  -23.2713   -5.4722   22.0838 C   0  0  0  0  0  0  0  0  0  0  0  0
  -23.8421   -4.4717   22.8704 C   0  0  0  0  0  0  0  0  0  0  0  0
  -30.8276  -25.8345   19.5296 C   0  0  0  0  0  0  0  0  0  0  0  0
  -22.0403   -4.6968   24.4641 C   0  0  0  0  0  0  0  0  0  0  0  0
  -36.1525  -21.6523   20.4874 C   0  0  0  0  0  0  0  0  0  0  0  0
  -34.5488  -19.8959   19.2747 C   0  0  0  0  0  0  0  0  0  0  0  0
  -23.7742  -10.4876   20.9861 C   0  0  0  0  0  0  0  0  0  0  0  0
  -24.1228  -13.0083   20.8057 C   0  0  0  0  0  0  0  0  0  0  0  0
  -23.8627  -25.3510   14.8125 C   0  0  0  0  0  0  0  0  0  0  0  0
  -28.8123  -24.5416   19.1737 C   0  0  0  0  0  0  0  0  0  0  0  0
  -25.1096  -25.7279   15.3469 C   0  0  0  0  0  0  0  0  0  0  0  0
  -29.4629  -25.6254   19.7805 C   0  0  0  0  0  0  0  0  0  0  0  0
  -22.2587   -8.1957   21.4689 C   0  0  0  0  0  0  0  0  0  0  0  0
  -31.5382  -24.9702   18.6970 C   0  0  0  0  0  0  0  0  0  0  0  0
  -22.0851   -6.0851   22.4873 C   0  0  0  0  0  0  0  0  0  0  0  0
  -23.2266   -4.0839   24.0605 C   0  0  0  0  0  0  0  0  0  0  0  0
  -21.4695   -5.6974   23.6775 C   0  0  0  0  0  0  0  0  0  0  0  0
  -24.5576  -11.6711   20.7372 C   0  0  0  0  0  0  0  0  0  0  0  0
  -35.6741  -21.8858   19.2169 C   0  0  0  0  0  0  0  0  0  0  0  0
  -35.0277  -19.6619   20.5449 C   0  0  0  0  0  0  0  0  0  0  0  0
  -25.2350  -13.7478   20.4854 C   0  0  0  0  0  0  0  0  0  0  0  0
  -22.8292  -13.5348   21.1300 C   0  0  0  0  0  0  0  0  0  0  0  0
  -26.3227  -26.4735   18.7565 C   0  0  0  0  0  0  0  0  0  0  0  0
  -26.5763  -26.8549   21.9678 C   0  0  0  0  0  0  0  0  0  0  0  0
  -28.5414  -26.7228   24.7548 C   0  0  0  0  0  0  0  0  0  0  0  0
  -30.4729  -14.9132   20.8936 C   0  0  0  0  0  0  0  0  0  0  0  0
  -22.5688  -25.9165   15.3424 C   0  0  0  0  0  0  0  0  0  0  0  0
  -27.3561  -24.2790   19.4439 C   0  0  0  0  0  0  0  0  0  0  0  0
  -28.7344  -26.5794   20.6902 C   0  0  0  0  0  0  0  0  0  0  0  0
  -22.7010  -26.5460   16.7268 C   0  0  0  0  0  0  0  0  0  0  0  0
  -29.7013  -12.3478   18.5924 C   0  0  0  0  0  0  0  0  0  0  0  0
  -23.9264  -27.4524   16.7863 C   0  0  0  0  0  0  0  0  0  0  0  0
  -28.2495  -12.0408   18.9570 C   0  0  0  0  0  0  0  0  0  0  0  0
  -30.5614  -12.6104   19.8299 C   0  0  0  0  0  0  0  0  0  0  0  0
  -28.5643  -13.3478   21.0911 C   0  0  0  0  0  0  0  0  0  0  0  0
  -25.2135  -26.6571   16.5368 C   0  0  1  0  0  0  0  0  0  0  0  0
  -26.5968  -25.5250   19.8892 C   0  0  1  0  0  0  0  0  0  0  0  0
  -27.6656  -13.1391   19.8625 C   0  0  2  0  0  0  0  0  0  0  0  0
  -28.4780  -27.1266   27.2308 C   0  0  0  0  0  0  0  0  0  0  0  0
  -26.6710  -29.8649   21.4769 C   0  0  0  0  0  0  0  0  0  0  0  0
  -27.5468  -30.1467   23.8054 C   0  0  0  0  0  0  0  0  0  0  0  0
  -25.2809  -29.1707   23.4366 C   0  0  0  0  0  0  0  0  0  0  0  0
  -32.8144  -13.9942   21.1726 C   0  0  0  0  0  0  0  0  0  0  0  0
  -29.2125  -23.9023   25.3491 C   0  0  0  0  0  0  0  0  0  0  0  0
  -33.1223  -19.2749   23.0360 C   0  0  0  0  0  0  0  0  0  0  0  0
  -36.0469  -23.1464   18.4782 C   0  0  0  0  0  0  0  0  0  0  0  0
  -34.6593  -18.4176   21.2744 C   0  0  0  0  0  0  0  0  0  0  0  0
  -35.0812  -24.3090   18.7175 C   0  0  0  0  0  0  0  0  0  0  0  0
  -32.4412  -16.3819   20.6773 C   0  0  0  0  0  0  0  0  0  0  0  0
  -32.7231  -17.0384   22.0159 C   0  0  0  0  0  0  0  0  0  0  0  0
  -33.6703  -24.0363   18.2093 C   0  0  0  0  0  0  0  0  0  1  0  0
  -27.3283  -27.7972   22.8764 C   0  0  1  0  0  0  0  0  0  0  0  0
  -28.3121  -26.1007   26.1204 C   0  0  2  0  0  0  0  0  0  0  0  0
  -26.7203  -29.2282   22.8802 C   0  0  0  0  0  0  0  0  0  0  0  0
  -34.8635  -21.0121   18.5879 N   0  0  0  0  0  0  0  0  0  0  0  0
  -35.8381  -20.5360   21.1741 N   0  0  0  0  0  0  0  0  0  0  0  0
  -25.8455  -11.5643   20.3998 N   0  0  0  0  0  0  0  0  0  0  0  0
  -26.2295  -12.8438   20.2532 N   0  0  0  0  0  0  0  0  0  0  0  0
  -27.3102  -26.2840   20.9184 N   0  0  0  0  0  0  0  0  0  0  0  0
  -29.9446  -13.6299   20.6896 N   0  0  0  0  0  0  0  0  0  0  0  0
  -25.4495  -15.0766   20.3825 N   0  0  0  0  0  0  0  0  0  0  0  0
  -21.7987  -12.6350   21.4344 N   0  0  0  0  0  0  0  0  0  0  0  0
  -25.5902  -25.9198   17.7238 N   0  0  0  0  0  0  0  0  0  0  0  0
  -27.3626  -27.1591   24.1879 N   0  0  0  0  0  0  0  0  0  0  0  0
  -31.8674  -15.0519   20.8252 N   0  0  0  0  0  0  0  0  0  0  0  0
  -29.2818  -24.9936   26.3547 N   0  3  0  0  0  0  0  0  0  0  0  0
  -33.2644  -18.4275   21.7984 N   0  3  1  0  0  0  0  0  0  0  0  0
  -22.5900  -14.7662   21.1332 O   0  0  0  0  0  0  0  0  0  0  0  0
  -26.7434  -27.6229   18.8157 O   0  0  0  0  0  0  0  0  0  0  0  0
  -25.3835  -26.6280   22.1855 O   0  0  0  0  0  0  0  0  0  0  0  0
  -29.6553  -26.8160   24.2439 O   0  0  0  0  0  0  0  0  0  0  0  0
  -29.7403  -15.8819   21.1319 O   0  0  0  0  0  0  0  0  0  0  0  0
  -21.5192   -7.0777   21.7049 O   0  0  0  0  0  0  0  0  0  0  0  0
  -32.8617  -25.1842   18.4640 O   0  0  0  0  0  0  0  0  0  1  0  0
  -23.7740   -3.1220   24.8150 F   0  0  0  0  0  0  0  0  0  0  0  0
  -20.3291   -6.2817   24.0697 F   0  0  0  0  0  0  0  0  0  0  0  0
  1  2  1  0  0  0  0
  1  5  2  0  0  0  0
  2  6  2  0  0  0  0
  3  8  2  0  0  0  0
  3 17  1  0  0  0  0
  4  9  1  0  0  0  0
  4 17  2  0  0  0  0
  5 19  1  0  0  0  0
  6 21  1  0  0  0  0
  7 10  2  0  0  0  0
  7 20  1  0  0  0  0
  8 23  1  0  0  0  0
  9 23  2  0  0  0  0
 10 24  1  0  0  0  0
 11 12  2  0  0  0  0
 11 25  1  0  0  0  0
 12 26  1  0  0  0  0
 13 22  1  0  0  0  0
 13 24  2  0  0  0  0
 14 26  2  0  0  0  0
 14 27  1  0  0  0  0
 15 29  1  0  0  0  0
 15 66  2  0  0  0  0
 16 30  2  0  0  0  0
 16 65  1  0  0  0  0
 17 28  1  0  0  0  0
 18 28  1  0  0  0  0
 18 31  2  0  0  0  0
 18 32  1  0  0  0  0
 19 21  2  0  0  0  0
 19 37  1  0  0  0  0
 20 22  2  0  0  0  0
 20 38  1  0  0  0  0
 21 46  1  0  0  0  0
 22 39  1  0  0  0  0
 23 83  1  0  0  0  0
 24 84  1  0  0  0  0
 25 27  2  0  0  0  0
 25 83  1  0  0  0  0
 26 85  1  0  0  0  0
 27 86  1  0  0  0  0
 28 67  2  0  0  0  0
 29 56  1  0  0  0  0
 29 65  2  0  0  0  0
 30 57  1  0  0  0  0
 30 66  1  0  0  0  0
 31 68  1  0  0  0  0
 31 71  1  0  0  0  0
 32 72  1  0  0  0  0
 32 78  2  0  0  0  0
 33 47  1  0  0  0  0
 33 73  1  0  0  0  0
 33 79  2  0  0  0  0
 34 62  1  0  0  0  0
 34 69  1  0  0  0  0
 34 80  2  0  0  0  0
 35 63  1  0  0  0  0
 35 74  1  0  0  0  0
 35 81  2  0  0  0  0
 36 70  1  0  0  0  0
 36 75  1  0  0  0  0
 36 82  2  0  0  0  0
 37 40  1  0  0  0  0
 38 47  1  0  0  0  0
 39 69  1  0  0  0  0
 40 42  1  0  0  0  0
 41 43  1  0  0  0  0
 41 44  1  0  0  0  0
 42 46  1  0  0  0  0
 43 48  1  0  0  0  0
 44 70  1  0  0  0  0
 45 48  1  0  0  0  0
 45 70  1  0  0  0  0
 46 73  1  0  0  0  0
 47 69  1  0  0  0  0
 48 68  1  0  0  0  0
 49 63  1  0  0  0  0
 50 64  1  0  0  0  0
 51 64  1  0  0  0  0
 52 64  1  0  0  0  0
 53 75  1  0  0  0  0
 54 76  1  0  0  0  0
 55 77  1  0  0  0  0
 56 58  1  0  0  0  0
 57 77  1  0  0  0  0
 58 61  1  0  0  0  0
 59 60  1  0  0  0  0
 59 75  1  0  0  0  0
 60 77  1  0  0  0  0
 61 84  1  0  0  0  0
 62 64  1  0  0  0  0
 62 74  1  0  0  0  0
 63 76  1  0  0  0  0
 67 68  1  0  0  0  0
M  CHG  2  76   1  77   1
M  ISO  4  36 100  61 101  75 100  84 101
M  END
> <Batch ID>
0051

> <Smiles>
CNC(C)C(=O)NC(C(=O)N1Cc2cc([101O:1][101CH2:1]CCc3cnc(CN(C)CC[100N:0](C)[100C:0](=O)N4CCCC(n5nc(-c6ccc(Oc7ccc(F)cc7F)cc6)c(C(N)=O)c5N)C4)cn3)ccc2CC1C(=O)NC1CCCc2ccccc21)C(C)(C)C

> <Shape>
0.245

> <Color>
0.173

> <Negative vol penalty>
0.000

$$$$

  -OEChem-04052317333D

 86 94  0     1  0  0  0  0  0999 V2000
  -30.3620  -23.7944   15.8547 C   0  0  0  0  0  0  0  0  0  0  0  0
  -29.4506  -23.6547   16.8964 C   0  0  0  0  0  0  0  0  0  0  0  0
  -24.5927   -9.1259   21.9760 C   0  0  0  0  0  0  0  0  0  0  0  0
  -23.1776   -9.8351   20.1507 C   0  0  0  0  0  0  0  0  0  0  0  0
  -31.2309  -24.8846   15.8317 C   0  0  0  0  0  0  0  0  0  0  0  0
  -29.4082  -24.6046   17.9164 C   0  0  0  0  0  0  0  0  0  0  0  0
  -24.6786  -25.9717   19.1027 C   0  0  0  0  0  0  0  0  0  0  0  0
  -23.5138   -8.4552   22.5519 C   0  0  0  0  0  0  0  0  0  0  0  0
  -22.0987   -9.1644   20.7266 C   0  0  0  0  0  0  0  0  0  0  0  0
  -23.9431  -25.0947   19.8987 C   0  0  0  0  0  0  0  0  0  0  0  0
  -21.8672   -5.5365   22.1012 C   0  0  0  0  0  0  0  0  0  0  0  0
  -22.0882   -4.2461   22.5825 C   0  0  0  0  0  0  0  0  0  0  0  0
  -24.4264  -26.4539   21.8322 C   0  0  0  0  0  0  0  0  0  0  0  0
  -21.4414   -4.9615   24.7977 C   0  0  0  0  0  0  0  0  0  0  0  0
  -26.0266  -20.7902   23.4193 C   0  0  0  0  0  0  0  0  0  0  0  0
  -24.4246   -9.8159   20.7754 C   0  0  0  0  0  0  0  0  0  0  0  0
  -26.4680   -9.9916   19.2583 C   0  0  0  0  0  0  0  0  0  0  0  0
  -31.1925  -25.8535   16.8468 C   0  0  0  0  0  0  0  0  0  0  0  0
  -25.3038  -27.0923   19.6683 C   0  0  0  0  0  0  0  0  0  0  0  0
  -30.2783  -25.7081   17.9076 C   0  0  0  0  0  0  0  0  0  0  0  0
  -25.1672  -27.3449   21.0408 C   0  0  0  0  0  0  0  0  0  0  0  0
  -22.2668   -8.4745   21.9272 C   0  0  0  0  0  0  0  0  0  0  0  0
  -23.8193  -25.3342   21.2642 C   0  0  0  0  0  0  0  0  0  0  0  0
  -21.4334   -6.5395   22.9682 C   0  0  0  0  0  0  0  0  0  0  0  0
  -21.8753   -3.9586   23.9307 C   0  0  0  0  0  0  0  0  0  0  0  0
  -21.2205   -6.2520   24.3164 C   0  0  0  0  0  0  0  0  0  0  0  0
  -25.5387  -10.5094   20.1803 C   0  0  0  0  0  0  0  0  0  0  0  0
  -25.3811  -21.9939   23.3817 C   0  0  0  0  0  0  0  0  0  0  0  0
  -27.3194  -11.0389   19.0041 C   0  0  0  0  0  0  0  0  0  0  0  0
  -27.3444  -22.2401   22.3890 C   0  0  0  0  0  0  0  0  0  0  0  0
  -26.5539   -8.6811   18.6831 C   0  0  0  0  0  0  0  0  0  0  0  0
  -28.3120  -28.0807   19.9465 C   0  0  0  0  0  0  0  0  0  0  0  0
  -26.9141  -30.7454   21.1582 C   0  0  0  0  0  0  0  0  0  0  0  0
  -24.2107  -32.1582   22.6887 C   0  0  0  0  0  0  0  0  0  0  0  0
  -26.7173  -16.8028   19.1523 C   0  0  0  0  0  0  0  0  0  0  0  0
  -32.1837  -26.9895   16.8038 C   0  0  0  0  0  0  0  0  0  0  0  0
  -26.0714  -28.0432   18.7914 C   0  0  0  0  0  0  0  0  0  0  0  0
  -25.8020  -28.5448   21.6932 C   0  0  0  0  0  0  0  0  0  0  0  0
  -31.8198  -28.1505   17.7257 C   0  0  0  0  0  0  0  0  0  0  0  0
  -29.1152  -14.9873   21.0032 C   0  0  0  0  0  0  0  0  0  0  0  0
  -31.4220  -27.6330   19.1044 C   0  0  0  0  0  0  0  0  0  0  0  0
  -28.5518  -13.5694   20.9197 C   0  0  0  0  0  0  0  0  0  0  0  0
  -28.0145  -16.0327   21.1933 C   0  0  0  0  0  0  0  0  0  0  0  0
  -26.3738  -14.5397   20.0971 C   0  0  0  0  0  0  0  0  0  0  0  0
  -30.1850  -26.7307   19.0192 C   0  0  1  0  0  0  0  0  0  0  0  0
  -27.0944  -28.8725   19.5614 C   0  0  1  0  0  0  0  0  0  0  0  0
  -27.4538  -13.4760   19.8460 C   0  0  2  0  0  0  0  0  0  0  0  0
  -28.4917  -22.8545   21.6755 C   0  0  0  0  0  0  0  0  0  0  0  0
  -23.3765  -34.3482   23.5860 C   0  0  0  0  0  0  0  0  0  0  0  0
  -26.6312  -20.4748   18.7419 C   0  0  0  0  0  0  0  0  0  0  0  0
  -28.5254  -19.1288   17.7810 C   0  0  0  0  0  0  0  0  0  0  0  0
  -28.7152  -30.4279   23.6006 C   0  0  0  0  0  0  0  0  0  0  0  0
  -27.2143  -32.0128   24.8267 C   0  0  0  0  0  0  0  0  0  0  0  0
  -28.4485  -32.7821   22.8000 C   0  0  0  0  0  0  0  0  0  0  0  0
  -21.9250  -32.1901   20.8090 C   0  0  0  0  0  0  0  0  0  0  0  0
  -24.0286  -22.4156   23.8979 C   0  0  0  0  0  0  0  0  0  0  0  0
  -22.8990  -22.2402   22.8806 C   0  0  0  0  0  0  0  0  0  0  0  0
  -28.2597  -19.3330   21.2070 C   0  0  0  0  0  0  0  0  0  0  0  0
  -28.2436  -19.9432   22.6150 C   0  0  0  0  0  0  0  0  0  0  0  0
  -26.9221  -18.7539   20.7512 C   0  0  0  0  0  0  0  0  0  0  0  0
  -23.0627  -23.1111   21.6404 C   0  0  0  0  0  0  0  0  0  1  0  0
  -26.4940  -31.2004   22.5349 C   0  0  1  0  0  0  0  0  0  0  0  0
  -23.4252  -33.4205   22.3820 C   0  0  2  0  0  0  0  0  0  0  0  0
  -27.0988  -19.0896   18.3135 C   0  0  0  0  0  0  0  0  0  0  0  0
  -27.7075  -31.5821   23.4289 C   0  0  0  0  0  0  0  0  0  0  0  0
  -25.7772  -11.7864   20.4909 N   0  0  0  0  0  0  0  0  0  0  0  0
  -27.2385  -20.9715   22.7976 N   0  0  0  0  0  0  0  0  0  0  0  0
  -26.8662  -12.0797   19.7600 N   0  0  0  0  0  0  0  0  0  0  0  0
  -26.2196  -22.8724   22.7390 N   0  3  0  0  0  0  0  0  0  0  0  0
  -26.5476  -29.4417   20.7948 N   0  0  0  0  0  0  0  0  0  0  0  0
  -26.9643  -15.8779   20.1775 N   0  0  0  0  0  0  0  0  0  0  0  0
  -28.4042  -11.1618   18.2100 N   0  0  0  0  0  0  0  0  0  0  0  0
  -25.5984   -7.7249   19.0534 N   0  0  0  0  0  0  0  0  0  0  0  0
  -28.9864  -27.5287   18.8742 N   0  0  0  0  0  0  0  0  0  0  0  0
  -25.5370  -32.2828   22.3327 N   0  0  0  0  0  0  0  0  0  0  0  0
  -26.9981  -18.1507   19.4220 N   0  0  0  0  0  0  0  0  0  0  0  0
  -22.0271  -33.0793   21.9947 N   0  3  0  0  0  0  0  0  0  0  0  0
  -27.4611   -8.3624   17.8776 O   0  0  0  0  0  0  0  0  0  0  0  0
  -28.6177  -27.9794   21.1289 O   0  0  0  0  0  0  0  0  0  0  0  0
  -27.5381  -31.5206   20.4292 O   0  0  0  0  0  0  0  0  0  0  0  0
  -23.6997  -31.1626   23.1968 O   0  0  0  0  0  0  0  0  0  0  0  0
  -26.2628  -16.4462   18.0576 O   0  0  0  0  0  0  0  0  0  0  0  0
  -21.2138   -7.8199   22.4887 O   0  0  0  0  0  0  0  0  0  0  0  0
  -23.1024  -24.4794   22.0436 O   0  0  0  0  0  0  0  0  0  1  0  0
  -22.0860   -2.7190   24.3924 F   0  0  0  0  0  0  0  0  0  0  0  0
  -20.8026   -7.2111   25.1539 F   0  0  0  0  0  0  0  0  0  0  0  0
  1  2  1  0  0  0  0
  1  5  2  0  0  0  0
  2  6  2  0  0  0  0
  3  8  2  0  0  0  0
  3 16  1  0  0  0  0
  4  9  1  0  0  0  0
  4 16  2  0  0  0  0
  5 18  1  0  0  0  0
  6 20  1  0  0  0  0
  7 10  2  0  0  0  0
  7 19  1  0  0  0  0
  8 22  1  0  0  0  0
  9 22  2  0  0  0  0
 10 23  1  0  0  0  0
 11 12  2  0  0  0  0
 11 24  1  0  0  0  0
 12 25  1  0  0  0  0
 13 21  1  0  0  0  0
 13 23  2  0  0  0  0
 14 25  2  0  0  0  0
 14 26  1  0  0  0  0
 15 28  2  0  0  0  0
 15 67  1  0  0  0  0
 16 27  1  0  0  0  0
 17 27  1  0  0  0  0
 17 29  2  0  0  0  0
 17 31  1  0  0  0  0
 18 20  2  0  0  0  0
 18 36  1  0  0  0  0
 19 21  2  0  0  0  0
 19 37  1  0  0  0  0
 20 45  1  0  0  0  0
 21 38  1  0  0  0  0
 22 83  1  0  0  0  0
 23 84  1  0  0  0  0
 24 26  2  0  0  0  0
 24 83  1  0  0  0  0
 25 85  1  0  0  0  0
 26 86  1  0  0  0  0
 27 66  2  0  0  0  0
 28 56  1  0  0  0  0
 28 69  1  0  0  0  0
 29 68  1  0  0  0  0
 29 72  1  0  0  0  0
 30 48  1  0  0  0  0
 30 67  1  0  0  0  0
 30 69  2  0  0  0  0
 31 73  1  0  0  0  0
 31 78  2  0  0  0  0
 32 46  1  0  0  0  0
 32 74  1  0  0  0  0
 32 79  2  0  0  0  0
 33 62  1  0  0  0  0
 33 70  1  0  0  0  0
 33 80  2  0  0  0  0
 34 63  1  0  0  0  0
 34 75  1  0  0  0  0
 34 81  2  0  0  0  0
 35 71  1  0  0  0  0
 35 76  1  0  0  0  0
 35 82  2  0  0  0  0
 36 39  1  0  0  0  0
 37 46  1  0  0  0  0
 38 70  1  0  0  0  0
 39 41  1  0  0  0  0
 40 42  1  0  0  0  0
 40 43  1  0  0  0  0
 41 45  1  0  0  0  0
 42 47  1  0  0  0  0
 43 71  1  0  0  0  0
 44 47  1  0  0  0  0
 44 71  1  0  0  0  0
 45 74  1  0  0  0  0
 46 70  1  0  0  0  0
 47 68  1  0  0  0  0
 49 63  1  0  0  0  0
 50 64  1  0  0  0  0
 51 64  1  0  0  0  0
 52 65  1  0  0  0  0
 53 65  1  0  0  0  0
 54 65  1  0  0  0  0
 55 77  1  0  0  0  0
 56 57  1  0  0  0  0
 57 61  1  0  0  0  0
 58 59  1  0  0  0  0
 58 60  1  0  0  0  0
 59 67  1  0  0  0  0
 60 76  1  0  0  0  0
 61 84  1  0  0  0  0
 62 65  1  0  0  0  0
 62 75  1  0  0  0  0
 63 77  1  0  0  0  0
 64 76  1  0  0  0  0
 66 68  1  0  0  0  0
M  CHG  2  69   1  77   1
M  ISO  4  35 100  61 101  76 100  84 101
M  END
> <Batch ID>
0051

> <Smiles>
CNC(C)C(=O)NC(C(=O)N1Cc2cc([101O:1][101CH2:1]CCc3cn(CCC[100N:0](C(C)C)[100C:0](=O)N4CCCC(n5nc(-c6ccc(Oc7ccc(F)cc7F)cc6)c(C(N)=O)c5N)C4)c(C)n3)ccc2CC1C(=O)NC1CCCc2ccccc21)C(C)(C)C

> <Shape>
0.278

> <Color>
0.084

> <Negative vol penalty>
0.000

$$$$

  -OEChem-04052317333D

 83 91  0     1  0  0  0  0  0999 V2000
  -24.9154  -26.9936   24.4536 C   0  0  0  0  0  0  0  0  0  0  0  0
  -25.2383  -25.6776   24.7685 C   0  0  0  0  0  0  0  0  0  0  0  0
  -21.4050  -19.3298   20.9508 C   0  0  0  0  0  0  0  0  0  0  0  0
  -21.7098  -18.5692   23.2236 C   0  0  0  0  0  0  0  0  0  0  0  0
  -24.8885  -27.4039   23.1214 C   0  0  0  0  0  0  0  0  0  0  0  0
  -25.5334  -24.7707   23.7512 C   0  0  0  0  0  0  0  0  0  0  0  0
  -29.6256  -19.0523   22.3836 C   0  0  0  0  0  0  0  0  0  0  0  0
  -20.6447  -20.4043   21.4123 C   0  0  0  0  0  0  0  0  0  0  0  0
  -20.9495  -19.6438   23.6852 C   0  0  0  0  0  0  0  0  0  0  0  0
  -29.5270  -17.7478   21.9018 C   0  0  0  0  0  0  0  0  0  0  0  0
  -21.2018  -23.4254   22.8248 C   0  0  0  0  0  0  0  0  0  0  0  0
  -21.4636  -24.6843   22.2842 C   0  0  0  0  0  0  0  0  0  0  0  0
  -29.5267  -18.5891   19.6410 C   0  0  0  0  0  0  0  0  0  0  0  0
  -19.1894  -24.8113   21.4786 C   0  0  0  0  0  0  0  0  0  0  0  0
  -30.3773  -13.0722   20.2436 C   0  0  0  0  0  0  0  0  0  0  0  0
  -21.9375  -18.4122   21.8565 C   0  0  0  0  0  0  0  0  0  0  0  0
  -24.1159  -17.2685   21.1825 C   0  0  0  0  0  0  0  0  0  0  0  0
  -25.1929  -26.5041   22.0878 C   0  0  0  0  0  0  0  0  0  0  0  0
  -29.6645  -20.1377   21.4965 C   0  0  0  0  0  0  0  0  0  0  0  0
  -25.5093  -25.1691   22.4038 C   0  0  0  0  0  0  0  0  0  0  0  0
  -29.6283  -19.9063   20.1140 C   0  0  0  0  0  0  0  0  0  0  0  0
  -20.4170  -20.5613   22.7794 C   0  0  0  0  0  0  0  0  0  0  0  0
  -29.4746  -17.5162   20.5304 C   0  0  0  0  0  0  0  0  0  0  0  0
  -19.9338  -22.8594   22.6922 C   0  0  0  0  0  0  0  0  0  0  0  0
  -20.4574  -25.3773   21.6111 C   0  0  0  0  0  0  0  0  0  0  0  0
  -18.9276  -23.5523   22.0192 C   0  0  0  0  0  0  0  0  0  0  0  0
  -22.7225  -17.3017   21.3803 C   0  0  0  0  0  0  0  0  0  0  0  0
  -30.2166  -11.8783   19.5704 C   0  0  0  0  0  0  0  0  0  0  0  0
  -29.2575  -13.8760   20.3092 C   0  0  0  0  0  0  0  0  0  0  0  0
  -24.3675  -15.9983   20.7247 C   0  0  0  0  0  0  0  0  0  0  0  0
  -28.0382  -12.3596   19.1341 C   0  0  0  0  0  0  0  0  0  0  0  0
  -25.0953  -18.2941   21.3939 C   0  0  0  0  0  0  0  0  0  0  0  0
  -27.8131  -22.6656   20.9623 C   0  0  0  0  0  0  0  0  0  0  0  0
  -30.2025  -23.4984   18.9325 C   0  0  0  0  0  0  0  0  0  0  0  0
  -32.8250  -22.5113   16.9844 C   0  0  0  0  0  0  0  0  0  0  0  0
  -23.3707  -10.4560   21.5039 C   0  0  0  0  0  0  0  0  0  0  0  0
  -25.1046  -26.9819   20.6600 C   0  0  0  0  0  0  0  0  0  0  0  0
  -29.7979  -21.5371   22.0314 C   0  0  0  0  0  0  0  0  0  0  0  0
  -29.6873  -21.0357   19.1192 C   0  0  0  0  0  0  0  0  0  0  0  0
  -25.7956  -26.0545   19.6636 C   0  0  0  0  0  0  0  0  0  0  0  0
  -21.2330  -12.3625   19.1593 C   0  0  0  0  0  0  0  0  0  0  0  0
  -25.4118  -24.6026   19.9309 C   0  0  0  0  0  0  0  0  0  0  0  0
  -21.4984  -13.8102   19.5686 C   0  0  0  0  0  0  0  0  0  0  0  0
  -21.4164  -11.3998   20.3286 C   0  0  0  0  0  0  0  0  0  0  0  0
  -23.0074  -12.9563   21.4055 C   0  0  0  0  0  0  0  0  0  0  0  0
  -25.8596  -24.1622   21.3298 C   0  0  1  0  0  0  0  0  0  0  0  0
  -29.3116  -22.6003   21.0513 C   0  0  1  0  0  0  0  0  0  0  0  0
  -22.8766  -13.9470   20.2389 C   0  0  2  0  0  0  0  0  0  0  0  0
  -31.3718  -10.9421   19.4478 C   0  0  0  0  0  0  0  0  0  0  0  0
  -34.5621  -23.4141   15.4145 C   0  0  0  0  0  0  0  0  0  0  0  0
  -28.0853  -23.7752   16.7529 C   0  0  0  0  0  0  0  0  0  0  0  0
  -29.9262  -23.7335   15.0566 C   0  0  0  0  0  0  0  0  0  0  0  0
  -29.8302  -25.5666   16.7457 C   0  0  0  0  0  0  0  0  0  0  0  0
  -25.4970   -9.3266   22.0356 C   0  0  0  0  0  0  0  0  0  0  0  0
  -35.0388  -21.5841   18.7160 C   0  0  0  0  0  0  0  0  0  0  0  0
  -29.3344  -15.1937   21.0227 C   0  0  0  0  0  0  0  0  0  1  0  0
  -26.7379  -11.9628   18.5213 C   0  0  0  0  0  0  0  0  0  0  0  0
  -25.9192  -10.9581   19.3559 C   0  0  0  0  0  0  0  0  0  0  0  0
  -25.5820  -11.4397   20.7654 C   0  0  0  0  0  0  0  0  0  0  0  0
  -30.5059  -23.2424   17.4760 C   0  0  1  0  0  0  0  0  0  0  0  0
  -34.2400  -23.0452   16.8542 C   0  0  2  0  0  0  0  0  0  0  0  0
  -29.5838  -24.0581   16.5263 C   0  0  0  0  0  0  0  0  0  0  0  0
  -22.1304  -16.1446   21.0731 N   0  0  0  0  0  0  0  0  0  0  0  0
  -29.0569  -11.4888   19.0015 N   0  0  0  0  0  0  0  0  0  0  0  0
  -28.0675  -13.5498   19.7635 N   0  0  0  0  0  0  0  0  0  0  0  0
  -23.1567  -15.3724   20.6775 N   0  0  0  0  0  0  0  0  0  0  0  0
  -29.8112  -22.3864   19.6916 N   0  0  0  0  0  0  0  0  0  0  0  0
  -22.7170  -11.5807   20.9742 N   0  0  0  0  0  0  0  0  0  0  0  0
  -25.5042  -15.3669   20.3617 N   0  0  0  0  0  0  0  0  0  0  0  0
  -24.6653  -19.5410   21.8680 N   0  0  0  0  0  0  0  0  0  0  0  0
  -27.2796  -23.8827   21.3412 N   0  0  0  0  0  0  0  0  0  0  0  0
  -31.9294  -23.5103   17.3023 N   0  0  0  0  0  0  0  0  0  0  0  0
  -24.7737  -10.4745   21.5073 N   0  0  0  0  0  0  0  0  0  0  0  0
  -35.2236  -22.0218   17.3084 N   0  3  0  0  0  0  0  0  0  0  0  0
  -26.3134  -18.1155   21.1535 O   0  0  0  0  0  0  0  0  0  0  0  0
  -27.1875  -21.6850   20.5768 O   0  0  0  0  0  0  0  0  0  0  0  0
  -30.3156  -24.6416   19.3819 O   0  0  0  0  0  0  0  0  0  0  0  0
  -32.5418  -21.3271   16.8170 O   0  0  0  0  0  0  0  0  0  0  0  0
  -22.7367   -9.4865   21.9395 O   0  0  0  0  0  0  0  0  0  0  0  0
  -19.6753  -21.6098   23.2301 O   0  0  0  0  0  0  0  0  0  0  0  0
  -29.3777  -16.2438   20.0575 O   0  0  0  0  0  0  0  0  0  1  0  0
  -20.7085  -26.5869   21.0934 F   0  0  0  0  0  0  0  0  0  0  0  0
  -17.7072  -23.0142   21.8897 F   0  0  0  0  0  0  0  0  0  0  0  0
  1  2  1  0  0  0  0
  1  5  2  0  0  0  0
  2  6  2  0  0  0  0
  3  8  2  0  0  0  0
  3 16  1  0  0  0  0
  4  9  1  0  0  0  0
  4 16  2  0  0  0  0
  5 18  1  0  0  0  0
  6 20  1  0  0  0  0
  7 10  2  0  0  0  0
  7 19  1  0  0  0  0
  8 22  1  0  0  0  0
  9 22  2  0  0  0  0
 10 23  1  0  0  0  0
 11 12  2  0  0  0  0
 11 24  1  0  0  0  0
 12 25  1  0  0  0  0
 13 21  1  0  0  0  0
 13 23  2  0  0  0  0
 14 25  2  0  0  0  0
 14 26  1  0  0  0  0
 15 28  2  0  0  0  0
 15 29  1  0  0  0  0
 16 27  1  0  0  0  0
 17 27  1  0  0  0  0
 17 30  2  0  0  0  0
 17 32  1  0  0  0  0
 18 20  2  0  0  0  0
 18 37  1  0  0  0  0
 19 21  2  0  0  0  0
 19 38  1  0  0  0  0
 20 46  1  0  0  0  0
 21 39  1  0  0  0  0
 22 80  1  0  0  0  0
 23 81  1  0  0  0  0
 24 26  2  0  0  0  0
 24 80  1  0  0  0  0
 25 82  1  0  0  0  0
 26 83  1  0  0  0  0
 27 63  2  0  0  0  0
 28 49  1  0  0  0  0
 28 64  1  0  0  0  0
 29 56  1  0  0  0  0
 29 65  2  0  0  0  0
 30 66  1  0  0  0  0
 30 69  1  0  0  0  0
 31 57  1  0  0  0  0
 31 64  2  0  0  0  0
 31 65  1  0  0  0  0
 32 70  1  0  0  0  0
 32 75  2  0  0  0  0
 33 47  1  0  0  0  0
 33 71  1  0  0  0  0
 33 76  2  0  0  0  0
 34 60  1  0  0  0  0
 34 67  1  0  0  0  0
 34 77  2  0  0  0  0
 35 61  1  0  0  0  0
 35 72  1  0  0  0  0
 35 78  2  0  0  0  0
 36 68  1  0  0  0  0
 36 73  1  0  0  0  0
 36 79  2  0  0  0  0
 37 40  1  0  0  0  0
 38 47  1  0  0  0  0
 39 67  1  0  0  0  0
 40 42  1  0  0  0  0
 41 43  1  0  0  0  0
 41 44  1  0  0  0  0
 42 46  1  0  0  0  0
 43 48  1  0  0  0  0
 44 68  1  0  0  0  0
 45 48  1  0  0  0  0
 45 68  1  0  0  0  0
 46 71  1  0  0  0  0
 47 67  1  0  0  0  0
 48 66  1  0  0  0  0
 50 61  1  0  0  0  0
 51 62  1  0  0  0  0
 52 62  1  0  0  0  0
 53 62  1  0  0  0  0
 54 73  1  0  0  0  0
 55 74  1  0  0  0  0
 56 81  1  0  0  0  0
 57 58  1  0  0  0  0
 58 59  1  0  0  0  0
 59 73  1  0  0  0  0
 60 62  1  0  0  0  0
 60 72  1  0  0  0  0
 61 74  1  0  0  0  0
 63 66  1  0  0  0  0
M  CHG  1  74   1
M  ISO  4  36 100  56 101  73 100  81 101
M  END
> <Batch ID>
0051

> <Smiles>
CNC(C)C(=O)NC(C(=O)N1Cc2cc([101O:1][101CH2:1]c3cc(C)nc(CCC[100N:0](C)[100C:0](=O)N4CCCC(n5nc(-c6ccc(Oc7ccc(F)cc7F)cc6)c(C(N)=O)c5N)C4)n3)ccc2CC1C(=O)NC1CCCc2ccccc21)C(C)(C)C

> <Shape>
0.215

> <Color>
0.068

> <Negative vol penalty>
0.000

$$$$

  -OEChem-04052317333D

 86 94  0     1  0  0  0  0  0999 V2000
  -33.8287  -16.7440   23.5648 C   0  0  0  0  0  0  0  0  0  0  0  0
  -32.7775  -17.4434   22.9808 C   0  0  0  0  0  0  0  0  0  0  0  0
  -19.5350  -28.5218   21.7620 C   0  0  0  0  0  0  0  0  0  0  0  0
  -20.8015  -26.9363   23.0732 C   0  0  0  0  0  0  0  0  0  0  0  0
  -33.9791  -15.3799   23.3182 C   0  0  0  0  0  0  0  0  0  0  0  0
  -31.8766  -16.7794   22.1490 C   0  0  0  0  0  0  0  0  0  0  0  0
  -27.0623  -18.0127   23.1219 C   0  0  0  0  0  0  0  0  0  0  0  0
  -18.3552  -28.0653   22.3496 C   0  0  0  0  0  0  0  0  0  0  0  0
  -19.6216  -26.4798   23.6608 C   0  0  0  0  0  0  0  0  0  0  0  0
  -26.6059  -19.2344   22.6290 C   0  0  0  0  0  0  0  0  0  0  0  0
  -17.0584  -24.4340   22.8389 C   0  0  0  0  0  0  0  0  0  0  0  0
  -16.8810  -23.0550   22.9497 C   0  0  0  0  0  0  0  0  0  0  0  0
  -25.5525  -18.0899   20.7851 C   0  0  0  0  0  0  0  0  0  0  0  0
  -16.7304  -23.2673   25.3516 C   0  0  0  0  0  0  0  0  0  0  0  0
  -28.2147  -23.4035   21.0441 C   0  0  0  0  0  0  0  0  0  0  0  0
  -20.7582  -27.9572   22.1238 C   0  0  0  0  0  0  0  0  0  0  0  0
  -22.8076  -29.4688   21.9737 C   0  0  0  0  0  0  0  0  0  0  0  0
  -33.0740  -14.6969   22.4907 C   0  0  0  0  0  0  0  0  0  0  0  0
  -26.7760  -16.8196   22.4431 C   0  0  0  0  0  0  0  0  0  0  0  0
  -32.0158  -15.4052   21.8901 C   0  0  0  0  0  0  0  0  0  0  0  0
  -26.0043  -16.8542   21.2729 C   0  0  0  0  0  0  0  0  0  0  0  0
  -18.3985  -27.0444   23.2990 C   0  0  0  0  0  0  0  0  0  0  0  0
  -25.8533  -19.2734   21.4588 C   0  0  0  0  0  0  0  0  0  0  0  0
  -17.0719  -25.2298   23.9844 C   0  0  0  0  0  0  0  0  0  0  0  0
  -16.7169  -22.4716   24.2060 C   0  0  0  0  0  0  0  0  0  0  0  0
  -16.9079  -24.6464   25.2408 C   0  0  0  0  0  0  0  0  0  0  0  0
  -21.9772  -28.4279   21.5167 C   0  0  0  0  0  0  0  0  0  0  0  0
  -29.1893  -23.5436   20.0807 C   0  0  0  0  0  0  0  0  0  0  0  0
  -27.7521  -22.7150   18.5065 C   0  0  0  0  0  0  0  0  0  0  0  0
  -26.7778  -22.5743   19.4701 C   0  0  0  0  0  0  0  0  0  0  0  0
  -23.8275  -29.5227   21.0553 C   0  0  0  0  0  0  0  0  0  0  0  0
  -22.6695  -30.3116   23.1254 C   0  0  0  0  0  0  0  0  0  0  0  0
  -28.5202  -14.5645   21.0374 C   0  0  0  0  0  0  0  0  0  0  0  0
  -27.6174  -26.8843   17.8985 C   0  0  0  0  0  0  0  0  0  0  0  0
  -25.6500  -13.0853   20.7270 C   0  0  0  0  0  0  0  0  0  0  0  0
  -22.2524  -13.3594   20.5602 C   0  0  0  0  0  0  0  0  0  0  0  0
  -33.3049  -13.2320   22.2159 C   0  0  0  0  0  0  0  0  0  0  0  0
  -27.2530  -15.5073   23.0024 C   0  0  0  0  0  0  0  0  0  0  0  0
  -25.6523  -15.5995   20.5177 C   0  0  0  0  0  0  0  0  0  0  0  0
  -32.0894  -12.5247   21.6222 C   0  0  0  0  0  0  0  0  0  0  0  0
  -24.3273  -27.3084   16.5436 C   0  0  0  0  0  0  0  0  0  0  0  0
  -31.4894  -13.3533   20.4907 C   0  0  0  0  0  0  0  0  0  0  0  0
  -23.4853  -27.6933   17.7593 C   0  0  0  0  0  0  0  0  0  0  0  0
  -25.4218  -26.3128   16.9150 C   0  0  0  0  0  0  0  0  0  0  0  0
  -25.4730  -27.1600   19.2391 C   0  0  0  0  0  0  0  0  0  0  0  0
  -31.0035  -14.7150   21.0018 C   0  0  1  0  0  0  0  0  0  0  0  0
  -27.3380  -14.4052   21.9510 C   0  0  1  0  0  0  0  0  0  0  0  0
  -24.3749  -28.1879   18.9137 C   0  0  2  0  0  0  0  0  0  0  0  0
  -27.5023  -22.3338   17.0874 C   0  0  0  0  0  0  0  0  0  0  0  0
  -20.1769  -11.9800   20.2655 C   0  0  0  0  0  0  0  0  0  0  0  0
  -30.6312  -28.3026   19.8057 C   0  0  0  0  0  0  0  0  0  0  0  0
  -26.2413  -12.8373   17.7439 C   0  0  0  0  0  0  0  0  0  0  0  0
  -23.8142  -12.3464   17.3746 C   0  0  0  0  0  0  0  0  0  0  0  0
  -25.1969  -10.8110   18.7723 C   0  0  0  0  0  0  0  0  0  0  0  0
  -21.2021  -14.1638   23.2076 C   0  0  0  0  0  0  0  0  0  0  0  0
  -31.6580  -25.8566   18.0557 C   0  0  0  0  0  0  0  0  0  0  0  0
  -30.5299  -24.0846   20.4356 C   0  0  0  0  0  0  0  0  0  0  0  0
  -25.4117  -22.0275   19.1341 C   0  0  0  0  0  0  0  0  0  0  0  0
  -28.3820  -27.4093   19.0875 C   0  0  0  0  0  0  0  0  0  0  0  0
  -30.6461  -25.6061   20.3171 C   0  0  0  0  0  0  0  0  0  0  0  0
  -25.2483  -20.5729   19.5611 C   0  0  0  0  0  0  0  0  0  1  0  0
  -24.5571  -13.0801   19.6857 C   0  0  1  0  0  0  0  0  0  0  0  0
  -21.1446  -12.5964   21.2638 C   0  0  2  0  0  0  0  0  0  0  0  0
  -29.8819  -27.4324   18.8068 C   0  0  2  0  0  0  0  0  0  0  0  0
  -24.9605  -12.2927   18.4071 C   0  0  0  0  0  0  0  0  0  0  0  0
  -26.9915  -22.9164   20.7561 N   0  0  0  0  0  0  0  0  0  0  0  0
  -22.4302  -27.8615   20.3951 N   0  0  0  0  0  0  0  0  0  0  0  0
  -28.9754  -23.2019   18.7946 N   0  0  0  0  0  0  0  0  0  0  0  0
  -23.5563  -28.5490   20.1396 N   0  0  0  0  0  0  0  0  0  0  0  0
  -26.1472  -14.3417   21.1012 N   0  0  0  0  0  0  0  0  0  0  0  0
  -26.2306  -26.8094   18.0297 N   0  0  0  0  0  0  0  0  0  0  0  0
  -24.9207  -30.3076   20.9497 N   0  0  0  0  0  0  0  0  0  0  0  0
  -21.5623  -30.1214   23.9635 N   0  0  0  0  0  0  0  0  0  0  0  0
  -29.7382  -14.5743   21.6900 N   0  0  0  0  0  0  0  0  0  0  0  0
  -23.3628  -12.5694   20.3499 N   0  0  0  0  0  0  0  0  0  0  0  0
  -20.3778  -13.5064   22.1610 N   0  3  0  0  0  0  0  0  0  0  0  0
  -30.4274  -26.0294   18.9119 N   0  3  1  0  0  0  0  0  0  0  0  0
  -23.4944  -31.2175   23.3940 O   0  0  0  0  0  0  0  0  0  0  0  0
  -28.3407  -14.6691   19.8297 O   0  0  0  0  0  0  0  0  0  0  0  0
  -28.2357  -26.5540   16.8832 O   0  0  0  0  0  0  0  0  0  0  0  0
  -26.0431  -12.0144   21.1965 O   0  0  0  0  0  0  0  0  0  0  0  0
  -22.1423  -14.5373   20.2270 O   0  0  0  0  0  0  0  0  0  0  0  0
  -17.2474  -26.5989   23.8727 O   0  0  0  0  0  0  0  0  0  0  0  0
  -25.4071  -20.4646   20.9751 O   0  0  0  0  0  0  0  0  0  1  0  0
  -16.5450  -21.1475   24.3121 F   0  0  0  0  0  0  0  0  0  0  0  0
  -16.9188  -25.4059   26.3448 F   0  0  0  0  0  0  0  0  0  0  0  0
  1  2  1  0  0  0  0
  1  5  2  0  0  0  0
  2  6  2  0  0  0  0
  3  8  2  0  0  0  0
  3 16  1  0  0  0  0
  4  9  1  0  0  0  0
  4 16  2  0  0  0  0
  5 18  1  0  0  0  0
  6 20  1  0  0  0  0
  7 10  2  0  0  0  0
  7 19  1  0  0  0  0
  8 22  1  0  0  0  0
  9 22  2  0  0  0  0
 10 23  1  0  0  0  0
 11 12  2  0  0  0  0
 11 24  1  0  0  0  0
 12 25  1  0  0  0  0
 13 21  1  0  0  0  0
 13 23  2  0  0  0  0
 14 25  2  0  0  0  0
 14 26  1  0  0  0  0
 15 28  1  0  0  0  0
 15 66  2  0  0  0  0
 16 27  1  0  0  0  0
 17 27  1  0  0  0  0
 17 31  2  0  0  0  0
 17 32  1  0  0  0  0
 18 20  2  0  0  0  0
 18 37  1  0  0  0  0
 19 21  2  0  0  0  0
 19 38  1  0  0  0  0
 20 46  1  0  0  0  0
 21 39  1  0  0  0  0
 22 83  1  0  0  0  0
 23 84  1  0  0  0  0
 24 26  2  0  0  0  0
 24 83  1  0  0  0  0
 25 85  1  0  0  0  0
 26 86  1  0  0  0  0
 27 67  2  0  0  0  0
 28 57  1  0  0  0  0
 28 68  2  0  0  0  0
 29 30  2  0  0  0  0
 29 49  1  0  0  0  0
 29 68  1  0  0  0  0
 30 58  1  0  0  0  0
 30 66  1  0  0  0  0
 31 69  1  0  0  0  0
 31 72  1  0  0  0  0
 32 73  1  0  0  0  0
 32 78  2  0  0  0  0
 33 47  1  0  0  0  0
 33 74  1  0  0  0  0
 33 79  2  0  0  0  0
 34 59  1  0  0  0  0
 34 71  1  0  0  0  0
 34 80  2  0  0  0  0
 35 62  1  0  0  0  0
 35 70  1  0  0  0  0
 35 81  2  0  0  0  0
 36 63  1  0  0  0  0
 36 75  1  0  0  0  0
 36 82  2  0  0  0  0
 37 40  1  0  0  0  0
 38 47  1  0  0  0  0
 39 70  1  0  0  0  0
 40 42  1  0  0  0  0
 41 43  1  0  0  0  0
 41 44  1  0  0  0  0
 42 46  1  0  0  0  0
 43 48  1  0  0  0  0
 44 71  1  0  0  0  0
 45 48  1  0  0  0  0
 45 71  1  0  0  0  0
 46 74  1  0  0  0  0
 47 70  1  0  0  0  0
 48 69  1  0  0  0  0
 50 63  1  0  0  0  0
 51 64  1  0  0  0  0
 52 65  1  0  0  0  0
 53 65  1  0  0  0  0
 54 65  1  0  0  0  0
 55 76  1  0  0  0  0
 56 77  1  0  0  0  0
 57 60  1  0  0  0  0
 58 61  1  0  0  0  0
 59 64  1  0  0  0  0
 60 77  1  0  0  0  0
 61 84  1  0  0  0  0
 62 65  1  0  0  0  0
 62 75  1  0  0  0  0
 63 76  1  0  0  0  0
 64 77  1  0  0  0  0
 67 69  1  0  0  0  0
M  CHG  2  76   1  77   1
M  ISO  4  34 100  59 100  61 101  84 101
M  END
> <Batch ID>
0051

> <Smiles>
CNC(C)C(=O)NC(C(=O)N1Cc2cc([101O:1][101CH2:1]Cc3ncc(CCN(C)C(C)[100CH2:0][100C:0](=O)N4CCCC(n5nc(-c6ccc(Oc7ccc(F)cc7F)cc6)c(C(N)=O)c5N)C4)nc3C)ccc2CC1C(=O)NC1CCCc2ccccc21)C(C)(C)C

> <Shape>
0.229

> <Color>
0.070

> <Negative vol penalty>
0.000

$$$$

  -OEChem-04052317333D

 89 97  0     1  0  0  0  0  0999 V2000
  -27.5784  -32.9585   27.2575 C   0  0  0  0  0  0  0  0  0  0  0  0
  -27.8058  -31.8633   26.4302 C   0  0  0  0  0  0  0  0  0  0  0  0
  -24.0040  -11.9557   21.2761 C   0  0  0  0  0  0  0  0  0  0  0  0
  -24.7042  -11.9599   18.9638 C   0  0  0  0  0  0  0  0  0  0  0  0
  -26.2738  -33.3788   27.5129 C   0  0  0  0  0  0  0  0  0  0  0  0
  -26.7285  -31.1871   25.8587 C   0  0  0  0  0  0  0  0  0  0  0  0
  -27.4636  -30.1529   20.9562 C   0  0  0  0  0  0  0  0  0  0  0  0
  -31.2576  -25.6459   18.4270 C   0  0  0  0  0  0  0  0  0  0  0  0
  -23.0182  -11.0156   20.9760 C   0  0  0  0  0  0  0  0  0  0  0  0
  -23.7184  -11.0198   18.6636 C   0  0  0  0  0  0  0  0  0  0  0  0
  -28.2932  -29.0749   20.6503 C   0  0  0  0  0  0  0  0  0  0  0  0
  -22.8347   -7.6812   20.4462 C   0  0  0  0  0  0  0  0  0  0  0  0
  -22.6886   -6.5965   21.3108 C   0  0  0  0  0  0  0  0  0  0  0  0
  -31.9155  -24.4731   18.0734 C   0  0  0  0  0  0  0  0  0  0  0  0
  -26.3508  -27.6961   20.2693 C   0  0  0  0  0  0  0  0  0  0  0  0
  -20.4076   -7.2577   21.7547 C   0  0  0  0  0  0  0  0  0  0  0  0
  -24.8470  -12.4279   20.2700 C   0  0  0  0  0  0  0  0  0  0  0  0
  -27.1903  -13.1439   20.9800 C   0  0  0  0  0  0  0  0  0  0  0  0
  -25.1804  -32.7133   26.9366 C   0  0  0  0  0  0  0  0  0  0  0  0
  -26.0691  -30.0073   20.9315 C   0  0  0  0  0  0  0  0  0  0  0  0
  -25.4079  -31.5981   26.1078 C   0  0  0  0  0  0  0  0  0  0  0  0
  -25.5058  -28.7744   20.5728 C   0  0  0  0  0  0  0  0  0  0  0  0
  -30.6650  -25.7533   19.6802 C   0  0  0  0  0  0  0  0  0  0  0  0
  -22.8754  -10.5477   19.6697 C   0  0  0  0  0  0  0  0  0  0  0  0
  -27.7369  -27.8455   20.3096 C   0  0  0  0  0  0  0  0  0  0  0  0
  -21.7673   -8.5542   20.2358 C   0  0  0  0  0  0  0  0  0  0  0  0
  -21.4750   -6.3847   21.9651 C   0  0  0  0  0  0  0  0  0  0  0  0
  -20.5538   -8.3424   20.8901 C   0  0  0  0  0  0  0  0  0  0  0  0
  -25.8651  -13.3994   20.5794 C   0  0  0  0  0  0  0  0  0  0  0  0
  -31.9524  -23.4451   19.0017 C   0  0  0  0  0  0  0  0  0  0  0  0
  -30.7576  -24.6679   20.5364 C   0  0  0  0  0  0  0  0  0  0  0  0
  -27.7441  -14.3893   21.1491 C   0  0  0  0  0  0  0  0  0  0  0  0
  -27.8607  -11.8926   21.1812 C   0  0  0  0  0  0  0  0  0  0  0  0
  -23.7488  -30.2607   23.0892 C   0  0  0  0  0  0  0  0  0  0  0  0
  -21.8326  -29.8382   20.5062 C   0  0  0  0  0  0  0  0  0  0  0  0
  -21.4703  -28.6342   17.3336 C   0  0  0  0  0  0  0  0  0  0  0  0
  -28.5571  -19.6305   19.4128 C   0  0  0  0  0  0  0  0  0  0  0  0
  -23.7863  -33.1753   27.2799 C   0  0  0  0  0  0  0  0  0  0  0  0
  -25.1879  -31.1871   21.2380 C   0  0  0  0  0  0  0  0  0  0  0  0
  -24.0146  -28.5716   20.5119 C   0  0  0  0  0  0  0  0  0  0  0  0
  -22.7157  -32.6348   26.3355 C   0  0  0  0  0  0  0  0  0  0  0  0
  -25.5877  -18.9636   21.2608 C   0  0  0  0  0  0  0  0  0  0  0  0
  -22.9109  -31.1393   26.1072 C   0  0  0  0  0  0  0  0  0  0  0  0
  -25.5014  -17.4365   21.2757 C   0  0  0  0  0  0  0  0  0  0  0  0
  -26.1402  -19.4847   19.9359 C   0  0  0  0  0  0  0  0  0  0  0  0
  -27.3442  -17.3704   19.5441 C   0  0  0  0  0  0  0  0  0  0  0  0
  -24.2665  -30.8539   25.4495 C   0  0  1  0  0  0  0  0  0  0  0  0
  -23.7846  -30.7855   21.6817 C   0  0  1  0  0  0  0  0  0  0  0  0
  -26.8452  -16.7950   20.8806 C   0  0  2  0  0  0  0  0  0  0  0  0
  -28.8306  -23.9530   21.9723 C   0  0  0  0  0  0  0  0  0  0  0  0
  -19.7771  -28.4024   15.4959 C   0  0  0  0  0  0  0  0  0  0  0  0
  -33.9903  -19.8502   18.1923 C   0  0  0  0  0  0  0  0  0  0  0  0
  -20.5017  -27.5504   22.0243 C   0  0  0  0  0  0  0  0  0  0  0  0
  -19.5232  -26.7728   19.8550 C   0  0  0  0  0  0  0  0  0  0  0  0
  -18.9232  -29.0195   20.7577 C   0  0  0  0  0  0  0  0  0  0  0  0
  -32.3526  -17.6911   19.7639 C   0  0  0  0  0  0  0  0  0  0  0  0
  -31.5626  -19.4805   21.3132 C   0  0  0  0  0  0  0  0  0  0  0  0
  -23.0941  -30.2660   15.4737 C   0  0  0  0  0  0  0  0  0  0  0  0
  -34.5083  -22.1298   20.3148 C   0  0  0  0  0  0  0  0  0  0  0  0
  -29.9525  -27.0159   20.0670 C   0  0  0  0  0  0  0  0  0  1  0  0
  -30.1428  -24.7277   21.8963 C   0  0  0  0  0  0  0  0  0  0  0  0
  -32.6516  -22.1728   18.6561 C   0  0  0  0  0  0  0  0  0  0  0  0
  -30.9837  -19.6133   18.8927 C   0  0  0  0  0  0  0  0  0  0  0  0
  -21.2340  -28.6440   19.8031 C   0  0  1  0  0  0  0  0  0  0  0  0
  -20.8892  -29.2605   16.0787 C   0  0  2  0  0  0  0  0  0  0  0  0
  -33.4245  -20.0035   19.6035 C   0  0  2  0  0  0  0  0  0  0  0  0
  -20.0737  -27.9996   20.6130 C   0  0  0  0  0  0  0  0  0  0  0  0
  -32.1043  -19.2133   19.8914 C   0  0  0  0  0  0  0  0  0  0  0  0
  -25.5933  -14.7046   20.4990 N   0  0  0  0  0  0  0  0  0  0  0  0
  -31.3884  -23.5125   20.2284 N   0  0  0  0  0  0  0  0  0  0  0  0
  -26.7554  -15.2804   20.8514 N   0  0  0  0  0  0  0  0  0  0  0  0
  -23.1950  -29.7536   20.8262 N   0  0  0  0  0  0  0  0  0  0  0  0
  -27.4161  -18.8380   19.6201 N   0  0  0  0  0  0  0  0  0  0  0  0
  -28.9754  -14.7982   21.5219 N   0  0  0  0  0  0  0  0  0  0  0  0
  -27.1442  -10.7080   20.9628 N   0  0  0  0  0  0  0  0  0  0  0  0
  -24.2150  -31.1541   24.0347 N   0  0  0  0  0  0  0  0  0  0  0  0
  -20.8507  -29.1035   18.4725 N   0  0  0  0  0  0  0  0  0  0  0  0
  -29.7265  -18.9376   19.1246 N   0  0  0  0  0  0  0  0  0  0  0  0
  -21.9484  -29.4239   15.0432 N   0  3  0  0  0  0  0  0  0  0  0  0
  -33.2347  -21.4802   19.8378 N   0  3  1  0  0  0  0  0  0  0  0  0
  -29.0548  -11.8269   21.5597 O   0  0  0  0  0  0  0  0  0  0  0  0
  -23.3280  -29.1296   23.3018 O   0  0  0  0  0  0  0  0  0  0  0  0
  -21.1194  -30.8133   20.7558 O   0  0  0  0  0  0  0  0  0  0  0  0
  -22.3800  -27.8083   17.3059 O   0  0  0  0  0  0  0  0  0  0  0  0
  -28.5364  -20.8639   19.4849 O   0  0  0  0  0  0  0  0  0  0  0  0
  -21.9138   -9.6302   19.3765 O   0  0  0  0  0  0  0  0  0  0  0  0
  -28.5443  -26.7915   20.0112 O   0  0  0  0  0  0  0  0  0  1  0  0
  -21.3343   -5.3421   22.7942 F   0  0  0  0  0  0  0  0  0  0  0  0
  -19.5244   -9.1770   20.6911 F   0  0  0  0  0  0  0  0  0  0  0  0
  1  2  1  0  0  0  0
  1  5  2  0  0  0  0
  2  6  2  0  0  0  0
  3  9  2  0  0  0  0
  3 17  1  0  0  0  0
  4 10  1  0  0  0  0
  4 17  2  0  0  0  0
  5 19  1  0  0  0  0
  6 21  1  0  0  0  0
  7 11  2  0  0  0  0
  7 20  1  0  0  0  0
  8 14  2  0  0  0  0
  8 23  1  0  0  0  0
  9 24  1  0  0  0  0
 10 24  2  0  0  0  0
 11 25  1  0  0  0  0
 12 13  2  0  0  0  0
 12 26  1  0  0  0  0
 13 27  1  0  0  0  0
 14 30  1  0  0  0  0
 15 22  1  0  0  0  0
 15 25  2  0  0  0  0
 16 27  2  0  0  0  0
 16 28  1  0  0  0  0
 17 29  1  0  0  0  0
 18 29  1  0  0  0  0
 18 32  2  0  0  0  0
 18 33  1  0  0  0  0
 19 21  2  0  0  0  0
 19 38  1  0  0  0  0
 20 22  2  0  0  0  0
 20 39  1  0  0  0  0
 21 47  1  0  0  0  0
 22 40  1  0  0  0  0
 23 31  2  0  0  0  0
 23 60  1  0  0  0  0
 24 86  1  0  0  0  0
 25 87  1  0  0  0  0
 26 28  2  0  0  0  0
 26 86  1  0  0  0  0
 27 88  1  0  0  0  0
 28 89  1  0  0  0  0
 29 69  2  0  0  0  0
 30 62  1  0  0  0  0
 30 70  2  0  0  0  0
 31 61  1  0  0  0  0
 31 70  1  0  0  0  0
 32 71  1  0  0  0  0
 32 74  1  0  0  0  0
 33 75  1  0  0  0  0
 33 81  2  0  0  0  0
 34 48  1  0  0  0  0
 34 76  1  0  0  0  0
 34 82  2  0  0  0  0
 35 64  1  0  0  0  0
 35 72  1  0  0  0  0
 35 83  2  0  0  0  0
 36 65  1  0  0  0  0
 36 77  1  0  0  0  0
 36 84  2  0  0  0  0
 37 73  1  0  0  0  0
 37 78  1  0  0  0  0
 37 85  2  0  0  0  0
 38 41  1  0  0  0  0
 39 48  1  0  0  0  0
 40 72  1  0  0  0  0
 41 43  1  0  0  0  0
 42 44  1  0  0  0  0
 42 45  1  0  0  0  0
 43 47  1  0  0  0  0
 44 49  1  0  0  0  0
 45 73  1  0  0  0  0
 46 49  1  0  0  0  0
 46 73  1  0  0  0  0
 47 76  1  0  0  0  0
 48 72  1  0  0  0  0
 49 71  1  0  0  0  0
 50 61  1  0  0  0  0
 51 65  1  0  0  0  0
 52 66  1  0  0  0  0
 53 67  1  0  0  0  0
 54 67  1  0  0  0  0
 55 67  1  0  0  0  0
 56 68  1  0  0  0  0
 57 68  1  0  0  0  0
 58 79  1  0  0  0  0
 59 80  1  0  0  0  0
 60 87  1  0  0  0  0
 62 80  1  0  0  0  0
 63 68  1  0  0  0  0
 63 78  1  0  0  0  0
 64 67  1  0  0  0  0
 64 77  1  0  0  0  0
 65 79  1  0  0  0  0
 66 68  1  0  0  0  0
 66 80  1  0  0  0  0
 69 71  1  0  0  0  0
M  CHG  2  79   1  80   1
M  ISO  4  37 100  60 101  78 100  87 101
M  END
> <Batch ID>
0051

> <Smiles>
CCc1nc(CN(C)C(C)C(C)(C)C[100NH:0][100C:0](=O)N2CCCC(n3nc(-c4ccc(Oc5ccc(F)cc5F)cc4)c(C(N)=O)c3N)C2)ccc1[101CH2:1][101O:1]c1ccc2c(c1)CN(C(=O)C(NC(=O)C(C)NC)C(C)(C)C)C(C(=O)NC1CCCc3ccccc31)C2

> <Shape>
0.305

> <Color>
0.077

> <Negative vol penalty>
0.000

$$$$

  -OEChem-04052317333D

 90 98  0     1  0  0  0  0  0999 V2000
  -34.4351  -29.1497   19.8964 C   0  0  0  0  0  0  0  0  0  0  0  0
  -33.4771  -29.4516   20.8589 C   0  0  0  0  0  0  0  0  0  0  0  0
  -26.3867  -13.4136   19.2004 C   0  0  0  0  0  0  0  0  0  0  0  0
  -24.5038  -13.9561   20.6137 C   0  0  0  0  0  0  0  0  0  0  0  0
  -34.0979  -29.1845   18.5440 C   0  0  0  0  0  0  0  0  0  0  0  0
  -32.1815  -29.7896   20.4695 C   0  0  0  0  0  0  0  0  0  0  0  0
  -25.3737  -29.2051   22.6210 C   0  0  0  0  0  0  0  0  0  0  0  0
  -26.4114  -12.1229   19.7287 C   0  0  0  0  0  0  0  0  0  0  0  0
  -24.5284  -12.6653   21.1420 C   0  0  0  0  0  0  0  0  0  0  0  0
  -24.2429  -29.9900   22.8424 C   0  0  0  0  0  0  0  0  0  0  0  0
  -23.5157   -9.5770   20.2161 C   0  0  0  0  0  0  0  0  0  0  0  0
  -22.2988   -8.9076   20.3445 C   0  0  0  0  0  0  0  0  0  0  0  0
  -23.7536  -29.9405   20.4808 C   0  0  0  0  0  0  0  0  0  0  0  0
  -18.2867  -28.4144   22.4886 C   0  0  0  0  0  0  0  0  0  0  0  0
  -19.3105  -26.2631   22.1593 C   0  0  0  0  0  0  0  0  0  0  0  0
  -22.6470   -8.7320   22.7289 C   0  0  0  0  0  0  0  0  0  0  0  0
  -25.4329  -14.3302   19.6430 C   0  0  0  0  0  0  0  0  0  0  0  0
  -25.2209  -16.0284   17.7512 C   0  0  0  0  0  0  0  0  0  0  0  0
  -32.7949  -29.5137   18.1382 C   0  0  0  0  0  0  0  0  0  0  0  0
  -25.7095  -28.7904   21.3242 C   0  0  0  0  0  0  0  0  0  0  0  0
  -31.8269  -29.8301   19.1103 C   0  0  0  0  0  0  0  0  0  0  0  0
  -24.8877  -29.1482   20.2459 C   0  0  0  0  0  0  0  0  0  0  0  0
  -18.1719  -27.0604   22.1939 C   0  0  0  0  0  0  0  0  0  0  0  0
  -25.4823  -11.7488   20.6995 C   0  0  0  0  0  0  0  0  0  0  0  0
  -23.4343  -30.3603   21.7718 C   0  0  0  0  0  0  0  0  0  0  0  0
  -24.2984   -9.8239   21.3440 C   0  0  0  0  0  0  0  0  0  0  0  0
  -21.8644   -8.4851   21.6009 C   0  0  0  0  0  0  0  0  0  0  0  0
  -23.8640   -9.4014   22.6004 C   0  0  0  0  0  0  0  0  0  0  0  0
  -25.4072  -15.6638   19.0981 C   0  0  0  0  0  0  0  0  0  0  0  0
  -19.5528  -28.9185   22.7392 C   0  0  0  0  0  0  0  0  0  0  0  0
  -20.5308  -26.8636   22.4244 C   0  0  0  0  0  0  0  0  0  0  0  0
  -25.2790  -17.4006   17.7557 C   0  0  0  0  0  0  0  0  0  0  0  0
  -25.0138  -15.2006   16.5990 C   0  0  0  0  0  0  0  0  0  0  0  0
  -28.1863  -29.2631   19.3888 C   0  0  0  0  0  0  0  0  0  0  0  0
  -24.1415  -21.3310   22.0607 C   0  0  0  0  0  0  0  0  0  0  0  0
  -26.6342  -27.1170   17.5160 C   0  0  0  0  0  0  0  0  0  0  0  0
  -23.6897  -25.6280   16.6445 C   0  0  0  0  0  0  0  0  0  0  0  0
  -32.4901  -29.5842   16.6628 C   0  0  0  0  0  0  0  0  0  0  0  0
  -26.9178  -27.9217   21.1056 C   0  0  0  0  0  0  0  0  0  0  0  0
  -25.1932  -28.7120   18.8371 C   0  0  0  0  0  0  0  0  0  0  0  0
  -30.9962  -29.5867   16.3489 C   0  0  0  0  0  0  0  0  0  0  0  0
  -27.2130  -21.0668   20.1311 C   0  0  0  0  0  0  0  0  0  0  0  0
  -30.2623  -30.5716   17.2534 C   0  0  0  0  0  0  0  0  0  0  0  0
  -27.0863  -19.6608   19.5461 C   0  0  0  0  0  0  0  0  0  0  0  0
  -26.6219  -21.1453   21.5363 C   0  0  0  0  0  0  0  0  0  0  0  0
  -25.0731  -19.2815   21.0346 C   0  0  0  0  0  0  0  0  0  0  0  0
  -30.4042  -30.1771   18.7284 C   0  0  1  0  0  0  0  0  0  0  0  0
  -27.4493  -27.9859   19.6770 C   0  0  1  0  0  0  0  0  0  0  0  0
  -25.6302  -19.1673   19.6058 C   0  0  2  0  0  0  0  0  0  0  0  0
  -16.8328  -26.4655   21.9172 C   0  0  0  0  0  0  0  0  0  0  0  0
  -22.7307  -23.9401   15.0542 C   0  0  0  0  0  0  0  0  0  0  0  0
  -26.8108  -29.1541   15.2512 C   0  0  0  0  0  0  0  0  0  0  0  0
  -25.0557  -27.8483   14.0334 C   0  0  0  0  0  0  0  0  0  0  0  0
  -27.2512  -26.7899   14.5646 C   0  0  0  0  0  0  0  0  0  0  0  0
  -25.8533  -26.1555   24.5776 C   0  0  0  0  0  0  0  0  0  0  0  0
  -22.7770  -23.8888   18.8583 C   0  0  0  0  0  0  0  0  0  0  0  0
  -19.7156  -30.3819   23.0638 C   0  0  0  0  0  0  0  0  0  0  0  0
  -21.7737  -26.0383   22.3939 C   0  0  0  0  0  0  0  0  0  0  0  0
  -24.4041  -22.7050   22.6240 C   0  0  0  0  0  0  0  0  0  0  0  0
  -19.9398  -31.2644   21.8340 C   0  0  0  0  0  0  0  0  0  0  0  0
  -22.1281  -25.4150   23.7493 C   0  0  0  0  0  0  0  0  0  0  0  0
  -23.0997  -23.3079   23.1261 C   0  0  0  0  0  0  0  0  0  0  0  0
  -23.9468  -24.5055   25.0290 C   0  0  0  0  0  0  0  0  0  0  0  0
  -21.2326  -30.9477   21.0911 C   0  0  0  0  0  0  0  0  0  1  0  0
  -25.5924  -27.2049   16.4269 C   0  0  1  0  0  0  0  0  0  0  0  0
  -23.3209  -24.1701   16.4368 C   0  0  2  0  0  0  0  0  0  0  0  0
  -26.1726  -27.7593   15.0952 C   0  0  0  0  0  0  0  0  0  0  0  0
  -24.6821  -25.7674   25.4579 C   0  0  0  0  0  0  0  0  0  0  0  0
  -25.5715  -16.7193   19.8999 N   0  0  0  0  0  0  0  0  0  0  0  0
  -20.6818  -28.1753   22.7145 N   0  0  0  0  0  0  0  0  0  0  0  0
  -25.4887  -17.7606   19.0544 N   0  0  0  0  0  0  0  0  0  0  0  0
  -26.3891  -27.8689   18.6738 N   0  0  0  0  0  0  0  0  0  0  0  0
  -25.2437  -20.6406   21.5560 N   0  0  0  0  0  0  0  0  0  0  0  0
  -25.1706  -18.3224   16.7754 N   0  0  0  0  0  0  0  0  0  0  0  0
  -23.6999  -14.8658   16.2443 N   0  0  0  0  0  0  0  0  0  0  0  0
  -29.5129  -29.0824   19.0468 N   0  0  0  0  0  0  0  0  0  0  0  0
  -25.0058  -25.8738   16.3148 N   0  0  0  0  0  0  0  0  0  0  0  0
  -23.3403  -24.6426   23.6958 N   0  0  2  0  0  0  0  0  0  0  0  0
  -22.3194  -23.7394   17.4529 N   0  3  0  0  0  0  0  0  0  0  0  0
  -25.9666  -14.7570   15.9141 O   0  0  0  0  0  0  0  0  0  0  0  0
  -27.5947  -30.3333   19.4692 O   0  0  0  0  0  0  0  0  0  0  0  0
  -22.9902  -20.8876   22.0675 O   0  0  0  0  0  0  0  0  0  0  0  0
  -27.6252  -26.4018   17.3486 O   0  0  0  0  0  0  0  0  0  0  0  0
  -22.8892  -26.4657   17.0543 O   0  0  0  0  0  0  0  0  0  0  0  0
  -25.5060  -10.4893   21.2150 O   0  0  0  0  0  0  0  0  0  0  0  0
  -22.3303  -31.1269   21.9850 O   0  0  0  0  0  0  0  0  0  1  0  0
  -20.6950   -7.8436   21.7243 F   0  0  0  0  0  0  0  0  0  0  0  0
  -24.6110   -9.6368   23.6878 F   0  0  0  0  0  0  0  0  0  0  0  0
  -23.8065  -26.8044   25.5158 F   0  0  0  0  0  0  0  0  0  0  0  0
  -25.1387  -25.5867   26.7271 F   0  0  0  0  0  0  0  0  0  0  0  0
  1  2  1  0  0  0  0
  1  5  2  0  0  0  0
  2  6  2  0  0  0  0
  3  8  2  0  0  0  0
  3 17  1  0  0  0  0
  4  9  1  0  0  0  0
  4 17  2  0  0  0  0
  5 19  1  0  0  0  0
  6 21  1  0  0  0  0
  7 10  2  0  0  0  0
  7 20  1  0  0  0  0
  8 24  1  0  0  0  0
  9 24  2  0  0  0  0
 10 25  1  0  0  0  0
 11 12  2  0  0  0  0
 11 26  1  0  0  0  0
 12 27  1  0  0  0  0
 13 22  1  0  0  0  0
 13 25  2  0  0  0  0
 14 23  2  0  0  0  0
 14 30  1  0  0  0  0
 15 23  1  0  0  0  0
 15 31  2  0  0  0  0
 16 27  2  0  0  0  0
 16 28  1  0  0  0  0
 17 29  1  0  0  0  0
 18 29  1  0  0  0  0
 18 32  2  0  0  0  0
 18 33  1  0  0  0  0
 19 21  2  0  0  0  0
 19 38  1  0  0  0  0
 20 22  2  0  0  0  0
 20 39  1  0  0  0  0
 21 47  1  0  0  0  0
 22 40  1  0  0  0  0
 23 50  1  0  0  0  0
 24 85  1  0  0  0  0
 25 86  1  0  0  0  0
 26 28  2  0  0  0  0
 26 85  1  0  0  0  0
 27 87  1  0  0  0  0
 28 88  1  0  0  0  0
 29 69  2  0  0  0  0
 30 57  1  0  0  0  0
 30 70  2  0  0  0  0
 31 58  1  0  0  0  0
 31 70  1  0  0  0  0
 32 71  1  0  0  0  0
 32 74  1  0  0  0  0
 33 75  1  0  0  0  0
 33 80  2  0  0  0  0
 34 48  1  0  0  0  0
 34 76  1  0  0  0  0
 34 81  2  0  0  0  0
 35 59  1  0  0  0  0
 35 73  1  0  0  0  0
 35 82  2  0  0  0  0
 36 65  1  0  0  0  0
 36 72  1  0  0  0  0
 36 83  2  0  0  0  0
 37 66  1  0  0  0  0
 37 77  1  0  0  0  0
 37 84  2  0  0  0  0
 38 41  1  0  0  0  0
 39 48  1  0  0  0  0
 40 72  1  0  0  0  0
 41 43  1  0  0  0  0
 42 44  1  0  0  0  0
 42 45  1  0  0  0  0
 43 47  1  0  0  0  0
 44 49  1  0  0  0  0
 45 73  1  0  0  0  0
 46 49  1  0  0  0  0
 46 73  1  0  0  0  0
 47 76  1  0  0  0  0
 48 72  1  0  0  0  0
 49 71  1  0  0  0  0
 51 66  1  0  0  0  0
 52 67  1  0  0  0  0
 53 67  1  0  0  0  0
 54 67  1  0  0  0  0
 55 68  1  0  0  0  0
 56 79  1  0  0  0  0
 57 60  1  0  0  0  0
 58 61  1  0  0  0  0
 59 62  1  0  0  0  0
 60 64  1  0  0  0  0
 61 78  1  0  0  0  0
 62 78  1  0  0  0  0
 63 68  1  0  0  0  0
 63 78  1  0  0  0  0
 64 86  1  0  0  0  0
 65 67  1  0  0  0  0
 65 77  1  0  0  0  0
 66 79  1  0  0  0  0
 68 89  1  0  0  0  0
 68 90  1  0  0  0  0
 69 71  1  0  0  0  0
M  CHG  1  79   1
M  ISO  4  35 100  59 100  64 101  86 101
M  END
> <Batch ID>
0051

> <Smiles>
CNC(C)C(=O)NC(C(=O)N1Cc2cc([101O:1][101CH2:1]CCc3cc(C)cc(CCN(C[100CH2:0][100C:0](=O)N4CCCC(n5nc(-c6ccc(Oc7ccc(F)cc7F)cc6)c(C(N)=O)c5N)C4)CC(C)(F)F)n3)ccc2CC1C(=O)NC1CCCc2ccccc21)C(C)(C)C

> <Shape>
0.187

> <Color>
0.084

> <Negative vol penalty>
0.000

$$$$

  -OEChem-04052317333D

 85 92  0     1  0  0  0  0  0999 V2000
  -23.9951  -32.1486   15.4298 C   0  0  0  0  0  0  0  0  0  0  0  0
  -24.5498  -30.8778   15.3170 C   0  0  0  0  0  0  0  0  0  0  0  0
  -23.3269   -9.8467   19.8167 C   0  0  0  0  0  0  0  0  0  0  0  0
  -23.7850   -9.8481   22.1889 C   0  0  0  0  0  0  0  0  0  0  0  0
  -24.4170  -33.0044   16.4464 C   0  0  0  0  0  0  0  0  0  0  0  0
  -25.5277  -30.4625   16.2201 C   0  0  0  0  0  0  0  0  0  0  0  0
  -26.3659  -24.7979   18.3916 C   0  0  0  0  0  0  0  0  0  0  0  0
  -22.6332   -8.6441   19.9514 C   0  0  0  0  0  0  0  0  0  0  0  0
  -23.0913   -8.6455   22.3236 C   0  0  0  0  0  0  0  0  0  0  0  0
  -27.2434  -23.7758   18.0322 C   0  0  0  0  0  0  0  0  0  0  0  0
  -19.8709   -7.6350   22.4922 C   0  0  0  0  0  0  0  0  0  0  0  0
  -18.9745   -7.5211   23.5547 C   0  0  0  0  0  0  0  0  0  0  0  0
  -28.7590  -24.4724   19.7749 C   0  0  0  0  0  0  0  0  0  0  0  0
  -20.2340   -5.6481   24.4166 C   0  0  0  0  0  0  0  0  0  0  0  0
  -23.9029  -10.4486   20.9355 C   0  0  0  0  0  0  0  0  0  0  0  0
  -24.0935  -12.9922   20.8981 C   0  0  0  0  0  0  0  0  0  0  0  0
  -25.3937  -32.5958   17.3683 C   0  0  0  0  0  0  0  0  0  0  0  0
  -26.6840  -25.6731   19.4401 C   0  0  0  0  0  0  0  0  0  0  0  0
  -25.9641  -31.3141   17.2492 C   0  0  0  0  0  0  0  0  0  0  0  0
  -27.8827  -25.5031   20.1473 C   0  0  0  0  0  0  0  0  0  0  0  0
  -22.5154   -8.0435   21.2048 C   0  0  0  0  0  0  0  0  0  0  0  0
  -28.4415  -23.6147   18.7219 C   0  0  0  0  0  0  0  0  0  0  0  0
  -20.9488   -6.7553   22.3917 C   0  0  0  0  0  0  0  0  0  0  0  0
  -19.1560   -6.5278   24.5170 C   0  0  0  0  0  0  0  0  0  0  0  0
  -21.1303   -5.7620   23.3539 C   0  0  0  0  0  0  0  0  0  0  0  0
  -24.6201  -11.6906   20.7970 C   0  0  0  0  0  0  0  0  0  0  0  0
  -25.1725  -13.8163   20.6901 C   0  0  0  0  0  0  0  0  0  0  0  0
  -22.7492  -13.4183   21.1570 C   0  0  0  0  0  0  0  0  0  0  0  0
  -27.1721  -28.8050   19.6777 C   0  0  0  0  0  0  0  0  0  0  0  0
  -27.3147  -28.1480   22.8511 C   0  0  0  0  0  0  0  0  0  0  0  0
  -27.8957  -25.8559   25.3119 C   0  0  0  0  0  0  0  0  0  0  0  0
  -31.0572  -12.5035   21.4417 C   0  0  0  0  0  0  0  0  0  0  0  0
  -25.8519  -33.5733   18.4215 C   0  0  0  0  0  0  0  0  0  0  0  0
  -25.7145  -26.7539   19.8330 C   0  0  0  0  0  0  0  0  0  0  0  0
  -28.2616  -26.4034   21.2938 C   0  0  0  0  0  0  0  0  0  0  0  0
  -26.6230  -32.9193   19.5652 C   0  0  0  0  0  0  0  0  0  0  0  0
  -29.3839  -13.9961   18.4476 C   0  0  0  0  0  0  0  0  0  0  0  0
  -27.6685  -31.9518   19.0195 C   0  0  0  0  0  0  0  0  0  0  0  0
  -27.9276  -13.6130   18.7063 C   0  0  0  0  0  0  0  0  0  0  0  0
  -30.3393  -12.9838   19.0679 C   0  0  0  0  0  0  0  0  0  0  0  0
  -28.6758  -12.3900   20.7990 C   0  0  0  0  0  0  0  0  0  0  0  0
  -27.0094  -30.8182   18.2246 C   0  0  1  0  0  0  0  0  0  0  0  0
  -26.3761  -27.9068   20.5817 C   0  0  1  0  0  0  0  0  0  0  0  0
  -27.6741  -13.3959   20.2079 C   0  0  2  0  0  0  0  0  0  0  0  0
  -27.9732  -25.6239   27.8095 C   0  0  0  0  0  0  0  0  0  0  0  0
  -29.6312  -18.2708   22.1872 C   0  0  0  0  0  0  0  0  0  0  0  0
  -30.0136  -29.5705   22.8970 C   0  0  0  0  0  0  0  0  0  0  0  0
  -30.4617  -28.4999   25.1154 C   0  0  0  0  0  0  0  0  0  0  0  0
  -28.5389  -30.0676   24.8548 C   0  0  0  0  0  0  0  0  0  0  0  0
  -32.7643  -12.6446   19.5802 C   0  0  0  0  0  0  0  0  0  0  0  0
  -25.7272  -23.8418   25.3084 C   0  0  0  0  0  0  0  0  0  0  0  0
  -34.1291  -16.1272   24.4685 C   0  0  0  0  0  0  0  0  0  0  0  0
  -29.7891  -20.0034   19.6329 C   0  0  0  0  0  0  0  0  0  0  0  0
  -29.6206  -20.2320   18.1269 C   0  0  0  0  0  0  0  0  0  0  0  0
  -30.6641  -18.7758   19.9112 C   0  0  0  0  0  0  0  0  0  0  0  0
  -33.9364  -13.9045   22.2399 C   0  0  0  0  0  0  0  0  0  0  0  0
  -31.9613  -17.4214   21.6410 C   0  0  0  0  0  0  0  0  0  0  0  0
  -33.4723  -12.4837   21.9380 C   0  0  0  0  0  0  0  0  0  0  0  0
  -32.8289  -14.7570   22.8460 C   0  0  0  0  0  0  0  0  0  0  0  0
  -32.3384  -17.1852   23.0990 C   0  0  0  0  0  0  0  0  0  0  0  0
  -28.7331  -21.4327   17.8221 C   0  0  0  0  0  0  0  0  0  1  0  0
  -28.4115  -27.7663   23.8156 C   0  0  1  0  0  0  0  0  0  0  0  0
  -27.1119  -25.4998   26.5623 C   0  0  2  0  0  0  0  0  0  0  0  0
  -30.9241  -18.5424   21.4130 C   0  0  2  0  0  0  0  0  0  0  0  0
  -29.3505  -28.9601   24.1479 C   0  0  0  0  0  0  0  0  0  0  0  0
  -25.9316  -11.6832   20.5442 N   0  0  0  0  0  0  0  0  0  0  0  0
  -26.2382  -12.9903   20.4847 N   0  0  0  0  0  0  0  0  0  0  0  0
  -27.2835  -27.4493   21.6359 N   0  0  0  0  0  0  0  0  0  0  0  0
  -30.0562  -12.7735   20.4939 N   0  0  0  0  0  0  0  0  0  0  0  0
  -25.3040  -15.1596   20.6646 N   0  0  0  0  0  0  0  0  0  0  0  0
  -21.7633  -12.4405   21.3472 N   0  0  0  0  0  0  0  0  0  0  0  0
  -26.4393  -29.8365   19.1223 N   0  0  0  0  0  0  0  0  0  0  0  0
  -27.7487  -27.1857   24.9784 N   0  0  0  0  0  0  0  0  0  0  0  0
  -32.3797  -12.4499   20.9762 N   0  0  0  0  0  0  0  0  0  0  0  0
  -26.6079  -24.1000   26.4766 N   0  3  0  0  0  0  0  0  0  0  0  0
  -33.3780  -16.1265   23.1603 N   0  3  1  0  0  0  0  0  0  0  0  0
  -22.4286  -14.6303   21.2015 O   0  0  0  0  0  0  0  0  0  0  0  0
  -28.3633  -28.5799   19.4987 O   0  0  0  0  0  0  0  0  0  0  0  0
  -26.5107  -29.0285   23.1673 O   0  0  0  0  0  0  0  0  0  0  0  0
  -28.5737  -25.0372   24.6951 O   0  0  0  0  0  0  0  0  0  0  0  0
  -30.7853  -12.3311   22.6368 O   0  0  0  0  0  0  0  0  0  0  0  0
  -21.8383   -6.8701   21.3366 O   0  0  0  0  0  0  0  0  0  0  0  0
  -29.3066  -22.6108   18.3700 O   0  0  0  0  0  0  0  0  0  1  0  0
  -18.2960   -6.4196   25.5382 F   0  0  0  0  0  0  0  0  0  0  0  0
  -22.1647   -4.9147   23.2634 F   0  0  0  0  0  0  0  0  0  0  0  0
  1  2  1  0  0  0  0
  1  5  2  0  0  0  0
  2  6  2  0  0  0  0
  3  8  2  0  0  0  0
  3 15  1  0  0  0  0
  4  9  1  0  0  0  0
  4 15  2  0  0  0  0
  5 17  1  0  0  0  0
  6 19  1  0  0  0  0
  7 10  2  0  0  0  0
  7 18  1  0  0  0  0
  8 21  1  0  0  0  0
  9 21  2  0  0  0  0
 10 22  1  0  0  0  0
 11 12  2  0  0  0  0
 11 23  1  0  0  0  0
 12 24  1  0  0  0  0
 13 20  1  0  0  0  0
 13 22  2  0  0  0  0
 14 24  2  0  0  0  0
 14 25  1  0  0  0  0
 15 26  1  0  0  0  0
 16 26  1  0  0  0  0
 16 27  2  0  0  0  0
 16 28  1  0  0  0  0
 17 19  2  0  0  0  0
 17 33  1  0  0  0  0
 18 20  2  0  0  0  0
 18 34  1  0  0  0  0
 19 42  1  0  0  0  0
 20 35  1  0  0  0  0
 21 82  1  0  0  0  0
 22 83  1  0  0  0  0
 23 25  2  0  0  0  0
 23 82  1  0  0  0  0
 24 84  1  0  0  0  0
 25 85  1  0  0  0  0
 26 66  2  0  0  0  0
 27 67  1  0  0  0  0
 27 70  1  0  0  0  0
 28 71  1  0  0  0  0
 28 77  2  0  0  0  0
 29 43  1  0  0  0  0
 29 72  1  0  0  0  0
 29 78  2  0  0  0  0
 30 62  1  0  0  0  0
 30 68  1  0  0  0  0
 30 79  2  0  0  0  0
 31 63  1  0  0  0  0
 31 73  1  0  0  0  0
 31 80  2  0  0  0  0
 32 69  1  0  0  0  0
 32 74  1  0  0  0  0
 32 81  2  0  0  0  0
 33 36  1  0  0  0  0
 34 43  1  0  0  0  0
 35 68  1  0  0  0  0
 36 38  1  0  0  0  0
 37 39  1  0  0  0  0
 37 40  1  0  0  0  0
 38 42  1  0  0  0  0
 39 44  1  0  0  0  0
 40 69  1  0  0  0  0
 41 44  1  0  0  0  0
 41 69  1  0  0  0  0
 42 72  1  0  0  0  0
 43 68  1  0  0  0  0
 44 67  1  0  0  0  0
 45 63  1  0  0  0  0
 46 64  1  0  0  0  0
 47 65  1  0  0  0  0
 48 65  1  0  0  0  0
 49 65  1  0  0  0  0
 50 74  1  0  0  0  0
 51 75  1  0  0  0  0
 52 76  1  0  0  0  0
 53 54  1  0  0  0  0
 53 55  1  0  0  0  0
 54 61  1  0  0  0  0
 55 64  1  0  0  0  0
 56 58  1  0  0  0  0
 56 59  1  0  0  0  0
 57 60  1  0  0  0  0
 57 64  1  0  0  0  0
 58 74  1  0  0  0  0
 59 76  1  0  0  0  0
 60 76  1  0  0  0  0
 61 83  1  0  0  0  0
 62 65  1  0  0  0  0
 62 73  1  0  0  0  0
 63 75  1  0  0  0  0
 66 67  1  0  0  0  0
M  CHG  2  75   1  76   1
M  ISO  4  32 100  61 101  74 100  83 101
M  END
> <Batch ID>
0051

> <Smiles>
CNC(C)C(=O)NC(C(=O)N1Cc2cc([101O:1][101CH2:1]CCCC(C)CCN(C)CCC[100N:0](C)[100C:0](=O)N3CCCC(n4nc(-c5ccc(Oc6ccc(F)cc6F)cc5)c(C(N)=O)c4N)C3)ccc2CC1C(=O)NC1CCCc2ccccc21)C(C)(C)C

> <Shape>
0.228

> <Color>
0.180

> <Negative vol penalty>
0.000

$$$$

  -OEChem-04052317333D

 91 99  0     1  0  0  0  0  0999 V2000
  -25.7997  -30.0061   19.5443 C   0  0  0  0  0  0  0  0  0  0  0  0
  -25.2367  -28.7509   19.7513 C   0  0  0  0  0  0  0  0  0  0  0  0
  -28.3315  -23.8451   18.8130 C   0  0  0  0  0  0  0  0  0  0  0  0
  -30.2963  -23.7855   20.2178 C   0  0  0  0  0  0  0  0  0  0  0  0
  -25.5182  -31.0491   20.4257 C   0  0  0  0  0  0  0  0  0  0  0  0
  -24.3927  -28.5377   20.8406 C   0  0  0  0  0  0  0  0  0  0  0  0
  -19.5048  -24.8536   21.0446 C   0  0  0  0  0  0  0  0  0  0  0  0
  -28.1907  -25.2092   19.0679 C   0  0  0  0  0  0  0  0  0  0  0  0
  -30.1555  -25.1497   20.4726 C   0  0  0  0  0  0  0  0  0  0  0  0
  -19.3251  -23.5596   21.5316 C   0  0  0  0  0  0  0  0  0  0  0  0
  -30.8265  -28.0597   18.8908 C   0  0  0  0  0  0  0  0  0  0  0  0
  -31.9726  -28.8518   18.8232 C   0  0  0  0  0  0  0  0  0  0  0  0
  -18.5041  -24.4631   23.6122 C   0  0  0  0  0  0  0  0  0  0  0  0
  -31.6716  -29.4845   21.1354 C   0  0  0  0  0  0  0  0  0  0  0  0
  -26.2515  -12.4472   23.4152 C   0  0  0  0  0  0  0  0  0  0  0  0
  -29.3843  -23.1332   19.3880 C   0  0  0  0  0  0  0  0  0  0  0  0
  -30.2590  -21.1247   18.0810 C   0  0  0  0  0  0  0  0  0  0  0  0
  -24.6626  -30.8511   21.5208 C   0  0  0  0  0  0  0  0  0  0  0  0
  -19.1951  -25.9639   21.8431 C   0  0  0  0  0  0  0  0  0  0  0  0
  -24.1005  -29.5786   21.7382 C   0  0  0  0  0  0  0  0  0  0  0  0
  -18.6782  -25.7701   23.1320 C   0  0  0  0  0  0  0  0  0  0  0  0
  -29.1026  -25.8615   19.8976 C   0  0  0  0  0  0  0  0  0  0  0  0
  -18.8275  -23.3642   22.8166 C   0  0  0  0  0  0  0  0  0  0  0  0
  -30.1028  -27.9800   20.0806 C   0  0  0  0  0  0  0  0  0  0  0  0
  -32.3952  -29.5642   19.9455 C   0  0  0  0  0  0  0  0  0  0  0  0
  -30.5254  -28.6924   21.2029 C   0  0  0  0  0  0  0  0  0  0  0  0
  -29.5301  -21.7239   19.1256 C   0  0  0  0  0  0  0  0  0  0  0  0
  -25.4958  -12.9821   24.4351 C   0  0  0  0  0  0  0  0  0  0  0  0
  -27.1922  -14.4335   24.9308 C   0  0  0  0  0  0  0  0  0  0  0  0
  -27.9481  -13.8980   23.9113 C   0  0  0  0  0  0  0  0  0  0  0  0
  -30.0840  -19.7756   18.2701 C   0  0  0  0  0  0  0  0  0  0  0  0
  -31.0259  -21.7331   17.0334 C   0  0  0  0  0  0  0  0  0  0  0  0
  -20.8534  -28.3949   23.0450 C   0  0  0  0  0  0  0  0  0  0  0  0
  -17.9233  -29.4212   23.9849 C   0  0  0  0  0  0  0  0  0  0  0  0
  -14.6936  -28.6426   24.7657 C   0  0  0  0  0  0  0  0  0  0  0  0
  -29.9307  -15.3675   21.3533 C   0  0  0  0  0  0  0  0  0  0  0  0
  -24.4254  -31.9963   22.4731 C   0  0  0  0  0  0  0  0  0  0  0  0
  -19.3694  -27.3531   21.2933 C   0  0  0  0  0  0  0  0  0  0  0  0
  -18.3113  -26.9285   24.0218 C   0  0  0  0  0  0  0  0  0  0  0  0
  -23.2236  -31.7867   23.3906 C   0  0  0  0  0  0  0  0  0  0  0  0
  -26.9396  -17.2445   21.3029 C   0  0  0  0  0  0  0  0  0  0  0  0
  -23.2476  -30.3841   23.9898 C   0  0  0  0  0  0  0  0  0  0  0  0
  -27.4087  -18.5438   20.6497 C   0  0  0  0  0  0  0  0  0  0  0  0
  -27.9736  -16.6886   22.2839 C   0  0  0  0  0  0  0  0  0  0  0  0
  -29.7924  -17.8208   21.0459 C   0  0  0  0  0  0  0  0  0  0  0  0
  -23.1603  -29.3146   22.8943 C   0  0  1  0  0  0  0  0  0  0  0  0
  -19.5054  -28.4137   22.3814 C   0  0  1  0  0  0  0  0  0  0  0  0
  -28.7974  -18.3684   20.0111 C   0  0  2  0  0  0  0  0  0  0  0  0
  -26.8574  -15.7645   27.0291 C   0  0  0  0  0  0  0  0  0  0  0  0
  -31.4061  -12.5480   22.1566 C   0  0  0  0  0  0  0  0  0  0  0  0
  -12.5459  -29.6882   25.5348 C   0  0  0  0  0  0  0  0  0  0  0  0
  -19.0444  -29.6367   26.8145 C   0  0  0  0  0  0  0  0  0  0  0  0
  -16.6917  -29.7493   27.6633 C   0  0  0  0  0  0  0  0  0  0  0  0
  -17.5516  -31.5254   26.1373 C   0  0  0  0  0  0  0  0  0  0  0  0
  -13.2684  -27.7963   22.3138 C   0  0  0  0  0  0  0  0  0  0  0  0
  -24.1124  -12.4542   24.7203 C   0  0  0  0  0  0  0  0  0  0  0  0
  -27.7091  -15.5429   25.7815 C   0  0  0  0  0  0  0  0  0  0  0  0
  -29.3181  -14.4032   23.6116 C   0  0  0  0  0  0  0  0  0  0  0  0
  -23.1564  -13.5029   25.2999 C   0  0  0  0  0  0  0  0  0  0  0  0
  -22.8853  -14.6640   24.3384 C   0  0  0  0  0  0  0  0  0  0  0  0
  -20.6611  -18.9235   23.4232 C   0  0  0  0  0  0  0  0  0  0  0  0
  -19.7375  -20.0466   23.8890 C   0  0  0  0  0  0  0  0  0  0  0  0
  -29.9987  -12.9351   21.7495 C   0  0  0  0  0  0  0  0  0  0  0  0
  -21.9588  -15.6909   24.9738 C   0  0  0  0  0  0  0  0  0  0  0  0
  -20.8217  -17.8645   24.5036 C   0  0  0  0  0  0  0  0  0  0  0  0
  -19.5325  -21.0929   22.8027 C   0  0  0  0  0  0  0  0  0  1  0  0
  -17.0638  -29.2244   25.2103 C   0  0  1  0  0  0  0  0  0  0  0  0
  -13.3759  -29.2608   24.3343 C   0  0  2  0  0  0  0  0  0  0  0  0
  -17.5965  -30.0119   26.4405 C   0  0  0  0  0  0  0  0  0  0  0  0
  -27.4913  -12.8955   23.1350 N   0  0  0  0  0  0  0  0  0  0  0  0
  -28.9361  -20.8289   19.9194 N   0  0  0  0  0  0  0  0  0  0  0  0
  -25.9525  -13.9849   25.2112 N   0  0  0  0  0  0  0  0  0  0  0  0
  -29.2914  -19.6535   19.3733 N   0  0  0  0  0  0  0  0  0  0  0  0
  -18.5057  -28.2675   23.4413 N   0  0  0  0  0  0  0  0  0  0  0  0
  -29.2940  -16.5820   21.6484 N   0  0  0  0  0  0  0  0  0  0  0  0
  -30.5322  -18.6936   17.5985 N   0  0  0  0  0  0  0  0  0  0  0  0
  -31.1010  -23.1318   16.9863 N   0  0  0  0  0  0  0  0  0  0  0  0
  -21.7988  -29.1860   22.4208 N   0  0  0  0  0  0  0  0  0  0  0  0
  -15.7045  -29.5789   24.8168 N   0  0  0  0  0  0  0  0  0  0  0  0
  -29.6595  -14.2790   22.1959 N   0  0  0  0  0  0  0  0  0  0  0  0
  -12.5814  -28.2835   23.5376 N   0  3  0  0  0  0  0  0  0  0  0  0
  -21.7596  -16.8206   24.0250 N   0  3  0  0  0  0  0  0  0  0  0  0
  -31.6132  -21.0569   16.1552 O   0  0  0  0  0  0  0  0  0  0  0  0
  -21.0227  -27.7142   24.0498 O   0  0  0  0  0  0  0  0  0  0  0  0
  -18.0666  -30.5559   23.5227 O   0  0  0  0  0  0  0  0  0  0  0  0
  -14.8132  -27.4492   25.0342 O   0  0  0  0  0  0  0  0  0  0  0  0
  -30.7060  -15.2621   20.3942 O   0  0  0  0  0  0  0  0  0  0  0  0
  -28.9656  -27.1926   20.1463 O   0  0  0  0  0  0  0  0  0  0  0  0
  -18.6518  -22.1022   23.2946 O   0  0  0  0  0  0  0  0  0  1  0  0
  -33.4967  -30.3235   19.8810 F   0  0  0  0  0  0  0  0  0  0  0  0
  -29.8350  -28.6190   22.3491 F   0  0  0  0  0  0  0  0  0  0  0  0
  1  2  1  0  0  0  0
  1  5  2  0  0  0  0
  2  6  2  0  0  0  0
  3  8  2  0  0  0  0
  3 16  1  0  0  0  0
  4  9  1  0  0  0  0
  4 16  2  0  0  0  0
  5 18  1  0  0  0  0
  6 20  1  0  0  0  0
  7 10  2  0  0  0  0
  7 19  1  0  0  0  0
  8 22  1  0  0  0  0
  9 22  2  0  0  0  0
 10 23  1  0  0  0  0
 11 12  2  0  0  0  0
 11 24  1  0  0  0  0
 12 25  1  0  0  0  0
 13 21  1  0  0  0  0
 13 23  2  0  0  0  0
 14 25  2  0  0  0  0
 14 26  1  0  0  0  0
 15 28  1  0  0  0  0
 15 70  2  0  0  0  0
 16 27  1  0  0  0  0
 17 27  1  0  0  0  0
 17 31  2  0  0  0  0
 17 32  1  0  0  0  0
 18 20  2  0  0  0  0
 18 37  1  0  0  0  0
 19 21  2  0  0  0  0
 19 38  1  0  0  0  0
 20 46  1  0  0  0  0
 21 39  1  0  0  0  0
 22 88  1  0  0  0  0
 23 89  1  0  0  0  0
 24 26  2  0  0  0  0
 24 88  1  0  0  0  0
 25 90  1  0  0  0  0
 26 91  1  0  0  0  0
 27 71  2  0  0  0  0
 28 56  1  0  0  0  0
 28 72  2  0  0  0  0
 29 30  2  0  0  0  0
 29 57  1  0  0  0  0
 29 72  1  0  0  0  0
 30 58  1  0  0  0  0
 30 70  1  0  0  0  0
 31 73  1  0  0  0  0
 31 76  1  0  0  0  0
 32 77  1  0  0  0  0
 32 83  2  0  0  0  0
 33 47  1  0  0  0  0
 33 78  1  0  0  0  0
 33 84  2  0  0  0  0
 34 67  1  0  0  0  0
 34 74  1  0  0  0  0
 34 85  2  0  0  0  0
 35 68  1  0  0  0  0
 35 79  1  0  0  0  0
 35 86  2  0  0  0  0
 36 75  1  0  0  0  0
 36 80  1  0  0  0  0
 36 87  2  0  0  0  0
 37 40  1  0  0  0  0
 38 47  1  0  0  0  0
 39 74  1  0  0  0  0
 40 42  1  0  0  0  0
 41 43  1  0  0  0  0
 41 44  1  0  0  0  0
 42 46  1  0  0  0  0
 43 48  1  0  0  0  0
 44 75  1  0  0  0  0
 45 48  1  0  0  0  0
 45 75  1  0  0  0  0
 46 78  1  0  0  0  0
 47 74  1  0  0  0  0
 48 73  1  0  0  0  0
 49 57  1  0  0  0  0
 50 63  1  0  0  0  0
 51 68  1  0  0  0  0
 52 69  1  0  0  0  0
 53 69  1  0  0  0  0
 54 69  1  0  0  0  0
 55 81  1  0  0  0  0
 56 59  1  0  0  0  0
 58 80  1  0  0  0  0
 59 60  1  0  0  0  0
 60 64  1  0  0  0  0
 61 62  1  0  0  0  0
 61 65  1  0  0  0  0
 62 66  1  0  0  0  0
 63 80  1  0  0  0  0
 64 82  1  0  0  0  0
 65 82  1  0  0  0  0
 66 89  1  0  0  0  0
 67 69  1  0  0  0  0
 67 79  1  0  0  0  0
 68 81  1  0  0  0  0
 71 73  1  0  0  0  0
M  CHG  2  81   1  82   1
M  ISO  4  36 100  66 101  80 100  89 101
M  END
> <Batch ID>
0051

> <Smiles>
CCc1nc(CCCCNCCC[101CH2:1][101O:1]c2ccc3c(c2)CN(C(=O)C(NC(=O)C(C)NC)C(C)(C)C)C(C(=O)NC2CCCc4ccccc42)C3)cnc1C[100N:0](CC)[100C:0](=O)N1CCCC(n2nc(-c3ccc(Oc4ccc(F)cc4F)cc3)c(C(N)=O)c2N)C1

> <Shape>
0.231

> <Color>
0.069

> <Negative vol penalty>
0.000

$$$$

  -OEChem-04052317333D

 85 93  0     1  0  0  0  0  0999 V2000
  -24.8266  -29.3628   24.5740 C   0  0  0  0  0  0  0  0  0  0  0  0
  -25.6168  -28.2977   24.1539 C   0  0  0  0  0  0  0  0  0  0  0  0
  -22.9836  -10.1157   19.9054 C   0  0  0  0  0  0  0  0  0  0  0  0
  -23.8418   -9.8806   22.1516 C   0  0  0  0  0  0  0  0  0  0  0  0
  -24.1617  -30.1492   23.6342 C   0  0  0  0  0  0  0  0  0  0  0  0
  -25.7416  -28.0177   22.7936 C   0  0  0  0  0  0  0  0  0  0  0  0
  -30.7027  -25.8676   19.9177 C   0  0  0  0  0  0  0  0  0  0  0  0
  -22.1891   -8.9843   20.0906 C   0  0  0  0  0  0  0  0  0  0  0  0
  -23.0473   -8.7492   22.3368 C   0  0  0  0  0  0  0  0  0  0  0  0
  -31.0692  -24.5854   19.5110 C   0  0  0  0  0  0  0  0  0  0  0  0
  -19.8095   -8.0666   23.0231 C   0  0  0  0  0  0  0  0  0  0  0  0
  -19.1032   -7.9616   24.2213 C   0  0  0  0  0  0  0  0  0  0  0  0
  -33.0281  -19.5378   15.8616 C   0  0  0  0  0  0  0  0  0  0  0  0
  -32.6737  -20.8572   16.0814 C   0  0  0  0  0  0  0  0  0  0  0  0
  -30.2133  -25.0475   17.3035 C   0  0  0  0  0  0  0  0  0  0  0  0
  -20.2671   -5.9058   24.7273 C   0  0  0  0  0  0  0  0  0  0  0  0
  -23.8100  -10.5638   20.9359 C   0  0  0  0  0  0  0  0  0  0  0  0
  -24.2846  -13.0690   21.0177 C   0  0  0  0  0  0  0  0  0  0  0  0
  -24.2862  -29.8847   22.2612 C   0  0  0  0  0  0  0  0  0  0  0  0
  -30.0779  -26.7471   19.0218 C   0  0  0  0  0  0  0  0  0  0  0  0
  -25.0767  -28.8005   21.8346 C   0  0  0  0  0  0  0  0  0  0  0  0
  -29.8422  -26.3412   17.7005 C   0  0  0  0  0  0  0  0  0  0  0  0
  -22.2209   -8.3011   21.3062 C   0  0  0  0  0  0  0  0  0  0  0  0
  -30.8219  -24.1742   18.2045 C   0  0  0  0  0  0  0  0  0  0  0  0
  -20.7446   -7.0911   22.6769 C   0  0  0  0  0  0  0  0  0  0  0  0
  -19.3320   -6.8813   25.0734 C   0  0  0  0  0  0  0  0  0  0  0  0
  -20.9734   -6.0108   23.5290 C   0  0  0  0  0  0  0  0  0  0  0  0
  -24.6314  -11.7321   20.7450 C   0  0  0  0  0  0  0  0  0  0  0  0
  -32.0173  -18.6003   15.7916 C   0  0  0  0  0  0  0  0  0  0  0  0
  -31.3318  -21.1519   16.2164 C   0  0  0  0  0  0  0  0  0  0  0  0
  -25.3994  -13.7911   20.6682 C   0  0  0  0  0  0  0  0  0  0  0  0
  -23.0638  -13.6096   21.5403 C   0  0  0  0  0  0  0  0  0  0  0  0
  -27.2554  -28.2048   18.9103 C   0  0  0  0  0  0  0  0  0  0  0  0
  -28.5491  -29.6649   16.3186 C   0  0  0  0  0  0  0  0  0  0  0  0
  -30.8442  -29.5868   13.7941 C   0  0  0  0  0  0  0  0  0  0  0  0
  -30.7106  -14.6579   20.6404 C   0  0  0  0  0  0  0  0  0  0  0  0
  -23.5105  -30.7334   21.2851 C   0  0  0  0  0  0  0  0  0  0  0  0
  -29.7130  -28.1362   19.4686 C   0  0  0  0  0  0  0  0  0  0  0  0
  -29.1926  -27.2544   16.6943 C   0  0  0  0  0  0  0  0  0  0  0  0
  -23.9949  -30.6006   19.8436 C   0  0  0  0  0  0  0  0  0  0  0  0
  -29.5597  -12.4343   18.1498 C   0  0  0  0  0  0  0  0  0  0  0  0
  -24.1897  -29.1323   19.4790 C   0  0  0  0  0  0  0  0  0  0  0  0
  -28.1374  -12.1509   18.6310 C   0  0  0  0  0  0  0  0  0  0  0  0
  -30.5556  -12.5027   19.3091 C   0  0  0  0  0  0  0  0  0  0  0  0
  -28.7442  -13.1685   20.8577 C   0  0  0  0  0  0  0  0  0  0  0  0
  -25.2568  -28.4804   20.3665 C   0  0  1  0  0  0  0  0  0  0  0  0
  -28.6167  -28.7691   18.6170 C   0  0  1  0  0  0  0  0  0  0  0  0
  -27.7141  -13.1543   19.7178 C   0  0  2  0  0  0  0  0  0  0  0  0
  -31.6368  -30.9045   11.8109 C   0  0  0  0  0  0  0  0  0  0  0  0
  -26.0968  -28.7636   14.7427 C   0  0  0  0  0  0  0  0  0  0  0  0
  -27.3570  -29.2539   12.6356 C   0  0  0  0  0  0  0  0  0  0  0  0
  -26.8582  -31.0932   14.2452 C   0  0  0  0  0  0  0  0  0  0  0  0
  -33.0108  -13.6061   20.5534 C   0  0  0  0  0  0  0  0  0  0  0  0
  -33.5615  -29.8809   14.9293 C   0  0  0  0  0  0  0  0  0  0  0  0
  -33.9848  -15.3778   16.1218 C   0  0  0  0  0  0  0  0  0  0  0  0
  -32.3452  -17.1654   15.5587 C   0  0  0  0  0  0  0  0  0  0  0  0
  -30.8948  -22.5677   16.4524 C   0  0  0  0  0  0  0  0  0  1  0  0
  -33.4289  -16.3066   19.0566 C   0  0  0  0  0  0  0  0  0  0  0  0
  -32.7287  -16.0512   20.3869 C   0  0  0  0  0  0  0  0  0  0  0  0
  -32.4627  -16.2702   17.8794 C   0  0  0  0  0  0  0  0  0  0  0  0
  -28.6056  -29.3655   14.8401 C   0  0  1  0  0  0  0  0  0  0  0  0
  -31.8279  -30.6295   13.2944 C   0  0  2  0  0  0  0  0  0  0  0  0
  -27.2399  -29.6010   14.1352 C   0  0  0  0  0  0  0  0  0  0  0  0
  -25.8697  -11.6094   20.2596 N   0  0  0  0  0  0  0  0  0  0  0  0
  -30.7122  -18.9171   15.9274 N   0  0  0  0  0  0  0  0  0  0  0  0
  -30.3638  -20.2140   16.1430 N   0  0  0  0  0  0  0  0  0  0  0  0
  -26.3106  -12.8785   20.2244 N   0  0  0  0  0  0  0  0  0  0  0  0
  -28.8484  -28.6007   17.1810 N   0  0  0  0  0  0  0  0  0  0  0  0
  -30.0903  -13.4351   20.3449 N   0  0  0  0  0  0  0  0  0  0  0  0
  -25.6793  -15.1113   20.7002 N   0  0  0  0  0  0  0  0  0  0  0  0
  -22.0191  -12.7269   21.8463 N   0  0  0  0  0  0  0  0  0  0  0  0
  -26.5819  -28.8586   19.9244 N   0  0  0  0  0  0  0  0  0  0  0  0
  -29.7010  -30.1657   14.3031 N   0  0  0  0  0  0  0  0  0  0  0  0
  -32.0964  -14.7405   20.4381 N   0  0  0  0  0  0  0  0  0  0  0  0
  -33.2278  -30.1663   13.5100 N   0  3  0  0  0  0  0  0  0  0  0  0
  -33.2188  -16.5789   16.6130 N   0  3  1  0  0  0  0  0  0  0  0  0
  -22.8983  -14.8408   21.7148 O   0  0  0  0  0  0  0  0  0  0  0  0
  -26.8457  -27.2481   18.2634 O   0  0  0  0  0  0  0  0  0  0  0  0
  -28.2574  -30.8030   16.6945 O   0  0  0  0  0  0  0  0  0  0  0  0
  -31.0661  -28.3794   13.7351 O   0  0  0  0  0  0  0  0  0  0  0  0
  -30.0638  -15.6221   21.0696 O   0  0  0  0  0  0  0  0  0  0  0  0
  -21.4455   -7.1972   21.4874 O   0  0  0  0  0  0  0  0  0  0  0  0
  -31.1780  -22.9229   17.8052 O   0  0  0  0  0  0  0  0  0  1  0  0
  -18.6548   -6.7814   26.2248 F   0  0  0  0  0  0  0  0  0  0  0  0
  -21.8713   -5.0712   23.2024 F   0  0  0  0  0  0  0  0  0  0  0  0
  1  2  1  0  0  0  0
  1  5  2  0  0  0  0
  2  6  2  0  0  0  0
  3  8  2  0  0  0  0
  3 17  1  0  0  0  0
  4  9  1  0  0  0  0
  4 17  2  0  0  0  0
  5 19  1  0  0  0  0
  6 21  1  0  0  0  0
  7 10  2  0  0  0  0
  7 20  1  0  0  0  0
  8 23  1  0  0  0  0
  9 23  2  0  0  0  0
 10 24  1  0  0  0  0
 11 12  2  0  0  0  0
 11 25  1  0  0  0  0
 12 26  1  0  0  0  0
 13 14  2  0  0  0  0
 13 29  1  0  0  0  0
 14 30  1  0  0  0  0
 15 22  1  0  0  0  0
 15 24  2  0  0  0  0
 16 26  2  0  0  0  0
 16 27  1  0  0  0  0
 17 28  1  0  0  0  0
 18 28  1  0  0  0  0
 18 31  2  0  0  0  0
 18 32  1  0  0  0  0
 19 21  2  0  0  0  0
 19 37  1  0  0  0  0
 20 22  2  0  0  0  0
 20 38  1  0  0  0  0
 21 46  1  0  0  0  0
 22 39  1  0  0  0  0
 23 82  1  0  0  0  0
 24 83  1  0  0  0  0
 25 27  2  0  0  0  0
 25 82  1  0  0  0  0
 26 84  1  0  0  0  0
 27 85  1  0  0  0  0
 28 64  2  0  0  0  0
 29 56  1  0  0  0  0
 29 65  2  0  0  0  0
 30 57  1  0  0  0  0
 30 66  2  0  0  0  0
 31 67  1  0  0  0  0
 31 70  1  0  0  0  0
 32 71  1  0  0  0  0
 32 77  2  0  0  0  0
 33 47  1  0  0  0  0
 33 72  1  0  0  0  0
 33 78  2  0  0  0  0
 34 61  1  0  0  0  0
 34 68  1  0  0  0  0
 34 79  2  0  0  0  0
 35 62  1  0  0  0  0
 35 73  1  0  0  0  0
 35 80  2  0  0  0  0
 36 69  1  0  0  0  0
 36 74  1  0  0  0  0
 36 81  2  0  0  0  0
 37 40  1  0  0  0  0
 38 47  1  0  0  0  0
 39 68  1  0  0  0  0
 40 42  1  0  0  0  0
 41 43  1  0  0  0  0
 41 44  1  0  0  0  0
 42 46  1  0  0  0  0
 43 48  1  0  0  0  0
 44 69  1  0  0  0  0
 45 48  1  0  0  0  0
 45 69  1  0  0  0  0
 46 72  1  0  0  0  0
 47 68  1  0  0  0  0
 48 67  1  0  0  0  0
 49 62  1  0  0  0  0
 50 63  1  0  0  0  0
 51 63  1  0  0  0  0
 52 63  1  0  0  0  0
 53 74  1  0  0  0  0
 54 75  1  0  0  0  0
 55 76  1  0  0  0  0
 56 76  1  0  0  0  0
 57 83  1  0  0  0  0
 58 59  1  0  0  0  0
 58 60  1  0  0  0  0
 59 74  1  0  0  0  0
 60 76  1  0  0  0  0
 61 63  1  0  0  0  0
 61 73  1  0  0  0  0
 62 75  1  0  0  0  0
 64 67  1  0  0  0  0
 65 66  1  0  0  0  0
M  CHG  2  75   1  76   1
M  ISO  4  36 100  57 101  74 100  83 101
M  END
> <Batch ID>
0051

> <Smiles>
CNC(C)C(=O)NC(C(=O)N1Cc2cc([101O:1][101CH2:1]c3ccc(CN(C)CCC[100N:0](C)[100C:0](=O)N4CCCC(n5nc(-c6ccc(Oc7ccc(F)cc7F)cc6)c(C(N)=O)c5N)C4)nn3)ccc2CC1C(=O)NC1CCCc2ccccc21)C(C)(C)C

> <Shape>
0.260

> <Color>
0.168

> <Negative vol penalty>
0.000

$$$$

  -OEChem-04052317333D

 85 93  0     1  0  0  0  0  0999 V2000
  -28.4591  -35.9640   25.6050 C   0  0  0  0  0  0  0  0  0  0  0  0
  -28.9815  -35.1854   24.5772 C   0  0  0  0  0  0  0  0  0  0  0  0
  -23.5208  -10.4624   22.1799 C   0  0  0  0  0  0  0  0  0  0  0  0
  -24.8123   -9.0211   20.7337 C   0  0  0  0  0  0  0  0  0  0  0  0
  -27.5251  -35.4190   26.4850 C   0  0  0  0  0  0  0  0  0  0  0  0
  -28.5710  -33.8610   24.4296 C   0  0  0  0  0  0  0  0  0  0  0  0
  -27.3866  -28.9123   19.3874 C   0  0  0  0  0  0  0  0  0  0  0  0
  -22.4232   -9.6119   22.0474 C   0  0  0  0  0  0  0  0  0  0  0  0
  -23.7148   -8.1705   20.6012 C   0  0  0  0  0  0  0  0  0  0  0  0
  -27.7303  -27.6004   19.0640 C   0  0  0  0  0  0  0  0  0  0  0  0
  -21.3653   -5.4294   20.1715 C   0  0  0  0  0  0  0  0  0  0  0  0
  -21.5904   -4.0572   20.2804 C   0  0  0  0  0  0  0  0  0  0  0  0
  -26.0521  -26.7895   20.5954 C   0  0  0  0  0  0  0  0  0  0  0  0
  -22.4332   -4.3734   22.5225 C   0  0  0  0  0  0  0  0  0  0  0  0
  -28.0187  -22.0332   20.2642 C   0  0  0  0  0  0  0  0  0  0  0  0
  -24.7154  -10.1670   21.5230 C   0  0  0  0  0  0  0  0  0  0  0  0
  -26.8646  -10.9786   22.6320 C   0  0  0  0  0  0  0  0  0  0  0  0
  -27.0957  -34.0902   26.3423 C   0  0  0  0  0  0  0  0  0  0  0  0
  -26.3787  -29.1730   20.3269 C   0  0  0  0  0  0  0  0  0  0  0  0
  -27.6313  -33.2974   25.3094 C   0  0  0  0  0  0  0  0  0  0  0  0
  -25.6957  -28.1056   20.9270 C   0  0  0  0  0  0  0  0  0  0  0  0
  -27.2065  -22.8897   19.5620 C   0  0  0  0  0  0  0  0  0  0  0  0
  -22.5202   -8.4660   21.2580 C   0  0  0  0  0  0  0  0  0  0  0  0
  -27.0651  -26.5388   19.6701 C   0  0  0  0  0  0  0  0  0  0  0  0
  -21.6742   -6.2737   21.2381 C   0  0  0  0  0  0  0  0  0  0  0  0
  -22.1243   -3.5291   21.4559 C   0  0  0  0  0  0  0  0  0  0  0  0
  -22.2081   -5.7456   22.4136 C   0  0  0  0  0  0  0  0  0  0  0  0
  -25.8493  -11.0455   21.6591 C   0  0  0  0  0  0  0  0  0  0  0  0
  -26.9894  -22.2400   18.3321 C   0  0  0  0  0  0  0  0  0  0  0  0
  -27.6988  -12.0273   22.3304 C   0  0  0  0  0  0  0  0  0  0  0  0
  -27.0381  -10.0514   23.7118 C   0  0  0  0  0  0  0  0  0  0  0  0
  -26.2670  -30.6259   23.1518 C   0  0  0  0  0  0  0  0  0  0  0  0
  -23.0764  -30.1278   22.8450 C   0  0  0  0  0  0  0  0  0  0  0  0
  -20.5492  -28.3104   21.4460 C   0  0  0  0  0  0  0  0  0  0  0  0
  -30.5227  -15.0414   18.8806 C   0  0  0  0  0  0  0  0  0  0  0  0
  -26.1195  -33.5308   27.3467 C   0  0  0  0  0  0  0  0  0  0  0  0
  -26.0014  -30.5939   20.6449 C   0  0  0  0  0  0  0  0  0  0  0  0
  -24.5923  -28.3321   21.9270 C   0  0  0  0  0  0  0  0  0  0  0  0
  -25.4565  -32.2325   26.8940 C   0  0  0  0  0  0  0  0  0  0  0  0
  -27.1110  -15.9103   19.1575 C   0  0  0  0  0  0  0  0  0  0  0  0
  -26.4973  -31.2692   26.3323 C   0  0  0  0  0  0  0  0  0  0  0  0
  -26.5517  -14.7042   19.9107 C   0  0  0  0  0  0  0  0  0  0  0  0
  -28.1489  -15.5029   18.1101 C   0  0  0  0  0  0  0  0  0  0  0  0
  -28.6876  -13.4627   19.4025 C   0  0  0  0  0  0  0  0  0  0  0  0
  -27.1923  -31.8641   25.1016 C   0  0  1  0  0  0  0  0  0  0  0  0
  -25.3116  -30.7404   21.9978 C   0  0  1  0  0  0  0  0  0  0  0  0
  -27.6866  -13.8501   20.5019 C   0  0  2  0  0  0  0  0  0  0  0  0
  -26.1856  -22.7118   17.1910 C   0  0  0  0  0  0  0  0  0  0  0  0
  -18.0476  -28.1144   21.4142 C   0  0  0  0  0  0  0  0  0  0  0  0
  -23.1489  -28.7870   25.5849 C   0  0  0  0  0  0  0  0  0  0  0  0
  -20.9050  -27.7968   25.0824 C   0  0  0  0  0  0  0  0  0  0  0  0
  -21.1746  -30.2738   25.2030 C   0  0  0  0  0  0  0  0  0  0  0  0
  -30.6179  -16.0486   16.5609 C   0  0  0  0  0  0  0  0  0  0  0  0
  -20.4260  -28.8740   18.5433 C   0  0  0  0  0  0  0  0  0  0  0  0
  -31.7690  -18.5697   20.7275 C   0  0  0  0  0  0  0  0  0  0  0  0
  -26.6765  -24.2181   20.0157 C   0  0  0  0  0  0  0  0  0  1  0  0
  -29.0272  -19.7988   19.7450 C   0  0  0  0  0  0  0  0  0  0  0  0
  -32.2875  -16.6524   18.2737 C   0  0  0  0  0  0  0  0  0  0  0  0
  -30.3855  -19.7915   19.0561 C   0  0  0  0  0  0  0  0  0  0  0  0
  -32.1041  -18.1584   18.2943 C   0  0  0  0  0  0  0  0  0  0  0  0
  -22.1261  -29.0182   23.2255 C   0  0  1  0  0  0  0  0  0  0  0  0
  -19.2677  -28.7352   20.7518 C   0  0  2  0  0  0  0  0  0  0  0  0
  -21.8607  -28.9643   24.7566 C   0  0  0  0  0  0  0  0  0  0  0  0
  -26.0209  -12.0568   20.8035 N   0  0  0  0  0  0  0  0  0  0  0  0
  -27.6136  -21.0617   18.2543 N   0  0  0  0  0  0  0  0  0  0  0  0
  -28.2309  -20.9643   19.4440 N   0  0  0  0  0  0  0  0  0  0  0  0
  -27.1535  -12.6351   21.2380 N   0  0  0  0  0  0  0  0  0  0  0  0
  -24.2643  -29.7392   22.2096 N   0  0  0  0  0  0  0  0  0  0  0  0
  -29.1870  -14.6505   18.7056 N   0  0  0  0  0  0  0  0  0  0  0  0
  -28.8381  -12.4796   22.8959 N   0  0  0  0  0  0  0  0  0  0  0  0
  -26.0883   -9.0344   23.8783 N   0  0  0  0  0  0  0  0  0  0  0  0
  -26.3373  -31.7597   23.9386 N   0  0  0  0  0  0  0  0  0  0  0  0
  -20.9269  -29.2128   22.4177 N   0  0  0  0  0  0  0  0  0  0  0  0
  -31.0526  -15.9507   17.9529 N   0  0  0  0  0  0  0  0  0  0  0  0
  -19.2901  -28.3166   19.3217 N   0  3  0  0  0  0  0  0  0  0  0  0
  -31.1139  -18.5375   19.3684 N   0  3  1  0  0  0  0  0  0  0  0  0
  -27.9980  -10.1326   24.5153 O   0  0  0  0  0  0  0  0  0  0  0  0
  -26.8928  -29.5854   23.3172 O   0  0  0  0  0  0  0  0  0  0  0  0
  -22.7725  -31.2968   23.0956 O   0  0  0  0  0  0  0  0  0  0  0  0
  -21.1525  -27.2791   21.1579 O   0  0  0  0  0  0  0  0  0  0  0  0
  -31.2084  -14.5966   19.8102 O   0  0  0  0  0  0  0  0  0  0  0  0
  -21.4495   -7.6357   21.1287 O   0  0  0  0  0  0  0  0  0  0  0  0
  -27.3991  -25.2573   19.3568 O   0  0  0  0  0  0  0  0  0  1  0  0
  -22.3390   -2.2112   21.5609 F   0  0  0  0  0  0  0  0  0  0  0  0
  -22.5057   -6.5516   23.4420 F   0  0  0  0  0  0  0  0  0  0  0  0
  1  2  1  0  0  0  0
  1  5  2  0  0  0  0
  2  6  2  0  0  0  0
  3  8  2  0  0  0  0
  3 16  1  0  0  0  0
  4  9  1  0  0  0  0
  4 16  2  0  0  0  0
  5 18  1  0  0  0  0
  6 20  1  0  0  0  0
  7 10  2  0  0  0  0
  7 19  1  0  0  0  0
  8 23  1  0  0  0  0
  9 23  2  0  0  0  0
 10 24  1  0  0  0  0
 11 12  2  0  0  0  0
 11 25  1  0  0  0  0
 12 26  1  0  0  0  0
 13 21  1  0  0  0  0
 13 24  2  0  0  0  0
 14 26  2  0  0  0  0
 14 27  1  0  0  0  0
 15 22  2  0  0  0  0
 15 66  1  0  0  0  0
 16 28  1  0  0  0  0
 17 28  1  0  0  0  0
 17 30  2  0  0  0  0
 17 31  1  0  0  0  0
 18 20  2  0  0  0  0
 18 36  1  0  0  0  0
 19 21  2  0  0  0  0
 19 37  1  0  0  0  0
 20 45  1  0  0  0  0
 21 38  1  0  0  0  0
 22 29  1  0  0  0  0
 22 56  1  0  0  0  0
 23 82  1  0  0  0  0
 24 83  1  0  0  0  0
 25 27  2  0  0  0  0
 25 82  1  0  0  0  0
 26 84  1  0  0  0  0
 27 85  1  0  0  0  0
 28 64  2  0  0  0  0
 29 48  1  0  0  0  0
 29 65  2  0  0  0  0
 30 67  1  0  0  0  0
 30 70  1  0  0  0  0
 31 71  1  0  0  0  0
 31 77  2  0  0  0  0
 32 46  1  0  0  0  0
 32 72  1  0  0  0  0
 32 78  2  0  0  0  0
 33 61  1  0  0  0  0
 33 68  1  0  0  0  0
 33 79  2  0  0  0  0
 34 62  1  0  0  0  0
 34 73  1  0  0  0  0
 34 80  2  0  0  0  0
 35 69  1  0  0  0  0
 35 74  1  0  0  0  0
 35 81  2  0  0  0  0
 36 39  1  0  0  0  0
 37 46  1  0  0  0  0
 38 68  1  0  0  0  0
 39 41  1  0  0  0  0
 40 42  1  0  0  0  0
 40 43  1  0  0  0  0
 41 45  1  0  0  0  0
 42 47  1  0  0  0  0
 43 69  1  0  0  0  0
 44 47  1  0  0  0  0
 44 69  1  0  0  0  0
 45 72  1  0  0  0  0
 46 68  1  0  0  0  0
 47 67  1  0  0  0  0
 49 62  1  0  0  0  0
 50 63  1  0  0  0  0
 51 63  1  0  0  0  0
 52 63  1  0  0  0  0
 53 74  1  0  0  0  0
 54 75  1  0  0  0  0
 55 76  1  0  0  0  0
 56 83  1  0  0  0  0
 57 59  1  0  0  0  0
 57 66  1  0  0  0  0
 58 60  1  0  0  0  0
 58 74  1  0  0  0  0
 59 76  1  0  0  0  0
 60 76  1  0  0  0  0
 61 63  1  0  0  0  0
 61 73  1  0  0  0  0
 62 75  1  0  0  0  0
 64 67  1  0  0  0  0
 65 66  1  0  0  0  0
M  CHG  2  75   1  76   1
M  ISO  4  35 100  56 101  74 100  83 101
M  END
> <Batch ID>
0051

> <Smiles>
CNC(C)C(=O)NC(C(=O)N1Cc2cc([101O:1][101CH2:1]c3cn(CCN(C)CC[100N:0](C)[100C:0](=O)N4CCCC(n5nc(-c6ccc(Oc7ccc(F)cc7F)cc6)c(C(N)=O)c5N)C4)nc3C)ccc2CC1C(=O)NC1CCCc2ccccc21)C(C)(C)C

> <Shape>
0.286

> <Color>
0.092

> <Negative vol penalty>
0.000

$$$$

  -OEChem-04052317333D

 84 92  0     1  0  0  0  0  0999 V2000
  -27.4454  -36.5712   22.5822 C   0  0  0  0  0  0  0  0  0  0  0  0
  -28.2646  -35.5995   22.0163 C   0  0  0  0  0  0  0  0  0  0  0  0
  -22.9567  -15.8306   20.9611 C   0  0  0  0  0  0  0  0  0  0  0  0
  -24.4032  -16.4521   22.7937 C   0  0  0  0  0  0  0  0  0  0  0  0
  -26.3385  -36.1926   23.3408 C   0  0  0  0  0  0  0  0  0  0  0  0
  -27.9779  -34.2486   22.2095 C   0  0  0  0  0  0  0  0  0  0  0  0
  -28.4511  -27.9123   18.9014 C   0  0  0  0  0  0  0  0  0  0  0  0
  -21.8488  -15.9268   21.8029 C   0  0  0  0  0  0  0  0  0  0  0  0
  -23.2952  -16.5484   23.6356 C   0  0  0  0  0  0  0  0  0  0  0  0
  -28.9365  -26.6221   19.1098 C   0  0  0  0  0  0  0  0  0  0  0  0
  -18.6764  -15.6590   23.5603 C   0  0  0  0  0  0  0  0  0  0  0  0
  -17.7269  -14.6388   23.5042 C   0  0  0  0  0  0  0  0  0  0  0  0
  -26.9524  -26.0861   20.3729 C   0  0  0  0  0  0  0  0  0  0  0  0
  -19.4158  -13.0321   24.1396 C   0  0  0  0  0  0  0  0  0  0  0  0
  -29.1436  -21.8786   22.1442 C   0  0  0  0  0  0  0  0  0  0  0  0
  -24.2340  -16.0932   21.4565 C   0  0  0  0  0  0  0  0  0  0  0  0
  -25.9392  -17.0160   19.7988 C   0  0  0  0  0  0  0  0  0  0  0  0
  -26.0326  -34.8364   23.5354 C   0  0  0  0  0  0  0  0  0  0  0  0
  -27.2155  -28.3031   19.4373 C   0  0  0  0  0  0  0  0  0  0  0  0
  -26.8666  -33.8516   22.9725 C   0  0  0  0  0  0  0  0  0  0  0  0
  -26.4523  -27.3811   20.1677 C   0  0  0  0  0  0  0  0  0  0  0  0
  -28.5422  -22.2470   20.9580 C   0  0  0  0  0  0  0  0  0  0  0  0
  -22.0179  -16.2857   23.1402 C   0  0  0  0  0  0  0  0  0  0  0  0
  -28.1885  -25.7096   19.8481 C   0  0  0  0  0  0  0  0  0  0  0  0
  -19.9957  -15.3658   23.9059 C   0  0  0  0  0  0  0  0  0  0  0  0
  -18.0966  -13.3253   23.7940 C   0  0  0  0  0  0  0  0  0  0  0  0
  -20.3653  -14.0524   24.1956 C   0  0  0  0  0  0  0  0  0  0  0  0
  -25.3790  -15.9934   20.5876 C   0  0  0  0  0  0  0  0  0  0  0  0
  -28.6330  -21.3285   19.9322 C   0  0  0  0  0  0  0  0  0  0  0  0
  -27.0009  -16.4181   19.1648 C   0  0  0  0  0  0  0  0  0  0  0  0
  -29.8063  -19.8962   21.2508 C   0  0  0  0  0  0  0  0  0  0  0  0
  -25.5361  -18.3842   19.6523 C   0  0  0  0  0  0  0  0  0  0  0  0
  -26.2730  -30.5018   21.5305 C   0  0  0  0  0  0  0  0  0  0  0  0
  -23.3128  -29.5121   20.6475 C   0  0  0  0  0  0  0  0  0  0  0  0
  -21.3525  -27.0394   19.3475 C   0  0  0  0  0  0  0  0  0  0  0  0
  -31.5593  -13.0812   19.7993 C   0  0  0  0  0  0  0  0  0  0  0  0
  -24.8525  -34.4756   24.4025 C   0  0  0  0  0  0  0  0  0  0  0  0
  -26.6937  -29.6903   19.1809 C   0  0  0  0  0  0  0  0  0  0  0  0
  -25.1105  -27.7447   20.7471 C   0  0  0  0  0  0  0  0  0  0  0  0
  -24.4037  -33.0248   24.2474 C   0  0  0  0  0  0  0  0  0  0  0  0
  -28.3337  -11.5611   18.8063 C   0  0  0  0  0  0  0  0  0  0  0  0
  -25.6057  -32.0866   24.2918 C   0  0  0  0  0  0  0  0  0  0  0  0
  -27.3244  -12.6431   19.1869 C   0  0  0  0  0  0  0  0  0  0  0  0
  -29.5790  -11.6125   19.6862 C   0  0  0  0  0  0  0  0  0  0  0  0
  -29.2329  -14.0264   20.0949 C   0  0  0  0  0  0  0  0  0  0  0  0
  -26.5744  -32.3761   23.1389 C   0  0  1  0  0  0  0  0  0  0  0  0
  -25.6588  -30.1388   20.2081 C   0  0  1  0  0  0  0  0  0  0  0  0
  -27.9866  -14.0318   19.1970 C   0  0  2  0  0  0  0  0  0  0  0  0
  -28.0172  -21.6186   18.6028 C   0  0  0  0  0  0  0  0  0  0  0  0
  -18.9653  -26.5095   18.7837 C   0  0  0  0  0  0  0  0  0  0  0  0
  -22.7148  -29.0692   23.6066 C   0  0  0  0  0  0  0  0  0  0  0  0
  -20.7430  -27.6831   22.9291 C   0  0  0  0  0  0  0  0  0  0  0  0
  -20.8418  -30.0965   22.3062 C   0  0  0  0  0  0  0  0  0  0  0  0
  -33.5256  -14.5662   19.8880 C   0  0  0  0  0  0  0  0  0  0  0  0
  -21.9858  -26.6924   16.4774 C   0  0  0  0  0  0  0  0  0  0  0  0
  -27.8417  -23.5666   20.8192 C   0  0  0  0  0  0  0  0  0  1  0  0
  -31.2497  -16.5732   20.6192 C   0  0  0  0  0  0  0  0  0  0  0  0
  -31.3152  -15.5779   19.4687 C   0  0  0  0  0  0  0  0  0  0  0  0
  -30.4728  -17.8361   20.2673 C   0  0  0  0  0  0  0  0  0  0  0  0
  -22.3538  -28.4491   21.1264 C   0  0  1  0  0  0  0  0  0  0  0  0
  -20.2849  -27.0628   18.2686 C   0  0  2  0  0  0  0  0  0  0  0  0
  -21.6895  -28.8179   22.4829 C   0  0  0  0  0  0  0  0  0  0  0  0
  -29.7865  -20.7065   22.3262 N   0  0  0  0  0  0  0  0  0  0  0  0
  -26.0307  -14.8337   20.4672 N   0  0  0  0  0  0  0  0  0  0  0  0
  -29.2600  -20.1391   20.0441 N   0  0  0  0  0  0  0  0  0  0  0  0
  -27.0113  -15.1240   19.5953 N   0  0  0  0  0  0  0  0  0  0  0  0
  -24.6462  -29.1150   20.4744 N   0  0  0  0  0  0  0  0  0  0  0  0
  -30.1633  -12.9538   19.7121 N   0  0  0  0  0  0  0  0  0  0  0  0
  -27.9170  -16.8783   18.2866 N   0  0  0  0  0  0  0  0  0  0  0  0
  -24.4238  -18.8341   20.3766 N   0  0  0  0  0  0  0  0  0  0  0  0
  -26.0704  -31.8170   21.9028 N   0  0  0  0  0  0  0  0  0  0  0  0
  -21.4078  -28.2321   20.0372 N   0  0  0  0  0  0  0  0  0  0  0  0
  -32.0833  -14.3827   19.8104 N   0  0  0  0  0  0  0  0  0  0  0  0
  -20.7127  -26.2448   17.0986 N   0  3  0  0  0  0  0  0  0  0  0  0
  -26.1344  -19.1796   18.8889 O   0  0  0  0  0  0  0  0  0  0  0  0
  -26.8842  -29.6512   22.1666 O   0  0  0  0  0  0  0  0  0  0  0  0
  -22.8927  -30.6509   20.4280 O   0  0  0  0  0  0  0  0  0  0  0  0
  -22.0636  -26.0597   19.5598 O   0  0  0  0  0  0  0  0  0  0  0  0
  -32.2960  -12.0881   19.8541 O   0  0  0  0  0  0  0  0  0  0  0  0
  -20.9370  -16.3799   23.9618 O   0  0  0  0  0  0  0  0  0  0  0  0
  -28.6602  -24.4498   20.0535 O   0  0  0  0  0  0  0  0  0  1  0  0
  -30.4518  -18.6909   21.4013 O   0  0  0  0  0  0  0  0  0  0  0  0
  -17.1843  -12.3459   23.7416 F   0  0  0  0  0  0  0  0  0  0  0  0
  -21.6309  -13.7648   24.5294 F   0  0  0  0  0  0  0  0  0  0  0  0
  1  2  1  0  0  0  0
  1  5  2  0  0  0  0
  2  6  2  0  0  0  0
  3  8  2  0  0  0  0
  3 16  1  0  0  0  0
  4  9  1  0  0  0  0
  4 16  2  0  0  0  0
  5 18  1  0  0  0  0
  6 20  1  0  0  0  0
  7 10  2  0  0  0  0
  7 19  1  0  0  0  0
  8 23  1  0  0  0  0
  9 23  2  0  0  0  0
 10 24  1  0  0  0  0
 11 12  2  0  0  0  0
 11 25  1  0  0  0  0
 12 26  1  0  0  0  0
 13 21  1  0  0  0  0
 13 24  2  0  0  0  0
 14 26  2  0  0  0  0
 14 27  1  0  0  0  0
 15 22  1  0  0  0  0
 15 63  2  0  0  0  0
 16 28  1  0  0  0  0
 17 28  1  0  0  0  0
 17 30  2  0  0  0  0
 17 32  1  0  0  0  0
 18 20  2  0  0  0  0
 18 37  1  0  0  0  0
 19 21  2  0  0  0  0
 19 38  1  0  0  0  0
 20 46  1  0  0  0  0
 21 39  1  0  0  0  0
 22 29  2  0  0  0  0
 22 56  1  0  0  0  0
 23 80  1  0  0  0  0
 24 81  1  0  0  0  0
 25 27  2  0  0  0  0
 25 80  1  0  0  0  0
 26 83  1  0  0  0  0
 27 84  1  0  0  0  0
 28 64  2  0  0  0  0
 29 49  1  0  0  0  0
 29 65  1  0  0  0  0
 30 66  1  0  0  0  0
 30 69  1  0  0  0  0
 31 63  1  0  0  0  0
 31 65  2  0  0  0  0
 31 82  1  0  0  0  0
 32 70  1  0  0  0  0
 32 75  2  0  0  0  0
 33 47  1  0  0  0  0
 33 71  1  0  0  0  0
 33 76  2  0  0  0  0
 34 60  1  0  0  0  0
 34 67  1  0  0  0  0
 34 77  2  0  0  0  0
 35 61  1  0  0  0  0
 35 72  1  0  0  0  0
 35 78  2  0  0  0  0
 36 68  1  0  0  0  0
 36 73  1  0  0  0  0
 36 79  2  0  0  0  0
 37 40  1  0  0  0  0
 38 47  1  0  0  0  0
 39 67  1  0  0  0  0
 40 42  1  0  0  0  0
 41 43  1  0  0  0  0
 41 44  1  0  0  0  0
 42 46  1  0  0  0  0
 43 48  1  0  0  0  0
 44 68  1  0  0  0  0
 45 48  1  0  0  0  0
 45 68  1  0  0  0  0
 46 71  1  0  0  0  0
 47 67  1  0  0  0  0
 48 66  1  0  0  0  0
 50 61  1  0  0  0  0
 51 62  1  0  0  0  0
 52 62  1  0  0  0  0
 53 62  1  0  0  0  0
 54 73  1  0  0  0  0
 55 74  1  0  0  0  0
 56 81  1  0  0  0  0
 57 58  1  0  0  0  0
 57 59  1  0  0  0  0
 58 73  1  0  0  0  0
 59 82  1  0  0  0  0
 60 62  1  0  0  0  0
 60 72  1  0  0  0  0
 61 74  1  0  0  0  0
 64 66  1  0  0  0  0
M  CHG  1  74   1
M  ISO  4  36 100  56 101  73 100  81 101
M  END
> <Batch ID>
0051

> <Smiles>
CNC(C)C(=O)NC(C(=O)N1Cc2cc([101O:1][101CH2:1]c3cnc(OCCC[100N:0](C)[100C:0](=O)N4CCCC(n5nc(-c6ccc(Oc7ccc(F)cc7F)cc6)c(C(N)=O)c5N)C4)nc3C)ccc2CC1C(=O)NC1CCCc2ccccc21)C(C)(C)C

> <Shape>
0.275

> <Color>
0.063

> <Negative vol penalty>
0.000

$$$$

  -OEChem-04052317333D

 85 93  0     1  0  0  0  0  0999 V2000
  -22.6172  -11.8101   17.9946 C   0  0  0  0  0  0  0  0  0  0  0  0
  -22.5517  -13.1987   17.9407 C   0  0  0  0  0  0  0  0  0  0  0  0
  -28.5821  -27.6085   18.1631 C   0  0  0  0  0  0  0  0  0  0  0  0
  -27.5140  -26.0287   19.6465 C   0  0  0  0  0  0  0  0  0  0  0  0
  -23.4045  -11.1876   18.9624 C   0  0  0  0  0  0  0  0  0  0  0  0
  -23.2726  -13.9656   18.8554 C   0  0  0  0  0  0  0  0  0  0  0  0
  -26.7385  -20.2114   19.3981 C   0  0  0  0  0  0  0  0  0  0  0  0
  -29.7974  -26.9452   18.3316 C   0  0  0  0  0  0  0  0  0  0  0  0
  -28.7294  -25.3653   19.8150 C   0  0  0  0  0  0  0  0  0  0  0  0
  -26.7884  -21.3492   20.2023 C   0  0  0  0  0  0  0  0  0  0  0  0
  -31.4732  -23.0412   20.3520 C   0  0  0  0  0  0  0  0  0  0  0  0
  -31.4669  -21.6479   20.2866 C   0  0  0  0  0  0  0  0  0  0  0  0
  -28.1773  -20.1657   21.7801 C   0  0  0  0  0  0  0  0  0  0  0  0
  -30.6131  -21.7576   18.0292 C   0  0  0  0  0  0  0  0  0  0  0  0
  -27.4403  -27.1503   18.8205 C   0  0  0  0  0  0  0  0  0  0  0  0
  -25.2046  -27.5798   17.6696 C   0  0  0  0  0  0  0  0  0  0  0  0
  -24.1430  -11.9474   19.8832 C   0  0  0  0  0  0  0  0  0  0  0  0
  -27.3998  -19.0369   19.7849 C   0  0  0  0  0  0  0  0  0  0  0  0
  -24.0694  -13.3527   19.8372 C   0  0  0  0  0  0  0  0  0  0  0  0
  -28.1364  -19.0152   20.9778 C   0  0  0  0  0  0  0  0  0  0  0  0
  -29.8711  -25.8236   19.1575 C   0  0  0  0  0  0  0  0  0  0  0  0
  -27.5055  -21.3256   21.3949 C   0  0  0  0  0  0  0  0  0  0  0  0
  -31.0493  -23.7927   19.2559 C   0  0  0  0  0  0  0  0  0  0  0  0
  -31.0369  -21.0061   19.1253 C   0  0  0  0  0  0  0  0  0  0  0  0
  -30.6193  -23.1509   18.0946 C   0  0  0  0  0  0  0  0  0  0  0  0
  -26.1847  -27.8354   18.6473 C   0  0  0  0  0  0  0  0  0  0  0  0
  -22.4128  -26.2888   25.1363 C   0  0  0  0  0  0  0  0  0  0  0  0
  -23.7408  -26.5821   24.9339 C   0  0  0  0  0  0  0  0  0  0  0  0
  -24.2130  -28.4936   17.9303 C   0  0  0  0  0  0  0  0  0  0  0  0
  -22.5031  -28.4054   24.9304 C   0  0  0  0  0  0  0  0  0  0  0  0
  -25.1917  -26.6034   16.6197 C   0  0  0  0  0  0  0  0  0  0  0  0
  -26.4856  -16.0731   20.4808 C   0  0  0  0  0  0  0  0  0  0  0  0
  -29.6816  -15.5353   20.6157 C   0  0  0  0  0  0  0  0  0  0  0  0
  -32.8164  -16.8046   21.0725 C   0  0  0  0  0  0  0  0  0  0  0  0
  -23.0308  -31.4379   23.1717 C   0  0  0  0  0  0  0  0  0  0  0  0
  -24.9427  -11.2291   20.9412 C   0  0  0  0  0  0  0  0  0  0  0  0
  -27.3584  -17.8263   18.8931 C   0  0  0  0  0  0  0  0  0  0  0  0
  -28.8806  -17.7856   21.4281 C   0  0  0  0  0  0  0  0  0  0  0  0
  -25.9707  -12.1182   21.6361 C   0  0  0  0  0  0  0  0  0  0  0  0
  -23.5042  -32.8424   19.7798 C   0  0  0  0  0  0  0  0  0  0  0  0
  -25.3434  -13.4513   22.0311 C   0  0  0  0  0  0  0  0  0  0  0  0
  -24.2281  -31.7125   19.0495 C   0  0  0  0  0  0  0  0  0  0  0  0
  -23.7923  -32.8255   21.2780 C   0  0  0  0  0  0  0  0  0  0  0  0
  -24.2231  -30.3918   21.2027 C   0  0  0  0  0  0  0  0  0  0  0  0
  -24.8564  -14.2192   20.7963 C   0  0  1  0  0  0  0  0  0  0  0  0
  -27.6440  -16.5257   19.6376 C   0  0  1  0  0  0  0  0  0  0  0  0
  -23.9170  -30.3524   19.6979 C   0  0  2  0  0  0  0  0  0  0  0  0
  -21.7870  -24.9725   25.3389 C   0  0  0  0  0  0  0  0  0  0  0  0
  -19.8170  -30.5394   22.8856 C   0  0  0  0  0  0  0  0  0  0  0  0
  -35.3242  -16.8410   21.1578 C   0  0  0  0  0  0  0  0  0  0  0  0
  -29.2420  -14.3738   23.4028 C   0  0  0  0  0  0  0  0  0  0  0  0
  -31.7038  -14.5884   23.8046 C   0  0  0  0  0  0  0  0  0  0  0  0
  -30.8636  -13.1016   21.9863 C   0  0  0  0  0  0  0  0  0  0  0  0
  -24.9652  -28.7414   24.5761 C   0  0  0  0  0  0  0  0  0  0  0  0
  -33.0198  -17.4905   18.2007 C   0  0  0  0  0  0  0  0  0  0  0  0
  -24.9640  -25.7039   24.8535 C   0  0  0  0  0  0  0  0  0  0  0  0
  -22.1746  -29.8436   24.8464 C   0  0  0  0  0  0  0  0  0  0  0  0
  -25.0994  -24.9510   23.5254 C   0  0  0  0  0  0  0  0  0  0  0  0
  -26.3028  -24.0078   23.4919 C   0  0  0  0  0  0  0  0  0  0  0  0
  -21.1397  -29.8544   22.6071 C   0  0  0  0  0  0  0  0  0  0  0  0
  -26.4276  -23.3083   22.1452 C   0  0  0  0  0  0  0  0  0  1  0  0
  -30.7336  -15.6098   21.6959 C   0  0  1  0  0  0  0  0  0  0  0  0
  -34.0998  -16.6280   20.2812 C   0  0  2  0  0  0  0  0  0  0  0  0
  -30.6202  -14.4411   22.7151 C   0  0  0  0  0  0  0  0  0  0  0  0
  -25.8465  -28.8337   19.4677 N   0  0  0  0  0  0  0  0  0  0  0  0
  -21.6475  -27.4281   25.1326 N   0  0  0  0  0  0  0  0  0  0  0  0
  -23.7829  -27.9416   24.8033 N   0  0  0  0  0  0  0  0  0  0  0  0
  -24.6428  -29.2133   19.0062 N   0  0  0  0  0  0  0  0  0  0  0  0
  -28.8046  -16.6255   20.5249 N   0  0  0  0  0  0  0  0  0  0  0  0
  -23.5293  -31.5092   21.8605 N   0  0  0  0  0  0  0  0  0  0  0  0
  -23.0240  -28.7438   17.3419 N   0  0  0  0  0  0  0  0  0  0  0  0
  -26.2910  -25.7432   16.4938 N   0  0  0  0  0  0  0  0  0  0  0  0
  -25.9715  -14.8432   20.1169 N   0  0  0  0  0  0  0  0  0  0  0  0
  -32.0190  -15.6815   21.0096 N   0  0  0  0  0  0  0  0  0  0  0  0
  -22.1999  -30.3506   23.4818 N   0  0  0  0  0  0  0  0  0  0  0  0
  -34.1525  -17.6031   19.1553 N   0  3  0  0  0  0  0  0  0  0  0  0
  -24.2410  -26.5079   15.8069 O   0  0  0  0  0  0  0  0  0  0  0  0
  -26.0885  -16.7863   21.3948 O   0  0  0  0  0  0  0  0  0  0  0  0
  -29.6441  -14.5496   19.8751 O   0  0  0  0  0  0  0  0  0  0  0  0
  -32.5498  -17.8344   21.6881 O   0  0  0  0  0  0  0  0  0  0  0  0
  -23.3046  -32.3022   24.0143 O   0  0  0  0  0  0  0  0  0  0  0  0
  -31.0569  -25.1759   19.3221 O   0  0  0  0  0  0  0  0  0  0  0  0
  -27.5552  -22.4346   22.1820 O   0  0  0  0  0  0  0  0  0  1  0  0
  -31.0324  -19.6681   19.0621 F   0  0  0  0  0  0  0  0  0  0  0  0
  -30.2121  -23.8676   17.0379 F   0  0  0  0  0  0  0  0  0  0  0  0
  1  2  1  0  0  0  0
  1  5  2  0  0  0  0
  2  6  2  0  0  0  0
  3  8  2  0  0  0  0
  3 15  1  0  0  0  0
  4  9  1  0  0  0  0
  4 15  2  0  0  0  0
  5 17  1  0  0  0  0
  6 19  1  0  0  0  0
  7 10  2  0  0  0  0
  7 18  1  0  0  0  0
  8 21  1  0  0  0  0
  9 21  2  0  0  0  0
 10 22  1  0  0  0  0
 11 12  2  0  0  0  0
 11 23  1  0  0  0  0
 12 24  1  0  0  0  0
 13 20  1  0  0  0  0
 13 22  2  0  0  0  0
 14 24  2  0  0  0  0
 14 25  1  0  0  0  0
 15 26  1  0  0  0  0
 16 26  1  0  0  0  0
 16 29  2  0  0  0  0
 16 31  1  0  0  0  0
 17 19  2  0  0  0  0
 17 36  1  0  0  0  0
 18 20  2  0  0  0  0
 18 37  1  0  0  0  0
 19 45  1  0  0  0  0
 20 38  1  0  0  0  0
 21 82  1  0  0  0  0
 22 83  1  0  0  0  0
 23 25  2  0  0  0  0
 23 82  1  0  0  0  0
 24 84  1  0  0  0  0
 25 85  1  0  0  0  0
 26 65  2  0  0  0  0
 27 28  2  0  0  0  0
 27 48  1  0  0  0  0
 27 66  1  0  0  0  0
 28 56  1  0  0  0  0
 28 67  1  0  0  0  0
 29 68  1  0  0  0  0
 29 71  1  0  0  0  0
 30 57  1  0  0  0  0
 30 66  2  0  0  0  0
 30 67  1  0  0  0  0
 31 72  1  0  0  0  0
 31 77  2  0  0  0  0
 32 46  1  0  0  0  0
 32 73  1  0  0  0  0
 32 78  2  0  0  0  0
 33 62  1  0  0  0  0
 33 69  1  0  0  0  0
 33 79  2  0  0  0  0
 34 63  1  0  0  0  0
 34 74  1  0  0  0  0
 34 80  2  0  0  0  0
 35 70  1  0  0  0  0
 35 75  1  0  0  0  0
 35 81  2  0  0  0  0
 36 39  1  0  0  0  0
 37 46  1  0  0  0  0
 38 69  1  0  0  0  0
 39 41  1  0  0  0  0
 40 42  1  0  0  0  0
 40 43  1  0  0  0  0
 41 45  1  0  0  0  0
 42 47  1  0  0  0  0
 43 70  1  0  0  0  0
 44 47  1  0  0  0  0
 44 70  1  0  0  0  0
 45 73  1  0  0  0  0
 46 69  1  0  0  0  0
 47 68  1  0  0  0  0
 49 60  1  0  0  0  0
 50 63  1  0  0  0  0
 51 64  1  0  0  0  0
 52 64  1  0  0  0  0
 53 64  1  0  0  0  0
 54 67  1  0  0  0  0
 55 76  1  0  0  0  0
 56 58  1  0  0  0  0
 57 75  1  0  0  0  0
 58 59  1  0  0  0  0
 59 61  1  0  0  0  0
 60 75  1  0  0  0  0
 61 83  1  0  0  0  0
 62 64  1  0  0  0  0
 62 74  1  0  0  0  0
 63 76  1  0  0  0  0
 65 68  1  0  0  0  0
M  CHG  1  76   1
M  ISO  4  35 100  61 101  75 100  83 101
M  END
> <Batch ID>
0051

> <Smiles>
CC[100N:0](Cc1nc(C)c(CCC[101CH2:1][101O:1]c2ccc3c(c2)CN(C(=O)C(NC(=O)C(C)NC)C(C)(C)C)C(C(=O)NC2CCCc4ccccc42)C3)n1C)[100C:0](=O)N1CCCC(n2nc(-c3ccc(Oc4ccc(F)cc4F)cc3)c(C(N)=O)c2N)C1

> <Shape>
0.213

> <Color>
0.064

> <Negative vol penalty>
0.000

$$$$

  -OEChem-04052317333D

 81 89  0     1  0  0  0  0  0999 V2000
  -31.4393  -23.0012   15.8557 C   0  0  0  0  0  0  0  0  0  0  0  0
  -30.2848  -22.4222   16.3727 C   0  0  0  0  0  0  0  0  0  0  0  0
  -27.1030  -12.9591   21.1292 C   0  0  0  0  0  0  0  0  0  0  0  0
  -26.8162  -13.5076   18.7938 C   0  0  0  0  0  0  0  0  0  0  0  0
  -32.0923  -24.0067   16.5674 C   0  0  0  0  0  0  0  0  0  0  0  0
  -29.7831  -22.8477   17.6022 C   0  0  0  0  0  0  0  0  0  0  0  0
  -23.8949  -23.2383   19.2400 C   0  0  0  0  0  0  0  0  0  0  0  0
  -26.3665  -11.7890   20.9449 C   0  0  0  0  0  0  0  0  0  0  0  0
  -26.0797  -12.3375   18.6095 C   0  0  0  0  0  0  0  0  0  0  0  0
  -23.0675  -22.3904   19.9749 C   0  0  0  0  0  0  0  0  0  0  0  0
  -24.2555   -8.8365   21.1677 C   0  0  0  0  0  0  0  0  0  0  0  0
  -23.2828   -8.5242   22.1175 C   0  0  0  0  0  0  0  0  0  0  0  0
  -23.5174  -23.6831   21.9613 C   0  0  0  0  0  0  0  0  0  0  0  0
  -22.1394  -10.5954   21.6273 C   0  0  0  0  0  0  0  0  0  0  0  0
  -28.1476  -19.3356   25.3618 C   0  0  0  0  0  0  0  0  0  0  0  0
  -26.7063  -18.1749   26.4135 C   0  0  0  0  0  0  0  0  0  0  0  0
  -27.3278  -13.8185   20.0537 C   0  0  0  0  0  0  0  0  0  0  0  0
  -29.4805  -15.1862   20.1096 C   0  0  0  0  0  0  0  0  0  0  0  0
  -31.5930  -24.4515   17.8017 C   0  0  0  0  0  0  0  0  0  0  0  0
  -24.5495  -24.3104   19.8634 C   0  0  0  0  0  0  0  0  0  0  0  0
  -30.4308  -23.8592   18.3317 C   0  0  0  0  0  0  0  0  0  0  0  0
  -24.3506  -24.5447   21.2315 C   0  0  0  0  0  0  0  0  0  0  0  0
  -25.8548  -11.4782   19.6850 C   0  0  0  0  0  0  0  0  0  0  0  0
  -22.8809  -22.6110   21.3364 C   0  0  0  0  0  0  0  0  0  0  0  0
  -24.1702  -10.0282   20.4478 C   0  0  0  0  0  0  0  0  0  0  0  0
  -22.2248   -9.4037   22.3472 C   0  0  0  0  0  0  0  0  0  0  0  0
  -23.1122  -10.9076   20.6776 C   0  0  0  0  0  0  0  0  0  0  0  0
  -28.0881  -15.0276   20.2435 C   0  0  0  0  0  0  0  0  0  0  0  0
  -26.9424  -19.6136   24.7608 C   0  0  0  0  0  0  0  0  0  0  0  0
  -29.7039  -16.5115   20.3925 C   0  0  0  0  0  0  0  0  0  0  0  0
  -30.4823  -14.2217   19.7605 C   0  0  0  0  0  0  0  0  0  0  0  0
  -26.6514  -20.5088   23.6336 C   0  0  0  0  0  0  0  0  0  0  0  0
  -27.5883  -25.1187   20.3283 C   0  0  0  0  0  0  0  0  0  0  0  0
  -26.2771  -27.8362   21.5192 C   0  0  0  0  0  0  0  0  0  0  0  0
  -23.5760  -29.3734   22.9292 C   0  0  0  0  0  0  0  0  0  0  0  0
  -32.3598  -25.5082   18.5567 C   0  0  0  0  0  0  0  0  0  0  0  0
  -25.4176  -25.2318   19.0511 C   0  0  0  0  0  0  0  0  0  0  0  0
  -25.0143  -25.6937   21.9440 C   0  0  0  0  0  0  0  0  0  0  0  0
  -31.5538  -26.1630   19.6755 C   0  0  0  0  0  0  0  0  0  0  0  0
  -27.5871  -20.7998   20.2011 C   0  0  0  0  0  0  0  0  0  0  0  0
  -30.8364  -25.1042   20.5068 C   0  0  0  0  0  0  0  0  0  0  0  0
  -27.9342  -19.3643   19.8026 C   0  0  0  0  0  0  0  0  0  0  0  0
  -26.4289  -20.8444   21.1948 C   0  0  0  0  0  0  0  0  0  0  0  0
  -26.9720  -18.5743   22.0051 C   0  0  0  0  0  0  0  0  0  0  0  0
  -29.8419  -24.3109   19.6505 C   0  0  1  0  0  0  0  0  0  0  0  0
  -26.4409  -25.9863   19.8942 C   0  0  1  0  0  0  0  0  0  0  0  0
  -28.1680  -18.4820   21.0433 C   0  0  1  0  0  0  0  0  0  0  0  0
  -22.8176  -31.5906   23.8269 C   0  0  0  0  0  0  0  0  0  0  0  0
  -23.9463  -20.1871   27.2394 C   0  0  0  0  0  0  0  0  0  0  0  0
  -27.9174  -27.3700   24.0494 C   0  0  0  0  0  0  0  0  0  0  0  0
  -26.4417  -29.0155   25.2255 C   0  0  0  0  0  0  0  0  0  0  0  0
  -27.8293  -29.7503   23.2871 C   0  0  0  0  0  0  0  0  0  0  0  0
  -21.4049  -29.5719   20.9277 C   0  0  0  0  0  0  0  0  0  0  0  0
  -21.9698  -20.2041   23.8608 C   0  0  0  0  0  0  0  0  0  0  0  0
  -22.2725  -19.9551   25.3397 C   0  0  0  0  0  0  0  0  0  0  0  0
  -24.5414  -18.7930   25.1934 C   0  0  0  0  0  0  0  0  0  0  0  0
  -22.3938  -21.6046   23.4354 C   0  0  0  0  0  0  0  0  0  1  0  0
  -25.8067  -28.2889   22.8804 C   0  0  1  0  0  0  0  0  0  0  0  0
  -22.8814  -30.6843   22.6074 C   0  0  2  0  0  0  0  0  0  0  0  0
  -23.7663  -20.0160   25.7271 C   0  0  2  0  0  0  0  0  0  0  0  0
  -26.9877  -28.5833   23.8479 C   0  0  0  0  0  0  0  0  0  0  0  0
  -27.9937  -18.4394   26.3898 N   0  0  0  0  0  0  0  0  0  0  0  0
  -27.4705  -16.1616   20.5852 N   0  0  0  0  0  0  0  0  0  0  0  0
  -26.0288  -18.8627   25.4454 N   0  0  0  0  0  0  0  0  0  0  0  0
  -28.4796  -17.0453   20.6684 N   0  0  0  0  0  0  0  0  0  0  0  0
  -26.6979  -19.9784   22.3421 N   0  0  0  0  0  0  0  0  0  0  0  0
  -25.8586  -26.5629   21.1078 N   0  0  0  0  0  0  0  0  0  0  0  0
  -30.8263  -17.2606   20.4299 N   0  0  0  0  0  0  0  0  0  0  0  0
  -30.0800  -12.9044   19.5013 N   0  0  0  0  0  0  0  0  0  0  0  0
  -28.6374  -25.0822   19.4297 N   0  0  0  0  0  0  0  0  0  0  0  0
  -24.9251  -29.4282   22.6495 N   0  0  0  0  0  0  0  0  0  0  0  0
  -21.4903  -30.4314   22.1365 N   0  3  0  0  0  0  0  0  0  0  0  0
  -31.7002  -14.5155   19.6969 O   0  0  0  0  0  0  0  0  0  0  0  0
  -26.3972  -21.6779   23.9197 O   0  0  0  0  0  0  0  0  0  0  0  0
  -27.5270  -24.5274   21.3999 O   0  0  0  0  0  0  0  0  0  0  0  0
  -26.9838  -28.5877   20.8428 O   0  0  0  0  0  0  0  0  0  0  0  0
  -22.9820  -28.3995   23.3866 O   0  0  0  0  0  0  0  0  0  0  0  0
  -25.1363  -10.3364   19.5047 O   0  0  0  0  0  0  0  0  0  0  0  0
  -22.0744  -21.7845   22.0563 O   0  0  0  0  0  0  0  0  0  1  0  0
  -21.2899   -9.1030   23.2581 F   0  0  0  0  0  0  0  0  0  0  0  0
  -23.0243  -12.0534   19.9882 F   0  0  0  0  0  0  0  0  0  0  0  0
  1  2  1  0  0  0  0
  1  5  2  0  0  0  0
  2  6  2  0  0  0  0
  3  8  2  0  0  0  0
  3 17  1  0  0  0  0
  4  9  1  0  0  0  0
  4 17  2  0  0  0  0
  5 19  1  0  0  0  0
  6 21  1  0  0  0  0
  7 10  2  0  0  0  0
  7 20  1  0  0  0  0
  8 23  1  0  0  0  0
  9 23  2  0  0  0  0
 10 24  1  0  0  0  0
 11 12  2  0  0  0  0
 11 25  1  0  0  0  0
 12 26  1  0  0  0  0
 13 22  1  0  0  0  0
 13 24  2  0  0  0  0
 14 26  2  0  0  0  0
 14 27  1  0  0  0  0
 15 29  2  0  0  0  0
 15 62  1  0  0  0  0
 16 62  2  0  0  0  0
 16 64  1  0  0  0  0
 17 28  1  0  0  0  0
 18 28  1  0  0  0  0
 18 30  2  0  0  0  0
 18 31  1  0  0  0  0
 19 21  2  0  0  0  0
 19 36  1  0  0  0  0
 20 22  2  0  0  0  0
 20 37  1  0  0  0  0
 21 45  1  0  0  0  0
 22 38  1  0  0  0  0
 23 78  1  0  0  0  0
 24 79  1  0  0  0  0
 25 27  2  0  0  0  0
 25 78  1  0  0  0  0
 26 80  1  0  0  0  0
 27 81  1  0  0  0  0
 28 63  2  0  0  0  0
 29 32  1  0  0  0  0
 29 64  1  0  0  0  0
 30 65  1  0  0  0  0
 30 68  1  0  0  0  0
 31 69  1  0  0  0  0
 31 73  2  0  0  0  0
 32 66  1  0  0  0  0
 32 74  2  0  0  0  0
 33 46  1  0  0  0  0
 33 70  1  0  0  0  0
 33 75  2  0  0  0  0
 34 58  1  0  0  0  0
 34 67  1  0  0  0  0
 34 76  2  0  0  0  0
 35 59  1  0  0  0  0
 35 71  1  0  0  0  0
 35 77  2  0  0  0  0
 36 39  1  0  0  0  0
 37 46  1  0  0  0  0
 38 67  1  0  0  0  0
 39 41  1  0  0  0  0
 40 42  1  0  0  0  0
 40 43  1  0  0  0  0
 41 45  1  0  0  0  0
 42 47  1  0  0  0  0
 43 66  1  0  0  0  0
 44 47  1  0  0  0  0
 44 66  1  0  0  0  0
 45 70  1  0  0  0  0
 46 67  1  0  0  0  0
 47 65  1  0  0  0  0
 48 59  1  0  0  0  0
 49 60  1  0  0  0  0
 50 61  1  0  0  0  0
 51 61  1  0  0  0  0
 52 61  1  0  0  0  0
 53 72  1  0  0  0  0
 54 55  1  0  0  0  0
 54 57  1  0  0  0  0
 55 60  1  0  0  0  0
 56 60  1  0  0  0  0
 56 64  1  0  0  0  0
 57 79  1  0  0  0  0
 58 61  1  0  0  0  0
 58 71  1  0  0  0  0
 59 72  1  0  0  0  0
 63 65  1  0  0  0  0
M  CHG  1  72   1
M  ISO  4  29 100  32 100  57 101  79 101
M  END
> <Batch ID>
0051

> <Smiles>
CNC(C)C(=O)NC(C(=O)N1Cc2cc([101O:1][101CH2:1]CCC(C)Cn3cnc[100c:0]3[100C:0](=O)N3CCCC(n4nc(-c5ccc(Oc6ccc(F)cc6F)cc5)c(C(N)=O)c4N)C3)ccc2CC1C(=O)NC1CCCc2ccccc21)C(C)(C)C

> <Shape>
0.211

> <Color>
0.061

> <Negative vol penalty>
0.000

$$$$

  -OEChem-04052317333D

 85 93  0     1  0  0  0  0  0999 V2000
  -30.5093  -35.6697   20.6371 C   0  0  0  0  0  0  0  0  0  0  0  0
  -30.3306  -34.4001   20.0971 C   0  0  0  0  0  0  0  0  0  0  0  0
  -23.3875  -10.6329   22.1973 C   0  0  0  0  0  0  0  0  0  0  0  0
  -23.9484   -9.9254   19.9564 C   0  0  0  0  0  0  0  0  0  0  0  0
  -30.0472  -35.9507   21.9221 C   0  0  0  0  0  0  0  0  0  0  0  0
  -29.6905  -33.4104   20.8423 C   0  0  0  0  0  0  0  0  0  0  0  0
  -26.0272  -28.9888   18.7127 C   0  0  0  0  0  0  0  0  0  0  0  0
  -22.1180  -10.0726   22.0566 C   0  0  0  0  0  0  0  0  0  0  0  0
  -22.6788   -9.3650   19.8156 C   0  0  0  0  0  0  0  0  0  0  0  0
  -26.2544  -27.6467   18.4111 C   0  0  0  0  0  0  0  0  0  0  0  0
  -20.7240   -6.9952   22.1963 C   0  0  0  0  0  0  0  0  0  0  0  0
  -20.2318   -6.2311   23.2543 C   0  0  0  0  0  0  0  0  0  0  0  0
  -25.4350  -27.0239   20.5928 C   0  0  0  0  0  0  0  0  0  0  0  0
  -18.3622   -7.7449   23.4779 C   0  0  0  0  0  0  0  0  0  0  0  0
  -28.2769  -19.9967   19.7276 C   0  0  0  0  0  0  0  0  0  0  0  0
  -24.3027  -10.5594   21.1472 C   0  0  0  0  0  0  0  0  0  0  0  0
  -26.7732  -10.5068   21.7811 C   0  0  0  0  0  0  0  0  0  0  0  0
  -29.3925  -34.9669   22.6798 C   0  0  0  0  0  0  0  0  0  0  0  0
  -25.5116  -29.3599   19.9628 C   0  0  0  0  0  0  0  0  0  0  0  0
  -29.2203  -33.6783   22.1392 C   0  0  0  0  0  0  0  0  0  0  0  0
  -25.1998  -28.3712   20.9068 C   0  0  0  0  0  0  0  0  0  0  0  0
  -21.7636   -9.4386   20.8657 C   0  0  0  0  0  0  0  0  0  0  0  0
  -25.9610  -26.6642   19.3522 C   0  0  0  0  0  0  0  0  0  0  0  0
  -20.0354   -8.1343   21.7791 C   0  0  0  0  0  0  0  0  0  0  0  0
  -19.0508   -6.6059   23.8951 C   0  0  0  0  0  0  0  0  0  0  0  0
  -18.8545   -8.5091   22.4199 C   0  0  0  0  0  0  0  0  0  0  0  0
  -25.6142  -11.1385   21.2918 C   0  0  0  0  0  0  0  0  0  0  0  0
  -29.4955  -19.3656   19.4135 C   0  0  0  0  0  0  0  0  0  0  0  0
  -28.6433  -21.2265   20.2171 C   0  0  0  0  0  0  0  0  0  0  0  0
  -27.7449  -11.4754   21.7176 C   0  0  0  0  0  0  0  0  0  0  0  0
  -26.9552   -9.1645   22.2510 C   0  0  0  0  0  0  0  0  0  0  0  0
  -26.5639  -31.1222   22.3899 C   0  0  0  0  0  0  0  0  0  0  0  0
  -23.5764  -30.6129   23.5465 C   0  0  0  0  0  0  0  0  0  0  0  0
  -20.7738  -28.6657   23.5756 C   0  0  0  0  0  0  0  0  0  0  0  0
  -27.8474  -16.4179   18.1850 C   0  0  0  0  0  0  0  0  0  0  0  0
  -28.9524  -35.3040   24.0824 C   0  0  0  0  0  0  0  0  0  0  0  0
  -25.2472  -30.8100   20.2627 C   0  0  0  0  0  0  0  0  0  0  0  0
  -24.6255  -28.7158   22.2559 C   0  0  0  0  0  0  0  0  0  0  0  0
  -27.9514  -34.3083   24.6626 C   0  0  0  0  0  0  0  0  0  0  0  0
  -28.3463  -16.2090   21.8862 C   0  0  0  0  0  0  0  0  0  0  0  0
  -28.4143  -32.8770   24.4094 C   0  0  0  0  0  0  0  0  0  0  0  0
  -27.7294  -14.8439   22.1869 C   0  0  0  0  0  0  0  0  0  0  0  0
  -27.6945  -16.8530   20.6685 C   0  0  0  0  0  0  0  0  0  0  0  0
  -27.1215  -14.6365   19.7329 C   0  0  0  0  0  0  0  0  0  0  0  0
  -28.5088  -32.5854   22.9069 C   0  0  1  0  0  0  0  0  0  0  0  0
  -25.2010  -31.1122   21.7574 C   0  0  1  0  0  0  0  0  0  0  0  0
  -27.7634  -13.9388   20.9437 C   0  0  2  0  0  0  0  0  0  0  0  0
  -30.4601  -18.1403   13.3889 C   0  0  0  0  0  0  0  0  0  0  0  0
  -18.5130  -28.4833   24.6491 C   0  0  0  0  0  0  0  0  0  0  0  0
  -24.8784  -29.5885   26.1088 C   0  0  0  0  0  0  0  0  0  0  0  0
  -22.6814  -28.5623   26.7322 C   0  0  0  0  0  0  0  0  0  0  0  0
  -22.8700  -31.0354   26.4655 C   0  0  0  0  0  0  0  0  0  0  0  0
  -30.8656  -22.3432   20.5760 C   0  0  0  0  0  0  0  0  0  0  0  0
  -19.3896  -28.9000   20.9702 C   0  0  0  0  0  0  0  0  0  0  0  0
  -29.6896  -18.0177   18.8531 C   0  0  0  0  0  0  0  0  0  0  0  0
  -27.8128  -22.3768   20.7277 C   0  0  0  0  0  0  0  0  0  0  0  0
  -29.3934  -18.5932   14.3738 C   0  0  0  0  0  0  0  0  0  0  0  0
  -27.4154  -23.3792   19.6420 C   0  0  0  0  0  0  0  0  0  0  0  0
  -29.4934  -17.8292   15.6961 C   0  0  0  0  0  0  0  0  0  0  0  0
  -28.4736  -18.3042   16.7258 C   0  0  0  0  0  0  0  0  0  0  0  0
  -26.5055  -24.4913   20.1508 C   0  0  0  0  0  0  0  0  0  1  0  0
  -22.9310  -29.5593   24.4138 C   0  0  1  0  0  0  0  0  0  0  0  0
  -19.3015  -29.0178   23.4637 C   0  0  2  0  0  0  0  0  0  0  0  0
  -23.3528  -29.6797   25.9055 C   0  0  0  0  0  0  0  0  0  0  0  0
  -25.8280  -12.4101   20.9433 N   0  0  0  0  0  0  0  0  0  0  0  0
  -30.5566  -20.1314   19.6809 N   0  0  0  0  0  0  0  0  0  0  0  0
  -30.0060  -21.2563   20.1681 N   0  0  0  0  0  0  0  0  0  0  0  0
  -27.1326  -12.5852   21.2140 N   0  0  0  0  0  0  0  0  0  0  0  0
  -24.3908  -30.1478   22.5042 N   0  0  0  0  0  0  0  0  0  0  0  0
  -27.7141  -15.9565   19.5050 N   0  0  0  0  0  0  0  0  0  0  0  0
  -29.0548  -11.4775   22.0440 N   0  0  0  0  0  0  0  0  0  0  0  0
  -25.8517   -8.3004   22.2485 N   0  0  0  0  0  0  0  0  0  0  0  0
  -27.1920  -32.3525   22.3535 N   0  0  0  0  0  0  0  0  0  0  0  0
  -21.4938  -29.6693   24.1885 N   0  0  0  0  0  0  0  0  0  0  0  0
  -28.5891  -17.5930   17.9910 N   0  0  0  0  0  0  0  0  0  0  0  0
  -18.7242  -28.4409   22.2167 N   0  3  0  0  0  0  0  0  0  0  0  0
  -28.0596   -8.7487   22.6762 O   0  0  0  0  0  0  0  0  0  0  0  0
  -27.0119  -30.0905   22.8762 O   0  0  0  0  0  0  0  0  0  0  0  0
  -23.3601  -31.8046   23.7806 O   0  0  0  0  0  0  0  0  0  0  0  0
  -21.2382  -27.6048   23.1641 O   0  0  0  0  0  0  0  0  0  0  0  0
  -27.3418  -15.8085   17.2337 O   0  0  0  0  0  0  0  0  0  0  0  0
  -20.5250   -8.8915   20.7281 O   0  0  0  0  0  0  0  0  0  0  0  0
  -26.1824  -25.3536   19.0606 O   0  0  0  0  0  0  0  0  0  1  0  0
  -18.5774   -5.8711   24.9100 F   0  0  0  0  0  0  0  0  0  0  0  0
  -18.1879   -9.6017   22.0228 F   0  0  0  0  0  0  0  0  0  0  0  0
  1  2  1  0  0  0  0
  1  5  2  0  0  0  0
  2  6  2  0  0  0  0
  3  8  2  0  0  0  0
  3 16  1  0  0  0  0
  4  9  1  0  0  0  0
  4 16  2  0  0  0  0
  5 18  1  0  0  0  0
  6 20  1  0  0  0  0
  7 10  2  0  0  0  0
  7 19  1  0  0  0  0
  8 22  1  0  0  0  0
  9 22  2  0  0  0  0
 10 23  1  0  0  0  0
 11 12  2  0  0  0  0
 11 24  1  0  0  0  0
 12 25  1  0  0  0  0
 13 21  1  0  0  0  0
 13 23  2  0  0  0  0
 14 25  2  0  0  0  0
 14 26  1  0  0  0  0
 15 28  1  0  0  0  0
 15 29  2  0  0  0  0
 16 27  1  0  0  0  0
 17 27  1  0  0  0  0
 17 30  2  0  0  0  0
 17 31  1  0  0  0  0
 18 20  2  0  0  0  0
 18 36  1  0  0  0  0
 19 21  2  0  0  0  0
 19 37  1  0  0  0  0
 20 45  1  0  0  0  0
 21 38  1  0  0  0  0
 22 82  1  0  0  0  0
 23 83  1  0  0  0  0
 24 26  2  0  0  0  0
 24 82  1  0  0  0  0
 25 84  1  0  0  0  0
 26 85  1  0  0  0  0
 27 65  2  0  0  0  0
 28 55  1  0  0  0  0
 28 66  2  0  0  0  0
 29 56  1  0  0  0  0
 29 67  1  0  0  0  0
 30 68  1  0  0  0  0
 30 71  1  0  0  0  0
 31 72  1  0  0  0  0
 31 77  2  0  0  0  0
 32 46  1  0  0  0  0
 32 73  1  0  0  0  0
 32 78  2  0  0  0  0
 33 62  1  0  0  0  0
 33 69  1  0  0  0  0
 33 79  2  0  0  0  0
 34 63  1  0  0  0  0
 34 74  1  0  0  0  0
 34 80  2  0  0  0  0
 35 70  1  0  0  0  0
 35 75  1  0  0  0  0
 35 81  2  0  0  0  0
 36 39  1  0  0  0  0
 37 46  1  0  0  0  0
 38 69  1  0  0  0  0
 39 41  1  0  0  0  0
 40 42  1  0  0  0  0
 40 43  1  0  0  0  0
 41 45  1  0  0  0  0
 42 47  1  0  0  0  0
 43 70  1  0  0  0  0
 44 47  1  0  0  0  0
 44 70  1  0  0  0  0
 45 73  1  0  0  0  0
 46 69  1  0  0  0  0
 47 68  1  0  0  0  0
 48 57  1  0  0  0  0
 49 63  1  0  0  0  0
 50 64  1  0  0  0  0
 51 64  1  0  0  0  0
 52 64  1  0  0  0  0
 53 67  1  0  0  0  0
 54 76  1  0  0  0  0
 55 75  1  0  0  0  0
 56 58  1  0  0  0  0
 57 59  1  0  0  0  0
 58 61  1  0  0  0  0
 59 60  1  0  0  0  0
 60 75  1  0  0  0  0
 61 83  1  0  0  0  0
 62 64  1  0  0  0  0
 62 74  1  0  0  0  0
 63 76  1  0  0  0  0
 65 68  1  0  0  0  0
 66 67  1  0  0  0  0
M  CHG  1  76   1
M  ISO  4  35 100  61 101  75 100  83 101
M  END
> <Batch ID>
0051

> <Smiles>
CCCC[100N:0](Cc1cc(CC[101CH2:1][101O:1]c2ccc3c(c2)CN(C(=O)C(NC(=O)C(C)NC)C(C)(C)C)C(C(=O)NC2CCCc4ccccc42)C3)n(C)n1)[100C:0](=O)N1CCCC(n2nc(-c3ccc(Oc4ccc(F)cc4F)cc3)c(C(N)=O)c2N)C1

> <Shape>
0.243

> <Color>
0.070

> <Negative vol penalty>
0.000

$$$$

  -OEChem-04052317333D

 86 94  0     1  0  0  0  0  0999 V2000
  -23.7747  -33.5318   26.2892 C   0  0  0  0  0  0  0  0  0  0  0  0
  -23.1090  -32.8961   25.2460 C   0  0  0  0  0  0  0  0  0  0  0  0
  -26.7160  -13.5898   21.6411 C   0  0  0  0  0  0  0  0  0  0  0  0
  -26.5216  -13.5289   19.2337 C   0  0  0  0  0  0  0  0  0  0  0  0
  -25.0966  -33.9427   26.1234 C   0  0  0  0  0  0  0  0  0  0  0  0
  -23.7647  -32.6718   24.0360 C   0  0  0  0  0  0  0  0  0  0  0  0
  -23.0591  -27.8698   20.3012 C   0  0  0  0  0  0  0  0  0  0  0  0
  -25.9206  -12.4478   21.7343 C   0  0  0  0  0  0  0  0  0  0  0  0
  -25.7262  -12.3868   19.3269 C   0  0  0  0  0  0  0  0  0  0  0  0
  -22.3118  -27.6878   19.1383 C   0  0  0  0  0  0  0  0  0  0  0  0
  -22.6323  -11.6830   21.5711 C   0  0  0  0  0  0  0  0  0  0  0  0
  -21.6187  -11.6766   22.5292 C   0  0  0  0  0  0  0  0  0  0  0  0
  -20.4244  -24.8314   14.5560 C   0  0  0  0  0  0  0  0  0  0  0  0
  -24.2608  -28.2014   17.8128 C   0  0  0  0  0  0  0  0  0  0  0  0
  -22.6276   -9.7511   23.5837 C   0  0  0  0  0  0  0  0  0  0  0  0
  -21.2969  -24.3224   13.6254 C   0  0  0  0  0  0  0  0  0  0  0  0
  -27.0165  -14.1304   20.3908 C   0  0  0  0  0  0  0  0  0  0  0  0
  -29.2397  -15.3634   20.1791 C   0  0  0  0  0  0  0  0  0  0  0  0
  -25.7720  -33.7147   24.9140 C   0  0  0  0  0  0  0  0  0  0  0  0
  -24.4123  -28.2303   20.2285 C   0  0  0  0  0  0  0  0  0  0  0  0
  -25.0966  -33.0812   23.8534 C   0  0  0  0  0  0  0  0  0  0  0  0
  -25.0236  -28.3849   18.9761 C   0  0  0  0  0  0  0  0  0  0  0  0
  -25.4257  -11.8463   20.5772 C   0  0  0  0  0  0  0  0  0  0  0  0
  -22.9119  -27.8564   17.8939 C   0  0  0  0  0  0  0  0  0  0  0  0
  -23.6436  -10.7235   21.6192 C   0  0  0  0  0  0  0  0  0  0  0  0
  -21.6163  -10.7107   23.5355 C   0  0  0  0  0  0  0  0  0  0  0  0
  -23.6413   -9.7576   22.6255 C   0  0  0  0  0  0  0  0  0  0  0  0
  -27.8376  -15.3104   20.2939 C   0  0  0  0  0  0  0  0  0  0  0  0
  -20.7759  -26.1905   14.6617 C   0  0  0  0  0  0  0  0  0  0  0  0
  -29.5290  -16.7048   20.1210 C   0  0  0  0  0  0  0  0  0  0  0  0
  -30.1951  -14.2955   20.1294 C   0  0  0  0  0  0  0  0  0  0  0  0
  -26.1233  -30.7283   21.1958 C   0  0  0  0  0  0  0  0  0  0  0  0
  -28.6164  -28.9231   20.1722 C   0  0  0  0  0  0  0  0  0  0  0  0
  -29.7378  -26.4111   18.1525 C   0  0  0  0  0  0  0  0  0  0  0  0
  -26.5792  -21.3521   18.3020 C   0  0  0  0  0  0  0  0  0  0  0  0
  -27.1855  -34.2191   24.7657 C   0  0  0  0  0  0  0  0  0  0  0  0
  -25.2114  -28.3967   21.4920 C   0  0  0  0  0  0  0  0  0  0  0  0
  -26.4784  -28.7516   18.8437 C   0  0  0  0  0  0  0  0  0  0  0  0
  -27.9289  -33.6085   23.5804 C   0  0  0  0  0  0  0  0  0  0  0  0
  -27.9030  -20.9613   21.5527 C   0  0  0  0  0  0  0  0  0  0  0  0
  -27.0530  -33.6314   22.3318 C   0  0  0  0  0  0  0  0  0  0  0  0
  -28.1682  -19.4570   21.5925 C   0  0  0  0  0  0  0  0  0  0  0  0
  -26.5914  -21.2948   20.8393 C   0  0  0  0  0  0  0  0  0  0  0  0
  -26.7473  -19.2048   19.5239 C   0  0  0  0  0  0  0  0  0  0  0  0
  -25.7819  -32.7979   22.5343 C   0  0  1  0  0  0  0  0  0  0  0  0
  -26.4510  -29.2660   21.3048 C   0  0  1  0  0  0  0  0  0  0  0  0
  -28.0885  -18.8467   20.1825 C   0  0  2  0  0  0  0  0  0  0  0  0
  -31.3461  -24.7501   17.1769 C   0  0  0  0  0  0  0  0  0  0  0  0
  -29.4807  -31.3047   18.4720 C   0  0  0  0  0  0  0  0  0  0  0  0
  -30.9558  -29.7535   17.1735 C   0  0  0  0  0  0  0  0  0  0  0  0
  -31.3540  -30.1017   19.6113 C   0  0  0  0  0  0  0  0  0  0  0  0
  -24.9467  -23.0912   19.1477 C   0  0  0  0  0  0  0  0  0  0  0  0
  -29.0707  -24.3853   20.2044 C   0  0  0  0  0  0  0  0  0  0  0  0
  -25.0837  -22.8922   12.9301 C   0  0  0  0  0  0  0  0  0  0  0  0
  -20.1429  -27.2373   15.5459 C   0  0  0  0  0  0  0  0  0  0  0  0
  -25.3737  -23.4150   16.0261 C   0  0  0  0  0  0  0  0  0  0  0  0
  -23.1599  -25.3219   12.2806 C   0  0  0  0  0  0  0  0  0  0  0  0
  -26.3647  -23.5363   17.1787 C   0  0  0  0  0  0  0  0  0  0  0  0
  -25.7305  -24.3273   14.8595 C   0  0  0  0  0  0  0  0  0  0  0  0
  -24.5477  -25.3241   12.9082 C   0  0  0  0  0  0  0  0  0  0  0  0
  -20.8119  -27.3228   16.9134 C   0  0  0  0  0  0  0  0  0  1  0  0
  -29.3488  -28.7560   18.8628 C   0  0  1  0  0  0  0  0  0  0  0  0
  -30.6263  -25.2129   18.4341 C   0  0  2  0  0  0  0  0  0  0  0  0
  -30.2569  -29.9740   18.5321 C   0  0  0  0  0  0  0  0  0  0  0  0
  -27.2753  -16.5219   20.3082 N   0  0  0  0  0  0  0  0  0  0  0  0
  -21.7926  -26.5238   13.8622 N   0  0  0  0  0  0  0  0  0  0  0  0
  -22.0875  -25.3668   13.2453 N   0  0  0  0  0  0  0  0  0  0  0  0
  -28.3294  -17.3487   20.2017 N   0  0  0  0  0  0  0  0  0  0  0  0
  -27.2159  -28.9095   20.1081 N   0  0  0  0  0  0  0  0  0  0  0  0
  -26.5364  -20.6545   19.5181 N   0  0  0  0  0  0  0  0  0  0  0  0
  -30.6900  -17.3846   20.0093 N   0  0  0  0  0  0  0  0  0  0  0  0
  -29.7271  -12.9764   20.2014 N   0  0  0  0  0  0  0  0  0  0  0  0
  -26.0777  -31.3867   22.4099 N   0  0  0  0  0  0  0  0  0  0  0  0
  -30.0616  -27.4863   18.9528 N   0  0  0  0  0  0  0  0  0  0  0  0
  -26.0400  -22.6472   18.2852 N   0  0  0  0  0  0  0  0  0  0  0  0
  -29.8145  -24.0772   18.9559 N   0  3  0  0  0  0  0  0  0  0  0  0
  -24.7355  -24.1137   13.7451 N   0  3  1  0  0  0  0  0  0  0  0  0
  -31.4286  -14.5053   20.0408 O   0  0  0  0  0  0  0  0  0  0  0  0
  -25.9279  -31.2231   20.0919 O   0  0  0  0  0  0  0  0  0  0  0  0
  -29.2632  -29.0534   21.2145 O   0  0  0  0  0  0  0  0  0  0  0  0
  -28.8482  -26.3961   17.3047 O   0  0  0  0  0  0  0  0  0  0  0  0
  -27.0654  -20.8437   17.2835 O   0  0  0  0  0  0  0  0  0  0  0  0
  -24.6497  -10.7317   20.6677 O   0  0  0  0  0  0  0  0  0  0  0  0
  -22.1847  -27.6800   16.7573 O   0  0  0  0  0  0  0  0  0  1  0  0
  -20.6436  -10.7055   24.4564 F   0  0  0  0  0  0  0  0  0  0  0  0
  -24.6108   -8.8339   22.6776 F   0  0  0  0  0  0  0  0  0  0  0  0
  1  2  1  0  0  0  0
  1  5  2  0  0  0  0
  2  6  2  0  0  0  0
  3  8  2  0  0  0  0
  3 17  1  0  0  0  0
  4  9  1  0  0  0  0
  4 17  2  0  0  0  0
  5 19  1  0  0  0  0
  6 21  1  0  0  0  0
  7 10  2  0  0  0  0
  7 20  1  0  0  0  0
  8 23  1  0  0  0  0
  9 23  2  0  0  0  0
 10 24  1  0  0  0  0
 11 12  2  0  0  0  0
 11 25  1  0  0  0  0
 12 26  1  0  0  0  0
 13 16  2  0  0  0  0
 13 29  1  0  0  0  0
 14 22  1  0  0  0  0
 14 24  2  0  0  0  0
 15 26  2  0  0  0  0
 15 27  1  0  0  0  0
 16 67  1  0  0  0  0
 17 28  1  0  0  0  0
 18 28  1  0  0  0  0
 18 30  2  0  0  0  0
 18 31  1  0  0  0  0
 19 21  2  0  0  0  0
 19 36  1  0  0  0  0
 20 22  2  0  0  0  0
 20 37  1  0  0  0  0
 21 45  1  0  0  0  0
 22 38  1  0  0  0  0
 23 83  1  0  0  0  0
 24 84  1  0  0  0  0
 25 27  2  0  0  0  0
 25 83  1  0  0  0  0
 26 85  1  0  0  0  0
 27 86  1  0  0  0  0
 28 65  2  0  0  0  0
 29 55  1  0  0  0  0
 29 66  2  0  0  0  0
 30 68  1  0  0  0  0
 30 71  1  0  0  0  0
 31 72  1  0  0  0  0
 31 78  2  0  0  0  0
 32 46  1  0  0  0  0
 32 73  1  0  0  0  0
 32 79  2  0  0  0  0
 33 62  1  0  0  0  0
 33 69  1  0  0  0  0
 33 80  2  0  0  0  0
 34 63  1  0  0  0  0
 34 74  1  0  0  0  0
 34 81  2  0  0  0  0
 35 70  1  0  0  0  0
 35 75  1  0  0  0  0
 35 82  2  0  0  0  0
 36 39  1  0  0  0  0
 37 46  1  0  0  0  0
 38 69  1  0  0  0  0
 39 41  1  0  0  0  0
 40 42  1  0  0  0  0
 40 43  1  0  0  0  0
 41 45  1  0  0  0  0
 42 47  1  0  0  0  0
 43 70  1  0  0  0  0
 44 47  1  0  0  0  0
 44 70  1  0  0  0  0
 45 73  1  0  0  0  0
 46 69  1  0  0  0  0
 47 68  1  0  0  0  0
 48 63  1  0  0  0  0
 49 64  1  0  0  0  0
 50 64  1  0  0  0  0
 51 64  1  0  0  0  0
 52 75  1  0  0  0  0
 53 76  1  0  0  0  0
 54 77  1  0  0  0  0
 55 61  1  0  0  0  0
 56 58  1  0  0  0  0
 56 59  1  0  0  0  0
 57 60  1  0  0  0  0
 57 67  1  0  0  0  0
 58 75  1  0  0  0  0
 59 77  1  0  0  0  0
 60 77  1  0  0  0  0
 61 84  1  0  0  0  0
 62 64  1  0  0  0  0
 62 74  1  0  0  0  0
 63 76  1  0  0  0  0
 65 68  1  0  0  0  0
 66 67  1  0  0  0  0
M  CHG  2  76   1  77   1
M  ISO  4  35 100  61 101  75 100  84 101
M  END
> <Batch ID>
0051

> <Smiles>
CNC(C)C(=O)NC(C(=O)N1Cc2cc([101O:1][101CH2:1]Cc3ccn(CCN(C)CCC[100N:0](C)[100C:0](=O)N4CCCC(n5nc(-c6ccc(Oc7ccc(F)cc7F)cc6)c(C(N)=O)c5N)C4)n3)ccc2CC1C(=O)NC1CCCc2ccccc21)C(C)(C)C

> <Shape>
0.237

> <Color>
0.055

> <Negative vol penalty>
0.000

$$$$

  -OEChem-04052317333D

 84 92  0     1  0  0  0  0  0999 V2000
  -16.4747  -29.2154   23.6822 C   0  0  0  0  0  0  0  0  0  0  0  0
  -17.0262  -28.6865   22.5196 C   0  0  0  0  0  0  0  0  0  0  0  0
  -24.6409  -17.4034   21.9888 C   0  0  0  0  0  0  0  0  0  0  0  0
  -25.8286  -16.4870   20.0950 C   0  0  0  0  0  0  0  0  0  0  0  0
  -17.1930  -30.1452   24.4328 C   0  0  0  0  0  0  0  0  0  0  0  0
  -18.2960  -29.0880   22.1064 C   0  0  0  0  0  0  0  0  0  0  0  0
  -22.5082  -25.6506   19.2872 C   0  0  0  0  0  0  0  0  0  0  0  0
  -23.6372  -16.4495   21.8209 C   0  0  0  0  0  0  0  0  0  0  0  0
  -24.8249  -15.5331   19.9271 C   0  0  0  0  0  0  0  0  0  0  0  0
  -22.8677  -25.5196   17.9465 C   0  0  0  0  0  0  0  0  0  0  0  0
  -22.7541  -12.6294   19.2212 C   0  0  0  0  0  0  0  0  0  0  0  0
  -23.1441  -11.3104   18.9894 C   0  0  0  0  0  0  0  0  0  0  0  0
  -24.6502  -27.1115   18.2753 C   0  0  0  0  0  0  0  0  0  0  0  0
  -24.3033  -11.2806   21.1090 C   0  0  0  0  0  0  0  0  0  0  0  0
  -29.6596  -23.1681   14.9580 C   0  0  0  0  0  0  0  0  0  0  0  0
  -30.8871  -24.9761   15.2425 C   0  0  0  0  0  0  0  0  0  0  0  0
  -25.7366  -17.4222   21.1258 C   0  0  0  0  0  0  0  0  0  0  0  0
  -27.9358  -18.2901   22.0840 C   0  0  0  0  0  0  0  0  0  0  0  0
  -18.4762  -30.5510   24.0337 C   0  0  0  0  0  0  0  0  0  0  0  0
  -23.2112  -26.5227   20.1307 C   0  0  0  0  0  0  0  0  0  0  0  0
  -19.0316  -30.0251   22.8517 C   0  0  0  0  0  0  0  0  0  0  0  0
  -24.2992  -27.2498   19.6269 C   0  0  0  0  0  0  0  0  0  0  0  0
  -23.7292  -15.5143   20.7900 C   0  0  0  0  0  0  0  0  0  0  0  0
  -23.9370  -26.2523   17.4397 C   0  0  0  0  0  0  0  0  0  0  0  0
  -23.1387  -13.2740   20.3969 C   0  0  0  0  0  0  0  0  0  0  0  0
  -23.9187  -10.6360   19.9332 C   0  0  0  0  0  0  0  0  0  0  0  0
  -23.9133  -12.5996   21.3408 C   0  0  0  0  0  0  0  0  0  0  0  0
  -26.7735  -18.4076   21.2985 C   0  0  0  0  0  0  0  0  0  0  0  0
  -28.9900  -24.2992   14.5546 C   0  0  0  0  0  0  0  0  0  0  0  0
  -28.5882  -19.4866   21.9132 C   0  0  0  0  0  0  0  0  0  0  0  0
  -28.3855  -17.1970   22.8956 C   0  0  0  0  0  0  0  0  0  0  0  0
  -22.4573  -29.1161   21.8069 C   0  0  0  0  0  0  0  0  0  0  0  0
  -25.4934  -28.8114   22.9076 C   0  0  0  0  0  0  0  0  0  0  0  0
  -28.6524  -27.6227   22.4032 C   0  0  0  0  0  0  0  0  0  0  0  0
  -30.3761  -23.6481   18.7997 C   0  0  0  0  0  0  0  0  0  0  0  0
  -19.1949  -31.5942   24.8522 C   0  0  0  0  0  0  0  0  0  0  0  0
  -22.8277  -26.6326   21.5810 C   0  0  0  0  0  0  0  0  0  0  0  0
  -25.0991  -28.1844   20.4958 C   0  0  0  0  0  0  0  0  0  0  0  0
  -20.6879  -31.6856   24.5470 C   0  0  0  0  0  0  0  0  0  0  0  0
  -27.0595  -23.8102   19.7999 C   0  0  0  0  0  0  0  0  0  0  0  0
  -20.9244  -31.7067   23.0403 C   0  0  0  0  0  0  0  0  0  0  0  0
  -26.7709  -22.4116   20.3436 C   0  0  0  0  0  0  0  0  0  0  0  0
  -27.9161  -23.7389   18.5414 C   0  0  0  0  0  0  0  0  0  0  0  0
  -28.9393  -21.6106   19.2792 C   0  0  0  0  0  0  0  0  0  0  0  0
  -20.4165  -30.4172   22.3840 C   0  0  1  0  0  0  0  0  0  0  0  0
  -23.2896  -27.9367   22.2240 C   0  0  1  0  0  0  0  0  0  0  0  0
  -28.0749  -21.6231   20.5567 C   0  0  2  0  0  0  0  0  0  0  0  0
  -31.0467  -27.0800   22.9231 C   0  0  0  0  0  0  0  0  0  0  0  0
  -32.4637  -21.8264   14.8746 C   0  0  0  0  0  0  0  0  0  0  0  0
  -25.9521  -31.7115   22.0776 C   0  0  0  0  0  0  0  0  0  0  0  0
  -28.4151  -31.3021   22.2634 C   0  0  0  0  0  0  0  0  0  0  0  0
  -26.9608  -31.0843   24.2784 C   0  0  0  0  0  0  0  0  0  0  0  0
  -32.8054  -23.2549   18.9455 C   0  0  0  0  0  0  0  0  0  0  0  0
  -27.9233  -25.0140   23.5955 C   0  0  0  0  0  0  0  0  0  0  0  0
  -27.6004  -24.4056   13.9788 C   0  0  0  0  0  0  0  0  0  0  0  0
  -26.5063  -24.6018   15.0342 C   0  0  0  0  0  0  0  0  0  0  0  0
  -25.0980  -24.6301   14.4384 C   0  0  0  0  0  0  0  0  0  0  0  0
  -31.5308  -22.0579   17.2050 C   0  0  0  0  0  0  0  0  0  0  0  0
  -24.0423  -24.8661   15.5100 C   0  0  0  0  0  0  0  0  0  1  0  0
  -26.8454  -29.3211   22.4701 C   0  0  1  0  0  0  0  0  0  0  0  0
  -29.5938  -26.8485   23.3081 C   0  0  2  0  0  0  0  0  0  0  0  0
  -31.9425  -22.8089   15.9289 C   0  0  2  0  0  0  0  0  0  0  0  0
  -27.0272  -30.8387   22.7553 C   0  0  0  0  0  0  0  0  0  0  0  0
  -29.7596  -25.4213   14.7340 N   0  0  0  0  0  0  0  0  0  0  0  0
  -26.6896  -19.5859   20.6750 N   0  0  0  0  0  0  0  0  0  0  0  0
  -30.8735  -23.6176   15.3958 N   0  0  0  0  0  0  0  0  0  0  0  0
  -27.8073  -20.2197   21.0688 N   0  0  0  0  0  0  0  0  0  0  0  0
  -24.6812  -28.2621   21.9054 N   0  0  0  0  0  0  0  0  0  0  0  0
  -29.1435  -22.9787   18.7785 N   0  0  0  0  0  0  0  0  0  0  0  0
  -29.7479  -19.9726   22.4044 N   0  0  0  0  0  0  0  0  0  0  0  0
  -27.5940  -16.0420   22.9590 N   0  0  0  0  0  0  0  0  0  0  0  0
  -21.3513  -29.3350   22.6060 N   0  0  0  0  0  0  0  0  0  0  0  0
  -27.8335  -28.4681   23.1215 N   0  0  0  0  0  0  0  0  0  0  0  0
  -31.5045  -22.9281   18.3792 N   0  0  0  0  0  0  0  0  0  0  0  0
  -29.3115  -25.3878   23.2210 N   0  3  0  0  0  0  0  0  0  0  0  0
  -29.4493  -17.2493   23.5583 O   0  0  0  0  0  0  0  0  0  0  0  0
  -22.7944  -29.7793   20.8332 O   0  0  0  0  0  0  0  0  0  0  0  0
  -25.1727  -28.8911   24.0961 O   0  0  0  0  0  0  0  0  0  0  0  0
  -28.6468  -27.4934   21.1810 O   0  0  0  0  0  0  0  0  0  0  0  0
  -30.4638  -24.8270   19.1667 O   0  0  0  0  0  0  0  0  0  0  0  0
  -22.7500  -14.5832   20.6260 O   0  0  0  0  0  0  0  0  0  0  0  0
  -24.2897  -26.1268   16.1313 O   0  0  0  0  0  0  0  0  0  1  0  0
  -24.2918   -9.3689   19.7111 F   0  0  0  0  0  0  0  0  0  0  0  0
  -24.2848  -13.2132   22.4727 F   0  0  0  0  0  0  0  0  0  0  0  0
  1  2  1  0  0  0  0
  1  5  2  0  0  0  0
  2  6  2  0  0  0  0
  3  8  2  0  0  0  0
  3 17  1  0  0  0  0
  4  9  1  0  0  0  0
  4 17  2  0  0  0  0
  5 19  1  0  0  0  0
  6 21  1  0  0  0  0
  7 10  2  0  0  0  0
  7 20  1  0  0  0  0
  8 23  1  0  0  0  0
  9 23  2  0  0  0  0
 10 24  1  0  0  0  0
 11 12  2  0  0  0  0
 11 25  1  0  0  0  0
 12 26  1  0  0  0  0
 13 22  1  0  0  0  0
 13 24  2  0  0  0  0
 14 26  2  0  0  0  0
 14 27  1  0  0  0  0
 15 29  2  0  0  0  0
 15 66  1  0  0  0  0
 16 64  2  0  0  0  0
 16 66  1  0  0  0  0
 17 28  1  0  0  0  0
 18 28  1  0  0  0  0
 18 30  2  0  0  0  0
 18 31  1  0  0  0  0
 19 21  2  0  0  0  0
 19 36  1  0  0  0  0
 20 22  2  0  0  0  0
 20 37  1  0  0  0  0
 21 45  1  0  0  0  0
 22 38  1  0  0  0  0
 23 81  1  0  0  0  0
 24 82  1  0  0  0  0
 25 27  2  0  0  0  0
 25 81  1  0  0  0  0
 26 83  1  0  0  0  0
 27 84  1  0  0  0  0
 28 65  2  0  0  0  0
 29 55  1  0  0  0  0
 29 64  1  0  0  0  0
 30 67  1  0  0  0  0
 30 70  1  0  0  0  0
 31 71  1  0  0  0  0
 31 76  2  0  0  0  0
 32 46  1  0  0  0  0
 32 72  1  0  0  0  0
 32 77  2  0  0  0  0
 33 60  1  0  0  0  0
 33 68  1  0  0  0  0
 33 78  2  0  0  0  0
 34 61  1  0  0  0  0
 34 73  1  0  0  0  0
 34 79  2  0  0  0  0
 35 69  1  0  0  0  0
 35 74  1  0  0  0  0
 35 80  2  0  0  0  0
 36 39  1  0  0  0  0
 37 46  1  0  0  0  0
 38 68  1  0  0  0  0
 39 41  1  0  0  0  0
 40 42  1  0  0  0  0
 40 43  1  0  0  0  0
 41 45  1  0  0  0  0
 42 47  1  0  0  0  0
 43 69  1  0  0  0  0
 44 47  1  0  0  0  0
 44 69  1  0  0  0  0
 45 72  1  0  0  0  0
 46 68  1  0  0  0  0
 47 67  1  0  0  0  0
 48 61  1  0  0  0  0
 49 62  1  0  0  0  0
 50 63  1  0  0  0  0
 51 63  1  0  0  0  0
 52 63  1  0  0  0  0
 53 74  1  0  0  0  0
 54 75  1  0  0  0  0
 55 56  1  0  0  0  0
 56 57  1  0  0  0  0
 57 59  1  0  0  0  0
 58 62  1  0  0  0  0
 58 74  1  0  0  0  0
 59 82  1  0  0  0  0
 60 63  1  0  0  0  0
 60 73  1  0  0  0  0
 61 75  1  0  0  0  0
 62 66  1  0  0  0  0
 65 67  1  0  0  0  0
M  CHG  1  75   1
M  ISO  4  35 100  59 101  74 100  82 101
M  END
> <Batch ID>
0051

> <Smiles>
CNC(C)C(=O)NC(C(=O)N1Cc2cc([101O:1][101CH2:1]CCCc3cn(C(C)C[100N:0](C)[100C:0](=O)N4CCCC(n5nc(-c6ccc(Oc7ccc(F)cc7F)cc6)c(C(N)=O)c5N)C4)cn3)ccc2CC1C(=O)NC1CCCc2ccccc21)C(C)(C)C

> <Shape>
0.218

> <Color>
0.070

> <Negative vol penalty>
0.000

$$$$

  -OEChem-04052317333D

 84 92  0     1  0  0  0  0  0999 V2000
  -19.6205  -27.6131   26.6347 C   0  0  0  0  0  0  0  0  0  0  0  0
  -20.9140  -27.3205   26.2142 C   0  0  0  0  0  0  0  0  0  0  0  0
  -24.2782  -12.3408   21.4416 C   0  0  0  0  0  0  0  0  0  0  0  0
  -25.4172  -12.1711   19.3177 C   0  0  0  0  0  0  0  0  0  0  0  0
  -18.6366  -27.9217   25.6963 C   0  0  0  0  0  0  0  0  0  0  0  0
  -21.2240  -27.3353   24.8547 C   0  0  0  0  0  0  0  0  0  0  0  0
  -26.5196  -29.0557   22.3048 C   0  0  0  0  0  0  0  0  0  0  0  0
  -23.5745  -11.1704   21.1578 C   0  0  0  0  0  0  0  0  0  0  0  0
  -24.7135  -11.0006   19.0339 C   0  0  0  0  0  0  0  0  0  0  0  0
  -27.6173  -28.3309   21.8426 C   0  0  0  0  0  0  0  0  0  0  0  0
  -24.1508   -7.8393   21.2235 C   0  0  0  0  0  0  0  0  0  0  0  0
  -24.0455   -6.8847   22.2350 C   0  0  0  0  0  0  0  0  0  0  0  0
  -26.7219  -28.4141   19.6041 C   0  0  0  0  0  0  0  0  0  0  0  0
  -21.6380   -7.0736   22.1627 C   0  0  0  0  0  0  0  0  0  0  0  0
  -26.6220  -24.2015   20.2765 C   0  0  0  0  0  0  0  0  0  0  0  0
  -26.8519  -22.2965   21.4309 C   0  0  0  0  0  0  0  0  0  0  0  0
  -25.1995  -12.8412   20.5216 C   0  0  0  0  0  0  0  0  0  0  0  0
  -27.1670  -14.1590   21.4704 C   0  0  0  0  0  0  0  0  0  0  0  0
  -18.9371  -27.9498   24.3253 C   0  0  0  0  0  0  0  0  0  0  0  0
  -25.5078  -29.4564   21.4206 C   0  0  0  0  0  0  0  0  0  0  0  0
  -20.2428  -27.6433   23.8970 C   0  0  0  0  0  0  0  0  0  0  0  0
  -25.6137  -29.1461   20.0573 C   0  0  0  0  0  0  0  0  0  0  0  0
  -27.9224  -23.7771   20.1150 C   0  0  0  0  0  0  0  0  0  0  0  0
  -28.0679  -22.5720   20.8454 C   0  0  0  0  0  0  0  0  0  0  0  0
  -23.7921  -10.5003   19.9539 C   0  0  0  0  0  0  0  0  0  0  0  0
  -27.7171  -28.0075   20.4926 C   0  0  0  0  0  0  0  0  0  0  0  0
  -22.9996   -8.4111   20.6815 C   0  0  0  0  0  0  0  0  0  0  0  0
  -22.7891   -6.5018   22.7046 C   0  0  0  0  0  0  0  0  0  0  0  0
  -21.7433   -8.0282   21.1511 C   0  0  0  0  0  0  0  0  0  0  0  0
  -25.9264  -14.0504   20.8139 C   0  0  0  0  0  0  0  0  0  0  0  0
  -27.4234  -15.5080   21.4991 C   0  0  0  0  0  0  0  0  0  0  0  0
  -28.0121  -13.1321   22.0062 C   0  0  0  0  0  0  0  0  0  0  0  0
  -22.3971  -28.8599   21.1526 C   0  0  0  0  0  0  0  0  0  0  0  0
  -22.5683  -31.0914   18.8045 C   0  0  0  0  0  0  0  0  0  0  0  0
  -24.4793  -32.7369   16.5052 C   0  0  0  0  0  0  0  0  0  0  0  0
  -27.5033  -20.3251   18.4815 C   0  0  0  0  0  0  0  0  0  0  0  0
  -17.8289  -28.2426   23.3452 C   0  0  0  0  0  0  0  0  0  0  0  0
  -24.3435  -30.2608   21.9305 C   0  0  0  0  0  0  0  0  0  0  0  0
  -24.5645  -29.5704   19.0635 C   0  0  0  0  0  0  0  0  0  0  0  0
  -18.3300  -28.6033   21.9491 C   0  0  0  0  0  0  0  0  0  0  0  0
  -24.4728  -19.4618   20.4237 C   0  0  0  0  0  0  0  0  0  0  0  0
  -19.4085  -27.6229   21.4992 C   0  0  0  0  0  0  0  0  0  0  0  0
  -24.6591  -17.9682   20.6854 C   0  0  0  0  0  0  0  0  0  0  0  0
  -25.1613  -19.9022   19.1354 C   0  0  0  0  0  0  0  0  0  0  0  0
  -26.7915  -18.0537   19.3341 C   0  0  0  0  0  0  0  0  0  0  0  0
  -20.6240  -27.6733   22.4328 C   0  0  1  0  0  0  0  0  0  0  0  0
  -23.1162  -30.1734   21.0285 C   0  0  1  0  0  0  0  0  0  0  0  0
  -26.1492  -17.5866   20.6489 C   0  0  2  0  0  0  0  0  0  0  0  0
  -29.8089  -21.6738   22.4222 C   0  0  0  0  0  0  0  0  0  0  0  0
  -24.3311  -34.4785   14.7045 C   0  0  0  0  0  0  0  0  0  0  0  0
  -21.2594  -29.0555   16.9465 C   0  0  0  0  0  0  0  0  0  0  0  0
  -21.9961  -30.4562   15.0066 C   0  0  0  0  0  0  0  0  0  0  0  0
  -20.4141  -31.3953   16.6913 C   0  0  0  0  0  0  0  0  0  0  0  0
  -24.5968  -23.3742   21.4866 C   0  0  0  0  0  0  0  0  0  0  0  0
  -29.9232  -20.5856   18.0869 C   0  0  0  0  0  0  0  0  0  0  0  0
  -26.3862  -34.5144   17.9063 C   0  0  0  0  0  0  0  0  0  0  0  0
  -28.9862  -24.4749   19.3056 C   0  0  0  0  0  0  0  0  0  0  0  0
  -30.0061  -25.2364   20.1551 C   0  0  0  0  0  0  0  0  0  0  0  0
  -29.1411  -20.3098   20.4102 C   0  0  0  0  0  0  0  0  0  0  0  0
  -29.3935  -26.3838   20.9498 C   0  0  0  0  0  0  0  0  0  1  0  0
  -29.2909  -21.7539   20.9649 C   0  0  1  0  0  0  0  0  0  0  0  0
  -22.8402  -31.0624   17.3198 C   0  0  1  0  0  0  0  0  0  0  0  0
  -24.6107  -34.2129   16.1756 C   0  0  2  0  0  0  0  0  0  0  0  0
  -21.6464  -30.4825   16.5098 C   0  0  0  0  0  0  0  0  0  0  0  0
  -25.4291  -15.2361   20.4519 N   0  0  0  0  0  0  0  0  0  0  0  0
  -25.9805  -23.2936   21.0780 N   0  0  0  0  0  0  0  0  0  0  0  0
  -26.3620  -16.1024   20.8825 N   0  0  0  0  0  0  0  0  0  0  0  0
  -23.4421  -30.3496   19.6119 N   0  0  0  0  0  0  0  0  0  0  0  0
  -26.5648  -19.4890   19.1083 N   0  0  0  0  0  0  0  0  0  0  0  0
  -28.4510  -16.2319   21.9915 N   0  0  0  0  0  0  0  0  0  0  0  0
  -27.5976  -11.7982   21.8914 N   0  0  0  0  0  0  0  0  0  0  0  0
  -21.4350  -28.8367   22.1442 N   0  0  0  0  0  0  0  0  0  0  0  0
  -23.2112  -32.4229   16.9461 N   0  0  0  0  0  0  0  0  0  0  0  0
  -28.8123  -20.3087   18.9864 N   0  0  0  0  0  0  0  0  0  0  0  0
  -25.9870  -34.6926   16.4865 N   0  3  0  0  0  0  0  0  0  0  0  0
  -29.0946  -13.3910   22.5846 O   0  0  0  0  0  0  0  0  0  0  0  0
  -22.6922  -27.9364   20.4031 O   0  0  0  0  0  0  0  0  0  0  0  0
  -21.6198  -31.7537   19.2327 O   0  0  0  0  0  0  0  0  0  0  0  0
  -25.4077  -31.9413   16.3801 O   0  0  0  0  0  0  0  0  0  0  0  0
  -27.1868  -21.0523   17.5312 O   0  0  0  0  0  0  0  0  0  0  0  0
  -23.1058   -9.3581   19.6768 O   0  0  0  0  0  0  0  0  0  0  0  0
  -28.7870  -27.2996   20.0388 O   0  0  0  0  0  0  0  0  0  1  0  0
  -22.6881   -5.5840   23.6750 F   0  0  0  0  0  0  0  0  0  0  0  0
  -20.6338   -8.5731   20.6335 F   0  0  0  0  0  0  0  0  0  0  0  0
  1  2  1  0  0  0  0
  1  5  2  0  0  0  0
  2  6  2  0  0  0  0
  3  8  2  0  0  0  0
  3 17  1  0  0  0  0
  4  9  1  0  0  0  0
  4 17  2  0  0  0  0
  5 19  1  0  0  0  0
  6 21  1  0  0  0  0
  7 10  2  0  0  0  0
  7 20  1  0  0  0  0
  8 25  1  0  0  0  0
  9 25  2  0  0  0  0
 10 26  1  0  0  0  0
 11 12  2  0  0  0  0
 11 27  1  0  0  0  0
 12 28  1  0  0  0  0
 13 22  1  0  0  0  0
 13 26  2  0  0  0  0
 14 28  2  0  0  0  0
 14 29  1  0  0  0  0
 15 23  2  0  0  0  0
 15 66  1  0  0  0  0
 16 24  2  0  0  0  0
 16 66  1  0  0  0  0
 17 30  1  0  0  0  0
 18 30  1  0  0  0  0
 18 31  2  0  0  0  0
 18 32  1  0  0  0  0
 19 21  2  0  0  0  0
 19 37  1  0  0  0  0
 20 22  2  0  0  0  0
 20 38  1  0  0  0  0
 21 46  1  0  0  0  0
 22 39  1  0  0  0  0
 23 24  1  0  0  0  0
 23 57  1  0  0  0  0
 24 61  1  0  0  0  0
 25 81  1  0  0  0  0
 26 82  1  0  0  0  0
 27 29  2  0  0  0  0
 27 81  1  0  0  0  0
 28 83  1  0  0  0  0
 29 84  1  0  0  0  0
 30 65  2  0  0  0  0
 31 67  1  0  0  0  0
 31 70  1  0  0  0  0
 32 71  1  0  0  0  0
 32 76  2  0  0  0  0
 33 47  1  0  0  0  0
 33 72  1  0  0  0  0
 33 77  2  0  0  0  0
 34 62  1  0  0  0  0
 34 68  1  0  0  0  0
 34 78  2  0  0  0  0
 35 63  1  0  0  0  0
 35 73  1  0  0  0  0
 35 79  2  0  0  0  0
 36 69  1  0  0  0  0
 36 74  1  0  0  0  0
 36 80  2  0  0  0  0
 37 40  1  0  0  0  0
 38 47  1  0  0  0  0
 39 68  1  0  0  0  0
 40 42  1  0  0  0  0
 41 43  1  0  0  0  0
 41 44  1  0  0  0  0
 42 46  1  0  0  0  0
 43 48  1  0  0  0  0
 44 69  1  0  0  0  0
 45 48  1  0  0  0  0
 45 69  1  0  0  0  0
 46 72  1  0  0  0  0
 47 68  1  0  0  0  0
 48 67  1  0  0  0  0
 49 61  1  0  0  0  0
 50 63  1  0  0  0  0
 51 64  1  0  0  0  0
 52 64  1  0  0  0  0
 53 64  1  0  0  0  0
 54 66  1  0  0  0  0
 55 74  1  0  0  0  0
 56 75  1  0  0  0  0
 57 58  1  0  0  0  0
 58 60  1  0  0  0  0
 59 61  1  0  0  0  0
 59 74  1  0  0  0  0
 60 82  1  0  0  0  0
 62 64  1  0  0  0  0
 62 73  1  0  0  0  0
 63 75  1  0  0  0  0
 65 67  1  0  0  0  0
M  CHG  1  75   1
M  ISO  4  36 100  60 101  74 100  82 101
M  END
> <Batch ID>
0051

> <Smiles>
CNC(C)C(=O)NC(C(=O)N1Cc2cc([101O:1][101CH2:1]CCc3cn(C)cc3C(C)C[100N:0](C)[100C:0](=O)N3CCCC(n4nc(-c5ccc(Oc6ccc(F)cc6F)cc5)c(C(N)=O)c4N)C3)ccc2CC1C(=O)NC1CCCc2ccccc21)C(C)(C)C

> <Shape>
0.260

> <Color>
0.087

> <Negative vol penalty>
0.000

$$$$

  -OEChem-04052317333D

 87 95  0     1  0  0  0  0  0999 V2000
  -23.1975  -19.9254   18.2536 C   0  0  0  0  0  0  0  0  0  0  0  0
  -24.3421  -19.6566   18.9973 C   0  0  0  0  0  0  0  0  0  0  0  0
  -22.9978   -9.9231   19.9564 C   0  0  0  0  0  0  0  0  0  0  0  0
  -23.8055   -9.8598   22.2325 C   0  0  0  0  0  0  0  0  0  0  0  0
  -23.1850  -20.9928   17.3567 C   0  0  0  0  0  0  0  0  0  0  0  0
  -25.4753  -20.4545   18.8437 C   0  0  0  0  0  0  0  0  0  0  0  0
  -29.4977  -22.0121   23.1911 C   0  0  0  0  0  0  0  0  0  0  0  0
  -22.2129   -8.7969   20.2036 C   0  0  0  0  0  0  0  0  0  0  0  0
  -23.0206   -8.7336   22.4797 C   0  0  0  0  0  0  0  0  0  0  0  0
  -30.7485  -21.5030   23.5376 C   0  0  0  0  0  0  0  0  0  0  0  0
  -20.9543   -6.0564   23.8143 C   0  0  0  0  0  0  0  0  0  0  0  0
  -20.2217   -6.0232   25.0008 C   0  0  0  0  0  0  0  0  0  0  0  0
  -31.8068  -23.2104   22.2019 C   0  0  0  0  0  0  0  0  0  0  0  0
  -19.0421   -8.0216   24.3283 C   0  0  0  0  0  0  0  0  0  0  0  0
  -32.9231  -19.5428   20.2280 C   0  0  0  0  0  0  0  0  0  0  0  0
  -23.7941  -10.4546   20.9708 C   0  0  0  0  0  0  0  0  0  0  0  0
  -24.2361  -12.9655   20.8847 C   0  0  0  0  0  0  0  0  0  0  0  0
  -24.3154  -21.8101   17.1992 C   0  0  0  0  0  0  0  0  0  0  0  0
  -29.3916  -23.1194   22.3373 C   0  0  0  0  0  0  0  0  0  0  0  0
  -25.4784  -21.5331   17.9430 C   0  0  0  0  0  0  0  0  0  0  0  0
  -30.5535  -23.7332   21.8482 C   0  0  0  0  0  0  0  0  0  0  0  0
  -22.2243   -8.2021   21.4652 C   0  0  0  0  0  0  0  0  0  0  0  0
  -31.9032  -22.1003   23.0406 C   0  0  0  0  0  0  0  0  0  0  0  0
  -20.7308   -7.0722   22.8848 C   0  0  0  0  0  0  0  0  0  0  0  0
  -19.2656   -7.0058   25.2578 C   0  0  0  0  0  0  0  0  0  0  0  0
  -19.7747   -8.0547   23.1418 C   0  0  0  0  0  0  0  0  0  0  0  0
  -24.6055  -11.6177   20.7159 C   0  0  0  0  0  0  0  0  0  0  0  0
  -32.5993  -18.4235   19.4378 C   0  0  0  0  0  0  0  0  0  0  0  0
  -34.1021  -19.1993   20.8431 C   0  0  0  0  0  0  0  0  0  0  0  0
  -25.3500  -13.6764   20.5100 C   0  0  0  0  0  0  0  0  0  0  0  0
  -22.9968  -13.5250   21.3396 C   0  0  0  0  0  0  0  0  0  0  0  0
  -28.1072  -23.6297   19.4748 C   0  0  0  0  0  0  0  0  0  0  0  0
  -28.9147  -26.7100   20.0927 C   0  0  0  0  0  0  0  0  0  0  0  0
  -30.9075  -28.8975   21.7929 C   0  0  0  0  0  0  0  0  0  0  0  0
  -30.9922  -14.1511   21.0174 C   0  0  0  0  0  0  0  0  0  0  0  0
  -24.2702  -22.9236   16.1829 C   0  0  0  0  0  0  0  0  0  0  0  0
  -28.0357  -23.6730   21.9945 C   0  0  0  0  0  0  0  0  0  0  0  0
  -30.4943  -24.9366   20.9444 C   0  0  0  0  0  0  0  0  0  0  0  0
  -25.3873  -23.9498   16.3537 C   0  0  0  0  0  0  0  0  0  0  0  0
  -29.5907  -12.2074   18.1962 C   0  0  0  0  0  0  0  0  0  0  0  0
  -26.7284  -23.2509   16.5529 C   0  0  0  0  0  0  0  0  0  0  0  0
  -28.1596  -11.9360   18.6571 C   0  0  0  0  0  0  0  0  0  0  0  0
  -30.5463  -12.3634   19.3753 C   0  0  0  0  0  0  0  0  0  0  0  0
  -28.6909  -13.1219   20.8232 C   0  0  0  0  0  0  0  0  0  0  0  0
  -26.7192  -22.3910   17.8226 C   0  0  1  0  0  0  0  0  0  0  0  0
  -28.0317  -24.4886   20.7053 C   0  0  1  0  0  0  0  0  0  0  0  0
  -27.6942  -13.0058   19.6602 C   0  0  2  0  0  0  0  0  0  0  0  0
  -31.4194  -16.1497   23.5858 C   0  0  0  0  0  0  0  0  0  0  0  0
  -31.3582  -31.3515   22.0614 C   0  0  0  0  0  0  0  0  0  0  0  0
  -30.3819  -26.7307   17.4175 C   0  0  0  0  0  0  0  0  0  0  0  0
  -31.5705  -28.8037   18.1646 C   0  0  0  0  0  0  0  0  0  0  0  0
  -29.0886  -28.8128   17.9141 C   0  0  0  0  0  0  0  0  0  0  0  0
  -35.5505  -17.1475   20.7630 C   0  0  0  0  0  0  0  0  0  0  0  0
  -30.2089  -28.8295   24.6681 C   0  0  0  0  0  0  0  0  0  0  0  0
  -29.7363  -16.6008   17.7745 C   0  0  0  0  0  0  0  0  0  0  0  0
  -31.4257  -18.2504   18.5653 C   0  0  0  0  0  0  0  0  0  0  0  0
  -34.9703  -19.9584   21.8144 C   0  0  0  0  0  0  0  0  0  0  0  0
  -34.6068  -19.7202   23.2816 C   0  0  0  0  0  0  0  0  0  0  0  0
  -31.5219  -16.3109   22.0826 C   0  0  0  0  0  0  0  0  0  0  0  0
  -29.3825  -16.0981   20.8729 C   0  0  0  0  0  0  0  0  0  0  0  0
  -29.6981  -17.3870   20.1371 C   0  0  0  0  0  0  0  0  0  0  0  0
  -33.2080  -20.2056   23.6436 C   0  0  0  0  0  0  0  0  0  1  0  0
  -30.1346  -27.5650   19.8483 C   0  0  1  0  0  0  0  0  0  0  0  0
  -30.5814  -30.1524   22.5824 C   0  0  2  0  0  0  0  0  0  0  0  0
  -30.2953  -27.9542   18.3516 C   0  0  0  0  0  0  0  0  0  0  0  0
  -25.8563  -11.4780   20.2687 N   0  0  0  0  0  0  0  0  0  0  0  0
  -33.5000  -17.4425   19.5396 N   0  0  0  0  0  0  0  0  0  0  0  0
  -34.4014  -17.9443   20.4009 N   0  0  0  0  0  0  0  0  0  0  0  0
  -26.2825  -12.7473   20.1532 N   0  0  0  0  0  0  0  0  0  0  0  0
  -29.1452  -25.4369   20.6331 N   0  0  0  0  0  0  0  0  0  0  0  0
  -30.0582  -13.3548   20.3345 N   0  0  0  0  0  0  0  0  0  0  0  0
  -25.6130  -14.9993   20.4543 N   0  0  0  0  0  0  0  0  0  0  0  0
  -21.9560  -12.6518   21.6839 N   0  0  0  0  0  0  0  0  0  0  0  0
  -26.8763  -23.2220   18.9969 N   0  0  0  0  0  0  0  0  0  0  0  0
  -30.0228  -28.7040   20.7531 N   0  0  0  0  0  0  0  0  0  0  0  0
  -30.5851  -15.4432   21.3830 N   0  0  0  0  0  0  0  0  0  0  0  0
  -30.9202  -29.9619   24.0211 N   0  3  0  0  0  0  0  0  0  0  0  0
  -30.5552  -17.0911   18.9370 N   0  3  1  0  0  0  0  0  0  0  0  0
  -22.8122  -14.7630   21.4222 O   0  0  0  0  0  0  0  0  0  0  0  0
  -29.2010  -23.3582   18.9937 O   0  0  0  0  0  0  0  0  0  0  0  0
  -27.7980  -27.1580   19.8211 O   0  0  0  0  0  0  0  0  0  0  0  0
  -31.8546  -28.1644   22.0686 O   0  0  0  0  0  0  0  0  0  0  0  0
  -32.1285  -13.7346   21.2767 O   0  0  0  0  0  0  0  0  0  0  0  0
  -21.4584   -7.1032   21.7069 O   0  0  0  0  0  0  0  0  0  0  0  0
  -33.1253  -21.6050   23.3767 O   0  0  0  0  0  0  0  0  0  1  0  0
  -18.5611   -6.9730   26.3966 F   0  0  0  0  0  0  0  0  0  0  0  0
  -19.5547   -9.0324   22.2521 F   0  0  0  0  0  0  0  0  0  0  0  0
  1  2  1  0  0  0  0
  1  5  2  0  0  0  0
  2  6  2  0  0  0  0
  3  8  2  0  0  0  0
  3 16  1  0  0  0  0
  4  9  1  0  0  0  0
  4 16  2  0  0  0  0
  5 18  1  0  0  0  0
  6 20  1  0  0  0  0
  7 10  2  0  0  0  0
  7 19  1  0  0  0  0
  8 22  1  0  0  0  0
  9 22  2  0  0  0  0
 10 23  1  0  0  0  0
 11 12  2  0  0  0  0
 11 24  1  0  0  0  0
 12 25  1  0  0  0  0
 13 21  1  0  0  0  0
 13 23  2  0  0  0  0
 14 25  2  0  0  0  0
 14 26  1  0  0  0  0
 15 28  1  0  0  0  0
 15 29  2  0  0  0  0
 16 27  1  0  0  0  0
 17 27  1  0  0  0  0
 17 30  2  0  0  0  0
 17 31  1  0  0  0  0
 18 20  2  0  0  0  0
 18 36  1  0  0  0  0
 19 21  2  0  0  0  0
 19 37  1  0  0  0  0
 20 45  1  0  0  0  0
 21 38  1  0  0  0  0
 22 84  1  0  0  0  0
 23 85  1  0  0  0  0
 24 26  2  0  0  0  0
 24 84  1  0  0  0  0
 25 86  1  0  0  0  0
 26 87  1  0  0  0  0
 27 66  2  0  0  0  0
 28 56  1  0  0  0  0
 28 67  2  0  0  0  0
 29 57  1  0  0  0  0
 29 68  1  0  0  0  0
 30 69  1  0  0  0  0
 30 72  1  0  0  0  0
 31 73  1  0  0  0  0
 31 79  2  0  0  0  0
 32 46  1  0  0  0  0
 32 74  1  0  0  0  0
 32 80  2  0  0  0  0
 33 63  1  0  0  0  0
 33 70  1  0  0  0  0
 33 81  2  0  0  0  0
 34 64  1  0  0  0  0
 34 75  1  0  0  0  0
 34 82  2  0  0  0  0
 35 71  1  0  0  0  0
 35 76  1  0  0  0  0
 35 83  2  0  0  0  0
 36 39  1  0  0  0  0
 37 46  1  0  0  0  0
 38 70  1  0  0  0  0
 39 41  1  0  0  0  0
 40 42  1  0  0  0  0
 40 43  1  0  0  0  0
 41 45  1  0  0  0  0
 42 47  1  0  0  0  0
 43 71  1  0  0  0  0
 44 47  1  0  0  0  0
 44 71  1  0  0  0  0
 45 74  1  0  0  0  0
 46 70  1  0  0  0  0
 47 69  1  0  0  0  0
 48 59  1  0  0  0  0
 49 64  1  0  0  0  0
 50 65  1  0  0  0  0
 51 65  1  0  0  0  0
 52 65  1  0  0  0  0
 53 68  1  0  0  0  0
 54 77  1  0  0  0  0
 55 78  1  0  0  0  0
 56 78  1  0  0  0  0
 57 58  1  0  0  0  0
 58 62  1  0  0  0  0
 59 76  1  0  0  0  0
 60 61  1  0  0  0  0
 60 76  1  0  0  0  0
 61 78  1  0  0  0  0
 62 85  1  0  0  0  0
 63 65  1  0  0  0  0
 63 75  1  0  0  0  0
 64 77  1  0  0  0  0
 66 69  1  0  0  0  0
 67 68  1  0  0  0  0
M  CHG  2  77   1  78   1
M  ISO  4  35 100  62 101  76 100  85 101
M  END
> <Batch ID>
0051

> <Smiles>
CC[100N:0](CCN(C)Cc1cc(CC[101CH2:1][101O:1]c2ccc3c(c2)CN(C(=O)C(NC(=O)C(C)NC)C(C)(C)C)C(C(=O)NC2CCCc4ccccc42)C3)n(C)n1)[100C:0](=O)N1CCCC(n2nc(-c3ccc(Oc4ccc(F)cc4F)cc3)c(C(N)=O)c2N)C1

> <Shape>
0.228

> <Color>
0.198

> <Negative vol penalty>
0.000

$$$$

  -OEChem-04052317333D

 85 93  0     1  0  0  0  0  0999 V2000
  -30.3478  -33.0399   23.2003 C   0  0  0  0  0  0  0  0  0  0  0  0
  -30.6510  -31.7143   22.9067 C   0  0  0  0  0  0  0  0  0  0  0  0
  -23.9967   -9.4329   21.3602 C   0  0  0  0  0  0  0  0  0  0  0  0
  -24.6419  -10.4843   23.4375 C   0  0  0  0  0  0  0  0  0  0  0  0
  -29.3421  -33.3367   24.1192 C   0  0  0  0  0  0  0  0  0  0  0  0
  -29.9493  -30.6846   23.5327 C   0  0  0  0  0  0  0  0  0  0  0  0
  -27.5336  -24.0466   22.3422 C   0  0  0  0  0  0  0  0  0  0  0  0
  -23.5761   -8.3035   22.0624 C   0  0  0  0  0  0  0  0  0  0  0  0
  -24.2212   -9.3549   24.1398 C   0  0  0  0  0  0  0  0  0  0  0  0
  -27.5642  -22.7719   22.9063 C   0  0  0  0  0  0  0  0  0  0  0  0
  -20.8924   -7.3643   23.8924 C   0  0  0  0  0  0  0  0  0  0  0  0
  -19.6634   -6.8045   23.5435 C   0  0  0  0  0  0  0  0  0  0  0  0
  -25.7934  -23.4047   24.4173 C   0  0  0  0  0  0  0  0  0  0  0  0
  -20.7665   -4.7273   22.9907 C   0  0  0  0  0  0  0  0  0  0  0  0
  -26.6099  -19.0631   27.1811 C   0  0  0  0  0  0  0  0  0  0  0  0
  -24.5296  -10.5233   22.0477 C   0  0  0  0  0  0  0  0  0  0  0  0
  -24.1946  -12.8204   20.9901 C   0  0  0  0  0  0  0  0  0  0  0  0
  -28.6212  -32.3102   24.7496 C   0  0  0  0  0  0  0  0  0  0  0  0
  -26.6386  -25.0149   22.8196 C   0  0  0  0  0  0  0  0  0  0  0  0
  -28.9339  -30.9679   24.4619 C   0  0  0  0  0  0  0  0  0  0  0  0
  -25.7517  -24.6900   23.8559 C   0  0  0  0  0  0  0  0  0  0  0  0
  -23.6883   -8.2645   23.4522 C   0  0  0  0  0  0  0  0  0  0  0  0
  -26.6960  -22.4517   23.9459 C   0  0  0  0  0  0  0  0  0  0  0  0
  -22.0585   -6.6057   23.7903 C   0  0  0  0  0  0  0  0  0  0  0  0
  -19.6005   -5.4860   23.0927 C   0  0  0  0  0  0  0  0  0  0  0  0
  -21.9956   -5.2872   23.3395 C   0  0  0  0  0  0  0  0  0  0  0  0
  -24.9648  -11.6900   21.3228 C   0  0  0  0  0  0  0  0  0  0  0  0
  -26.0113  -19.5459   26.0517 C   0  0  0  0  0  0  0  0  0  0  0  0
  -25.0619  -13.6382   20.3078 C   0  0  0  0  0  0  0  0  0  0  0  0
  -25.8807  -17.3366   26.0031 C   0  0  0  0  0  0  0  0  0  0  0  0
  -22.8182  -13.1058   21.2726 C   0  0  0  0  0  0  0  0  0  0  0  0
  -26.9407  -27.8690   24.1859 C   0  0  0  0  0  0  0  0  0  0  0  0
  -23.7119  -27.9254   23.8785 C   0  0  0  0  0  0  0  0  0  0  0  0
  -20.8004  -26.1728   23.5648 C   0  0  0  0  0  0  0  0  0  0  0  0
  -30.8369  -14.9033   20.6718 C   0  0  0  0  0  0  0  0  0  0  0  0
  -27.5749  -32.6796   25.7712 C   0  0  0  0  0  0  0  0  0  0  0  0
  -26.5997  -26.3769   22.1825 C   0  0  0  0  0  0  0  0  0  0  0  0
  -24.7578  -25.6873   24.3909 C   0  0  0  0  0  0  0  0  0  0  0  0
  -26.6241  -31.5346   26.1105 C   0  0  0  0  0  0  0  0  0  0  0  0
  -29.3167  -12.9891   17.8921 C   0  0  0  0  0  0  0  0  0  0  0  0
  -27.4047  -30.2474   26.3561 C   0  0  0  0  0  0  0  0  0  0  0  0
  -28.0000  -12.5084   18.4997 C   0  0  0  0  0  0  0  0  0  0  0  0
  -30.3932  -13.1865   18.9550 C   0  0  0  0  0  0  0  0  0  0  0  0
  -28.6669  -13.6055   20.6750 C   0  0  0  0  0  0  0  0  0  0  0  0
  -28.1783  -29.8235   25.1018 C   0  0  1  0  0  0  0  0  0  0  0  0
  -26.0013  -27.4452   23.0924 C   0  0  1  0  0  0  0  0  0  0  0  0
  -27.5473  -13.4414   19.6362 C   0  0  2  0  0  0  0  0  0  0  0  0
  -18.3189  -26.4935   23.3737 C   0  0  0  0  0  0  0  0  0  0  0  0
  -23.5637  -28.5385   26.8638 C   0  0  0  0  0  0  0  0  0  0  0  0
  -21.1407  -27.9113   26.8014 C   0  0  0  0  0  0  0  0  0  0  0  0
  -21.9630  -29.8405   25.4507 C   0  0  0  0  0  0  0  0  0  0  0  0
  -27.0224  -16.7808   28.1299 C   0  0  0  0  0  0  0  0  0  0  0  0
  -31.2533  -16.6343   22.3776 C   0  0  0  0  0  0  0  0  0  0  0  0
  -26.5245  -13.8094   25.0543 C   0  0  0  0  0  0  0  0  0  0  0  0
  -20.7200  -24.8719   20.9077 C   0  0  0  0  0  0  0  0  0  0  0  0
  -25.8069  -20.9488   25.5604 C   0  0  0  0  0  0  0  0  0  1  0  0
  -25.5692  -15.9563   25.5553 C   0  0  0  0  0  0  0  0  0  0  0  0
  -28.5329  -15.4725   23.3838 C   0  0  0  0  0  0  0  0  0  0  0  0
  -28.9252  -15.9221   21.9795 C   0  0  0  0  0  0  0  0  0  0  0  0
  -27.0510  -15.7087   23.6803 C   0  0  0  0  0  0  0  0  0  0  0  0
  -22.5487  -27.4874   24.7352 C   0  0  1  0  0  0  0  0  0  0  0  0
  -19.6269  -26.3310   22.6150 C   0  0  2  0  0  0  0  0  0  0  0  0
  -22.3240  -28.4260   25.9543 C   0  0  0  0  0  0  0  0  0  0  0  0
  -26.2245  -11.7781   20.8876 N   0  0  0  0  0  0  0  0  0  0  0  0
  -26.5141  -17.6935   27.1251 N   0  0  0  0  0  0  0  0  0  0  0  0
  -26.2524  -12.9736   20.2743 N   0  0  0  0  0  0  0  0  0  0  0  0
  -25.5696  -18.4558   25.3413 N   0  3  0  0  0  0  0  0  0  0  0  0
  -24.7627  -27.0075   23.7394 N   0  0  0  0  0  0  0  0  0  0  0  0
  -29.9217  -14.0420   20.0445 N   0  0  0  0  0  0  0  0  0  0  0  0
  -24.9146  -14.8536   19.7391 N   0  0  0  0  0  0  0  0  0  0  0  0
  -22.0714  -12.1568   21.9840 N   0  0  0  0  0  0  0  0  0  0  0  0
  -27.2873  -29.2059   24.1431 N   0  0  0  0  0  0  0  0  0  0  0  0
  -21.4001  -27.3831   23.8417 N   0  0  0  0  0  0  0  0  0  0  0  0
  -30.3455  -15.7163   21.7044 N   0  0  0  0  0  0  0  0  0  0  0  0
  -26.7280  -15.2643   25.0428 N   0  0  2  0  0  0  0  0  0  0  0  0
  -19.5118  -25.1371   21.7305 N   0  3  0  0  0  0  0  0  0  0  0  0
  -22.2624  -14.1636   20.8908 O   0  0  0  0  0  0  0  0  0  0  0  0
  -27.3216  -27.0443   25.0084 O   0  0  0  0  0  0  0  0  0  0  0  0
  -23.6860  -29.0379   23.3464 O   0  0  0  0  0  0  0  0  0  0  0  0
  -21.1479  -25.0848   24.0189 O   0  0  0  0  0  0  0  0  0  0  0  0
  -32.0232  -14.9502   20.3220 O   0  0  0  0  0  0  0  0  0  0  0  0
  -23.2778   -7.1627   24.1378 O   0  0  0  0  0  0  0  0  0  0  0  0
  -26.7243  -21.2085   24.4987 O   0  0  0  0  0  0  0  0  0  1  0  0
  -18.4200   -4.9480   22.7592 F   0  0  0  0  0  0  0  0  0  0  0  0
  -23.1123   -4.5531   23.2406 F   0  0  0  0  0  0  0  0  0  0  0  0
  1  2  1  0  0  0  0
  1  5  2  0  0  0  0
  2  6  2  0  0  0  0
  3  8  2  0  0  0  0
  3 16  1  0  0  0  0
  4  9  1  0  0  0  0
  4 16  2  0  0  0  0
  5 18  1  0  0  0  0
  6 20  1  0  0  0  0
  7 10  2  0  0  0  0
  7 19  1  0  0  0  0
  8 22  1  0  0  0  0
  9 22  2  0  0  0  0
 10 23  1  0  0  0  0
 11 12  2  0  0  0  0
 11 24  1  0  0  0  0
 12 25  1  0  0  0  0
 13 21  1  0  0  0  0
 13 23  2  0  0  0  0
 14 25  2  0  0  0  0
 14 26  1  0  0  0  0
 15 28  2  0  0  0  0
 15 65  1  0  0  0  0
 16 27  1  0  0  0  0
 17 27  1  0  0  0  0
 17 29  2  0  0  0  0
 17 31  1  0  0  0  0
 18 20  2  0  0  0  0
 18 36  1  0  0  0  0
 19 21  2  0  0  0  0
 19 37  1  0  0  0  0
 20 45  1  0  0  0  0
 21 38  1  0  0  0  0
 22 82  1  0  0  0  0
 23 83  1  0  0  0  0
 24 26  2  0  0  0  0
 24 82  1  0  0  0  0
 25 84  1  0  0  0  0
 26 85  1  0  0  0  0
 27 64  2  0  0  0  0
 28 56  1  0  0  0  0
 28 67  1  0  0  0  0
 29 66  1  0  0  0  0
 29 70  1  0  0  0  0
 30 57  1  0  0  0  0
 30 65  1  0  0  0  0
 30 67  2  0  0  0  0
 31 71  1  0  0  0  0
 31 77  2  0  0  0  0
 32 46  1  0  0  0  0
 32 72  1  0  0  0  0
 32 78  2  0  0  0  0
 33 61  1  0  0  0  0
 33 68  1  0  0  0  0
 33 79  2  0  0  0  0
 34 62  1  0  0  0  0
 34 73  1  0  0  0  0
 34 80  2  0  0  0  0
 35 69  1  0  0  0  0
 35 74  1  0  0  0  0
 35 81  2  0  0  0  0
 36 39  1  0  0  0  0
 37 46  1  0  0  0  0
 38 68  1  0  0  0  0
 39 41  1  0  0  0  0
 40 42  1  0  0  0  0
 40 43  1  0  0  0  0
 41 45  1  0  0  0  0
 42 47  1  0  0  0  0
 43 69  1  0  0  0  0
 44 47  1  0  0  0  0
 44 69  1  0  0  0  0
 45 72  1  0  0  0  0
 46 68  1  0  0  0  0
 47 66  1  0  0  0  0
 48 62  1  0  0  0  0
 49 63  1  0  0  0  0
 50 63  1  0  0  0  0
 51 63  1  0  0  0  0
 52 65  1  0  0  0  0
 53 74  1  0  0  0  0
 54 75  1  0  0  0  0
 55 76  1  0  0  0  0
 56 83  1  0  0  0  0
 57 75  1  0  0  0  0
 58 59  1  0  0  0  0
 58 60  1  0  0  0  0
 59 74  1  0  0  0  0
 60 75  1  0  0  0  0
 61 63  1  0  0  0  0
 61 73  1  0  0  0  0
 62 76  1  0  0  0  0
 64 66  1  0  0  0  0
M  CHG  2  67   1  76   1
M  ISO  4  35 100  56 101  74 100  83 101
M  END
> <Batch ID>
0051

> <Smiles>
CNC(C)C(=O)NC(C(=O)N1Cc2cc([101O:1][101CH2:1]c3cn(C)c(CN(C)CCC[100N:0](C)[100C:0](=O)N4CCCC(n5nc(-c6ccc(Oc7ccc(F)cc7F)cc6)c(C(N)=O)c5N)C4)n3)ccc2CC1C(=O)NC1CCCc2ccccc21)C(C)(C)C

> <Shape>
0.225

> <Color>
0.139

> <Negative vol penalty>
0.000

$$$$

  -OEChem-04052317333D

 85 93  0     1  0  0  0  0  0999 V2000
  -30.2554  -22.1543   16.8365 C   0  0  0  0  0  0  0  0  0  0  0  0
  -29.2092  -22.0750   17.7501 C   0  0  0  0  0  0  0  0  0  0  0  0
  -26.8786  -12.9428   20.7450 C   0  0  0  0  0  0  0  0  0  0  0  0
  -27.5473  -12.4131   18.4846 C   0  0  0  0  0  0  0  0  0  0  0  0
  -31.2081  -23.1652   16.9554 C   0  0  0  0  0  0  0  0  0  0  0  0
  -29.1158  -23.0062   18.7839 C   0  0  0  0  0  0  0  0  0  0  0  0
  -24.4041  -24.7563   19.4023 C   0  0  0  0  0  0  0  0  0  0  0  0
  -26.3452  -11.6618   20.8874 C   0  0  0  0  0  0  0  0  0  0  0  0
  -27.0139  -11.1321   18.6270 C   0  0  0  0  0  0  0  0  0  0  0  0
  -23.5016  -23.9319   20.0729 C   0  0  0  0  0  0  0  0  0  0  0  0
  -24.4872   -8.6495   21.7225 C   0  0  0  0  0  0  0  0  0  0  0  0
  -23.2283   -8.5313   22.3113 C   0  0  0  0  0  0  0  0  0  0  0  0
  -23.8446  -25.2083   22.0909 C   0  0  0  0  0  0  0  0  0  0  0  0
  -22.2797   -9.8951   20.5571 C   0  0  0  0  0  0  0  0  0  0  0  0
  -19.2372  -19.8505   21.4063 C   0  0  0  0  0  0  0  0  0  0  0  0
  -18.6027  -19.5028   20.2472 C   0  0  0  0  0  0  0  0  0  0  0  0
  -27.4796  -13.3185   19.5436 C   0  0  0  0  0  0  0  0  0  0  0  0
  -29.3444  -15.0532   19.6878 C   0  0  0  0  0  0  0  0  0  0  0  0
  -31.1209  -24.1150   17.9855 C   0  0  0  0  0  0  0  0  0  0  0  0
  -25.0430  -25.8079   20.0749 C   0  0  0  0  0  0  0  0  0  0  0  0
  -30.0690  -24.0300   18.9175 C   0  0  0  0  0  0  0  0  0  0  0  0
  -24.7529  -26.0461   21.4259 C   0  0  0  0  0  0  0  0  0  0  0  0
  -26.4129  -10.7565   19.8285 C   0  0  0  0  0  0  0  0  0  0  0  0
  -23.2239  -24.1561   21.4182 C   0  0  0  0  0  0  0  0  0  0  0  0
  -24.6424   -9.3906   20.5510 C   0  0  0  0  0  0  0  0  0  0  0  0
  -22.1246   -9.1541   21.7286 C   0  0  0  0  0  0  0  0  0  0  0  0
  -23.5387  -10.0134   19.9683 C   0  0  0  0  0  0  0  0  0  0  0  0
  -28.0302  -14.6417   19.3957 C   0  0  0  0  0  0  0  0  0  0  0  0
  -29.3620  -16.3913   19.3786 C   0  0  0  0  0  0  0  0  0  0  0  0
  -20.7133  -18.8532   20.0922 C   0  0  0  0  0  0  0  0  0  0  0  0
  -30.4504  -14.2937   20.1935 C   0  0  0  0  0  0  0  0  0  0  0  0
  -28.0626  -26.5264   20.7601 C   0  0  0  0  0  0  0  0  0  0  0  0
  -26.7486  -29.2795   21.8628 C   0  0  0  0  0  0  0  0  0  0  0  0
  -23.9988  -30.8931   23.0799 C   0  0  0  0  0  0  0  0  0  0  0  0
  -24.4099  -16.7254   17.2372 C   0  0  0  0  0  0  0  0  0  0  0  0
  -32.2009  -25.1613   18.1014 C   0  0  0  0  0  0  0  0  0  0  0  0
  -25.9937  -26.7046   19.3304 C   0  0  0  0  0  0  0  0  0  0  0  0
  -25.3967  -27.1743   22.1883 C   0  0  0  0  0  0  0  0  0  0  0  0
  -31.8201  -26.3324   19.0036 C   0  0  0  0  0  0  0  0  0  0  0  0
  -25.6910  -18.6334   20.0699 C   0  0  0  0  0  0  0  0  0  0  0  0
  -31.2066  -25.8261   20.3051 C   0  0  0  0  0  0  0  0  0  0  0  0
  -27.1202  -18.9295   19.6298 C   0  0  0  0  0  0  0  0  0  0  0  0
  -24.7176  -18.6375   18.8942 C   0  0  0  0  0  0  0  0  0  0  0  0
  -26.5435  -17.9740   17.3425 C   0  0  0  0  0  0  0  0  0  0  0  0
  -29.9197  -25.0362   20.0379 C   0  0  1  0  0  0  0  0  0  0  0  0
  -26.9752  -27.4278   20.2475 C   0  0  1  0  0  0  0  0  0  0  0  0
  -27.5915  -18.0414   18.4675 C   0  0  2  0  0  0  0  0  0  0  0  0
  -23.2960  -13.6249   17.8296 C   0  0  0  0  0  0  0  0  0  0  0  0
  -23.2424  -33.1304   23.9284 C   0  0  0  0  0  0  0  0  0  0  0  0
  -22.8433  -21.1208   23.9125 C   0  0  0  0  0  0  0  0  0  0  0  0
  -28.1880  -28.7622   24.5029 C   0  0  0  0  0  0  0  0  0  0  0  0
  -26.6800  -30.4486   25.5753 C   0  0  0  0  0  0  0  0  0  0  0  0
  -28.2244  -31.1450   23.7443 C   0  0  0  0  0  0  0  0  0  0  0  0
  -21.9842  -31.1578   20.9281 C   0  0  0  0  0  0  0  0  0  0  0  0
  -21.9693  -18.2696   19.5592 C   0  0  0  0  0  0  0  0  0  0  0  0
  -22.3055  -16.8611   20.0967 C   0  0  0  0  0  0  0  0  0  0  0  0
  -21.6113  -19.6121   22.3329 C   0  0  0  0  0  0  0  0  0  0  0  0
  -22.6309  -14.9706   17.6222 C   0  0  0  0  0  0  0  0  0  0  0  0
  -23.5754  -16.2524   19.5056 C   0  0  0  0  0  0  0  0  0  0  0  0
  -22.2419  -22.0005   21.6305 C   0  0  0  0  0  0  0  0  0  1  0  0
  -26.1947  -29.7440   23.1881 C   0  0  1  0  0  0  0  0  0  0  0  0
  -23.3675  -32.2242   22.7135 C   0  0  2  0  0  0  0  0  0  0  0  0
  -21.8112  -21.0763   22.7796 C   0  0  2  0  0  0  0  0  0  0  0  0
  -27.3109  -30.0024   24.2391 C   0  0  0  0  0  0  0  0  0  0  0  0
  -27.2681  -15.6378   18.9363 N   0  0  0  0  0  0  0  0  0  0  0  0
  -20.5415  -19.4361   21.2830 N   0  0  0  0  0  0  0  0  0  0  0  0
  -28.1061  -16.6885   18.9375 N   0  0  0  0  0  0  0  0  0  0  0  0
  -19.5398  -18.8878   19.4525 N   0  3  0  0  0  0  0  0  0  0  0  0
  -26.3240  -28.0195   21.4179 N   0  0  0  0  0  0  0  0  0  0  0  0
  -25.1689  -17.7630   17.8042 N   0  0  0  0  0  0  0  0  0  0  0  0
  -30.3291  -17.3309   19.4437 N   0  0  0  0  0  0  0  0  0  0  0  0
  -30.2598  -12.9305   20.4573 N   0  0  0  0  0  0  0  0  0  0  0  0
  -28.8206  -25.9377   19.7659 N   0  0  0  0  0  0  0  0  0  0  0  0
  -25.3655  -30.9088   22.8983 N   0  0  0  0  0  0  0  0  0  0  0  0
  -23.4863  -16.0698   18.0637 N   0  0  0  0  0  0  0  0  0  0  0  0
  -22.0072  -32.0128   22.1428 N   0  3  0  0  0  0  0  0  0  0  0  0
  -31.5698  -14.8123   20.4205 O   0  0  0  0  0  0  0  0  0  0  0  0
  -28.2044  -26.3772   21.9681 O   0  0  0  0  0  0  0  0  0  0  0  0
  -27.5237  -30.0109   21.2416 O   0  0  0  0  0  0  0  0  0  0  0  0
  -23.3452  -29.9365   23.4900 O   0  0  0  0  0  0  0  0  0  0  0  0
  -24.5509  -16.3941   16.0525 O   0  0  0  0  0  0  0  0  0  0  0  0
  -25.8928   -9.5064   19.9672 O   0  0  0  0  0  0  0  0  0  0  0  0
  -22.3439  -23.3526   22.0753 O   0  0  0  0  0  0  0  0  0  1  0  0
  -20.9154   -9.0392   22.2934 F   0  0  0  0  0  0  0  0  0  0  0  0
  -23.6814  -10.7257   18.8422 F   0  0  0  0  0  0  0  0  0  0  0  0
  1  2  1  0  0  0  0
  1  5  2  0  0  0  0
  2  6  2  0  0  0  0
  3  8  2  0  0  0  0
  3 17  1  0  0  0  0
  4  9  1  0  0  0  0
  4 17  2  0  0  0  0
  5 19  1  0  0  0  0
  6 21  1  0  0  0  0
  7 10  2  0  0  0  0
  7 20  1  0  0  0  0
  8 23  1  0  0  0  0
  9 23  2  0  0  0  0
 10 24  1  0  0  0  0
 11 12  2  0  0  0  0
 11 25  1  0  0  0  0
 12 26  1  0  0  0  0
 13 22  1  0  0  0  0
 13 24  2  0  0  0  0
 14 26  2  0  0  0  0
 14 27  1  0  0  0  0
 15 16  2  0  0  0  0
 15 66  1  0  0  0  0
 16 68  1  0  0  0  0
 17 28  1  0  0  0  0
 18 28  1  0  0  0  0
 18 29  2  0  0  0  0
 18 31  1  0  0  0  0
 19 21  2  0  0  0  0
 19 36  1  0  0  0  0
 20 22  2  0  0  0  0
 20 37  1  0  0  0  0
 21 45  1  0  0  0  0
 22 38  1  0  0  0  0
 23 82  1  0  0  0  0
 24 83  1  0  0  0  0
 25 27  2  0  0  0  0
 25 82  1  0  0  0  0
 26 84  1  0  0  0  0
 27 85  1  0  0  0  0
 28 65  2  0  0  0  0
 29 67  1  0  0  0  0
 29 71  1  0  0  0  0
 30 55  1  0  0  0  0
 30 66  1  0  0  0  0
 30 68  2  0  0  0  0
 31 72  1  0  0  0  0
 31 77  2  0  0  0  0
 32 46  1  0  0  0  0
 32 73  1  0  0  0  0
 32 78  2  0  0  0  0
 33 61  1  0  0  0  0
 33 69  1  0  0  0  0
 33 79  2  0  0  0  0
 34 62  1  0  0  0  0
 34 74  1  0  0  0  0
 34 80  2  0  0  0  0
 35 70  1  0  0  0  0
 35 75  1  0  0  0  0
 35 81  2  0  0  0  0
 36 39  1  0  0  0  0
 37 46  1  0  0  0  0
 38 69  1  0  0  0  0
 39 41  1  0  0  0  0
 40 42  1  0  0  0  0
 40 43  1  0  0  0  0
 41 45  1  0  0  0  0
 42 47  1  0  0  0  0
 43 70  1  0  0  0  0
 44 47  1  0  0  0  0
 44 70  1  0  0  0  0
 45 73  1  0  0  0  0
 46 69  1  0  0  0  0
 47 67  1  0  0  0  0
 48 58  1  0  0  0  0
 49 62  1  0  0  0  0
 50 63  1  0  0  0  0
 51 64  1  0  0  0  0
 52 64  1  0  0  0  0
 53 64  1  0  0  0  0
 54 76  1  0  0  0  0
 55 56  1  0  0  0  0
 56 59  1  0  0  0  0
 57 63  1  0  0  0  0
 57 66  1  0  0  0  0
 58 75  1  0  0  0  0
 59 75  1  0  0  0  0
 60 63  1  0  0  0  0
 60 83  1  0  0  0  0
 61 64  1  0  0  0  0
 61 74  1  0  0  0  0
 62 76  1  0  0  0  0
 65 67  1  0  0  0  0
M  CHG  2  68   1  76   1
M  ISO  4  35 100  60 101  75 100  83 101
M  END
> <Batch ID>
0051

> <Smiles>
CC[100N:0](CCCc1nccn1CC(C)[101CH2:1][101O:1]c1ccc2c(c1)CN(C(=O)C(NC(=O)C(C)NC)C(C)(C)C)C(C(=O)NC1CCCc3ccccc31)C2)[100C:0](=O)N1CCCC(n2nc(-c3ccc(Oc4ccc(F)cc4F)cc3)c(C(N)=O)c2N)C1

> <Shape>
0.232

> <Color>
0.055

> <Negative vol penalty>
0.000

$$$$

  -OEChem-04052317333D

 87 95  0     1  0  0  0  0  0999 V2000
  -30.2805  -29.8706   26.1981 C   0  0  0  0  0  0  0  0  0  0  0  0
  -30.0048  -28.7793   25.3806 C   0  0  0  0  0  0  0  0  0  0  0  0
  -21.5956  -17.8229   21.0436 C   0  0  0  0  0  0  0  0  0  0  0  0
  -22.8767  -17.2973   23.0234 C   0  0  0  0  0  0  0  0  0  0  0  0
  -29.2692  -30.7773   26.5131 C   0  0  0  0  0  0  0  0  0  0  0  0
  -28.7172  -28.5934   24.8784 C   0  0  0  0  0  0  0  0  0  0  0  0
  -28.7066  -27.3702   19.9643 C   0  0  0  0  0  0  0  0  0  0  0  0
  -20.4382  -17.9140   21.8167 C   0  0  0  0  0  0  0  0  0  0  0  0
  -21.7193  -17.3884   23.7965 C   0  0  0  0  0  0  0  0  0  0  0  0
  -29.0173  -26.0514   19.6357 C   0  0  0  0  0  0  0  0  0  0  0  0
  -19.1655  -17.8372   26.3450 C   0  0  0  0  0  0  0  0  0  0  0  0
  -19.2419  -18.5388   27.5481 C   0  0  0  0  0  0  0  0  0  0  0  0
  -26.6677  -25.5674   19.3816 C   0  0  0  0  0  0  0  0  0  0  0  0
  -29.5063  -19.2049   21.7013 C   0  0  0  0  0  0  0  0  0  0  0  0
  -19.8830  -20.5331   26.3444 C   0  0  0  0  0  0  0  0  0  0  0  0
  -22.8149  -17.5145   21.6469 C   0  0  0  0  0  0  0  0  0  0  0  0
  -24.9119  -18.4567   20.5411 C   0  0  0  0  0  0  0  0  0  0  0  0
  -27.9710  -30.6078   26.0067 C   0  0  0  0  0  0  0  0  0  0  0  0
  -27.3712  -27.7954   20.0147 C   0  0  0  0  0  0  0  0  0  0  0  0
  -27.6873  -29.4980   25.1880 C   0  0  0  0  0  0  0  0  0  0  0  0
  -26.3428  -26.8928   19.7086 C   0  0  0  0  0  0  0  0  0  0  0  0
  -29.3156  -17.8448   21.9180 C   0  0  0  0  0  0  0  0  0  0  0  0
  -30.2861  -19.6303   20.6316 C   0  0  0  0  0  0  0  0  0  0  0  0
  -20.5000  -17.6967   23.1931 C   0  0  0  0  0  0  0  0  0  0  0  0
  -27.9977  -25.1490   19.3472 C   0  0  0  0  0  0  0  0  0  0  0  0
  -19.4479  -18.4835   25.1416 C   0  0  0  0  0  0  0  0  0  0  0  0
  -19.6006  -19.8868   27.5478 C   0  0  0  0  0  0  0  0  0  0  0  0
  -19.8067  -19.8314   25.1413 C   0  0  0  0  0  0  0  0  0  0  0  0
  -24.0107  -17.4198   20.8487 C   0  0  0  0  0  0  0  0  0  0  0  0
  -29.9217  -16.9575   21.0432 C   0  0  0  0  0  0  0  0  0  0  0  0
  -30.8488  -18.6631   19.8145 C   0  0  0  0  0  0  0  0  0  0  0  0
  -25.8715  -17.8577   19.7622 C   0  0  0  0  0  0  0  0  0  0  0  0
  -24.8840  -19.8377   20.9253 C   0  0  0  0  0  0  0  0  0  0  0  0
  -25.4686  -28.9488   22.2848 C   0  0  0  0  0  0  0  0  0  0  0  0
  -23.4046  -29.3391   19.8130 C   0  0  0  0  0  0  0  0  0  0  0  0
  -22.4170  -28.3932   16.6862 C   0  0  0  0  0  0  0  0  0  0  0  0
  -28.4620  -12.5333   19.6081 C   0  0  0  0  0  0  0  0  0  0  0  0
  -26.8994  -31.5881   26.4133 C   0  0  0  0  0  0  0  0  0  0  0  0
  -27.0540  -29.2282   20.3446 C   0  0  0  0  0  0  0  0  0  0  0  0
  -24.8942  -27.3045   19.7288 C   0  0  0  0  0  0  0  0  0  0  0  0
  -25.6518  -31.5254   25.5358 C   0  0  0  0  0  0  0  0  0  0  0  0
  -26.1024  -13.7535   17.0303 C   0  0  0  0  0  0  0  0  0  0  0  0
  -25.2194  -30.0778   25.3254 C   0  0  0  0  0  0  0  0  0  0  0  0
  -25.3616  -14.8728   17.7600 C   0  0  0  0  0  0  0  0  0  0  0  0
  -26.6006  -12.6809   17.9941 C   0  0  0  0  0  0  0  0  0  0  0  0
  -26.6973  -14.3300   19.8340 C   0  0  0  0  0  0  0  0  0  0  0  0
  -26.3092  -29.2758   24.6037 C   0  0  1  0  0  0  0  0  0  0  0  0
  -25.6340  -29.4206   20.8679 C   0  0  1  0  0  0  0  0  0  0  0  0
  -26.2227  -15.4505   18.8967 C   0  0  2  0  0  0  0  0  0  0  0  0
  -28.4812  -17.3827   23.0622 C   0  0  0  0  0  0  0  0  0  0  0  0
  -31.9569  -17.8985   17.6993 C   0  0  0  0  0  0  0  0  0  0  0  0
  -31.7355  -12.2936   19.5974 C   0  0  0  0  0  0  0  0  0  0  0  0
  -20.6744  -28.8660   14.9435 C   0  0  0  0  0  0  0  0  0  0  0  0
  -21.3551  -27.7701   21.4401 C   0  0  0  0  0  0  0  0  0  0  0  0
  -20.0295  -27.4578   19.3393 C   0  0  0  0  0  0  0  0  0  0  0  0
  -20.4293  -29.7533   20.2302 C   0  0  0  0  0  0  0  0  0  0  0  0
  -24.4533  -29.2450   14.7147 C   0  0  0  0  0  0  0  0  0  0  0  0
  -30.4970  -21.1038   20.3913 C   0  0  0  0  0  0  0  0  0  0  0  0
  -29.7532  -15.4848   21.2269 C   0  0  0  0  0  0  0  0  0  0  0  0
  -31.6946  -19.0625   18.6499 C   0  0  0  0  0  0  0  0  0  0  0  0
  -29.2908  -21.8041   19.7618 C   0  0  0  0  0  0  0  0  0  0  0  0
  -30.6907  -12.5589   20.6624 C   0  0  0  0  0  0  0  0  0  0  0  0
  -29.7295  -14.7025   19.9094 C   0  0  0  0  0  0  0  0  0  0  0  0
  -29.4814  -23.3079   19.6017 C   0  0  0  0  0  0  0  0  0  1  0  0
  -22.3405  -28.4873   19.1640 C   0  0  1  0  0  0  0  0  0  0  0  0
  -22.0671  -29.2046   15.4518 C   0  0  2  0  0  0  0  0  0  0  0  0
  -21.0657  -28.3586   20.0448 C   0  0  0  0  0  0  0  0  0  0  0  0
  -24.3661  -16.2508   20.3091 N   0  0  0  0  0  0  0  0  0  0  0  0
  -30.6861  -17.3329   19.9933 N   0  0  0  0  0  0  0  0  0  0  0  0
  -25.5011  -16.5495   19.6544 N   0  0  0  0  0  0  0  0  0  0  0  0
  -24.6347  -28.7146   20.0634 N   0  0  0  0  0  0  0  0  0  0  0  0
  -27.3796  -13.2619   19.0881 N   0  0  0  0  0  0  0  0  0  0  0  0
  -26.9876  -18.3277   19.1656 N   0  0  0  0  0  0  0  0  0  0  0  0
  -23.8264  -20.2868   21.7279 N   0  0  0  0  0  0  0  0  0  0  0  0
  -26.3045  -29.5770   23.1882 N   0  0  0  0  0  0  0  0  0  0  0  0
  -22.1007  -29.0670   17.8469 N   0  0  0  0  0  0  0  0  0  0  0  0
  -29.5401  -13.2693   20.1226 N   0  0  0  0  0  0  0  0  0  0  0  0
  -23.0446  -28.9340   14.3599 N   0  3  0  0  0  0  0  0  0  0  0  0
  -25.7619  -20.6531   20.5537 O   0  0  0  0  0  0  0  0  0  0  0  0
  -24.6427  -28.0801   22.5399 O   0  0  0  0  0  0  0  0  0  0  0  0
  -23.1560  -30.5172   20.0811 O   0  0  0  0  0  0  0  0  0  0  0  0
  -22.9172  -27.2721   16.6267 O   0  0  0  0  0  0  0  0  0  0  0  0
  -28.4687  -11.2956   19.6035 O   0  0  0  0  0  0  0  0  0  0  0  0
  -19.3709  -17.7858   23.9479 O   0  0  0  0  0  0  0  0  0  0  0  0
  -28.2982  -23.8610   19.0269 O   0  0  0  0  0  0  0  0  0  1  0  0
  -19.6725  -20.5608   28.7031 F   0  0  0  0  0  0  0  0  0  0  0  0
  -20.0780  -20.4580   23.9882 F   0  0  0  0  0  0  0  0  0  0  0  0
  1  2  1  0  0  0  0
  1  5  2  0  0  0  0
  2  6  2  0  0  0  0
  3  8  2  0  0  0  0
  3 16  1  0  0  0  0
  4  9  1  0  0  0  0
  4 16  2  0  0  0  0
  5 18  1  0  0  0  0
  6 20  1  0  0  0  0
  7 10  2  0  0  0  0
  7 19  1  0  0  0  0
  8 24  1  0  0  0  0
  9 24  2  0  0  0  0
 10 25  1  0  0  0  0
 11 12  2  0  0  0  0
 11 26  1  0  0  0  0
 12 27  1  0  0  0  0
 13 21  1  0  0  0  0
 13 25  2  0  0  0  0
 14 22  2  0  0  0  0
 14 23  1  0  0  0  0
 15 27  2  0  0  0  0
 15 28  1  0  0  0  0
 16 29  1  0  0  0  0
 17 29  1  0  0  0  0
 17 32  2  0  0  0  0
 17 33  1  0  0  0  0
 18 20  2  0  0  0  0
 18 38  1  0  0  0  0
 19 21  2  0  0  0  0
 19 39  1  0  0  0  0
 20 47  1  0  0  0  0
 21 40  1  0  0  0  0
 22 30  1  0  0  0  0
 22 50  1  0  0  0  0
 23 31  2  0  0  0  0
 23 58  1  0  0  0  0
 24 84  1  0  0  0  0
 25 85  1  0  0  0  0
 26 28  2  0  0  0  0
 26 84  1  0  0  0  0
 27 86  1  0  0  0  0
 28 87  1  0  0  0  0
 29 68  2  0  0  0  0
 30 59  1  0  0  0  0
 30 69  2  0  0  0  0
 31 60  1  0  0  0  0
 31 69  1  0  0  0  0
 32 70  1  0  0  0  0
 32 73  1  0  0  0  0
 33 74  1  0  0  0  0
 33 79  2  0  0  0  0
 34 48  1  0  0  0  0
 34 75  1  0  0  0  0
 34 80  2  0  0  0  0
 35 65  1  0  0  0  0
 35 71  1  0  0  0  0
 35 81  2  0  0  0  0
 36 66  1  0  0  0  0
 36 76  1  0  0  0  0
 36 82  2  0  0  0  0
 37 72  1  0  0  0  0
 37 77  1  0  0  0  0
 37 83  2  0  0  0  0
 38 41  1  0  0  0  0
 39 48  1  0  0  0  0
 40 71  1  0  0  0  0
 41 43  1  0  0  0  0
 42 44  1  0  0  0  0
 42 45  1  0  0  0  0
 43 47  1  0  0  0  0
 44 49  1  0  0  0  0
 45 72  1  0  0  0  0
 46 49  1  0  0  0  0
 46 72  1  0  0  0  0
 47 75  1  0  0  0  0
 48 71  1  0  0  0  0
 49 70  1  0  0  0  0
 51 60  1  0  0  0  0
 52 62  1  0  0  0  0
 53 66  1  0  0  0  0
 54 67  1  0  0  0  0
 55 67  1  0  0  0  0
 56 67  1  0  0  0  0
 57 78  1  0  0  0  0
 58 61  1  0  0  0  0
 59 63  1  0  0  0  0
 61 64  1  0  0  0  0
 62 77  1  0  0  0  0
 63 77  1  0  0  0  0
 64 85  1  0  0  0  0
 65 67  1  0  0  0  0
 65 76  1  0  0  0  0
 66 78  1  0  0  0  0
 68 70  1  0  0  0  0
M  CHG  1  78   1
M  ISO  4  37 100  64 101  77 100  85 101
M  END
> <Batch ID>
0051

> <Smiles>
CCc1nc(CC[100N:0](CC)[100C:0](=O)N2CCCC(n3nc(-c4ccc(Oc5ccc(F)cc5F)cc4)c(C(N)=O)c3N)C2)c(C)cc1CC[101CH2:1][101O:1]c1ccc2c(c1)CN(C(=O)C(NC(=O)C(C)NC)C(C)(C)C)C(C(=O)NC1CCCc3ccccc31)C2

> <Shape>
0.221

> <Color>
0.043

> <Negative vol penalty>
0.000

$$$$

  -OEChem-04052317333D

 90 99  0     1  0  0  0  0  0999 V2000
  -25.2472  -28.8387   12.1514 C   0  0  0  0  0  0  0  0  0  0  0  0
  -24.5580  -29.2834   13.2750 C   0  0  0  0  0  0  0  0  0  0  0  0
  -25.1119  -16.1117   20.6660 C   0  0  0  0  0  0  0  0  0  0  0  0
  -23.8927  -14.6766   22.1797 C   0  0  0  0  0  0  0  0  0  0  0  0
  -25.9604  -27.6417   12.2009 C   0  0  0  0  0  0  0  0  0  0  0  0
  -24.5806  -28.5307   14.4486 C   0  0  0  0  0  0  0  0  0  0  0  0
  -24.5522  -30.6617   20.1900 C   0  0  0  0  0  0  0  0  0  0  0  0
  -25.7775  -15.0004   20.1485 C   0  0  0  0  0  0  0  0  0  0  0  0
  -24.5583  -13.5654   21.6623 C   0  0  0  0  0  0  0  0  0  0  0  0
  -23.5319  -30.8193   21.1270 C   0  0  0  0  0  0  0  0  0  0  0  0
  -28.3530  -13.0017   21.0408 C   0  0  0  0  0  0  0  0  0  0  0  0
  -29.7315  -13.1022   20.8531 C   0  0  0  0  0  0  0  0  0  0  0  0
  -24.1160  -28.6958   22.1113 C   0  0  0  0  0  0  0  0  0  0  0  0
  -29.4405  -12.6824   18.4916 C   0  0  0  0  0  0  0  0  0  0  0  0
  -18.6059  -24.9259   20.9714 C   0  0  0  0  0  0  0  0  0  0  0  0
  -19.5336  -26.4760   22.9274 C   0  0  0  0  0  0  0  0  0  0  0  0
  -24.1695  -15.9498   21.6816 C   0  0  0  0  0  0  0  0  0  0  0  0
  -22.2690  -17.6495   21.7636 C   0  0  0  0  0  0  0  0  0  0  0  0
  -25.9997  -26.8788   13.3787 C   0  0  0  0  0  0  0  0  0  0  0  0
  -25.3564  -29.5130   20.1999 C   0  0  0  0  0  0  0  0  0  0  0  0
  -25.2938  -27.3217   14.5136 C   0  0  0  0  0  0  0  0  0  0  0  0
  -25.1475  -28.5273   21.1749 C   0  0  0  0  0  0  0  0  0  0  0  0
  -19.9336  -27.5962   23.7001 C   0  0  0  0  0  0  0  0  0  0  0  0
  -25.5007  -13.7273   20.6467 C   0  0  0  0  0  0  0  0  0  0  0  0
  -23.3118  -29.8350   22.0860 C   0  0  0  0  0  0  0  0  0  0  0  0
  -27.5182  -12.7414   19.9539 C   0  0  0  0  0  0  0  0  0  0  0  0
  -30.2753  -12.9426   19.5785 C   0  0  0  0  0  0  0  0  0  0  0  0
  -28.0620  -12.5818   18.6794 C   0  0  0  0  0  0  0  0  0  0  0  0
  -23.4821  -17.0974   22.2169 C   0  0  0  0  0  0  0  0  0  0  0  0
  -19.6903  -28.7264   22.9488 C   0  0  0  0  0  0  0  0  0  0  0  0
  -19.0559  -26.9674   21.7186 C   0  0  0  0  0  0  0  0  0  0  0  0
  -19.5116  -25.0918   23.0916 C   0  0  0  0  0  0  0  0  0  0  0  0
  -22.0452  -18.7177   22.5974 C   0  0  0  0  0  0  0  0  0  0  0  0
  -21.4203  -17.2338   20.6853 C   0  0  0  0  0  0  0  0  0  0  0  0
  -25.9116  -27.1459   18.1523 C   0  0  0  0  0  0  0  0  0  0  0  0
  -28.1358  -26.2866   20.3516 C   0  0  0  0  0  0  0  0  0  0  0  0
  -29.2003  -26.3990   23.5921 C   0  0  0  0  0  0  0  0  0  0  0  0
  -21.9673  -20.5132   27.9907 C   0  0  0  0  0  0  0  0  0  0  0  0
  -26.7452  -25.5678   13.3698 C   0  0  0  0  0  0  0  0  0  0  0  0
  -26.4701  -29.3705   19.1990 C   0  0  0  0  0  0  0  0  0  0  0  0
  -25.9961  -27.2847   21.2410 C   0  0  0  0  0  0  0  0  0  0  0  0
  -27.0267  -25.0178   14.7657 C   0  0  0  0  0  0  0  0  0  0  0  0
  -25.0456  -20.9591   25.9839 C   0  0  0  0  0  0  0  0  0  0  0  0
  -25.7736  -25.0936   15.6322 C   0  0  0  0  0  0  0  0  0  0  0  0
  -24.8343  -19.9823   24.8284 C   0  0  0  0  0  0  0  0  0  0  0  0
  -24.3211  -20.5072   27.2483 C   0  0  0  0  0  0  0  0  0  0  0  0
  -22.6567  -19.2761   25.8961 C   0  0  0  0  0  0  0  0  0  0  0  0
  -25.3147  -26.5457   15.8126 C   0  0  1  0  0  0  0  0  0  0  0  0
  -26.8958  -27.9218   18.9811 C   0  0  1  0  0  0  0  0  0  0  0  0
  -23.3355  -19.7262   24.5936 C   0  0  2  0  0  0  0  0  0  0  0  0
  -20.5076  -27.5713   25.0619 C   0  0  0  0  0  0  0  0  0  0  0  0
  -31.0321  -25.5699   25.0937 C   0  0  0  0  0  0  0  0  0  0  0  0
  -21.9171  -23.2084   26.1145 C   0  0  0  0  0  0  0  0  0  0  0  0
  -26.8550  -23.5173   20.3809 C   0  0  0  0  0  0  0  0  0  0  0  0
  -28.0712  -23.0540   22.5197 C   0  0  0  0  0  0  0  0  0  0  0  0
  -29.3554  -23.5109   20.4305 C   0  0  0  0  0  0  0  0  0  0  0  0
  -18.7637  -29.2187   20.6732 C   0  0  0  0  0  0  0  0  0  0  0  0
  -19.6700  -21.1905   28.5765 C   0  0  0  0  0  0  0  0  0  0  0  0
  -30.0702  -29.1517   24.2439 C   0  0  0  0  0  0  0  0  0  0  0  0
  -19.9251  -30.1804   23.2789 C   0  0  0  0  0  0  0  0  0  0  0  0
  -19.9689  -23.0783   24.4924 C   0  0  0  0  0  0  0  0  0  0  0  0
  -20.3316  -21.2356   26.2004 C   0  0  0  0  0  0  0  0  0  0  0  0
  -21.1711  -30.7358   22.5977 C   0  0  0  0  0  0  0  0  0  1  0  0
  -28.1416  -25.4081   21.5792 C   0  0  1  0  0  0  0  0  0  0  0  0
  -30.5596  -26.7028   24.1958 C   0  0  2  0  0  0  0  0  0  0  0  0
  -20.4739  -22.7365   25.9034 C   0  0  1  0  0  0  0  0  0  0  0  0
  -28.0884  -23.8950   21.2254 C   0  0  0  0  0  0  0  0  0  0  0  0
  -18.5750  -26.2448   20.6919 N   0  0  0  0  0  0  0  0  0  0  0  0
  -19.0389  -24.3092   22.0941 N   0  0  0  0  0  0  0  0  0  0  0  0
  -23.9932  -17.7602   23.2578 N   0  0  0  0  0  0  0  0  0  0  0  0
  -19.1584  -28.3329   21.7476 N   0  0  0  0  0  0  0  0  0  0  0  0
  -23.0970  -18.7399   23.4654 N   0  0  0  0  0  0  0  0  0  0  0  0
  -27.0684  -27.1885   20.2368 N   0  0  0  0  0  0  0  0  0  0  0  0
  -22.9084  -20.2292   26.9874 N   0  0  0  0  0  0  0  0  0  0  0  0
  -21.0533  -19.6309   22.6654 N   0  0  0  0  0  0  0  0  0  0  0  0
  -21.7993  -16.1159   19.9296 N   0  0  0  0  0  0  0  0  0  0  0  0
  -19.9723  -24.4944   24.2791 N   0  0  0  0  0  0  0  0  0  0  0  0
  -26.1410  -27.2189   16.7916 N   0  0  0  0  0  0  0  0  0  0  0  0
  -29.3132  -25.7993   22.3556 N   0  0  0  0  0  0  0  0  0  0  0  0
  -20.6775  -20.8755   27.5737 N   0  0  0  0  0  0  0  0  0  0  0  0
  -30.4986  -27.9513   25.0073 N   0  3  0  0  0  0  0  0  0  0  0  0
  -20.3658  -17.8456   20.3901 O   0  0  0  0  0  0  0  0  0  0  0  0
  -25.0115  -26.5258   18.7064 O   0  0  0  0  0  0  0  0  0  0  0  0
  -29.0486  -26.1817   19.5285 O   0  0  0  0  0  0  0  0  0  0  0  0
  -28.1441  -26.6635   24.1621 O   0  0  0  0  0  0  0  0  0  0  0  0
  -22.2658  -20.4561   29.1905 O   0  0  0  0  0  0  0  0  0  0  0  0
  -26.1498  -12.6427   20.1418 O   0  0  0  0  0  0  0  0  0  0  0  0
  -22.3162  -29.9860   23.0013 O   0  0  0  0  0  0  0  0  0  1  0  0
  -31.5989  -13.0407   19.3981 F   0  0  0  0  0  0  0  0  0  0  0  0
  -27.2650  -12.3329   17.6313 F   0  0  0  0  0  0  0  0  0  0  0  0
  1  2  1  0  0  0  0
  1  5  2  0  0  0  0
  2  6  2  0  0  0  0
  3  8  2  0  0  0  0
  3 17  1  0  0  0  0
  4  9  1  0  0  0  0
  4 17  2  0  0  0  0
  5 19  1  0  0  0  0
  6 21  1  0  0  0  0
  7 10  2  0  0  0  0
  7 20  1  0  0  0  0
  8 24  1  0  0  0  0
  9 24  2  0  0  0  0
 10 25  1  0  0  0  0
 11 12  2  0  0  0  0
 11 26  1  0  0  0  0
 12 27  1  0  0  0  0
 13 22  1  0  0  0  0
 13 25  2  0  0  0  0
 14 27  2  0  0  0  0
 14 28  1  0  0  0  0
 15 68  2  0  0  0  0
 15 69  1  0  0  0  0
 16 23  1  0  0  0  0
 16 31  2  0  0  0  0
 16 32  1  0  0  0  0
 17 29  1  0  0  0  0
 18 29  1  0  0  0  0
 18 33  2  0  0  0  0
 18 34  1  0  0  0  0
 19 21  2  0  0  0  0
 19 39  1  0  0  0  0
 20 22  2  0  0  0  0
 20 40  1  0  0  0  0
 21 48  1  0  0  0  0
 22 41  1  0  0  0  0
 23 30  2  0  0  0  0
 23 51  1  0  0  0  0
 24 87  1  0  0  0  0
 25 88  1  0  0  0  0
 26 28  2  0  0  0  0
 26 87  1  0  0  0  0
 27 89  1  0  0  0  0
 28 90  1  0  0  0  0
 29 70  2  0  0  0  0
 30 60  1  0  0  0  0
 30 71  1  0  0  0  0
 31 68  1  0  0  0  0
 31 71  1  0  0  0  0
 32 69  2  0  0  0  0
 32 77  1  0  0  0  0
 33 72  1  0  0  0  0
 33 75  1  0  0  0  0
 34 76  1  0  0  0  0
 34 82  2  0  0  0  0
 35 49  1  0  0  0  0
 35 78  1  0  0  0  0
 35 83  2  0  0  0  0
 36 64  1  0  0  0  0
 36 73  1  0  0  0  0
 36 84  2  0  0  0  0
 37 65  1  0  0  0  0
 37 79  1  0  0  0  0
 37 85  2  0  0  0  0
 38 74  1  0  0  0  0
 38 80  1  0  0  0  0
 38 86  2  0  0  0  0
 39 42  1  0  0  0  0
 40 49  1  0  0  0  0
 41 73  1  0  0  0  0
 42 44  1  0  0  0  0
 43 45  1  0  0  0  0
 43 46  1  0  0  0  0
 44 48  1  0  0  0  0
 45 50  1  0  0  0  0
 46 74  1  0  0  0  0
 47 50  1  0  0  0  0
 47 74  1  0  0  0  0
 48 78  1  0  0  0  0
 49 73  1  0  0  0  0
 50 72  1  0  0  0  0
 52 65  1  0  0  0  0
 53 66  1  0  0  0  0
 54 67  1  0  0  0  0
 55 67  1  0  0  0  0
 56 67  1  0  0  0  0
 57 71  1  0  0  0  0
 58 80  1  0  0  0  0
 59 81  1  0  0  0  0
 60 63  1  0  0  0  0
 61 66  1  0  0  0  0
 61 77  1  0  0  0  0
 62 66  1  0  0  0  0
 62 80  1  0  0  0  0
 63 88  1  0  0  0  0
 64 67  1  0  0  0  0
 64 79  1  0  0  0  0
 65 81  1  0  0  0  0
 70 72  1  0  0  0  0
M  CHG  1  81   1
M  ISO  4  38 100  63 101  80 100  88 101
M  END
> <Batch ID>
0051

> <Smiles>
CNC(C)C(=O)NC(C(=O)N1Cc2cc([101O:1][101CH2:1]Cc3c(C)c4c(NCC(C)C[100N:0](C)[100C:0](=O)N5CCCC(n6nc(-c7ccc(Oc8ccc(F)cc8F)cc7)c(C(N)=O)c6N)C5)ncnc4n3C)ccc2CC1C(=O)NC1CCCc2ccccc21)C(C)(C)C

> <Shape>
0.201

> <Color>
0.082

> <Negative vol penalty>
0.000

$$$$

  -OEChem-04052317333D

 83 91  0     1  0  0  0  0  0999 V2000
  -28.7418  -26.0684   27.5960 C   0  0  0  0  0  0  0  0  0  0  0  0
  -29.3746  -25.2373   26.6773 C   0  0  0  0  0  0  0  0  0  0  0  0
  -23.1849   -9.8837   19.8678 C   0  0  0  0  0  0  0  0  0  0  0  0
  -23.8676   -9.8592   22.1852 C   0  0  0  0  0  0  0  0  0  0  0  0
  -27.6527  -26.8432   27.1989 C   0  0  0  0  0  0  0  0  0  0  0  0
  -28.9180  -25.1796   25.3610 C   0  0  0  0  0  0  0  0  0  0  0  0
  -32.3077  -24.4084   20.3190 C   0  0  0  0  0  0  0  0  0  0  0  0
  -22.4801   -8.6959   20.0629 C   0  0  0  0  0  0  0  0  0  0  0  0
  -23.1627   -8.6715   22.3804 C   0  0  0  0  0  0  0  0  0  0  0  0
  -32.5913  -23.2860   19.5421 C   0  0  0  0  0  0  0  0  0  0  0  0
  -19.9510   -7.7317   22.8519 C   0  0  0  0  0  0  0  0  0  0  0  0
  -19.1580   -7.6308   23.9949 C   0  0  0  0  0  0  0  0  0  0  0  0
  -30.8094  -23.8887   18.0319 C   0  0  0  0  0  0  0  0  0  0  0  0
  -20.4511   -5.7246   24.7239 C   0  0  0  0  0  0  0  0  0  0  0  0
  -29.8567  -17.9300   19.3202 C   0  0  0  0  0  0  0  0  0  0  0  0
  -23.8788  -10.4653   20.9290 C   0  0  0  0  0  0  0  0  0  0  0  0
  -24.1227  -13.0042   20.8848 C   0  0  0  0  0  0  0  0  0  0  0  0
  -27.1887  -26.8023   25.8747 C   0  0  0  0  0  0  0  0  0  0  0  0
  -31.2640  -25.2748   19.9636 C   0  0  0  0  0  0  0  0  0  0  0  0
  -27.8209  -25.9536   24.9461 C   0  0  0  0  0  0  0  0  0  0  0  0
  -30.5162  -25.0227   18.8046 C   0  0  0  0  0  0  0  0  0  0  0  0
  -22.4690   -8.0898   21.3191 C   0  0  0  0  0  0  0  0  0  0  0  0
  -31.8403  -23.0244   18.3999 C   0  0  0  0  0  0  0  0  0  0  0  0
  -20.9941   -6.8290   22.6448 C   0  0  0  0  0  0  0  0  0  0  0  0
  -19.4080   -6.6273   24.9309 C   0  0  0  0  0  0  0  0  0  0  0  0
  -21.2442   -5.8255   23.5808 C   0  0  0  0  0  0  0  0  0  0  0  0
  -24.6075  -11.6919   20.7280 C   0  0  0  0  0  0  0  0  0  0  0  0
  -30.0297  -19.1984   18.8048 C   0  0  0  0  0  0  0  0  0  0  0  0
  -29.2282  -17.8647   20.5470 C   0  0  0  0  0  0  0  0  0  0  0  0
  -25.1954  -13.8054   20.5782 C   0  0  0  0  0  0  0  0  0  0  0  0
  -29.0246  -20.1275   20.6196 C   0  0  0  0  0  0  0  0  0  0  0  0
  -22.8194  -13.4584   21.2731 C   0  0  0  0  0  0  0  0  0  0  0  0
  -28.5431  -26.1879   21.3299 C   0  0  0  0  0  0  0  0  0  0  0  0
  -28.4049  -28.2119   18.7987 C   0  0  0  0  0  0  0  0  0  0  0  0
  -29.3518  -28.9148   15.5962 C   0  0  0  0  0  0  0  0  0  0  0  0
  -30.7447  -14.7210   21.4051 C   0  0  0  0  0  0  0  0  0  0  0  0
  -25.9784  -27.6223   25.5039 C   0  0  0  0  0  0  0  0  0  0  0  0
  -30.9881  -26.4958   20.7976 C   0  0  0  0  0  0  0  0  0  0  0  0
  -29.3983  -25.9330   18.3685 C   0  0  0  0  0  0  0  0  0  0  0  0
  -25.7914  -27.7856   23.9977 C   0  0  0  0  0  0  0  0  0  0  0  0
  -29.6617  -12.7039   18.4965 C   0  0  0  0  0  0  0  0  0  0  0  0
  -25.9599  -26.4447   23.2904 C   0  0  0  0  0  0  0  0  0  0  0  0
  -28.2335  -12.3146   18.8743 C   0  0  0  0  0  0  0  0  0  0  0  0
  -30.5349  -12.9220   19.7284 C   0  0  0  0  0  0  0  0  0  0  0  0
  -28.5473  -13.5146   21.0749 C   0  0  0  0  0  0  0  0  0  0  0  0
  -27.3706  -25.8823   23.5031 C   0  0  1  0  0  0  0  0  0  0  0  0
  -29.5692  -27.0292   20.6249 C   0  0  1  0  0  0  0  0  0  0  0  0
  -27.6291  -13.3327   19.8569 C   0  0  2  0  0  0  0  0  0  0  0  0
  -28.5589  -21.3473   21.3401 C   0  0  0  0  0  0  0  0  0  0  0  0
  -29.0489  -30.6221   13.7822 C   0  0  0  0  0  0  0  0  0  0  0  0
  -25.6199  -27.1050   18.2255 C   0  0  0  0  0  0  0  0  0  0  0  0
  -25.7670  -28.1112   15.9376 C   0  0  0  0  0  0  0  0  0  0  0  0
  -25.8349  -29.5815   17.9516 C   0  0  0  0  0  0  0  0  0  0  0  0
  -31.0402  -16.9039   22.5129 C   0  0  0  0  0  0  0  0  0  0  0  0
  -32.2437  -29.5421   15.5437 C   0  0  0  0  0  0  0  0  0  0  0  0
  -30.7061  -19.3715   17.4683 C   0  0  0  0  0  0  0  0  0  0  0  0
  -28.9951  -16.5355   21.1835 C   0  0  0  0  0  0  0  0  0  0  0  0
  -32.2247  -19.5338   17.5630 C   0  0  0  0  0  0  0  0  0  0  0  0
  -32.6520  -20.7908   18.3118 C   0  0  0  0  0  0  0  0  0  1  0  0
  -27.8374  -28.1394   17.4017 C   0  0  1  0  0  0  0  0  0  0  0  0
  -29.8999  -30.1809   14.9628 C   0  0  2  0  0  0  0  0  0  0  0  0
  -26.2846  -28.2159   17.3881 C   0  0  0  0  0  0  0  0  0  0  0  0
  -25.8884  -11.6570   20.3508 N   0  0  0  0  0  0  0  0  0  0  0  0
  -29.6244  -20.3232   19.4299 N   0  0  0  0  0  0  0  0  0  0  0  0
  -28.7977  -18.9474   21.2273 N   0  0  0  0  0  0  0  0  0  0  0  0
  -26.2175  -12.9574   20.2680 N   0  0  0  0  0  0  0  0  0  0  0  0
  -29.1630  -27.1104   19.2204 N   0  0  0  0  0  0  0  0  0  0  0  0
  -29.9167  -13.8608   20.6654 N   0  0  0  0  0  0  0  0  0  0  0  0
  -25.3545  -15.1456   20.5462 N   0  0  0  0  0  0  0  0  0  0  0  0
  -21.8342  -12.5015   21.5525 N   0  0  0  0  0  0  0  0  0  0  0  0
  -28.3187  -26.5568   22.6426 N   0  0  0  0  0  0  0  0  0  0  0  0
  -28.4944  -29.1954   16.6390 N   0  0  0  0  0  0  0  0  0  0  0  0
  -30.2160  -15.9725   21.7559 N   0  0  0  0  0  0  0  0  0  0  0  0
  -31.2925  -29.9581   14.4810 N   0  3  0  0  0  0  0  0  0  0  0  0
  -22.5322  -14.6768   21.3536 O   0  0  0  0  0  0  0  0  0  0  0  0
  -27.9944  -25.2729   20.7271 O   0  0  0  0  0  0  0  0  0  0  0  0
  -28.1897  -29.2122   19.4877 O   0  0  0  0  0  0  0  0  0  0  0  0
  -29.6513  -27.7896   15.2028 O   0  0  0  0  0  0  0  0  0  0  0  0
  -31.8945  -14.3932   21.7250 O   0  0  0  0  0  0  0  0  0  0  0  0
  -21.7811   -6.9310   21.5099 O   0  0  0  0  0  0  0  0  0  0  0  0
  -32.1145  -21.9293   17.6401 O   0  0  0  0  0  0  0  0  0  1  0  0
  -18.6473   -6.5315   26.0292 F   0  0  0  0  0  0  0  0  0  0  0  0
  -22.2456   -4.9561   23.3879 F   0  0  0  0  0  0  0  0  0  0  0  0
  1  2  1  0  0  0  0
  1  5  2  0  0  0  0
  2  6  2  0  0  0  0
  3  8  2  0  0  0  0
  3 16  1  0  0  0  0
  4  9  1  0  0  0  0
  4 16  2  0  0  0  0
  5 18  1  0  0  0  0
  6 20  1  0  0  0  0
  7 10  2  0  0  0  0
  7 19  1  0  0  0  0
  8 22  1  0  0  0  0
  9 22  2  0  0  0  0
 10 23  1  0  0  0  0
 11 12  2  0  0  0  0
 11 24  1  0  0  0  0
 12 25  1  0  0  0  0
 13 21  1  0  0  0  0
 13 23  2  0  0  0  0
 14 25  2  0  0  0  0
 14 26  1  0  0  0  0
 15 28  1  0  0  0  0
 15 29  2  0  0  0  0
 16 27  1  0  0  0  0
 17 27  1  0  0  0  0
 17 30  2  0  0  0  0
 17 32  1  0  0  0  0
 18 20  2  0  0  0  0
 18 37  1  0  0  0  0
 19 21  2  0  0  0  0
 19 38  1  0  0  0  0
 20 46  1  0  0  0  0
 21 39  1  0  0  0  0
 22 80  1  0  0  0  0
 23 81  1  0  0  0  0
 24 26  2  0  0  0  0
 24 80  1  0  0  0  0
 25 82  1  0  0  0  0
 26 83  1  0  0  0  0
 27 63  2  0  0  0  0
 28 56  1  0  0  0  0
 28 64  2  0  0  0  0
 29 57  1  0  0  0  0
 29 65  1  0  0  0  0
 30 66  1  0  0  0  0
 30 69  1  0  0  0  0
 31 49  1  0  0  0  0
 31 64  1  0  0  0  0
 31 65  2  0  0  0  0
 32 70  1  0  0  0  0
 32 75  2  0  0  0  0
 33 47  1  0  0  0  0
 33 71  1  0  0  0  0
 33 76  2  0  0  0  0
 34 60  1  0  0  0  0
 34 67  1  0  0  0  0
 34 77  2  0  0  0  0
 35 61  1  0  0  0  0
 35 72  1  0  0  0  0
 35 78  2  0  0  0  0
 36 68  1  0  0  0  0
 36 73  1  0  0  0  0
 36 79  2  0  0  0  0
 37 40  1  0  0  0  0
 38 47  1  0  0  0  0
 39 67  1  0  0  0  0
 40 42  1  0  0  0  0
 41 43  1  0  0  0  0
 41 44  1  0  0  0  0
 42 46  1  0  0  0  0
 43 48  1  0  0  0  0
 44 68  1  0  0  0  0
 45 48  1  0  0  0  0
 45 68  1  0  0  0  0
 46 71  1  0  0  0  0
 47 67  1  0  0  0  0
 48 66  1  0  0  0  0
 50 61  1  0  0  0  0
 51 62  1  0  0  0  0
 52 62  1  0  0  0  0
 53 62  1  0  0  0  0
 54 73  1  0  0  0  0
 55 74  1  0  0  0  0
 56 58  1  0  0  0  0
 57 73  1  0  0  0  0
 58 59  1  0  0  0  0
 59 81  1  0  0  0  0
 60 62  1  0  0  0  0
 60 72  1  0  0  0  0
 61 74  1  0  0  0  0
 63 66  1  0  0  0  0
M  CHG  1  74   1
M  ISO  4  36 100  59 101  73 100  81 101
M  END
> <Batch ID>
0051

> <Smiles>
CNC(C)C(=O)NC(C(=O)N1Cc2cc([101O:1][101CH2:1]CCc3cc(C[100N:0](C)[100C:0](=O)N4CCCC(n5nc(-c6ccc(Oc7ccc(F)cc7F)cc6)c(C(N)=O)c5N)C4)nc(C)n3)ccc2CC1C(=O)NC1CCCc2ccccc21)C(C)(C)C

> <Shape>
0.279

> <Color>
0.192

> <Negative vol penalty>
0.000

$$$$

  -OEChem-04052317333D

 90 98  0     1  0  0  0  0  0999 V2000
  -19.7491  -22.7340   16.6866 C   0  0  0  0  0  0  0  0  0  0  0  0
  -20.7863  -21.8687   17.0194 C   0  0  0  0  0  0  0  0  0  0  0  0
  -26.3569  -27.9834   21.3093 C   0  0  0  0  0  0  0  0  0  0  0  0
  -25.7839  -27.0525   19.1547 C   0  0  0  0  0  0  0  0  0  0  0  0
  -19.3919  -23.7607   17.5597 C   0  0  0  0  0  0  0  0  0  0  0  0
  -21.4679  -22.0304   18.2252 C   0  0  0  0  0  0  0  0  0  0  0  0
  -22.1940  -17.6440   20.6495 C   0  0  0  0  0  0  0  0  0  0  0  0
  -25.3151  -28.9030   21.1891 C   0  0  0  0  0  0  0  0  0  0  0  0
  -24.7420  -27.9721   19.0345 C   0  0  0  0  0  0  0  0  0  0  0  0
  -23.2218  -16.8234   20.1869 C   0  0  0  0  0  0  0  0  0  0  0  0
  -22.5800  -31.2601   21.6115 C   0  0  0  0  0  0  0  0  0  0  0  0
  -21.7613  -31.4614   22.7226 C   0  0  0  0  0  0  0  0  0  0  0  0
  -24.6469  -17.6163   21.9644 C   0  0  0  0  0  0  0  0  0  0  0  0
  -21.1362  -29.1280   22.6848 C   0  0  0  0  0  0  0  0  0  0  0  0
  -29.8950  -19.8613   20.4469 C   0  0  0  0  0  0  0  0  0  0  0  0
  -26.5914  -27.0582   20.2920 C   0  0  0  0  0  0  0  0  0  0  0  0
  -27.6063  -24.8232   20.9867 C   0  0  0  0  0  0  0  0  0  0  0  0
  -20.0630  -23.9290   18.7811 C   0  0  0  0  0  0  0  0  0  0  0  0
  -22.3888  -18.4665   21.7684 C   0  0  0  0  0  0  0  0  0  0  0  0
  -21.1202  -23.0611   19.1148 C   0  0  0  0  0  0  0  0  0  0  0  0
  -23.6191  -18.4446   22.4408 C   0  0  0  0  0  0  0  0  0  0  0  0
  -24.5076  -28.8973   20.0517 C   0  0  0  0  0  0  0  0  0  0  0  0
  -24.4494  -16.8116   20.8426 C   0  0  0  0  0  0  0  0  0  0  0  0
  -22.6768  -29.9928   21.0369 C   0  0  0  0  0  0  0  0  0  0  0  0
  -21.0394  -30.3954   23.2593 C   0  0  0  0  0  0  0  0  0  0  0  0
  -21.9549  -28.9267   21.5736 C   0  0  0  0  0  0  0  0  0  0  0  0
  -27.6679  -26.1084   20.4154 C   0  0  0  0  0  0  0  0  0  0  0  0
  -29.3439  -20.0270   19.2077 C   0  0  0  0  0  0  0  0  0  0  0  0
  -28.8818  -24.3297   20.8598 C   0  0  0  0  0  0  0  0  0  0  0  0
  -29.3585  -17.8611   19.6647 C   0  0  0  0  0  0  0  0  0  0  0  0
  -26.4956  -24.1370   21.5791 C   0  0  0  0  0  0  0  0  0  0  0  0
  -22.3435  -21.6030   22.2819 C   0  0  0  0  0  0  0  0  0  0  0  0
  -22.6882  -20.7072   25.3805 C   0  0  0  0  0  0  0  0  0  0  0  0
  -23.7223  -18.3445   27.6154 C   0  0  0  0  0  0  0  0  0  0  0  0
  -33.3007  -23.6174   17.3551 C   0  0  0  0  0  0  0  0  0  0  0  0
  -19.6726  -25.0825   19.6709 C   0  0  0  0  0  0  0  0  0  0  0  0
  -21.2614  -19.3260   22.2709 C   0  0  0  0  0  0  0  0  0  0  0  0
  -23.8724  -19.2936   23.6587 C   0  0  0  0  0  0  0  0  0  0  0  0
  -20.1972  -24.9550   21.0988 C   0  0  0  0  0  0  0  0  0  0  0  0
  -33.1945  -26.6015   19.5427 C   0  0  0  0  0  0  0  0  0  0  0  0
  -21.6692  -24.5549   21.0929 C   0  0  0  0  0  0  0  0  0  0  0  0
  -31.7229  -26.6649   19.9484 C   0  0  0  0  0  0  0  0  0  0  0  0
  -33.3790  -25.9426   18.1791 C   0  0  0  0  0  0  0  0  0  0  0  0
  -31.2883  -24.6568   18.4789 C   0  0  0  0  0  0  0  0  0  0  0  0
  -21.8670  -23.1889   20.4248 C   0  0  1  0  0  0  0  0  0  0  0  0
  -21.7386  -20.5061   23.1117 C   0  0  1  0  0  0  0  0  0  0  0  0
  -31.0716  -25.2732   19.8691 C   0  0  2  0  0  0  0  0  0  0  0  0
  -26.2869  -18.4419   16.1154 C   0  0  0  0  0  0  0  0  0  0  0  0
  -34.7983  -19.3027   16.5904 C   0  0  0  0  0  0  0  0  0  0  0  0
  -23.9109  -17.9133   30.0804 C   0  0  0  0  0  0  0  0  0  0  0  0
  -29.9265  -15.6936   18.3725 C   0  0  0  0  0  0  0  0  0  0  0  0
  -29.7564  -15.6887   20.8455 C   0  0  0  0  0  0  0  0  0  0  0  0
  -25.1057  -22.5637   25.5178 C   0  0  0  0  0  0  0  0  0  0  0  0
  -25.7940  -21.3976   27.6237 C   0  0  0  0  0  0  0  0  0  0  0  0
  -23.6256  -22.6275   27.5326 C   0  0  0  0  0  0  0  0  0  0  0  0
  -21.9291  -15.9952   27.4594 C   0  0  0  0  0  0  0  0  0  0  0  0
  -29.0984  -21.2482   18.4309 C   0  0  0  0  0  0  0  0  0  0  0  0
  -26.9120  -18.7704   17.4612 C   0  0  0  0  0  0  0  0  0  0  0  0
  -34.1715  -20.4355   17.3912 C   0  0  0  0  0  0  0  0  0  0  0  0
  -30.2602  -21.6848   17.5002 C   0  0  0  0  0  0  0  0  0  0  0  0
  -27.6676  -15.9537   19.4687 C   0  0  0  0  0  0  0  0  0  0  0  0
  -28.4103  -18.4753   17.4653 C   0  0  0  0  0  0  0  0  0  0  0  0
  -33.2153  -21.2843   16.5620 C   0  0  0  0  0  0  0  0  0  0  0  0
  -31.5572  -22.0102   18.2381 C   0  0  0  0  0  0  0  0  0  0  0  0
  -26.7906  -16.4630   20.6116 C   0  0  0  0  0  0  0  0  0  1  0  0
  -23.8615  -20.4377   26.2913 C   0  0  1  0  0  0  0  0  0  0  0  0
  -23.0473  -17.7516   28.8391 C   0  0  2  0  0  0  0  0  0  0  0  0
  -29.1755  -16.3359   19.5635 C   0  0  0  0  0  0  0  0  0  0  0  0
  -24.5929  -21.7420   26.7173 C   0  0  0  0  0  0  0  0  0  0  0  0
  -28.8860  -26.4122   19.9596 N   0  0  0  0  0  0  0  0  0  0  0  0
  -29.0217  -18.7732   18.7470 N   0  0  0  0  0  0  0  0  0  0  0  0
  -29.6018  -25.3111   20.2445 N   0  0  0  0  0  0  0  0  0  0  0  0
  -29.8913  -18.5115   20.7042 N   0  3  0  0  0  0  0  0  0  0  0  0
  -22.7410  -20.1218   24.1076 N   0  0  0  0  0  0  0  0  0  0  0  0
  -32.7136  -24.6408   18.1173 N   0  0  0  0  0  0  0  0  0  0  0  0
  -29.4465  -23.1563   21.2158 N   0  0  0  0  0  0  0  0  0  0  0  0
  -25.2561  -24.7893   21.6278 N   0  0  0  0  0  0  0  0  0  0  0  0
  -21.4889  -22.1244   21.3294 N   0  0  0  0  0  0  0  0  0  0  0  0
  -23.3414  -19.6530   27.4058 N   0  0  0  0  0  0  0  0  0  0  0  0
  -32.6397  -22.3800   17.3289 N   0  0  0  0  0  0  0  0  0  0  0  0
  -22.7866  -16.2987   28.6339 N   0  3  0  0  0  0  0  0  0  0  0  0
  -26.6031  -22.9860   22.0661 O   0  0  0  0  0  0  0  0  0  0  0  0
  -23.4995  -21.9516   22.4914 O   0  0  0  0  0  0  0  0  0  0  0  0
  -21.7556  -21.4054   25.7862 O   0  0  0  0  0  0  0  0  0  0  0  0
  -24.5115  -17.7114   26.9177 O   0  0  0  0  0  0  0  0  0  0  0  0
  -34.3604  -23.7965   16.7413 O   0  0  0  0  0  0  0  0  0  0  0  0
  -23.4907  -29.7943   19.9342 O   0  0  0  0  0  0  0  0  0  0  0  0
  -25.4545  -16.0120   20.3928 O   0  0  0  0  0  0  0  0  0  1  0  0
  -20.2544  -30.5885   24.3274 F   0  0  0  0  0  0  0  0  0  0  0  0
  -22.0448  -27.7066   21.0266 F   0  0  0  0  0  0  0  0  0  0  0  0
  1  2  1  0  0  0  0
  1  5  2  0  0  0  0
  2  6  2  0  0  0  0
  3  8  2  0  0  0  0
  3 16  1  0  0  0  0
  4  9  1  0  0  0  0
  4 16  2  0  0  0  0
  5 18  1  0  0  0  0
  6 20  1  0  0  0  0
  7 10  2  0  0  0  0
  7 19  1  0  0  0  0
  8 22  1  0  0  0  0
  9 22  2  0  0  0  0
 10 23  1  0  0  0  0
 11 12  2  0  0  0  0
 11 24  1  0  0  0  0
 12 25  1  0  0  0  0
 13 21  1  0  0  0  0
 13 23  2  0  0  0  0
 14 25  2  0  0  0  0
 14 26  1  0  0  0  0
 15 28  2  0  0  0  0
 15 73  1  0  0  0  0
 16 27  1  0  0  0  0
 17 27  1  0  0  0  0
 17 29  2  0  0  0  0
 17 31  1  0  0  0  0
 18 20  2  0  0  0  0
 18 36  1  0  0  0  0
 19 21  2  0  0  0  0
 19 37  1  0  0  0  0
 20 45  1  0  0  0  0
 21 38  1  0  0  0  0
 22 87  1  0  0  0  0
 23 88  1  0  0  0  0
 24 26  2  0  0  0  0
 24 87  1  0  0  0  0
 25 89  1  0  0  0  0
 26 90  1  0  0  0  0
 27 70  2  0  0  0  0
 28 57  1  0  0  0  0
 28 71  1  0  0  0  0
 29 72  1  0  0  0  0
 29 76  1  0  0  0  0
 30 68  1  0  0  0  0
 30 71  1  0  0  0  0
 30 73  2  0  0  0  0
 31 77  1  0  0  0  0
 31 82  2  0  0  0  0
 32 46  1  0  0  0  0
 32 78  1  0  0  0  0
 32 83  2  0  0  0  0
 33 66  1  0  0  0  0
 33 74  1  0  0  0  0
 33 84  2  0  0  0  0
 34 67  1  0  0  0  0
 34 79  1  0  0  0  0
 34 85  2  0  0  0  0
 35 75  1  0  0  0  0
 35 80  1  0  0  0  0
 35 86  2  0  0  0  0
 36 39  1  0  0  0  0
 37 46  1  0  0  0  0
 38 74  1  0  0  0  0
 39 41  1  0  0  0  0
 40 42  1  0  0  0  0
 40 43  1  0  0  0  0
 41 45  1  0  0  0  0
 42 47  1  0  0  0  0
 43 75  1  0  0  0  0
 44 47  1  0  0  0  0
 44 75  1  0  0  0  0
 45 78  1  0  0  0  0
 46 74  1  0  0  0  0
 47 72  1  0  0  0  0
 48 58  1  0  0  0  0
 49 59  1  0  0  0  0
 50 67  1  0  0  0  0
 51 68  1  0  0  0  0
 52 68  1  0  0  0  0
 53 69  1  0  0  0  0
 54 69  1  0  0  0  0
 55 69  1  0  0  0  0
 56 81  1  0  0  0  0
 57 60  1  0  0  0  0
 58 62  1  0  0  0  0
 59 63  1  0  0  0  0
 60 64  1  0  0  0  0
 61 65  1  0  0  0  0
 61 68  1  0  0  0  0
 62 71  1  0  0  0  0
 63 80  1  0  0  0  0
 64 80  1  0  0  0  0
 65 88  1  0  0  0  0
 66 69  1  0  0  0  0
 66 79  1  0  0  0  0
 67 81  1  0  0  0  0
 70 72  1  0  0  0  0
M  CHG  2  73   1  81   1
M  ISO  4  35 100  65 101  80 100  88 101
M  END
> <Batch ID>
0051

> <Smiles>
CCCn1c(CCC[100N:0](CCC)[100C:0](=O)N2CCCC(n3nc(-c4ccc(Oc5ccc(F)cc5F)cc4)c(C(N)=O)c3N)C2)cnc1C(C)(C)C[101CH2:1][101O:1]c1ccc2c(c1)CN(C(=O)C(NC(=O)C(C)NC)C(C)(C)C)C(C(=O)NC1CCCc3ccccc31)C2

> <Shape>
0.161

> <Color>
0.035

> <Negative vol penalty>
0.000

$$$$

  -OEChem-04052317333D

 84 92  0     1  0  0  0  0  0999 V2000
  -17.1966  -30.8003   23.0580 C   0  0  0  0  0  0  0  0  0  0  0  0
  -18.5661  -31.0004   22.9181 C   0  0  0  0  0  0  0  0  0  0  0  0
  -27.5634  -18.0838   20.7357 C   0  0  0  0  0  0  0  0  0  0  0  0
  -29.6165  -17.5754   19.5682 C   0  0  0  0  0  0  0  0  0  0  0  0
  -16.7035  -29.5238   23.3251 C   0  0  0  0  0  0  0  0  0  0  0  0
  -19.4436  -29.9243   23.0464 C   0  0  0  0  0  0  0  0  0  0  0  0
  -24.6745  -29.0539   19.9828 C   0  0  0  0  0  0  0  0  0  0  0  0
  -27.0585  -16.8292   20.3943 C   0  0  0  0  0  0  0  0  0  0  0  0
  -29.1117  -16.3207   19.2269 C   0  0  0  0  0  0  0  0  0  0  0  0
  -26.0074  -29.2902   20.3164 C   0  0  0  0  0  0  0  0  0  0  0  0
  -28.6912  -13.3171   20.7176 C   0  0  0  0  0  0  0  0  0  0  0  0
  -29.5344  -12.2169   20.8726 C   0  0  0  0  0  0  0  0  0  0  0  0
  -26.2378  -26.9888   21.0016 C   0  0  0  0  0  0  0  0  0  0  0  0
  -29.3495  -11.7425   18.5109 C   0  0  0  0  0  0  0  0  0  0  0  0
  -32.6901  -28.4981   17.2543 C   0  0  0  0  0  0  0  0  0  0  0  0
  -28.8424  -18.4570   20.3225 C   0  0  0  0  0  0  0  0  0  0  0  0
  -29.5677  -20.2646   21.9700 C   0  0  0  0  0  0  0  0  0  0  0  0
  -17.5746  -28.4298   23.4472 C   0  0  0  0  0  0  0  0  0  0  0  0
  -24.1093  -27.7838   20.1666 C   0  0  0  0  0  0  0  0  0  0  0  0
  -18.9618  -28.6322   23.3168 C   0  0  0  0  0  0  0  0  0  0  0  0
  -24.8982  -26.7382   20.6671 C   0  0  0  0  0  0  0  0  0  0  0  0
  -32.7872  -28.5173   18.6307 C   0  0  0  0  0  0  0  0  0  0  0  0
  -27.8327  -15.9476   19.6400 C   0  0  0  0  0  0  0  0  0  0  0  0
  -26.7885  -28.2584   20.8286 C   0  0  0  0  0  0  0  0  0  0  0  0
  -28.1770  -13.6300   19.4593 C   0  0  0  0  0  0  0  0  0  0  0  0
  -29.8636  -11.4296   19.7692 C   0  0  0  0  0  0  0  0  0  0  0  0
  -28.5061  -12.8427   18.3559 C   0  0  0  0  0  0  0  0  0  0  0  0
  -29.3642  -19.7532   20.6743 C   0  0  0  0  0  0  0  0  0  0  0  0
  -33.1184  -27.3156   19.2227 C   0  0  0  0  0  0  0  0  0  0  0  0
  -30.0760  -21.5241   21.7661 C   0  0  0  0  0  0  0  0  0  0  0  0
  -33.2150  -26.2872   17.1978 C   0  0  0  0  0  0  0  0  0  0  0  0
  -29.3194  -19.6555   23.2440 C   0  0  0  0  0  0  0  0  0  0  0  0
  -21.7311  -26.6201   21.9256 C   0  0  0  0  0  0  0  0  0  0  0  0
  -22.3673  -23.8966   20.2823 C   0  0  0  0  0  0  0  0  0  0  0  0
  -33.0826  -23.8139   17.1843 C   0  0  0  0  0  0  0  0  0  0  0  0
  -24.6166  -22.0414   18.5087 C   0  0  0  0  0  0  0  0  0  0  0  0
  -16.9985  -27.0770   23.7832 C   0  0  0  0  0  0  0  0  0  0  0  0
  -22.6774  -27.5383   19.7767 C   0  0  0  0  0  0  0  0  0  0  0  0
  -24.3447  -25.3515   20.8644 C   0  0  0  0  0  0  0  0  0  0  0  0
  -17.9664  -25.9235   23.5329 C   0  0  0  0  0  0  0  0  0  0  0  0
  -30.0191  -25.1320   18.6350 C   0  0  0  0  0  0  0  0  0  0  0  0
  -19.3433  -26.2486   24.1033 C   0  0  0  0  0  0  0  0  0  0  0  0
  -29.5098  -23.9253   19.4221 C   0  0  0  0  0  0  0  0  0  0  0  0
  -30.7081  -24.7077   17.3406 C   0  0  0  0  0  0  0  0  0  0  0  0
  -31.3112  -22.5205   18.3291 C   0  0  0  0  0  0  0  0  0  0  0  0
  -19.9436  -27.4856   23.4244 C   0  0  1  0  0  0  0  0  0  0  0  0
  -22.0622  -26.3368   20.4876 C   0  0  1  0  0  0  0  0  0  0  0  0
  -30.6365  -22.9039   19.6568 C   0  0  2  0  0  0  0  0  0  0  0  0
  -33.2520  -27.2169   20.7066 C   0  0  0  0  0  0  0  0  0  0  0  0
  -25.4806  -20.1547   17.0978 C   0  0  0  0  0  0  0  0  0  0  0  0
  -34.9508  -24.9173   16.0133 C   0  0  0  0  0  0  0  0  0  0  0  0
  -32.6324  -24.9126   15.0865 C   0  0  0  0  0  0  0  0  0  0  0  0
  -22.6185  -22.4802   22.9732 C   0  0  0  0  0  0  0  0  0  0  0  0
  -23.7660  -20.5932   21.7940 C   0  0  0  0  0  0  0  0  0  0  0  0
  -21.4101  -21.1743   21.2157 C   0  0  0  0  0  0  0  0  0  0  0  0
  -23.8609  -23.4177   16.0000 C   0  0  0  0  0  0  0  0  0  0  0  0
  -32.5419  -29.7828   19.4132 C   0  0  0  0  0  0  0  0  0  0  0  0
  -31.0598  -30.1492   19.5491 C   0  0  0  0  0  0  0  0  0  0  0  0
  -30.2546  -29.1077   20.3275 C   0  0  0  0  0  0  0  0  0  0  0  0
  -28.7817  -29.4854   20.4076 C   0  0  0  0  0  0  0  0  0  1  0  0
  -23.2803  -22.7123   20.4884 C   0  0  1  0  0  0  0  0  0  0  0  0
  -24.4977  -21.3119   17.1828 C   0  0  2  0  0  0  0  0  0  0  0  0
  -33.4534  -25.0486   16.4020 C   0  0  0  0  0  0  0  0  0  0  0  0
  -22.7789  -21.7665   21.6160 C   0  0  0  0  0  0  0  0  0  0  0  0
  -32.8982  -27.3967   16.5035 N   0  0  0  0  0  0  0  0  0  0  0  0
  -29.7145  -20.6173   19.7180 N   0  0  0  0  0  0  0  0  0  0  0  0
  -33.3399  -26.1766   18.5341 N   0  0  0  0  0  0  0  0  0  0  0  0
  -30.1432  -21.6845   20.4134 N   0  0  0  0  0  0  0  0  0  0  0  0
  -22.9376  -25.1630   20.4743 N   0  0  0  0  0  0  0  0  0  0  0  0
  -31.7559  -23.7141   17.6039 N   0  0  0  0  0  0  0  0  0  0  0  0
  -30.4676  -22.4991   22.6138 N   0  0  0  0  0  0  0  0  0  0  0  0
  -30.3464  -18.9110   23.8401 N   0  0  0  0  0  0  0  0  0  0  0  0
  -20.4665  -27.1422   22.1194 N   0  0  0  0  0  0  0  0  0  0  0  0
  -23.4156  -22.0696   19.1856 N   0  0  0  0  0  0  0  0  0  0  0  0
  -24.7703  -22.2441   16.0525 N   0  3  0  0  0  0  0  0  0  0  0  0
  -28.2140  -19.7545   23.8287 O   0  0  0  0  0  0  0  0  0  0  0  0
  -22.5610  -26.3813   22.7950 O   0  0  0  0  0  0  0  0  0  0  0  0
  -21.1931  -23.7055   19.9559 O   0  0  0  0  0  0  0  0  0  0  0  0
  -33.9482  -22.9661   17.4169 O   0  0  0  0  0  0  0  0  0  0  0  0
  -25.6703  -22.5336   18.9061 O   0  0  0  0  0  0  0  0  0  0  0  0
  -27.3405  -14.7231   19.3069 O   0  0  0  0  0  0  0  0  0  0  0  0
  -28.0895  -28.4866   21.1557 O   0  0  0  0  0  0  0  0  0  1  0  0
  -30.6747  -10.3740   19.9179 F   0  0  0  0  0  0  0  0  0  0  0  0
  -28.0162  -13.1390   17.1443 F   0  0  0  0  0  0  0  0  0  0  0  0
  1  2  1  0  0  0  0
  1  5  2  0  0  0  0
  2  6  2  0  0  0  0
  3  8  2  0  0  0  0
  3 16  1  0  0  0  0
  4  9  1  0  0  0  0
  4 16  2  0  0  0  0
  5 18  1  0  0  0  0
  6 20  1  0  0  0  0
  7 10  2  0  0  0  0
  7 19  1  0  0  0  0
  8 23  1  0  0  0  0
  9 23  2  0  0  0  0
 10 24  1  0  0  0  0
 11 12  2  0  0  0  0
 11 25  1  0  0  0  0
 12 26  1  0  0  0  0
 13 21  1  0  0  0  0
 13 24  2  0  0  0  0
 14 26  2  0  0  0  0
 14 27  1  0  0  0  0
 15 22  1  0  0  0  0
 15 65  2  0  0  0  0
 16 28  1  0  0  0  0
 17 28  1  0  0  0  0
 17 30  2  0  0  0  0
 17 32  1  0  0  0  0
 18 20  2  0  0  0  0
 18 37  1  0  0  0  0
 19 21  2  0  0  0  0
 19 38  1  0  0  0  0
 20 46  1  0  0  0  0
 21 39  1  0  0  0  0
 22 29  2  0  0  0  0
 22 57  1  0  0  0  0
 23 81  1  0  0  0  0
 24 82  1  0  0  0  0
 25 27  2  0  0  0  0
 25 81  1  0  0  0  0
 26 83  1  0  0  0  0
 27 84  1  0  0  0  0
 28 66  2  0  0  0  0
 29 49  1  0  0  0  0
 29 67  1  0  0  0  0
 30 68  1  0  0  0  0
 30 71  1  0  0  0  0
 31 63  1  0  0  0  0
 31 65  1  0  0  0  0
 31 67  2  0  0  0  0
 32 72  1  0  0  0  0
 32 76  2  0  0  0  0
 33 47  1  0  0  0  0
 33 73  1  0  0  0  0
 33 77  2  0  0  0  0
 34 61  1  0  0  0  0
 34 69  1  0  0  0  0
 34 78  2  0  0  0  0
 35 63  1  0  0  0  0
 35 70  1  0  0  0  0
 35 79  2  0  0  0  0
 36 62  1  0  0  0  0
 36 74  1  0  0  0  0
 36 80  2  0  0  0  0
 37 40  1  0  0  0  0
 38 47  1  0  0  0  0
 39 69  1  0  0  0  0
 40 42  1  0  0  0  0
 41 43  1  0  0  0  0
 41 44  1  0  0  0  0
 42 46  1  0  0  0  0
 43 48  1  0  0  0  0
 44 70  1  0  0  0  0
 45 48  1  0  0  0  0
 45 70  1  0  0  0  0
 46 73  1  0  0  0  0
 47 69  1  0  0  0  0
 48 68  1  0  0  0  0
 50 62  1  0  0  0  0
 51 63  1  0  0  0  0
 52 63  1  0  0  0  0
 53 64  1  0  0  0  0
 54 64  1  0  0  0  0
 55 64  1  0  0  0  0
 56 75  1  0  0  0  0
 57 58  1  0  0  0  0
 58 59  1  0  0  0  0
 59 60  1  0  0  0  0
 60 82  1  0  0  0  0
 61 64  1  0  0  0  0
 61 74  1  0  0  0  0
 62 75  1  0  0  0  0
 66 68  1  0  0  0  0
M  CHG  1  75   1
M  ISO  4  35 100  60 101  63 100  82 101
M  END
> <Batch ID>
0051

> <Smiles>
CNC(C)C(=O)NC(C(=O)N1Cc2cc([101O:1][101CH2:1]CCCc3cnc([100C:0](C)(C)[100C:0](=O)N4CCCC(n5nc(-c6ccc(Oc7ccc(F)cc7F)cc6)c(C(N)=O)c5N)C4)nc3C)ccc2CC1C(=O)NC1CCCc2ccccc21)C(C)(C)C

> <Shape>
0.219

> <Color>
0.063

> <Negative vol penalty>
0.000

$$$$

  -OEChem-04052317333D

 87 95  0     1  0  0  0  0  0999 V2000
  -20.0181  -33.9898   22.5796 C   0  0  0  0  0  0  0  0  0  0  0  0
  -21.2456  -33.5631   22.0830 C   0  0  0  0  0  0  0  0  0  0  0  0
  -24.5893   -9.1205   21.2904 C   0  0  0  0  0  0  0  0  0  0  0  0
  -23.0801  -11.0053   21.2091 C   0  0  0  0  0  0  0  0  0  0  0  0
  -19.3120  -33.1864   23.4739 C   0  0  0  0  0  0  0  0  0  0  0  0
  -21.7682  -32.3333   22.4813 C   0  0  0  0  0  0  0  0  0  0  0  0
  -25.0966  -28.4737   19.0855 C   0  0  0  0  0  0  0  0  0  0  0  0
  -23.7168   -8.4591   22.1547 C   0  0  0  0  0  0  0  0  0  0  0  0
  -22.2075  -10.3439   22.0733 C   0  0  0  0  0  0  0  0  0  0  0  0
  -26.4695  -28.2489   18.9950 C   0  0  0  0  0  0  0  0  0  0  0  0
  -20.8307   -6.7125   21.9246 C   0  0  0  0  0  0  0  0  0  0  0  0
  -20.5610   -5.3680   21.6695 C   0  0  0  0  0  0  0  0  0  0  0  0
  -26.2661  -26.4169   20.5511 C   0  0  0  0  0  0  0  0  0  0  0  0
  -21.4448   -4.7790   23.8396 C   0  0  0  0  0  0  0  0  0  0  0  0
  -29.9320  -21.8490   21.3413 C   0  0  0  0  0  0  0  0  0  0  0  0
  -28.8263  -21.6041   19.4565 C   0  0  0  0  0  0  0  0  0  0  0  0
  -24.2710  -10.3936   20.8177 C   0  0  0  0  0  0  0  0  0  0  0  0
  -25.1798  -11.0232   18.5187 C   0  0  0  0  0  0  0  0  0  0  0  0
  -19.8217  -31.9417   23.8760 C   0  0  0  0  0  0  0  0  0  0  0  0
  -24.2984  -27.6774   19.9192 C   0  0  0  0  0  0  0  0  0  0  0  0
  -21.0689  -31.5131   23.3829 C   0  0  0  0  0  0  0  0  0  0  0  0
  -24.8828  -26.6320   20.6484 C   0  0  0  0  0  0  0  0  0  0  0  0
  -28.7104  -21.3949   20.8090 C   0  0  0  0  0  0  0  0  0  0  0  0
  -22.5259   -9.0708   22.5461 C   0  0  0  0  0  0  0  0  0  0  0  0
  -27.0550  -27.2223   19.7301 C   0  0  0  0  0  0  0  0  0  0  0  0
  -21.4076   -7.0903   23.1371 C   0  0  0  0  0  0  0  0  0  0  0  0
  -20.8679   -4.4012   22.6270 C   0  0  0  0  0  0  0  0  0  0  0  0
  -21.7146   -6.1236   24.0946 C   0  0  0  0  0  0  0  0  0  0  0  0
  -25.1722  -11.0776   19.9254 C   0  0  0  0  0  0  0  0  0  0  0  0
  -26.2196  -11.8409   18.1491 C   0  0  0  0  0  0  0  0  0  0  0  0
  -24.3235  -10.2984   17.6259 C   0  0  0  0  0  0  0  0  0  0  0  0
  -22.4735  -28.2212   22.4643 C   0  0  0  0  0  0  0  0  0  0  0  0
  -21.6864  -25.0976   22.0826 C   0  0  0  0  0  0  0  0  0  0  0  0
  -22.5364  -22.0230   20.8698 C   0  0  0  0  0  0  0  0  0  0  0  0
  -28.9144  -16.4469   20.6389 C   0  0  0  0  0  0  0  0  0  0  0  0
  -19.0444  -31.1294   24.8813 C   0  0  0  0  0  0  0  0  0  0  0  0
  -22.8147  -27.9156   19.9852 C   0  0  0  0  0  0  0  0  0  0  0  0
  -24.0668  -25.7357   21.5425 C   0  0  0  0  0  0  0  0  0  0  0  0
  -19.4915  -29.6721   24.9632 C   0  0  0  0  0  0  0  0  0  0  0  0
  -30.4347  -13.4801   19.6833 C   0  0  0  0  0  0  0  0  0  0  0  0
  -21.0128  -29.5835   25.0320 C   0  0  0  0  0  0  0  0  0  0  0  0
  -29.2673  -12.5114   19.5000 C   0  0  0  0  0  0  0  0  0  0  0  0
  -30.2226  -14.3629   20.9074 C   0  0  0  0  0  0  0  0  0  0  0  0
  -27.7644  -14.1841   20.6916 C   0  0  0  0  0  0  0  0  0  0  0  0
  -21.6573  -30.1743   23.7722 C   0  0  1  0  0  0  0  0  0  0  0  0
  -22.1783  -27.3718   21.2606 C   0  0  1  0  0  0  0  0  0  0  0  0
  -27.9263  -13.2650   19.4635 C   0  0  2  0  0  0  0  0  0  0  0  0
  -21.7092  -19.6570   20.7449 C   0  0  0  0  0  0  0  0  0  0  0  0
  -22.4634  -24.6743   25.0027 C   0  0  0  0  0  0  0  0  0  0  0  0
  -22.5334  -22.2121   24.5546 C   0  0  0  0  0  0  0  0  0  0  0  0
  -20.3936  -23.4662   24.2883 C   0  0  0  0  0  0  0  0  0  0  0  0
  -22.4654  -22.0813   17.9117 C   0  0  0  0  0  0  0  0  0  0  0  0
  -27.5663  -20.8219   21.5357 C   0  0  0  0  0  0  0  0  0  0  0  0
  -27.6011  -19.2822   21.7089 C   0  0  0  0  0  0  0  0  0  0  0  0
  -29.8330  -24.9373   18.1466 C   0  0  0  0  0  0  0  0  0  0  0  0
  -31.0563  -24.0407   17.9445 C   0  0  0  0  0  0  0  0  0  0  0  0
  -30.2286  -26.4164   18.1817 C   0  0  0  0  0  0  0  0  0  0  0  0
  -30.6665  -22.5608   17.9501 C   0  0  0  0  0  0  0  0  0  0  0  0
  -27.5848  -18.5083   20.3924 C   0  0  0  0  0  0  0  0  0  0  0  0
  -26.4111  -16.4280   21.0102 C   0  0  0  0  0  0  0  0  0  0  0  0
  -29.0293  -27.3287   18.4086 C   0  0  0  0  0  0  0  0  0  1  0  0
  -25.7473  -15.7013   19.8601 C   0  0  0  0  0  0  0  0  0  0  0  0
  -22.2377  -23.7866   22.5888 C   0  0  1  0  0  0  0  0  0  0  0  0
  -21.7536  -21.0106   20.0531 C   0  0  2  0  0  0  0  0  0  0  0  0
  -21.9230  -23.5528   24.0933 C   0  0  0  0  0  0  0  0  0  0  0  0
  -30.7629  -22.3116   20.4034 N   0  0  0  0  0  0  0  0  0  0  0  0
  -26.1312  -11.8672   20.4160 N   0  0  0  0  0  0  0  0  0  0  0  0
  -30.0622  -22.1492   19.2682 N   0  0  0  0  0  0  0  0  0  0  0  0
  -26.7511  -12.3165   19.3116 N   0  0  0  0  0  0  0  0  0  0  0  0
  -22.6213  -26.0127   21.5781 N   0  0  0  0  0  0  0  0  0  0  0  0
  -28.9373  -15.0591   20.8419 N   0  0  0  0  0  0  0  0  0  0  0  0
  -26.7221  -12.1922   16.9463 N   0  0  0  0  0  0  0  0  0  0  0  0
  -23.3053   -9.5057   18.1730 N   0  0  0  0  0  0  0  0  0  0  0  0
  -21.5632  -29.2401   22.6708 N   0  0  0  0  0  0  0  0  0  0  0  0
  -21.7143  -22.7538   21.7013 N   0  0  0  0  0  0  0  0  0  0  0  0
  -27.6572  -17.0679   20.5924 N   0  0  0  0  0  0  0  0  0  0  0  0
  -22.3785  -20.8327   18.7119 N   0  3  0  0  0  0  0  0  0  0  0  0
  -24.4676  -10.3391   16.3805 O   0  0  0  0  0  0  0  0  0  0  0  0
  -23.4537  -27.9699   23.1556 O   0  0  0  0  0  0  0  0  0  0  0  0
  -20.4702  -25.2994   22.1263 O   0  0  0  0  0  0  0  0  0  0  0  0
  -23.7557  -22.1500   20.7819 O   0  0  0  0  0  0  0  0  0  0  0  0
  -29.9597  -17.0980   20.5135 O   0  0  0  0  0  0  0  0  0  0  0  0
  -21.6742   -8.4256   23.3892 O   0  0  0  0  0  0  0  0  0  0  0  0
  -28.3950  -27.0012   19.6441 O   0  0  0  0  0  0  0  0  0  1  0  0
  -20.6074   -3.1103   22.3826 F   0  0  0  0  0  0  0  0  0  0  0  0
  -22.2678   -6.4805   25.2618 F   0  0  0  0  0  0  0  0  0  0  0  0
  -25.4350  -16.6015   18.8890 F   0  0  0  0  0  0  0  0  0  0  0  0
  1  2  1  0  0  0  0
  1  5  2  0  0  0  0
  2  6  2  0  0  0  0
  3  8  2  0  0  0  0
  3 17  1  0  0  0  0
  4  9  1  0  0  0  0
  4 17  2  0  0  0  0
  5 19  1  0  0  0  0
  6 21  1  0  0  0  0
  7 10  2  0  0  0  0
  7 20  1  0  0  0  0
  8 24  1  0  0  0  0
  9 24  2  0  0  0  0
 10 25  1  0  0  0  0
 11 12  2  0  0  0  0
 11 26  1  0  0  0  0
 12 27  1  0  0  0  0
 13 22  1  0  0  0  0
 13 25  2  0  0  0  0
 14 27  2  0  0  0  0
 14 28  1  0  0  0  0
 15 23  1  0  0  0  0
 15 66  2  0  0  0  0
 16 23  2  0  0  0  0
 16 68  1  0  0  0  0
 17 29  1  0  0  0  0
 18 29  1  0  0  0  0
 18 30  2  0  0  0  0
 18 31  1  0  0  0  0
 19 21  2  0  0  0  0
 19 36  1  0  0  0  0
 20 22  2  0  0  0  0
 20 37  1  0  0  0  0
 21 45  1  0  0  0  0
 22 38  1  0  0  0  0
 23 53  1  0  0  0  0
 24 83  1  0  0  0  0
 25 84  1  0  0  0  0
 26 28  2  0  0  0  0
 26 83  1  0  0  0  0
 27 85  1  0  0  0  0
 28 86  1  0  0  0  0
 29 67  2  0  0  0  0
 30 69  1  0  0  0  0
 30 72  1  0  0  0  0
 31 73  1  0  0  0  0
 31 78  2  0  0  0  0
 32 46  1  0  0  0  0
 32 74  1  0  0  0  0
 32 79  2  0  0  0  0
 33 63  1  0  0  0  0
 33 70  1  0  0  0  0
 33 80  2  0  0  0  0
 34 64  1  0  0  0  0
 34 75  1  0  0  0  0
 34 81  2  0  0  0  0
 35 71  1  0  0  0  0
 35 76  1  0  0  0  0
 35 82  2  0  0  0  0
 36 39  1  0  0  0  0
 37 46  1  0  0  0  0
 38 70  1  0  0  0  0
 39 41  1  0  0  0  0
 40 42  1  0  0  0  0
 40 43  1  0  0  0  0
 41 45  1  0  0  0  0
 42 47  1  0  0  0  0
 43 71  1  0  0  0  0
 44 47  1  0  0  0  0
 44 71  1  0  0  0  0
 45 74  1  0  0  0  0
 46 70  1  0  0  0  0
 47 69  1  0  0  0  0
 48 64  1  0  0  0  0
 49 65  1  0  0  0  0
 50 65  1  0  0  0  0
 51 65  1  0  0  0  0
 52 77  1  0  0  0  0
 53 54  1  0  0  0  0
 54 59  1  0  0  0  0
 55 56  1  0  0  0  0
 55 57  1  0  0  0  0
 56 58  1  0  0  0  0
 57 61  1  0  0  0  0
 58 68  1  0  0  0  0
 59 76  1  0  0  0  0
 60 62  1  0  0  0  0
 60 76  1  0  0  0  0
 61 84  1  0  0  0  0
 62 87  1  0  0  0  0
 63 65  1  0  0  0  0
 63 75  1  0  0  0  0
 64 77  1  0  0  0  0
 66 68  1  0  0  0  0
 67 69  1  0  0  0  0
M  CHG  1  77   1
M  ISO  4  35 100  61 101  76 100  84 101
M  END
> <Batch ID>
0051

> <Smiles>
CNC(C)C(=O)NC(C(=O)N1Cc2cc([101O:1][101CH2:1]CCCCn3cc(CCC[100N:0](CCF)[100C:0](=O)N4CCCC(n5nc(-c6ccc(Oc7ccc(F)cc7F)cc6)c(C(N)=O)c5N)C4)cn3)ccc2CC1C(=O)NC1CCCc2ccccc21)C(C)(C)C

> <Shape>
0.269

> <Color>
0.105

> <Negative vol penalty>
0.000

$$$$

  -OEChem-04052317333D

 88 96  0     1  0  0  0  0  0999 V2000
  -28.9242  -24.5458   22.9369 C   0  0  0  0  0  0  0  0  0  0  0  0
  -29.3216  -23.2496   23.2490 C   0  0  0  0  0  0  0  0  0  0  0  0
  -23.0745   -9.8873   19.9749 C   0  0  0  0  0  0  0  0  0  0  0  0
  -23.9453   -9.8946   22.2285 C   0  0  0  0  0  0  0  0  0  0  0  0
  -29.8798  -25.5070   22.6100 C   0  0  0  0  0  0  0  0  0  0  0  0
  -30.6748  -22.9135   23.2334 C   0  0  0  0  0  0  0  0  0  0  0  0
  -32.0425  -20.1720   27.2655 C   0  0  0  0  0  0  0  0  0  0  0  0
  -22.3675   -8.7172   20.2518 C   0  0  0  0  0  0  0  0  0  0  0  0
  -23.2383   -8.7245   22.5055 C   0  0  0  0  0  0  0  0  0  0  0  0
  -31.7133  -18.8172   27.2557 C   0  0  0  0  0  0  0  0  0  0  0  0
  -23.0212   -5.4095   20.4887 C   0  0  0  0  0  0  0  0  0  0  0  0
  -23.0632   -4.3879   19.5399 C   0  0  0  0  0  0  0  0  0  0  0  0
  -33.9685  -18.2803   26.5885 C   0  0  0  0  0  0  0  0  0  0  0  0
  -20.6614   -4.5064   19.3062 C   0  0  0  0  0  0  0  0  0  0  0  0
  -30.4229  -13.8930   27.0389 C   0  0  0  0  0  0  0  0  0  0  0  0
  -23.8635  -10.4760   20.9632 C   0  0  0  0  0  0  0  0  0  0  0  0
  -24.1472  -13.0084   20.8463 C   0  0  0  0  0  0  0  0  0  0  0  0
  -31.2462  -25.1850   22.5998 C   0  0  0  0  0  0  0  0  0  0  0  0
  -33.3363  -20.5926   26.9257 C   0  0  0  0  0  0  0  0  0  0  0  0
  -31.6495  -23.8710   22.9047 C   0  0  0  0  0  0  0  0  0  0  0  0
  -34.3122  -19.6408   26.5972 C   0  0  0  0  0  0  0  0  0  0  0  0
  -22.4494   -8.1359   21.5171 C   0  0  0  0  0  0  0  0  0  0  0  0
  -32.6756  -17.8714   26.9143 C   0  0  0  0  0  0  0  0  0  0  0  0
  -21.7994   -5.9795   20.8463 C   0  0  0  0  0  0  0  0  0  0  0  0
  -21.8833   -3.9364   18.9487 C   0  0  0  0  0  0  0  0  0  0  0  0
  -20.6195   -5.5280   20.2550 C   0  0  0  0  0  0  0  0  0  0  0  0
  -24.5945  -11.6843   20.6775 C   0  0  0  0  0  0  0  0  0  0  0  0
  -31.8126  -13.6737   27.0899 C   0  0  0  0  0  0  0  0  0  0  0  0
  -29.9625  -12.9687   26.1332 C   0  0  0  0  0  0  0  0  0  0  0  0
  -25.2047  -13.7830   20.4360 C   0  0  0  0  0  0  0  0  0  0  0  0
  -22.8884  -13.4948   21.3306 C   0  0  0  0  0  0  0  0  0  0  0  0
  -34.5726  -22.4185   24.6363 C   0  0  0  0  0  0  0  0  0  0  0  0
  -37.3142  -21.9942   26.3175 C   0  0  0  0  0  0  0  0  0  0  0  0
  -39.0973  -20.0925   28.5199 C   0  0  0  0  0  0  0  0  0  0  0  0
  -30.8185  -14.6082   20.7856 C   0  0  0  0  0  0  0  0  0  0  0  0
  -32.2389  -26.2455   22.1940 C   0  0  0  0  0  0  0  0  0  0  0  0
  -33.6827  -22.0557   26.9671 C   0  0  0  0  0  0  0  0  0  0  0  0
  -35.7212  -20.0391   26.2443 C   0  0  0  0  0  0  0  0  0  0  0  0
  -33.6798  -25.9050   22.5655 C   0  0  0  0  0  0  0  0  0  0  0  0
  -29.4644  -12.5563   18.0183 C   0  0  0  0  0  0  0  0  0  0  0  0
  -34.0066  -24.4674   22.1739 C   0  0  0  0  0  0  0  0  0  0  0  0
  -28.0656  -12.2017   18.5201 C   0  0  0  0  0  0  0  0  0  0  0  0
  -30.4398  -12.7815   19.1696 C   0  0  0  0  0  0  0  0  0  0  0  0
  -28.5807  -13.4378   20.6619 C   0  0  0  0  0  0  0  0  0  0  0  0
  -33.1098  -23.4742   22.9228 C   0  0  1  0  0  0  0  0  0  0  0  0
  -34.8908  -22.4083   26.1048 C   0  0  1  0  0  0  0  0  0  0  0  0
  -27.5622  -13.2500   19.5275 C   0  0  2  0  0  0  0  0  0  0  0  0
  -32.3237  -18.7088   22.3233 C   0  0  0  0  0  0  0  0  0  0  0  0
  -41.3227  -19.9809   29.6742 C   0  0  0  0  0  0  0  0  0  0  0  0
  -38.6078  -21.0360   23.7255 C   0  0  0  0  0  0  0  0  0  0  0  0
  -40.4663  -20.0652   25.0937 C   0  0  0  0  0  0  0  0  0  0  0  0
  -40.0512  -22.5247   25.1236 C   0  0  0  0  0  0  0  0  0  0  0  0
  -31.0942  -11.1974   24.7562 C   0  0  0  0  0  0  0  0  0  0  0  0
  -37.8474  -20.2608   31.1973 C   0  0  0  0  0  0  0  0  0  0  0  0
  -26.4479  -13.7513   24.9806 C   0  0  0  0  0  0  0  0  0  0  0  0
  -32.8301  -14.4121   27.9252 C   0  0  0  0  0  0  0  0  0  0  0  0
  -28.6008  -12.6891   25.6420 C   0  0  0  0  0  0  0  0  0  0  0  0
  -31.3710  -17.7518   21.6202 C   0  0  0  0  0  0  0  0  0  0  0  0
  -28.2979  -15.5285   23.1891 C   0  0  0  0  0  0  0  0  0  0  0  0
  -31.1721  -16.4497   22.3867 C   0  0  0  0  0  0  0  0  0  0  0  0
  -28.8547  -15.8371   21.8034 C   0  0  0  0  0  0  0  0  0  0  0  0
  -28.4761  -14.0642   23.5698 C   0  0  0  0  0  0  0  0  0  0  0  0
  -33.4036  -15.6256   27.2016 C   0  0  0  0  0  0  0  0  0  1  0  0
  -38.4324  -20.9802   26.3008 C   0  0  1  0  0  0  0  0  0  0  0  0
  -39.8833  -20.4633   29.7646 C   0  0  2  0  0  0  0  0  0  0  0  0
  -39.3624  -21.1438   25.0657 C   0  0  0  0  0  0  0  0  0  0  0  0
  -25.8391  -11.6177   20.1974 N   0  0  0  0  0  0  0  0  0  0  0  0
  -32.2090  -12.6874   26.2812 N   0  0  0  0  0  0  0  0  0  0  0  0
  -31.0616  -12.2787   25.7134 N   0  0  0  0  0  0  0  0  0  0  0  0
  -26.1829  -12.9097   20.0608 N   0  0  0  0  0  0  0  0  0  0  0  0
  -36.0092  -21.4820   26.2930 N   0  0  0  0  0  0  0  0  0  0  0  0
  -29.9174  -13.7498   20.1344 N   0  0  0  0  0  0  0  0  0  0  0  0
  -25.3840  -15.1190   20.3632 N   0  0  0  0  0  0  0  0  0  0  0  0
  -21.9131  -12.5625   21.7098 N   0  0  0  0  0  0  0  0  0  0  0  0
  -33.5714  -23.3032   24.2837 N   0  0  0  0  0  0  0  0  0  0  0  0
  -39.1156  -21.1048   27.5839 N   0  0  0  0  0  0  0  0  0  0  0  0
  -30.2793  -15.5305   21.6952 N   0  0  0  0  0  0  0  0  0  0  0  0
  -39.2584  -19.8540   30.9725 N   0  3  0  0  0  0  0  0  0  0  0  0
  -27.9489  -13.8515   24.9627 N   0  3  1  0  0  0  0  0  0  0  0  0
  -22.6301  -14.7198   21.4090 O   0  0  0  0  0  0  0  0  0  0  0  0
  -35.1908  -21.6795   23.8791 O   0  0  0  0  0  0  0  0  0  0  0  0
  -37.5883  -23.1962   26.3582 O   0  0  0  0  0  0  0  0  0  0  0  0
  -38.5275  -19.0114   28.3894 O   0  0  0  0  0  0  0  0  0  0  0  0
  -32.0343  -14.5598   20.5593 O   0  0  0  0  0  0  0  0  0  0  0  0
  -21.7594   -6.9943   21.7878 O   0  0  0  0  0  0  0  0  0  0  0  0
  -32.3568  -16.5485   26.9033 O   0  0  0  0  0  0  0  0  0  1  0  0
  -21.9239   -2.9564   18.0365 F   0  0  0  0  0  0  0  0  0  0  0  0
  -19.4428   -6.0725   20.5936 F   0  0  0  0  0  0  0  0  0  0  0  0
  1  2  1  0  0  0  0
  1  5  2  0  0  0  0
  2  6  2  0  0  0  0
  3  8  2  0  0  0  0
  3 16  1  0  0  0  0
  4  9  1  0  0  0  0
  4 16  2  0  0  0  0
  5 18  1  0  0  0  0
  6 20  1  0  0  0  0
  7 10  2  0  0  0  0
  7 19  1  0  0  0  0
  8 22  1  0  0  0  0
  9 22  2  0  0  0  0
 10 23  1  0  0  0  0
 11 12  2  0  0  0  0
 11 24  1  0  0  0  0
 12 25  1  0  0  0  0
 13 21  1  0  0  0  0
 13 23  2  0  0  0  0
 14 25  2  0  0  0  0
 14 26  1  0  0  0  0
 15 28  1  0  0  0  0
 15 29  2  0  0  0  0
 16 27  1  0  0  0  0
 17 27  1  0  0  0  0
 17 30  2  0  0  0  0
 17 31  1  0  0  0  0
 18 20  2  0  0  0  0
 18 36  1  0  0  0  0
 19 21  2  0  0  0  0
 19 37  1  0  0  0  0
 20 45  1  0  0  0  0
 21 38  1  0  0  0  0
 22 85  1  0  0  0  0
 23 86  1  0  0  0  0
 24 26  2  0  0  0  0
 24 85  1  0  0  0  0
 25 87  1  0  0  0  0
 26 88  1  0  0  0  0
 27 67  2  0  0  0  0
 28 56  1  0  0  0  0
 28 68  2  0  0  0  0
 29 57  1  0  0  0  0
 29 69  1  0  0  0  0
 30 70  1  0  0  0  0
 30 73  1  0  0  0  0
 31 74  1  0  0  0  0
 31 80  2  0  0  0  0
 32 46  1  0  0  0  0
 32 75  1  0  0  0  0
 32 81  2  0  0  0  0
 33 64  1  0  0  0  0
 33 71  1  0  0  0  0
 33 82  2  0  0  0  0
 34 65  1  0  0  0  0
 34 76  1  0  0  0  0
 34 83  2  0  0  0  0
 35 72  1  0  0  0  0
 35 77  1  0  0  0  0
 35 84  2  0  0  0  0
 36 39  1  0  0  0  0
 37 46  1  0  0  0  0
 38 71  1  0  0  0  0
 39 41  1  0  0  0  0
 40 42  1  0  0  0  0
 40 43  1  0  0  0  0
 41 45  1  0  0  0  0
 42 47  1  0  0  0  0
 43 72  1  0  0  0  0
 44 47  1  0  0  0  0
 44 72  1  0  0  0  0
 45 75  1  0  0  0  0
 46 71  1  0  0  0  0
 47 70  1  0  0  0  0
 48 58  1  0  0  0  0
 49 65  1  0  0  0  0
 50 66  1  0  0  0  0
 51 66  1  0  0  0  0
 52 66  1  0  0  0  0
 53 69  1  0  0  0  0
 54 78  1  0  0  0  0
 55 79  1  0  0  0  0
 56 63  1  0  0  0  0
 57 79  1  0  0  0  0
 58 60  1  0  0  0  0
 59 61  1  0  0  0  0
 59 62  1  0  0  0  0
 60 77  1  0  0  0  0
 61 77  1  0  0  0  0
 62 79  1  0  0  0  0
 63 86  1  0  0  0  0
 64 66  1  0  0  0  0
 64 76  1  0  0  0  0
 65 78  1  0  0  0  0
 67 70  1  0  0  0  0
 68 69  1  0  0  0  0
M  CHG  2  78   1  79   1
M  ISO  4  35 100  63 101  77 100  86 101
M  END
> <Batch ID>
0051

> <Smiles>
CCC[100N:0](CCCN(C)Cc1cc(C[101CH2:1][101O:1]c2ccc3c(c2)CN(C(=O)C(NC(=O)C(C)NC)C(C)(C)C)C(C(=O)NC2CCCc4ccccc42)C3)nn1C)[100C:0](=O)N1CCCC(n2nc(-c3ccc(Oc4ccc(F)cc4F)cc3)c(C(N)=O)c2N)C1

> <Shape>
0.152

> <Color>
0.178

> <Negative vol penalty>
0.000

$$$$

  -OEChem-04052317333D

 90 98  0     1  0  0  0  0  0999 V2000
  -24.5552  -18.5105   21.8179 C   0  0  0  0  0  0  0  0  0  0  0  0
  -25.1512  -19.6369   21.2599 C   0  0  0  0  0  0  0  0  0  0  0  0
  -23.1258   -9.9407   21.9582 C   0  0  0  0  0  0  0  0  0  0  0  0
  -23.7889  -11.2472   23.8792 C   0  0  0  0  0  0  0  0  0  0  0  0
  -23.1868  -18.5072   22.0848 C   0  0  0  0  0  0  0  0  0  0  0  0
  -24.3788  -20.7604   20.9674 C   0  0  0  0  0  0  0  0  0  0  0  0
  -26.5888  -25.0735   22.4366 C   0  0  0  0  0  0  0  0  0  0  0  0
  -22.3725   -9.1073   22.7849 C   0  0  0  0  0  0  0  0  0  0  0  0
  -23.0356  -10.4138   24.7060 C   0  0  0  0  0  0  0  0  0  0  0  0
  -27.6091  -25.5735   21.6286 C   0  0  0  0  0  0  0  0  0  0  0  0
  -19.3663   -9.1890   24.3306 C   0  0  0  0  0  0  0  0  0  0  0  0
  -18.0809   -8.8483   23.9096 C   0  0  0  0  0  0  0  0  0  0  0  0
  -26.0565  -27.1364   20.6458 C   0  0  0  0  0  0  0  0  0  0  0  0
  -18.6961   -6.5120   23.9220 C   0  0  0  0  0  0  0  0  0  0  0  0
  -29.1283  -25.1115   16.5743 C   0  0  0  0  0  0  0  0  0  0  0  0
  -23.8340  -11.0106   22.5053 C   0  0  0  0  0  0  0  0  0  0  0  0
  -24.1798  -13.0440   21.0042 C   0  0  0  0  0  0  0  0  0  0  0  0
  -22.3989  -19.6348   21.8044 C   0  0  0  0  0  0  0  0  0  0  0  0
  -25.2900  -25.5946   22.3473 C   0  0  0  0  0  0  0  0  0  0  0  0
  -22.9983  -20.7717   21.2295 C   0  0  0  0  0  0  0  0  0  0  0  0
  -25.0221  -26.6430   21.4555 C   0  0  0  0  0  0  0  0  0  0  0  0
  -22.3273   -9.3439   24.1589 C   0  0  0  0  0  0  0  0  0  0  0  0
  -27.3424  -26.6032   20.7310 C   0  0  0  0  0  0  0  0  0  0  0  0
  -20.3167   -8.1912   24.5472 C   0  0  0  0  0  0  0  0  0  0  0  0
  -17.7458   -7.5098   23.7053 C   0  0  0  0  0  0  0  0  0  0  0  0
  -19.9816   -6.8527   24.3429 C   0  0  0  0  0  0  0  0  0  0  0  0
  -24.6129  -11.8715   21.6518 C   0  0  0  0  0  0  0  0  0  0  0  0
  -29.5400  -26.0478   17.4802 C   0  0  0  0  0  0  0  0  0  0  0  0
  -25.2859  -13.4878   20.3216 C   0  0  0  0  0  0  0  0  0  0  0  0
  -30.6690  -24.1828   17.8643 C   0  0  0  0  0  0  0  0  0  0  0  0
  -22.8927  -13.6756   21.0184 C   0  0  0  0  0  0  0  0  0  0  0  0
  -22.4469  -24.4103   21.5615 C   0  0  0  0  0  0  0  0  0  0  0  0
  -21.4052  -27.3401   22.4851 C   0  0  0  0  0  0  0  0  0  0  0  0
  -22.1113  -30.6414   22.9844 C   0  0  0  0  0  0  0  0  0  0  0  0
  -30.7566  -14.5677   20.0964 C   0  0  0  0  0  0  0  0  0  0  0  0
  -20.9152  -19.5671   22.0666 C   0  0  0  0  0  0  0  0  0  0  0  0
  -24.2067  -25.0625   23.2448 C   0  0  0  0  0  0  0  0  0  0  0  0
  -23.6493  -27.2509   21.3357 C   0  0  0  0  0  0  0  0  0  0  0  0
  -20.2351  -20.9336   22.0740 C   0  0  0  0  0  0  0  0  0  0  0  0
  -29.7208  -11.2299   19.4159 C   0  0  0  0  0  0  0  0  0  0  0  0
  -20.6873  -21.7616   20.8754 C   0  0  0  0  0  0  0  0  0  0  0  0
  -28.2666  -11.1945   19.8891 C   0  0  0  0  0  0  0  0  0  0  0  0
  -30.5868  -12.1063   20.3182 C   0  0  0  0  0  0  0  0  0  0  0  0
  -28.6284  -13.4425   20.9912 C   0  0  0  0  0  0  0  0  0  0  0  0
  -22.1984  -22.0188   20.9211 C   0  0  1  0  0  0  0  0  0  0  0  0
  -22.8033  -25.3185   22.7041 C   0  0  1  0  0  0  0  0  0  0  0  0
  -27.7044  -12.6160   20.0804 C   0  0  2  0  0  0  0  0  0  0  0  0
  -21.0473  -32.7960   23.7077 C   0  0  0  0  0  0  0  0  0  0  0  0
  -20.0261  -27.5668   19.7728 C   0  0  0  0  0  0  0  0  0  0  0  0
  -19.8081  -30.0295   20.1676 C   0  0  0  0  0  0  0  0  0  0  0  0
  -18.6806  -28.4176   21.7016 C   0  0  0  0  0  0  0  0  0  0  0  0
  -32.6549  -16.7512   21.6125 C   0  0  0  0  0  0  0  0  0  0  0  0
  -30.5882  -18.0498   22.2189 C   0  0  0  0  0  0  0  0  0  0  0  0
  -29.7195  -22.7223   16.1034 C   0  0  0  0  0  0  0  0  0  0  0  0
  -30.2289  -22.8645   20.3978 C   0  0  0  0  0  0  0  0  0  0  0  0
  -23.9535  -30.9136   25.2847 C   0  0  0  0  0  0  0  0  0  0  0  0
  -33.2754  -18.6498   19.5885 C   0  0  0  0  0  0  0  0  0  0  0  0
  -29.1222  -27.4829   17.6909 C   0  0  0  0  0  0  0  0  0  0  0  0
  -31.6157  -23.2113   18.4667 C   0  0  0  0  0  0  0  0  0  0  0  0
  -31.9106  -21.2484   19.8207 C   0  0  0  0  0  0  0  0  0  0  0  0
  -30.7699  -17.0430   19.9188 C   0  0  0  0  0  0  0  0  0  0  0  0
  -31.2100  -19.9360   20.1179 C   0  0  0  0  0  0  0  0  0  0  0  0
  -27.9571  -27.6104   18.6662 C   0  0  0  0  0  0  0  0  0  1  0  0
  -21.1948  -28.6664   21.7954 C   0  0  1  0  0  0  0  0  0  0  0  0
  -21.8250  -31.5672   24.1529 C   0  0  2  0  0  0  0  0  0  0  0  0
  -19.9529  -28.6575   20.8600 C   0  0  0  0  0  0  0  0  0  0  0  0
  -31.5466  -17.6674   21.0878 C   0  0  0  0  0  0  0  0  0  0  0  0
  -25.8942  -11.5882   21.4028 N   0  0  0  0  0  0  0  0  0  0  0  0
  -29.8436  -23.9676   16.8348 N   0  0  0  0  0  0  0  0  0  0  0  0
  -26.2757  -12.5890   20.5911 N   0  0  0  0  0  0  0  0  0  0  0  0
  -30.4932  -25.4459   18.2657 N   0  3  0  0  0  0  0  0  0  0  0  0
  -22.6221  -26.6922   22.2302 N   0  0  0  0  0  0  0  0  0  0  0  0
  -29.9992  -13.4410   20.4569 N   0  0  0  0  0  0  0  0  0  0  0  0
  -25.4988  -14.5553   19.5230 N   0  0  0  0  0  0  0  0  0  0  0  0
  -21.8678  -13.0869   21.7716 N   0  0  0  0  0  0  0  0  0  0  0  0
  -22.5044  -23.0652   21.8729 N   0  0  0  0  0  0  0  0  0  0  0  0
  -21.1403  -29.6715   22.8514 N   0  0  0  0  0  0  0  0  0  0  0  0
  -30.1224  -15.7940   20.2529 N   0  0  0  0  0  0  0  0  0  0  0  0
  -30.9527  -22.2275   19.2894 N   0  0  1  0  0  0  0  0  0  0  0  0
  -23.0991  -32.0192   24.7800 N   0  3  0  0  0  0  0  0  0  0  0  0
  -32.1969  -18.9400   20.6033 N   0  3  1  0  0  0  0  0  0  0  0  0
  -22.6538  -14.7218   20.3688 O   0  0  0  0  0  0  0  0  0  0  0  0
  -22.1409  -24.8940   20.4779 O   0  0  0  0  0  0  0  0  0  0  0  0
  -20.5252  -26.8988   23.2284 O   0  0  0  0  0  0  0  0  0  0  0  0
  -23.0957  -30.7684   22.2596 O   0  0  0  0  0  0  0  0  0  0  0  0
  -31.9105  -14.4863   19.6618 O   0  0  0  0  0  0  0  0  0  0  0  0
  -21.5921   -8.5310   24.9659 O   0  0  0  0  0  0  0  0  0  0  0  0
  -28.3362  -27.0926   19.9408 O   0  0  0  0  0  0  0  0  0  1  0  0
  -16.5109   -7.1826   23.3026 F   0  0  0  0  0  0  0  0  0  0  0  0
  -20.8900   -5.8896   24.5505 F   0  0  0  0  0  0  0  0  0  0  0  0
  1  2  1  0  0  0  0
  1  5  2  0  0  0  0
  2  6  2  0  0  0  0
  3  8  2  0  0  0  0
  3 16  1  0  0  0  0
  4  9  1  0  0  0  0
  4 16  2  0  0  0  0
  5 18  1  0  0  0  0
  6 20  1  0  0  0  0
  7 10  2  0  0  0  0
  7 19  1  0  0  0  0
  8 22  1  0  0  0  0
  9 22  2  0  0  0  0
 10 23  1  0  0  0  0
 11 12  2  0  0  0  0
 11 24  1  0  0  0  0
 12 25  1  0  0  0  0
 13 21  1  0  0  0  0
 13 23  2  0  0  0  0
 14 25  2  0  0  0  0
 14 26  1  0  0  0  0
 15 28  2  0  0  0  0
 15 69  1  0  0  0  0
 16 27  1  0  0  0  0
 17 27  1  0  0  0  0
 17 29  2  0  0  0  0
 17 31  1  0  0  0  0
 18 20  2  0  0  0  0
 18 36  1  0  0  0  0
 19 21  2  0  0  0  0
 19 37  1  0  0  0  0
 20 45  1  0  0  0  0
 21 38  1  0  0  0  0
 22 87  1  0  0  0  0
 23 88  1  0  0  0  0
 24 26  2  0  0  0  0
 24 87  1  0  0  0  0
 25 89  1  0  0  0  0
 26 90  1  0  0  0  0
 27 68  2  0  0  0  0
 28 58  1  0  0  0  0
 28 71  1  0  0  0  0
 29 70  1  0  0  0  0
 29 74  1  0  0  0  0
 30 59  1  0  0  0  0
 30 69  1  0  0  0  0
 30 71  2  0  0  0  0
 31 75  1  0  0  0  0
 31 82  2  0  0  0  0
 32 46  1  0  0  0  0
 32 76  1  0  0  0  0
 32 83  2  0  0  0  0
 33 64  1  0  0  0  0
 33 72  1  0  0  0  0
 33 84  2  0  0  0  0
 34 65  1  0  0  0  0
 34 77  1  0  0  0  0
 34 85  2  0  0  0  0
 35 73  1  0  0  0  0
 35 78  1  0  0  0  0
 35 86  2  0  0  0  0
 36 39  1  0  0  0  0
 37 46  1  0  0  0  0
 38 72  1  0  0  0  0
 39 41  1  0  0  0  0
 40 42  1  0  0  0  0
 40 43  1  0  0  0  0
 41 45  1  0  0  0  0
 42 47  1  0  0  0  0
 43 73  1  0  0  0  0
 44 47  1  0  0  0  0
 44 73  1  0  0  0  0
 45 76  1  0  0  0  0
 46 72  1  0  0  0  0
 47 70  1  0  0  0  0
 48 65  1  0  0  0  0
 49 66  1  0  0  0  0
 50 66  1  0  0  0  0
 51 66  1  0  0  0  0
 52 67  1  0  0  0  0
 53 67  1  0  0  0  0
 54 69  1  0  0  0  0
 55 79  1  0  0  0  0
 56 80  1  0  0  0  0
 57 81  1  0  0  0  0
 58 63  1  0  0  0  0
 59 79  1  0  0  0  0
 60 62  1  0  0  0  0
 60 79  1  0  0  0  0
 61 67  1  0  0  0  0
 61 78  1  0  0  0  0
 62 81  1  0  0  0  0
 63 88  1  0  0  0  0
 64 66  1  0  0  0  0
 64 77  1  0  0  0  0
 65 80  1  0  0  0  0
 67 81  1  0  0  0  0
 68 70  1  0  0  0  0
M  CHG  3  71   1  80   1  81   1
M  ISO  4  35 100  63 101  78 100  88 101
M  END
> <Batch ID>
0051

> <Smiles>
CNC(C)C(=O)NC(C(=O)N1Cc2cc([101O:1][101CH2:1]Cc3cn(C)c(CN(C)CCN(C)C(C)(C)C[100NH:0][100C:0](=O)N4CCCC(n5nc(-c6ccc(Oc7ccc(F)cc7F)cc6)c(C(N)=O)c5N)C4)n3)ccc2CC1C(=O)NC1CCCc2ccccc21)C(C)(C)C

> <Shape>
0.237

> <Color>
0.124

> <Negative vol penalty>
0.000

$$$$

  -OEChem-04052317332D

  0  0  0     0  0  0  0  0  0999 V2000
M  END
$$$$

  -OEChem-04052317333D

 81 89  0     1  0  0  0  0  0999 V2000
  -19.0304  -33.6020   21.2444 C   0  0  0  0  0  0  0  0  0  0  0  0
  -20.3502  -33.3279   20.9001 C   0  0  0  0  0  0  0  0  0  0  0  0
  -25.9426  -15.5427   22.5493 C   0  0  0  0  0  0  0  0  0  0  0  0
  -25.5290  -14.9363   20.2475 C   0  0  0  0  0  0  0  0  0  0  0  0
  -18.4110  -32.8754   22.2604 C   0  0  0  0  0  0  0  0  0  0  0  0
  -21.0516  -32.3278   21.5724 C   0  0  0  0  0  0  0  0  0  0  0  0
  -25.2786  -28.5751   19.2153 C   0  0  0  0  0  0  0  0  0  0  0  0
  -24.9134  -14.6945   22.9577 C   0  0  0  0  0  0  0  0  0  0  0  0
  -24.4998  -14.0880   20.6559 C   0  0  0  0  0  0  0  0  0  0  0  0
  -26.6724  -28.6049   19.2302 C   0  0  0  0  0  0  0  0  0  0  0  0
  -24.2031  -10.9978   21.9911 C   0  0  0  0  0  0  0  0  0  0  0  0
  -24.1476   -9.7268   21.4194 C   0  0  0  0  0  0  0  0  0  0  0  0
  -26.6777  -27.1208   21.1319 C   0  0  0  0  0  0  0  0  0  0  0  0
  -21.9474  -10.2147   20.5485 C   0  0  0  0  0  0  0  0  0  0  0  0
  -30.4708  -24.0345   17.6893 C   0  0  0  0  0  0  0  0  0  0  0  0
  -26.2504  -15.6637   21.1941 C   0  0  0  0  0  0  0  0  0  0  0  0
  -28.6730  -16.2126   20.6133 C   0  0  0  0  0  0  0  0  0  0  0  0
  -19.1021  -31.8593   22.9390 C   0  0  0  0  0  0  0  0  0  0  0  0
  -24.5725  -27.8254   20.1669 C   0  0  0  0  0  0  0  0  0  0  0  0
  -20.4413  -31.5878   22.5994 C   0  0  0  0  0  0  0  0  0  0  0  0
  -25.2751  -27.0811   21.1253 C   0  0  0  0  0  0  0  0  0  0  0  0
  -24.1920  -13.9671   22.0110 C   0  0  0  0  0  0  0  0  0  0  0  0
  -27.3721  -27.8800   20.1904 C   0  0  0  0  0  0  0  0  0  0  0  0
  -23.1308  -11.8773   21.8417 C   0  0  0  0  0  0  0  0  0  0  0  0
  -23.0198   -9.3352   20.6980 C   0  0  0  0  0  0  0  0  0  0  0  0
  -22.0030  -11.4858   21.1203 C   0  0  0  0  0  0  0  0  0  0  0  0
  -27.3131  -16.5402   20.7715 C   0  0  0  0  0  0  0  0  0  0  0  0
  -29.9416  -25.2948   18.0007 C   0  0  0  0  0  0  0  0  0  0  0  0
  -29.2619  -17.3820   20.1985 C   0  0  0  0  0  0  0  0  0  0  0  0
  -29.3439  -14.9628   20.8224 C   0  0  0  0  0  0  0  0  0  0  0  0
  -22.4826  -28.5110   22.4617 C   0  0  0  0  0  0  0  0  0  0  0  0
  -22.3020  -25.2828   22.7239 C   0  0  0  0  0  0  0  0  0  0  0  0
  -27.0068  -22.0779   17.3457 C   0  0  0  0  0  0  0  0  0  0  0  0
  -23.7840  -22.2485   22.2304 C   0  0  0  0  0  0  0  0  0  0  0  0
  -18.4057  -31.1328   24.0623 C   0  0  0  0  0  0  0  0  0  0  0  0
  -23.0697  -27.7823   20.1207 C   0  0  0  0  0  0  0  0  0  0  0  0
  -24.5646  -26.2441   22.1564 C   0  0  0  0  0  0  0  0  0  0  0  0
  -19.0991  -29.8358   24.4713 C   0  0  0  0  0  0  0  0  0  0  0  0
  -28.8060  -22.1277   20.5059 C   0  0  0  0  0  0  0  0  0  0  0  0
  -20.6012  -30.0570   24.6186 C   0  0  0  0  0  0  0  0  0  0  0  0
  -28.7220  -20.6616   20.9286 C   0  0  0  0  0  0  0  0  0  0  0  0
  -27.5400  -22.5762   19.7806 C   0  0  0  0  0  0  0  0  0  0  0  0
  -27.1036  -20.2612   19.0225 C   0  0  0  0  0  0  0  0  0  0  0  0
  -21.2275  -30.4938   23.2887 C   0  0  1  0  0  0  0  0  0  0  0  0
  -22.4417  -27.3953   21.4561 C   0  0  1  0  0  0  0  0  0  0  0  0
  -28.3737  -19.7610   19.7307 C   0  0  2  0  0  0  0  0  0  0  0  0
  -24.0068  -19.7500   22.1595 C   0  0  0  0  0  0  0  0  0  0  0  0
  -26.8308  -23.7885   15.5665 C   0  0  0  0  0  0  0  0  0  0  0  0
  -25.9658  -24.2108   17.8683 C   0  0  0  0  0  0  0  0  0  0  0  0
  -22.9071  -25.6156   25.6959 C   0  0  0  0  0  0  0  0  0  0  0  0
  -23.4535  -23.1740   25.7868 C   0  0  0  0  0  0  0  0  0  0  0  0
  -21.1514  -23.9131   25.1730 C   0  0  0  0  0  0  0  0  0  0  0  0
  -22.7268  -22.1165   19.4693 C   0  0  0  0  0  0  0  0  0  0  0  0
  -30.6536  -26.5337   18.4823 C   0  0  0  0  0  0  0  0  0  0  0  0
  -30.7549  -26.6328   20.0059 C   0  0  0  0  0  0  0  0  0  0  0  0
  -29.3999  -26.7445   20.6951 C   0  0  0  0  0  0  0  0  0  1  0  0
  -23.0376  -24.2320   23.5200 C   0  0  1  0  0  0  0  0  0  0  0  0
  -23.2633  -20.9609   21.6177 C   0  0  2  0  0  0  0  0  0  0  0  0
  -27.1045  -23.5559   17.0632 C   0  0  0  0  0  0  0  0  0  0  0  0
  -22.6510  -24.2509   25.0258 C   0  0  0  0  0  0  0  0  0  0  0  0
  -29.4903  -23.2153   17.2991 N   0  0  0  0  0  0  0  0  0  0  0  0
  -27.0533  -17.8178   20.4811 N   0  0  0  0  0  0  0  0  0  0  0  0
  -28.6193  -25.2904   17.8104 N   0  0  0  0  0  0  0  0  0  0  0  0
  -28.2581  -18.3032   20.1363 N   0  0  0  0  0  0  0  0  0  0  0  0
  -28.4258  -24.0280   17.3963 N   0  0  0  0  0  0  0  0  0  0  0  0
  -23.0946  -26.2394   22.0739 N   0  0  0  0  0  0  0  0  0  0  0  0
  -27.2273  -21.6769   18.6635 N   0  0  0  0  0  0  0  0  0  0  0  0
  -30.5353  -17.7019   19.8846 N   0  0  0  0  0  0  0  0  0  0  0  0
  -28.5884  -13.8621   21.2490 N   0  0  0  0  0  0  0  0  0  0  0  0
  -21.3907  -29.3562   22.4092 N   0  0  0  0  0  0  0  0  0  0  0  0
  -22.7805  -22.9603   22.8529 N   0  0  0  0  0  0  0  0  0  0  0  0
  -23.4269  -20.9889   20.1367 N   0  3  0  0  0  0  0  0  0  0  0  0
  -30.5797  -14.8305   20.6524 O   0  0  0  0  0  0  0  0  0  0  0  0
  -23.4337  -28.5976   23.2295 O   0  0  0  0  0  0  0  0  0  0  0  0
  -21.0698  -25.2517   22.6745 O   0  0  0  0  0  0  0  0  0  0  0  0
  -26.7450  -21.3043   16.4209 O   0  0  0  0  0  0  0  0  0  0  0  0
  -24.9638  -22.5871   22.1666 O   0  0  0  0  0  0  0  0  0  0  0  0
  -23.1878  -13.1392   22.4092 O   0  0  0  0  0  0  0  0  0  0  0  0
  -28.7326  -27.9079   20.2077 O   0  0  0  0  0  0  0  0  0  1  0  0
  -22.9672   -8.1151   20.1477 F   0  0  0  0  0  0  0  0  0  0  0  0
  -20.9702  -12.3268   20.9723 F   0  0  0  0  0  0  0  0  0  0  0  0
  1  2  1  0  0  0  0
  1  5  2  0  0  0  0
  2  6  2  0  0  0  0
  3  8  2  0  0  0  0
  3 16  1  0  0  0  0
  4  9  1  0  0  0  0
  4 16  2  0  0  0  0
  5 18  1  0  0  0  0
  6 20  1  0  0  0  0
  7 10  2  0  0  0  0
  7 19  1  0  0  0  0
  8 22  1  0  0  0  0
  9 22  2  0  0  0  0
 10 23  1  0  0  0  0
 11 12  2  0  0  0  0
 11 24  1  0  0  0  0
 12 25  1  0  0  0  0
 13 21  1  0  0  0  0
 13 23  2  0  0  0  0
 14 25  2  0  0  0  0
 14 26  1  0  0  0  0
 15 28  1  0  0  0  0
 15 61  2  0  0  0  0
 16 27  1  0  0  0  0
 17 27  1  0  0  0  0
 17 29  2  0  0  0  0
 17 30  1  0  0  0  0
 18 20  2  0  0  0  0
 18 35  1  0  0  0  0
 19 21  2  0  0  0  0
 19 36  1  0  0  0  0
 20 44  1  0  0  0  0
 21 37  1  0  0  0  0
 22 78  1  0  0  0  0
 23 79  1  0  0  0  0
 24 26  2  0  0  0  0
 24 78  1  0  0  0  0
 25 80  1  0  0  0  0
 26 81  1  0  0  0  0
 27 62  2  0  0  0  0
 28 54  1  0  0  0  0
 28 63  2  0  0  0  0
 29 64  1  0  0  0  0
 29 68  1  0  0  0  0
 30 69  1  0  0  0  0
 30 73  2  0  0  0  0
 31 45  1  0  0  0  0
 31 70  1  0  0  0  0
 31 74  2  0  0  0  0
 32 57  1  0  0  0  0
 32 66  1  0  0  0  0
 32 75  2  0  0  0  0
 33 59  1  0  0  0  0
 33 67  1  0  0  0  0
 33 76  2  0  0  0  0
 34 58  1  0  0  0  0
 34 71  1  0  0  0  0
 34 77  2  0  0  0  0
 35 38  1  0  0  0  0
 36 45  1  0  0  0  0
 37 66  1  0  0  0  0
 38 40  1  0  0  0  0
 39 41  1  0  0  0  0
 39 42  1  0  0  0  0
 40 44  1  0  0  0  0
 41 46  1  0  0  0  0
 42 67  1  0  0  0  0
 43 46  1  0  0  0  0
 43 67  1  0  0  0  0
 44 70  1  0  0  0  0
 45 66  1  0  0  0  0
 46 64  1  0  0  0  0
 47 58  1  0  0  0  0
 48 59  1  0  0  0  0
 49 59  1  0  0  0  0
 50 60  1  0  0  0  0
 51 60  1  0  0  0  0
 52 60  1  0  0  0  0
 53 72  1  0  0  0  0
 54 55  1  0  0  0  0
 55 56  1  0  0  0  0
 56 79  1  0  0  0  0
 57 60  1  0  0  0  0
 57 71  1  0  0  0  0
 58 72  1  0  0  0  0
 59 65  1  0  0  0  0
 61 65  1  0  0  0  0
 62 64  1  0  0  0  0
 63 65  1  0  0  0  0
M  CHG  1  72   1
M  ISO  4  33 100  56 101  59 100  79 101
M  END
> <Batch ID>
0051

> <Smiles>
CNC(C)C(=O)NC(C(=O)N1Cc2cc([101O:1][101CH2:1]CCc3cnn([100C:0](C)(C)[100C:0](=O)N4CCCC(n5nc(-c6ccc(Oc7ccc(F)cc7F)cc6)c(C(N)=O)c5N)C4)n3)ccc2CC1C(=O)NC1CCCc2ccccc21)C(C)(C)C

> <Shape>
0.248

> <Color>
0.084

> <Negative vol penalty>
0.000

$$$$

  -OEChem-04052317333D

 90 98  0     1  0  0  0  0  0999 V2000
  -19.5508  -30.4670   25.8271 C   0  0  0  0  0  0  0  0  0  0  0  0
  -20.8726  -30.1368   25.5453 C   0  0  0  0  0  0  0  0  0  0  0  0
  -25.4788  -12.9972   22.2597 C   0  0  0  0  0  0  0  0  0  0  0  0
  -25.1926  -14.0730   20.1155 C   0  0  0  0  0  0  0  0  0  0  0  0
  -18.5182  -29.9056   25.0772 C   0  0  0  0  0  0  0  0  0  0  0  0
  -21.1624  -29.2441   24.5141 C   0  0  0  0  0  0  0  0  0  0  0  0
  -26.0135  -29.3833   20.7787 C   0  0  0  0  0  0  0  0  0  0  0  0
  -25.2948  -11.7517   21.6594 C   0  0  0  0  0  0  0  0  0  0  0  0
  -25.0086  -12.8275   19.5152 C   0  0  0  0  0  0  0  0  0  0  0  0
  -27.2246  -28.6927   20.7879 C   0  0  0  0  0  0  0  0  0  0  0  0
  -22.7076   -9.8750   20.5600 C   0  0  0  0  0  0  0  0  0  0  0  0
  -21.8650   -8.9660   21.2000 C   0  0  0  0  0  0  0  0  0  0  0  0
  -26.3103  -27.0809   19.2435 C   0  0  0  0  0  0  0  0  0  0  0  0
  -23.6972   -7.4028   21.3918 C   0  0  0  0  0  0  0  0  0  0  0  0
  -25.5378  -19.4414   19.9036 C   0  0  0  0  0  0  0  0  0  0  0  0
  -25.4277  -14.1579   21.4878 C   0  0  0  0  0  0  0  0  0  0  0  0
  -26.8333  -16.1302   22.2888 C   0  0  0  0  0  0  0  0  0  0  0  0
  -18.7960  -29.0130   24.0300 C   0  0  0  0  0  0  0  0  0  0  0  0
  -24.9363  -28.9210   20.0090 C   0  0  0  0  0  0  0  0  0  0  0  0
  -20.1324  -28.6691   23.7504 C   0  0  0  0  0  0  0  0  0  0  0  0
  -25.0874  -27.7689   19.2242 C   0  0  0  0  0  0  0  0  0  0  0  0
  -24.6399  -20.4797   19.7621 C   0  0  0  0  0  0  0  0  0  0  0  0
  -25.0597  -11.6668   20.2872 C   0  0  0  0  0  0  0  0  0  0  0  0
  -27.3722  -27.5397   20.0225 C   0  0  0  0  0  0  0  0  0  0  0  0
  -24.0449   -9.5478   20.3358 C   0  0  0  0  0  0  0  0  0  0  0  0
  -22.3598   -7.7300   21.6159 C   0  0  0  0  0  0  0  0  0  0  0  0
  -24.5397   -8.3117   20.7517 C   0  0  0  0  0  0  0  0  0  0  0  0
  -25.6171  -15.4448   22.1074 C   0  0  0  0  0  0  0  0  0  0  0  0
  -25.1575  -21.6508   19.2476 C   0  0  0  0  0  0  0  0  0  0  0  0
  -26.4790  -17.2971   22.9206 C   0  0  0  0  0  0  0  0  0  0  0  0
  -27.2256  -20.7222   19.0802 C   0  0  0  0  0  0  0  0  0  0  0  0
  -28.1644  -15.7465   21.9190 C   0  0  0  0  0  0  0  0  0  0  0  0
  -21.9930  -27.9066   20.6505 C   0  0  0  0  0  0  0  0  0  0  0  0
  -21.7176  -27.8785   17.4185 C   0  0  0  0  0  0  0  0  0  0  0  0
  -23.2620  -27.6967   14.3806 C   0  0  0  0  0  0  0  0  0  0  0  0
  -21.0202  -20.0782   22.9991 C   0  0  0  0  0  0  0  0  0  0  0  0
  -17.6439  -28.3951   23.2779 C   0  0  0  0  0  0  0  0  0  0  0  0
  -23.6452  -29.6923   19.9890 C   0  0  0  0  0  0  0  0  0  0  0  0
  -23.9682  -27.2423   18.3648 C   0  0  0  0  0  0  0  0  0  0  0  0
  -18.0554  -27.7468   21.9586 C   0  0  0  0  0  0  0  0  0  0  0  0
  -23.1796  -19.1292   25.8519 C   0  0  0  0  0  0  0  0  0  0  0  0
  -19.2963  -26.8813   22.1533 C   0  0  0  0  0  0  0  0  0  0  0  0
  -24.1038  -18.0804   25.2356 C   0  0  0  0  0  0  0  0  0  0  0  0
  -21.8257  -19.1747   25.1500 C   0  0  0  0  0  0  0  0  0  0  0  0
  -22.8409  -18.3249   23.0617 C   0  0  0  0  0  0  0  0  0  0  0  0
  -20.4883  -27.7237   22.6235 C   0  0  1  0  0  0  0  0  0  0  0  0
  -22.4489  -28.8441   19.5684 C   0  0  1  0  0  0  0  0  0  0  0  0
  -24.2301  -18.2856   23.7160 C   0  0  2  0  0  0  0  0  0  0  0  0
  -24.2787  -22.8416   19.0500 C   0  0  0  0  0  0  0  0  0  0  0  0
  -20.4616  -22.9896   21.5900 C   0  0  0  0  0  0  0  0  0  0  0  0
  -22.7706  -27.6602   11.9200 C   0  0  0  0  0  0  0  0  0  0  0  0
  -20.8025  -24.9767   17.6468 C   0  0  0  0  0  0  0  0  0  0  0  0
  -21.2433  -24.7178   15.1959 C   0  0  0  0  0  0  0  0  0  0  0  0
  -19.5267  -26.3454   15.9875 C   0  0  0  0  0  0  0  0  0  0  0  0
  -24.8093  -30.1766   13.9169 C   0  0  0  0  0  0  0  0  0  0  0  0
  -30.6691  -22.9156   22.8613 C   0  0  0  0  0  0  0  0  0  0  0  0
  -23.2143  -20.3211   20.1468 C   0  0  0  0  0  0  0  0  0  0  0  0
  -28.6775  -20.8583   18.6966 C   0  0  0  0  0  0  0  0  0  0  0  0
  -29.3939  -22.0293   19.3820 C   0  0  0  0  0  0  0  0  0  0  0  0
  -30.1407  -25.6425   21.3501 C   0  0  0  0  0  0  0  0  0  0  0  0
  -20.5067  -21.5581   21.0949 C   0  0  0  0  0  0  0  0  0  0  0  0
  -22.8633  -20.9528   21.5022 C   0  0  0  0  0  0  0  0  0  0  0  0
  -29.4717  -21.9491   20.9036 C   0  0  0  0  0  0  0  0  0  0  0  0
  -29.2889  -24.3829   21.3971 C   0  0  0  0  0  0  0  0  0  0  0  0
  -29.3300  -26.9266   21.2255 C   0  0  0  0  0  0  0  0  0  1  0  0
  -21.9773  -26.8629   16.3322 C   0  0  1  0  0  0  0  0  0  0  0  0
  -23.1082  -28.5299   13.1210 C   0  0  2  0  0  0  0  0  0  0  0  0
  -20.9081  -25.7343   16.3082 C   0  0  0  0  0  0  0  0  0  0  0  0
  -26.8426  -19.5283   19.5714 N   0  0  0  0  0  0  0  0  0  0  0  0
  -24.5685  -16.1200   22.5856 N   0  0  0  0  0  0  0  0  0  0  0  0
  -26.4503  -21.8076   18.8948 N   0  0  0  0  0  0  0  0  0  0  0  0
  -25.1248  -17.2418   23.0737 N   0  0  0  0  0  0  0  0  0  0  0  0
  -22.7233  -28.0280   18.3840 N   0  0  0  0  0  0  0  0  0  0  0  0
  -21.9761  -19.3269   23.7025 N   0  0  0  0  0  0  0  0  0  0  0  0
  -27.1967  -18.3549   23.3547 N   0  0  0  0  0  0  0  0  0  0  0  0
  -28.3506  -14.5146   21.2770 N   0  0  0  0  0  0  0  0  0  0  0  0
  -21.0614  -28.4528   21.5125 N   0  0  0  0  0  0  0  0  0  0  0  0
  -22.0803  -27.6150   15.0863 N   0  0  0  0  0  0  0  0  0  0  0  0
  -21.4580  -20.7565   21.8515 N   0  0  0  0  0  0  0  0  0  0  0  0
  -24.3713  -29.2650   12.8288 N   0  3  0  0  0  0  0  0  0  0  0  0
  -30.1455  -23.1761   21.4693 N   0  3  1  0  0  0  0  0  0  0  0  0
  -29.1611  -16.4669   22.1659 O   0  0  0  0  0  0  0  0  0  0  0  0
  -22.4514  -26.7711   20.6987 O   0  0  0  0  0  0  0  0  0  0  0  0
  -20.6645  -28.5207   17.4067 O   0  0  0  0  0  0  0  0  0  0  0  0
  -24.3233  -27.1680   14.7041 O   0  0  0  0  0  0  0  0  0  0  0  0
  -19.8449  -20.1470   23.3808 O   0  0  0  0  0  0  0  0  0  0  0  0
  -24.8803  -10.4516   19.7010 O   0  0  0  0  0  0  0  0  0  0  0  0
  -28.5530  -26.8633   20.0303 O   0  0  0  0  0  0  0  0  0  1  0  0
  -21.5510   -6.8579   22.2319 F   0  0  0  0  0  0  0  0  0  0  0  0
  -25.8238   -7.9923   20.5402 F   0  0  0  0  0  0  0  0  0  0  0  0
  1  2  1  0  0  0  0
  1  5  2  0  0  0  0
  2  6  2  0  0  0  0
  3  8  2  0  0  0  0
  3 16  1  0  0  0  0
  4  9  1  0  0  0  0
  4 16  2  0  0  0  0
  5 18  1  0  0  0  0
  6 20  1  0  0  0  0
  7 10  2  0  0  0  0
  7 19  1  0  0  0  0
  8 23  1  0  0  0  0
  9 23  2  0  0  0  0
 10 24  1  0  0  0  0
 11 12  2  0  0  0  0
 11 25  1  0  0  0  0
 12 26  1  0  0  0  0
 13 21  1  0  0  0  0
 13 24  2  0  0  0  0
 14 26  2  0  0  0  0
 14 27  1  0  0  0  0
 15 22  1  0  0  0  0
 15 69  2  0  0  0  0
 16 28  1  0  0  0  0
 17 28  1  0  0  0  0
 17 30  2  0  0  0  0
 17 32  1  0  0  0  0
 18 20  2  0  0  0  0
 18 37  1  0  0  0  0
 19 21  2  0  0  0  0
 19 38  1  0  0  0  0
 20 46  1  0  0  0  0
 21 39  1  0  0  0  0
 22 29  2  0  0  0  0
 22 57  1  0  0  0  0
 23 87  1  0  0  0  0
 24 88  1  0  0  0  0
 25 27  2  0  0  0  0
 25 87  1  0  0  0  0
 26 89  1  0  0  0  0
 27 90  1  0  0  0  0
 28 70  2  0  0  0  0
 29 49  1  0  0  0  0
 29 71  1  0  0  0  0
 30 72  1  0  0  0  0
 30 75  1  0  0  0  0
 31 58  1  0  0  0  0
 31 69  1  0  0  0  0
 31 71  2  0  0  0  0
 32 76  1  0  0  0  0
 32 82  2  0  0  0  0
 33 47  1  0  0  0  0
 33 77  1  0  0  0  0
 33 83  2  0  0  0  0
 34 66  1  0  0  0  0
 34 73  1  0  0  0  0
 34 84  2  0  0  0  0
 35 67  1  0  0  0  0
 35 78  1  0  0  0  0
 35 85  2  0  0  0  0
 36 74  1  0  0  0  0
 36 79  1  0  0  0  0
 36 86  2  0  0  0  0
 37 40  1  0  0  0  0
 38 47  1  0  0  0  0
 39 73  1  0  0  0  0
 40 42  1  0  0  0  0
 41 43  1  0  0  0  0
 41 44  1  0  0  0  0
 42 46  1  0  0  0  0
 43 48  1  0  0  0  0
 44 74  1  0  0  0  0
 45 48  1  0  0  0  0
 45 74  1  0  0  0  0
 46 77  1  0  0  0  0
 47 73  1  0  0  0  0
 48 72  1  0  0  0  0
 50 61  1  0  0  0  0
 51 67  1  0  0  0  0
 52 68  1  0  0  0  0
 53 68  1  0  0  0  0
 54 68  1  0  0  0  0
 55 80  1  0  0  0  0
 56 81  1  0  0  0  0
 57 62  1  0  0  0  0
 58 59  1  0  0  0  0
 59 63  1  0  0  0  0
 60 64  1  0  0  0  0
 60 65  1  0  0  0  0
 61 79  1  0  0  0  0
 62 79  1  0  0  0  0
 63 81  1  0  0  0  0
 64 81  1  0  0  0  0
 65 88  1  0  0  0  0
 66 68  1  0  0  0  0
 66 78  1  0  0  0  0
 67 80  1  0  0  0  0
 70 72  1  0  0  0  0
M  CHG  2  80   1  81   1
M  ISO  4  36 100  65 101  79 100  88 101
M  END
> <Batch ID>
0051

> <Smiles>
CC[100N:0](CCc1cnc(CCCN(C)CC[101CH2:1][101O:1]c2ccc3c(c2)CN(C(=O)C(NC(=O)C(C)NC)C(C)(C)C)C(C(=O)NC2CCCc4ccccc42)C3)nc1C)[100C:0](=O)N1CCCC(n2nc(-c3ccc(Oc4ccc(F)cc4F)cc3)c(C(N)=O)c2N)C1

> <Shape>
0.211

> <Color>
0.084

> <Negative vol penalty>
0.000

$$$$

  -OEChem-04052317333D

 85 93  0     1  0  0  0  0  0999 V2000
  -23.8437  -24.1022   21.2971 C   0  0  0  0  0  0  0  0  0  0  0  0
  -24.6811  -23.1072   20.8055 C   0  0  0  0  0  0  0  0  0  0  0  0
  -26.3197  -28.6454   18.7355 C   0  0  0  0  0  0  0  0  0  0  0  0
  -26.4553  -28.8560   21.1385 C   0  0  0  0  0  0  0  0  0  0  0  0
  -22.8609  -23.7820   22.2313 C   0  0  0  0  0  0  0  0  0  0  0  0
  -24.5283  -21.7897   21.2389 C   0  0  0  0  0  0  0  0  0  0  0  0
  -27.2437  -18.3648   18.9807 C   0  0  0  0  0  0  0  0  0  0  0  0
  -25.1294  -29.3726   18.7390 C   0  0  0  0  0  0  0  0  0  0  0  0
  -25.2651  -29.5833   21.1420 C   0  0  0  0  0  0  0  0  0  0  0  0
  -28.6196  -18.2467   19.1723 C   0  0  0  0  0  0  0  0  0  0  0  0
  -22.0750  -31.1863   21.8227 C   0  0  0  0  0  0  0  0  0  0  0  0
  -21.1189  -30.8605   22.7847 C   0  0  0  0  0  0  0  0  0  0  0  0
  -28.2505  -16.3407   20.6042 C   0  0  0  0  0  0  0  0  0  0  0  0
  -20.9949  -28.6153   21.9010 C   0  0  0  0  0  0  0  0  0  0  0  0
  -32.5374  -19.5857   20.9519 C   0  0  0  0  0  0  0  0  0  0  0  0
  -26.9826  -28.3870   19.9353 C   0  0  0  0  0  0  0  0  0  0  0  0
  -29.5192  -28.1441   19.8143 C   0  0  0  0  0  0  0  0  0  0  0  0
  -22.7048  -22.4619   22.6853 C   0  0  0  0  0  0  0  0  0  0  0  0
  -26.3587  -17.4769   19.6092 C   0  0  0  0  0  0  0  0  0  0  0  0
  -23.5266  -21.4423   22.1634 C   0  0  0  0  0  0  0  0  0  0  0  0
  -26.8640  -16.4481   20.4169 C   0  0  0  0  0  0  0  0  0  0  0  0
  -24.6021  -29.8416   19.9422 C   0  0  0  0  0  0  0  0  0  0  0  0
  -29.1230  -17.2363   19.9864 C   0  0  0  0  0  0  0  0  0  0  0  0
  -22.4910  -30.2267   20.8998 C   0  0  0  0  0  0  0  0  0  0  0  0
  -20.5789  -29.5750   22.8238 C   0  0  0  0  0  0  0  0  0  0  0  0
  -21.9510  -28.9412   20.9390 C   0  0  0  0  0  0  0  0  0  0  0  0
  -28.2119  -27.6353   19.9325 C   0  0  0  0  0  0  0  0  0  0  0  0
  -32.3133  -18.6173   21.8893 C   0  0  0  0  0  0  0  0  0  0  0  0
  -30.3258  -27.0337   19.8669 C   0  0  0  0  0  0  0  0  0  0  0  0
  -32.1726  -20.5852   22.8931 C   0  0  0  0  0  0  0  0  0  0  0  0
  -29.9645  -29.4993   19.6699 C   0  0  0  0  0  0  0  0  0  0  0  0
  -24.0116  -17.7761   21.7318 C   0  0  0  0  0  0  0  0  0  0  0  0
  -23.5768  -14.6215   21.1142 C   0  0  0  0  0  0  0  0  0  0  0  0
  -24.9053  -11.6722   20.0261 C   0  0  0  0  0  0  0  0  0  0  0  0
  -29.0744  -21.5278   22.2454 C   0  0  0  0  0  0  0  0  0  0  0  0
  -21.6197  -22.1698   23.6915 C   0  0  0  0  0  0  0  0  0  0  0  0
  -24.8788  -17.6013   19.3710 C   0  0  0  0  0  0  0  0  0  0  0  0
  -25.9574  -15.4569   21.0981 C   0  0  0  0  0  0  0  0  0  0  0  0
  -21.8234  -20.8440   24.4175 C   0  0  0  0  0  0  0  0  0  0  0  0
  -30.3526  -22.3598   18.8726 C   0  0  0  0  0  0  0  0  0  0  0  0
  -22.0987  -19.7371   23.4107 C   0  0  0  0  0  0  0  0  0  0  0  0
  -29.9895  -23.8373   18.7339 C   0  0  0  0  0  0  0  0  0  0  0  0
  -29.3899  -21.6237   19.7994 C   0  0  0  0  0  0  0  0  0  0  0  0
  -28.8909  -23.7238   21.0056 C   0  0  0  0  0  0  0  0  0  0  0  0
  -23.3989  -20.0079   22.6433 C   0  0  1  0  0  0  0  0  0  0  0  0
  -24.0403  -16.9585   20.4715 C   0  0  1  0  0  0  0  0  0  0  0  0
  -29.8690  -24.5046   20.1150 C   0  0  2  0  0  0  0  0  0  0  0  0
  -24.3169   -9.2588   19.6708 C   0  0  0  0  0  0  0  0  0  0  0  0
  -32.7153  -17.3896   26.3868 C   0  0  0  0  0  0  0  0  0  0  0  0
  -34.0736  -19.1780   25.2813 C   0  0  0  0  0  0  0  0  0  0  0  0
  -23.7689  -14.1346   24.1202 C   0  0  0  0  0  0  0  0  0  0  0  0
  -24.1298  -11.7054   23.6332 C   0  0  0  0  0  0  0  0  0  0  0  0
  -21.9955  -12.8071   22.9596 C   0  0  0  0  0  0  0  0  0  0  0  0
  -28.9325  -21.6955   24.7013 C   0  0  0  0  0  0  0  0  0  0  0  0
  -25.4392  -11.8496   17.1205 C   0  0  0  0  0  0  0  0  0  0  0  0
  -32.2907  -17.1138   21.7570 C   0  0  0  0  0  0  0  0  0  0  0  0
  -31.9974  -21.6442   23.9179 C   0  0  0  0  0  0  0  0  0  0  0  0
  -31.8100  -18.6217   24.3514 C   0  0  0  0  0  0  0  0  0  0  0  0
  -30.9018  -22.6654   23.5756 C   0  0  0  0  0  0  0  0  0  0  0  0
  -30.9011  -16.5819   21.4238 C   0  0  0  0  0  0  0  0  0  1  0  0
  -24.1172  -13.3349   21.6901 C   0  0  1  0  0  0  0  0  0  0  0  0
  -24.3922  -10.6398   19.0386 C   0  0  2  0  0  0  0  0  0  0  0  0
  -33.0579  -18.0569   25.0530 C   0  0  0  0  0  0  0  0  0  0  0  0
  -23.5201  -13.0152   23.0896 C   0  0  0  0  0  0  0  0  0  0  0  0
  -28.1850  -26.3052   20.0511 N   0  0  0  0  0  0  0  0  0  0  0  0
  -32.0910  -19.2641   23.0811 N   0  0  0  0  0  0  0  0  0  0  0  0
  -29.4854  -25.9688   20.0076 N   0  0  0  0  0  0  0  0  0  0  0  0
  -32.4440  -20.7934   21.6007 N   0  3  0  0  0  0  0  0  0  0  0  0
  -24.5177  -15.6239   20.8392 N   0  0  0  0  0  0  0  0  0  0  0  0
  -29.2610  -22.3030   21.0891 N   0  0  0  0  0  0  0  0  0  0  0  0
  -31.6649  -26.8742   19.8060 N   0  0  0  0  0  0  0  0  0  0  0  0
  -29.0029  -30.5184   19.6341 N   0  0  0  0  0  0  0  0  0  0  0  0
  -23.5160  -19.0547   21.5618 N   0  0  0  0  0  0  0  0  0  0  0  0
  -23.8732  -12.3043   20.6867 N   0  0  0  0  0  0  0  0  0  0  0  0
  -29.5882  -22.0380   23.4472 N   0  0  0  0  0  0  0  0  0  0  0  0
  -25.2917  -10.5654   17.8527 N   0  3  0  0  0  0  0  0  0  0  0  0
  -31.1782  -29.7963   19.5589 O   0  0  0  0  0  0  0  0  0  0  0  0
  -24.4083  -17.2829   22.7811 O   0  0  0  0  0  0  0  0  0  0  0  0
  -22.3653  -14.7303   20.9090 O   0  0  0  0  0  0  0  0  0  0  0  0
  -26.1022  -11.8931   20.1973 O   0  0  0  0  0  0  0  0  0  0  0  0
  -28.4907  -20.4372   22.2041 O   0  0  0  0  0  0  0  0  0  0  0  0
  -23.4408  -30.5515   19.9459 O   0  0  0  0  0  0  0  0  0  0  0  0
  -30.4655  -17.1192   20.1756 O   0  0  0  0  0  0  0  0  0  1  0  0
  -19.6619  -29.2619   23.7486 F   0  0  0  0  0  0  0  0  0  0  0  0
  -22.3476  -28.0147   20.0557 F   0  0  0  0  0  0  0  0  0  0  0  0
  1  2  1  0  0  0  0
  1  5  2  0  0  0  0
  2  6  2  0  0  0  0
  3  8  2  0  0  0  0
  3 16  1  0  0  0  0
  4  9  1  0  0  0  0
  4 16  2  0  0  0  0
  5 18  1  0  0  0  0
  6 20  1  0  0  0  0
  7 10  2  0  0  0  0
  7 19  1  0  0  0  0
  8 22  1  0  0  0  0
  9 22  2  0  0  0  0
 10 23  1  0  0  0  0
 11 12  2  0  0  0  0
 11 24  1  0  0  0  0
 12 25  1  0  0  0  0
 13 21  1  0  0  0  0
 13 23  2  0  0  0  0
 14 25  2  0  0  0  0
 14 26  1  0  0  0  0
 15 28  2  0  0  0  0
 15 68  1  0  0  0  0
 16 27  1  0  0  0  0
 17 27  1  0  0  0  0
 17 29  2  0  0  0  0
 17 31  1  0  0  0  0
 18 20  2  0  0  0  0
 18 36  1  0  0  0  0
 19 21  2  0  0  0  0
 19 37  1  0  0  0  0
 20 45  1  0  0  0  0
 21 38  1  0  0  0  0
 22 82  1  0  0  0  0
 23 83  1  0  0  0  0
 24 26  2  0  0  0  0
 24 82  1  0  0  0  0
 25 84  1  0  0  0  0
 26 85  1  0  0  0  0
 27 65  2  0  0  0  0
 28 56  1  0  0  0  0
 28 66  1  0  0  0  0
 29 67  1  0  0  0  0
 29 71  1  0  0  0  0
 30 57  1  0  0  0  0
 30 66  1  0  0  0  0
 30 68  2  0  0  0  0
 31 72  1  0  0  0  0
 31 77  2  0  0  0  0
 32 46  1  0  0  0  0
 32 73  1  0  0  0  0
 32 78  2  0  0  0  0
 33 61  1  0  0  0  0
 33 69  1  0  0  0  0
 33 79  2  0  0  0  0
 34 62  1  0  0  0  0
 34 74  1  0  0  0  0
 34 80  2  0  0  0  0
 35 70  1  0  0  0  0
 35 75  1  0  0  0  0
 35 81  2  0  0  0  0
 36 39  1  0  0  0  0
 37 46  1  0  0  0  0
 38 69  1  0  0  0  0
 39 41  1  0  0  0  0
 40 42  1  0  0  0  0
 40 43  1  0  0  0  0
 41 45  1  0  0  0  0
 42 47  1  0  0  0  0
 43 70  1  0  0  0  0
 44 47  1  0  0  0  0
 44 70  1  0  0  0  0
 45 73  1  0  0  0  0
 46 69  1  0  0  0  0
 47 67  1  0  0  0  0
 48 62  1  0  0  0  0
 49 63  1  0  0  0  0
 50 63  1  0  0  0  0
 51 64  1  0  0  0  0
 52 64  1  0  0  0  0
 53 64  1  0  0  0  0
 54 75  1  0  0  0  0
 55 76  1  0  0  0  0
 56 60  1  0  0  0  0
 57 59  1  0  0  0  0
 58 63  1  0  0  0  0
 58 66  1  0  0  0  0
 59 75  1  0  0  0  0
 60 83  1  0  0  0  0
 61 64  1  0  0  0  0
 61 74  1  0  0  0  0
 62 76  1  0  0  0  0
 65 67  1  0  0  0  0
M  CHG  2  68   1  76   1
M  ISO  4  35 100  60 101  75 100  83 101
M  END
> <Batch ID>
0051

> <Smiles>
CNC(C)C(=O)NC(C(=O)N1Cc2cc([101O:1][101CH2:1]Cc3cnc(CC[100N:0](C)[100C:0](=O)N4CCCC(n5nc(-c6ccc(Oc7ccc(F)cc7F)cc6)c(C(N)=O)c5N)C4)n3CC(C)C)ccc2CC1C(=O)NC1CCCc2ccccc21)C(C)(C)C

> <Shape>
0.224

> <Color>
0.070

> <Negative vol penalty>
0.000

$$$$

  -OEChem-04052317332D

  0  0  0     0  0  0  0  0  0999 V2000
M  END
$$$$

  -OEChem-04052317333D

 85 93  0     1  0  0  0  0  0999 V2000
  -25.1879  -35.0830   22.1360 C   0  0  0  0  0  0  0  0  0  0  0  0
  -25.8789  -33.8801   22.0317 C   0  0  0  0  0  0  0  0  0  0  0  0
  -23.3303  -10.8306   22.6475 C   0  0  0  0  0  0  0  0  0  0  0  0
  -23.5367  -10.0788   20.3608 C   0  0  0  0  0  0  0  0  0  0  0  0
  -23.9207  -35.1096   22.7169 C   0  0  0  0  0  0  0  0  0  0  0  0
  -25.3036  -32.7031   22.5092 C   0  0  0  0  0  0  0  0  0  0  0  0
  -25.8326  -28.8346   19.2844 C   0  0  0  0  0  0  0  0  0  0  0  0
  -28.3631  -22.4916   16.9396 C   0  0  0  0  0  0  0  0  0  0  0  0
  -23.1471   -9.5122   23.0644 C   0  0  0  0  0  0  0  0  0  0  0  0
  -23.3535   -8.7604   20.7776 C   0  0  0  0  0  0  0  0  0  0  0  0
  -27.0750  -28.2031   19.2459 C   0  0  0  0  0  0  0  0  0  0  0  0
  -20.6446   -7.2407   23.1135 C   0  0  0  0  0  0  0  0  0  0  0  0
  -19.6214   -6.9868   24.0268 C   0  0  0  0  0  0  0  0  0  0  0  0
  -29.0653  -23.6846   17.0702 C   0  0  0  0  0  0  0  0  0  0  0  0
  -26.2139  -26.4367   20.6450 C   0  0  0  0  0  0  0  0  0  0  0  0
  -21.2398   -6.1258   25.6005 C   0  0  0  0  0  0  0  0  0  0  0  0
  -28.4607  -22.2360   19.3022 C   0  0  0  0  0  0  0  0  0  0  0  0
  -23.5251  -11.1139   21.2957 C   0  0  0  0  0  0  0  0  0  0  0  0
  -24.9335  -13.1687   20.7464 C   0  0  0  0  0  0  0  0  0  0  0  0
  -23.3255  -33.9307   23.1931 C   0  0  0  0  0  0  0  0  0  0  0  0
  -24.7729  -28.2765   20.0137 C   0  0  0  0  0  0  0  0  0  0  0  0
  -24.0278  -32.7141   23.0983 C   0  0  0  0  0  0  0  0  0  0  0  0
  -24.9583  -27.0618   20.6891 C   0  0  0  0  0  0  0  0  0  0  0  0
  -28.0510  -21.7475   18.0720 C   0  0  0  0  0  0  0  0  0  0  0  0
  -23.1587   -8.4770   22.1295 C   0  0  0  0  0  0  0  0  0  0  0  0
  -27.2666  -27.0055   19.9286 C   0  0  0  0  0  0  0  0  0  0  0  0
  -21.9654   -6.9371   23.4436 C   0  0  0  0  0  0  0  0  0  0  0  0
  -19.9190   -6.4294   25.2704 C   0  0  0  0  0  0  0  0  0  0  0  0
  -22.2630   -6.3797   24.6871 C   0  0  0  0  0  0  0  0  0  0  0  0
  -23.7138  -12.4757   20.8643 C   0  0  0  0  0  0  0  0  0  0  0  0
  -29.4294  -24.0864   18.3453 C   0  0  0  0  0  0  0  0  0  0  0  0
  -24.5766  -14.4186   20.3024 C   0  0  0  0  0  0  0  0  0  0  0  0
  -26.2695  -12.7226   21.0141 C   0  0  0  0  0  0  0  0  0  0  0  0
  -23.0235  -29.2092   22.4984 C   0  0  0  0  0  0  0  0  0  0  0  0
  -21.3531  -26.5077   21.8397 C   0  0  0  0  0  0  0  0  0  0  0  0
  -21.3119  -23.3958   20.4392 C   0  0  0  0  0  0  0  0  0  0  0  0
  -21.5911  -17.7180   16.9341 C   0  0  0  0  0  0  0  0  0  0  0  0
  -21.9735  -34.0167   23.8560 C   0  0  0  0  0  0  0  0  0  0  0  0
  -23.4312  -28.9563   20.0234 C   0  0  0  0  0  0  0  0  0  0  0  0
  -23.8469  -26.4109   21.4699 C   0  0  0  0  0  0  0  0  0  0  0  0
  -21.2777  -32.6654   23.9979 C   0  0  0  0  0  0  0  0  0  0  0  0
  -20.0320  -16.6092   19.9368 C   0  0  0  0  0  0  0  0  0  0  0  0
  -22.2473  -31.6200   24.5399 C   0  0  0  0  0  0  0  0  0  0  0  0
  -20.9478  -15.4886   20.4322 C   0  0  0  0  0  0  0  0  0  0  0  0
  -19.9320  -16.6242   18.4131 C   0  0  0  0  0  0  0  0  0  0  0  0
  -22.1422  -15.5543   18.2034 C   0  0  0  0  0  0  0  0  0  0  0  0
  -23.4267  -31.4123   23.5822 C   0  0  1  0  0  0  0  0  0  0  0  0
  -22.5705  -28.5628   21.2199 C   0  0  1  0  0  0  0  0  0  0  0  0
  -22.3189  -15.5338   19.7313 C   0  0  2  0  0  0  0  0  0  0  0  0
  -19.8155  -21.4114   20.0923 C   0  0  0  0  0  0  0  0  0  0  0  0
  -21.7547  -25.6984   24.7541 C   0  0  0  0  0  0  0  0  0  0  0  0
  -21.1044  -23.3645   24.1229 C   0  0  0  0  0  0  0  0  0  0  0  0
  -19.4718  -25.2302   23.8465 C   0  0  0  0  0  0  0  0  0  0  0  0
  -21.4727  -23.6432   17.4944 C   0  0  0  0  0  0  0  0  0  0  0  0
  -25.0805  -21.0747   18.9139 C   0  0  0  0  0  0  0  0  0  0  0  0
  -27.3013  -20.4673   17.9655 C   0  0  0  0  0  0  0  0  0  0  0  0
  -30.1923  -25.3764   18.5247 C   0  0  0  0  0  0  0  0  0  0  0  0
  -24.0179  -19.8712   16.2292 C   0  0  0  0  0  0  0  0  0  0  0  0
  -23.3624  -18.7025   15.5014 C   0  0  0  0  0  0  0  0  0  0  0  0
  -25.2301  -19.4374   17.0434 C   0  0  0  0  0  0  0  0  0  0  0  0
  -29.2687  -26.5739   18.7197 C   0  0  0  0  0  0  0  0  0  1  0  0
  -21.4421  -25.0637   22.2710 C   0  0  1  0  0  0  0  0  0  0  0  0
  -20.3186  -22.7228   19.5093 C   0  0  2  0  0  0  0  0  0  0  0  0
  -20.9650  -24.8522   23.7356 C   0  0  0  0  0  0  0  0  0  0  0  0
  -29.1443  -23.3904   19.4686 N   0  0  0  0  0  0  0  0  0  0  0  0
  -22.6609  -13.2232   20.5230 N   0  0  0  0  0  0  0  0  0  0  0  0
  -23.2178  -14.3990   20.1863 N   0  0  0  0  0  0  0  0  0  0  0  0
  -22.5554  -27.1174   21.4543 N   0  0  0  0  0  0  0  0  0  0  0  0
  -21.2662  -16.6691   17.8100 N   0  0  0  0  0  0  0  0  0  0  0  0
  -25.2957  -15.5214   20.0040 N   0  0  0  0  0  0  0  0  0  0  0  0
  -26.4576  -11.4086   21.4638 N   0  0  0  0  0  0  0  0  0  0  0  0
  -23.0277  -30.5905   22.4598 N   0  0  0  0  0  0  0  0  0  0  0  0
  -20.6939  -24.2954   21.2819 N   0  0  0  0  0  0  0  0  0  0  0  0
  -22.8783  -17.6886   16.4117 N   0  0  0  0  0  0  0  0  0  0  0  0
  -20.9535  -22.4383   18.1914 N   0  3  0  0  0  0  0  0  0  0  0  0
  -25.8480  -20.6501   17.6892 N   0  3  1  0  0  0  0  0  0  0  0  0
  -27.2655  -13.4723   20.8748 O   0  0  0  0  0  0  0  0  0  0  0  0
  -23.3440  -28.5068   23.4500 O   0  0  0  0  0  0  0  0  0  0  0  0
  -20.2560  -27.0717   21.8378 O   0  0  0  0  0  0  0  0  0  0  0  0
  -22.5151  -23.1456   20.4225 O   0  0  0  0  0  0  0  0  0  0  0  0
  -20.7949  -18.6172   16.6435 O   0  0  0  0  0  0  0  0  0  0  0  0
  -22.9802   -7.1904   22.5360 O   0  0  0  0  0  0  0  0  0  0  0  0
  -28.4785  -26.3874   19.8932 O   0  0  0  0  0  0  0  0  0  1  0  0
  -18.9365   -6.1872   26.1480 F   0  0  0  0  0  0  0  0  0  0  0  0
  -23.5301   -6.0869   25.0104 F   0  0  0  0  0  0  0  0  0  0  0  0
  1  2  1  0  0  0  0
  1  5  2  0  0  0  0
  2  6  2  0  0  0  0
  3  9  2  0  0  0  0
  3 18  1  0  0  0  0
  4 10  1  0  0  0  0
  4 18  2  0  0  0  0
  5 20  1  0  0  0  0
  6 22  1  0  0  0  0
  7 11  2  0  0  0  0
  7 21  1  0  0  0  0
  8 14  2  0  0  0  0
  8 24  1  0  0  0  0
  9 25  1  0  0  0  0
 10 25  2  0  0  0  0
 11 26  1  0  0  0  0
 12 13  2  0  0  0  0
 12 27  1  0  0  0  0
 13 28  1  0  0  0  0
 14 31  1  0  0  0  0
 15 23  1  0  0  0  0
 15 26  2  0  0  0  0
 16 28  2  0  0  0  0
 16 29  1  0  0  0  0
 17 24  2  0  0  0  0
 17 65  1  0  0  0  0
 18 30  1  0  0  0  0
 19 30  1  0  0  0  0
 19 32  2  0  0  0  0
 19 33  1  0  0  0  0
 20 22  2  0  0  0  0
 20 38  1  0  0  0  0
 21 23  2  0  0  0  0
 21 39  1  0  0  0  0
 22 47  1  0  0  0  0
 23 40  1  0  0  0  0
 24 56  1  0  0  0  0
 25 82  1  0  0  0  0
 26 83  1  0  0  0  0
 27 29  2  0  0  0  0
 27 82  1  0  0  0  0
 28 84  1  0  0  0  0
 29 85  1  0  0  0  0
 30 66  2  0  0  0  0
 31 57  1  0  0  0  0
 31 65  2  0  0  0  0
 32 67  1  0  0  0  0
 32 70  1  0  0  0  0
 33 71  1  0  0  0  0
 33 77  2  0  0  0  0
 34 48  1  0  0  0  0
 34 72  1  0  0  0  0
 34 78  2  0  0  0  0
 35 62  1  0  0  0  0
 35 68  1  0  0  0  0
 35 79  2  0  0  0  0
 36 63  1  0  0  0  0
 36 73  1  0  0  0  0
 36 80  2  0  0  0  0
 37 69  1  0  0  0  0
 37 74  1  0  0  0  0
 37 81  2  0  0  0  0
 38 41  1  0  0  0  0
 39 48  1  0  0  0  0
 40 68  1  0  0  0  0
 41 43  1  0  0  0  0
 42 44  1  0  0  0  0
 42 45  1  0  0  0  0
 43 47  1  0  0  0  0
 44 49  1  0  0  0  0
 45 69  1  0  0  0  0
 46 49  1  0  0  0  0
 46 69  1  0  0  0  0
 47 72  1  0  0  0  0
 48 68  1  0  0  0  0
 49 67  1  0  0  0  0
 50 63  1  0  0  0  0
 51 64  1  0  0  0  0
 52 64  1  0  0  0  0
 53 64  1  0  0  0  0
 54 75  1  0  0  0  0
 55 76  1  0  0  0  0
 56 76  1  0  0  0  0
 57 61  1  0  0  0  0
 58 59  1  0  0  0  0
 58 60  1  0  0  0  0
 59 74  1  0  0  0  0
 60 76  1  0  0  0  0
 61 83  1  0  0  0  0
 62 64  1  0  0  0  0
 62 73  1  0  0  0  0
 63 75  1  0  0  0  0
 66 67  1  0  0  0  0
M  CHG  2  75   1  76   1
M  ISO  4  37 100  61 101  74 100  83 101
M  END
> <Batch ID>
0051

> <Smiles>
CNC(C)C(=O)NC(C(=O)N1Cc2cc([101O:1][101CH2:1]Cc3ccc(CN(C)CCC[100NH:0][100C:0](=O)N4CCCC(n5nc(-c6ccc(Oc7ccc(F)cc7F)cc6)c(C(N)=O)c5N)C4)cn3)ccc2CC1C(=O)NC1CCCc2ccccc21)C(C)(C)C

> <Shape>
0.236

> <Color>
0.104

> <Negative vol penalty>
0.000

$$$$

  -OEChem-04052317333D

 83 91  0     1  0  0  0  0  0999 V2000
  -23.2467  -30.7142   20.6811 C   0  0  0  0  0  0  0  0  0  0  0  0
  -23.7863  -29.7681   19.8156 C   0  0  0  0  0  0  0  0  0  0  0  0
  -23.1473   -9.8420   19.9895 C   0  0  0  0  0  0  0  0  0  0  0  0
  -23.8770   -9.9449   22.2903 C   0  0  0  0  0  0  0  0  0  0  0  0
  -23.9766  -31.1390   21.7905 C   0  0  0  0  0  0  0  0  0  0  0  0
  -25.0568  -29.2470   20.0584 C   0  0  0  0  0  0  0  0  0  0  0  0
  -26.9767  -23.5445   18.9178 C   0  0  0  0  0  0  0  0  0  0  0  0
  -22.4276   -8.6804   20.2697 C   0  0  0  0  0  0  0  0  0  0  0  0
  -23.1573   -8.7834   22.5706 C   0  0  0  0  0  0  0  0  0  0  0  0
  -27.7058  -22.9932   17.8651 C   0  0  0  0  0  0  0  0  0  0  0  0
  -21.2203   -6.0464   23.9759 C   0  0  0  0  0  0  0  0  0  0  0  0
  -20.4502   -6.0244   25.1386 C   0  0  0  0  0  0  0  0  0  0  0  0
  -29.7310  -23.2224   19.1557 C   0  0  0  0  0  0  0  0  0  0  0  0
  -19.1699   -7.9054   24.3261 C   0  0  0  0  0  0  0  0  0  0  0  0
  -28.5386  -18.3138   19.2209 C   0  0  0  0  0  0  0  0  0  0  0  0
  -23.8720  -10.4742   20.9998 C   0  0  0  0  0  0  0  0  0  0  0  0
  -24.1558  -13.0013   20.7976 C   0  0  0  0  0  0  0  0  0  0  0  0
  -25.2527  -30.6158   22.0523 C   0  0  0  0  0  0  0  0  0  0  0  0
  -27.6218  -23.9496   20.0951 C   0  0  0  0  0  0  0  0  0  0  0  0
  -25.8050  -29.6662   21.1716 C   0  0  0  0  0  0  0  0  0  0  0  0
  -29.0074  -23.7761   20.2228 C   0  0  0  0  0  0  0  0  0  0  0  0
  -22.4326   -8.1512   21.5602 C   0  0  0  0  0  0  0  0  0  0  0  0
  -29.0836  -22.8347   17.9828 C   0  0  0  0  0  0  0  0  0  0  0  0
  -20.9653   -6.9979   22.9883 C   0  0  0  0  0  0  0  0  0  0  0  0
  -19.4250   -6.9539   25.3138 C   0  0  0  0  0  0  0  0  0  0  0  0
  -19.9401   -7.9273   23.1634 C   0  0  0  0  0  0  0  0  0  0  0  0
  -24.6161  -11.6738   20.7108 C   0  0  0  0  0  0  0  0  0  0  0  0
  -29.3516  -17.2533   19.5553 C   0  0  0  0  0  0  0  0  0  0  0  0
  -30.6135  -17.6312   17.6859 C   0  0  0  0  0  0  0  0  0  0  0  0
  -29.8000  -18.6913   17.3511 C   0  0  0  0  0  0  0  0  0  0  0  0
  -25.2346  -13.7640   20.4222 C   0  0  0  0  0  0  0  0  0  0  0  0
  -22.8682  -13.5004   21.1832 C   0  0  0  0  0  0  0  0  0  0  0  0
  -27.9878  -26.7179   21.6138 C   0  0  0  0  0  0  0  0  0  0  0  0
  -29.3689  -24.8483   23.8764 C   0  0  0  0  0  0  0  0  0  0  0  0
  -30.9737  -21.9357   24.6437 C   0  0  0  0  0  0  0  0  0  0  0  0
  -30.8137  -14.6317   21.0834 C   0  0  0  0  0  0  0  0  0  0  0  0
  -26.0232  -31.1406   23.2379 C   0  0  0  0  0  0  0  0  0  0  0  0
  -26.8173  -24.5179   21.2319 C   0  0  0  0  0  0  0  0  0  0  0  0
  -29.7447  -24.1762   21.4737 C   0  0  0  0  0  0  0  0  0  0  0  0
  -27.2082  -30.2624   23.6313 C   0  0  0  0  0  0  0  0  0  0  0  0
  -29.6389  -12.4625   18.3238 C   0  0  0  0  0  0  0  0  0  0  0  0
  -28.0181  -29.8748   22.3982 C   0  0  0  0  0  0  0  0  0  0  0  0
  -28.2127  -12.1213   18.7523 C   0  0  0  0  0  0  0  0  0  0  0  0
  -30.5406  -12.7391   19.5229 C   0  0  0  0  0  0  0  0  0  0  0  0
  -28.5910  -13.4457   20.8698 C   0  0  0  0  0  0  0  0  0  0  0  0
  -27.1697  -29.0593   21.4149 C   0  0  1  0  0  0  0  0  0  0  0  0
  -27.6493  -25.3701   22.1852 C   0  0  1  0  0  0  0  0  0  0  0  0
  -27.6451  -13.2069   19.6833 C   0  0  2  0  0  0  0  0  0  0  0  0
  -31.7744  -17.2436   16.8351 C   0  0  0  0  0  0  0  0  0  0  0  0
  -32.0128  -20.7075   26.5696 C   0  0  0  0  0  0  0  0  0  0  0  0
  -31.7963  -26.6919   23.7393 C   0  0  0  0  0  0  0  0  0  0  0  0
  -33.1175  -24.9256   24.9238 C   0  0  0  0  0  0  0  0  0  0  0  0
  -31.1567  -25.9793   26.0496 C   0  0  0  0  0  0  0  0  0  0  0  0
  -31.1670  -16.8717   22.0514 C   0  0  0  0  0  0  0  0  0  0  0  0
  -29.0848  -19.6737   24.3709 C   0  0  0  0  0  0  0  0  0  0  0  0
  -30.0457  -19.5091   16.1084 C   0  0  0  0  0  0  0  0  0  0  0  0
  -29.0893  -16.4595   20.7869 C   0  0  0  0  0  0  0  0  0  0  0  0
  -31.2090  -20.4945   16.2396 C   0  0  0  0  0  0  0  0  0  0  0  0
  -30.9754  -21.5672   17.2971 C   0  0  0  0  0  0  0  0  0  1  0  0
  -30.7706  -24.3581   24.1484 C   0  0  1  0  0  0  0  0  0  0  0  0
  -30.7485  -20.9235   25.7525 C   0  0  2  0  0  0  0  0  0  0  0  0
  -31.6970  -25.4829   24.6908 C   0  0  0  0  0  0  0  0  0  0  0  0
  -28.7482  -19.0518   18.1127 N   0  0  0  0  0  0  0  0  0  0  0  0
  -25.8882  -11.5942   20.3114 N   0  0  0  0  0  0  0  0  0  0  0  0
  -30.4037  -16.8930   18.7938 N   0  0  0  0  0  0  0  0  0  0  0  0
  -26.2364  -12.8813   20.1438 N   0  0  0  0  0  0  0  0  0  0  0  0
  -28.9148  -24.7330   22.5549 N   0  0  0  0  0  0  0  0  0  0  0  0
  -29.9570  -13.7429   20.4134 N   0  0  0  0  0  0  0  0  0  0  0  0
  -25.4145  -15.0969   20.3062 N   0  0  0  0  0  0  0  0  0  0  0  0
  -21.8737  -12.5792   21.5390 N   0  0  0  0  0  0  0  0  0  0  0  0
  -27.0419  -27.6918   21.8712 N   0  0  0  0  0  0  0  0  0  0  0  0
  -30.6362  -23.2122   25.0413 N   0  0  0  0  0  0  0  0  0  0  0  0
  -30.3125  -15.9109   21.3683 N   0  0  0  0  0  0  0  0  0  0  0  0
  -30.3292  -19.6130   25.1801 N   0  3  0  0  0  0  0  0  0  0  0  0
  -22.6023  -14.7262   21.1955 O   0  0  0  0  0  0  0  0  0  0  0  0
  -29.0307  -26.8638   20.9871 O   0  0  0  0  0  0  0  0  0  0  0  0
  -28.6990  -25.3097   24.8037 O   0  0  0  0  0  0  0  0  0  0  0  0
  -31.4091  -21.6257   23.5370 O   0  0  0  0  0  0  0  0  0  0  0  0
  -31.9645  -14.3038   21.4000 O   0  0  0  0  0  0  0  0  0  0  0  0
  -21.7303   -7.0179   21.8341 O   0  0  0  0  0  0  0  0  0  0  0  0
  -29.7977  -22.2975   16.9565 O   0  0  0  0  0  0  0  0  0  1  0  0
  -18.6845   -6.9317   26.4297 F   0  0  0  0  0  0  0  0  0  0  0  0
  -19.6896   -8.8431   22.2176 F   0  0  0  0  0  0  0  0  0  0  0  0
  1  2  1  0  0  0  0
  1  5  2  0  0  0  0
  2  6  2  0  0  0  0
  3  8  2  0  0  0  0
  3 16  1  0  0  0  0
  4  9  1  0  0  0  0
  4 16  2  0  0  0  0
  5 18  1  0  0  0  0
  6 20  1  0  0  0  0
  7 10  2  0  0  0  0
  7 19  1  0  0  0  0
  8 22  1  0  0  0  0
  9 22  2  0  0  0  0
 10 23  1  0  0  0  0
 11 12  2  0  0  0  0
 11 24  1  0  0  0  0
 12 25  1  0  0  0  0
 13 21  1  0  0  0  0
 13 23  2  0  0  0  0
 14 25  2  0  0  0  0
 14 26  1  0  0  0  0
 15 28  1  0  0  0  0
 15 63  2  0  0  0  0
 16 27  1  0  0  0  0
 17 27  1  0  0  0  0
 17 31  2  0  0  0  0
 17 32  1  0  0  0  0
 18 20  2  0  0  0  0
 18 37  1  0  0  0  0
 19 21  2  0  0  0  0
 19 38  1  0  0  0  0
 20 46  1  0  0  0  0
 21 39  1  0  0  0  0
 22 80  1  0  0  0  0
 23 81  1  0  0  0  0
 24 26  2  0  0  0  0
 24 80  1  0  0  0  0
 25 82  1  0  0  0  0
 26 83  1  0  0  0  0
 27 64  2  0  0  0  0
 28 57  1  0  0  0  0
 28 65  2  0  0  0  0
 29 30  2  0  0  0  0
 29 49  1  0  0  0  0
 29 65  1  0  0  0  0
 30 56  1  0  0  0  0
 30 63  1  0  0  0  0
 31 66  1  0  0  0  0
 31 69  1  0  0  0  0
 32 70  1  0  0  0  0
 32 75  2  0  0  0  0
 33 47  1  0  0  0  0
 33 71  1  0  0  0  0
 33 76  2  0  0  0  0
 34 60  1  0  0  0  0
 34 67  1  0  0  0  0
 34 77  2  0  0  0  0
 35 61  1  0  0  0  0
 35 72  1  0  0  0  0
 35 78  2  0  0  0  0
 36 68  1  0  0  0  0
 36 73  1  0  0  0  0
 36 79  2  0  0  0  0
 37 40  1  0  0  0  0
 38 47  1  0  0  0  0
 39 67  1  0  0  0  0
 40 42  1  0  0  0  0
 41 43  1  0  0  0  0
 41 44  1  0  0  0  0
 42 46  1  0  0  0  0
 43 48  1  0  0  0  0
 44 68  1  0  0  0  0
 45 48  1  0  0  0  0
 45 68  1  0  0  0  0
 46 71  1  0  0  0  0
 47 67  1  0  0  0  0
 48 66  1  0  0  0  0
 50 61  1  0  0  0  0
 51 62  1  0  0  0  0
 52 62  1  0  0  0  0
 53 62  1  0  0  0  0
 54 73  1  0  0  0  0
 55 74  1  0  0  0  0
 56 58  1  0  0  0  0
 57 73  1  0  0  0  0
 58 59  1  0  0  0  0
 59 81  1  0  0  0  0
 60 62  1  0  0  0  0
 60 72  1  0  0  0  0
 61 74  1  0  0  0  0
 64 66  1  0  0  0  0
M  CHG  1  74   1
M  ISO  4  36 100  59 101  73 100  81 101
M  END
> <Batch ID>
0051

> <Smiles>
CNC(C)C(=O)NC(C(=O)N1Cc2cc([101O:1][101CH2:1]CCc3ncc(C[100N:0](C)[100C:0](=O)N4CCCC(n5nc(-c6ccc(Oc7ccc(F)cc7F)cc6)c(C(N)=O)c5N)C4)nc3C)ccc2CC1C(=O)NC1CCCc2ccccc21)C(C)(C)C

> <Shape>
0.304

> <Color>
0.211

> <Negative vol penalty>
0.000

$$$$

  -OEChem-04052317333D

 86 94  0     1  0  0  0  0  0999 V2000
  -24.9831  -38.2128   22.7974 C   0  0  0  0  0  0  0  0  0  0  0  0
  -25.7403  -37.4002   21.9597 C   0  0  0  0  0  0  0  0  0  0  0  0
  -20.0737  -12.6224   20.0341 C   0  0  0  0  0  0  0  0  0  0  0  0
  -21.9889  -11.6178   21.1110 C   0  0  0  0  0  0  0  0  0  0  0  0
  -24.3716  -37.6701   23.9268 C   0  0  0  0  0  0  0  0  0  0  0  0
  -25.8874  -36.0446   22.2515 C   0  0  0  0  0  0  0  0  0  0  0  0
  -26.6176  -29.6879   19.0305 C   0  0  0  0  0  0  0  0  0  0  0  0
  -19.7181  -11.3806   19.5079 C   0  0  0  0  0  0  0  0  0  0  0  0
  -21.6333  -10.3759   20.5848 C   0  0  0  0  0  0  0  0  0  0  0  0
  -27.4456  -28.5662   19.0365 C   0  0  0  0  0  0  0  0  0  0  0  0
  -19.4040   -7.9294   21.2671 C   0  0  0  0  0  0  0  0  0  0  0  0
  -19.4472   -6.8284   22.1224 C   0  0  0  0  0  0  0  0  0  0  0  0
  -26.2783  -27.7223   20.9715 C   0  0  0  0  0  0  0  0  0  0  0  0
  -21.0712   -5.7711   20.6795 C   0  0  0  0  0  0  0  0  0  0  0  0
  -29.1725  -23.9238   19.0835 C   0  0  0  0  0  0  0  0  0  0  0  0
  -21.2091  -12.7411   20.8356 C   0  0  0  0  0  0  0  0  0  0  0  0
  -21.1731  -14.5729   22.6106 C   0  0  0  0  0  0  0  0  0  0  0  0
  -24.5033  -36.3052   24.2273 C   0  0  0  0  0  0  0  0  0  0  0  0
  -25.6191  -29.8408   20.0032 C   0  0  0  0  0  0  0  0  0  0  0  0
  -25.2782  -35.4835   23.3867 C   0  0  0  0  0  0  0  0  0  0  0  0
  -25.4373  -28.8456   20.9741 C   0  0  0  0  0  0  0  0  0  0  0  0
  -20.4978  -10.2573   19.7832 C   0  0  0  0  0  0  0  0  0  0  0  0
  -27.2779  -27.5846   20.0088 C   0  0  0  0  0  0  0  0  0  0  0  0
  -20.1944   -7.9512   20.1179 C   0  0  0  0  0  0  0  0  0  0  0  0
  -20.2808   -5.7493   21.8287 C   0  0  0  0  0  0  0  0  0  0  0  0
  -21.0280   -6.8721   19.8242 C   0  0  0  0  0  0  0  0  0  0  0  0
  -21.5773  -14.0238   21.3790 C   0  0  0  0  0  0  0  0  0  0  0  0
  -29.9502  -22.7946   19.2404 C   0  0  0  0  0  0  0  0  0  0  0  0
  -29.8443  -25.1267   19.1607 C   0  0  0  0  0  0  0  0  0  0  0  0
  -21.7902  -15.7990   22.6589 C   0  0  0  0  0  0  0  0  0  0  0  0
  -31.8200  -24.0585   19.5108 C   0  0  0  0  0  0  0  0  0  0  0  0
  -20.3165  -14.0238   23.6208 C   0  0  0  0  0  0  0  0  0  0  0  0
  -25.0255  -31.9628   22.2941 C   0  0  0  0  0  0  0  0  0  0  0  0
  -22.2900  -30.2521   22.6310 C   0  0  0  0  0  0  0  0  0  0  0  0
  -20.6546  -27.2882   22.1982 C   0  0  0  0  0  0  0  0  0  0  0  0
  -26.6539  -17.9177   20.3215 C   0  0  0  0  0  0  0  0  0  0  0  0
  -23.8629  -35.7737   25.4851 C   0  0  0  0  0  0  0  0  0  0  0  0
  -24.7168  -31.0436   19.9669 C   0  0  0  0  0  0  0  0  0  0  0  0
  -24.3668  -28.9525   22.0283 C   0  0  0  0  0  0  0  0  0  0  0  0
  -23.7586  -34.2511   25.5190 C   0  0  0  0  0  0  0  0  0  0  0  0
  -23.4344  -19.2875   19.8413 C   0  0  0  0  0  0  0  0  0  0  0  0
  -25.0791  -33.6160   25.0951 C   0  0  0  0  0  0  0  0  0  0  0  0
  -22.5433  -18.1330   20.2973 C   0  0  0  0  0  0  0  0  0  0  0  0
  -24.6453  -18.7987   19.0444 C   0  0  0  0  0  0  0  0  0  0  0  0
  -24.5531  -16.6123   20.1993 C   0  0  0  0  0  0  0  0  0  0  0  0
  -25.4407  -34.0032   23.6561 C   0  0  1  0  0  0  0  0  0  0  0  0
  -24.0682  -31.3449   21.3145 C   0  0  1  0  0  0  0  0  0  0  0  0
  -23.3615  -17.0719   21.0534 C   0  0  2  0  0  0  0  0  0  0  0  0
  -33.2910  -24.1340   19.7444 C   0  0  0  0  0  0  0  0  0  0  0  0
  -26.7146  -20.8795   22.1212 C   0  0  0  0  0  0  0  0  0  0  0  0
  -18.4388  -26.1831   22.6061 C   0  0  0  0  0  0  0  0  0  0  0  0
  -22.9763  -29.9741   25.5910 C   0  0  0  0  0  0  0  0  0  0  0  0
  -21.2987  -28.1212   25.7345 C   0  0  0  0  0  0  0  0  0  0  0  0
  -20.5621  -30.4234   25.1177 C   0  0  0  0  0  0  0  0  0  0  0  0
  -29.7637  -21.1094   21.6607 C   0  0  0  0  0  0  0  0  0  0  0  0
  -27.4820  -19.0608   18.2209 C   0  0  0  0  0  0  0  0  0  0  0  0
  -20.2267  -26.8169   19.3080 C   0  0  0  0  0  0  0  0  0  0  0  0
  -29.3125  -21.4474   19.1720 C   0  0  0  0  0  0  0  0  0  0  0  0
  -29.0832  -26.4098   19.0005 C   0  0  0  0  0  0  0  0  0  1  0  0
  -27.3759  -21.4121   20.8541 C   0  0  0  0  0  0  0  0  0  0  0  0
  -28.7138  -19.2721   20.3479 C   0  0  0  0  0  0  0  0  0  0  0  0
  -21.8732  -29.0520   23.4465 C   0  0  1  0  0  0  0  0  0  0  0  0
  -19.2891  -26.9665   21.6182 C   0  0  2  0  0  0  0  0  0  0  0  0
  -21.6991  -29.3913   24.9539 C   0  0  0  0  0  0  0  0  0  0  0  0
  -28.7736  -20.8170   20.5116 C   0  0  2  0  0  0  0  0  0  0  0  0
  -22.3883  -14.8345   20.6942 N   0  0  0  0  0  0  0  0  0  0  0  0
  -31.2816  -22.8254   19.4562 N   0  0  0  0  0  0  0  0  0  0  0  0
  -31.1724  -25.2313   19.3742 N   0  0  0  0  0  0  0  0  0  0  0  0
  -22.4986  -15.9057   21.4983 N   0  0  0  0  0  0  0  0  0  0  0  0
  -23.5140  -30.1503   21.9547 N   0  0  0  0  0  0  0  0  0  0  0  0
  -25.3700  -17.7541   19.7810 N   0  0  0  0  0  0  0  0  0  0  0  0
  -21.7905  -16.7856   23.5803 N   0  0  0  0  0  0  0  0  0  0  0  0
  -19.7663  -12.7520   23.4111 N   0  0  0  0  0  0  0  0  0  0  0  0
  -24.6624  -33.2284   22.7135 N   0  0  0  0  0  0  0  0  0  0  0  0
  -20.6714  -28.5237   22.8103 N   0  0  0  0  0  0  0  0  0  0  0  0
  -27.5229  -18.7969   19.6579 N   0  0  0  0  0  0  0  0  0  0  0  0
  -19.4319  -26.1566   20.3754 N   0  3  0  0  0  0  0  0  0  0  0  0
  -20.0339  -14.6496   24.6706 O   0  0  0  0  0  0  0  0  0  0  0  0
  -26.0190  -31.3370   22.6447 O   0  0  0  0  0  0  0  0  0  0  0  0
  -21.5534  -31.2407   22.5897 O   0  0  0  0  0  0  0  0  0  0  0  0
  -21.6097  -26.5187   22.1197 O   0  0  0  0  0  0  0  0  0  0  0  0
  -27.0088  -17.3059   21.3373 O   0  0  0  0  0  0  0  0  0  0  0  0
  -20.1510   -9.0453   19.2701 O   0  0  0  0  0  0  0  0  0  0  0  0
  -28.0851  -26.4891   20.0173 O   0  0  0  0  0  0  0  0  0  1  0  0
  -20.3233   -4.6928   22.6509 F   0  0  0  0  0  0  0  0  0  0  0  0
  -21.7905   -6.8878   18.7223 F   0  0  0  0  0  0  0  0  0  0  0  0
  1  2  1  0  0  0  0
  1  5  2  0  0  0  0
  2  6  2  0  0  0  0
  3  8  2  0  0  0  0
  3 16  1  0  0  0  0
  4  9  1  0  0  0  0
  4 16  2  0  0  0  0
  5 18  1  0  0  0  0
  6 20  1  0  0  0  0
  7 10  2  0  0  0  0
  7 19  1  0  0  0  0
  8 22  1  0  0  0  0
  9 22  2  0  0  0  0
 10 23  1  0  0  0  0
 11 12  2  0  0  0  0
 11 24  1  0  0  0  0
 12 25  1  0  0  0  0
 13 21  1  0  0  0  0
 13 23  2  0  0  0  0
 14 25  2  0  0  0  0
 14 26  1  0  0  0  0
 15 28  1  0  0  0  0
 15 29  2  0  0  0  0
 16 27  1  0  0  0  0
 17 27  1  0  0  0  0
 17 30  2  0  0  0  0
 17 32  1  0  0  0  0
 18 20  2  0  0  0  0
 18 37  1  0  0  0  0
 19 21  2  0  0  0  0
 19 38  1  0  0  0  0
 20 46  1  0  0  0  0
 21 39  1  0  0  0  0
 22 83  1  0  0  0  0
 23 84  1  0  0  0  0
 24 26  2  0  0  0  0
 24 83  1  0  0  0  0
 25 85  1  0  0  0  0
 26 86  1  0  0  0  0
 27 66  2  0  0  0  0
 28 58  1  0  0  0  0
 28 67  2  0  0  0  0
 29 59  1  0  0  0  0
 29 68  1  0  0  0  0
 30 69  1  0  0  0  0
 30 72  1  0  0  0  0
 31 49  1  0  0  0  0
 31 67  1  0  0  0  0
 31 68  2  0  0  0  0
 32 73  1  0  0  0  0
 32 78  2  0  0  0  0
 33 47  1  0  0  0  0
 33 74  1  0  0  0  0
 33 79  2  0  0  0  0
 34 62  1  0  0  0  0
 34 70  1  0  0  0  0
 34 80  2  0  0  0  0
 35 63  1  0  0  0  0
 35 75  1  0  0  0  0
 35 81  2  0  0  0  0
 36 71  1  0  0  0  0
 36 76  1  0  0  0  0
 36 82  2  0  0  0  0
 37 40  1  0  0  0  0
 38 47  1  0  0  0  0
 39 70  1  0  0  0  0
 40 42  1  0  0  0  0
 41 43  1  0  0  0  0
 41 44  1  0  0  0  0
 42 46  1  0  0  0  0
 43 48  1  0  0  0  0
 44 71  1  0  0  0  0
 45 48  1  0  0  0  0
 45 71  1  0  0  0  0
 46 74  1  0  0  0  0
 47 70  1  0  0  0  0
 48 69  1  0  0  0  0
 50 60  1  0  0  0  0
 51 63  1  0  0  0  0
 52 64  1  0  0  0  0
 53 64  1  0  0  0  0
 54 64  1  0  0  0  0
 55 65  1  0  0  0  0
 56 76  1  0  0  0  0
 57 77  1  0  0  0  0
 58 65  1  0  0  0  0
 59 84  1  0  0  0  0
 60 65  1  0  0  0  0
 61 65  1  0  0  0  0
 61 76  1  0  0  0  0
 62 64  1  0  0  0  0
 62 75  1  0  0  0  0
 63 77  1  0  0  0  0
 66 69  1  0  0  0  0
M  CHG  1  77   1
M  ISO  4  36 100  59 101  76 100  84 101
M  END
> <Batch ID>
0051

> <Smiles>
CCC(C)(Cc1cc([101CH2:1][101O:1]c2ccc3c(c2)CN(C(=O)C(NC(=O)C(C)NC)C(C)(C)C)C(C(=O)NC2CCCc4ccccc42)C3)nc(C)n1)C[100N:0](C)[100C:0](=O)N1CCCC(n2nc(-c3ccc(Oc4ccc(F)cc4F)cc3)c(C(N)=O)c2N)C1

> <Shape>
0.277

> <Color>
0.087

> <Negative vol penalty>
0.000

$$$$

  -OEChem-04052317333D

 88 96  0     1  0  0  0  0  0999 V2000
  -19.6557  -27.7705   26.6480 C   0  0  0  0  0  0  0  0  0  0  0  0
  -20.9256  -27.4123   26.2072 C   0  0  0  0  0  0  0  0  0  0  0  0
  -27.2442  -15.5748   20.4321 C   0  0  0  0  0  0  0  0  0  0  0  0
  -26.4945  -15.0276   22.6627 C   0  0  0  0  0  0  0  0  0  0  0  0
  -18.6418  -28.0169   25.7231 C   0  0  0  0  0  0  0  0  0  0  0  0
  -21.1822  -27.2992   24.8413 C   0  0  0  0  0  0  0  0  0  0  0  0
  -26.4060  -28.6650   21.9512 C   0  0  0  0  0  0  0  0  0  0  0  0
  -30.1255  -22.5259   16.0377 C   0  0  0  0  0  0  0  0  0  0  0  0
  -26.8120  -14.3278   19.9808 C   0  0  0  0  0  0  0  0  0  0  0  0
  -26.0622  -13.7805   22.2114 C   0  0  0  0  0  0  0  0  0  0  0  0
  -27.4703  -27.8771   21.5151 C   0  0  0  0  0  0  0  0  0  0  0  0
  -23.4143  -12.5226   20.5300 C   0  0  0  0  0  0  0  0  0  0  0  0
  -22.1569  -12.0848   20.9459 C   0  0  0  0  0  0  0  0  0  0  0  0
  -30.7694  -23.5396   16.7385 C   0  0  0  0  0  0  0  0  0  0  0  0
  -26.4895  -27.7815   19.3132 C   0  0  0  0  0  0  0  0  0  0  0  0
  -23.1730  -10.1567   21.9884 C   0  0  0  0  0  0  0  0  0  0  0  0
  -27.0855  -15.9247   21.7730 C   0  0  0  0  0  0  0  0  0  0  0  0
  -28.8434  -17.7236   22.1989 C   0  0  0  0  0  0  0  0  0  0  0  0
  -18.8887  -27.9161   24.3449 C   0  0  0  0  0  0  0  0  0  0  0  0
  -25.3681  -29.0085   21.0730 C   0  0  0  0  0  0  0  0  0  0  0  0
  -20.1704  -27.5431   23.8972 C   0  0  0  0  0  0  0  0  0  0  0  0
  -25.4144  -28.5760   19.7400 C   0  0  0  0  0  0  0  0  0  0  0  0
  -28.9127  -22.0292   16.5022 C   0  0  0  0  0  0  0  0  0  0  0  0
  -26.2209  -13.4306   20.8705 C   0  0  0  0  0  0  0  0  0  0  0  0
  -27.5108  -27.4329   20.1967 C   0  0  0  0  0  0  0  0  0  0  0  0
  -24.5511  -11.7774   20.8433 C   0  0  0  0  0  0  0  0  0  0  0  0
  -22.0363  -10.9019   21.6751 C   0  0  0  0  0  0  0  0  0  0  0  0
  -24.4305  -10.5945   21.5725 C   0  0  0  0  0  0  0  0  0  0  0  0
  -27.5323  -17.2125   22.2399 C   0  0  0  0  0  0  0  0  0  0  0  0
  -30.1636  -24.0186   17.8890 C   0  0  0  0  0  0  0  0  0  0  0  0
  -28.3902  -22.5756   17.6633 C   0  0  0  0  0  0  0  0  0  0  0  0
  -28.7423  -18.9738   22.7587 C   0  0  0  0  0  0  0  0  0  0  0  0
  -30.0452  -17.1221   21.6994 C   0  0  0  0  0  0  0  0  0  0  0  0
  -22.2384  -28.4616   20.9761 C   0  0  0  0  0  0  0  0  0  0  0  0
  -22.3603  -30.4711   18.4326 C   0  0  0  0  0  0  0  0  0  0  0  0
  -24.2111  -31.8618   15.9251 C   0  0  0  0  0  0  0  0  0  0  0  0
  -23.7755  -22.5239   23.2746 C   0  0  0  0  0  0  0  0  0  0  0  0
  -17.7487  -28.1458   23.3845 C   0  0  0  0  0  0  0  0  0  0  0  0
  -24.2406  -29.8813   21.5519 C   0  0  0  0  0  0  0  0  0  0  0  0
  -24.3353  -28.9340   18.7522 C   0  0  0  0  0  0  0  0  0  0  0  0
  -18.2015  -28.3696   21.9440 C   0  0  0  0  0  0  0  0  0  0  0  0
  -26.1647  -21.4838   25.9037 C   0  0  0  0  0  0  0  0  0  0  0  0
  -19.2423  -27.3287   21.5438 C   0  0  0  0  0  0  0  0  0  0  0  0
  -26.8429  -20.2677   25.2751 C   0  0  0  0  0  0  0  0  0  0  0  0
  -24.7445  -21.6750   25.3798 C   0  0  0  0  0  0  0  0  0  0  0  0
  -25.3328  -20.5320   23.2676 C   0  0  0  0  0  0  0  0  0  0  0  0
  -20.4943  -27.4342   22.4229 C   0  0  1  0  0  0  0  0  0  0  0  0
  -22.9773  -29.7421   20.7080 C   0  0  1  0  0  0  0  0  0  0  0  0
  -26.7817  -20.3381   23.7394 C   0  0  2  0  0  0  0  0  0  0  0  0
  -28.2189  -20.9423   15.7564 C   0  0  0  0  0  0  0  0  0  0  0  0
  -24.7557  -33.3685   13.9936 C   0  0  0  0  0  0  0  0  0  0  0  0
  -31.2174  -27.5758   19.0402 C   0  0  0  0  0  0  0  0  0  0  0  0
  -20.9403  -28.3085   16.8149 C   0  0  0  0  0  0  0  0  0  0  0  0
  -21.6272  -29.5142   14.7310 C   0  0  0  0  0  0  0  0  0  0  0  0
  -20.1311  -30.6350   16.3827 C   0  0  0  0  0  0  0  0  0  0  0  0
  -23.2054  -23.9169   21.3216 C   0  0  0  0  0  0  0  0  0  0  0  0
  -25.1243  -34.0284   17.7225 C   0  0  0  0  0  0  0  0  0  0  0  0
  -27.7737  -21.1099   20.3945 C   0  0  0  0  0  0  0  0  0  0  0  0
  -30.8337  -25.1202   18.6738 C   0  0  0  0  0  0  0  0  0  0  0  0
  -27.0891  -22.0835   18.2072 C   0  0  0  0  0  0  0  0  0  0  0  0
  -25.4919  -23.0043   21.4786 C   0  0  0  0  0  0  0  0  0  0  0  0
  -25.5653  -22.2390   20.1705 C   0  0  0  0  0  0  0  0  0  0  0  0
  -28.9146  -26.7734   18.3938 C   0  0  0  0  0  0  0  0  0  1  0  0
  -22.5731  -30.3041   16.9474 C   0  0  1  0  0  0  0  0  0  0  0  0
  -24.3579  -33.2993   15.4598 C   0  0  2  0  0  0  0  0  0  0  0  0
  -30.4236  -26.5398   18.2340 C   0  0  1  0  0  0  0  0  0  0  0  0
  -21.3374  -29.6819   16.2379 C   0  0  0  0  0  0  0  0  0  0  0  0
  -26.6622  -18.0680   22.7830 N   0  0  0  0  0  0  0  0  0  0  0  0
  -28.9864  -23.5611   18.3711 N   0  0  0  0  0  0  0  0  0  0  0  0
  -27.4280  -19.1293   23.0885 N   0  0  0  0  0  0  0  0  0  0  0  0
  -23.2507  -29.7843   19.2700 N   0  0  0  0  0  0  0  0  0  0  0  0
  -24.7099  -21.6950   23.9171 N   0  0  0  0  0  0  0  0  0  0  0  0
  -29.6502  -19.9441   22.9962 N   0  0  0  0  0  0  0  0  0  0  0  0
  -30.8273  -16.3615   22.5792 N   0  0  0  0  0  0  0  0  0  0  0  0
  -21.3157  -28.5485   22.0011 N   0  0  0  0  0  0  0  0  0  0  0  0
  -22.9554  -31.6172   16.4396 N   0  0  0  0  0  0  0  0  0  0  0  0
  -24.1360  -23.0430   22.0219 N   0  0  0  0  0  0  0  0  0  0  0  0
  -25.3996  -33.9998   16.2629 N   0  3  0  0  0  0  0  0  0  0  0  0
  -26.9927  -22.1887   19.6885 N   0  3  1  0  0  0  0  0  0  0  0  0
  -30.4232  -17.2689   20.5123 O   0  0  0  0  0  0  0  0  0  0  0  0
  -22.4859  -27.4687   20.3019 O   0  0  0  0  0  0  0  0  0  0  0  0
  -21.4424  -31.1903   18.8348 O   0  0  0  0  0  0  0  0  0  0  0  0
  -25.1183  -31.0373   15.8373 O   0  0  0  0  0  0  0  0  0  0  0  0
  -22.6854  -22.7927   23.7956 O   0  0  0  0  0  0  0  0  0  0  0  0
  -25.7988  -12.2138   20.4304 O   0  0  0  0  0  0  0  0  0  0  0  0
  -28.5482  -26.6632   19.7686 O   0  0  0  0  0  0  0  0  0  1  0  0
  -20.8289  -10.4824   22.0757 F   0  0  0  0  0  0  0  0  0  0  0  0
  -25.5190   -9.8749   21.8775 F   0  0  0  0  0  0  0  0  0  0  0  0
  1  2  1  0  0  0  0
  1  5  2  0  0  0  0
  2  6  2  0  0  0  0
  3  9  2  0  0  0  0
  3 17  1  0  0  0  0
  4 10  1  0  0  0  0
  4 17  2  0  0  0  0
  5 19  1  0  0  0  0
  6 21  1  0  0  0  0
  7 11  2  0  0  0  0
  7 20  1  0  0  0  0
  8 14  2  0  0  0  0
  8 23  1  0  0  0  0
  9 24  1  0  0  0  0
 10 24  2  0  0  0  0
 11 25  1  0  0  0  0
 12 13  2  0  0  0  0
 12 26  1  0  0  0  0
 13 27  1  0  0  0  0
 14 30  1  0  0  0  0
 15 22  1  0  0  0  0
 15 25  2  0  0  0  0
 16 27  2  0  0  0  0
 16 28  1  0  0  0  0
 17 29  1  0  0  0  0
 18 29  1  0  0  0  0
 18 32  2  0  0  0  0
 18 33  1  0  0  0  0
 19 21  2  0  0  0  0
 19 38  1  0  0  0  0
 20 22  2  0  0  0  0
 20 39  1  0  0  0  0
 21 47  1  0  0  0  0
 22 40  1  0  0  0  0
 23 31  2  0  0  0  0
 23 50  1  0  0  0  0
 24 85  1  0  0  0  0
 25 86  1  0  0  0  0
 26 28  2  0  0  0  0
 26 85  1  0  0  0  0
 27 87  1  0  0  0  0
 28 88  1  0  0  0  0
 29 68  2  0  0  0  0
 30 59  1  0  0  0  0
 30 69  2  0  0  0  0
 31 60  1  0  0  0  0
 31 69  1  0  0  0  0
 32 70  1  0  0  0  0
 32 73  1  0  0  0  0
 33 74  1  0  0  0  0
 33 80  2  0  0  0  0
 34 48  1  0  0  0  0
 34 75  1  0  0  0  0
 34 81  2  0  0  0  0
 35 64  1  0  0  0  0
 35 71  1  0  0  0  0
 35 82  2  0  0  0  0
 36 65  1  0  0  0  0
 36 76  1  0  0  0  0
 36 83  2  0  0  0  0
 37 72  1  0  0  0  0
 37 77  1  0  0  0  0
 37 84  2  0  0  0  0
 38 41  1  0  0  0  0
 39 48  1  0  0  0  0
 40 71  1  0  0  0  0
 41 43  1  0  0  0  0
 42 44  1  0  0  0  0
 42 45  1  0  0  0  0
 43 47  1  0  0  0  0
 44 49  1  0  0  0  0
 45 72  1  0  0  0  0
 46 49  1  0  0  0  0
 46 72  1  0  0  0  0
 47 75  1  0  0  0  0
 48 71  1  0  0  0  0
 49 70  1  0  0  0  0
 51 65  1  0  0  0  0
 52 66  1  0  0  0  0
 53 67  1  0  0  0  0
 54 67  1  0  0  0  0
 55 67  1  0  0  0  0
 56 77  1  0  0  0  0
 57 78  1  0  0  0  0
 58 79  1  0  0  0  0
 59 66  1  0  0  0  0
 60 79  1  0  0  0  0
 61 62  1  0  0  0  0
 61 77  1  0  0  0  0
 62 79  1  0  0  0  0
 63 66  1  0  0  0  0
 63 86  1  0  0  0  0
 64 67  1  0  0  0  0
 64 76  1  0  0  0  0
 65 78  1  0  0  0  0
 68 70  1  0  0  0  0
M  CHG  2  78   1  79   1
M  ISO  4  37 100  63 101  77 100  86 101
M  END
> <Batch ID>
0051

> <Smiles>
CNC(C)C(=O)NC(C(=O)N1Cc2cc([101O:1][101CH2:1]C(C)Cc3ccc(C)c(CN(C)CC[100N:0](C)[100C:0](=O)N4CCCC(n5nc(-c6ccc(Oc7ccc(F)cc7F)cc6)c(C(N)=O)c5N)C4)n3)ccc2CC1C(=O)NC1CCCc2ccccc21)C(C)(C)C

> <Shape>
0.229

> <Color>
0.097

> <Negative vol penalty>
0.000

$$$$

  -OEChem-04052317333D

 89 97  0     1  0  0  0  0  0999 V2000
  -20.3724  -35.1601   20.5715 C   0  0  0  0  0  0  0  0  0  0  0  0
  -21.6006  -34.5551   20.3242 C   0  0  0  0  0  0  0  0  0  0  0  0
  -23.1728  -10.1215   22.2656 C   0  0  0  0  0  0  0  0  0  0  0  0
  -22.7902   -9.7196   19.9142 C   0  0  0  0  0  0  0  0  0  0  0  0
  -19.5641  -34.6956   21.6082 C   0  0  0  0  0  0  0  0  0  0  0  0
  -22.0215  -33.4859   21.1142 C   0  0  0  0  0  0  0  0  0  0  0  0
  -25.3161  -28.6488   19.3105 C   0  0  0  0  0  0  0  0  0  0  0  0
  -28.1230  -24.1264   18.4000 C   0  0  0  0  0  0  0  0  0  0  0  0
  -22.7473   -8.8254   22.5564 C   0  0  0  0  0  0  0  0  0  0  0  0
  -22.3647   -8.4234   20.2050 C   0  0  0  0  0  0  0  0  0  0  0  0
  -26.6758  -28.3541   19.3997 C   0  0  0  0  0  0  0  0  0  0  0  0
  -19.8122   -7.1764   22.8570 C   0  0  0  0  0  0  0  0  0  0  0  0
  -18.9319   -7.0085   23.9258 C   0  0  0  0  0  0  0  0  0  0  0  0
  -27.5718  -22.9618   17.8774 C   0  0  0  0  0  0  0  0  0  0  0  0
  -26.2641  -27.0930   21.4145 C   0  0  0  0  0  0  0  0  0  0  0  0
  -20.5372   -5.5744   25.0228 C   0  0  0  0  0  0  0  0  0  0  0  0
  -23.1942  -10.5687   20.9445 C   0  0  0  0  0  0  0  0  0  0  0  0
  -24.9460  -12.3279   20.3579 C   0  0  0  0  0  0  0  0  0  0  0  0
  -19.9710  -33.6140   22.4052 C   0  0  0  0  0  0  0  0  0  0  0  0
  -24.4202  -28.1761   20.2802 C   0  0  0  0  0  0  0  0  0  0  0  0
  -21.2184  -33.0074   22.1634 C   0  0  0  0  0  0  0  0  0  0  0  0
  -24.8931  -27.3810   21.3339 C   0  0  0  0  0  0  0  0  0  0  0  0
  -29.4897  -24.1920   18.6472 C   0  0  0  0  0  0  0  0  0  0  0  0
  -22.3433   -7.9763   21.5261 C   0  0  0  0  0  0  0  0  0  0  0  0
  -27.1505  -27.5785   20.4534 C   0  0  0  0  0  0  0  0  0  0  0  0
  -21.0550   -6.5432   22.8710 C   0  0  0  0  0  0  0  0  0  0  0  0
  -19.2944   -6.2076   25.0088 C   0  0  0  0  0  0  0  0  0  0  0  0
  -21.4175   -5.7422   23.9539 C   0  0  0  0  0  0  0  0  0  0  0  0
  -23.6331  -11.9076   20.6436 C   0  0  0  0  0  0  0  0  0  0  0  0
  -28.4234  -21.8992   17.6216 C   0  0  0  0  0  0  0  0  0  0  0  0
  -30.2555  -23.0742   18.3572 C   0  0  0  0  0  0  0  0  0  0  0  0
  -24.8348  -13.6800   20.1441 C   0  0  0  0  0  0  0  0  0  0  0  0
  -26.1577  -11.5642   20.2917 C   0  0  0  0  0  0  0  0  0  0  0  0
  -22.4754  -29.5404   22.3922 C   0  0  0  0  0  0  0  0  0  0  0  0
  -21.5256  -26.4821   22.9088 C   0  0  0  0  0  0  0  0  0  0  0  0
  -22.2619  -23.1535   22.7491 C   0  0  0  0  0  0  0  0  0  0  0  0
  -22.2120  -18.0475   17.8656 C   0  0  0  0  0  0  0  0  0  0  0  0
  -19.0842  -33.1776   23.5444 C   0  0  0  0  0  0  0  0  0  0  0  0
  -22.9525  -28.4805   20.1550 C   0  0  0  0  0  0  0  0  0  0  0  0
  -23.9696  -26.8323   22.3896 C   0  0  0  0  0  0  0  0  0  0  0  0
  -19.4359  -31.7985   24.0963 C   0  0  0  0  0  0  0  0  0  0  0  0
  -20.9723  -16.8383   20.9765 C   0  0  0  0  0  0  0  0  0  0  0  0
  -20.9417  -31.6761   24.3074 C   0  0  0  0  0  0  0  0  0  0  0  0
  -21.6573  -15.4804   21.1403 C   0  0  0  0  0  0  0  0  0  0  0  0
  -20.6171  -17.1190   19.5181 C   0  0  0  0  0  0  0  0  0  0  0  0
  -22.4274  -15.6408   18.7361 C   0  0  0  0  0  0  0  0  0  0  0  0
  -21.6987  -31.8292   22.9827 C   0  0  1  0  0  0  0  0  0  0  0  0
  -22.2054  -28.3765   21.4810 C   0  0  1  0  0  0  0  0  0  0  0  0
  -22.8552  -15.3375   20.1823 C   0  0  2  0  0  0  0  0  0  0  0  0
  -32.1113  -22.3153   19.8627 C   0  0  0  0  0  0  0  0  0  0  0  0
  -21.3020  -20.8961   23.2785 C   0  0  0  0  0  0  0  0  0  0  0  0
  -22.0905  -26.9394   25.8722 C   0  0  0  0  0  0  0  0  0  0  0  0
  -22.0389  -24.4570   26.1937 C   0  0  0  0  0  0  0  0  0  0  0  0
  -20.0001  -25.6522   25.3952 C   0  0  0  0  0  0  0  0  0  0  0  0
  -30.5422  -26.4089   18.2761 C   0  0  0  0  0  0  0  0  0  0  0  0
  -22.3805  -22.3100   19.9148 C   0  0  0  0  0  0  0  0  0  0  0  0
  -28.0411  -19.0807   18.9991 C   0  0  0  0  0  0  0  0  0  0  0  0
  -31.7297  -23.0836   18.6013 C   0  0  0  0  0  0  0  0  0  0  0  0
  -27.8661  -20.6338   17.0605 C   0  0  0  0  0  0  0  0  0  0  0  0
  -24.9325  -19.7043   16.9296 C   0  0  0  0  0  0  0  0  0  0  0  0
  -23.8951  -18.8389   16.2224 C   0  0  0  0  0  0  0  0  0  0  0  0
  -30.1596  -25.5703   20.5996 C   0  0  0  0  0  0  0  0  0  0  0  0
  -26.1236  -18.8919   17.4214 C   0  0  0  0  0  0  0  0  0  0  0  0
  -28.8327  -26.0535   21.1608 C   0  0  0  0  0  0  0  0  0  1  0  0
  -21.9634  -25.3674   23.8280 C   0  0  1  0  0  0  0  0  0  0  0  0
  -21.4719  -21.9715   22.2167 C   0  0  2  0  0  0  0  0  0  0  0  0
  -21.5412  -25.6158   25.3036 C   0  0  0  0  0  0  0  0  0  0  0  0
  -22.7526  -12.9116   20.6148 N   0  0  0  0  0  0  0  0  0  0  0  0
  -29.7558  -21.9255   17.8488 N   0  0  0  0  0  0  0  0  0  0  0  0
  -23.5137  -13.9761   20.3086 N   0  0  0  0  0  0  0  0  0  0  0  0
  -22.5442  -27.1628   22.2269 N   0  0  0  0  0  0  0  0  0  0  0  0
  -21.7967  -16.9680   18.6627 N   0  0  0  0  0  0  0  0  0  0  0  0
  -25.7393  -14.6328   19.8333 N   0  0  0  0  0  0  0  0  0  0  0  0
  -26.0932  -10.1861   20.5385 N   0  0  0  0  0  0  0  0  0  0  0  0
  -21.6175  -30.6082   22.2101 N   0  0  0  0  0  0  0  0  0  0  0  0
  -21.4350  -24.1343   23.2547 N   0  0  0  0  0  0  0  0  0  0  0  0
  -23.3425  -17.8224   17.0897 N   0  0  0  0  0  0  0  0  0  0  0  0
  -30.0549  -25.3611   19.1737 N   0  0  3  0  0  0  0  0  0  0  0  0
  -22.1679  -21.3691   21.0447 N   0  3  0  0  0  0  0  0  0  0  0  0
  -27.1221  -19.8215   18.0620 N   0  3  1  0  0  0  0  0  0  0  0  0
  -27.2673  -12.0911   20.0379 O   0  0  0  0  0  0  0  0  0  0  0  0
  -23.3931  -29.4739   23.2015 O   0  0  0  0  0  0  0  0  0  0  0  0
  -20.3236  -26.7346   22.7944 O   0  0  0  0  0  0  0  0  0  0  0  0
  -23.4897  -23.2003   22.7228 O   0  0  0  0  0  0  0  0  0  0  0  0
  -21.6223  -19.1333   17.8508 O   0  0  0  0  0  0  0  0  0  0  0  0
  -21.9282   -6.7114   21.8095 O   0  0  0  0  0  0  0  0  0  0  0  0
  -28.4773  -27.2899   20.5432 O   0  0  0  0  0  0  0  0  0  1  0  0
  -18.4495   -6.0477   26.0358 F   0  0  0  0  0  0  0  0  0  0  0  0
  -22.6106   -5.1323   23.9736 F   0  0  0  0  0  0  0  0  0  0  0  0
  1  2  1  0  0  0  0
  1  5  2  0  0  0  0
  2  6  2  0  0  0  0
  3  9  2  0  0  0  0
  3 17  1  0  0  0  0
  4 10  1  0  0  0  0
  4 17  2  0  0  0  0
  5 19  1  0  0  0  0
  6 21  1  0  0  0  0
  7 11  2  0  0  0  0
  7 20  1  0  0  0  0
  8 14  2  0  0  0  0
  8 23  1  0  0  0  0
  9 24  1  0  0  0  0
 10 24  2  0  0  0  0
 11 25  1  0  0  0  0
 12 13  2  0  0  0  0
 12 26  1  0  0  0  0
 13 27  1  0  0  0  0
 14 30  1  0  0  0  0
 15 22  1  0  0  0  0
 15 25  2  0  0  0  0
 16 27  2  0  0  0  0
 16 28  1  0  0  0  0
 17 29  1  0  0  0  0
 18 29  1  0  0  0  0
 18 32  2  0  0  0  0
 18 33  1  0  0  0  0
 19 21  2  0  0  0  0
 19 38  1  0  0  0  0
 20 22  2  0  0  0  0
 20 39  1  0  0  0  0
 21 47  1  0  0  0  0
 22 40  1  0  0  0  0
 23 31  2  0  0  0  0
 23 78  1  0  0  0  0
 24 86  1  0  0  0  0
 25 87  1  0  0  0  0
 26 28  2  0  0  0  0
 26 86  1  0  0  0  0
 27 88  1  0  0  0  0
 28 89  1  0  0  0  0
 29 68  2  0  0  0  0
 30 59  1  0  0  0  0
 30 69  2  0  0  0  0
 31 58  1  0  0  0  0
 31 69  1  0  0  0  0
 32 70  1  0  0  0  0
 32 73  1  0  0  0  0
 33 74  1  0  0  0  0
 33 81  2  0  0  0  0
 34 48  1  0  0  0  0
 34 75  1  0  0  0  0
 34 82  2  0  0  0  0
 35 65  1  0  0  0  0
 35 71  1  0  0  0  0
 35 83  2  0  0  0  0
 36 66  1  0  0  0  0
 36 76  1  0  0  0  0
 36 84  2  0  0  0  0
 37 72  1  0  0  0  0
 37 77  1  0  0  0  0
 37 85  2  0  0  0  0
 38 41  1  0  0  0  0
 39 48  1  0  0  0  0
 40 71  1  0  0  0  0
 41 43  1  0  0  0  0
 42 44  1  0  0  0  0
 42 45  1  0  0  0  0
 43 47  1  0  0  0  0
 44 49  1  0  0  0  0
 45 72  1  0  0  0  0
 46 49  1  0  0  0  0
 46 72  1  0  0  0  0
 47 75  1  0  0  0  0
 48 71  1  0  0  0  0
 49 70  1  0  0  0  0
 50 58  1  0  0  0  0
 51 66  1  0  0  0  0
 52 67  1  0  0  0  0
 53 67  1  0  0  0  0
 54 67  1  0  0  0  0
 55 78  1  0  0  0  0
 56 79  1  0  0  0  0
 57 80  1  0  0  0  0
 59 80  1  0  0  0  0
 60 61  1  0  0  0  0
 60 63  1  0  0  0  0
 61 77  1  0  0  0  0
 62 64  1  0  0  0  0
 62 78  1  0  0  0  0
 63 80  1  0  0  0  0
 64 87  1  0  0  0  0
 65 67  1  0  0  0  0
 65 76  1  0  0  0  0
 66 79  1  0  0  0  0
 68 70  1  0  0  0  0
M  CHG  2  79   1  80   1
M  ISO  4  37 100  64 101  77 100  87 101
M  END
> <Batch ID>
0051

> <Smiles>
CCc1nc(CN(C)CCC[100NH:0][100C:0](=O)N2CCCC(n3nc(-c4ccc(Oc5ccc(F)cc5F)cc4)c(C(N)=O)c3N)C2)ccc1N(C)C[101CH2:1][101O:1]c1ccc2c(c1)CN(C(=O)C(NC(=O)C(C)NC)C(C)(C)C)C(C(=O)NC1CCCc3ccccc31)C2

> <Shape>
0.227

> <Color>
0.097

> <Negative vol penalty>
0.000

$$$$

  -OEChem-04052317333D

 84 91  0     1  0  0  0  0  0999 V2000
  -32.7143  -16.8992   21.6600 C   0  0  0  0  0  0  0  0  0  0  0  0
  -31.5338  -17.6154   21.4897 C   0  0  0  0  0  0  0  0  0  0  0  0
  -28.8541  -26.3851   20.1456 C   0  0  0  0  0  0  0  0  0  0  0  0
  -27.3969  -25.7356   18.3313 C   0  0  0  0  0  0  0  0  0  0  0  0
  -32.7564  -15.5418   21.3445 C   0  0  0  0  0  0  0  0  0  0  0  0
  -30.3950  -16.9748   21.0027 C   0  0  0  0  0  0  0  0  0  0  0  0
  -26.2214  -18.1911   23.6000 C   0  0  0  0  0  0  0  0  0  0  0  0
  -29.7839  -25.4270   19.7419 C   0  0  0  0  0  0  0  0  0  0  0  0
  -28.3268  -24.7774   17.9275 C   0  0  0  0  0  0  0  0  0  0  0  0
  -25.6363  -19.4259   23.3231 C   0  0  0  0  0  0  0  0  0  0  0  0
  -30.1559  -21.9154   16.6340 C   0  0  0  0  0  0  0  0  0  0  0  0
  -29.6787  -20.6462   16.3070 C   0  0  0  0  0  0  0  0  0  0  0  0
  -24.0016  -18.3315   21.9270 C   0  0  0  0  0  0  0  0  0  0  0  0
  -28.7969  -20.4016   18.5430 C   0  0  0  0  0  0  0  0  0  0  0  0
  -27.6606  -26.5394   19.4403 C   0  0  0  0  0  0  0  0  0  0  0  0
  -26.6237  -28.8702   19.4374 C   0  0  0  0  0  0  0  0  0  0  0  0
  -31.6149  -14.8820   20.8625 C   0  0  0  0  0  0  0  0  0  0  0  0
  -25.7067  -17.0164   23.0328 C   0  0  0  0  0  0  0  0  0  0  0  0
  -30.4223  -15.6076   20.6792 C   0  0  0  0  0  0  0  0  0  0  0  0
  -24.5803  -17.0828   22.2003 C   0  0  0  0  0  0  0  0  0  0  0  0
  -29.5203  -24.6232   18.6328 C   0  0  0  0  0  0  0  0  0  0  0  0
  -24.5280  -19.4966   22.4841 C   0  0  0  0  0  0  0  0  0  0  0  0
  -29.9538  -22.4277   17.9156 C   0  0  0  0  0  0  0  0  0  0  0  0
  -28.9992  -19.8893   17.2614 C   0  0  0  0  0  0  0  0  0  0  0  0
  -29.2743  -21.6708   18.8700 C   0  0  0  0  0  0  0  0  0  0  0  0
  -26.6994  -27.5286   19.8572 C   0  0  0  0  0  0  0  0  0  0  0  0
  -25.5464  -29.3826   20.1181 C   0  0  0  0  0  0  0  0  0  0  0  0
  -27.4530  -29.5889   18.5147 C   0  0  0  0  0  0  0  0  0  0  0  0
  -26.8378  -14.7954   21.0602 C   0  0  0  0  0  0  0  0  0  0  0  0
  -24.0202  -13.3299   21.7202 C   0  0  0  0  0  0  0  0  0  0  0  0
  -20.7752  -13.6143   22.7379 C   0  0  0  0  0  0  0  0  0  0  0  0
  -20.7017  -27.0400   22.2741 C   0  0  0  0  0  0  0  0  0  0  0  0
  -31.7218  -13.4243   20.4904 C   0  0  0  0  0  0  0  0  0  0  0  0
  -26.3329  -15.6893   23.3628 C   0  0  0  0  0  0  0  0  0  0  0  0
  -23.9771  -15.8487   21.5825 C   0  0  0  0  0  0  0  0  0  0  0  0
  -30.3689  -12.7348   20.3340 C   0  0  0  0  0  0  0  0  0  0  0  0
  -23.0673  -28.8554   24.1663 C   0  0  0  0  0  0  0  0  0  0  0  0
  -29.4255  -13.5935   19.4977 C   0  0  0  0  0  0  0  0  0  0  0  0
  -24.2753  -28.8453   23.2305 C   0  0  0  0  0  0  0  0  0  0  0  0
  -22.3274  -27.5164   24.1640 C   0  0  0  0  0  0  0  0  0  0  0  0
  -23.1462  -27.0404   21.8780 C   0  0  0  0  0  0  0  0  0  0  0  0
  -29.1592  -14.9424   20.1768 C   0  0  1  0  0  0  0  0  0  0  0  0
  -26.0398  -14.6146   22.3204 C   0  0  1  0  0  0  0  0  0  0  0  0
  -23.8719  -28.3933   21.8163 C   0  0  2  0  0  0  0  0  0  0  0  0
  -18.7103  -12.2467   23.1419 C   0  0  0  0  0  0  0  0  0  0  0  0
  -18.0640  -26.3905   20.7963 C   0  0  0  0  0  0  0  0  0  0  0  0
  -19.8178  -27.4601   19.3459 C   0  0  0  0  0  0  0  0  0  0  0  0
  -21.4119  -24.2120   20.0617 C   0  0  0  0  0  0  0  0  0  0  0  0
  -23.5480  -13.1583   18.7106 C   0  0  0  0  0  0  0  0  0  0  0  0
  -21.1367  -12.6815   19.1865 C   0  0  0  0  0  0  0  0  0  0  0  0
  -22.8991  -11.1079   19.9869 C   0  0  0  0  0  0  0  0  0  0  0  0
  -19.7555  -21.4458   23.3236 C   0  0  0  0  0  0  0  0  0  0  0  0
  -20.0251  -21.5734   20.8590 C   0  0  0  0  0  0  0  0  0  0  0  0
  -19.6482  -24.3100   23.5791 C   0  0  0  0  0  0  0  0  0  0  0  0
  -20.7069  -14.3517   25.6033 C   0  0  0  0  0  0  0  0  0  0  0  0
  -21.9785  -22.0539   22.3721 C   0  0  0  0  0  0  0  0  0  0  0  0
  -22.5528  -20.7061   21.9443 C   0  0  0  0  0  0  0  0  0  1  0  0
  -22.6361  -13.3537   21.1181 C   0  0  1  0  0  0  0  0  0  0  0  0
  -19.9685  -12.8354   23.7610 C   0  0  2  0  0  0  0  0  0  0  0  0
  -19.4639  -26.2568   20.2103 C   0  0  0  0  0  0  0  0  0  0  0  0
  -20.9768  -24.7391   21.4325 C   0  0  2  0  0  0  0  0  0  0  0  0
  -22.5673  -12.5990   19.7605 C   0  0  0  0  0  0  0  0  0  0  0  0
  -20.4399  -22.2496   22.1922 C   0  0  0  0  0  0  0  0  0  0  0  0
  -20.0043  -23.7755   22.1805 C   0  0  1  0  0  0  0  0  0  0  0  0
  -25.7463  -27.2088   20.7366 N   0  0  0  0  0  0  0  0  0  0  0  0
  -25.0614  -28.3569   20.8750 N   0  0  0  0  0  0  0  0  0  0  0  0
  -24.6289  -14.5753   21.9304 N   0  0  0  0  0  0  0  0  0  0  0  0
  -22.0035  -27.0994   22.7929 N   0  0  0  0  0  0  0  0  0  0  0  0
  -24.9761  -30.6061   20.1371 N   0  0  0  0  0  0  0  0  0  0  0  0
  -28.5167  -28.9106   17.9042 N   0  0  0  0  0  0  0  0  0  0  0  0
  -28.2059  -14.7862   21.2544 N   0  0  0  0  0  0  0  0  0  0  0  0
  -21.7373  -12.8281   22.1401 N   0  0  0  0  0  0  0  0  0  0  0  0
  -20.4515  -26.0880   21.2745 N   0  0  0  0  0  0  0  0  0  0  0  0
  -19.5664  -13.7231   24.8885 N   0  3  0  0  0  0  0  0  0  0  0  0
  -27.2665  -30.8012   18.2522 O   0  0  0  0  0  0  0  0  0  0  0  0
  -26.2555  -14.9317   19.9906 O   0  0  0  0  0  0  0  0  0  0  0  0
  -24.5393  -12.2465   22.0004 O   0  0  0  0  0  0  0  0  0  0  0  0
  -20.5698  -14.8006   22.4909 O   0  0  0  0  0  0  0  0  0  0  0  0
  -19.8121  -27.8013   22.6757 O   0  0  0  0  0  0  0  0  0  0  0  0
  -30.4275  -23.6883   18.2384 O   0  0  0  0  0  0  0  0  0  0  0  0
  -23.9519  -20.7083   22.2100 O   0  0  0  0  0  0  0  0  0  1  0  0
  -28.5395  -18.6712   16.9468 F   0  0  0  0  0  0  0  0  0  0  0  0
  -29.0760  -22.1582   20.1025 F   0  0  0  0  0  0  0  0  0  0  0  0
  -18.8216  -23.8269   21.4696 F   0  0  0  0  0  0  0  0  0  0  0  0
  1  2  1  0  0  0  0
  1  5  2  0  0  0  0
  2  6  2  0  0  0  0
  3  8  2  0  0  0  0
  3 15  1  0  0  0  0
  4  9  1  0  0  0  0
  4 15  2  0  0  0  0
  5 17  1  0  0  0  0
  6 19  1  0  0  0  0
  7 10  2  0  0  0  0
  7 18  1  0  0  0  0
  8 21  1  0  0  0  0
  9 21  2  0  0  0  0
 10 22  1  0  0  0  0
 11 12  2  0  0  0  0
 11 23  1  0  0  0  0
 12 24  1  0  0  0  0
 13 20  1  0  0  0  0
 13 22  2  0  0  0  0
 14 24  2  0  0  0  0
 14 25  1  0  0  0  0
 15 26  1  0  0  0  0
 16 26  1  0  0  0  0
 16 27  2  0  0  0  0
 16 28  1  0  0  0  0
 17 19  2  0  0  0  0
 17 33  1  0  0  0  0
 18 20  2  0  0  0  0
 18 34  1  0  0  0  0
 19 42  1  0  0  0  0
 20 35  1  0  0  0  0
 21 80  1  0  0  0  0
 22 81  1  0  0  0  0
 23 25  2  0  0  0  0
 23 80  1  0  0  0  0
 24 82  1  0  0  0  0
 25 83  1  0  0  0  0
 26 65  2  0  0  0  0
 27 66  1  0  0  0  0
 27 69  1  0  0  0  0
 28 70  1  0  0  0  0
 28 75  2  0  0  0  0
 29 43  1  0  0  0  0
 29 71  1  0  0  0  0
 29 76  2  0  0  0  0
 30 58  1  0  0  0  0
 30 67  1  0  0  0  0
 30 77  2  0  0  0  0
 31 59  1  0  0  0  0
 31 72  1  0  0  0  0
 31 78  2  0  0  0  0
 32 68  1  0  0  0  0
 32 73  1  0  0  0  0
 32 79  2  0  0  0  0
 33 36  1  0  0  0  0
 34 43  1  0  0  0  0
 35 67  1  0  0  0  0
 36 38  1  0  0  0  0
 37 39  1  0  0  0  0
 37 40  1  0  0  0  0
 38 42  1  0  0  0  0
 39 44  1  0  0  0  0
 40 68  1  0  0  0  0
 41 44  1  0  0  0  0
 41 68  1  0  0  0  0
 42 71  1  0  0  0  0
 43 67  1  0  0  0  0
 44 66  1  0  0  0  0
 45 59  1  0  0  0  0
 46 60  1  0  0  0  0
 47 60  1  0  0  0  0
 48 61  1  0  0  0  0
 49 62  1  0  0  0  0
 50 62  1  0  0  0  0
 51 62  1  0  0  0  0
 52 63  1  0  0  0  0
 53 63  1  0  0  0  0
 54 64  1  0  0  0  0
 55 74  1  0  0  0  0
 56 57  1  0  0  0  0
 56 63  1  0  0  0  0
 57 81  1  0  0  0  0
 58 62  1  0  0  0  0
 58 72  1  0  0  0  0
 59 74  1  0  0  0  0
 60 73  1  0  0  0  0
 61 64  1  0  0  0  0
 61 73  1  0  0  0  0
 63 64  1  0  0  0  0
 64 84  1  0  0  0  0
 65 66  1  0  0  0  0
M  CHG  1  74   1
M  ISO  4  32 100  57 101  73 100  81 101
M  END
> <Batch ID>
0051

> <Smiles>
CNC(C)C(=O)NC(C(=O)N1Cc2cc([101O:1][101CH2:1]CC(C)(C)C(C)(F)C(C)[100N:0](C(C)C)[100C:0](=O)N3CCCC(n4nc(-c5ccc(Oc6ccc(F)cc6F)cc5)c(C(N)=O)c4N)C3)ccc2CC1C(=O)NC1CCCc2ccccc21)C(C)(C)C

> <Shape>
0.226

> <Color>
0.045

> <Negative vol penalty>
0.000

$$$$

  -OEChem-04052317333D

 86 94  0     1  0  0  0  0  0999 V2000
  -30.7405  -24.2757   15.2771 C   0  0  0  0  0  0  0  0  0  0  0  0
  -29.3773  -24.4084   15.5210 C   0  0  0  0  0  0  0  0  0  0  0  0
  -25.8444  -14.0537   18.7899 C   0  0  0  0  0  0  0  0  0  0  0  0
  -24.2790  -14.3161   20.6113 C   0  0  0  0  0  0  0  0  0  0  0  0
  -31.6493  -24.3814   16.3291 C   0  0  0  0  0  0  0  0  0  0  0  0
  -28.9220  -24.6458   16.8175 C   0  0  0  0  0  0  0  0  0  0  0  0
  -24.1059  -28.0525   18.4621 C   0  0  0  0  0  0  0  0  0  0  0  0
  -26.0662  -12.7304   19.1711 C   0  0  0  0  0  0  0  0  0  0  0  0
  -24.5007  -12.9928   20.9925 C   0  0  0  0  0  0  0  0  0  0  0  0
  -22.7947  -27.7214   18.8012 C   0  0  0  0  0  0  0  0  0  0  0  0
  -23.5150   -9.9173   19.9973 C   0  0  0  0  0  0  0  0  0  0  0  0
  -22.4005   -9.1391   20.3098 C   0  0  0  0  0  0  0  0  0  0  0  0
  -23.3940  -27.7664   21.1375 C   0  0  0  0  0  0  0  0  0  0  0  0
  -23.2648   -8.7967   22.5398 C   0  0  0  0  0  0  0  0  0  0  0  0
  -21.1952  -24.0758   21.3104 C   0  0  0  0  0  0  0  0  0  0  0  0
  -24.9509  -14.8466   19.5101 C   0  0  0  0  0  0  0  0  0  0  0  0
  -23.7510  -16.6877   18.2146 C   0  0  0  0  0  0  0  0  0  0  0  0
  -31.2056  -24.6299   17.6376 C   0  0  0  0  0  0  0  0  0  0  0  0
  -25.0752  -28.2327   19.4593 C   0  0  0  0  0  0  0  0  0  0  0  0
  -29.8257  -24.7536   17.8883 C   0  0  0  0  0  0  0  0  0  0  0  0
  -24.7162  -28.1023   20.8085 C   0  0  0  0  0  0  0  0  0  0  0  0
  -25.3943  -12.1999   20.2724 C   0  0  0  0  0  0  0  0  0  0  0  0
  -22.4393  -27.5755   20.1389 C   0  0  0  0  0  0  0  0  0  0  0  0
  -24.5046  -10.1351   20.9560 C   0  0  0  0  0  0  0  0  0  0  0  0
  -22.2753   -8.5788   21.5811 C   0  0  0  0  0  0  0  0  0  0  0  0
  -24.3794   -9.5748   22.2273 C   0  0  0  0  0  0  0  0  0  0  0  0
  -24.7219  -16.2138   19.1171 C   0  0  0  0  0  0  0  0  0  0  0  0
  -19.9691  -24.6781   21.2825 C   0  0  0  0  0  0  0  0  0  0  0  0
  -23.9437  -18.0472   18.1855 C   0  0  0  0  0  0  0  0  0  0  0  0
  -20.0844  -23.4478   23.1193 C   0  0  0  0  0  0  0  0  0  0  0  0
  -22.7631  -15.9636   17.4693 C   0  0  0  0  0  0  0  0  0  0  0  0
  -27.8114  -26.8011   20.2127 C   0  0  0  0  0  0  0  0  0  0  0  0
  -28.0249  -29.2095   22.3753 C   0  0  0  0  0  0  0  0  0  0  0  0
  -26.4226  -31.5521   24.2704 C   0  0  0  0  0  0  0  0  0  0  0  0
  -26.2952  -21.9168   22.1032 C   0  0  0  0  0  0  0  0  0  0  0  0
  -32.2224  -24.6891   18.7499 C   0  0  0  0  0  0  0  0  0  0  0  0
  -26.4788  -28.6158   19.0782 C   0  0  0  0  0  0  0  0  0  0  0  0
  -25.7144  -28.3050   21.9179 C   0  0  0  0  0  0  0  0  0  0  0  0
  -31.6843  -25.3145   20.0343 C   0  0  0  0  0  0  0  0  0  0  0  0
  -27.3505  -21.3590   18.7488 C   0  0  0  0  0  0  0  0  0  0  0  0
  -30.3169  -24.7331   20.3790 C   0  0  0  0  0  0  0  0  0  0  0  0
  -26.7089  -20.0198   18.3814 C   0  0  0  0  0  0  0  0  0  0  0  0
  -27.8001  -21.3879   20.2079 C   0  0  0  0  0  0  0  0  0  0  0  0
  -26.1108  -19.7005   20.8184 C   0  0  0  0  0  0  0  0  0  0  0  0
  -29.2947  -25.0363   19.2769 C   0  0  1  0  0  0  0  0  0  0  0  0
  -27.5051  -28.2709   20.1530 C   0  0  1  0  0  0  0  0  0  0  0  0
  -25.5906  -19.6434   19.3719 C   0  0  2  0  0  0  0  0  0  0  0  0
  -19.7166  -22.8014   24.4037 C   0  0  0  0  0  0  0  0  0  0  0  0
  -26.8601  -33.3480   25.9677 C   0  0  0  0  0  0  0  0  0  0  0  0
  -18.3167  -26.6256   20.8875 C   0  0  0  0  0  0  0  0  0  0  0  0
  -18.5574  -24.8105   19.2067 C   0  0  0  0  0  0  0  0  0  0  0  0
  -28.4332  -27.0788   24.5208 C   0  0  0  0  0  0  0  0  0  0  0  0
  -27.9143  -28.8167   26.2467 C   0  0  0  0  0  0  0  0  0  0  0  0
  -29.8972  -29.0924   24.7584 C   0  0  0  0  0  0  0  0  0  0  0  0
  -23.1156  -24.0612   24.7750 C   0  0  0  0  0  0  0  0  0  0  0  0
  -24.1099  -24.2766   22.5038 C   0  0  0  0  0  0  0  0  0  0  0  0
  -25.3155  -33.6528   22.5040 C   0  0  0  0  0  0  0  0  0  0  0  0
  -22.3664  -22.5142   22.8818 C   0  0  0  0  0  0  0  0  0  0  0  0
  -24.7071  -22.3081   23.9697 C   0  0  0  0  0  0  0  0  0  0  0  0
  -20.4254  -26.4620   19.5385 C   0  0  0  0  0  0  0  0  0  1  0  0
  -27.5774  -29.4067   23.8035 C   0  0  1  0  0  0  0  0  0  0  0  0
  -26.6961  -33.0291   24.4898 C   0  0  2  0  0  0  0  0  0  0  0  0
  -19.3293  -25.6369   20.2610 C   0  0  0  0  0  0  0  0  0  0  0  0
  -28.4369  -28.5928   24.8116 C   0  0  0  0  0  0  0  0  0  0  0  0
  -23.5679  -23.2613   23.5362 C   0  0  0  0  0  0  0  0  0  0  0  0
  -25.4756  -17.1928   19.6246 N   0  0  0  0  0  0  0  0  0  0  0  0
  -21.2394  -23.3211   22.4578 N   0  0  0  0  0  0  0  0  0  0  0  0
  -24.9783  -18.2954   19.0389 N   0  0  0  0  0  0  0  0  0  0  0  0
  -19.3029  -24.2716   22.4135 N   0  3  0  0  0  0  0  0  0  0  0  0
  -27.0757  -28.6724   21.4941 N   0  0  0  0  0  0  0  0  0  0  0  0
  -26.6930  -21.0231   21.0951 N   0  0  0  0  0  0  0  0  0  0  0  0
  -23.3275  -19.0427   17.5134 N   0  0  0  0  0  0  0  0  0  0  0  0
  -22.7025  -14.5712   17.6169 N   0  0  0  0  0  0  0  0  0  0  0  0
  -28.8367  -26.4056   19.3751 N   0  0  0  0  0  0  0  0  0  0  0  0
  -27.5843  -30.8465   24.0383 N   0  0  0  0  0  0  0  0  0  0  0  0
  -25.2341  -21.4962   22.8955 N   0  0  0  0  0  0  0  0  0  0  0  0
  -25.5730  -33.8491   23.9538 N   0  3  0  0  0  0  0  0  0  0  0  0
  -21.9686  -16.5327   16.6828 O   0  0  0  0  0  0  0  0  0  0  0  0
  -27.1662  -26.0796   20.9642 O   0  0  0  0  0  0  0  0  0  0  0  0
  -29.1721  -29.5271   22.0517 O   0  0  0  0  0  0  0  0  0  0  0  0
  -25.2919  -31.0717   24.3053 O   0  0  0  0  0  0  0  0  0  0  0  0
  -26.8416  -23.0108   22.2804 O   0  0  0  0  0  0  0  0  0  0  0  0
  -25.6102  -10.9086   20.6445 O   0  0  0  0  0  0  0  0  0  0  0  0
  -21.1604  -27.2517   20.4727 O   0  0  0  0  0  0  0  0  0  1  0  0
  -21.2041   -7.8328   21.8815 F   0  0  0  0  0  0  0  0  0  0  0  0
  -25.3262   -9.7816   23.1528 F   0  0  0  0  0  0  0  0  0  0  0  0
  1  2  1  0  0  0  0
  1  5  2  0  0  0  0
  2  6  2  0  0  0  0
  3  8  2  0  0  0  0
  3 16  1  0  0  0  0
  4  9  1  0  0  0  0
  4 16  2  0  0  0  0
  5 18  1  0  0  0  0
  6 20  1  0  0  0  0
  7 10  2  0  0  0  0
  7 19  1  0  0  0  0
  8 22  1  0  0  0  0
  9 22  2  0  0  0  0
 10 23  1  0  0  0  0
 11 12  2  0  0  0  0
 11 24  1  0  0  0  0
 12 25  1  0  0  0  0
 13 21  1  0  0  0  0
 13 23  2  0  0  0  0
 14 25  2  0  0  0  0
 14 26  1  0  0  0  0
 15 28  2  0  0  0  0
 15 67  1  0  0  0  0
 16 27  1  0  0  0  0
 17 27  1  0  0  0  0
 17 29  2  0  0  0  0
 17 31  1  0  0  0  0
 18 20  2  0  0  0  0
 18 36  1  0  0  0  0
 19 21  2  0  0  0  0
 19 37  1  0  0  0  0
 20 45  1  0  0  0  0
 21 38  1  0  0  0  0
 22 83  1  0  0  0  0
 23 84  1  0  0  0  0
 24 26  2  0  0  0  0
 24 83  1  0  0  0  0
 25 85  1  0  0  0  0
 26 86  1  0  0  0  0
 27 66  2  0  0  0  0
 28 63  1  0  0  0  0
 28 69  1  0  0  0  0
 29 68  1  0  0  0  0
 29 72  1  0  0  0  0
 30 48  1  0  0  0  0
 30 67  1  0  0  0  0
 30 69  2  0  0  0  0
 31 73  1  0  0  0  0
 31 78  2  0  0  0  0
 32 46  1  0  0  0  0
 32 74  1  0  0  0  0
 32 79  2  0  0  0  0
 33 61  1  0  0  0  0
 33 70  1  0  0  0  0
 33 80  2  0  0  0  0
 34 62  1  0  0  0  0
 34 75  1  0  0  0  0
 34 81  2  0  0  0  0
 35 71  1  0  0  0  0
 35 76  1  0  0  0  0
 35 82  2  0  0  0  0
 36 39  1  0  0  0  0
 37 46  1  0  0  0  0
 38 70  1  0  0  0  0
 39 41  1  0  0  0  0
 40 42  1  0  0  0  0
 40 43  1  0  0  0  0
 41 45  1  0  0  0  0
 42 47  1  0  0  0  0
 43 71  1  0  0  0  0
 44 47  1  0  0  0  0
 44 71  1  0  0  0  0
 45 74  1  0  0  0  0
 46 70  1  0  0  0  0
 47 68  1  0  0  0  0
 49 62  1  0  0  0  0
 50 63  1  0  0  0  0
 51 63  1  0  0  0  0
 52 64  1  0  0  0  0
 53 64  1  0  0  0  0
 54 64  1  0  0  0  0
 55 65  1  0  0  0  0
 56 65  1  0  0  0  0
 57 77  1  0  0  0  0
 58 65  1  0  0  0  0
 58 67  1  0  0  0  0
 59 65  1  0  0  0  0
 59 76  1  0  0  0  0
 60 63  1  0  0  0  0
 60 84  1  0  0  0  0
 61 64  1  0  0  0  0
 61 75  1  0  0  0  0
 62 77  1  0  0  0  0
 66 68  1  0  0  0  0
M  CHG  2  69   1  77   1
M  ISO  4  35 100  60 101  76 100  84 101
M  END
> <Batch ID>
0051

> <Smiles>
CNC(C)C(=O)NC(C(=O)N1Cc2cc([101O:1][101CH2:1]C(C)(C)c3cn(CC(C)(C)C[100NH:0][100C:0](=O)N4CCCC(n5nc(-c6ccc(Oc7ccc(F)cc7F)cc6)c(C(N)=O)c5N)C4)c(C)n3)ccc2CC1C(=O)NC1CCCc2ccccc21)C(C)(C)C

> <Shape>
0.226

> <Color>
0.066

> <Negative vol penalty>
0.000

$$$$

  -OEChem-04052317333D

 80 87  0     1  0  0  0  0  0999 V2000
  -32.4612  -29.4497   28.9404 C   0  0  0  0  0  0  0  0  0  0  0  0
  -32.8575  -28.1442   28.6682 C   0  0  0  0  0  0  0  0  0  0  0  0
  -23.0967   -9.8567   19.9422 C   0  0  0  0  0  0  0  0  0  0  0  0
  -23.7079   -9.9552   22.2775 C   0  0  0  0  0  0  0  0  0  0  0  0
  -31.3601  -29.9945   28.2810 C   0  0  0  0  0  0  0  0  0  0  0  0
  -32.1524  -27.3824   27.7372 C   0  0  0  0  0  0  0  0  0  0  0  0
  -34.4544  -23.1979   23.9036 C   0  0  0  0  0  0  0  0  0  0  0  0
  -22.3446   -8.7079   20.1875 C   0  0  0  0  0  0  0  0  0  0  0  0
  -22.9558   -8.8064   22.5228 C   0  0  0  0  0  0  0  0  0  0  0  0
  -34.5202  -21.8066   23.9633 C   0  0  0  0  0  0  0  0  0  0  0  0
  -23.2999   -5.4683   22.1111 C   0  0  0  0  0  0  0  0  0  0  0  0
  -23.8736   -4.4754   22.9051 C   0  0  0  0  0  0  0  0  0  0  0  0
  -32.5155  -21.6606   22.6294 C   0  0  0  0  0  0  0  0  0  0  0  0
  -22.0654   -4.6993   24.4917 C   0  0  0  0  0  0  0  0  0  0  0  0
  -23.7784  -10.4803   20.9872 C   0  0  0  0  0  0  0  0  0  0  0  0
  -24.1136  -13.0019   20.7939 C   0  0  0  0  0  0  0  0  0  0  0  0
  -30.6470  -29.2422   27.3343 C   0  0  0  0  0  0  0  0  0  0  0  0
  -33.4109  -23.8323   23.2143 C   0  0  0  0  0  0  0  0  0  0  0  0
  -31.0399  -27.9172   27.0655 C   0  0  0  0  0  0  0  0  0  0  0  0
  -32.4402  -23.0601   22.5603 C   0  0  0  0  0  0  0  0  0  0  0  0
  -22.2741   -8.1828   21.4778 C   0  0  0  0  0  0  0  0  0  0  0  0
  -33.5490  -21.0377   23.3286 C   0  0  0  0  0  0  0  0  0  0  0  0
  -22.1089   -6.0768   22.5074 C   0  0  0  0  0  0  0  0  0  0  0  0
  -23.2564   -4.0909   24.0954 C   0  0  0  0  0  0  0  0  0  0  0  0
  -21.4916   -5.6923   23.6976 C   0  0  0  0  0  0  0  0  0  0  0  0
  -24.5560  -11.6668   20.7343 C   0  0  0  0  0  0  0  0  0  0  0  0
  -25.2227  -13.7458   20.4731 C   0  0  0  0  0  0  0  0  0  0  0  0
  -22.8160  -13.5230   21.1110 C   0  0  0  0  0  0  0  0  0  0  0  0
  -31.0603  -25.8104   24.0301 C   0  0  0  0  0  0  0  0  0  0  0  0
  -30.5816  -14.7881   21.1615 C   0  0  0  0  0  0  0  0  0  0  0  0
  -30.5462  -25.8959   20.8284 C   0  0  0  0  0  0  0  0  0  0  0  0
  -30.8925  -24.3678   17.7966 C   0  0  0  0  0  0  0  0  0  0  0  0
  -29.4347  -29.8581   26.6817 C   0  0  0  0  0  0  0  0  0  0  0  0
  -33.3691  -25.3338   23.1367 C   0  0  0  0  0  0  0  0  0  0  0  0
  -31.3108  -23.6923   21.7901 C   0  0  0  0  0  0  0  0  0  0  0  0
  -28.9690  -29.1113   25.4344 C   0  0  0  0  0  0  0  0  0  0  0  0
  -29.7038  -12.3561   18.6038 C   0  0  0  0  0  0  0  0  0  0  0  0
  -28.9235  -27.6094   25.6973 C   0  0  0  0  0  0  0  0  0  0  0  0
  -28.2498  -12.0492   18.9601 C   0  0  0  0  0  0  0  0  0  0  0  0
  -30.5458  -12.6099   19.8515 C   0  0  0  0  0  0  0  0  0  0  0  0
  -28.5487  -13.3795   21.0940 C   0  0  0  0  0  0  0  0  0  0  0  0
  -30.3156  -27.0676   26.0439 C   0  0  1  0  0  0  0  0  0  0  0  0
  -31.9752  -25.8782   22.8401 C   0  0  1  0  0  0  0  0  0  0  0  0
  -27.6589  -13.1473   19.8614 C   0  0  2  0  0  0  0  0  0  0  0  0
  -30.3384  -24.6632   15.3670 C   0  0  0  0  0  0  0  0  0  0  0  0
  -34.1736  -20.3094   19.7726 C   0  0  0  0  0  0  0  0  0  0  0  0
  -36.2015  -19.6283   18.4564 C   0  0  0  0  0  0  0  0  0  0  0  0
  -27.6464  -25.1381   21.4001 C   0  0  0  0  0  0  0  0  0  0  0  0
  -27.4029  -24.5269   18.9844 C   0  0  0  0  0  0  0  0  0  0  0  0
  -27.9401  -26.8768   19.6266 C   0  0  0  0  0  0  0  0  0  0  0  0
  -33.7495  -24.3568   17.0243 C   0  0  0  0  0  0  0  0  0  0  0  0
  -32.0214  -14.9656   20.7502 C   0  0  0  0  0  0  0  0  0  0  0  0
  -32.5992  -16.2540   21.3265 C   0  0  0  0  0  0  0  0  0  0  0  0
  -34.0359  -16.4916   20.8787 C   0  0  0  0  0  0  0  0  0  0  0  0
  -34.8849  -17.7036   22.8814 C   0  0  0  0  0  0  0  0  0  0  0  0
  -35.6246  -18.3897   20.6048 C   0  0  0  0  0  0  0  0  0  0  0  0
  -34.9066  -19.0918   23.4903 C   0  0  0  0  0  0  0  0  0  1  0  0
  -29.7159  -25.0920   19.8571 C   0  0  1  0  0  0  0  0  0  0  0  0
  -31.3763  -24.8888   16.4554 C   0  0  2  0  0  0  0  0  0  0  0  0
  -35.0859  -19.1447   19.3844 C   0  0  0  0  0  0  0  0  0  0  0  0
  -28.1964  -25.3963   19.9831 C   0  0  0  0  0  0  0  0  0  0  0  0
  -25.8456  -11.5653   20.4016 N   0  0  0  0  0  0  0  0  0  0  0  0
  -26.2230  -12.8461   20.2492 N   0  0  0  0  0  0  0  0  0  0  0  0
  -31.3099  -25.1639   21.7487 N   0  0  0  0  0  0  0  0  0  0  0  0
  -29.9348  -13.6426   20.6970 N   0  0  0  0  0  0  0  0  0  0  0  0
  -25.4301  -15.0752   20.3634 N   0  0  0  0  0  0  0  0  0  0  0  0
  -21.7895  -12.6191   21.4171 N   0  0  0  0  0  0  0  0  0  0  0  0
  -31.1148  -26.9243   24.8460 N   0  0  0  0  0  0  0  0  0  0  0  0
  -30.2698  -25.3533   18.5329 N   0  0  0  0  0  0  0  0  0  0  0  0
  -32.6349  -24.1985   16.0550 N   0  3  0  0  0  0  0  0  0  0  0  0
  -34.5179  -17.8037   21.4463 N   0  3  1  0  0  0  0  0  0  0  0  0
  -22.5699  -14.7530   21.1066 O   0  0  0  0  0  0  0  0  0  0  0  0
  -30.3558  -24.8213   24.1949 O   0  0  0  0  0  0  0  0  0  0  0  0
  -30.0486  -15.6444   21.8720 O   0  0  0  0  0  0  0  0  0  0  0  0
  -30.5237  -27.1278   20.7680 O   0  0  0  0  0  0  0  0  0  0  0  0
  -31.0479  -23.2021   18.1537 O   0  0  0  0  0  0  0  0  0  0  0  0
  -21.5401   -7.0619   21.7176 O   0  0  0  0  0  0  0  0  0  0  0  0
  -33.6105  -19.6795   23.3859 O   0  0  0  0  0  0  0  0  0  1  0  0
  -23.8066   -3.1363   24.8570 F   0  0  0  0  0  0  0  0  0  0  0  0
  -20.3467   -6.2724   24.0830 F   0  0  0  0  0  0  0  0  0  0  0  0
  1  2  1  0  0  0  0
  1  5  2  0  0  0  0
  2  6  2  0  0  0  0
  3  8  2  0  0  0  0
  3 15  1  0  0  0  0
  4  9  1  0  0  0  0
  4 15  2  0  0  0  0
  5 17  1  0  0  0  0
  6 19  1  0  0  0  0
  7 10  2  0  0  0  0
  7 18  1  0  0  0  0
  8 21  1  0  0  0  0
  9 21  2  0  0  0  0
 10 22  1  0  0  0  0
 11 12  2  0  0  0  0
 11 23  1  0  0  0  0
 12 24  1  0  0  0  0
 13 20  1  0  0  0  0
 13 22  2  0  0  0  0
 14 24  2  0  0  0  0
 14 25  1  0  0  0  0
 15 26  1  0  0  0  0
 16 26  1  0  0  0  0
 16 27  2  0  0  0  0
 16 28  1  0  0  0  0
 17 19  2  0  0  0  0
 17 33  1  0  0  0  0
 18 20  2  0  0  0  0
 18 34  1  0  0  0  0
 19 42  1  0  0  0  0
 20 35  1  0  0  0  0
 21 77  1  0  0  0  0
 22 78  1  0  0  0  0
 23 25  2  0  0  0  0
 23 77  1  0  0  0  0
 24 79  1  0  0  0  0
 25 80  1  0  0  0  0
 26 62  2  0  0  0  0
 27 63  1  0  0  0  0
 27 66  1  0  0  0  0
 28 67  1  0  0  0  0
 28 72  2  0  0  0  0
 29 43  1  0  0  0  0
 29 68  1  0  0  0  0
 29 73  2  0  0  0  0
 30 52  1  0  0  0  0
 30 65  1  0  0  0  0
 30 74  2  0  0  0  0
 31 58  1  0  0  0  0
 31 64  1  0  0  0  0
 31 75  2  0  0  0  0
 32 59  1  0  0  0  0
 32 69  1  0  0  0  0
 32 76  2  0  0  0  0
 33 36  1  0  0  0  0
 34 43  1  0  0  0  0
 35 64  1  0  0  0  0
 36 38  1  0  0  0  0
 37 39  1  0  0  0  0
 37 40  1  0  0  0  0
 38 42  1  0  0  0  0
 39 44  1  0  0  0  0
 40 65  1  0  0  0  0
 41 44  1  0  0  0  0
 41 65  1  0  0  0  0
 42 68  1  0  0  0  0
 43 64  1  0  0  0  0
 44 63  1  0  0  0  0
 45 59  1  0  0  0  0
 46 60  1  0  0  0  0
 47 60  1  0  0  0  0
 48 61  1  0  0  0  0
 49 61  1  0  0  0  0
 50 61  1  0  0  0  0
 51 70  1  0  0  0  0
 52 53  1  0  0  0  0
 53 54  1  0  0  0  0
 54 71  1  0  0  0  0
 55 57  1  0  0  0  0
 55 71  1  0  0  0  0
 56 60  1  0  0  0  0
 56 71  1  0  0  0  0
 57 78  1  0  0  0  0
 58 61  1  0  0  0  0
 58 69  1  0  0  0  0
 59 70  1  0  0  0  0
 62 63  1  0  0  0  0
M  CHG  2  70   1  71   1
M  ISO  4  30 100  52 100  57 101  78 101
M  END
> <Batch ID>
0051

> <Smiles>
CNC(C)C(=O)NC(C(=O)N1Cc2cc([101O:1][101CH2:1]CN(CC[100CH2:0][100C:0](=O)N3CCCC(n4nc(-c5ccc(Oc6ccc(F)cc6F)cc5)c(C(N)=O)c4N)C3)CC(C)C)ccc2CC1C(=O)NC1CCCc2ccccc21)C(C)(C)C

> <Shape>
0.218

> <Color>
0.180

> <Negative vol penalty>
0.000

$$$$

  -OEChem-04052317333D

 92100  0     1  0  0  0  0  0999 V2000
  -27.0062  -27.9899   19.2012 C   0  0  0  0  0  0  0  0  0  0  0  0
  -26.3339  -27.0017   19.9132 C   0  0  0  0  0  0  0  0  0  0  0  0
  -24.0806  -13.4243   19.5906 C   0  0  0  0  0  0  0  0  0  0  0  0
  -25.5601  -14.0756   21.3862 C   0  0  0  0  0  0  0  0  0  0  0  0
  -26.6741  -29.3309   19.3892 C   0  0  0  0  0  0  0  0  0  0  0  0
  -25.3299  -27.3540   20.8144 C   0  0  0  0  0  0  0  0  0  0  0  0
  -21.2220  -24.4232   20.3899 C   0  0  0  0  0  0  0  0  0  0  0  0
  -24.2985  -12.0813   19.8982 C   0  0  0  0  0  0  0  0  0  0  0  0
  -25.7780  -12.7326   21.6938 C   0  0  0  0  0  0  0  0  0  0  0  0
  -21.2829  -23.1545   20.9648 C   0  0  0  0  0  0  0  0  0  0  0  0
  -23.2243   -9.8463   22.1968 C   0  0  0  0  0  0  0  0  0  0  0  0
  -22.1137   -9.0038   22.2444 C   0  0  0  0  0  0  0  0  0  0  0  0
  -20.0516  -23.9671   22.8735 C   0  0  0  0  0  0  0  0  0  0  0  0
  -23.0694   -7.6448   20.4903 C   0  0  0  0  0  0  0  0  0  0  0  0
  -24.7115  -14.4214   20.3346 C   0  0  0  0  0  0  0  0  0  0  0  0
  -23.2582  -16.4952   20.0261 C   0  0  0  0  0  0  0  0  0  0  0  0
  -25.6589  -29.6992   20.2860 C   0  0  0  0  0  0  0  0  0  0  0  0
  -20.5840  -25.4778   21.0585 C   0  0  0  0  0  0  0  0  0  0  0  0
  -24.9849  -28.7013   21.0155 C   0  0  0  0  0  0  0  0  0  0  0  0
  -19.9819  -25.2475   22.3038 C   0  0  0  0  0  0  0  0  0  0  0  0
  -25.4817  -20.2305   23.3725 C   0  0  0  0  0  0  0  0  0  0  0  0
  -25.1471  -11.7355   20.9498 C   0  0  0  0  0  0  0  0  0  0  0  0
  -20.7001  -22.9270   22.2081 C   0  0  0  0  0  0  0  0  0  0  0  0
  -24.2574   -9.5882   21.2959 C   0  0  0  0  0  0  0  0  0  0  0  0
  -22.0362   -7.9030   21.3912 C   0  0  0  0  0  0  0  0  0  0  0  0
  -24.1800   -8.4874   20.4427 C   0  0  0  0  0  0  0  0  0  0  0  0
  -24.4873  -15.8089   20.0170 C   0  0  0  0  0  0  0  0  0  0  0  0
  -24.5740  -19.2439   23.0454 C   0  0  0  0  0  0  0  0  0  0  0  0
  -24.9894  -21.2619   24.1459 C   0  0  0  0  0  0  0  0  0  0  0  0
  -23.5785  -17.7780   19.6542 C   0  0  0  0  0  0  0  0  0  0  0  0
  -22.9247  -20.3121   24.1880 C   0  0  0  0  0  0  0  0  0  0  0  0
  -21.9445  -16.0160   20.3427 C   0  0  0  0  0  0  0  0  0  0  0  0
  -21.5102  -28.2943   22.2044 C   0  0  0  0  0  0  0  0  0  0  0  0
  -18.3380  -28.6694   22.7694 C   0  0  0  0  0  0  0  0  0  0  0  0
  -15.2976  -27.2130   23.3000 C   0  0  0  0  0  0  0  0  0  0  0  0
  -29.0003  -20.6076   20.0222 C   0  0  0  0  0  0  0  0  0  0  0  0
  -25.3676  -31.1648   20.4905 C   0  0  0  0  0  0  0  0  0  0  0  0
  -20.5037  -26.8338   20.4127 C   0  0  0  0  0  0  0  0  0  0  0  0
  -19.2673  -26.3411   23.0534 C   0  0  0  0  0  0  0  0  0  0  0  0
  -24.0352  -31.4296   21.1868 C   0  0  0  0  0  0  0  0  0  0  0  0
  -26.7585  -20.2644   17.0968 C   0  0  0  0  0  0  0  0  0  0  0  0
  -23.8762  -30.5182   22.3996 C   0  0  0  0  0  0  0  0  0  0  0  0
  -25.8669  -19.0899   17.4964 C   0  0  0  0  0  0  0  0  0  0  0  0
  -28.1343  -20.1803   17.7509 C   0  0  0  0  0  0  0  0  0  0  0  0
  -27.1982  -18.8774   19.6325 C   0  0  0  0  0  0  0  0  0  0  0  0
  -23.8730  -29.0422   21.9838 C   0  0  1  0  0  0  0  0  0  0  0  0
  -20.2757  -27.9607   21.4156 C   0  0  1  0  0  0  0  0  0  0  0  0
  -25.7887  -18.9565   19.0272 C   0  0  2  0  0  0  0  0  0  0  0  0
  -24.9930  -18.0773   22.2123 C   0  0  0  0  0  0  0  0  0  0  0  0
  -12.8979  -27.7776   23.7689 C   0  0  0  0  0  0  0  0  0  0  0  0
  -19.0568  -29.3085   25.6651 C   0  0  0  0  0  0  0  0  0  0  0  0
  -16.6583  -28.9246   26.2720 C   0  0  0  0  0  0  0  0  0  0  0  0
  -17.2652  -30.7562   24.6910 C   0  0  0  0  0  0  0  0  0  0  0  0
  -29.5600  -21.6458   22.1875 C   0  0  0  0  0  0  0  0  0  0  0  0
  -25.3506  -25.5763   26.4581 C   0  0  0  0  0  0  0  0  0  0  0  0
  -14.3831  -25.9139   20.8030 C   0  0  0  0  0  0  0  0  0  0  0  0
  -26.8987  -20.1840   22.9221 C   0  0  0  0  0  0  0  0  0  0  0  0
  -25.8786  -22.3874   24.5615 C   0  0  0  0  0  0  0  0  0  0  0  0
  -21.4880  -20.3565   24.6487 C   0  0  0  0  0  0  0  0  0  0  0  0
  -27.1982  -21.1013   21.7284 C   0  0  0  0  0  0  0  0  0  0  0  0
  -25.1164  -23.5939   25.1211 C   0  0  0  0  0  0  0  0  0  0  0  0
  -26.4318  -25.4369   24.3168 C   0  0  0  0  0  0  0  0  0  0  0  0
  -20.7733  -21.6256   24.1974 C   0  0  0  0  0  0  0  0  0  1  0  0
  -17.4121  -28.3532   23.9190 C   0  0  1  0  0  0  0  0  0  0  0  0
  -13.9322  -27.4824   22.6938 C   0  0  2  0  0  0  0  0  0  0  0  0
  -17.6132  -29.3153   25.1238 C   0  0  0  0  0  0  0  0  0  0  0  0
  -27.7102  -26.1896   24.5868 C   0  0  0  0  0  0  0  0  0  0  0  0
  -25.5120  -16.5908   19.6668 N   0  0  0  0  0  0  0  0  0  0  0  0
  -23.2831  -19.2529   23.4376 N   0  0  0  0  0  0  0  0  0  0  0  0
  -23.7116  -21.3350   24.5728 N   0  0  0  0  0  0  0  0  0  0  0  0
  -24.9274  -17.7818   19.4524 N   0  0  0  0  0  0  0  0  0  0  0  0
  -19.2212  -27.6512   22.3833 N   0  0  0  0  0  0  0  0  0  0  0  0
  -28.0302  -20.0105   19.2006 N   0  0  0  0  0  0  0  0  0  0  0  0
  -22.8351  -18.8918   19.4833 N   0  0  0  0  0  0  0  0  0  0  0  0
  -21.7934  -14.6707   20.7054 N   0  0  0  0  0  0  0  0  0  0  0  0
  -22.5876  -28.6764   21.4283 N   0  0  0  0  0  0  0  0  0  0  0  0
  -16.0611  -28.3592   23.3686 N   0  0  0  0  0  0  0  0  0  0  0  0
  -28.5932  -21.0113   21.3028 N   0  0  0  0  0  0  0  0  0  0  0  0
  -25.9941  -24.6707   25.4939 N   0  0  1  0  0  0  0  0  0  0  0  0
  -13.4714  -26.3016   21.9099 N   0  3  0  0  0  0  0  0  0  0  0  0
  -20.9322  -16.7548   20.2890 O   0  0  0  0  0  0  0  0  0  0  0  0
  -21.4864  -28.2125   23.4269 O   0  0  0  0  0  0  0  0  0  0  0  0
  -18.2749  -29.7765   22.2290 O   0  0  0  0  0  0  0  0  0  0  0  0
  -15.6502  -26.0981   23.6785 O   0  0  0  0  0  0  0  0  0  0  0  0
  -30.1616  -20.7792   19.6299 O   0  0  0  0  0  0  0  0  0  0  0  0
  -25.3597  -10.4251   21.2503 O   0  0  0  0  0  0  0  0  0  0  0  0
  -20.7586  -21.6898   22.7719 O   0  0  0  0  0  0  0  0  0  1  0  0
  -20.9704   -7.0932   21.4382 F   0  0  0  0  0  0  0  0  0  0  0  0
  -25.1700   -8.2336   19.5759 F   0  0  0  0  0  0  0  0  0  0  0  0
  -28.0915  -26.8820   23.4907 F   0  0  0  0  0  0  0  0  0  0  0  0
  -27.5585  -27.0731   25.5964 F   0  0  0  0  0  0  0  0  0  0  0  0
  -28.7170  -25.3508   24.9113 F   0  0  0  0  0  0  0  0  0  0  0  0
  1  2  1  0  0  0  0
  1  5  2  0  0  0  0
  2  6  2  0  0  0  0
  3  8  2  0  0  0  0
  3 15  1  0  0  0  0
  4  9  1  0  0  0  0
  4 15  2  0  0  0  0
  5 17  1  0  0  0  0
  6 19  1  0  0  0  0
  7 10  2  0  0  0  0
  7 18  1  0  0  0  0
  8 22  1  0  0  0  0
  9 22  2  0  0  0  0
 10 23  1  0  0  0  0
 11 12  2  0  0  0  0
 11 24  1  0  0  0  0
 12 25  1  0  0  0  0
 13 20  1  0  0  0  0
 13 23  2  0  0  0  0
 14 25  2  0  0  0  0
 14 26  1  0  0  0  0
 15 27  1  0  0  0  0
 16 27  1  0  0  0  0
 16 30  2  0  0  0  0
 16 32  1  0  0  0  0
 17 19  2  0  0  0  0
 17 37  1  0  0  0  0
 18 20  2  0  0  0  0
 18 38  1  0  0  0  0
 19 46  1  0  0  0  0
 20 39  1  0  0  0  0
 21 28  1  0  0  0  0
 21 29  2  0  0  0  0
 21 57  1  0  0  0  0
 22 86  1  0  0  0  0
 23 87  1  0  0  0  0
 24 26  2  0  0  0  0
 24 86  1  0  0  0  0
 25 88  1  0  0  0  0
 26 89  1  0  0  0  0
 27 68  2  0  0  0  0
 28 49  1  0  0  0  0
 28 69  2  0  0  0  0
 29 58  1  0  0  0  0
 29 70  1  0  0  0  0
 30 71  1  0  0  0  0
 30 74  1  0  0  0  0
 31 59  1  0  0  0  0
 31 69  1  0  0  0  0
 31 70  2  0  0  0  0
 32 75  1  0  0  0  0
 32 81  2  0  0  0  0
 33 47  1  0  0  0  0
 33 76  1  0  0  0  0
 33 82  2  0  0  0  0
 34 64  1  0  0  0  0
 34 72  1  0  0  0  0
 34 83  2  0  0  0  0
 35 65  1  0  0  0  0
 35 77  1  0  0  0  0
 35 84  2  0  0  0  0
 36 73  1  0  0  0  0
 36 78  1  0  0  0  0
 36 85  2  0  0  0  0
 37 40  1  0  0  0  0
 38 47  1  0  0  0  0
 39 72  1  0  0  0  0
 40 42  1  0  0  0  0
 41 43  1  0  0  0  0
 41 44  1  0  0  0  0
 42 46  1  0  0  0  0
 43 48  1  0  0  0  0
 44 73  1  0  0  0  0
 45 48  1  0  0  0  0
 45 73  1  0  0  0  0
 46 76  1  0  0  0  0
 47 72  1  0  0  0  0
 48 71  1  0  0  0  0
 50 65  1  0  0  0  0
 51 66  1  0  0  0  0
 52 66  1  0  0  0  0
 53 66  1  0  0  0  0
 54 78  1  0  0  0  0
 55 79  1  0  0  0  0
 56 80  1  0  0  0  0
 57 60  1  0  0  0  0
 58 61  1  0  0  0  0
 59 63  1  0  0  0  0
 60 78  1  0  0  0  0
 61 79  1  0  0  0  0
 62 67  1  0  0  0  0
 62 79  1  0  0  0  0
 63 87  1  0  0  0  0
 64 66  1  0  0  0  0
 64 77  1  0  0  0  0
 65 80  1  0  0  0  0
 67 90  1  0  0  0  0
 67 91  1  0  0  0  0
 67 92  1  0  0  0  0
 68 71  1  0  0  0  0
M  CHG  1  80   1
M  ISO  4  36 100  63 101  78 100  87 101
M  END
> <Batch ID>
0051

> <Smiles>
CNC(C)C(=O)NC(C(=O)N1Cc2cc([101O:1][101CH2:1]Cc3nc(C)c(CC[100N:0](C)[100C:0](=O)N4CCCC(n5nc(-c6ccc(Oc7ccc(F)cc7F)cc6)c(C(N)=O)c5N)C4)c(CCN(C)CC(F)(F)F)n3)ccc2CC1C(=O)NC1CCCc2ccccc21)C(C)(C)C

> <Shape>
0.214

> <Color>
0.082

> <Negative vol penalty>
0.000

$$$$
