
  -OEChem-04052317363D

 83 91  0     1  0  0  0  0  0999 V2000
  -29.1357  -11.5931   19.5905 C   0  0  0  0  0  0  0  0  0  0  0  0
  -29.2202  -12.9793   19.5086 C   0  0  0  0  0  0  0  0  0  0  0  0
  -21.9684  -26.0112   22.3204 C   0  0  0  0  0  0  0  0  0  0  0  0
  -22.0194  -28.3091   21.5761 C   0  0  0  0  0  0  0  0  0  0  0  0
  -27.9069  -10.9845   19.8425 C   0  0  0  0  0  0  0  0  0  0  0  0
  -28.0757  -13.7577   19.6775 C   0  0  0  0  0  0  0  0  0  0  0  0
  -28.8688  -17.7508   22.6892 C   0  0  0  0  0  0  0  0  0  0  0  0
  -20.5832  -26.0885   22.4645 C   0  0  0  0  0  0  0  0  0  0  0  0
  -20.6341  -28.3864   21.7201 C   0  0  0  0  0  0  0  0  0  0  0  0
  -29.5241  -18.8482   22.1323 C   0  0  0  0  0  0  0  0  0  0  0  0
  -18.4090  -28.7803   24.2349 C   0  0  0  0  0  0  0  0  0  0  0  0
  -17.8846  -29.9115   24.8602 C   0  0  0  0  0  0  0  0  0  0  0  0
  -27.4027  -19.9583   21.8386 C   0  0  0  0  0  0  0  0  0  0  0  0
  -16.6290  -30.4335   22.8631 C   0  0  0  0  0  0  0  0  0  0  0  0
  -30.2574  -23.9746   20.9767 C   0  0  0  0  0  0  0  0  0  0  0  0
  -30.2769  -24.2592   18.3067 C   0  0  0  0  0  0  0  0  0  0  0  0
  -22.6865  -27.1215   21.8763 C   0  0  0  0  0  0  0  0  0  0  0  0
  -24.8329  -26.6545   20.5791 C   0  0  0  0  0  0  0  0  0  0  0  0
  -26.7484  -11.7562   20.0241 C   0  0  0  0  0  0  0  0  0  0  0  0
  -27.4721  -17.7445   22.8152 C   0  0  0  0  0  0  0  0  0  0  0  0
  -26.8299  -13.1587   19.9307 C   0  0  0  0  0  0  0  0  0  0  0  0
  -26.7322  -18.8608   22.3997 C   0  0  0  0  0  0  0  0  0  0  0  0
  -19.9160  -27.2761   22.1643 C   0  0  0  0  0  0  0  0  0  0  0  0
  -28.7908  -19.9510   21.7042 C   0  0  0  0  0  0  0  0  0  0  0  0
  -18.0434  -28.4757   22.9236 C   0  0  0  0  0  0  0  0  0  0  0  0
  -16.9946  -30.7381   24.1744 C   0  0  0  0  0  0  0  0  0  0  0  0
  -17.1535  -29.3023   22.2378 C   0  0  0  0  0  0  0  0  0  0  0  0
  -24.1176  -27.0423   21.7279 C   0  0  0  0  0  0  0  0  0  0  0  0
  -31.0336  -24.9244   20.3444 C   0  0  0  0  0  0  0  0  0  0  0  0
  -29.4918  -23.1807   20.1473 C   0  0  0  0  0  0  0  0  0  0  0  0
  -26.1524  -26.7460   20.9491 C   0  0  0  0  0  0  0  0  0  0  0  0
  -24.3480  -26.2480   19.2925 C   0  0  0  0  0  0  0  0  0  0  0  0
  -25.1227  -15.9502   21.6471 C   0  0  0  0  0  0  0  0  0  0  0  0
  -30.2696  -29.5771   23.4638 C   0  0  0  0  0  0  0  0  0  0  0  0
  -23.2911  -17.7407   23.6375 C   0  0  0  0  0  0  0  0  0  0  0  0
  -22.8908  -20.6528   25.3713 C   0  0  0  0  0  0  0  0  0  0  0  0
  -25.4340  -11.0511   20.2473 C   0  0  0  0  0  0  0  0  0  0  0  0
  -26.7826  -16.5641   23.4426 C   0  0  0  0  0  0  0  0  0  0  0  0
  -25.2328  -18.9120   22.5315 C   0  0  0  0  0  0  0  0  0  0  0  0
  -24.3364  -11.9649   20.7863 C   0  0  0  0  0  0  0  0  0  0  0  0
  -28.2705  -27.3980   25.4875 C   0  0  0  0  0  0  0  0  0  0  0  0
  -24.2945  -13.2707   19.9989 C   0  0  0  0  0  0  0  0  0  0  0  0
  -27.0565  -27.1039   24.6072 C   0  0  0  0  0  0  0  0  0  0  0  0
  -28.7756  -28.8230   25.2841 C   0  0  0  0  0  0  0  0  0  0  0  0
  -27.8754  -28.8664   22.9799 C   0  0  0  0  0  0  0  0  0  0  0  0
  -25.6152  -14.0384   20.1328 C   0  0  1  0  0  0  0  0  0  0  0  0
  -25.3125  -16.4529   23.0502 C   0  0  1  0  0  0  0  0  0  0  0  0
  -27.3522  -27.4271   23.1319 C   0  0  2  0  0  0  0  0  0  0  0  0
  -29.9998  -31.2580   21.6874 C   0  0  0  0  0  0  0  0  0  0  0  0
  -21.2740  -21.8426   26.8772 C   0  0  0  0  0  0  0  0  0  0  0  0
  -21.5306  -18.3890   21.2311 C   0  0  0  0  0  0  0  0  0  0  0  0
  -20.5444  -20.2755   22.5489 C   0  0  0  0  0  0  0  0  0  0  0  0
  -20.2780  -17.9268   23.3458 C   0  0  0  0  0  0  0  0  0  0  0  0
  -24.8490  -20.7516   27.5882 C   0  0  0  0  0  0  0  0  0  0  0  0
  -31.8957  -25.8306   21.1579 C   0  0  0  0  0  0  0  0  0  0  0  0
  -28.6146  -22.1189   20.7424 C   0  0  0  0  0  0  0  0  0  1  0  0
  -31.9157  -29.6222   21.5906 C   0  0  0  0  0  0  0  0  0  0  0  0
  -32.3750  -28.1880   21.8300 C   0  0  0  0  0  0  0  0  0  0  0  0
  -30.4504  -29.8329   21.9887 C   0  0  1  0  0  0  0  0  0  0  0  0
  -22.5395  -19.0442   23.5156 C   0  0  1  0  0  0  0  0  0  0  0  0
  -22.4822  -20.9215   26.8084 C   0  0  2  0  0  0  0  0  0  0  0  0
  -21.2512  -18.9074   22.6560 C   0  0  0  0  0  0  0  0  0  0  0  0
  -31.0678  -25.0948   19.0064 N   0  0  0  0  0  0  0  0  0  0  0  0
  -29.4770  -23.2962   18.8031 N   0  0  0  0  0  0  0  0  0  0  0  0
  -24.9164  -27.3566   22.7511 N   0  0  0  0  0  0  0  0  0  0  0  0
  -26.1474  -27.1663   22.2466 N   0  0  0  0  0  0  0  0  0  0  0  0
  -24.6039  -17.7308   23.1455 N   0  0  0  0  0  0  0  0  0  0  0  0
  -29.0233  -29.0979   23.8677 N   0  0  0  0  0  0  0  0  0  0  0  0
  -27.3049  -26.5070   20.2880 N   0  0  0  0  0  0  0  0  0  0  0  0
  -22.9628  -26.2098   19.0821 N   0  0  0  0  0  0  0  0  0  0  0  0
  -25.6826  -14.7087   21.4137 N   0  0  0  0  0  0  0  0  0  0  0  0
  -22.3021  -19.5075   24.8785 N   0  0  0  0  0  0  0  0  0  0  0  0
  -23.6029  -21.5599   27.5549 N   0  3  0  0  0  0  0  0  0  0  0  0
  -31.5654  -27.2720   20.9849 N   0  3  0  0  0  0  0  0  0  0  0  0
  -25.1197  -25.9124   18.3623 O   0  0  0  0  0  0  0  0  0  0  0  0
  -24.5121  -16.6373   20.8366 O   0  0  0  0  0  0  0  0  0  0  0  0
  -31.2100  -29.7946   24.2322 O   0  0  0  0  0  0  0  0  0  0  0  0
  -22.7362  -16.7690   24.1567 O   0  0  0  0  0  0  0  0  0  0  0  0
  -23.6530  -21.3876   24.7470 O   0  0  0  0  0  0  0  0  0  0  0  0
  -18.5643  -27.3519   22.3044 O   0  0  0  0  0  0  0  0  0  0  0  0
  -29.4279  -21.0231   21.1597 O   0  0  0  0  0  0  0  0  0  1  0  0
  -16.4899  -31.8235   24.7755 F   0  0  0  0  0  0  0  0  0  0  0  0
  -16.7977  -29.0142   20.9783 F   0  0  0  0  0  0  0  0  0  0  0  0
  1  2  1  0  0  0  0
  1  5  2  0  0  0  0
  2  6  2  0  0  0  0
  3  8  2  0  0  0  0
  3 17  1  0  0  0  0
  4  9  1  0  0  0  0
  4 17  2  0  0  0  0
  5 19  1  0  0  0  0
  6 21  1  0  0  0  0
  7 10  2  0  0  0  0
  7 20  1  0  0  0  0
  8 23  1  0  0  0  0
  9 23  2  0  0  0  0
 10 24  1  0  0  0  0
 11 12  2  0  0  0  0
 11 25  1  0  0  0  0
 12 26  1  0  0  0  0
 13 22  1  0  0  0  0
 13 24  2  0  0  0  0
 14 26  2  0  0  0  0
 14 27  1  0  0  0  0
 15 29  2  0  0  0  0
 15 30  1  0  0  0  0
 16 63  2  0  0  0  0
 16 64  1  0  0  0  0
 17 28  1  0  0  0  0
 18 28  1  0  0  0  0
 18 31  2  0  0  0  0
 18 32  1  0  0  0  0
 19 21  2  0  0  0  0
 19 37  1  0  0  0  0
 20 22  2  0  0  0  0
 20 38  1  0  0  0  0
 21 46  1  0  0  0  0
 22 39  1  0  0  0  0
 23 80  1  0  0  0  0
 24 81  1  0  0  0  0
 25 27  2  0  0  0  0
 25 80  1  0  0  0  0
 26 82  1  0  0  0  0
 27 83  1  0  0  0  0
 28 65  2  0  0  0  0
 29 55  1  0  0  0  0
 29 63  1  0  0  0  0
 30 56  1  0  0  0  0
 30 64  2  0  0  0  0
 31 66  1  0  0  0  0
 31 69  1  0  0  0  0
 32 70  1  0  0  0  0
 32 75  2  0  0  0  0
 33 47  1  0  0  0  0
 33 71  1  0  0  0  0
 33 76  2  0  0  0  0
 34 59  1  0  0  0  0
 34 68  1  0  0  0  0
 34 77  2  0  0  0  0
 35 60  1  0  0  0  0
 35 67  1  0  0  0  0
 35 78  2  0  0  0  0
 36 61  1  0  0  0  0
 36 72  1  0  0  0  0
 36 79  2  0  0  0  0
 37 40  1  0  0  0  0
 38 47  1  0  0  0  0
 39 67  1  0  0  0  0
 40 42  1  0  0  0  0
 41 43  1  0  0  0  0
 41 44  1  0  0  0  0
 42 46  1  0  0  0  0
 43 48  1  0  0  0  0
 44 68  1  0  0  0  0
 45 48  1  0  0  0  0
 45 68  1  0  0  0  0
 46 71  1  0  0  0  0
 47 67  1  0  0  0  0
 48 66  1  0  0  0  0
 49 59  1  0  0  0  0
 50 61  1  0  0  0  0
 51 62  1  0  0  0  0
 52 62  1  0  0  0  0
 53 62  1  0  0  0  0
 54 73  1  0  0  0  0
 55 74  1  0  0  0  0
 56 81  1  0  0  0  0
 57 58  1  0  0  0  0
 57 59  1  0  0  0  0
 58 74  1  0  0  0  0
 60 62  1  0  0  0  0
 60 72  1  0  0  0  0
 61 73  1  0  0  0  0
 65 66  1  0  0  0  0
M  CHG  2  73   1  74   1
M  ISO  4  34 100  56 101  59 100  81 101
M  END
> <Batch ID>
0052

> <Smiles>
CNC(C)C(=O)NC(C(=O)N1Cc2cc([101O:1][101CH2:1]c3cc(CNCC[100CH:0](C)[100C:0](=O)N4CCCC(n5nc(-c6ccc(Oc7ccc(F)cc7F)cc6)c(C(N)=O)c5N)C4)ncn3)ccc2CC1C(=O)NC1CCCc2ccccc21)C(C)(C)C

> <Shape>
0.210

> <Color>
0.076

> <Negative vol penalty>
0.000

$$$$

  -OEChem-04052317363D

 85 93  0     1  0  0  0  0  0999 V2000
  -25.6487  -35.4258   23.5566 C   0  0  0  0  0  0  0  0  0  0  0  0
  -26.2635  -34.2067   23.2899 C   0  0  0  0  0  0  0  0  0  0  0  0
  -24.3351  -13.1224   21.2680 C   0  0  0  0  0  0  0  0  0  0  0  0
  -26.3851  -12.6997   20.0614 C   0  0  0  0  0  0  0  0  0  0  0  0
  -24.3311  -35.4560   24.0116 C   0  0  0  0  0  0  0  0  0  0  0  0
  -25.5614  -33.0169   23.4791 C   0  0  0  0  0  0  0  0  0  0  0  0
  -26.1699  -29.7706   19.6403 C   0  0  0  0  0  0  0  0  0  0  0  0
  -23.8407  -11.8828   20.8623 C   0  0  0  0  0  0  0  0  0  0  0  0
  -25.8907  -11.4601   19.6558 C   0  0  0  0  0  0  0  0  0  0  0  0
  -27.3634  -29.0511   19.5979 C   0  0  0  0  0  0  0  0  0  0  0  0
  -24.2191   -8.6405   21.7439 C   0  0  0  0  0  0  0  0  0  0  0  0
  -23.5934   -7.8462   22.7047 C   0  0  0  0  0  0  0  0  0  0  0  0
  -26.2385  -27.1408   20.5491 C   0  0  0  0  0  0  0  0  0  0  0  0
  -21.5569   -7.8786   21.4052 C   0  0  0  0  0  0  0  0  0  0  0  0
  -32.2929  -25.3925   18.3419 C   0  0  0  0  0  0  0  0  0  0  0  0
  -25.6073  -13.5309   20.8675 C   0  0  0  0  0  0  0  0  0  0  0  0
  -26.8607  -15.0920   22.4485 C   0  0  0  0  0  0  0  0  0  0  0  0
  -23.6093  -34.2664   24.1972 C   0  0  0  0  0  0  0  0  0  0  0  0
  -25.0023  -29.1831   20.1483 C   0  0  0  0  0  0  0  0  0  0  0  0
  -24.2334  -33.0311   23.9382 C   0  0  0  0  0  0  0  0  0  0  0  0
  -25.0309  -27.8541   20.5944 C   0  0  0  0  0  0  0  0  0  0  0  0
  -24.6185  -11.0516   20.0563 C   0  0  0  0  0  0  0  0  0  0  0  0
  -27.3985  -27.7370   20.0550 C   0  0  0  0  0  0  0  0  0  0  0  0
  -23.5137   -9.0539   20.6138 C   0  0  0  0  0  0  0  0  0  0  0  0
  -22.2623   -7.4652   22.5354 C   0  0  0  0  0  0  0  0  0  0  0  0
  -22.1826   -8.6729   20.4444 C   0  0  0  0  0  0  0  0  0  0  0  0
  -26.1183  -14.8115   21.2858 C   0  0  0  0  0  0  0  0  0  0  0  0
  -32.9481  -25.0758   19.5115 C   0  0  0  0  0  0  0  0  0  0  0  0
  -31.5298  -26.4408   20.6756 C   0  0  0  0  0  0  0  0  0  0  0  0
  -30.8751  -26.7580   19.5058 C   0  0  0  0  0  0  0  0  0  0  0  0
  -27.1023  -16.4425   22.3842 C   0  0  0  0  0  0  0  0  0  0  0  0
  -27.2933  -14.2105   23.4932 C   0  0  0  0  0  0  0  0  0  0  0  0
  -23.0634  -29.7953   22.5916 C   0  0  0  0  0  0  0  0  0  0  0  0
  -28.6459  -20.9286   19.4208 C   0  0  0  0  0  0  0  0  0  0  0  0
  -21.2936  -27.4150   21.2783 C   0  0  0  0  0  0  0  0  0  0  0  0
  -21.1917  -24.6265   19.3135 C   0  0  0  0  0  0  0  0  0  0  0  0
  -22.2029  -34.3471   24.7358 C   0  0  0  0  0  0  0  0  0  0  0  0
  -23.7168  -29.9638   20.1624 C   0  0  0  0  0  0  0  0  0  0  0  0
  -23.8003  -27.1708   21.1303 C   0  0  0  0  0  0  0  0  0  0  0  0
  -21.4056  -33.0584   24.5526 C   0  0  0  0  0  0  0  0  0  0  0  0
  -25.1862  -19.9980   19.3517 C   0  0  0  0  0  0  0  0  0  0  0  0
  -22.2378  -31.8513   24.9735 C   0  0  0  0  0  0  0  0  0  0  0  0
  -25.1852  -18.5778   19.9159 C   0  0  0  0  0  0  0  0  0  0  0  0
  -26.4383  -20.2688   18.5233 C   0  0  0  0  0  0  0  0  0  0  0  0
  -27.7180  -18.5936   19.8186 C   0  0  0  0  0  0  0  0  0  0  0  0
  -23.4966  -31.7201   24.1075 C   0  0  1  0  0  0  0  0  0  0  0  0
  -22.7076  -29.4349   21.1769 C   0  0  1  0  0  0  0  0  0  0  0  0
  -26.4850  -18.2886   20.6874 C   0  0  2  0  0  0  0  0  0  0  0  0
  -31.1101  -27.0209   21.9829 C   0  0  0  0  0  0  0  0  0  0  0  0
  -19.6098  -22.8765   18.4576 C   0  0  0  0  0  0  0  0  0  0  0  0
  -21.3234  -26.0557   24.0098 C   0  0  0  0  0  0  0  0  0  0  0  0
  -20.5875  -23.9417   22.8883 C   0  0  0  0  0  0  0  0  0  0  0  0
  -19.1249  -25.9614   22.8216 C   0  0  0  0  0  0  0  0  0  0  0  0
  -21.6848  -25.3922   16.4975 C   0  0  0  0  0  0  0  0  0  0  0  0
  -34.0995  -22.3673   22.1352 C   0  0  0  0  0  0  0  0  0  0  0  0
  -34.1032  -24.1369   19.4999 C   0  0  0  0  0  0  0  0  0  0  0  0
  -29.7091  -27.7022   19.4930 C   0  0  0  0  0  0  0  0  0  1  0  0
  -29.8632  -20.5388   20.2208 C   0  0  0  0  0  0  0  0  0  0  0  0
  -30.8636  -21.6880   20.2879 C   0  0  0  0  0  0  0  0  0  0  0  0
  -33.7217  -22.6672   19.6923 C   0  0  0  0  0  0  0  0  0  0  0  0
  -32.1319  -21.3042   21.0396 C   0  0  0  0  0  0  0  0  0  0  0  0
  -21.2373  -25.9144   21.4333 C   0  0  1  0  0  0  0  0  0  0  0  0
  -20.2607  -24.2235   18.1842 C   0  0  2  0  0  0  0  0  0  0  0  0
  -20.5921  -25.4815   22.7800 C   0  0  0  0  0  0  0  0  0  0  0  0
  -31.2447  -26.2393   18.3180 N   0  0  0  0  0  0  0  0  0  0  0  0
  -25.9023  -15.8967   20.5376 N   0  0  0  0  0  0  0  0  0  0  0  0
  -32.5782  -25.5943   20.6994 N   0  0  0  0  0  0  0  0  0  0  0  0
  -26.5126  -16.8722   21.2319 N   0  0  0  0  0  0  0  0  0  0  0  0
  -22.5691  -27.9779   21.1294 N   0  0  0  0  0  0  0  0  0  0  0  0
  -27.6508  -19.9607   19.2837 N   0  0  0  0  0  0  0  0  0  0  0  0
  -27.7594  -17.2926   23.2015 N   0  0  0  0  0  0  0  0  0  0  0  0
  -26.9591  -12.8524   23.4027 N   0  0  0  0  0  0  0  0  0  0  0  0
  -23.1656  -31.1548   22.8171 N   0  0  0  0  0  0  0  0  0  0  0  0
  -20.5493  -25.4075   20.2509 N   0  0  0  0  0  0  0  0  0  0  0  0
  -21.0129  -24.1301   16.9011 N   0  3  0  0  0  0  0  0  0  0  0  0
  -33.0885  -22.4711   21.0197 N   0  3  1  0  0  0  0  0  0  0  0  0
  -27.9425  -14.6181   24.4862 O   0  0  0  0  0  0  0  0  0  0  0  0
  -23.2311  -28.9059   23.4177 O   0  0  0  0  0  0  0  0  0  0  0  0
  -28.5818  -22.0611   18.9354 O   0  0  0  0  0  0  0  0  0  0  0  0
  -20.2440  -28.0631   21.2818 O   0  0  0  0  0  0  0  0  0  0  0  0
  -22.3699  -24.2799   19.3613 O   0  0  0  0  0  0  0  0  0  0  0  0
  -24.1365   -9.8418   19.6604 O   0  0  0  0  0  0  0  0  0  0  0  0
  -28.5623  -27.0327   20.0154 O   0  0  0  0  0  0  0  0  0  1  0  0
  -21.6620   -6.7012   23.4574 F   0  0  0  0  0  0  0  0  0  0  0  0
  -21.5001   -9.0660   19.3602 F   0  0  0  0  0  0  0  0  0  0  0  0
  1  2  1  0  0  0  0
  1  5  2  0  0  0  0
  2  6  2  0  0  0  0
  3  8  2  0  0  0  0
  3 16  1  0  0  0  0
  4  9  1  0  0  0  0
  4 16  2  0  0  0  0
  5 18  1  0  0  0  0
  6 20  1  0  0  0  0
  7 10  2  0  0  0  0
  7 19  1  0  0  0  0
  8 22  1  0  0  0  0
  9 22  2  0  0  0  0
 10 23  1  0  0  0  0
 11 12  2  0  0  0  0
 11 24  1  0  0  0  0
 12 25  1  0  0  0  0
 13 21  1  0  0  0  0
 13 23  2  0  0  0  0
 14 25  2  0  0  0  0
 14 26  1  0  0  0  0
 15 28  1  0  0  0  0
 15 65  2  0  0  0  0
 16 27  1  0  0  0  0
 17 27  1  0  0  0  0
 17 31  2  0  0  0  0
 17 32  1  0  0  0  0
 18 20  2  0  0  0  0
 18 37  1  0  0  0  0
 19 21  2  0  0  0  0
 19 38  1  0  0  0  0
 20 46  1  0  0  0  0
 21 39  1  0  0  0  0
 22 82  1  0  0  0  0
 23 83  1  0  0  0  0
 24 26  2  0  0  0  0
 24 82  1  0  0  0  0
 25 84  1  0  0  0  0
 26 85  1  0  0  0  0
 27 66  2  0  0  0  0
 28 56  1  0  0  0  0
 28 67  2  0  0  0  0
 29 30  2  0  0  0  0
 29 49  1  0  0  0  0
 29 67  1  0  0  0  0
 30 57  1  0  0  0  0
 30 65  1  0  0  0  0
 31 68  1  0  0  0  0
 31 71  1  0  0  0  0
 32 72  1  0  0  0  0
 32 77  2  0  0  0  0
 33 47  1  0  0  0  0
 33 73  1  0  0  0  0
 33 78  2  0  0  0  0
 34 58  1  0  0  0  0
 34 70  1  0  0  0  0
 34 79  2  0  0  0  0
 35 62  1  0  0  0  0
 35 69  1  0  0  0  0
 35 80  2  0  0  0  0
 36 63  1  0  0  0  0
 36 74  1  0  0  0  0
 36 81  2  0  0  0  0
 37 40  1  0  0  0  0
 38 47  1  0  0  0  0
 39 69  1  0  0  0  0
 40 42  1  0  0  0  0
 41 43  1  0  0  0  0
 41 44  1  0  0  0  0
 42 46  1  0  0  0  0
 43 48  1  0  0  0  0
 44 70  1  0  0  0  0
 45 48  1  0  0  0  0
 45 70  1  0  0  0  0
 46 73  1  0  0  0  0
 47 69  1  0  0  0  0
 48 68  1  0  0  0  0
 50 63  1  0  0  0  0
 51 64  1  0  0  0  0
 52 64  1  0  0  0  0
 53 64  1  0  0  0  0
 54 75  1  0  0  0  0
 55 76  1  0  0  0  0
 56 60  1  0  0  0  0
 57 83  1  0  0  0  0
 58 59  1  0  0  0  0
 59 61  1  0  0  0  0
 60 76  1  0  0  0  0
 61 76  1  0  0  0  0
 62 64  1  0  0  0  0
 62 74  1  0  0  0  0
 63 75  1  0  0  0  0
 66 68  1  0  0  0  0
M  CHG  2  75   1  76   1
M  ISO  4  34 100  57 101  58 100  83 101
M  END
> <Batch ID>
0052

> <Smiles>
CNC(C)C(=O)NC(C(=O)N1Cc2cc([101O:1][101CH2:1]c3ncc(CCN(C)CC[100CH2:0][100C:0](=O)N4CCCC(n5nc(-c6ccc(Oc7ccc(F)cc7F)cc6)c(C(N)=O)c5N)C4)nc3C)ccc2CC1C(=O)NC1CCCc2ccccc21)C(C)(C)C

> <Shape>
0.277

> <Color>
0.094

> <Negative vol penalty>
0.000

$$$$

  -OEChem-04052317363D

 80 88  0     1  0  0  0  0  0999 V2000
  -29.3344  -26.1764   21.0538 C   0  0  0  0  0  0  0  0  0  0  0  0
  -28.3537  -25.2243   21.3083 C   0  0  0  0  0  0  0  0  0  0  0  0
  -24.9081  -29.5360   21.7356 C   0  0  0  0  0  0  0  0  0  0  0  0
  -23.5898  -30.5838   20.0032 C   0  0  0  0  0  0  0  0  0  0  0  0
  -30.2753  -25.9514   20.0512 C   0  0  0  0  0  0  0  0  0  0  0  0
  -28.3209  -24.0418   20.5685 C   0  0  0  0  0  0  0  0  0  0  0  0
  -24.3306  -19.4374   20.6346 C   0  0  0  0  0  0  0  0  0  0  0  0
  -25.3767  -30.7873   22.1358 C   0  0  0  0  0  0  0  0  0  0  0  0
  -24.0584  -31.8352   20.4035 C   0  0  0  0  0  0  0  0  0  0  0  0
  -23.1633  -19.0775   19.9625 C   0  0  0  0  0  0  0  0  0  0  0  0
  -24.2478  -33.4053   23.9536 C   0  0  0  0  0  0  0  0  0  0  0  0
  -24.2697  -33.6825   25.3205 C   0  0  0  0  0  0  0  0  0  0  0  0
  -24.4574  -17.6964   18.4669 C   0  0  0  0  0  0  0  0  0  0  0  0
  -26.6604  -34.0147   25.2149 C   0  0  0  0  0  0  0  0  0  0  0  0
  -19.7348  -19.9551   17.1590 C   0  0  0  0  0  0  0  0  0  0  0  0
  -24.0147  -29.4342   20.6692 C   0  0  0  0  0  0  0  0  0  0  0  0
  -22.3836  -27.4735   20.7232 C   0  0  0  0  0  0  0  0  0  0  0  0
  -30.2456  -24.7708   19.2907 C   0  0  0  0  0  0  0  0  0  0  0  0
  -25.5734  -18.9372   20.2204 C   0  0  0  0  0  0  0  0  0  0  0  0
  -29.2763  -23.7856   19.5684 C   0  0  0  0  0  0  0  0  0  0  0  0
  -25.6387  -18.0494   19.1370 C   0  0  0  0  0  0  0  0  0  0  0  0
  -24.9519  -31.9369   21.4698 C   0  0  0  0  0  0  0  0  0  0  0  0
  -23.2269  -18.2092   18.8767 C   0  0  0  0  0  0  0  0  0  0  0  0
  -25.4323  -33.4327   23.2174 C   0  0  0  0  0  0  0  0  0  0  0  0
  -25.4759  -33.9872   25.9511 C   0  0  0  0  0  0  0  0  0  0  0  0
  -26.6385  -33.7374   23.8480 C   0  0  0  0  0  0  0  0  0  0  0  0
  -23.5307  -28.1419   20.2549 C   0  0  0  0  0  0  0  0  0  0  0  0
  -20.4846  -19.2924   16.2287 C   0  0  0  0  0  0  0  0  0  0  0  0
  -22.3642  -26.2925   20.0224 C   0  0  0  0  0  0  0  0  0  0  0  0
  -20.3756  -21.4204   15.6284 C   0  0  0  0  0  0  0  0  0  0  0  0
  -21.4216  -27.8837   21.7040 C   0  0  0  0  0  0  0  0  0  0  0  0
  -28.2579  -20.2329   19.1167 C   0  0  0  0  0  0  0  0  0  0  0  0
  -29.3600  -17.1905   19.3437 C   0  0  0  0  0  0  0  0  0  0  0  0
  -28.6551  -13.8524   19.4274 C   0  0  0  0  0  0  0  0  0  0  0  0
  -22.8981  -23.4596   15.2438 C   0  0  0  0  0  0  0  0  0  0  0  0
  -31.2930  -24.5753   18.2230 C   0  0  0  0  0  0  0  0  0  0  0  0
  -26.8202  -19.3140   20.9726 C   0  0  0  0  0  0  0  0  0  0  0  0
  -26.9459  -17.4686   18.6653 C   0  0  0  0  0  0  0  0  0  0  0  0
  -30.9109  -23.5066   17.2041 C   0  0  0  0  0  0  0  0  0  0  0  0
  -25.8735  -24.1580   17.0703 C   0  0  0  0  0  0  0  0  0  0  0  0
  -30.4618  -22.2420   17.9208 C   0  0  0  0  0  0  0  0  0  0  0  0
  -25.4360  -25.2056   18.0955 C   0  0  0  0  0  0  0  0  0  0  0  0
  -25.1597  -24.3442   15.7332 C   0  0  0  0  0  0  0  0  0  0  0  0
  -23.2504  -25.4380   16.8433 C   0  0  0  0  0  0  0  0  0  0  0  0
  -29.2024  -22.5055   18.7559 C   0  0  1  0  0  0  0  0  0  0  0  0
  -28.0906  -19.1494   20.1442 C   0  0  1  0  0  0  0  0  0  0  0  0
  -23.9018  -25.2568   18.2250 C   0  0  2  0  0  0  0  0  0  0  0  0
  -29.7663  -11.6077   19.5812 C   0  0  0  0  0  0  0  0  0  0  0  0
  -30.2058  -17.4117   16.4204 C   0  0  0  0  0  0  0  0  0  0  0  0
  -30.4156  -14.9175   16.3648 C   0  0  0  0  0  0  0  0  0  0  0  0
  -31.8575  -16.2548   17.8996 C   0  0  0  0  0  0  0  0  0  0  0  0
  -18.9881  -22.3270   17.4692 C   0  0  0  0  0  0  0  0  0  0  0  0
  -27.2625  -13.2071   21.9579 C   0  0  0  0  0  0  0  0  0  0  0  0
  -20.8888  -17.8420   16.1230 C   0  0  0  0  0  0  0  0  0  0  0  0
  -20.5735  -22.6775   14.8647 C   0  0  0  0  0  0  0  0  0  0  0  0
  -22.2096  -17.5553   16.8289 C   0  0  0  0  0  0  0  0  0  1  0  0
  -29.3974  -15.9954   18.4220 C   0  0  1  0  0  0  0  0  0  0  0  0
  -29.1234  -12.7470   20.3566 C   0  0  2  0  0  0  0  0  0  0  0  0
  -30.4445  -16.1571   17.2841 C   0  0  0  0  0  0  0  0  0  0  0  0
  -24.1921  -27.4434   19.3283 N   0  0  0  0  0  0  0  0  0  0  0  0
  -19.6843  -21.2699   16.7629 N   0  0  0  0  0  0  0  0  0  0  0  0
  -23.4584  -26.3238   19.2088 N   0  0  0  0  0  0  0  0  0  0  0  0
  -20.8676  -20.2233   15.2934 N   0  3  0  0  0  0  0  0  0  0  0  0
  -28.1378  -17.8723   19.4295 N   0  0  0  0  0  0  0  0  0  0  0  0
  -23.7080  -24.3828   15.9257 N   0  0  0  0  0  0  0  0  0  0  0  0
  -21.5182  -25.2405   20.0290 N   0  0  0  0  0  0  0  0  0  0  0  0
  -21.5918  -29.1273   22.3277 N   0  0  0  0  0  0  0  0  0  0  0  0
  -28.9309  -21.3477   19.5790 N   0  0  0  0  0  0  0  0  0  0  0  0
  -29.6147  -14.8304   19.2729 N   0  0  0  0  0  0  0  0  0  0  0  0
  -21.5340  -23.5610   15.4876 N   0  0  0  0  0  0  0  0  0  0  0  0
  -27.9736  -12.1990   21.1303 N   0  3  0  0  0  0  0  0  0  0  0  0
  -20.4491  -27.1615   22.0299 O   0  0  0  0  0  0  0  0  0  0  0  0
  -27.8109  -20.0690   17.9875 O   0  0  0  0  0  0  0  0  0  0  0  0
  -30.3757  -17.5032   19.9700 O   0  0  0  0  0  0  0  0  0  0  0  0
  -27.5501  -13.8468   18.8894 O   0  0  0  0  0  0  0  0  0  0  0  0
  -23.3574  -22.6047   14.4788 O   0  0  0  0  0  0  0  0  0  0  0  0
  -25.4088  -33.1581   21.8603 O   0  0  0  0  0  0  0  0  0  0  0  0
  -22.0892  -17.8568   18.2184 O   0  0  0  0  0  0  0  0  0  1  0  0
  -25.4966  -34.2548   27.2634 F   0  0  0  0  0  0  0  0  0  0  0  0
  -27.7795  -33.7665   23.1457 F   0  0  0  0  0  0  0  0  0  0  0  0
  1  2  1  0  0  0  0
  1  5  2  0  0  0  0
  2  6  2  0  0  0  0
  3  8  2  0  0  0  0
  3 16  1  0  0  0  0
  4  9  1  0  0  0  0
  4 16  2  0  0  0  0
  5 18  1  0  0  0  0
  6 20  1  0  0  0  0
  7 10  2  0  0  0  0
  7 19  1  0  0  0  0
  8 22  1  0  0  0  0
  9 22  2  0  0  0  0
 10 23  1  0  0  0  0
 11 12  2  0  0  0  0
 11 24  1  0  0  0  0
 12 25  1  0  0  0  0
 13 21  1  0  0  0  0
 13 23  2  0  0  0  0
 14 25  2  0  0  0  0
 14 26  1  0  0  0  0
 15 28  2  0  0  0  0
 15 61  1  0  0  0  0
 16 27  1  0  0  0  0
 17 27  1  0  0  0  0
 17 29  2  0  0  0  0
 17 31  1  0  0  0  0
 18 20  2  0  0  0  0
 18 36  1  0  0  0  0
 19 21  2  0  0  0  0
 19 37  1  0  0  0  0
 20 45  1  0  0  0  0
 21 38  1  0  0  0  0
 22 77  1  0  0  0  0
 23 78  1  0  0  0  0
 24 26  2  0  0  0  0
 24 77  1  0  0  0  0
 25 79  1  0  0  0  0
 26 80  1  0  0  0  0
 27 60  2  0  0  0  0
 28 54  1  0  0  0  0
 28 63  1  0  0  0  0
 29 62  1  0  0  0  0
 29 66  1  0  0  0  0
 30 55  1  0  0  0  0
 30 61  1  0  0  0  0
 30 63  2  0  0  0  0
 31 67  1  0  0  0  0
 31 72  2  0  0  0  0
 32 46  1  0  0  0  0
 32 68  1  0  0  0  0
 32 73  2  0  0  0  0
 33 57  1  0  0  0  0
 33 64  1  0  0  0  0
 33 74  2  0  0  0  0
 34 58  1  0  0  0  0
 34 69  1  0  0  0  0
 34 75  2  0  0  0  0
 35 65  1  0  0  0  0
 35 70  1  0  0  0  0
 35 76  2  0  0  0  0
 36 39  1  0  0  0  0
 37 46  1  0  0  0  0
 38 64  1  0  0  0  0
 39 41  1  0  0  0  0
 40 42  1  0  0  0  0
 40 43  1  0  0  0  0
 41 45  1  0  0  0  0
 42 47  1  0  0  0  0
 43 65  1  0  0  0  0
 44 47  1  0  0  0  0
 44 65  1  0  0  0  0
 45 68  1  0  0  0  0
 46 64  1  0  0  0  0
 47 62  1  0  0  0  0
 48 58  1  0  0  0  0
 49 59  1  0  0  0  0
 50 59  1  0  0  0  0
 51 59  1  0  0  0  0
 52 61  1  0  0  0  0
 53 71  1  0  0  0  0
 54 56  1  0  0  0  0
 55 70  1  0  0  0  0
 56 78  1  0  0  0  0
 57 59  1  0  0  0  0
 57 69  1  0  0  0  0
 58 71  1  0  0  0  0
 60 62  1  0  0  0  0
M  CHG  2  63   1  71   1
M  ISO  4  35 100  56 101  70 100  78 101
M  END
> <Batch ID>
0052

> <Smiles>
CNC(C)C(=O)NC(C(=O)N1Cc2cc([101O:1][101CH2:1]Cc3cn(C)c(C[100NH:0][100C:0](=O)N4CCCC(n5nc(-c6ccc(Oc7ccc(F)cc7F)cc6)c(C(N)=O)c5N)C4)n3)ccc2CC1C(=O)NC1CCCc2ccccc21)C(C)(C)C

> <Shape>
0.220

> <Color>
0.048

> <Negative vol penalty>
0.000

$$$$

  -OEChem-04052317363D

 83 91  0     1  0  0  0  0  0999 V2000
  -27.6856  -23.7704   17.2909 C   0  0  0  0  0  0  0  0  0  0  0  0
  -26.6359  -24.6561   17.5068 C   0  0  0  0  0  0  0  0  0  0  0  0
  -26.9732  -20.4333   19.4027 C   0  0  0  0  0  0  0  0  0  0  0  0
  -26.7359  -19.0766   21.3877 C   0  0  0  0  0  0  0  0  0  0  0  0
  -28.7292  -23.6950   18.2110 C   0  0  0  0  0  0  0  0  0  0  0  0
  -26.6353  -25.4750   18.6364 C   0  0  0  0  0  0  0  0  0  0  0  0
  -23.1025  -28.8870   18.9214 C   0  0  0  0  0  0  0  0  0  0  0  0
  -28.2773  -19.9661   19.2393 C   0  0  0  0  0  0  0  0  0  0  0  0
  -28.0400  -18.6094   21.2243 C   0  0  0  0  0  0  0  0  0  0  0  0
  -21.7683  -28.5713   19.1747 C   0  0  0  0  0  0  0  0  0  0  0  0
  -31.1825  -16.7837   21.1269 C   0  0  0  0  0  0  0  0  0  0  0  0
  -31.4064  -15.4158   21.2822 C   0  0  0  0  0  0  0  0  0  0  0  0
  -22.0291  -29.3229   21.4520 C   0  0  0  0  0  0  0  0  0  0  0  0
  -15.9093  -23.4624   21.4525 C   0  0  0  0  0  0  0  0  0  0  0  0
  -29.8727  -14.9593   19.4720 C   0  0  0  0  0  0  0  0  0  0  0  0
  -16.6769  -24.9015   19.9002 C   0  0  0  0  0  0  0  0  0  0  0  0
  -26.2025  -19.9885   20.4770 C   0  0  0  0  0  0  0  0  0  0  0  0
  -23.6778  -19.9071   20.1206 C   0  0  0  0  0  0  0  0  0  0  0  0
  -28.7344  -24.5049   19.3586 C   0  0  0  0  0  0  0  0  0  0  0  0
  -23.9143  -29.4138   19.9362 C   0  0  0  0  0  0  0  0  0  0  0  0
  -27.6914  -25.4308   19.5644 C   0  0  0  0  0  0  0  0  0  0  0  0
  -23.3725  -29.6469   21.2083 C   0  0  0  0  0  0  0  0  0  0  0  0
  -15.6918  -23.9712   20.1483 C   0  0  0  0  0  0  0  0  0  0  0  0
  -28.8107  -19.0542   20.1501 C   0  0  0  0  0  0  0  0  0  0  0  0
  -21.2322  -28.7865   20.4409 C   0  0  0  0  0  0  0  0  0  0  0  0
  -30.3037  -17.2395   20.1442 C   0  0  0  0  0  0  0  0  0  0  0  0
  -30.7515  -14.5035   20.4547 C   0  0  0  0  0  0  0  0  0  0  0  0
  -29.6488  -16.3273   19.3168 C   0  0  0  0  0  0  0  0  0  0  0  0
  -24.8555  -20.4711   20.6466 C   0  0  0  0  0  0  0  0  0  0  0  0
  -17.0205  -24.0974   21.9618 C   0  0  0  0  0  0  0  0  0  0  0  0
  -22.6737  -20.7319   20.5653 C   0  0  0  0  0  0  0  0  0  0  0  0
  -23.5068  -18.7417   19.3031 C   0  0  0  0  0  0  0  0  0  0  0  0
  -26.5627  -28.4596   21.4125 C   0  0  0  0  0  0  0  0  0  0  0  0
  -26.3873  -31.3926   22.7868 C   0  0  0  0  0  0  0  0  0  0  0  0
  -24.4555  -34.0541   23.6985 C   0  0  0  0  0  0  0  0  0  0  0  0
  -20.5098  -23.4794   25.0471 C   0  0  0  0  0  0  0  0  0  0  0  0
  -29.8928  -24.3880   20.3175 C   0  0  0  0  0  0  0  0  0  0  0  0
  -25.3442  -29.7741   19.6395 C   0  0  0  0  0  0  0  0  0  0  0  0
  -24.1964  -30.2292   22.3266 C   0  0  0  0  0  0  0  0  0  0  0  0
  -29.5854  -24.9672   21.6946 C   0  0  0  0  0  0  0  0  0  0  0  0
  -22.8522  -25.2569   22.7987 C   0  0  0  0  0  0  0  0  0  0  0  0
  -28.9912  -26.3605   21.5516 C   0  0  0  0  0  0  0  0  0  0  0  0
  -23.5308  -24.1104   22.0510 C   0  0  0  0  0  0  0  0  0  0  0  0
  -22.3876  -24.8314   24.1882 C   0  0  0  0  0  0  0  0  0  0  0  0
  -22.1886  -22.4829   23.4404 C   0  0  0  0  0  0  0  0  0  0  0  0
  -27.6541  -26.3096   20.8017 C   0  0  1  0  0  0  0  0  0  0  0  0
  -26.2189  -29.8252   20.8883 C   0  0  1  0  0  0  0  0  0  0  0  0
  -22.6272  -22.8655   22.0188 C   0  0  2  0  0  0  0  0  0  0  0  0
  -14.6105  -23.5779   19.2250 C   0  0  0  0  0  0  0  0  0  0  0  0
  -24.5880  -36.2857   24.8387 C   0  0  0  0  0  0  0  0  0  0  0  0
  -26.5589  -29.9963   25.4944 C   0  0  0  0  0  0  0  0  0  0  0  0
  -25.7432  -32.1108   26.5583 C   0  0  0  0  0  0  0  0  0  0  0  0
  -27.9063  -32.0956   25.3160 C   0  0  0  0  0  0  0  0  0  0  0  0
  -18.6039  -22.0200   25.6105 C   0  0  0  0  0  0  0  0  0  0  0  0
  -23.5398  -35.4787   21.2713 C   0  0  0  0  0  0  0  0  0  0  0  0
  -17.6816  -23.9443   23.2743 C   0  0  0  0  0  0  0  0  0  0  0  0
  -18.4113  -27.1331   21.9709 C   0  0  0  0  0  0  0  0  0  0  0  0
  -18.6782  -25.8739   21.1435 C   0  0  0  0  0  0  0  0  0  0  0  0
  -18.7828  -22.8695   23.3013 C   0  0  0  0  0  0  0  0  0  0  0  0
  -19.6004  -28.0854   22.0225 C   0  0  0  0  0  0  0  0  0  1  0  0
  -25.7358  -31.9548   24.0272 C   0  0  1  0  0  0  0  0  0  0  0  0
  -24.6457  -35.5484   23.5098 C   0  0  2  0  0  0  0  0  0  0  0  0
  -26.4708  -31.5266   25.3287 C   0  0  0  0  0  0  0  0  0  0  0  0
  -24.6226  -21.5695   21.3701 N   0  0  0  0  0  0  0  0  0  0  0  0
  -17.4786  -24.9701   21.0096 N   0  0  0  0  0  0  0  0  0  0  0  0
  -23.2871  -21.7023   21.3018 N   0  0  0  0  0  0  0  0  0  0  0  0
  -25.5909  -30.5592   21.9888 N   0  0  0  0  0  0  0  0  0  0  0  0
  -21.5665  -23.6214   24.1328 N   0  0  0  0  0  0  0  0  0  0  0  0
  -21.3347  -20.7146   20.3944 N   0  0  0  0  0  0  0  0  0  0  0  0
  -24.6444  -18.0092   18.9375 N   0  0  0  0  0  0  0  0  0  0  0  0
  -27.2283  -27.6593   20.5037 N   0  0  0  0  0  0  0  0  0  0  0  0
  -25.6613  -33.3985   23.8305 N   0  0  0  0  0  0  0  0  0  0  0  0
  -19.3920  -22.7446   24.6237 N   0  0  0  0  0  0  0  0  0  0  0  0
  -23.5829  -36.0977   22.6211 N   0  3  0  0  0  0  0  0  0  0  0  0
  -22.3803  -18.3705   18.8949 O   0  0  0  0  0  0  0  0  0  0  0  0
  -26.2486  -28.1551   22.5572 O   0  0  0  0  0  0  0  0  0  0  0  0
  -27.5575  -31.6879   22.5316 O   0  0  0  0  0  0  0  0  0  0  0  0
  -23.3479  -33.5223   23.7296 O   0  0  0  0  0  0  0  0  0  0  0  0
  -20.5585  -23.9888   26.1741 O   0  0  0  0  0  0  0  0  0  0  0  0
  -30.0831  -18.5980   19.9908 O   0  0  0  0  0  0  0  0  0  0  0  0
  -19.9305  -28.4785   20.6910 O   0  0  0  0  0  0  0  0  0  1  0  0
  -30.9678  -13.1900   20.6029 F   0  0  0  0  0  0  0  0  0  0  0  0
  -28.8043  -16.7592   18.3702 F   0  0  0  0  0  0  0  0  0  0  0  0
  1  2  1  0  0  0  0
  1  5  2  0  0  0  0
  2  6  2  0  0  0  0
  3  8  2  0  0  0  0
  3 17  1  0  0  0  0
  4  9  1  0  0  0  0
  4 17  2  0  0  0  0
  5 19  1  0  0  0  0
  6 21  1  0  0  0  0
  7 10  2  0  0  0  0
  7 20  1  0  0  0  0
  8 24  1  0  0  0  0
  9 24  2  0  0  0  0
 10 25  1  0  0  0  0
 11 12  2  0  0  0  0
 11 26  1  0  0  0  0
 12 27  1  0  0  0  0
 13 22  1  0  0  0  0
 13 25  2  0  0  0  0
 14 23  1  0  0  0  0
 14 30  2  0  0  0  0
 15 27  2  0  0  0  0
 15 28  1  0  0  0  0
 16 23  2  0  0  0  0
 16 65  1  0  0  0  0
 17 29  1  0  0  0  0
 18 29  1  0  0  0  0
 18 31  2  0  0  0  0
 18 32  1  0  0  0  0
 19 21  2  0  0  0  0
 19 37  1  0  0  0  0
 20 22  2  0  0  0  0
 20 38  1  0  0  0  0
 21 46  1  0  0  0  0
 22 39  1  0  0  0  0
 23 49  1  0  0  0  0
 24 80  1  0  0  0  0
 25 81  1  0  0  0  0
 26 28  2  0  0  0  0
 26 80  1  0  0  0  0
 27 82  1  0  0  0  0
 28 83  1  0  0  0  0
 29 64  2  0  0  0  0
 30 56  1  0  0  0  0
 30 65  1  0  0  0  0
 31 66  1  0  0  0  0
 31 69  1  0  0  0  0
 32 70  1  0  0  0  0
 32 75  2  0  0  0  0
 33 47  1  0  0  0  0
 33 71  1  0  0  0  0
 33 76  2  0  0  0  0
 34 61  1  0  0  0  0
 34 67  1  0  0  0  0
 34 77  2  0  0  0  0
 35 62  1  0  0  0  0
 35 72  1  0  0  0  0
 35 78  2  0  0  0  0
 36 68  1  0  0  0  0
 36 73  1  0  0  0  0
 36 79  2  0  0  0  0
 37 40  1  0  0  0  0
 38 47  1  0  0  0  0
 39 67  1  0  0  0  0
 40 42  1  0  0  0  0
 41 43  1  0  0  0  0
 41 44  1  0  0  0  0
 42 46  1  0  0  0  0
 43 48  1  0  0  0  0
 44 68  1  0  0  0  0
 45 48  1  0  0  0  0
 45 68  1  0  0  0  0
 46 71  1  0  0  0  0
 47 67  1  0  0  0  0
 48 66  1  0  0  0  0
 50 62  1  0  0  0  0
 51 63  1  0  0  0  0
 52 63  1  0  0  0  0
 53 63  1  0  0  0  0
 54 73  1  0  0  0  0
 55 74  1  0  0  0  0
 56 59  1  0  0  0  0
 57 58  1  0  0  0  0
 57 60  1  0  0  0  0
 58 65  1  0  0  0  0
 59 73  1  0  0  0  0
 60 81  1  0  0  0  0
 61 63  1  0  0  0  0
 61 72  1  0  0  0  0
 62 74  1  0  0  0  0
 64 66  1  0  0  0  0
M  CHG  1  74   1
M  ISO  4  36 100  60 101  73 100  81 101
M  END
> <Batch ID>
0052

> <Smiles>
CNC(C)C(=O)NC(C(=O)N1Cc2cc([101O:1][101CH2:1]CCn3cc(C)cc3CC[100N:0](C)[100C:0](=O)N3CCCC(n4nc(-c5ccc(Oc6ccc(F)cc6F)cc5)c(C(N)=O)c4N)C3)ccc2CC1C(=O)NC1CCCc2ccccc21)C(C)(C)C

> <Shape>
0.248

> <Color>
0.062

> <Negative vol penalty>
0.000

$$$$

  -OEChem-04052317363D

 84 92  0     1  0  0  0  0  0999 V2000
  -22.2770  -26.2338   18.5934 C   0  0  0  0  0  0  0  0  0  0  0  0
  -23.1148  -25.1237   18.6290 C   0  0  0  0  0  0  0  0  0  0  0  0
  -26.0759  -27.6787   18.9945 C   0  0  0  0  0  0  0  0  0  0  0  0
  -26.5986  -27.7260   21.3528 C   0  0  0  0  0  0  0  0  0  0  0  0
  -21.1198  -26.2575   19.3707 C   0  0  0  0  0  0  0  0  0  0  0  0
  -22.7963  -24.0371   19.4429 C   0  0  0  0  0  0  0  0  0  0  0  0
  -23.8631  -18.1217   18.2701 C   0  0  0  0  0  0  0  0  0  0  0  0
  -25.1284  -28.6845   19.1843 C   0  0  0  0  0  0  0  0  0  0  0  0
  -25.6511  -28.7319   21.5426 C   0  0  0  0  0  0  0  0  0  0  0  0
  -24.8722  -17.2513   18.6799 C   0  0  0  0  0  0  0  0  0  0  0  0
  -22.2901  -28.9674   21.8247 C   0  0  0  0  0  0  0  0  0  0  0  0
  -21.4253  -28.8461   22.9123 C   0  0  0  0  0  0  0  0  0  0  0  0
  -23.4535  -16.4548   20.4609 C   0  0  0  0  0  0  0  0  0  0  0  0
  -29.5228  -12.7439   21.0984 C   0  0  0  0  0  0  0  0  0  0  0  0
  -28.0099  -13.3698   19.3366 C   0  0  0  0  0  0  0  0  0  0  0  0
  -22.2482  -30.9371   23.7998 C   0  0  0  0  0  0  0  0  0  0  0  0
  -26.8110  -27.1993   20.0787 C   0  0  0  0  0  0  0  0  0  0  0  0
  -29.1540  -26.3234   19.5779 C   0  0  0  0  0  0  0  0  0  0  0  0
  -20.7820  -25.1667   20.1872 C   0  0  0  0  0  0  0  0  0  0  0  0
  -22.6436  -18.1730   18.9604 C   0  0  0  0  0  0  0  0  0  0  0  0
  -21.6342  -24.0469   20.2328 C   0  0  0  0  0  0  0  0  0  0  0  0
  -22.4296  -17.3249   20.0563 C   0  0  0  0  0  0  0  0  0  0  0  0
  -28.8856  -12.4475   19.8986 C   0  0  0  0  0  0  0  0  0  0  0  0
  -24.9160  -29.2112   20.4583 C   0  0  0  0  0  0  0  0  0  0  0  0
  -24.6686  -16.4198   19.7773 C   0  0  0  0  0  0  0  0  0  0  0  0
  -23.1341  -30.0735   21.7247 C   0  0  0  0  0  0  0  0  0  0  0  0
  -21.4043  -29.8310   23.8998 C   0  0  0  0  0  0  0  0  0  0  0  0
  -23.1131  -31.0584   22.7122 C   0  0  0  0  0  0  0  0  0  0  0  0
  -27.7895  -26.1599   19.8834 C   0  0  0  0  0  0  0  0  0  0  0  0
  -29.2525  -13.9666   21.6914 C   0  0  0  0  0  0  0  0  0  0  0  0
  -27.8072  -14.5644   20.0087 C   0  0  0  0  0  0  0  0  0  0  0  0
  -29.6433  -25.0427   19.4959 C   0  0  0  0  0  0  0  0  0  0  0  0
  -29.9113  -27.5255   19.3854 C   0  0  0  0  0  0  0  0  0  0  0  0
  -21.0803  -20.4110   20.5887 C   0  0  0  0  0  0  0  0  0  0  0  0
  -30.0384  -19.9837   21.6239 C   0  0  0  0  0  0  0  0  0  0  0  0
  -18.7511  -18.1557   20.6943 C   0  0  0  0  0  0  0  0  0  0  0  0
  -17.9091  -14.8515   20.5519 C   0  0  0  0  0  0  0  0  0  0  0  0
  -19.5452  -25.2579   21.0456 C   0  0  0  0  0  0  0  0  0  0  0  0
  -21.5553  -19.0983   18.4894 C   0  0  0  0  0  0  0  0  0  0  0  0
  -21.1309  -17.3270   20.8190 C   0  0  0  0  0  0  0  0  0  0  0  0
  -19.0850  -23.9105   21.5959 C   0  0  0  0  0  0  0  0  0  0  0  0
  -27.2529  -20.5958   19.3672 C   0  0  0  0  0  0  0  0  0  0  0  0
  -20.2676  -23.1358   22.1689 C   0  0  0  0  0  0  0  0  0  0  0  0
  -27.2421  -22.1225   19.3020 C   0  0  0  0  0  0  0  0  0  0  0  0
  -27.6530  -20.0960   20.7529 C   0  0  0  0  0  0  0  0  0  0  0  0
  -28.9535  -22.1601   21.1682 C   0  0  0  0  0  0  0  0  0  0  0  0
  -21.3100  -22.8385   21.0842 C   0  0  1  0  0  0  0  0  0  0  0  0
  -20.5434  -19.4349   19.5803 C   0  0  1  0  0  0  0  0  0  0  0  0
  -28.5844  -22.7047   19.7782 C   0  0  2  0  0  0  0  0  0  0  0  0
  -29.1411  -11.1461   19.2170 C   0  0  0  0  0  0  0  0  0  0  0  0
  -15.9320  -13.3140   20.7085 C   0  0  0  0  0  0  0  0  0  0  0  0
  -18.7173  -18.5118   23.7244 C   0  0  0  0  0  0  0  0  0  0  0  0
  -17.4669  -16.3494   23.8947 C   0  0  0  0  0  0  0  0  0  0  0  0
  -16.4587  -18.2785   22.6762 C   0  0  0  0  0  0  0  0  0  0  0  0
  -18.3215  -13.8520   17.7969 C   0  0  0  0  0  0  0  0  0  0  0  0
  -32.4181  -15.6687   22.1449 C   0  0  0  0  0  0  0  0  0  0  0  0
  -29.9196  -14.3194   22.9788 C   0  0  0  0  0  0  0  0  0  0  0  0
  -26.8674  -15.5820   19.4320 C   0  0  0  0  0  0  0  0  0  1  0  0
  -29.9141  -18.4812   21.6549 C   0  0  0  0  0  0  0  0  0  0  0  0
  -30.1545  -15.8180   23.1717 C   0  0  0  0  0  0  0  0  0  0  0  0
  -31.1955  -17.8383   22.1541 C   0  0  0  0  0  0  0  0  0  0  0  0
  -18.3949  -17.0300   21.6349 C   0  0  1  0  0  0  0  0  0  0  0  0
  -16.8260  -14.1205   19.7794 C   0  0  2  0  0  0  0  0  0  0  0  0
  -17.7847  -17.5435   22.9696 C   0  0  0  0  0  0  0  0  0  0  0  0
  -27.4348  -24.8765   19.9882 N   0  0  0  0  0  0  0  0  0  0  0  0
  -28.4081  -14.8878   21.1757 N   0  0  0  0  0  0  0  0  0  0  0  0
  -28.5835  -24.2219   19.7472 N   0  0  0  0  0  0  0  0  0  0  0  0
  -20.0998  -18.2538   20.3236 N   0  0  0  0  0  0  0  0  0  0  0  0
  -28.9226  -20.6947   21.1815 N   0  0  0  0  0  0  0  0  0  0  0  0
  -30.8726  -24.5498   19.2341 N   0  0  0  0  0  0  0  0  0  0  0  0
  -29.2526  -28.7567   19.5060 N   0  0  0  0  0  0  0  0  0  0  0  0
  -20.8749  -21.7358   20.2539 N   0  0  0  0  0  0  0  0  0  0  0  0
  -17.5225  -16.1324   20.8854 N   0  0  0  0  0  0  0  0  0  0  0  0
  -17.4354  -13.1892   18.7882 N   0  3  0  0  0  0  0  0  0  0  0  0
  -31.0645  -16.3353   22.1201 N   0  3  1  0  0  0  0  0  0  0  0  0
  -31.1323  -27.5080   19.0984 O   0  0  0  0  0  0  0  0  0  0  0  0
  -21.6381  -19.9931   21.5966 O   0  0  0  0  0  0  0  0  0  0  0  0
  -31.0971  -20.5076   21.9801 O   0  0  0  0  0  0  0  0  0  0  0  0
  -17.8642  -18.9155   20.2972 O   0  0  0  0  0  0  0  0  0  0  0  0
  -18.9886  -14.3365   20.8347 O   0  0  0  0  0  0  0  0  0  0  0  0
  -23.9916  -30.1928   20.6439 O   0  0  0  0  0  0  0  0  0  0  0  0
  -25.6521  -15.5698   20.1798 O   0  0  0  0  0  0  0  0  0  1  0  0
  -20.5726  -29.7152   24.9434 F   0  0  0  0  0  0  0  0  0  0  0  0
  -23.9207  -32.1239   22.6209 F   0  0  0  0  0  0  0  0  0  0  0  0
  1  2  1  0  0  0  0
  1  5  2  0  0  0  0
  2  6  2  0  0  0  0
  3  8  2  0  0  0  0
  3 17  1  0  0  0  0
  4  9  1  0  0  0  0
  4 17  2  0  0  0  0
  5 19  1  0  0  0  0
  6 21  1  0  0  0  0
  7 10  2  0  0  0  0
  7 20  1  0  0  0  0
  8 24  1  0  0  0  0
  9 24  2  0  0  0  0
 10 25  1  0  0  0  0
 11 12  2  0  0  0  0
 11 26  1  0  0  0  0
 12 27  1  0  0  0  0
 13 22  1  0  0  0  0
 13 25  2  0  0  0  0
 14 23  1  0  0  0  0
 14 30  2  0  0  0  0
 15 23  2  0  0  0  0
 15 31  1  0  0  0  0
 16 27  2  0  0  0  0
 16 28  1  0  0  0  0
 17 29  1  0  0  0  0
 18 29  1  0  0  0  0
 18 32  2  0  0  0  0
 18 33  1  0  0  0  0
 19 21  2  0  0  0  0
 19 38  1  0  0  0  0
 20 22  2  0  0  0  0
 20 39  1  0  0  0  0
 21 47  1  0  0  0  0
 22 40  1  0  0  0  0
 23 50  1  0  0  0  0
 24 81  1  0  0  0  0
 25 82  1  0  0  0  0
 26 28  2  0  0  0  0
 26 81  1  0  0  0  0
 27 83  1  0  0  0  0
 28 84  1  0  0  0  0
 29 65  2  0  0  0  0
 30 57  1  0  0  0  0
 30 66  1  0  0  0  0
 31 58  1  0  0  0  0
 31 66  2  0  0  0  0
 32 67  1  0  0  0  0
 32 70  1  0  0  0  0
 33 71  1  0  0  0  0
 33 76  2  0  0  0  0
 34 48  1  0  0  0  0
 34 72  1  0  0  0  0
 34 77  2  0  0  0  0
 35 59  1  0  0  0  0
 35 69  1  0  0  0  0
 35 78  2  0  0  0  0
 36 62  1  0  0  0  0
 36 68  1  0  0  0  0
 36 79  2  0  0  0  0
 37 63  1  0  0  0  0
 37 73  1  0  0  0  0
 37 80  2  0  0  0  0
 38 41  1  0  0  0  0
 39 48  1  0  0  0  0
 40 68  1  0  0  0  0
 41 43  1  0  0  0  0
 42 44  1  0  0  0  0
 42 45  1  0  0  0  0
 43 47  1  0  0  0  0
 44 49  1  0  0  0  0
 45 69  1  0  0  0  0
 46 49  1  0  0  0  0
 46 69  1  0  0  0  0
 47 72  1  0  0  0  0
 48 68  1  0  0  0  0
 49 67  1  0  0  0  0
 51 63  1  0  0  0  0
 52 64  1  0  0  0  0
 53 64  1  0  0  0  0
 54 64  1  0  0  0  0
 55 74  1  0  0  0  0
 56 75  1  0  0  0  0
 57 60  1  0  0  0  0
 58 82  1  0  0  0  0
 59 61  1  0  0  0  0
 60 75  1  0  0  0  0
 61 75  1  0  0  0  0
 62 64  1  0  0  0  0
 62 73  1  0  0  0  0
 63 74  1  0  0  0  0
 65 67  1  0  0  0  0
M  CHG  2  74   1  75   1
M  ISO  4  35 100  58 101  59 100  82 101
M  END
> <Batch ID>
0052

> <Smiles>
CNC(C)C(=O)NC(C(=O)N1Cc2cc([101O:1][101CH2:1]c3cc(C)cc(CCN(C)C[100CH2:0][100C:0](=O)N4CCCC(n5nc(-c6ccc(Oc7ccc(F)cc7F)cc6)c(C(N)=O)c5N)C4)n3)ccc2CC1C(=O)NC1CCCc2ccccc21)C(C)(C)C

> <Shape>
0.215

> <Color>
0.045

> <Negative vol penalty>
0.000

$$$$

  -OEChem-04052317363D

 85 93  0     1  0  0  0  0  0999 V2000
  -16.2919  -22.3634   29.4098 C   0  0  0  0  0  0  0  0  0  0  0  0
  -17.3762  -21.9378   28.6492 C   0  0  0  0  0  0  0  0  0  0  0  0
  -23.1535   -9.8631   19.9558 C   0  0  0  0  0  0  0  0  0  0  0  0
  -23.7946   -9.9666   22.2829 C   0  0  0  0  0  0  0  0  0  0  0  0
  -16.4924  -22.8261   30.7097 C   0  0  0  0  0  0  0  0  0  0  0  0
  -18.6619  -21.9756   29.1878 C   0  0  0  0  0  0  0  0  0  0  0  0
  -21.2849  -17.7459   28.2530 C   0  0  0  0  0  0  0  0  0  0  0  0
  -22.4319   -8.6961   20.2065 C   0  0  0  0  0  0  0  0  0  0  0  0
  -23.0729   -8.7996   22.5336 C   0  0  0  0  0  0  0  0  0  0  0  0
  -21.8309  -17.6039   26.9780 C   0  0  0  0  0  0  0  0  0  0  0  0
  -23.4889   -5.4721   22.1028 C   0  0  0  0  0  0  0  0  0  0  0  0
  -24.0966   -4.4897   22.8846 C   0  0  0  0  0  0  0  0  0  0  0  0
  -27.4858  -13.4959   26.4043 C   0  0  0  0  0  0  0  0  0  0  0  0
  -23.9773  -18.3066   27.8256 C   0  0  0  0  0  0  0  0  0  0  0  0
  -22.3057   -4.6650   24.4968 C   0  0  0  0  0  0  0  0  0  0  0  0
  -26.7368  -14.0471   25.3882 C   0  0  0  0  0  0  0  0  0  0  0  0
  -23.8350  -10.4984   20.9940 C   0  0  0  0  0  0  0  0  0  0  0  0
  -24.1085  -13.0278   20.8071 C   0  0  0  0  0  0  0  0  0  0  0  0
  -17.7800  -22.8606   31.2678 C   0  0  0  0  0  0  0  0  0  0  0  0
  -22.0798  -18.1805   29.3234 C   0  0  0  0  0  0  0  0  0  0  0  0
  -18.8799  -22.4405   30.4958 C   0  0  0  0  0  0  0  0  0  0  0  0
  -23.4396  -18.4508   29.1137 C   0  0  0  0  0  0  0  0  0  0  0  0
  -28.5405  -14.3977   26.6895 C   0  0  0  0  0  0  0  0  0  0  0  0
  -22.3915   -8.1644   21.4954 C   0  0  0  0  0  0  0  0  0  0  0  0
  -23.1766  -17.8871   26.7636 C   0  0  0  0  0  0  0  0  0  0  0  0
  -22.2897   -6.0511   22.5181 C   0  0  0  0  0  0  0  0  0  0  0  0
  -23.5050   -4.0861   24.0815 C   0  0  0  0  0  0  0  0  0  0  0  0
  -21.6981   -5.6475   23.7150 C   0  0  0  0  0  0  0  0  0  0  0  0
  -24.5811  -11.7036   20.7356 C   0  0  0  0  0  0  0  0  0  0  0  0
  -28.4039  -15.4727   25.8391 C   0  0  0  0  0  0  0  0  0  0  0  0
  -25.1954  -13.7987   20.4743 C   0  0  0  0  0  0  0  0  0  0  0  0
  -22.8037  -13.5172   21.1443 C   0  0  0  0  0  0  0  0  0  0  0  0
  -22.0427  -20.6935   31.2693 C   0  0  0  0  0  0  0  0  0  0  0  0
  -30.9601  -13.8364   21.1918 C   0  0  0  0  0  0  0  0  0  0  0  0
  -24.4468  -19.0938   32.7469 C   0  0  0  0  0  0  0  0  0  0  0  0
  -26.9514  -16.7856   32.5331 C   0  0  0  0  0  0  0  0  0  0  0  0
  -17.9530  -23.4133   32.6604 C   0  0  0  0  0  0  0  0  0  0  0  0
  -21.4820  -18.3028   30.6982 C   0  0  0  0  0  0  0  0  0  0  0  0
  -24.3405  -18.9010   30.2336 C   0  0  0  0  0  0  0  0  0  0  0  0
  -19.3010  -23.0696   33.2890 C   0  0  0  0  0  0  0  0  0  0  0  0
  -29.4275  -13.0135   18.0590 C   0  0  0  0  0  0  0  0  0  0  0  0
  -20.4326  -23.3260   32.2988 C   0  0  0  0  0  0  0  0  0  0  0  0
  -27.9835  -12.6894   18.4400 C   0  0  0  0  0  0  0  0  0  0  0  0
  -30.4042  -12.5684   19.1430 C   0  0  0  0  0  0  0  0  0  0  0  0
  -28.6583  -12.7988   20.8808 C   0  0  0  0  0  0  0  0  0  0  0  0
  -20.2867  -22.4431   31.0536 C   0  0  1  0  0  0  0  0  0  0  0  0
  -22.2632  -19.2463   31.6076 C   0  0  1  0  0  0  0  0  0  0  0  0
  -27.6363  -13.2598   19.8265 C   0  0  2  0  0  0  0  0  0  0  0  0
  -29.5892  -14.2120   27.7119 C   0  0  0  0  0  0  0  0  0  0  0  0
  -28.7697  -15.7198   33.8952 C   0  0  0  0  0  0  0  0  0  0  0  0
  -26.1276  -21.6265   32.4805 C   0  0  0  0  0  0  0  0  0  0  0  0
  -28.1593  -20.2453   32.9631 C   0  0  0  0  0  0  0  0  0  0  0  0
  -26.3562  -20.4488   34.6749 C   0  0  0  0  0  0  0  0  0  0  0  0
  -25.7754  -14.0894   32.2064 C   0  0  0  0  0  0  0  0  0  0  0  0
  -32.3033  -15.9339   25.4754 C   0  0  0  0  0  0  0  0  0  0  0  0
  -29.2257  -16.6945   25.7070 C   0  0  0  0  0  0  0  0  0  0  0  0
  -30.4971  -14.3684   22.5247 C   0  0  0  0  0  0  0  0  0  0  0  0
  -25.3227  -16.5836   24.1778 C   0  0  0  0  0  0  0  0  0  0  0  0
  -26.7826  -16.1700   23.9790 C   0  0  0  0  0  0  0  0  0  0  0  0
  -30.1548  -16.7114   24.4855 C   0  0  0  0  0  0  0  0  0  0  0  0
  -31.6080  -15.1322   23.2225 C   0  0  0  0  0  0  0  0  0  0  0  0
  -25.0940  -17.4033   25.4424 C   0  0  0  0  0  0  0  0  0  1  0  0
  -25.9493  -19.0538   32.6059 C   0  0  1  0  0  0  0  0  0  0  0  0
  -27.3255  -15.6191   33.4296 C   0  0  2  0  0  0  0  0  0  0  0  0
  -26.6309  -20.3370   33.1594 C   0  0  0  0  0  0  0  0  0  0  0  0
  -25.8679  -11.6336   20.3848 N   0  0  0  0  0  0  0  0  0  0  0  0
  -27.3040  -15.2488   25.0528 N   0  0  0  0  0  0  0  0  0  0  0  0
  -26.2132  -12.9235   20.2327 N   0  0  0  0  0  0  0  0  0  0  0  0
  -23.7078  -19.0116   31.5583 N   0  0  0  0  0  0  0  0  0  0  0  0
  -30.0273  -13.1127   20.4487 N   0  0  0  0  0  0  0  0  0  0  0  0
  -25.3703  -15.1330   20.3675 N   0  0  0  0  0  0  0  0  0  0  0  0
  -21.8029  -12.5884   21.4605 N   0  0  0  0  0  0  0  0  0  0  0  0
  -20.7214  -21.0923   31.3380 N   0  0  0  0  0  0  0  0  0  0  0  0
  -26.3870  -17.8198   33.2493 N   0  0  0  0  0  0  0  0  0  0  0  0
  -27.1554  -14.3303   32.7008 N   0  3  0  0  0  0  0  0  0  0  0  0
  -31.1371  -15.6031   24.5767 N   0  3  1  0  0  0  0  0  0  0  0  0
  -22.5290  -14.7411   21.1486 O   0  0  0  0  0  0  0  0  0  0  0  0
  -23.0005  -21.3967   30.9697 O   0  0  0  0  0  0  0  0  0  0  0  0
  -32.1157  -14.0608   20.8225 O   0  0  0  0  0  0  0  0  0  0  0  0
  -23.9472  -19.1872   33.8709 O   0  0  0  0  0  0  0  0  0  0  0  0
  -27.1444  -16.7814   31.3193 O   0  0  0  0  0  0  0  0  0  0  0  0
  -21.6872   -7.0257   21.7404 O   0  0  0  0  0  0  0  0  0  0  0  0
  -23.7119  -17.7500   25.5200 O   0  0  0  0  0  0  0  0  0  1  0  0
  -24.0878   -3.1416   24.8314 F   0  0  0  0  0  0  0  0  0  0  0  0
  -20.5454   -6.1991   24.1186 F   0  0  0  0  0  0  0  0  0  0  0  0
  1  2  1  0  0  0  0
  1  5  2  0  0  0  0
  2  6  2  0  0  0  0
  3  8  2  0  0  0  0
  3 17  1  0  0  0  0
  4  9  1  0  0  0  0
  4 17  2  0  0  0  0
  5 19  1  0  0  0  0
  6 21  1  0  0  0  0
  7 10  2  0  0  0  0
  7 20  1  0  0  0  0
  8 24  1  0  0  0  0
  9 24  2  0  0  0  0
 10 25  1  0  0  0  0
 11 12  2  0  0  0  0
 11 26  1  0  0  0  0
 12 27  1  0  0  0  0
 13 16  2  0  0  0  0
 13 23  1  0  0  0  0
 14 22  1  0  0  0  0
 14 25  2  0  0  0  0
 15 27  2  0  0  0  0
 15 28  1  0  0  0  0
 16 67  1  0  0  0  0
 17 29  1  0  0  0  0
 18 29  1  0  0  0  0
 18 31  2  0  0  0  0
 18 32  1  0  0  0  0
 19 21  2  0  0  0  0
 19 37  1  0  0  0  0
 20 22  2  0  0  0  0
 20 38  1  0  0  0  0
 21 46  1  0  0  0  0
 22 39  1  0  0  0  0
 23 30  2  0  0  0  0
 23 49  1  0  0  0  0
 24 82  1  0  0  0  0
 25 83  1  0  0  0  0
 26 28  2  0  0  0  0
 26 82  1  0  0  0  0
 27 84  1  0  0  0  0
 28 85  1  0  0  0  0
 29 66  2  0  0  0  0
 30 56  1  0  0  0  0
 30 67  1  0  0  0  0
 31 68  1  0  0  0  0
 31 71  1  0  0  0  0
 32 72  1  0  0  0  0
 32 77  2  0  0  0  0
 33 47  1  0  0  0  0
 33 73  1  0  0  0  0
 33 78  2  0  0  0  0
 34 57  1  0  0  0  0
 34 70  1  0  0  0  0
 34 79  2  0  0  0  0
 35 63  1  0  0  0  0
 35 69  1  0  0  0  0
 35 80  2  0  0  0  0
 36 64  1  0  0  0  0
 36 74  1  0  0  0  0
 36 81  2  0  0  0  0
 37 40  1  0  0  0  0
 38 47  1  0  0  0  0
 39 69  1  0  0  0  0
 40 42  1  0  0  0  0
 41 43  1  0  0  0  0
 41 44  1  0  0  0  0
 42 46  1  0  0  0  0
 43 48  1  0  0  0  0
 44 70  1  0  0  0  0
 45 48  1  0  0  0  0
 45 70  1  0  0  0  0
 46 73  1  0  0  0  0
 47 69  1  0  0  0  0
 48 68  1  0  0  0  0
 50 64  1  0  0  0  0
 51 65  1  0  0  0  0
 52 65  1  0  0  0  0
 53 65  1  0  0  0  0
 54 75  1  0  0  0  0
 55 76  1  0  0  0  0
 56 60  1  0  0  0  0
 57 61  1  0  0  0  0
 58 59  1  0  0  0  0
 58 62  1  0  0  0  0
 59 67  1  0  0  0  0
 60 76  1  0  0  0  0
 61 76  1  0  0  0  0
 62 83  1  0  0  0  0
 63 65  1  0  0  0  0
 63 74  1  0  0  0  0
 64 75  1  0  0  0  0
 66 68  1  0  0  0  0
M  CHG  2  75   1  76   1
M  ISO  4  34 100  57 100  62 101  83 101
M  END
> <Batch ID>
0052

> <Smiles>
CNC(C)C(=O)NC(C(=O)N1Cc2cc([101O:1][101CH2:1]CCn3ccc(C)c3CCN(C)C[100CH2:0][100C:0](=O)N3CCCC(n4nc(-c5ccc(Oc6ccc(F)cc6F)cc5)c(C(N)=O)c4N)C3)ccc2CC1C(=O)NC1CCCc2ccccc21)C(C)(C)C

> <Shape>
0.151

> <Color>
0.188

> <Negative vol penalty>
0.000

$$$$

  -OEChem-04052317363D

 83 91  0     1  0  0  0  0  0999 V2000
  -26.5882  -30.1531   24.7003 C   0  0  0  0  0  0  0  0  0  0  0  0
  -26.8701  -28.7956   24.5856 C   0  0  0  0  0  0  0  0  0  0  0  0
  -22.6057  -24.4275   19.0433 C   0  0  0  0  0  0  0  0  0  0  0  0
  -21.5580  -23.3735   20.9481 C   0  0  0  0  0  0  0  0  0  0  0  0
  -26.2338  -30.8883   23.5699 C   0  0  0  0  0  0  0  0  0  0  0  0
  -26.7966  -28.1722   23.3404 C   0  0  0  0  0  0  0  0  0  0  0  0
  -30.3380  -23.6160   21.2898 C   0  0  0  0  0  0  0  0  0  0  0  0
  -21.6537  -25.4461   19.0833 C   0  0  0  0  0  0  0  0  0  0  0  0
  -20.6060  -24.3922   20.9882 C   0  0  0  0  0  0  0  0  0  0  0  0
  -30.1464  -22.2367   21.2223 C   0  0  0  0  0  0  0  0  0  0  0  0
  -20.4194  -27.5829   22.0858 C   0  0  0  0  0  0  0  0  0  0  0  0
  -20.1139  -28.1339   23.3303 C   0  0  0  0  0  0  0  0  0  0  0  0
  -29.4167  -22.4561   18.9335 C   0  0  0  0  0  0  0  0  0  0  0  0
  -17.8097  -27.4583   23.0639 C   0  0  0  0  0  0  0  0  0  0  0  0
  -28.6220  -17.4060   21.6164 C   0  0  0  0  0  0  0  0  0  0  0  0
  -22.5578  -23.3911   19.9757 C   0  0  0  0  0  0  0  0  0  0  0  0
  -24.7810  -22.3067   20.5995 C   0  0  0  0  0  0  0  0  0  0  0  0
  -26.1654  -30.2757   22.3087 C   0  0  0  0  0  0  0  0  0  0  0  0
  -30.0595  -24.4284   20.1813 C   0  0  0  0  0  0  0  0  0  0  0  0
  -26.4397  -28.8996   22.1923 C   0  0  0  0  0  0  0  0  0  0  0  0
  -29.6081  -23.8452   18.9887 C   0  0  0  0  0  0  0  0  0  0  0  0
  -20.6539  -25.4285   20.0558 C   0  0  0  0  0  0  0  0  0  0  0  0
  -29.6829  -21.6569   20.0450 C   0  0  0  0  0  0  0  0  0  0  0  0
  -19.4199  -26.9697   21.3303 C   0  0  0  0  0  0  0  0  0  0  0  0
  -18.8091  -28.0715   23.8193 C   0  0  0  0  0  0  0  0  0  0  0  0
  -18.1151  -26.9074   21.8193 C   0  0  0  0  0  0  0  0  0  0  0  0
  -23.5406  -22.3382   19.9345 C   0  0  0  0  0  0  0  0  0  0  0  0
  -29.5496  -18.0995   20.8661 C   0  0  0  0  0  0  0  0  0  0  0  0
  -28.4643  -16.0747   21.2890 C   0  0  0  0  0  0  0  0  0  0  0  0
  -25.3337  -21.1023   20.2382 C   0  0  0  0  0  0  0  0  0  0  0  0
  -30.0285  -16.2409   19.6480 C   0  0  0  0  0  0  0  0  0  0  0  0
  -25.3799  -23.2790   21.4664 C   0  0  0  0  0  0  0  0  0  0  0  0
  -28.0371  -26.8100   19.5972 C   0  0  0  0  0  0  0  0  0  0  0  0
  -29.6504  -26.9728   16.7877 C   0  0  0  0  0  0  0  0  0  0  0  0
  -31.5811  -25.3919   14.4596 C   0  0  0  0  0  0  0  0  0  0  0  0
  -24.8874  -15.6075   19.3704 C   0  0  0  0  0  0  0  0  0  0  0  0
  -25.7319  -31.1012   21.1233 C   0  0  0  0  0  0  0  0  0  0  0  0
  -30.2969  -25.9115   20.2617 C   0  0  0  0  0  0  0  0  0  0  0  0
  -29.3138  -24.6709   17.7639 C   0  0  0  0  0  0  0  0  0  0  0  0
  -26.0416  -30.4468   19.7793 C   0  0  0  0  0  0  0  0  0  0  0  0
  -23.9338  -17.7654   16.7038 C   0  0  0  0  0  0  0  0  0  0  0  0
  -25.6217  -28.9804   19.7902 C   0  0  0  0  0  0  0  0  0  0  0  0
  -23.8429  -19.1430   17.3627 C   0  0  0  0  0  0  0  0  0  0  0  0
  -23.4577  -16.6586   17.6419 C   0  0  0  0  0  0  0  0  0  0  0  0
  -24.0275  -18.0148   19.6192 C   0  0  0  0  0  0  0  0  0  0  0  0
  -26.3950  -28.1930   20.8548 C   0  0  1  0  0  0  0  0  0  0  0  0
  -29.4914  -26.7021   19.2354 C   0  0  1  0  0  0  0  0  0  0  0  0
  -24.5495  -19.1575   18.7315 C   0  0  2  0  0  0  0  0  0  0  0  0
  -30.8119  -15.5924   18.5574 C   0  0  0  0  0  0  0  0  0  0  0  0
  -32.7135  -25.7723   12.2527 C   0  0  0  0  0  0  0  0  0  0  0  0
  -28.1832  -14.0555   22.7422 C   0  0  0  0  0  0  0  0  0  0  0  0
  -26.9555  -26.7656   15.3720 C   0  0  0  0  0  0  0  0  0  0  0  0
  -28.1842  -26.1977   13.2658 C   0  0  0  0  0  0  0  0  0  0  0  0
  -28.5425  -28.4114   14.3585 C   0  0  0  0  0  0  0  0  0  0  0  0
  -34.2550  -24.8505   15.6068 C   0  0  0  0  0  0  0  0  0  0  0  0
  -29.7915  -19.5531   21.1487 C   0  0  0  0  0  0  0  0  0  1  0  0
  -26.3222  -14.6982   21.1797 C   0  0  0  0  0  0  0  0  0  0  0  0
  -29.4999  -26.3310   15.4297 C   0  0  1  0  0  0  0  0  0  0  0  0
  -32.8654  -25.8081   13.7655 C   0  0  2  0  0  0  0  0  0  0  0  0
  -27.4847  -15.2425   22.0468 C   0  0  2  0  0  0  0  0  0  0  0  0
  -28.2991  -26.9108   14.6300 C   0  0  0  0  0  0  0  0  0  0  0  0
  -23.3182  -21.2412   19.2058 N   0  0  0  0  0  0  0  0  0  0  0  0
  -30.2732  -17.5463   19.8707 N   0  0  0  0  0  0  0  0  0  0  0  0
  -29.1534  -15.4575   20.3069 N   0  0  0  0  0  0  0  0  0  0  0  0
  -24.4263  -20.5090   19.4107 N   0  0  0  0  0  0  0  0  0  0  0  0
  -29.5556  -26.1172   17.8944 N   0  0  0  0  0  0  0  0  0  0  0  0
  -24.1679  -16.7271   18.9213 N   0  0  0  0  0  0  0  0  0  0  0  0
  -26.5026  -20.5036   20.5507 N   0  0  0  0  0  0  0  0  0  0  0  0
  -24.6756  -24.4612   21.7322 N   0  0  0  0  0  0  0  0  0  0  0  0
  -27.7344  -27.8988   20.3923 N   0  0  0  0  0  0  0  0  0  0  0  0
  -30.7891  -26.4791   14.7630 N   0  0  0  0  0  0  0  0  0  0  0  0
  -25.5367  -15.7591   20.5895 N   0  0  0  0  0  0  0  0  0  0  0  0
  -33.9799  -24.8956   14.1476 N   0  3  0  0  0  0  0  0  0  0  0  0
  -26.5136  -23.1119   21.9767 O   0  0  0  0  0  0  0  0  0  0  0  0
  -27.2477  -25.9685   19.1842 O   0  0  0  0  0  0  0  0  0  0  0  0
  -29.8521  -28.1874   16.8636 O   0  0  0  0  0  0  0  0  0  0  0  0
  -31.3062  -24.2194   14.7047 O   0  0  0  0  0  0  0  0  0  0  0  0
  -24.9513  -14.5529   18.7296 O   0  0  0  0  0  0  0  0  0  0  0  0
  -19.7249  -26.4225   20.0953 O   0  0  0  0  0  0  0  0  0  0  0  0
  -29.4944  -20.3109   19.9766 O   0  0  0  0  0  0  0  0  0  1  0  0
  -18.5163  -28.5993   25.0151 F   0  0  0  0  0  0  0  0  0  0  0  0
  -17.1510  -26.3185   21.0986 F   0  0  0  0  0  0  0  0  0  0  0  0
  -26.8703  -15.9340   23.0783 F   0  0  0  0  0  0  0  0  0  0  0  0
  1  2  1  0  0  0  0
  1  5  2  0  0  0  0
  2  6  2  0  0  0  0
  3  8  2  0  0  0  0
  3 16  1  0  0  0  0
  4  9  1  0  0  0  0
  4 16  2  0  0  0  0
  5 18  1  0  0  0  0
  6 20  1  0  0  0  0
  7 10  2  0  0  0  0
  7 19  1  0  0  0  0
  8 22  1  0  0  0  0
  9 22  2  0  0  0  0
 10 23  1  0  0  0  0
 11 12  2  0  0  0  0
 11 24  1  0  0  0  0
 12 25  1  0  0  0  0
 13 21  1  0  0  0  0
 13 23  2  0  0  0  0
 14 25  2  0  0  0  0
 14 26  1  0  0  0  0
 15 28  1  0  0  0  0
 15 29  2  0  0  0  0
 16 27  1  0  0  0  0
 17 27  1  0  0  0  0
 17 30  2  0  0  0  0
 17 32  1  0  0  0  0
 18 20  2  0  0  0  0
 18 37  1  0  0  0  0
 19 21  2  0  0  0  0
 19 38  1  0  0  0  0
 20 46  1  0  0  0  0
 21 39  1  0  0  0  0
 22 79  1  0  0  0  0
 23 80  1  0  0  0  0
 24 26  2  0  0  0  0
 24 79  1  0  0  0  0
 25 81  1  0  0  0  0
 26 82  1  0  0  0  0
 27 62  2  0  0  0  0
 28 56  1  0  0  0  0
 28 63  2  0  0  0  0
 29 60  1  0  0  0  0
 29 64  1  0  0  0  0
 30 65  1  0  0  0  0
 30 68  1  0  0  0  0
 31 49  1  0  0  0  0
 31 63  1  0  0  0  0
 31 64  2  0  0  0  0
 32 69  1  0  0  0  0
 32 74  2  0  0  0  0
 33 47  1  0  0  0  0
 33 70  1  0  0  0  0
 33 75  2  0  0  0  0
 34 58  1  0  0  0  0
 34 66  1  0  0  0  0
 34 76  2  0  0  0  0
 35 59  1  0  0  0  0
 35 71  1  0  0  0  0
 35 77  2  0  0  0  0
 36 67  1  0  0  0  0
 36 72  1  0  0  0  0
 36 78  2  0  0  0  0
 37 40  1  0  0  0  0
 38 47  1  0  0  0  0
 39 66  1  0  0  0  0
 40 42  1  0  0  0  0
 41 43  1  0  0  0  0
 41 44  1  0  0  0  0
 42 46  1  0  0  0  0
 43 48  1  0  0  0  0
 44 67  1  0  0  0  0
 45 48  1  0  0  0  0
 45 67  1  0  0  0  0
 46 70  1  0  0  0  0
 47 66  1  0  0  0  0
 48 65  1  0  0  0  0
 50 59  1  0  0  0  0
 51 60  1  0  0  0  0
 52 61  1  0  0  0  0
 53 61  1  0  0  0  0
 54 61  1  0  0  0  0
 55 73  1  0  0  0  0
 56 80  1  0  0  0  0
 57 60  1  0  0  0  0
 57 72  1  0  0  0  0
 58 61  1  0  0  0  0
 58 71  1  0  0  0  0
 59 73  1  0  0  0  0
 60 83  1  0  0  0  0
 62 65  1  0  0  0  0
M  CHG  1  73   1
M  ISO  4  36 100  56 101  72 100  80 101
M  END
> <Batch ID>
0052

> <Smiles>
CNC(C)C(=O)NC(C(=O)N1Cc2cc([101O:1][101CH2:1]c3cc(C(C)(F)C[100NH:0][100C:0](=O)N4CCCC(n5nc(-c6ccc(Oc7ccc(F)cc7F)cc6)c(C(N)=O)c5N)C4)nc(C)n3)ccc2CC1C(=O)NC1CCCc2ccccc21)C(C)(C)C

> <Shape>
0.214

> <Color>
0.074

> <Negative vol penalty>
0.000

$$$$

  -OEChem-04052317363D

 78 86  0     1  0  0  0  0  0999 V2000
  -20.5496  -18.4697   20.3824 C   0  0  0  0  0  0  0  0  0  0  0  0
  -21.9324  -18.5447   20.5158 C   0  0  0  0  0  0  0  0  0  0  0  0
  -25.7782  -31.3262   22.3290 C   0  0  0  0  0  0  0  0  0  0  0  0
  -26.6811  -32.0546   20.2097 C   0  0  0  0  0  0  0  0  0  0  0  0
  -19.8636  -17.3550   20.8627 C   0  0  0  0  0  0  0  0  0  0  0  0
  -22.6298  -17.5055   21.1307 C   0  0  0  0  0  0  0  0  0  0  0  0
  -26.8179  -16.2097   18.5957 C   0  0  0  0  0  0  0  0  0  0  0  0
  -25.8628  -32.6314   22.8136 C   0  0  0  0  0  0  0  0  0  0  0  0
  -26.7656  -33.3598   20.6943 C   0  0  0  0  0  0  0  0  0  0  0  0
  -27.9321  -17.0348   18.7427 C   0  0  0  0  0  0  0  0  0  0  0  0
  -24.1060  -35.5077   22.5430 C   0  0  0  0  0  0  0  0  0  0  0  0
  -23.0098  -36.0116   23.2430 C   0  0  0  0  0  0  0  0  0  0  0  0
  -28.8631  -15.4831   20.3380 C   0  0  0  0  0  0  0  0  0  0  0  0
  -24.4043  -36.3436   25.1878 C   0  0  0  0  0  0  0  0  0  0  0  0
  -29.2220  -21.4903   22.4510 C   0  0  0  0  0  0  0  0  0  0  0  0
  -29.1187  -21.4184   20.1184 C   0  0  0  0  0  0  0  0  0  0  0  0
  -26.1874  -31.0378   21.0271 C   0  0  0  0  0  0  0  0  0  0  0  0
  -28.6987  -22.0180   21.2883 C   0  0  0  0  0  0  0  0  0  0  0  0
  -25.0111  -29.0991   19.8586 C   0  0  0  0  0  0  0  0  0  0  0  0
  -20.5541  -16.2972   21.4751 C   0  0  0  0  0  0  0  0  0  0  0  0
  -26.7127  -15.0185   19.3281 C   0  0  0  0  0  0  0  0  0  0  0  0
  -21.9522  -16.3762   21.6208 C   0  0  0  0  0  0  0  0  0  0  0  0
  -27.7477  -14.6434   20.1965 C   0  0  0  0  0  0  0  0  0  0  0  0
  -26.3564  -33.6482   21.9963 C   0  0  0  0  0  0  0  0  0  0  0  0
  -28.9535  -16.6730   19.6161 C   0  0  0  0  0  0  0  0  0  0  0  0
  -25.3514  -35.4217   23.1654 C   0  0  0  0  0  0  0  0  0  0  0  0
  -23.1589  -36.4296   24.5654 C   0  0  0  0  0  0  0  0  0  0  0  0
  -25.5005  -35.8397   24.4878 C   0  0  0  0  0  0  0  0  0  0  0  0
  -26.1009  -29.6896   20.5260 C   0  0  0  0  0  0  0  0  0  0  0  0
  -25.4250  -27.8166   19.5932 C   0  0  0  0  0  0  0  0  0  0  0  0
  -30.4218  -19.9589   21.2754 C   0  0  0  0  0  0  0  0  0  0  0  0
  -27.7564  -23.1437   21.2960 C   0  0  0  0  0  0  0  0  0  0  0  0
  -23.7385  -29.6597   19.5096 C   0  0  0  0  0  0  0  0  0  0  0  0
  -24.6900  -13.8973   21.5088 C   0  0  0  0  0  0  0  0  0  0  0  0
  -26.4353  -11.1845   21.1668 C   0  0  0  0  0  0  0  0  0  0  0  0
  -29.3925   -9.7356   20.2712 C   0  0  0  0  0  0  0  0  0  0  0  0
  -19.7641  -15.1342   22.0211 C   0  0  0  0  0  0  0  0  0  0  0  0
  -25.5168  -14.1263   19.1381 C   0  0  0  0  0  0  0  0  0  0  0  0
  -27.6924  -13.3648   20.9906 C   0  0  0  0  0  0  0  0  0  0  0  0
  -20.6186  -13.9061   22.3241 C   0  0  0  0  0  0  0  0  0  0  0  0
  -29.9896  -25.6776   19.9698 C   0  0  0  0  0  0  0  0  0  0  0  0
  -21.8762  -14.3063   23.0890 C   0  0  0  0  0  0  0  0  0  0  0  0
  -29.0819  -26.9082   19.9614 C   0  0  0  0  0  0  0  0  0  0  0  0
  -29.7024  -24.7833   21.1720 C   0  0  0  0  0  0  0  0  0  0  0  0
  -27.3658  -25.5848   21.2777 C   0  0  0  0  0  0  0  0  0  0  0  0
  -22.7469  -15.2579   22.2596 C   0  0  1  0  0  0  0  0  0  0  0  0
  -25.2756  -13.1909   20.3189 C   0  0  1  0  0  0  0  0  0  0  0  0
  -27.5991  -26.5073   20.0687 C   0  0  1  0  0  0  0  0  0  0  0  0
  -30.5314   -7.5035   20.1362 C   0  0  0  0  0  0  0  0  0  0  0  0
  -26.8272  -11.2041   24.1927 C   0  0  0  0  0  0  0  0  0  0  0  0
  -28.6980   -9.5679   23.8910 C   0  0  0  0  0  0  0  0  0  0  0  0
  -26.3789   -8.9470   23.2135 C   0  0  0  0  0  0  0  0  0  0  0  0
  -29.7500   -9.9651   17.3423 C   0  0  0  0  0  0  0  0  0  0  0  0
  -31.3895  -18.8005   21.2666 C   0  0  0  0  0  0  0  0  0  0  0  0
  -30.6927  -17.4647   21.0319 C   0  0  0  0  0  0  0  0  0  1  0  0
  -27.6707  -10.6181   21.8239 C   0  0  1  0  0  0  0  0  0  0  0  0
  -29.7017   -8.5377   19.3914 C   0  0  2  0  0  0  0  0  0  0  0  0
  -27.3941  -10.1094   23.2669 C   0  0  0  0  0  0  0  0  0  0  0  0
  -30.0892  -20.4572   22.4814 N   0  0  0  0  0  0  0  0  0  0  0  0
  -29.9825  -20.3830   20.0750 N   0  0  0  0  0  0  0  0  0  0  0  0
  -27.1297  -28.8511   20.6756 N   0  0  0  0  0  0  0  0  0  0  0  0
  -26.6882  -27.7206   20.0985 N   0  0  0  0  0  0  0  0  0  0  0  0
  -28.2763  -24.4389   21.2335 N   0  0  0  0  0  0  0  0  0  0  0  0
  -26.4996  -12.5291   20.7750 N   0  0  0  0  0  0  0  0  0  0  0  0
  -24.8280  -26.7729   18.9794 N   0  0  0  0  0  0  0  0  0  0  0  0
  -23.4774  -30.9921   19.8572 N   0  0  0  0  0  0  0  0  0  0  0  0
  -23.4840  -14.5221   21.2548 N   0  0  0  0  0  0  0  0  0  0  0  0
  -28.1828   -9.5957   20.9178 N   0  0  0  0  0  0  0  0  0  0  0  0
  -30.4594   -8.9654   18.1815 N   0  3  0  0  0  0  0  0  0  0  0  0
  -26.5626  -22.8515   21.3475 O   0  0  0  0  0  0  0  0  0  0  0  0
  -22.8527  -28.9936   18.9220 O   0  0  0  0  0  0  0  0  0  0  0  0
  -25.2874  -13.8758   22.5785 O   0  0  0  0  0  0  0  0  0  0  0  0
  -25.4519  -10.4585   21.0005 O   0  0  0  0  0  0  0  0  0  0  0  0
  -30.1503  -10.6974   20.3773 O   0  0  0  0  0  0  0  0  0  0  0  0
  -26.4389  -34.9220   22.4688 O   0  0  0  0  0  0  0  0  0  0  0  0
  -30.0418  -17.4768   19.7620 O   0  0  0  0  0  0  0  0  0  1  0  0
  -22.1065  -36.9148   25.2371 F   0  0  0  0  0  0  0  0  0  0  0  0
  -26.6947  -35.7607   25.0906 F   0  0  0  0  0  0  0  0  0  0  0  0
  1  2  1  0  0  0  0
  1  5  2  0  0  0  0
  2  6  2  0  0  0  0
  3  8  2  0  0  0  0
  3 17  1  0  0  0  0
  4  9  1  0  0  0  0
  4 17  2  0  0  0  0
  5 20  1  0  0  0  0
  6 22  1  0  0  0  0
  7 10  2  0  0  0  0
  7 21  1  0  0  0  0
  8 24  1  0  0  0  0
  9 24  2  0  0  0  0
 10 25  1  0  0  0  0
 11 12  2  0  0  0  0
 11 26  1  0  0  0  0
 12 27  1  0  0  0  0
 13 23  1  0  0  0  0
 13 25  2  0  0  0  0
 14 27  2  0  0  0  0
 14 28  1  0  0  0  0
 15 18  1  0  0  0  0
 15 59  2  0  0  0  0
 16 18  2  0  0  0  0
 16 60  1  0  0  0  0
 17 29  1  0  0  0  0
 18 32  1  0  0  0  0
 19 29  1  0  0  0  0
 19 30  2  0  0  0  0
 19 33  1  0  0  0  0
 20 22  2  0  0  0  0
 20 37  1  0  0  0  0
 21 23  2  0  0  0  0
 21 38  1  0  0  0  0
 22 46  1  0  0  0  0
 23 39  1  0  0  0  0
 24 75  1  0  0  0  0
 25 76  1  0  0  0  0
 26 28  2  0  0  0  0
 26 75  1  0  0  0  0
 27 77  1  0  0  0  0
 28 78  1  0  0  0  0
 29 61  2  0  0  0  0
 30 62  1  0  0  0  0
 30 65  1  0  0  0  0
 31 54  1  0  0  0  0
 31 59  1  0  0  0  0
 31 60  2  0  0  0  0
 32 63  1  0  0  0  0
 32 70  2  0  0  0  0
 33 66  1  0  0  0  0
 33 71  2  0  0  0  0
 34 47  1  0  0  0  0
 34 67  1  0  0  0  0
 34 72  2  0  0  0  0
 35 56  1  0  0  0  0
 35 64  1  0  0  0  0
 35 73  2  0  0  0  0
 36 57  1  0  0  0  0
 36 68  1  0  0  0  0
 36 74  2  0  0  0  0
 37 40  1  0  0  0  0
 38 47  1  0  0  0  0
 39 64  1  0  0  0  0
 40 42  1  0  0  0  0
 41 43  1  0  0  0  0
 41 44  1  0  0  0  0
 42 46  1  0  0  0  0
 43 48  1  0  0  0  0
 44 63  1  0  0  0  0
 45 48  1  0  0  0  0
 45 63  1  0  0  0  0
 46 67  1  0  0  0  0
 47 64  1  0  0  0  0
 48 62  1  0  0  0  0
 49 57  1  0  0  0  0
 50 58  1  0  0  0  0
 51 58  1  0  0  0  0
 52 58  1  0  0  0  0
 53 69  1  0  0  0  0
 54 55  1  0  0  0  0
 55 76  1  0  0  0  0
 56 58  1  0  0  0  0
 56 68  1  0  0  0  0
 57 69  1  0  0  0  0
 61 62  1  0  0  0  0
M  CHG  1  69   1
M  ISO  4  18 100  32 100  55 101  76 101
M  END
> <Batch ID>
0052

> <Smiles>
CNC(C)C(=O)NC(C(=O)N1Cc2cc([101O:1][101CH2:1]Cc3nc[100c:0]([100C:0](=O)N4CCCC(n5nc(-c6ccc(Oc7ccc(F)cc7F)cc6)c(C(N)=O)c5N)C4)cn3)ccc2CC1C(=O)NC1CCCc2ccccc21)C(C)(C)C

> <Shape>
0.242

> <Color>
0.069

> <Negative vol penalty>
0.000

$$$$

  -OEChem-04052317363D

 86 94  0     1  0  0  0  0  0999 V2000
  -25.1946  -28.3533   20.1390 C   0  0  0  0  0  0  0  0  0  0  0  0
  -25.3341  -27.0028   20.4428 C   0  0  0  0  0  0  0  0  0  0  0  0
  -23.4051   -9.9376   19.8679 C   0  0  0  0  0  0  0  0  0  0  0  0
  -24.1157   -9.9562   22.1769 C   0  0  0  0  0  0  0  0  0  0  0  0
  -26.2357  -29.0368   19.5122 C   0  0  0  0  0  0  0  0  0  0  0  0
  -26.5145  -26.3348   20.1190 C   0  0  0  0  0  0  0  0  0  0  0  0
  -28.1759  -23.3885   23.8878 C   0  0  0  0  0  0  0  0  0  0  0  0
  -22.8316   -8.6799   20.0545 C   0  0  0  0  0  0  0  0  0  0  0  0
  -23.5422   -8.6985   22.3636 C   0  0  0  0  0  0  0  0  0  0  0  0
  -27.5384  -22.1613   24.0649 C   0  0  0  0  0  0  0  0  0  0  0  0
  -23.8728   -5.4689   20.2271 C   0  0  0  0  0  0  0  0  0  0  0  0
  -24.1043   -4.5005   19.2503 C   0  0  0  0  0  0  0  0  0  0  0  0
  -29.3451  -21.0621   22.9043 C   0  0  0  0  0  0  0  0  0  0  0  0
  -21.7274   -4.3365   18.8496 C   0  0  0  0  0  0  0  0  0  0  0  0
  -28.6781  -17.8524   26.8069 C   0  0  0  0  0  0  0  0  0  0  0  0
  -28.7391  -16.8098   24.8260 C   0  0  0  0  0  0  0  0  0  0  0  0
  -24.0472  -10.5758   20.9291 C   0  0  0  0  0  0  0  0  0  0  0  0
  -24.0222  -13.1266   20.9172 C   0  0  0  0  0  0  0  0  0  0  0  0
  -27.4332  -28.3791   19.1893 C   0  0  0  0  0  0  0  0  0  0  0  0
  -29.3995  -23.4632   23.2069 C   0  0  0  0  0  0  0  0  0  0  0  0
  -27.5721  -27.0098   19.4861 C   0  0  0  0  0  0  0  0  0  0  0  0
  -29.9973  -22.2912   22.7221 C   0  0  0  0  0  0  0  0  0  0  0  0
  -29.8769  -17.1780   26.7338 C   0  0  0  0  0  0  0  0  0  0  0  0
  -29.9155  -16.5183   25.4807 C   0  0  0  0  0  0  0  0  0  0  0  0
  -22.9001   -8.0603   21.3023 C   0  0  0  0  0  0  0  0  0  0  0  0
  -28.1216  -20.9982   23.5706 C   0  0  0  0  0  0  0  0  0  0  0  0
  -22.5686   -5.8711   20.5153 C   0  0  0  0  0  0  0  0  0  0  0  0
  -23.0316   -3.9343   18.5615 C   0  0  0  0  0  0  0  0  0  0  0  0
  -21.4959   -5.3049   19.8265 C   0  0  0  0  0  0  0  0  0  0  0  0
  -24.6403  -11.8748   20.7368 C   0  0  0  0  0  0  0  0  0  0  0  0
  -25.0006  -14.0402   20.6096 C   0  0  0  0  0  0  0  0  0  0  0  0
  -22.6833  -13.4361   21.3263 C   0  0  0  0  0  0  0  0  0  0  0  0
  -30.4036  -24.8867   20.5481 C   0  0  0  0  0  0  0  0  0  0  0  0
  -30.9984  -13.6785   20.6967 C   0  0  0  0  0  0  0  0  0  0  0  0
  -33.3005  -23.8036   21.5265 C   0  0  0  0  0  0  0  0  0  0  0  0
  -35.0794  -21.5408   23.3601 C   0  0  0  0  0  0  0  0  0  0  0  0
  -28.5125  -29.1483   18.4695 C   0  0  0  0  0  0  0  0  0  0  0  0
  -30.0874  -24.7913   23.0475 C   0  0  0  0  0  0  0  0  0  0  0  0
  -31.3198  -22.3150   22.0017 C   0  0  0  0  0  0  0  0  0  0  0  0
  -29.8741  -28.4587   18.4982 C   0  0  0  0  0  0  0  0  0  0  0  0
  -28.9147  -14.5860   17.9263 C   0  0  0  0  0  0  0  0  0  0  0  0
  -29.7312  -26.9803   18.1508 C   0  0  0  0  0  0  0  0  0  0  0  0
  -27.5318  -14.0820   18.3371 C   0  0  0  0  0  0  0  0  0  0  0  0
  -30.0182  -13.6590   18.4266 C   0  0  0  0  0  0  0  0  0  0  0  0
  -28.6033  -12.9116   20.3137 C   0  0  0  0  0  0  0  0  0  0  0  0
  -28.8466  -26.2564   19.1731 C   0  0  1  0  0  0  0  0  0  0  0  0
  -31.0790  -24.8153   21.8884 C   0  0  1  0  0  0  0  0  0  0  0  0
  -27.4615  -13.8356   19.8546 C   0  0  2  0  0  0  0  0  0  0  0  0
  -30.9226  -17.1556   27.7759 C   0  0  0  0  0  0  0  0  0  0  0  0
  -34.1658  -13.3411   27.4684 C   0  0  0  0  0  0  0  0  0  0  0  0
  -37.4326  -20.8841   23.9330 C   0  0  0  0  0  0  0  0  0  0  0  0
  -33.6078  -22.5156   18.7775 C   0  0  0  0  0  0  0  0  0  0  0  0
  -35.4658  -21.1235   19.7145 C   0  0  0  0  0  0  0  0  0  0  0  0
  -35.6792  -23.6082   19.6551 C   0  0  0  0  0  0  0  0  0  0  0  0
  -34.6445  -22.0548   26.2420 C   0  0  0  0  0  0  0  0  0  0  0  0
  -31.0080  -15.6722   24.9613 C   0  0  0  0  0  0  0  0  0  0  0  0
  -30.8025  -13.4253   22.1703 C   0  0  0  0  0  0  0  0  0  0  0  0
  -32.9168  -13.1406   26.6255 C   0  0  0  0  0  0  0  0  0  0  0  0
  -26.6323  -18.1782   25.3067 C   0  0  0  0  0  0  0  0  0  0  0  0
  -30.7259  -14.1632   25.0020 C   0  0  0  0  0  0  0  0  0  0  0  0
  -32.0684  -13.7329   22.9494 C   0  0  0  0  0  0  0  0  0  0  0  0
  -33.1426  -13.5926   25.1916 C   0  0  0  0  0  0  0  0  0  0  0  0
  -26.6891  -19.6481   24.9052 C   0  0  0  0  0  0  0  0  0  1  0  0
  -34.0972  -22.5393   21.3125 C   0  0  1  0  0  0  0  0  0  0  0  0
  -36.2263  -21.7165   24.3389 C   0  0  2  0  0  0  0  0  0  0  0  0
  -34.6866  -22.4461   19.8767 C   0  0  0  0  0  0  0  0  0  0  0  0
  -25.9128  -11.9797   20.3449 N   0  0  0  0  0  0  0  0  0  0  0  0
  -27.9948  -17.6217   25.6415 N   0  0  0  0  0  0  0  0  0  0  0  0
  -26.1023  -13.3085   20.2763 N   0  0  0  0  0  0  0  0  0  0  0  0
  -31.9501  -23.6385   21.8654 N   0  0  0  0  0  0  0  0  0  0  0  0
  -29.9033  -13.4322   19.8684 N   0  0  0  0  0  0  0  0  0  0  0  0
  -25.0174  -15.3899   20.5943 N   0  0  0  0  0  0  0  0  0  0  0  0
  -21.8078  -12.3773   21.6035 N   0  0  0  0  0  0  0  0  0  0  0  0
  -29.5896  -25.9916   20.3865 N   0  0  0  0  0  0  0  0  0  0  0  0
  -35.0984  -22.5033   22.3729 N   0  0  0  0  0  0  0  0  0  0  0  0
  -35.8076  -21.3010   25.7075 N   0  3  0  0  0  0  0  0  0  0  0  0
  -31.8635  -13.4163   24.4106 N   0  3  1  0  0  0  0  0  0  0  0  0
  -22.2705  -14.6163   21.4268 O   0  0  0  0  0  0  0  0  0  0  0  0
  -30.6072  -24.0056   19.7212 O   0  0  0  0  0  0  0  0  0  0  0  0
  -32.0919  -14.0858   20.2960 O   0  0  0  0  0  0  0  0  0  0  0  0
  -33.8577  -24.8974   21.4046 O   0  0  0  0  0  0  0  0  0  0  0  0
  -34.2516  -20.6377   23.4590 O   0  0  0  0  0  0  0  0  0  0  0  0
  -22.3404   -6.8332   21.4848 O   0  0  0  0  0  0  0  0  0  0  0  0
  -27.5012  -19.7991   23.7416 O   0  0  0  0  0  0  0  0  0  1  0  0
  -23.2542   -3.0055   17.6224 F   0  0  0  0  0  0  0  0  0  0  0  0
  -20.2408   -5.6880   20.0981 F   0  0  0  0  0  0  0  0  0  0  0  0
  1  2  1  0  0  0  0
  1  5  2  0  0  0  0
  2  6  2  0  0  0  0
  3  8  2  0  0  0  0
  3 17  1  0  0  0  0
  4  9  1  0  0  0  0
  4 17  2  0  0  0  0
  5 19  1  0  0  0  0
  6 21  1  0  0  0  0
  7 10  2  0  0  0  0
  7 20  1  0  0  0  0
  8 25  1  0  0  0  0
  9 25  2  0  0  0  0
 10 26  1  0  0  0  0
 11 12  2  0  0  0  0
 11 27  1  0  0  0  0
 12 28  1  0  0  0  0
 13 22  1  0  0  0  0
 13 26  2  0  0  0  0
 14 28  2  0  0  0  0
 14 29  1  0  0  0  0
 15 23  2  0  0  0  0
 15 68  1  0  0  0  0
 16 24  2  0  0  0  0
 16 68  1  0  0  0  0
 17 30  1  0  0  0  0
 18 30  1  0  0  0  0
 18 31  2  0  0  0  0
 18 32  1  0  0  0  0
 19 21  2  0  0  0  0
 19 37  1  0  0  0  0
 20 22  2  0  0  0  0
 20 38  1  0  0  0  0
 21 46  1  0  0  0  0
 22 39  1  0  0  0  0
 23 24  1  0  0  0  0
 23 49  1  0  0  0  0
 24 56  1  0  0  0  0
 25 83  1  0  0  0  0
 26 84  1  0  0  0  0
 27 29  2  0  0  0  0
 27 83  1  0  0  0  0
 28 85  1  0  0  0  0
 29 86  1  0  0  0  0
 30 67  2  0  0  0  0
 31 69  1  0  0  0  0
 31 72  1  0  0  0  0
 32 73  1  0  0  0  0
 32 78  2  0  0  0  0
 33 47  1  0  0  0  0
 33 74  1  0  0  0  0
 33 79  2  0  0  0  0
 34 57  1  0  0  0  0
 34 71  1  0  0  0  0
 34 80  2  0  0  0  0
 35 64  1  0  0  0  0
 35 70  1  0  0  0  0
 35 81  2  0  0  0  0
 36 65  1  0  0  0  0
 36 75  1  0  0  0  0
 36 82  2  0  0  0  0
 37 40  1  0  0  0  0
 38 47  1  0  0  0  0
 39 70  1  0  0  0  0
 40 42  1  0  0  0  0
 41 43  1  0  0  0  0
 41 44  1  0  0  0  0
 42 46  1  0  0  0  0
 43 48  1  0  0  0  0
 44 71  1  0  0  0  0
 45 48  1  0  0  0  0
 45 71  1  0  0  0  0
 46 74  1  0  0  0  0
 47 70  1  0  0  0  0
 48 69  1  0  0  0  0
 50 58  1  0  0  0  0
 51 65  1  0  0  0  0
 52 66  1  0  0  0  0
 53 66  1  0  0  0  0
 54 66  1  0  0  0  0
 55 76  1  0  0  0  0
 56 60  1  0  0  0  0
 57 61  1  0  0  0  0
 58 62  1  0  0  0  0
 59 63  1  0  0  0  0
 59 68  1  0  0  0  0
 60 77  1  0  0  0  0
 61 77  1  0  0  0  0
 62 77  1  0  0  0  0
 63 84  1  0  0  0  0
 64 66  1  0  0  0  0
 64 75  1  0  0  0  0
 65 76  1  0  0  0  0
 67 69  1  0  0  0  0
M  CHG  2  76   1  77   1
M  ISO  4  34 100  57 100  63 101  84 101
M  END
> <Batch ID>
0052

> <Smiles>
CCCN(CCc1cn(C[101CH2:1][101O:1]c2ccc3c(c2)CN(C(=O)C(NC(=O)C(C)NC)C(C)(C)C)C(C(=O)NC2CCCc4ccccc42)C3)cc1C)C[100CH2:0][100C:0](=O)N1CCCC(n2nc(-c3ccc(Oc4ccc(F)cc4F)cc3)c(C(N)=O)c2N)C1

> <Shape>
0.175

> <Color>
0.161

> <Negative vol penalty>
0.000

$$$$

  -OEChem-04052317363D

 82 90  0     1  0  0  0  0  0999 V2000
  -28.7815  -23.0960   18.2654 C   0  0  0  0  0  0  0  0  0  0  0  0
  -27.6558  -23.2921   19.0590 C   0  0  0  0  0  0  0  0  0  0  0  0
  -26.4571  -13.4123   20.2133 C   0  0  0  0  0  0  0  0  0  0  0  0
  -24.3592  -13.5881   21.3985 C   0  0  0  0  0  0  0  0  0  0  0  0
  -29.9169  -23.8810   18.4619 C   0  0  0  0  0  0  0  0  0  0  0  0
  -27.6653  -24.2727   20.0503 C   0  0  0  0  0  0  0  0  0  0  0  0
  -23.4192  -27.0320   20.0941 C   0  0  0  0  0  0  0  0  0  0  0  0
  -26.4293  -12.0265   20.3694 C   0  0  0  0  0  0  0  0  0  0  0  0
  -24.3313  -12.2023   21.5546 C   0  0  0  0  0  0  0  0  0  0  0  0
  -22.2930  -26.4582   20.6825 C   0  0  0  0  0  0  0  0  0  0  0  0
  -23.5576   -9.5009   19.6771 C   0  0  0  0  0  0  0  0  0  0  0  0
  -22.3530   -8.8457   19.4221 C   0  0  0  0  0  0  0  0  0  0  0  0
  -22.7013  -27.7309   22.6907 C   0  0  0  0  0  0  0  0  0  0  0  0
  -22.3192   -8.0236   21.6937 C   0  0  0  0  0  0  0  0  0  0  0  0
  -22.0451  -21.9037   24.5767 C   0  0  0  0  0  0  0  0  0  0  0  0
  -25.4221  -14.1931   20.7279 C   0  0  0  0  0  0  0  0  0  0  0  0
  -24.9116  -16.3718   19.5029 C   0  0  0  0  0  0  0  0  0  0  0  0
  -29.9368  -24.8782   19.4497 C   0  0  0  0  0  0  0  0  0  0  0  0
  -24.2024  -27.9529   20.8046 C   0  0  0  0  0  0  0  0  0  0  0  0
  -28.8024  -25.0709   20.2611 C   0  0  0  0  0  0  0  0  0  0  0  0
  -23.8355  -28.3168   22.1081 C   0  0  0  0  0  0  0  0  0  0  0  0
  -25.3663  -11.4215   21.0400 C   0  0  0  0  0  0  0  0  0  0  0  0
  -21.9355  -26.8054   21.9820 C   0  0  0  0  0  0  0  0  0  0  0  0
  -24.1431   -9.4175   20.9404 C   0  0  0  0  0  0  0  0  0  0  0  0
  -21.7337   -8.1071   20.4303 C   0  0  0  0  0  0  0  0  0  0  0  0
  -23.5239   -8.6789   21.9487 C   0  0  0  0  0  0  0  0  0  0  0  0
  -25.4506  -15.6248   20.5674 C   0  0  0  0  0  0  0  0  0  0  0  0
  -21.8983  -23.2888   24.3721 C   0  0  0  0  0  0  0  0  0  0  0  0
  -23.3593  -21.6487   24.2698 C   0  0  0  0  0  0  0  0  0  0  0  0
  -25.1987  -17.6771   19.8194 C   0  0  0  0  0  0  0  0  0  0  0  0
  -24.2136  -15.9256   18.3326 C   0  0  0  0  0  0  0  0  0  0  0  0
  -27.2198  -28.0334   21.8010 C   0  0  0  0  0  0  0  0  0  0  0  0
  -26.4411  -31.0585   22.6758 C   0  0  0  0  0  0  0  0  0  0  0  0
  -24.0063  -33.2898   23.5358 C   0  0  0  0  0  0  0  0  0  0  0  0
  -26.4179  -20.0810   25.3215 C   0  0  0  0  0  0  0  0  0  0  0  0
  -31.2038  -25.6700   19.6564 C   0  0  0  0  0  0  0  0  0  0  0  0
  -25.3990  -28.5830   20.1461 C   0  0  0  0  0  0  0  0  0  0  0  0
  -24.6313  -29.3159   22.9063 C   0  0  0  0  0  0  0  0  0  0  0  0
  -31.0010  -26.9401   20.4785 C   0  0  0  0  0  0  0  0  0  0  0  0
  -28.3673  -20.3584   22.1871 C   0  0  0  0  0  0  0  0  0  0  0  0
  -30.1608  -26.6458   21.7172 C   0  0  0  0  0  0  0  0  0  0  0  0
  -27.8360  -19.1890   21.3598 C   0  0  0  0  0  0  0  0  0  0  0  0
  -28.2652  -20.0862   23.6848 C   0  0  0  0  0  0  0  0  0  0  0  0
  -26.3651  -18.5486   23.3110 C   0  0  0  0  0  0  0  0  0  0  0  0
  -28.7654  -26.1413   21.3302 C   0  0  1  0  0  0  0  0  0  0  0  0
  -26.4169  -29.1219   21.1466 C   0  0  1  0  0  0  0  0  0  0  0  0
  -26.4107  -18.8099   21.7980 C   0  0  2  0  0  0  0  0  0  0  0  0
  -23.6805  -35.6781   24.2339 C   0  0  0  0  0  0  0  0  0  0  0  0
  -27.4527  -30.3764   25.4725 C   0  0  0  0  0  0  0  0  0  0  0  0
  -26.2531  -32.4021   26.3246 C   0  0  0  0  0  0  0  0  0  0  0  0
  -28.0923  -32.6529   24.6582 C   0  0  0  0  0  0  0  0  0  0  0  0
  -25.2612  -23.1024   23.5058 C   0  0  0  0  0  0  0  0  0  0  0  0
  -24.4776  -20.7129   26.7056 C   0  0  0  0  0  0  0  0  0  0  0  0
  -22.3312  -33.8751   21.1672 C   0  0  0  0  0  0  0  0  0  0  0  0
  -20.6525  -24.1179   24.5568 C   0  0  0  0  0  0  0  0  0  0  0  0
  -24.1310  -20.3925   24.2843 C   0  0  0  0  0  0  0  0  0  0  0  0
  -19.7879  -24.2193   23.2983 C   0  0  0  0  0  0  0  0  0  0  0  0
  -20.4848  -24.9278   22.1425 C   0  0  0  0  0  0  0  0  0  1  0  0
  -25.8710  -31.6988   23.9183 C   0  0  1  0  0  0  0  0  0  0  0  0
  -23.7259  -34.7057   23.0655 C   0  0  2  0  0  0  0  0  0  0  0  0
  -26.9032  -31.7622   25.0793 C   0  0  0  0  0  0  0  0  0  0  0  0
  -26.0361  -16.3917   21.4910 N   0  0  0  0  0  0  0  0  0  0  0  0
  -23.0291  -23.8728   23.9667 N   0  0  0  0  0  0  0  0  0  0  0  0
  -23.8989  -22.8497   23.9142 N   0  0  0  0  0  0  0  0  0  0  0  0
  -25.8666  -17.6342   21.0078 N   0  0  0  0  0  0  0  0  0  0  0  0
  -25.7963  -29.8995   22.2210 N   0  0  0  0  0  0  0  0  0  0  0  0
  -26.9105  -19.6861   24.0668 N   0  0  0  0  0  0  0  0  0  0  0  0
  -24.9427  -18.8459   19.1942 N   0  0  0  0  0  0  0  0  0  0  0  0
  -24.0037  -14.5503   18.1635 N   0  0  0  0  0  0  0  0  0  0  0  0
  -27.9266  -27.2446   20.9136 N   0  0  0  0  0  0  0  0  0  0  0  0
  -25.3539  -32.9995   23.5067 N   0  0  0  0  0  0  0  0  0  0  0  0
  -25.0347  -20.2915   25.4281 N   0  0  0  0  0  0  0  0  0  0  0  0
  -22.4182  -34.7654   22.3533 N   0  3  0  0  0  0  0  0  0  0  0  0
  -23.8030  -16.7218   17.4545 O   0  0  0  0  0  0  0  0  0  0  0  0
  -27.2007  -27.9188   23.0209 O   0  0  0  0  0  0  0  0  0  0  0  0
  -27.4182  -31.5718   22.1248 O   0  0  0  0  0  0  0  0  0  0  0  0
  -23.1190  -32.5197   23.8967 O   0  0  0  0  0  0  0  0  0  0  0  0
  -27.1725  -20.2459   26.2886 O   0  0  0  0  0  0  0  0  0  0  0  0
  -25.3387  -10.0692   21.1923 O   0  0  0  0  0  0  0  0  0  0  0  0
  -20.8371  -26.2464   22.5589 O   0  0  0  0  0  0  0  0  0  1  0  0
  -20.5761   -7.4791   20.1857 F   0  0  0  0  0  0  0  0  0  0  0  0
  -24.0809   -8.5960   23.1647 F   0  0  0  0  0  0  0  0  0  0  0  0
  1  2  1  0  0  0  0
  1  5  2  0  0  0  0
  2  6  2  0  0  0  0
  3  8  2  0  0  0  0
  3 16  1  0  0  0  0
  4  9  1  0  0  0  0
  4 16  2  0  0  0  0
  5 18  1  0  0  0  0
  6 20  1  0  0  0  0
  7 10  2  0  0  0  0
  7 19  1  0  0  0  0
  8 22  1  0  0  0  0
  9 22  2  0  0  0  0
 10 23  1  0  0  0  0
 11 12  2  0  0  0  0
 11 24  1  0  0  0  0
 12 25  1  0  0  0  0
 13 21  1  0  0  0  0
 13 23  2  0  0  0  0
 14 25  2  0  0  0  0
 14 26  1  0  0  0  0
 15 28  1  0  0  0  0
 15 29  2  0  0  0  0
 16 27  1  0  0  0  0
 17 27  1  0  0  0  0
 17 30  2  0  0  0  0
 17 31  1  0  0  0  0
 18 20  2  0  0  0  0
 18 36  1  0  0  0  0
 19 21  2  0  0  0  0
 19 37  1  0  0  0  0
 20 45  1  0  0  0  0
 21 38  1  0  0  0  0
 22 79  1  0  0  0  0
 23 80  1  0  0  0  0
 24 26  2  0  0  0  0
 24 79  1  0  0  0  0
 25 81  1  0  0  0  0
 26 82  1  0  0  0  0
 27 62  2  0  0  0  0
 28 55  1  0  0  0  0
 28 63  2  0  0  0  0
 29 56  1  0  0  0  0
 29 64  1  0  0  0  0
 30 65  1  0  0  0  0
 30 68  1  0  0  0  0
 31 69  1  0  0  0  0
 31 74  2  0  0  0  0
 32 46  1  0  0  0  0
 32 70  1  0  0  0  0
 32 75  2  0  0  0  0
 33 59  1  0  0  0  0
 33 66  1  0  0  0  0
 33 76  2  0  0  0  0
 34 60  1  0  0  0  0
 34 71  1  0  0  0  0
 34 77  2  0  0  0  0
 35 67  1  0  0  0  0
 35 72  1  0  0  0  0
 35 78  2  0  0  0  0
 36 39  1  0  0  0  0
 37 46  1  0  0  0  0
 38 66  1  0  0  0  0
 39 41  1  0  0  0  0
 40 42  1  0  0  0  0
 40 43  1  0  0  0  0
 41 45  1  0  0  0  0
 42 47  1  0  0  0  0
 43 67  1  0  0  0  0
 44 47  1  0  0  0  0
 44 67  1  0  0  0  0
 45 70  1  0  0  0  0
 46 66  1  0  0  0  0
 47 65  1  0  0  0  0
 48 60  1  0  0  0  0
 49 61  1  0  0  0  0
 50 61  1  0  0  0  0
 51 61  1  0  0  0  0
 52 64  1  0  0  0  0
 53 72  1  0  0  0  0
 54 73  1  0  0  0  0
 55 57  1  0  0  0  0
 56 72  1  0  0  0  0
 57 58  1  0  0  0  0
 58 80  1  0  0  0  0
 59 61  1  0  0  0  0
 59 71  1  0  0  0  0
 60 73  1  0  0  0  0
 62 65  1  0  0  0  0
 63 64  1  0  0  0  0
M  CHG  1  73   1
M  ISO  4  35 100  58 101  72 100  80 101
M  END
> <Batch ID>
0052

> <Smiles>
CNC(C)C(=O)NC(C(=O)N1Cc2cc([101O:1][101CH2:1]CCc3cc(C[100N:0](C)[100C:0](=O)N4CCCC(n5nc(-c6ccc(Oc7ccc(F)cc7F)cc6)c(C(N)=O)c5N)C4)n(C)n3)ccc2CC1C(=O)NC1CCCc2ccccc21)C(C)(C)C

> <Shape>
0.252

> <Color>
0.067

> <Negative vol penalty>
0.000

$$$$

  -OEChem-04052317363D

 82 90  0     1  0  0  0  0  0999 V2000
  -30.9169  -30.5276   15.1216 C   0  0  0  0  0  0  0  0  0  0  0  0
  -30.2687  -29.2978   15.0686 C   0  0  0  0  0  0  0  0  0  0  0  0
  -24.0050   -9.6514   21.2949 C   0  0  0  0  0  0  0  0  0  0  0  0
  -24.6093  -10.6214   23.4235 C   0  0  0  0  0  0  0  0  0  0  0  0
  -31.8608  -30.7744   16.1176 C   0  0  0  0  0  0  0  0  0  0  0  0
  -30.5650  -28.3135   16.0109 C   0  0  0  0  0  0  0  0  0  0  0  0
  -27.5054  -22.9272   19.6085 C   0  0  0  0  0  0  0  0  0  0  0  0
  -23.5603   -8.5006   21.9456 C   0  0  0  0  0  0  0  0  0  0  0  0
  -24.1645   -9.4706   24.0742 C   0  0  0  0  0  0  0  0  0  0  0  0
  -27.6888  -21.5721   19.8801 C   0  0  0  0  0  0  0  0  0  0  0  0
  -21.9327   -5.4524   23.0746 C   0  0  0  0  0  0  0  0  0  0  0  0
  -20.7100   -4.9130   22.6751 C   0  0  0  0  0  0  0  0  0  0  0  0
  -29.2793  -22.1389   21.6030 C   0  0  0  0  0  0  0  0  0  0  0  0
  -19.6039   -6.9751   23.2763 C   0  0  0  0  0  0  0  0  0  0  0  0
  -30.7360  -17.1426   21.8961 C   0  0  0  0  0  0  0  0  0  0  0  0
  -24.5296  -10.7118   22.0339 C   0  0  0  0  0  0  0  0  0  0  0  0
  -24.2354  -13.0485   21.0536 C   0  0  0  0  0  0  0  0  0  0  0  0
  -32.1618  -29.7962   17.0784 C   0  0  0  0  0  0  0  0  0  0  0  0
  -28.2170  -23.8996   20.3258 C   0  0  0  0  0  0  0  0  0  0  0  0
  -31.5149  -28.5470   17.0198 C   0  0  0  0  0  0  0  0  0  0  0  0
  -29.1013  -23.5057   21.3402 C   0  0  0  0  0  0  0  0  0  0  0  0
  -23.6400   -8.4102   23.3352 C   0  0  0  0  0  0  0  0  0  0  0  0
  -28.5780  -21.1776   20.8756 C   0  0  0  0  0  0  0  0  0  0  0  0
  -21.9911   -6.7531   23.5751 C   0  0  0  0  0  0  0  0  0  0  0  0
  -19.5456   -5.6744   22.7759 C   0  0  0  0  0  0  0  0  0  0  0  0
  -20.8267   -7.5145   23.6759 C   0  0  0  0  0  0  0  0  0  0  0  0
  -24.9897  -11.9007   21.3623 C   0  0  0  0  0  0  0  0  0  0  0  0
  -30.2440  -15.8828   22.2868 C   0  0  0  0  0  0  0  0  0  0  0  0
  -29.7668  -18.0292   22.2973 C   0  0  0  0  0  0  0  0  0  0  0  0
  -25.1240  -13.8837   20.4217 C   0  0  0  0  0  0  0  0  0  0  0  0
  -22.8549  -13.3343   21.3147 C   0  0  0  0  0  0  0  0  0  0  0  0
  -30.3368  -26.1433   19.5667 C   0  0  0  0  0  0  0  0  0  0  0  0
  -29.9901  -26.9750   22.6829 C   0  0  0  0  0  0  0  0  0  0  0  0
  -31.1170  -14.2696   20.6383 C   0  0  0  0  0  0  0  0  0  0  0  0
  -29.1352  -26.0426   25.8525 C   0  0  0  0  0  0  0  0  0  0  0  0
  -33.2239  -30.0920   18.1075 C   0  0  0  0  0  0  0  0  0  0  0  0
  -27.9880  -25.3582   20.0389 C   0  0  0  0  0  0  0  0  0  0  0  0
  -29.8742  -24.5110   22.1529 C   0  0  0  0  0  0  0  0  0  0  0  0
  -33.2076  -29.1308   19.2933 C   0  0  0  0  0  0  0  0  0  0  0  0
  -29.0707  -13.8195   17.7314 C   0  0  0  0  0  0  0  0  0  0  0  0
  -33.0975  -27.6883   18.8097 C   0  0  0  0  0  0  0  0  0  0  0  0
  -27.7325  -13.3534   18.3031 C   0  0  0  0  0  0  0  0  0  0  0  0
  -30.2434  -13.2827   18.5462 C   0  0  0  0  0  0  0  0  0  0  0  0
  -28.8353  -13.1466   20.5760 C   0  0  0  0  0  0  0  0  0  0  0  0
  -31.7911  -27.4630   18.0390 C   0  0  1  0  0  0  0  0  0  0  0  0
  -29.1489  -26.2437   20.4813 C   0  0  1  0  0  0  0  0  0  0  0  0
  -27.6231  -13.6919   19.8004 C   0  0  2  0  0  0  0  0  0  0  0  0
  -28.9900  -26.9300   28.1954 C   0  0  0  0  0  0  0  0  0  0  0  0
  -27.4841  -17.4617   24.9642 C   0  0  0  0  0  0  0  0  0  0  0  0
  -26.3312  -17.2170   22.7243 C   0  0  0  0  0  0  0  0  0  0  0  0
  -32.2470  -14.4477   22.8194 C   0  0  0  0  0  0  0  0  0  0  0  0
  -33.0236  -26.7752   22.9440 C   0  0  0  0  0  0  0  0  0  0  0  0
  -32.7365  -26.7256   25.4306 C   0  0  0  0  0  0  0  0  0  0  0  0
  -32.0004  -28.7239   24.1314 C   0  0  0  0  0  0  0  0  0  0  0  0
  -26.2184  -25.5576   25.9793 C   0  0  0  0  0  0  0  0  0  0  0  0
  -29.6857  -19.5225   22.1754 C   0  0  0  0  0  0  0  0  0  1  0  0
  -30.6645  -26.5831   23.9754 C   0  0  1  0  0  0  0  0  0  0  0  0
  -28.2438  -26.7007   26.8902 C   0  0  2  0  0  0  0  0  0  0  0  0
  -27.5585  -17.7527   23.4640 C   0  0  0  0  0  0  0  0  0  0  0  0
  -30.8855  -14.5709   22.0976 C   0  0  1  0  0  0  0  0  0  0  0  0
  -32.0933  -27.1827   24.1039 C   0  0  0  0  0  0  0  0  0  0  0  0
  -26.2597  -11.9946   20.9596 N   0  0  0  0  0  0  0  0  0  0  0  0
  -29.0547  -15.9582   22.8901 N   0  0  0  0  0  0  0  0  0  0  0  0
  -28.7913  -17.2760   22.8816 N   0  0  0  0  0  0  0  0  0  0  0  0
  -26.3103  -13.2113   20.3912 N   0  0  0  0  0  0  0  0  0  0  0  0
  -29.6205  -25.9250   21.8304 N   0  0  0  0  0  0  0  0  0  0  0  0
  -30.0909  -13.6054   19.9660 N   0  0  0  0  0  0  0  0  0  0  0  0
  -24.9986  -15.1201   19.8946 N   0  0  0  0  0  0  0  0  0  0  0  0
  -22.0851  -12.3660   21.9736 N   0  0  0  0  0  0  0  0  0  0  0  0
  -30.6790  -27.3347   18.9561 N   0  0  0  0  0  0  0  0  0  0  0  0
  -29.7538  -26.9743   25.0459 N   0  0  0  0  0  0  0  0  0  0  0  0
  -27.0570  -25.8444   27.1716 N   0  3  0  0  0  0  0  0  0  0  0  0
  -22.3156  -14.4096   20.9592 O   0  0  0  0  0  0  0  0  0  0  0  0
  -30.9020  -25.0650   19.4267 O   0  0  0  0  0  0  0  0  0  0  0  0
  -29.7919  -28.1684   22.4418 O   0  0  0  0  0  0  0  0  0  0  0  0
  -32.1776  -14.6176   20.1126 O   0  0  0  0  0  0  0  0  0  0  0  0
  -29.2722  -24.8241   25.7685 O   0  0  0  0  0  0  0  0  0  0  0  0
  -23.2059   -7.2874   23.9705 O   0  0  0  0  0  0  0  0  0  0  0  0
  -28.7593  -19.8556   21.1423 O   0  0  0  0  0  0  0  0  0  1  0  0
  -18.3717   -5.1569   22.3908 F   0  0  0  0  0  0  0  0  0  0  0  0
  -20.8767   -8.7651   24.1548 F   0  0  0  0  0  0  0  0  0  0  0  0
  -30.1410  -13.5116   22.5973 F   0  0  0  0  0  0  0  0  0  0  0  0
  1  2  1  0  0  0  0
  1  5  2  0  0  0  0
  2  6  2  0  0  0  0
  3  8  2  0  0  0  0
  3 16  1  0  0  0  0
  4  9  1  0  0  0  0
  4 16  2  0  0  0  0
  5 18  1  0  0  0  0
  6 20  1  0  0  0  0
  7 10  2  0  0  0  0
  7 19  1  0  0  0  0
  8 22  1  0  0  0  0
  9 22  2  0  0  0  0
 10 23  1  0  0  0  0
 11 12  2  0  0  0  0
 11 24  1  0  0  0  0
 12 25  1  0  0  0  0
 13 21  1  0  0  0  0
 13 23  2  0  0  0  0
 14 25  2  0  0  0  0
 14 26  1  0  0  0  0
 15 28  1  0  0  0  0
 15 29  2  0  0  0  0
 16 27  1  0  0  0  0
 17 27  1  0  0  0  0
 17 30  2  0  0  0  0
 17 31  1  0  0  0  0
 18 20  2  0  0  0  0
 18 36  1  0  0  0  0
 19 21  2  0  0  0  0
 19 37  1  0  0  0  0
 20 45  1  0  0  0  0
 21 38  1  0  0  0  0
 22 78  1  0  0  0  0
 23 79  1  0  0  0  0
 24 26  2  0  0  0  0
 24 78  1  0  0  0  0
 25 80  1  0  0  0  0
 26 81  1  0  0  0  0
 27 62  2  0  0  0  0
 28 60  1  0  0  0  0
 28 63  2  0  0  0  0
 29 56  1  0  0  0  0
 29 64  1  0  0  0  0
 30 65  1  0  0  0  0
 30 68  1  0  0  0  0
 31 69  1  0  0  0  0
 31 73  2  0  0  0  0
 32 46  1  0  0  0  0
 32 70  1  0  0  0  0
 32 74  2  0  0  0  0
 33 57  1  0  0  0  0
 33 66  1  0  0  0  0
 33 75  2  0  0  0  0
 34 60  1  0  0  0  0
 34 67  1  0  0  0  0
 34 76  2  0  0  0  0
 35 58  1  0  0  0  0
 35 71  1  0  0  0  0
 35 77  2  0  0  0  0
 36 39  1  0  0  0  0
 37 46  1  0  0  0  0
 38 66  1  0  0  0  0
 39 41  1  0  0  0  0
 40 42  1  0  0  0  0
 40 43  1  0  0  0  0
 41 45  1  0  0  0  0
 42 47  1  0  0  0  0
 43 67  1  0  0  0  0
 44 47  1  0  0  0  0
 44 67  1  0  0  0  0
 45 70  1  0  0  0  0
 46 66  1  0  0  0  0
 47 65  1  0  0  0  0
 48 58  1  0  0  0  0
 49 59  1  0  0  0  0
 50 59  1  0  0  0  0
 51 60  1  0  0  0  0
 52 61  1  0  0  0  0
 53 61  1  0  0  0  0
 54 61  1  0  0  0  0
 55 72  1  0  0  0  0
 56 79  1  0  0  0  0
 57 61  1  0  0  0  0
 57 71  1  0  0  0  0
 58 72  1  0  0  0  0
 59 64  1  0  0  0  0
 60 82  1  0  0  0  0
 62 65  1  0  0  0  0
 63 64  1  0  0  0  0
M  CHG  1  72   1
M  ISO  4  34 100  56 101  60 100  79 101
M  END
> <Batch ID>
0052

> <Smiles>
CNC(C)C(=O)NC(C(=O)N1Cc2cc([101O:1][101CH2:1]c3cc([100C:0](C)(F)[100C:0](=O)N4CCCC(n5nc(-c6ccc(Oc7ccc(F)cc7F)cc6)c(C(N)=O)c5N)C4)nn3C(C)C)ccc2CC1C(=O)NC1CCCc2ccccc21)C(C)(C)C

> <Shape>
0.234

> <Color>
0.150

> <Negative vol penalty>
0.000

$$$$

  -OEChem-04052317363D

 82 90  0     1  0  0  0  0  0999 V2000
  -23.2414  -30.9408   21.6713 C   0  0  0  0  0  0  0  0  0  0  0  0
  -22.8096  -29.8385   20.9407 C   0  0  0  0  0  0  0  0  0  0  0  0
  -24.2689  -13.0971   24.1832 C   0  0  0  0  0  0  0  0  0  0  0  0
  -24.2799  -15.3416   23.2893 C   0  0  0  0  0  0  0  0  0  0  0  0
  -24.6051  -31.2041   21.7932 C   0  0  0  0  0  0  0  0  0  0  0  0
  -23.7413  -28.9994   20.3305 C   0  0  0  0  0  0  0  0  0  0  0  0
  -23.3019  -22.9368   19.5833 C   0  0  0  0  0  0  0  0  0  0  0  0
  -23.8145  -13.5869   25.4076 C   0  0  0  0  0  0  0  0  0  0  0  0
  -23.8254  -15.8314   24.5137 C   0  0  0  0  0  0  0  0  0  0  0  0
  -22.9126  -22.1511   18.4994 C   0  0  0  0  0  0  0  0  0  0  0  0
  -20.8853  -14.6166   26.7462 C   0  0  0  0  0  0  0  0  0  0  0  0
  -19.8430  -13.9324   27.3716 C   0  0  0  0  0  0  0  0  0  0  0  0
  -25.2264  -21.8775   17.8745 C   0  0  0  0  0  0  0  0  0  0  0  0
  -21.2614  -13.5192   29.2833 C   0  0  0  0  0  0  0  0  0  0  0  0
  -26.6620  -17.3469   16.4796 C   0  0  0  0  0  0  0  0  0  0  0  0
  -25.9484  -15.6859   17.7400 C   0  0  0  0  0  0  0  0  0  0  0  0
  -24.5016  -13.9744   23.1240 C   0  0  0  0  0  0  0  0  0  0  0  0
  -24.1881  -13.0399   20.7712 C   0  0  0  0  0  0  0  0  0  0  0  0
  -25.5544  -30.3623   21.1923 C   0  0  0  0  0  0  0  0  0  0  0  0
  -24.6580  -23.2082   19.8150 C   0  0  0  0  0  0  0  0  0  0  0  0
  -25.1189  -29.2524   20.4433 C   0  0  0  0  0  0  0  0  0  0  0  0
  -25.6305  -22.6648   18.9635 C   0  0  0  0  0  0  0  0  0  0  0  0
  -23.5928  -14.9541   25.5728 C   0  0  0  0  0  0  0  0  0  0  0  0
  -23.8747  -21.6237   17.6431 C   0  0  0  0  0  0  0  0  0  0  0  0
  -22.1156  -14.7521   27.3893 C   0  0  0  0  0  0  0  0  0  0  0  0
  -20.0311  -13.3837   28.6402 C   0  0  0  0  0  0  0  0  0  0  0  0
  -22.3037  -14.2034   28.6579 C   0  0  0  0  0  0  0  0  0  0  0  0
  -24.9716  -13.4691   21.8591 C   0  0  0  0  0  0  0  0  0  0  0  0
  -25.3852  -16.9684   16.1373 C   0  0  0  0  0  0  0  0  0  0  0  0
  -25.1019  -12.6574   19.8197 C   0  0  0  0  0  0  0  0  0  0  0  0
  -22.7618  -12.9913   20.6329 C   0  0  0  0  0  0  0  0  0  0  0  0
  -26.4351  -25.8422   19.9043 C   0  0  0  0  0  0  0  0  0  0  0  0
  -28.7422  -23.7837   20.8853 C   0  0  0  0  0  0  0  0  0  0  0  0
  -29.9288  -20.5848   20.9625 C   0  0  0  0  0  0  0  0  0  0  0  0
  -30.9606  -14.3619   19.2651 C   0  0  0  0  0  0  0  0  0  0  0  0
  -27.0160  -30.7143   21.3122 C   0  0  0  0  0  0  0  0  0  0  0  0
  -25.0631  -24.0355   21.0041 C   0  0  0  0  0  0  0  0  0  0  0  0
  -27.1006  -22.9097   19.1804 C   0  0  0  0  0  0  0  0  0  0  0  0
  -27.9513  -29.5641   20.9485 C   0  0  0  0  0  0  0  0  0  0  0  0
  -29.5381  -10.9456   19.3460 C   0  0  0  0  0  0  0  0  0  0  0  0
  -27.5046  -28.9036   19.6480 C   0  0  0  0  0  0  0  0  0  0  0  0
  -28.1648  -11.1714   19.9761 C   0  0  0  0  0  0  0  0  0  0  0  0
  -30.5518  -11.9888   19.8061 C   0  0  0  0  0  0  0  0  0  0  0  0
  -28.7389  -13.6195   20.2168 C   0  0  0  0  0  0  0  0  0  0  0  0
  -26.0998  -28.3048   19.7876 C   0  0  1  0  0  0  0  0  0  0  0  0
  -26.4405  -24.6725   20.8475 C   0  0  1  0  0  0  0  0  0  0  0  0
  -27.6822  -12.6128   19.7377 C   0  0  2  0  0  0  0  0  0  0  0  0
  -31.8573  -19.2189   21.8067 C   0  0  0  0  0  0  0  0  0  0  0  0
  -30.4948  -24.8733   18.6378 C   0  0  0  0  0  0  0  0  0  0  0  0
  -31.9761  -22.8745   18.9180 C   0  0  0  0  0  0  0  0  0  0  0  0
  -31.6912  -24.4872   20.7997 C   0  0  0  0  0  0  0  0  0  0  0  0
  -31.3871  -16.4820   18.0806 C   0  0  0  0  0  0  0  0  0  0  0  0
  -28.1606  -18.9233   22.6570 C   0  0  0  0  0  0  0  0  0  0  0  0
  -24.4981  -17.5432   15.0621 C   0  0  0  0  0  0  0  0  0  0  0  0
  -23.6177  -18.6989   15.5426 C   0  0  0  0  0  0  0  0  0  0  0  0
  -28.2666  -16.5120   18.2149 C   0  0  0  0  0  0  0  0  0  0  0  0
  -29.1981  -15.3884   17.7676 C   0  0  0  0  0  0  0  0  0  0  0  0
  -24.4105  -19.8479   16.1547 C   0  0  0  0  0  0  0  0  0  1  0  0
  -29.7858  -22.9394   20.1945 C   0  0  1  0  0  0  0  0  0  0  0  0
  -30.4573  -19.7337   22.1030 C   0  0  2  0  0  0  0  0  0  0  0  0
  -30.9592  -23.7904   19.6320 C   0  0  0  0  0  0  0  0  0  0  0  0
  -24.9467  -15.9341   16.9258 N   0  0  0  0  0  0  0  0  0  0  0  0
  -26.2822  -13.3688   21.6221 N   0  0  0  0  0  0  0  0  0  0  0  0
  -27.0092  -16.5167   17.5079 N   0  0  0  0  0  0  0  0  0  0  0  0
  -26.3293  -12.8721   20.3742 N   0  0  0  0  0  0  0  0  0  0  0  0
  -27.4462  -23.7300   20.3531 N   0  0  0  0  0  0  0  0  0  0  0  0
  -30.0500  -13.3490   19.6081 N   0  0  0  0  0  0  0  0  0  0  0  0
  -24.9671  -12.1616   18.5713 N   0  0  0  0  0  0  0  0  0  0  0  0
  -21.9714  -13.4221   21.7071 N   0  0  0  0  0  0  0  0  0  0  0  0
  -26.1539  -27.0519   20.5099 N   0  0  0  0  0  0  0  0  0  0  0  0
  -30.1932  -21.9237   21.1593 N   0  0  0  0  0  0  0  0  0  0  0  0
  -30.4781  -15.4141   18.4720 N   0  0  0  0  0  0  0  0  0  0  0  0
  -29.5646  -18.5626   22.3322 N   0  3  0  0  0  0  0  0  0  0  0  0
  -22.2048  -12.5627   19.5939 O   0  0  0  0  0  0  0  0  0  0  0  0
  -26.6702  -25.6607   18.7154 O   0  0  0  0  0  0  0  0  0  0  0  0
  -29.0635  -24.4603   21.8654 O   0  0  0  0  0  0  0  0  0  0  0  0
  -29.3436  -20.1091   19.9921 O   0  0  0  0  0  0  0  0  0  0  0  0
  -32.1402  -14.3229   19.6380 O   0  0  0  0  0  0  0  0  0  0  0  0
  -23.1491  -15.4323   26.7674 O   0  0  0  0  0  0  0  0  0  0  0  0
  -23.4975  -20.8570   16.5840 O   0  0  0  0  0  0  0  0  0  1  0  0
  -19.0297  -12.7280   29.2413 F   0  0  0  0  0  0  0  0  0  0  0  0
  -23.4831  -14.3313   29.2812 F   0  0  0  0  0  0  0  0  0  0  0  0
  1  2  1  0  0  0  0
  1  5  2  0  0  0  0
  2  6  2  0  0  0  0
  3  8  2  0  0  0  0
  3 17  1  0  0  0  0
  4  9  1  0  0  0  0
  4 17  2  0  0  0  0
  5 19  1  0  0  0  0
  6 21  1  0  0  0  0
  7 10  2  0  0  0  0
  7 20  1  0  0  0  0
  8 23  1  0  0  0  0
  9 23  2  0  0  0  0
 10 24  1  0  0  0  0
 11 12  2  0  0  0  0
 11 25  1  0  0  0  0
 12 26  1  0  0  0  0
 13 22  1  0  0  0  0
 13 24  2  0  0  0  0
 14 26  2  0  0  0  0
 14 27  1  0  0  0  0
 15 29  2  0  0  0  0
 15 64  1  0  0  0  0
 16 62  2  0  0  0  0
 16 64  1  0  0  0  0
 17 28  1  0  0  0  0
 18 28  1  0  0  0  0
 18 30  2  0  0  0  0
 18 31  1  0  0  0  0
 19 21  2  0  0  0  0
 19 36  1  0  0  0  0
 20 22  2  0  0  0  0
 20 37  1  0  0  0  0
 21 45  1  0  0  0  0
 22 38  1  0  0  0  0
 23 79  1  0  0  0  0
 24 80  1  0  0  0  0
 25 27  2  0  0  0  0
 25 79  1  0  0  0  0
 26 81  1  0  0  0  0
 27 82  1  0  0  0  0
 28 63  2  0  0  0  0
 29 54  1  0  0  0  0
 29 62  1  0  0  0  0
 30 65  1  0  0  0  0
 30 68  1  0  0  0  0
 31 69  1  0  0  0  0
 31 74  2  0  0  0  0
 32 46  1  0  0  0  0
 32 70  1  0  0  0  0
 32 75  2  0  0  0  0
 33 59  1  0  0  0  0
 33 66  1  0  0  0  0
 33 76  2  0  0  0  0
 34 60  1  0  0  0  0
 34 71  1  0  0  0  0
 34 77  2  0  0  0  0
 35 67  1  0  0  0  0
 35 72  1  0  0  0  0
 35 78  2  0  0  0  0
 36 39  1  0  0  0  0
 37 46  1  0  0  0  0
 38 66  1  0  0  0  0
 39 41  1  0  0  0  0
 40 42  1  0  0  0  0
 40 43  1  0  0  0  0
 41 45  1  0  0  0  0
 42 47  1  0  0  0  0
 43 67  1  0  0  0  0
 44 47  1  0  0  0  0
 44 67  1  0  0  0  0
 45 70  1  0  0  0  0
 46 66  1  0  0  0  0
 47 65  1  0  0  0  0
 48 60  1  0  0  0  0
 49 61  1  0  0  0  0
 50 61  1  0  0  0  0
 51 61  1  0  0  0  0
 52 72  1  0  0  0  0
 53 73  1  0  0  0  0
 54 55  1  0  0  0  0
 55 58  1  0  0  0  0
 56 57  1  0  0  0  0
 56 64  1  0  0  0  0
 57 72  1  0  0  0  0
 58 80  1  0  0  0  0
 59 61  1  0  0  0  0
 59 71  1  0  0  0  0
 60 73  1  0  0  0  0
 63 65  1  0  0  0  0
M  CHG  1  73   1
M  ISO  4  35 100  58 101  72 100  80 101
M  END
> <Batch ID>
0052

> <Smiles>
CNC(C)C(=O)NC(C(=O)N1Cc2cc([101O:1][101CH2:1]CCc3cn(CC[100N:0](C)[100C:0](=O)N4CCCC(n5nc(-c6ccc(Oc7ccc(F)cc7F)cc6)c(C(N)=O)c5N)C4)cn3)ccc2CC1C(=O)NC1CCCc2ccccc21)C(C)(C)C

> <Shape>
0.196

> <Color>
0.092

> <Negative vol penalty>
0.000

$$$$

  -OEChem-04052317363D

 83 91  0     1  0  0  0  0  0999 V2000
  -25.1554  -29.0101   20.1492 C   0  0  0  0  0  0  0  0  0  0  0  0
  -24.8095  -27.6639   20.1174 C   0  0  0  0  0  0  0  0  0  0  0  0
  -21.9883  -23.3274   19.8325 C   0  0  0  0  0  0  0  0  0  0  0  0
  -20.2567  -22.8472   21.4475 C   0  0  0  0  0  0  0  0  0  0  0  0
  -26.4836  -29.3889   19.9665 C   0  0  0  0  0  0  0  0  0  0  0  0
  -25.7933  -26.6954   19.9147 C   0  0  0  0  0  0  0  0  0  0  0  0
  -25.3321  -20.6533   19.2764 C   0  0  0  0  0  0  0  0  0  0  0  0
  -21.5148  -24.6340   19.7134 C   0  0  0  0  0  0  0  0  0  0  0  0
  -19.7833  -24.1538   21.3284 C   0  0  0  0  0  0  0  0  0  0  0  0
  -25.1920  -19.7362   18.2357 C   0  0  0  0  0  0  0  0  0  0  0  0
  -20.6235  -27.2200   22.4743 C   0  0  0  0  0  0  0  0  0  0  0  0
  -20.3110  -27.9040   23.6490 C   0  0  0  0  0  0  0  0  0  0  0  0
  -27.5766  -19.3719   18.2436 C   0  0  0  0  0  0  0  0  0  0  0  0
  -18.0284  -28.1524   22.8970 C   0  0  0  0  0  0  0  0  0  0  0  0
  -25.3198  -13.6736   18.5289 C   0  0  0  0  0  0  0  0  0  0  0  0
  -25.8340  -15.6888   19.2577 C   0  0  0  0  0  0  0  0  0  0  0  0
  -21.3592  -22.4339   20.6996 C   0  0  0  0  0  0  0  0  0  0  0  0
  -22.8193  -20.6103   21.7242 C   0  0  0  0  0  0  0  0  0  0  0  0
  -27.4817  -28.4248   19.7490 C   0  0  0  0  0  0  0  0  0  0  0  0
  -26.5990  -20.9453   19.8020 C   0  0  0  0  0  0  0  0  0  0  0  0
  -27.1431  -27.0563   19.7521 C   0  0  0  0  0  0  0  0  0  0  0  0
  -27.7299  -20.2912   19.2926 C   0  0  0  0  0  0  0  0  0  0  0  0
  -20.4123  -25.0472   20.4613 C   0  0  0  0  0  0  0  0  0  0  0  0
  -26.3146  -19.0975   17.7172 C   0  0  0  0  0  0  0  0  0  0  0  0
  -19.6386  -27.0022   21.5109 C   0  0  0  0  0  0  0  0  0  0  0  0
  -19.0135  -28.3703   23.8604 C   0  0  0  0  0  0  0  0  0  0  0  0
  -18.3410  -27.4684   21.7223 C   0  0  0  0  0  0  0  0  0  0  0  0
  -21.8474  -21.0839   20.8227 C   0  0  0  0  0  0  0  0  0  0  0  0
  -25.0636  -13.8026   19.8736 C   0  0  0  0  0  0  0  0  0  0  0  0
  -22.9261  -19.2705   21.4415 C   0  0  0  0  0  0  0  0  0  0  0  0
  -23.5595  -21.3182   22.7276 C   0  0  0  0  0  0  0  0  0  0  0  0
  -28.3963  -23.5593   20.0026 C   0  0  0  0  0  0  0  0  0  0  0  0
  -30.3140  -21.6328   21.7727 C   0  0  0  0  0  0  0  0  0  0  0  0
  -31.3258  -18.4645   22.5376 C   0  0  0  0  0  0  0  0  0  0  0  0
  -20.0774  -14.4474   20.4716 C   0  0  0  0  0  0  0  0  0  0  0  0
  -28.9047  -28.8900   19.5649 C   0  0  0  0  0  0  0  0  0  0  0  0
  -26.7303  -21.9171   20.9425 C   0  0  0  0  0  0  0  0  0  0  0  0
  -29.1099  -20.5544   19.8355 C   0  0  0  0  0  0  0  0  0  0  0  0
  -29.7963  -27.8346   18.9187 C   0  0  0  0  0  0  0  0  0  0  0  0
  -21.1093  -16.5431   17.6002 C   0  0  0  0  0  0  0  0  0  0  0  0
  -29.6297  -26.5034   19.6363 C   0  0  0  0  0  0  0  0  0  0  0  0
  -21.4022  -17.8900   18.2591 C   0  0  0  0  0  0  0  0  0  0  0  0
  -20.0619  -15.7487   18.3745 C   0  0  0  0  0  0  0  0  0  0  0  0
  -20.6875  -16.9012   20.4709 C   0  0  0  0  0  0  0  0  0  0  0  0
  -28.1915  -25.9872   19.5026 C   0  0  1  0  0  0  0  0  0  0  0  0
  -28.1266  -22.5213   21.0549 C   0  0  1  0  0  0  0  0  0  0  0  0
  -21.7729  -17.7067   19.7411 C   0  0  2  0  0  0  0  0  0  0  0  0
  -32.9359  -17.2091   23.9966 C   0  0  0  0  0  0  0  0  0  0  0  0
  -32.6038  -22.4136   19.9134 C   0  0  0  0  0  0  0  0  0  0  0  0
  -33.8958  -20.4600   20.7979 C   0  0  0  0  0  0  0  0  0  0  0  0
  -33.2177  -22.3038   22.3352 C   0  0  0  0  0  0  0  0  0  0  0  0
  -20.3626  -13.2970   22.6338 C   0  0  0  0  0  0  0  0  0  0  0  0
  -29.1352  -17.0452   23.9327 C   0  0  0  0  0  0  0  0  0  0  0  0
  -24.5187  -12.7959   20.7971 C   0  0  0  0  0  0  0  0  0  0  0  0
  -22.9734  -12.7821   20.9193 C   0  0  0  0  0  0  0  0  0  0  0  0
  -25.2304  -16.1152   15.9959 C   0  0  0  0  0  0  0  0  0  0  0  0
  -26.2581  -15.2787   16.7613 C   0  0  0  0  0  0  0  0  0  0  0  0
  -22.3809  -14.0843   21.4538 C   0  0  0  0  0  0  0  0  0  0  0  0
  -24.9571  -17.4708   16.6368 C   0  0  0  0  0  0  0  0  0  1  0  0
  -31.4631  -20.7009   21.4727 C   0  0  1  0  0  0  0  0  0  0  0  0
  -31.5261  -17.7652   23.8700 C   0  0  2  0  0  0  0  0  0  0  0  0
  -32.7695  -21.4658   21.1180 C   0  0  0  0  0  0  0  0  0  0  0  0
  -25.3855  -15.0595   20.3211 N   0  0  0  0  0  0  0  0  0  0  0  0
  -21.3708  -20.1231   20.0267 N   0  0  0  0  0  0  0  0  0  0  0  0
  -25.8125  -14.8900   18.1483 N   0  0  0  0  0  0  0  0  0  0  0  0
  -22.0461  -19.0323   20.4271 N   0  0  0  0  0  0  0  0  0  0  0  0
  -29.1872  -21.5175   20.9464 N   0  0  0  0  0  0  0  0  0  0  0  0
  -20.4177  -15.6267   19.7886 N   0  0  0  0  0  0  0  0  0  0  0  0
  -23.6859  -18.2846   21.9642 N   0  0  0  0  0  0  0  0  0  0  0  0
  -23.3268  -22.6913   22.8853 N   0  0  0  0  0  0  0  0  0  0  0  0
  -28.0202  -24.8386   20.3647 N   0  0  0  0  0  0  0  0  0  0  0  0
  -31.5832  -19.8162   22.6265 N   0  0  0  0  0  0  0  0  0  0  0  0
  -20.9215  -14.0488   21.5192 N   0  0  0  0  0  0  0  0  0  0  0  0
  -30.5617  -16.6382   24.0137 N   0  3  0  0  0  0  0  0  0  0  0  0
  -24.4141  -20.7533   23.4515 O   0  0  0  0  0  0  0  0  0  0  0  0
  -28.9092  -23.2245   18.9411 O   0  0  0  0  0  0  0  0  0  0  0  0
  -30.4098  -22.4286   22.7103 O   0  0  0  0  0  0  0  0  0  0  0  0
  -30.9794  -17.8704   21.5190 O   0  0  0  0  0  0  0  0  0  0  0  0
  -19.0816  -13.7834   20.1565 O   0  0  0  0  0  0  0  0  0  0  0  0
  -19.9502  -26.3222   20.3455 O   0  0  0  0  0  0  0  0  0  0  0  0
  -26.1806  -18.2024   16.7010 O   0  0  0  0  0  0  0  0  0  1  0  0
  -18.7131  -29.0258   24.9892 F   0  0  0  0  0  0  0  0  0  0  0  0
  -17.3902  -27.2611   20.8009 F   0  0  0  0  0  0  0  0  0  0  0  0
  1  2  1  0  0  0  0
  1  5  2  0  0  0  0
  2  6  2  0  0  0  0
  3  8  2  0  0  0  0
  3 17  1  0  0  0  0
  4  9  1  0  0  0  0
  4 17  2  0  0  0  0
  5 19  1  0  0  0  0
  6 21  1  0  0  0  0
  7 10  2  0  0  0  0
  7 20  1  0  0  0  0
  8 23  1  0  0  0  0
  9 23  2  0  0  0  0
 10 24  1  0  0  0  0
 11 12  2  0  0  0  0
 11 25  1  0  0  0  0
 12 26  1  0  0  0  0
 13 22  1  0  0  0  0
 13 24  2  0  0  0  0
 14 26  2  0  0  0  0
 14 27  1  0  0  0  0
 15 29  2  0  0  0  0
 15 65  1  0  0  0  0
 16 63  2  0  0  0  0
 16 65  1  0  0  0  0
 17 28  1  0  0  0  0
 18 28  1  0  0  0  0
 18 30  2  0  0  0  0
 18 31  1  0  0  0  0
 19 21  2  0  0  0  0
 19 36  1  0  0  0  0
 20 22  2  0  0  0  0
 20 37  1  0  0  0  0
 21 45  1  0  0  0  0
 22 38  1  0  0  0  0
 23 80  1  0  0  0  0
 24 81  1  0  0  0  0
 25 27  2  0  0  0  0
 25 80  1  0  0  0  0
 26 82  1  0  0  0  0
 27 83  1  0  0  0  0
 28 64  2  0  0  0  0
 29 54  1  0  0  0  0
 29 63  1  0  0  0  0
 30 66  1  0  0  0  0
 30 69  1  0  0  0  0
 31 70  1  0  0  0  0
 31 75  2  0  0  0  0
 32 46  1  0  0  0  0
 32 71  1  0  0  0  0
 32 76  2  0  0  0  0
 33 60  1  0  0  0  0
 33 67  1  0  0  0  0
 33 77  2  0  0  0  0
 34 61  1  0  0  0  0
 34 72  1  0  0  0  0
 34 78  2  0  0  0  0
 35 68  1  0  0  0  0
 35 73  1  0  0  0  0
 35 79  2  0  0  0  0
 36 39  1  0  0  0  0
 37 46  1  0  0  0  0
 38 67  1  0  0  0  0
 39 41  1  0  0  0  0
 40 42  1  0  0  0  0
 40 43  1  0  0  0  0
 41 45  1  0  0  0  0
 42 47  1  0  0  0  0
 43 68  1  0  0  0  0
 44 47  1  0  0  0  0
 44 68  1  0  0  0  0
 45 71  1  0  0  0  0
 46 67  1  0  0  0  0
 47 66  1  0  0  0  0
 48 61  1  0  0  0  0
 49 62  1  0  0  0  0
 50 62  1  0  0  0  0
 51 62  1  0  0  0  0
 52 73  1  0  0  0  0
 53 74  1  0  0  0  0
 54 55  1  0  0  0  0
 55 58  1  0  0  0  0
 56 57  1  0  0  0  0
 56 59  1  0  0  0  0
 57 65  1  0  0  0  0
 58 73  1  0  0  0  0
 59 81  1  0  0  0  0
 60 62  1  0  0  0  0
 60 72  1  0  0  0  0
 61 74  1  0  0  0  0
 64 66  1  0  0  0  0
M  CHG  1  74   1
M  ISO  4  35 100  59 101  73 100  81 101
M  END
> <Batch ID>
0052

> <Smiles>
CNC(C)C(=O)NC(C(=O)N1Cc2cc([101O:1][101CH2:1]CCn3cnc(CCC[100N:0](C)[100C:0](=O)N4CCCC(n5nc(-c6ccc(Oc7ccc(F)cc7F)cc6)c(C(N)=O)c5N)C4)c3)ccc2CC1C(=O)NC1CCCc2ccccc21)C(C)(C)C

> <Shape>
0.183

> <Color>
0.076

> <Negative vol penalty>
0.000

$$$$

  -OEChem-04052317363D

 86 94  0     1  0  0  0  0  0999 V2000
  -27.6947  -23.4620   18.4902 C   0  0  0  0  0  0  0  0  0  0  0  0
  -26.4655  -24.0009   18.8564 C   0  0  0  0  0  0  0  0  0  0  0  0
  -24.3937   -9.4669   21.6721 C   0  0  0  0  0  0  0  0  0  0  0  0
  -22.6886  -10.0507   20.0631 C   0  0  0  0  0  0  0  0  0  0  0  0
  -28.8411  -23.7891   19.2133 C   0  0  0  0  0  0  0  0  0  0  0  0
  -26.3818  -24.8663   19.9465 C   0  0  0  0  0  0  0  0  0  0  0  0
  -23.5205  -28.9322   18.9837 C   0  0  0  0  0  0  0  0  0  0  0  0
  -23.6869   -8.3105   22.0016 C   0  0  0  0  0  0  0  0  0  0  0  0
  -21.9818   -8.8942   20.3926 C   0  0  0  0  0  0  0  0  0  0  0  0
  -22.1374  -28.7612   19.0225 C   0  0  0  0  0  0  0  0  0  0  0  0
  -21.0001   -7.4837   23.8783 C   0  0  0  0  0  0  0  0  0  0  0  0
  -20.8553   -7.1770   25.2313 C   0  0  0  0  0  0  0  0  0  0  0  0
  -22.0883  -29.7105   21.2396 C   0  0  0  0  0  0  0  0  0  0  0  0
  -22.0050   -5.0814   24.8793 C   0  0  0  0  0  0  0  0  0  0  0  0
  -18.6997  -25.5035   21.4743 C   0  0  0  0  0  0  0  0  0  0  0  0
  -18.5867  -25.2961   18.8151 C   0  0  0  0  0  0  0  0  0  0  0  0
  -23.8946  -10.3370   20.7028 C   0  0  0  0  0  0  0  0  0  0  0  0
  -25.6103  -11.6717   19.3676 C   0  0  0  0  0  0  0  0  0  0  0  0
  -28.7729  -24.6666   20.3069 C   0  0  0  0  0  0  0  0  0  0  0  0
  -24.2004  -29.4846   20.0787 C   0  0  0  0  0  0  0  0  0  0  0  0
  -27.5281  -25.2044   20.6856 C   0  0  0  0  0  0  0  0  0  0  0  0
  -23.4797  -29.8899   21.2112 C   0  0  0  0  0  0  0  0  0  0  0  0
  -22.4809   -8.0241   21.3619 C   0  0  0  0  0  0  0  0  0  0  0  0
  -21.4214  -29.1476   20.1517 C   0  0  0  0  0  0  0  0  0  0  0  0
  -21.6474   -6.5893   23.0258 C   0  0  0  0  0  0  0  0  0  0  0  0
  -21.3577   -5.9759   25.7318 C   0  0  0  0  0  0  0  0  0  0  0  0
  -22.1498   -5.3882   23.5263 C   0  0  0  0  0  0  0  0  0  0  0  0
  -24.6240  -11.5321   20.3624 C   0  0  0  0  0  0  0  0  0  0  0  0
  -18.4321  -26.6013   20.6864 C   0  0  0  0  0  0  0  0  0  0  0  0
  -18.8551  -24.1984   19.6028 C   0  0  0  0  0  0  0  0  0  0  0  0
  -25.9895  -12.9897   19.4426 C   0  0  0  0  0  0  0  0  0  0  0  0
  -26.1365  -10.6972   18.4571 C   0  0  0  0  0  0  0  0  0  0  0  0
  -26.4502  -28.4546   22.0740 C   0  0  0  0  0  0  0  0  0  0  0  0
  -26.3506  -31.5141   23.1472 C   0  0  0  0  0  0  0  0  0  0  0  0
  -24.5787  -34.4119   23.4786 C   0  0  0  0  0  0  0  0  0  0  0  0
  -23.2957  -17.8302   21.1514 C   0  0  0  0  0  0  0  0  0  0  0  0
  -30.0314  -24.9534   21.0870 C   0  0  0  0  0  0  0  0  0  0  0  0
  -25.6893  -29.6872   20.0106 C   0  0  0  0  0  0  0  0  0  0  0  0
  -24.1598  -30.5066   22.4052 C   0  0  0  0  0  0  0  0  0  0  0  0
  -29.9183  -26.1724   21.9989 C   0  0  0  0  0  0  0  0  0  0  0  0
  -26.3242  -16.6305   22.5157 C   0  0  0  0  0  0  0  0  0  0  0  0
  -28.6124  -26.1308   22.7861 C   0  0  0  0  0  0  0  0  0  0  0  0
  -26.3251  -15.1836   22.0245 C   0  0  0  0  0  0  0  0  0  0  0  0
  -24.9301  -17.0901   22.9466 C   0  0  0  0  0  0  0  0  0  0  0  0
  -23.8892  -15.4414   21.4230 C   0  0  0  0  0  0  0  0  0  0  0  0
  -27.4007  -26.1664   21.8469 C   0  0  1  0  0  0  0  0  0  0  0  0
  -26.3424  -29.7859   21.3858 C   0  0  1  0  0  0  0  0  0  0  0  0
  -25.2666  -14.9742   20.9278 C   0  0  2  0  0  0  0  0  0  0  0  0
  -24.7478  -36.7259   24.4348 C   0  0  0  0  0  0  0  0  0  0  0  0
  -25.9198  -30.3852   25.9490 C   0  0  0  0  0  0  0  0  0  0  0  0
  -25.1600  -32.6584   26.6725 C   0  0  0  0  0  0  0  0  0  0  0  0
  -27.4877  -32.3303   25.8378 C   0  0  0  0  0  0  0  0  0  0  0  0
  -19.0075  -22.8486   17.5255 C   0  0  0  0  0  0  0  0  0  0  0  0
  -22.8737  -19.2075   23.2323 C   0  0  0  0  0  0  0  0  0  0  0  0
  -24.2360  -35.6618   20.8179 C   0  0  0  0  0  0  0  0  0  0  0  0
  -18.1947  -27.9539   21.3128 C   0  0  0  0  0  0  0  0  0  0  0  0
  -20.8748  -21.6241   19.9632 C   0  0  0  0  0  0  0  0  0  0  0  0
  -21.2320  -20.3818   20.7890 C   0  0  0  0  0  0  0  0  0  0  0  0
  -19.3695  -21.7750   19.7537 C   0  0  0  0  0  0  0  0  0  0  0  0
  -22.7363  -20.2258   20.9895 C   0  0  0  0  0  0  0  0  0  0  0  0
  -19.4835  -28.7531   21.4726 C   0  0  0  0  0  0  0  0  0  1  0  0
  -25.5617  -32.2520   24.2018 C   0  0  1  0  0  0  0  0  0  0  0  0
  -24.9513  -35.8575   23.2030 C   0  0  2  0  0  0  0  0  0  0  0  0
  -26.0194  -31.8931   25.6437 C   0  0  0  0  0  0  0  0  0  0  0  0
  -18.3705  -26.5173   19.3428 N   0  0  0  0  0  0  0  0  0  0  0  0
  -18.9164  -24.2824   20.9466 N   0  0  0  0  0  0  0  0  0  0  0  0
  -24.3914  -12.6705   21.0212 N   0  0  0  0  0  0  0  0  0  0  0  0
  -25.2369  -13.5379   20.4392 N   0  0  0  0  0  0  0  0  0  0  0  0
  -25.6177  -30.6781   22.2930 N   0  0  0  0  0  0  0  0  0  0  0  0
  -23.9428  -16.8288   21.8903 N   0  0  0  0  0  0  0  0  0  0  0  0
  -26.8900  -13.7214   18.7528 N   0  0  0  0  0  0  0  0  0  0  0  0
  -25.6353   -9.3896   18.5149 N   0  0  0  0  0  0  0  0  0  0  0  0
  -27.1727  -27.5125   21.3669 N   0  0  0  0  0  0  0  0  0  0  0  0
  -25.6709  -33.6698   23.8757 N   0  0  0  0  0  0  0  0  0  0  0  0
  -19.0702  -22.9546   18.9685 N   0  0  3  0  0  0  0  0  0  0  0  0
  -23.0728  -19.0583   21.7920 N   0  0  0  0  0  0  0  0  0  0  0  0
  -24.1154  -36.4062   22.0979 N   0  3  0  0  0  0  0  0  0  0  0  0
  -27.0365  -10.9736   17.6281 O   0  0  0  0  0  0  0  0  0  0  0  0
  -25.9186  -28.2944   23.1665 O   0  0  0  0  0  0  0  0  0  0  0  0
  -27.5712  -31.6791   23.0792 O   0  0  0  0  0  0  0  0  0  0  0  0
  -23.4327  -33.9847   23.3575 O   0  0  0  0  0  0  0  0  0  0  0  0
  -22.9292  -17.6363   19.9852 O   0  0  0  0  0  0  0  0  0  0  0  0
  -21.7911   -6.8956   21.6830 O   0  0  0  0  0  0  0  0  0  0  0  0
  -20.0714  -28.9811   20.1925 O   0  0  0  0  0  0  0  0  0  1  0  0
  -21.2200   -5.6822   27.0314 F   0  0  0  0  0  0  0  0  0  0  0  0
  -22.7736   -4.5254   22.7124 F   0  0  0  0  0  0  0  0  0  0  0  0
  1  2  1  0  0  0  0
  1  5  2  0  0  0  0
  2  6  2  0  0  0  0
  3  8  2  0  0  0  0
  3 17  1  0  0  0  0
  4  9  1  0  0  0  0
  4 17  2  0  0  0  0
  5 19  1  0  0  0  0
  6 21  1  0  0  0  0
  7 10  2  0  0  0  0
  7 20  1  0  0  0  0
  8 23  1  0  0  0  0
  9 23  2  0  0  0  0
 10 24  1  0  0  0  0
 11 12  2  0  0  0  0
 11 25  1  0  0  0  0
 12 26  1  0  0  0  0
 13 22  1  0  0  0  0
 13 24  2  0  0  0  0
 14 26  2  0  0  0  0
 14 27  1  0  0  0  0
 15 29  1  0  0  0  0
 15 66  2  0  0  0  0
 16 30  2  0  0  0  0
 16 65  1  0  0  0  0
 17 28  1  0  0  0  0
 18 28  1  0  0  0  0
 18 31  2  0  0  0  0
 18 32  1  0  0  0  0
 19 21  2  0  0  0  0
 19 37  1  0  0  0  0
 20 22  2  0  0  0  0
 20 38  1  0  0  0  0
 21 46  1  0  0  0  0
 22 39  1  0  0  0  0
 23 83  1  0  0  0  0
 24 84  1  0  0  0  0
 25 27  2  0  0  0  0
 25 83  1  0  0  0  0
 26 85  1  0  0  0  0
 27 86  1  0  0  0  0
 28 67  2  0  0  0  0
 29 56  1  0  0  0  0
 29 65  2  0  0  0  0
 30 66  1  0  0  0  0
 30 75  1  0  0  0  0
 31 68  1  0  0  0  0
 31 71  1  0  0  0  0
 32 72  1  0  0  0  0
 32 78  2  0  0  0  0
 33 47  1  0  0  0  0
 33 73  1  0  0  0  0
 33 79  2  0  0  0  0
 34 62  1  0  0  0  0
 34 69  1  0  0  0  0
 34 80  2  0  0  0  0
 35 63  1  0  0  0  0
 35 74  1  0  0  0  0
 35 81  2  0  0  0  0
 36 70  1  0  0  0  0
 36 76  1  0  0  0  0
 36 82  2  0  0  0  0
 37 40  1  0  0  0  0
 38 47  1  0  0  0  0
 39 69  1  0  0  0  0
 40 42  1  0  0  0  0
 41 43  1  0  0  0  0
 41 44  1  0  0  0  0
 42 46  1  0  0  0  0
 43 48  1  0  0  0  0
 44 70  1  0  0  0  0
 45 48  1  0  0  0  0
 45 70  1  0  0  0  0
 46 73  1  0  0  0  0
 47 69  1  0  0  0  0
 48 68  1  0  0  0  0
 49 63  1  0  0  0  0
 50 64  1  0  0  0  0
 51 64  1  0  0  0  0
 52 64  1  0  0  0  0
 53 75  1  0  0  0  0
 54 76  1  0  0  0  0
 55 77  1  0  0  0  0
 56 61  1  0  0  0  0
 57 58  1  0  0  0  0
 57 59  1  0  0  0  0
 58 60  1  0  0  0  0
 59 75  1  0  0  0  0
 60 76  1  0  0  0  0
 61 84  1  0  0  0  0
 62 64  1  0  0  0  0
 62 74  1  0  0  0  0
 63 77  1  0  0  0  0
 67 68  1  0  0  0  0
M  CHG  1  77   1
M  ISO  4  36 100  61 101  76 100  84 101
M  END
> <Batch ID>
0052

> <Smiles>
CNC(C)C(=O)NC(C(=O)N1Cc2cc([101O:1][101CH2:1]Cc3cnc(N(C)CCCC[100N:0](C)[100C:0](=O)N4CCCC(n5nc(-c6ccc(Oc7ccc(F)cc7F)cc6)c(C(N)=O)c5N)C4)cn3)ccc2CC1C(=O)NC1CCCc2ccccc21)C(C)(C)C

> <Shape>
0.298

> <Color>
0.101

> <Negative vol penalty>
0.000

$$$$

  -OEChem-04052317363D

 82 90  0     1  0  0  0  0  0999 V2000
  -21.0588  -20.4140   25.2702 C   0  0  0  0  0  0  0  0  0  0  0  0
  -22.2475  -20.7718   24.6422 C   0  0  0  0  0  0  0  0  0  0  0  0
  -26.8942  -12.9651   21.0576 C   0  0  0  0  0  0  0  0  0  0  0  0
  -26.3677  -13.6543   18.8027 C   0  0  0  0  0  0  0  0  0  0  0  0
  -19.9084  -21.1754   25.0681 C   0  0  0  0  0  0  0  0  0  0  0  0
  -22.2863  -21.8906   23.8109 C   0  0  0  0  0  0  0  0  0  0  0  0
  -26.9696  -25.7669   23.0712 C   0  0  0  0  0  0  0  0  0  0  0  0
  -26.1688  -11.7890   20.8676 C   0  0  0  0  0  0  0  0  0  0  0  0
  -25.6423  -12.4781   18.6126 C   0  0  0  0  0  0  0  0  0  0  0  0
  -27.9615  -25.8644   22.0963 C   0  0  0  0  0  0  0  0  0  0  0  0
  -24.1547   -8.7699   21.0955 C   0  0  0  0  0  0  0  0  0  0  0  0
  -23.2869   -8.3700   22.1117 C   0  0  0  0  0  0  0  0  0  0  0  0
  -26.6461  -27.5176   20.9319 C   0  0  0  0  0  0  0  0  0  0  0  0
  -22.0561  -10.4353   21.8735 C   0  0  0  0  0  0  0  0  0  0  0  0
  -26.8130  -24.3016   18.2014 C   0  0  0  0  0  0  0  0  0  0  0  0
  -26.9936  -13.8978   20.0252 C   0  0  0  0  0  0  0  0  0  0  0  0
  -29.1111  -15.3192   19.9643 C   0  0  0  0  0  0  0  0  0  0  0  0
  -19.9355  -22.3097   24.2415 C   0  0  0  0  0  0  0  0  0  0  0  0
  -25.8017  -26.5373   22.9778 C   0  0  0  0  0  0  0  0  0  0  0  0
  -21.1349  -22.6672   23.5965 C   0  0  0  0  0  0  0  0  0  0  0  0
  -25.6421  -27.4299   21.9083 C   0  0  0  0  0  0  0  0  0  0  0  0
  -25.5429  -11.5455   19.6450 C   0  0  0  0  0  0  0  0  0  0  0  0
  -27.7986  -26.7377   21.0249 C   0  0  0  0  0  0  0  0  0  0  0  0
  -23.9732  -10.0026   20.4684 C   0  0  0  0  0  0  0  0  0  0  0  0
  -22.2376   -9.2026   22.5007 C   0  0  0  0  0  0  0  0  0  0  0  0
  -22.9239  -10.8352   20.8573 C   0  0  0  0  0  0  0  0  0  0  0  0
  -27.7424  -15.1132   20.2211 C   0  0  0  0  0  0  0  0  0  0  0  0
  -27.9588  -24.5055   17.4094 C   0  0  0  0  0  0  0  0  0  0  0  0
  -26.3848  -23.0400   17.8674 C   0  0  0  0  0  0  0  0  0  0  0  0
  -29.3323  -16.6293   20.3122 C   0  0  0  0  0  0  0  0  0  0  0  0
  -30.0946  -14.4078   19.4566 C   0  0  0  0  0  0  0  0  0  0  0  0
  -22.7032  -25.8882   22.6920 C   0  0  0  0  0  0  0  0  0  0  0  0
  -22.3959  -29.0972   23.0532 C   0  0  0  0  0  0  0  0  0  0  0  0
  -23.8091  -32.1917   22.7821 C   0  0  0  0  0  0  0  0  0  0  0  0
  -25.7586  -21.4230   20.6294 C   0  0  0  0  0  0  0  0  0  0  0  0
  -18.6551  -23.0743   24.0160 C   0  0  0  0  0  0  0  0  0  0  0  0
  -24.7531  -26.4402   24.0518 C   0  0  0  0  0  0  0  0  0  0  0  0
  -24.4159  -28.2940   21.7727 C   0  0  0  0  0  0  0  0  0  0  0  0
  -18.8716  -24.4616   23.4169 C   0  0  0  0  0  0  0  0  0  0  0  0
  -27.7290  -20.0441   23.2549 C   0  0  0  0  0  0  0  0  0  0  0  0
  -19.8491  -24.3917   22.2480 C   0  0  0  0  0  0  0  0  0  0  0  0
  -28.0793  -18.6426   22.7519 C   0  0  0  0  0  0  0  0  0  0  0  0
  -26.3181  -20.4562   22.8404 C   0  0  0  0  0  0  0  0  0  0  0  0
  -26.3914  -18.9478   20.8928 C   0  0  0  0  0  0  0  0  0  0  0  0
  -21.2229  -23.8883   22.7071 C   0  0  1  0  0  0  0  0  0  0  0  0
  -23.3741  -26.8946   23.5834 C   0  0  1  0  0  0  0  0  0  0  0  0
  -27.8251  -18.5102   21.2383 C   0  0  2  0  0  0  0  0  0  0  0  0
  -26.7056  -21.3934   14.8523 C   0  0  0  0  0  0  0  0  0  0  0  0
  -23.2992  -34.6262   23.1145 C   0  0  0  0  0  0  0  0  0  0  0  0
  -20.7654  -29.1054   20.4742 C   0  0  0  0  0  0  0  0  0  0  0  0
  -21.0989  -31.5838   20.3534 C   0  0  0  0  0  0  0  0  0  0  0  0
  -19.8687  -30.5850   22.2800 C   0  0  0  0  0  0  0  0  0  0  0  0
  -25.9390  -32.4791   24.8168 C   0  0  0  0  0  0  0  0  0  0  0  0
  -28.8389  -25.7290   17.3645 C   0  0  0  0  0  0  0  0  0  0  0  0
  -25.2377  -22.2479   18.3474 C   0  0  0  0  0  0  0  0  0  0  0  0
  -29.9990  -25.6902   18.3616 C   0  0  0  0  0  0  0  0  0  0  0  0
  -27.2411  -21.2988   16.2707 C   0  0  0  0  0  0  0  0  0  0  0  0
  -29.5444  -25.6666   19.8163 C   0  0  0  0  0  0  0  0  0  1  0  0
  -22.3733  -30.2811   22.1169 C   0  0  1  0  0  0  0  0  0  0  0  0
  -23.8624  -33.3628   23.7465 C   0  0  2  0  0  0  0  0  0  0  0  0
  -21.0489  -30.3713   21.3073 C   0  0  0  0  0  0  0  0  0  0  0  0
  -27.1367  -16.2050   20.6957 N   0  0  0  0  0  0  0  0  0  0  0  0
  -28.2408  -23.4573   16.6310 N   0  0  0  0  0  0  0  0  0  0  0  0
  -27.2661  -22.5826   16.9323 N   0  0  0  0  0  0  0  0  0  0  0  0
  -28.1296  -17.1096   20.7399 N   0  0  0  0  0  0  0  0  0  0  0  0
  -23.4162  -28.1583   22.8449 N   0  0  0  0  0  0  0  0  0  0  0  0
  -26.1429  -20.3088   21.3935 N   0  0  0  0  0  0  0  0  0  0  0  0
  -30.4364  -17.4059   20.2910 N   0  0  0  0  0  0  0  0  0  0  0  0
  -29.6976  -13.0990   19.1501 N   0  0  0  0  0  0  0  0  0  0  0  0
  -21.9532  -24.9469   23.3709 N   0  0  0  0  0  0  0  0  0  0  0  0
  -22.6538  -31.4551   22.9364 N   0  0  0  0  0  0  0  0  0  0  0  0
  -25.6212  -21.1983   19.2651 N   0  0  0  0  0  0  0  0  0  0  0  0
  -25.2691  -33.6305   24.1591 N   0  3  0  0  0  0  0  0  0  0  0  0
  -31.2936  -14.7392   19.2955 O   0  0  0  0  0  0  0  0  0  0  0  0
  -22.8535  -25.9613   21.4780 O   0  0  0  0  0  0  0  0  0  0  0  0
  -21.5441  -29.0123   23.9414 O   0  0  0  0  0  0  0  0  0  0  0  0
  -24.7014  -31.9563   21.9703 O   0  0  0  0  0  0  0  0  0  0  0  0
  -25.5584  -22.5369   21.1255 O   0  0  0  0  0  0  0  0  0  0  0  0
  -24.8352  -10.3978   19.4591 O   0  0  0  0  0  0  0  0  0  0  0  0
  -28.7649  -26.8343   20.0717 O   0  0  0  0  0  0  0  0  0  1  0  0
  -21.4035   -8.8178   23.4755 F   0  0  0  0  0  0  0  0  0  0  0  0
  -22.7439  -12.0200   20.2577 F   0  0  0  0  0  0  0  0  0  0  0  0
  1  2  1  0  0  0  0
  1  5  2  0  0  0  0
  2  6  2  0  0  0  0
  3  8  2  0  0  0  0
  3 16  1  0  0  0  0
  4  9  1  0  0  0  0
  4 16  2  0  0  0  0
  5 18  1  0  0  0  0
  6 20  1  0  0  0  0
  7 10  2  0  0  0  0
  7 19  1  0  0  0  0
  8 22  1  0  0  0  0
  9 22  2  0  0  0  0
 10 23  1  0  0  0  0
 11 12  2  0  0  0  0
 11 24  1  0  0  0  0
 12 25  1  0  0  0  0
 13 21  1  0  0  0  0
 13 23  2  0  0  0  0
 14 25  2  0  0  0  0
 14 26  1  0  0  0  0
 15 28  1  0  0  0  0
 15 29  2  0  0  0  0
 16 27  1  0  0  0  0
 17 27  1  0  0  0  0
 17 30  2  0  0  0  0
 17 31  1  0  0  0  0
 18 20  2  0  0  0  0
 18 36  1  0  0  0  0
 19 21  2  0  0  0  0
 19 37  1  0  0  0  0
 20 45  1  0  0  0  0
 21 38  1  0  0  0  0
 22 79  1  0  0  0  0
 23 80  1  0  0  0  0
 24 26  2  0  0  0  0
 24 79  1  0  0  0  0
 25 81  1  0  0  0  0
 26 82  1  0  0  0  0
 27 62  2  0  0  0  0
 28 54  1  0  0  0  0
 28 63  2  0  0  0  0
 29 55  1  0  0  0  0
 29 64  1  0  0  0  0
 30 65  1  0  0  0  0
 30 68  1  0  0  0  0
 31 69  1  0  0  0  0
 31 74  2  0  0  0  0
 32 46  1  0  0  0  0
 32 70  1  0  0  0  0
 32 75  2  0  0  0  0
 33 59  1  0  0  0  0
 33 66  1  0  0  0  0
 33 76  2  0  0  0  0
 34 60  1  0  0  0  0
 34 71  1  0  0  0  0
 34 77  2  0  0  0  0
 35 67  1  0  0  0  0
 35 72  1  0  0  0  0
 35 78  2  0  0  0  0
 36 39  1  0  0  0  0
 37 46  1  0  0  0  0
 38 66  1  0  0  0  0
 39 41  1  0  0  0  0
 40 42  1  0  0  0  0
 40 43  1  0  0  0  0
 41 45  1  0  0  0  0
 42 47  1  0  0  0  0
 43 67  1  0  0  0  0
 44 47  1  0  0  0  0
 44 67  1  0  0  0  0
 45 70  1  0  0  0  0
 46 66  1  0  0  0  0
 47 65  1  0  0  0  0
 48 57  1  0  0  0  0
 49 60  1  0  0  0  0
 50 61  1  0  0  0  0
 51 61  1  0  0  0  0
 52 61  1  0  0  0  0
 53 73  1  0  0  0  0
 54 56  1  0  0  0  0
 55 72  1  0  0  0  0
 56 58  1  0  0  0  0
 57 64  1  0  0  0  0
 58 80  1  0  0  0  0
 59 61  1  0  0  0  0
 59 71  1  0  0  0  0
 60 73  1  0  0  0  0
 62 65  1  0  0  0  0
 63 64  1  0  0  0  0
M  CHG  1  73   1
M  ISO  4  35 100  58 101  72 100  80 101
M  END
> <Batch ID>
0052

> <Smiles>
CCn1nc(CC[101CH2:1][101O:1]c2ccc3c(c2)CN(C(=O)C(NC(=O)C(C)NC)C(C)(C)C)C(C(=O)NC2CCCc4ccccc42)C3)cc1C[100NH:0][100C:0](=O)N1CCCC(n2nc(-c3ccc(Oc4ccc(F)cc4F)cc3)c(C(N)=O)c2N)C1

> <Shape>
0.202

> <Color>
0.079

> <Negative vol penalty>
0.000

$$$$

  -OEChem-04052317363D

 84 92  0     1  0  0  0  0  0999 V2000
  -18.4579  -25.1697   25.1341 C   0  0  0  0  0  0  0  0  0  0  0  0
  -19.7594  -24.7855   24.8277 C   0  0  0  0  0  0  0  0  0  0  0  0
  -26.6645  -12.3061   21.8929 C   0  0  0  0  0  0  0  0  0  0  0  0
  -26.1497  -13.7607   20.0339 C   0  0  0  0  0  0  0  0  0  0  0  0
  -17.9335  -26.3433   24.5943 C   0  0  0  0  0  0  0  0  0  0  0  0
  -20.5369  -25.5742   23.9804 C   0  0  0  0  0  0  0  0  0  0  0  0
  -26.5840  -26.4825   24.3159 C   0  0  0  0  0  0  0  0  0  0  0  0
  -25.9917  -11.2603   21.2611 C   0  0  0  0  0  0  0  0  0  0  0  0
  -25.4769  -12.7149   19.4019 C   0  0  0  0  0  0  0  0  0  0  0  0
  -27.6579  -25.9088   23.6365 C   0  0  0  0  0  0  0  0  0  0  0  0
  -24.1000   -8.3072   20.2997 C   0  0  0  0  0  0  0  0  0  0  0  0
  -23.2318   -7.5335   21.0698 C   0  0  0  0  0  0  0  0  0  0  0  0
  -27.6507  -27.7523   22.0807 C   0  0  0  0  0  0  0  0  0  0  0  0
  -21.9212   -9.5009   21.5689 C   0  0  0  0  0  0  0  0  0  0  0  0
  -27.8188  -22.2528   19.1690 C   0  0  0  0  0  0  0  0  0  0  0  0
  -29.6278  -22.9568   21.0019 C   0  0  0  0  0  0  0  0  0  0  0  0
  -26.7435  -13.5563   21.2794 C   0  0  0  0  0  0  0  0  0  0  0  0
  -28.8014  -14.9667   21.8120 C   0  0  0  0  0  0  0  0  0  0  0  0
  -18.7081  -27.1518   23.7477 C   0  0  0  0  0  0  0  0  0  0  0  0
  -26.0275  -27.6920   23.8756 C   0  0  0  0  0  0  0  0  0  0  0  0
  -20.0218  -26.7590   23.4277 C   0  0  0  0  0  0  0  0  0  0  0  0
  -26.5715  -28.3406   22.7577 C   0  0  0  0  0  0  0  0  0  0  0  0
  -25.3979  -11.4647   20.0156 C   0  0  0  0  0  0  0  0  0  0  0  0
  -28.1895  -26.5422   22.5171 C   0  0  0  0  0  0  0  0  0  0  0  0
  -23.8789   -9.6778   20.1642 C   0  0  0  0  0  0  0  0  0  0  0  0
  -22.1424   -8.1303   21.7044 C   0  0  0  0  0  0  0  0  0  0  0  0
  -22.7895  -10.2746   20.7987 C   0  0  0  0  0  0  0  0  0  0  0  0
  -27.4380  -14.6371   21.9318 C   0  0  0  0  0  0  0  0  0  0  0  0
  -28.0989  -21.4354   20.2419 C   0  0  0  0  0  0  0  0  0  0  0  0
  -29.3483  -23.7739   19.9287 C   0  0  0  0  0  0  0  0  0  0  0  0
  -28.9622  -16.0628   22.6239 C   0  0  0  0  0  0  0  0  0  0  0  0
  -29.8303  -14.3384   21.0360 C   0  0  0  0  0  0  0  0  0  0  0  0
  -23.1710  -28.5901   22.8090 C   0  0  0  0  0  0  0  0  0  0  0  0
  -24.4957  -31.5494   22.9101 C   0  0  0  0  0  0  0  0  0  0  0  0
  -27.3221  -33.4614   22.8663 C   0  0  0  0  0  0  0  0  0  0  0  0
  -24.7106  -20.0326   24.5481 C   0  0  0  0  0  0  0  0  0  0  0  0
  -18.0818  -28.3871   23.1505 C   0  0  0  0  0  0  0  0  0  0  0  0
  -24.8866  -28.3114   24.6352 C   0  0  0  0  0  0  0  0  0  0  0  0
  -26.0233  -29.6508   22.2565 C   0  0  0  0  0  0  0  0  0  0  0  0
  -19.0984  -29.3609   22.5602 C   0  0  0  0  0  0  0  0  0  0  0  0
  -27.1757  -18.1266   26.5461 C   0  0  0  0  0  0  0  0  0  0  0  0
  -20.1134  -28.6160   21.6989 C   0  0  0  0  0  0  0  0  0  0  0  0
  -27.5790  -17.0025   25.5933 C   0  0  0  0  0  0  0  0  0  0  0  0
  -25.7556  -18.6156   26.2776 C   0  0  0  0  0  0  0  0  0  0  0  0
  -25.9205  -17.9046   23.9151 C   0  0  0  0  0  0  0  0  0  0  0  0
  -20.9048  -27.6009   22.5323 C   0  0  1  0  0  0  0  0  0  0  0  0
  -24.0676  -29.2855   23.7940 C   0  0  1  0  0  0  0  0  0  0  0  0
  -27.3627  -17.4209   24.1286 C   0  0  2  0  0  0  0  0  0  0  0  0
  -24.6461  -23.1852   23.6365 C   0  0  0  0  0  0  0  0  0  0  0  0
  -28.0847  -35.8515   22.9256 C   0  0  0  0  0  0  0  0  0  0  0  0
  -23.6652  -31.8841   19.9932 C   0  0  0  0  0  0  0  0  0  0  0  0
  -25.2446  -33.8206   19.8384 C   0  0  0  0  0  0  0  0  0  0  0  0
  -23.3149  -33.9103   21.4167 C   0  0  0  0  0  0  0  0  0  0  0  0
  -28.8311  -33.0391   25.3770 C   0  0  0  0  0  0  0  0  0  0  0  0
  -27.3947  -20.1339   20.4047 C   0  0  0  0  0  0  0  0  0  0  0  0
  -30.0619  -25.0936   19.7639 C   0  0  0  0  0  0  0  0  0  0  0  0
  -26.0878  -20.2103   21.2206 C   0  0  0  0  0  0  0  0  0  0  0  0
  -24.1603  -21.8885   23.0209 C   0  0  0  0  0  0  0  0  0  0  0  0
  -26.2756  -20.6703   22.6647 C   0  0  0  0  0  0  0  0  0  0  0  0
  -29.3273  -26.2398   20.4507 C   0  0  0  0  0  0  0  0  0  1  0  0
  -25.2769  -32.4046   21.9420 C   0  0  1  0  0  0  0  0  0  0  0  0
  -27.7744  -34.6109   23.7487 C   0  0  2  0  0  0  0  0  0  0  0  0
  -24.3847  -32.9792   20.8056 C   0  0  0  0  0  0  0  0  0  0  0  0
  -29.0082  -21.7728   21.1777 N   0  0  0  0  0  0  0  0  0  0  0  0
  -28.4387  -23.4366   18.9931 N   0  0  0  0  0  0  0  0  0  0  0  0
  -26.7796  -15.4572   22.7552 N   0  0  0  0  0  0  0  0  0  0  0  0
  -27.7334  -16.3131   23.1601 N   0  0  0  0  0  0  0  0  0  0  0  0
  -24.9036  -30.2132   23.0294 N   0  0  0  0  0  0  0  0  0  0  0  0
  -25.5654  -18.9655   24.8696 N   0  0  0  0  0  0  0  0  0  0  0  0
  -30.0336  -16.8272   22.9244 N   0  0  0  0  0  0  0  0  0  0  0  0
  -29.4930  -13.2228   20.2575 N   0  0  0  0  0  0  0  0  0  0  0  0
  -21.9238  -28.2712   23.3112 N   0  0  0  0  0  0  0  0  0  0  0  0
  -25.9492  -33.4201   22.7452 N   0  0  0  0  0  0  0  0  0  0  0  0
  -25.0105  -20.7656   23.3898 N   0  0  0  0  0  0  0  0  0  0  0  0
  -29.0001  -34.2310   24.5065 N   0  3  0  0  0  0  0  0  0  0  0  0
  -31.0173  -14.7439   21.0459 O   0  0  0  0  0  0  0  0  0  0  0  0
  -23.5800  -28.3611   21.6768 O   0  0  0  0  0  0  0  0  0  0  0  0
  -23.5626  -32.0502   23.5427 O   0  0  0  0  0  0  0  0  0  0  0  0
  -28.1083  -32.6806   22.3345 O   0  0  0  0  0  0  0  0  0  0  0  0
  -23.7406  -20.3201   25.2611 O   0  0  0  0  0  0  0  0  0  0  0  0
  -24.7414  -10.4444   19.3986 O   0  0  0  0  0  0  0  0  0  0  0  0
  -29.2372  -25.9841   21.8517 O   0  0  0  0  0  0  0  0  0  1  0  0
  -21.3078   -7.3869   22.4426 F   0  0  0  0  0  0  0  0  0  0  0  0
  -22.5713  -11.5907   20.6713 F   0  0  0  0  0  0  0  0  0  0  0  0
  1  2  1  0  0  0  0
  1  5  2  0  0  0  0
  2  6  2  0  0  0  0
  3  8  2  0  0  0  0
  3 17  1  0  0  0  0
  4  9  1  0  0  0  0
  4 17  2  0  0  0  0
  5 19  1  0  0  0  0
  6 21  1  0  0  0  0
  7 10  2  0  0  0  0
  7 20  1  0  0  0  0
  8 23  1  0  0  0  0
  9 23  2  0  0  0  0
 10 24  1  0  0  0  0
 11 12  2  0  0  0  0
 11 25  1  0  0  0  0
 12 26  1  0  0  0  0
 13 22  1  0  0  0  0
 13 24  2  0  0  0  0
 14 26  2  0  0  0  0
 14 27  1  0  0  0  0
 15 29  1  0  0  0  0
 15 65  2  0  0  0  0
 16 30  2  0  0  0  0
 16 64  1  0  0  0  0
 17 28  1  0  0  0  0
 18 28  1  0  0  0  0
 18 31  2  0  0  0  0
 18 32  1  0  0  0  0
 19 21  2  0  0  0  0
 19 37  1  0  0  0  0
 20 22  2  0  0  0  0
 20 38  1  0  0  0  0
 21 46  1  0  0  0  0
 22 39  1  0  0  0  0
 23 81  1  0  0  0  0
 24 82  1  0  0  0  0
 25 27  2  0  0  0  0
 25 81  1  0  0  0  0
 26 83  1  0  0  0  0
 27 84  1  0  0  0  0
 28 66  2  0  0  0  0
 29 55  1  0  0  0  0
 29 64  2  0  0  0  0
 30 56  1  0  0  0  0
 30 65  1  0  0  0  0
 31 67  1  0  0  0  0
 31 70  1  0  0  0  0
 32 71  1  0  0  0  0
 32 76  2  0  0  0  0
 33 47  1  0  0  0  0
 33 72  1  0  0  0  0
 33 77  2  0  0  0  0
 34 61  1  0  0  0  0
 34 68  1  0  0  0  0
 34 78  2  0  0  0  0
 35 62  1  0  0  0  0
 35 73  1  0  0  0  0
 35 79  2  0  0  0  0
 36 69  1  0  0  0  0
 36 74  1  0  0  0  0
 36 80  2  0  0  0  0
 37 40  1  0  0  0  0
 38 47  1  0  0  0  0
 39 68  1  0  0  0  0
 40 42  1  0  0  0  0
 41 43  1  0  0  0  0
 41 44  1  0  0  0  0
 42 46  1  0  0  0  0
 43 48  1  0  0  0  0
 44 69  1  0  0  0  0
 45 48  1  0  0  0  0
 45 69  1  0  0  0  0
 46 72  1  0  0  0  0
 47 68  1  0  0  0  0
 48 67  1  0  0  0  0
 49 58  1  0  0  0  0
 50 62  1  0  0  0  0
 51 63  1  0  0  0  0
 52 63  1  0  0  0  0
 53 63  1  0  0  0  0
 54 75  1  0  0  0  0
 55 57  1  0  0  0  0
 56 60  1  0  0  0  0
 57 59  1  0  0  0  0
 58 74  1  0  0  0  0
 59 74  1  0  0  0  0
 60 82  1  0  0  0  0
 61 63  1  0  0  0  0
 61 73  1  0  0  0  0
 62 75  1  0  0  0  0
 66 67  1  0  0  0  0
M  CHG  1  75   1
M  ISO  4  36 100  60 101  74 100  82 101
M  END
> <Batch ID>
0052

> <Smiles>
CC[100N:0](CCCc1cnc(C[101CH2:1][101O:1]c2ccc3c(c2)CN(C(=O)C(NC(=O)C(C)NC)C(C)(C)C)C(C(=O)NC2CCCc4ccccc42)C3)cn1)[100C:0](=O)N1CCCC(n2nc(-c3ccc(Oc4ccc(F)cc4F)cc3)c(C(N)=O)c2N)C1

> <Shape>
0.247

> <Color>
0.082

> <Negative vol penalty>
0.000

$$$$

  -OEChem-04052317363D

 84 92  0     1  0  0  0  0  0999 V2000
  -29.9375  -20.9674   17.9175 C   0  0  0  0  0  0  0  0  0  0  0  0
  -28.6657  -21.4908   17.7078 C   0  0  0  0  0  0  0  0  0  0  0  0
  -26.0653  -13.2396   21.5647 C   0  0  0  0  0  0  0  0  0  0  0  0
  -24.7627  -13.4680   19.5427 C   0  0  0  0  0  0  0  0  0  0  0  0
  -30.6822  -21.3709   19.0250 C   0  0  0  0  0  0  0  0  0  0  0  0
  -28.1374  -22.4173   18.6061 C   0  0  0  0  0  0  0  0  0  0  0  0
  -23.8373  -28.1419   18.8391 C   0  0  0  0  0  0  0  0  0  0  0  0
  -25.4830  -11.9940   21.7991 C   0  0  0  0  0  0  0  0  0  0  0  0
  -24.1805  -12.2223   19.7771 C   0  0  0  0  0  0  0  0  0  0  0  0
  -22.7169  -28.6205   19.5168 C   0  0  0  0  0  0  0  0  0  0  0  0
  -22.0851   -9.2635   20.0308 C   0  0  0  0  0  0  0  0  0  0  0  0
  -20.7051   -9.1507   19.8619 C   0  0  0  0  0  0  0  0  0  0  0  0
  -24.1260  -29.3037   21.3516 C   0  0  0  0  0  0  0  0  0  0  0  0
  -20.3594  -10.8277   21.5664 C   0  0  0  0  0  0  0  0  0  0  0  0
  -18.7504  -28.0072   22.0536 C   0  0  0  0  0  0  0  0  0  0  0  0
  -25.7051  -13.9767   20.4365 C   0  0  0  0  0  0  0  0  0  0  0  0
  -27.4812  -15.5299   19.4668 C   0  0  0  0  0  0  0  0  0  0  0  0
  -30.1667  -22.3101   19.9320 C   0  0  0  0  0  0  0  0  0  0  0  0
  -25.1113  -28.2309   19.4182 C   0  0  0  0  0  0  0  0  0  0  0  0
  -28.8755  -22.8328   19.7274 C   0  0  0  0  0  0  0  0  0  0  0  0
  -25.2613  -28.8279   20.6781 C   0  0  0  0  0  0  0  0  0  0  0  0
  -24.5407  -11.4853   20.9053 C   0  0  0  0  0  0  0  0  0  0  0  0
  -22.8607  -29.1989   20.7745 C   0  0  0  0  0  0  0  0  0  0  0  0
  -22.6023  -10.1583   20.9676 C   0  0  0  0  0  0  0  0  0  0  0  0
  -19.8423   -9.9328   20.6296 C   0  0  0  0  0  0  0  0  0  0  0  0
  -21.7394  -10.9404   21.7353 C   0  0  0  0  0  0  0  0  0  0  0  0
  -26.3057  -15.2638   20.1942 C   0  0  0  0  0  0  0  0  0  0  0  0
  -27.6221  -16.8947   19.5292 C   0  0  0  0  0  0  0  0  0  0  0  0
  -19.1262  -26.1157   22.8522 C   0  0  0  0  0  0  0  0  0  0  0  0
  -28.3666  -14.6243   18.7947 C   0  0  0  0  0  0  0  0  0  0  0  0
  -27.3138  -26.1273   20.3278 C   0  0  0  0  0  0  0  0  0  0  0  0
  -29.0816  -28.7946   20.8593 C   0  0  0  0  0  0  0  0  0  0  0  0
  -29.1484  -32.1445   21.5078 C   0  0  0  0  0  0  0  0  0  0  0  0
  -23.6759  -21.2276   20.2427 C   0  0  0  0  0  0  0  0  0  0  0  0
  -30.9901  -22.6802   21.1402 C   0  0  0  0  0  0  0  0  0  0  0  0
  -26.3133  -27.7342   18.6626 C   0  0  0  0  0  0  0  0  0  0  0  0
  -26.6098  -28.9657   21.3348 C   0  0  0  0  0  0  0  0  0  0  0  0
  -30.5080  -23.9479   21.8408 C   0  0  0  0  0  0  0  0  0  0  0  0
  -26.5826  -20.6430   22.3180 C   0  0  0  0  0  0  0  0  0  0  0  0
  -28.9936  -23.9151   22.0210 C   0  0  0  0  0  0  0  0  0  0  0  0
  -26.9498  -19.2094   21.9303 C   0  0  0  0  0  0  0  0  0  0  0  0
  -25.0694  -20.8332   22.3630 C   0  0  0  0  0  0  0  0  0  0  0  0
  -24.7301  -19.0344   20.7129 C   0  0  0  0  0  0  0  0  0  0  0  0
  -28.2779  -23.8586   20.6659 C   0  0  1  0  0  0  0  0  0  0  0  0
  -27.4972  -27.4111   19.5690 C   0  0  1  0  0  0  0  0  0  0  0  0
  -26.2466  -18.7837   20.6278 C   0  0  2  0  0  0  0  0  0  0  0  0
  -30.7404  -34.0383   21.9281 C   0  0  0  0  0  0  0  0  0  0  0  0
  -29.5544  -27.7652   23.6924 C   0  0  0  0  0  0  0  0  0  0  0  0
  -30.3064  -30.0670   24.3285 C   0  0  0  0  0  0  0  0  0  0  0  0
  -31.5639  -28.7786   22.6018 C   0  0  0  0  0  0  0  0  0  0  0  0
  -28.1997  -33.6238   19.1265 C   0  0  0  0  0  0  0  0  0  0  0  0
  -18.9650  -22.4023   22.2084 C   0  0  0  0  0  0  0  0  0  0  0  0
  -19.1348  -24.6913   23.1739 C   0  0  0  0  0  0  0  0  0  0  0  0
  -21.2034  -23.4422   20.2838 C   0  0  0  0  0  0  0  0  0  0  0  0
  -20.3941  -29.5252   23.4190 C   0  0  0  0  0  0  0  0  0  0  0  0
  -22.6809  -23.4760   19.9082 C   0  0  0  0  0  0  0  0  0  0  0  0
  -20.9710  -23.8035   21.7454 C   0  0  0  0  0  0  0  0  0  0  0  0
  -21.8106  -29.6297   22.8644 C   0  0  0  0  0  0  0  0  0  1  0  0
  -29.2894  -29.7236   22.0309 C   0  0  1  0  0  0  0  0  0  0  0  0
  -29.9429  -33.2762   20.8812 C   0  0  2  0  0  0  0  0  0  0  0  0
  -30.1527  -29.0794   23.1522 C   0  0  0  0  0  0  0  0  0  0  0  0
  -18.3724  -26.6992   21.9496 N   0  0  0  0  0  0  0  0  0  0  0  0
  -25.7401  -16.3706   20.6830 N   0  0  0  0  0  0  0  0  0  0  0  0
  -19.9135  -27.0433   23.4601 N   0  0  0  0  0  0  0  0  0  0  0  0
  -19.6906  -28.2698   22.9638 N   0  0  0  0  0  0  0  0  0  0  0  0
  -26.5638  -17.3455   20.2620 N   0  0  0  0  0  0  0  0  0  0  0  0
  -27.7538  -28.4593   20.5588 N   0  0  0  0  0  0  0  0  0  0  0  0
  -24.4635  -20.4273   21.0869 N   0  0  0  0  0  0  0  0  0  0  0  0
  -28.5468  -17.7412   19.0283 N   0  0  0  0  0  0  0  0  0  0  0  0
  -28.0737  -13.2542   18.8295 N   0  0  0  0  0  0  0  0  0  0  0  0
  -28.2658  -25.1662   20.0458 N   0  0  0  0  0  0  0  0  0  0  0  0
  -29.8458  -30.9553   21.4816 N   0  0  0  0  0  0  0  0  0  0  0  0
  -23.4653  -22.5320   20.6728 N   0  0  0  0  0  0  0  0  0  0  0  0
  -29.0288  -34.2342   20.1974 N   0  3  0  0  0  0  0  0  0  0  0  0
  -19.4947  -23.7958   22.0235 N   0  3  1  0  0  0  0  0  0  0  0  0
  -29.3962  -15.0170   18.1953 O   0  0  0  0  0  0  0  0  0  0  0  0
  -26.3788  -26.0174   21.1122 O   0  0  0  0  0  0  0  0  0  0  0  0
  -30.0609  -28.3874   20.2293 O   0  0  0  0  0  0  0  0  0  0  0  0
  -28.0233  -32.3008   21.9771 O   0  0  0  0  0  0  0  0  0  0  0  0
  -23.1998  -20.8120   19.1808 O   0  0  0  0  0  0  0  0  0  0  0  0
  -23.9726  -10.2697   21.1335 O   0  0  0  0  0  0  0  0  0  0  0  0
  -21.7686  -29.6662   21.4385 O   0  0  0  0  0  0  0  0  0  1  0  0
  -18.5172   -9.8255   20.4662 F   0  0  0  0  0  0  0  0  0  0  0  0
  -22.2304  -11.8027   22.6360 F   0  0  0  0  0  0  0  0  0  0  0  0
  1  2  1  0  0  0  0
  1  5  2  0  0  0  0
  2  6  2  0  0  0  0
  3  8  2  0  0  0  0
  3 16  1  0  0  0  0
  4  9  1  0  0  0  0
  4 16  2  0  0  0  0
  5 18  1  0  0  0  0
  6 20  1  0  0  0  0
  7 10  2  0  0  0  0
  7 19  1  0  0  0  0
  8 22  1  0  0  0  0
  9 22  2  0  0  0  0
 10 23  1  0  0  0  0
 11 12  2  0  0  0  0
 11 24  1  0  0  0  0
 12 25  1  0  0  0  0
 13 21  1  0  0  0  0
 13 23  2  0  0  0  0
 14 25  2  0  0  0  0
 14 26  1  0  0  0  0
 15 62  2  0  0  0  0
 15 65  1  0  0  0  0
 16 27  1  0  0  0  0
 17 27  1  0  0  0  0
 17 28  2  0  0  0  0
 17 30  1  0  0  0  0
 18 20  2  0  0  0  0
 18 35  1  0  0  0  0
 19 21  2  0  0  0  0
 19 36  1  0  0  0  0
 20 44  1  0  0  0  0
 21 37  1  0  0  0  0
 22 81  1  0  0  0  0
 23 82  1  0  0  0  0
 24 26  2  0  0  0  0
 24 81  1  0  0  0  0
 25 83  1  0  0  0  0
 26 84  1  0  0  0  0
 27 63  2  0  0  0  0
 28 66  1  0  0  0  0
 28 69  1  0  0  0  0
 29 53  1  0  0  0  0
 29 62  1  0  0  0  0
 29 64  2  0  0  0  0
 30 70  1  0  0  0  0
 30 76  2  0  0  0  0
 31 45  1  0  0  0  0
 31 71  1  0  0  0  0
 31 77  2  0  0  0  0
 32 59  1  0  0  0  0
 32 67  1  0  0  0  0
 32 78  2  0  0  0  0
 33 60  1  0  0  0  0
 33 72  1  0  0  0  0
 33 79  2  0  0  0  0
 34 68  1  0  0  0  0
 34 73  1  0  0  0  0
 34 80  2  0  0  0  0
 35 38  1  0  0  0  0
 36 45  1  0  0  0  0
 37 67  1  0  0  0  0
 38 40  1  0  0  0  0
 39 41  1  0  0  0  0
 39 42  1  0  0  0  0
 40 44  1  0  0  0  0
 41 46  1  0  0  0  0
 42 68  1  0  0  0  0
 43 46  1  0  0  0  0
 43 68  1  0  0  0  0
 44 71  1  0  0  0  0
 45 67  1  0  0  0  0
 46 66  1  0  0  0  0
 47 60  1  0  0  0  0
 48 61  1  0  0  0  0
 49 61  1  0  0  0  0
 50 61  1  0  0  0  0
 51 74  1  0  0  0  0
 52 75  1  0  0  0  0
 53 75  1  0  0  0  0
 54 56  1  0  0  0  0
 54 57  1  0  0  0  0
 55 58  1  0  0  0  0
 55 65  1  0  0  0  0
 56 73  1  0  0  0  0
 57 75  1  0  0  0  0
 58 82  1  0  0  0  0
 59 61  1  0  0  0  0
 59 72  1  0  0  0  0
 60 74  1  0  0  0  0
 63 66  1  0  0  0  0
 64 65  1  0  0  0  0
M  CHG  2  74   1  75   1
M  ISO  4  34 100  58 101  73 100  82 101
M  END
> <Batch ID>
0052

> <Smiles>
CNC(C)C(=O)NC(C(=O)N1Cc2cc([101O:1][101CH2:1]Cn3cnc(CN(C)CCC[100NH:0][100C:0](=O)N4CCCC(n5nc(-c6ccc(Oc7ccc(F)cc7F)cc6)c(C(N)=O)c5N)C4)n3)ccc2CC1C(=O)NC1CCCc2ccccc21)C(C)(C)C

> <Shape>
0.235

> <Color>
0.053

> <Negative vol penalty>
0.000

$$$$

  -OEChem-04052317363D

 88 96  0     1  0  0  0  0  0999 V2000
  -23.9945  -30.0992   22.6384 C   0  0  0  0  0  0  0  0  0  0  0  0
  -23.1988  -29.0004   22.3298 C   0  0  0  0  0  0  0  0  0  0  0  0
  -23.9659  -14.7455   23.6072 C   0  0  0  0  0  0  0  0  0  0  0  0
  -23.2033  -15.7604   21.5517 C   0  0  0  0  0  0  0  0  0  0  0  0
  -25.2143  -30.2797   21.9878 C   0  0  0  0  0  0  0  0  0  0  0  0
  -23.6222  -28.0821   21.3697 C   0  0  0  0  0  0  0  0  0  0  0  0
  -23.2944  -21.1019   19.7933 C   0  0  0  0  0  0  0  0  0  0  0  0
  -23.2677  -15.7052   24.3401 C   0  0  0  0  0  0  0  0  0  0  0  0
  -22.5050  -16.7201   22.2846 C   0  0  0  0  0  0  0  0  0  0  0  0
  -22.9510  -20.2494   18.7449 C   0  0  0  0  0  0  0  0  0  0  0  0
  -19.5926  -16.9188   23.9871 C   0  0  0  0  0  0  0  0  0  0  0  0
  -18.2882  -17.2129   23.5899 C   0  0  0  0  0  0  0  0  0  0  0  0
  -25.1135  -20.6208   17.7425 C   0  0  0  0  0  0  0  0  0  0  0  0
  -18.9207  -19.5148   23.2178 C   0  0  0  0  0  0  0  0  0  0  0  0
  -22.1376  -16.3173   14.5774 C   0  0  0  0  0  0  0  0  0  0  0  0
  -23.8472  -17.4392   13.7558 C   0  0  0  0  0  0  0  0  0  0  0  0
  -23.9338  -14.7732   22.2130 C   0  0  0  0  0  0  0  0  0  0  0  0
  -24.1767  -12.5335   21.0160 C   0  0  0  0  0  0  0  0  0  0  0  0
  -25.6573  -29.3580   21.0261 C   0  0  0  0  0  0  0  0  0  0  0  0
  -24.5480  -21.7298   19.8186 C   0  0  0  0  0  0  0  0  0  0  0  0
  -24.8485  -28.2512   20.7046 C   0  0  0  0  0  0  0  0  0  0  0  0
  -25.4714  -21.4788   18.7937 C   0  0  0  0  0  0  0  0  0  0  0  0
  -22.5373  -16.6925   23.6788 C   0  0  0  0  0  0  0  0  0  0  0  0
  -23.8595  -20.0110   17.7178 C   0  0  0  0  0  0  0  0  0  0  0  0
  -20.5610  -17.9227   23.9998 C   0  0  0  0  0  0  0  0  0  0  0  0
  -17.9523  -18.5109   23.2052 C   0  0  0  0  0  0  0  0  0  0  0  0
  -20.2250  -19.2207   23.6151 C   0  0  0  0  0  0  0  0  0  0  0  0
  -24.6553  -13.7825   21.4553 C   0  0  0  0  0  0  0  0  0  0  0  0
  -23.0685  -15.4755   14.0160 C   0  0  0  0  0  0  0  0  0  0  0  0
  -25.2379  -11.9756   20.3459 C   0  0  0  0  0  0  0  0  0  0  0  0
  -22.8881  -11.9316   21.1975 C   0  0  0  0  0  0  0  0  0  0  0  0
  -25.5470  -24.7469   19.7643 C   0  0  0  0  0  0  0  0  0  0  0  0
  -28.4510  -23.3850   20.2485 C   0  0  0  0  0  0  0  0  0  0  0  0
  -30.4428  -20.6288   19.9601 C   0  0  0  0  0  0  0  0  0  0  0  0
  -30.0534  -14.7974   17.8187 C   0  0  0  0  0  0  0  0  0  0  0  0
  -26.9613  -29.6207   20.3154 C   0  0  0  0  0  0  0  0  0  0  0  0
  -24.9133  -22.6256   20.9703 C   0  0  0  0  0  0  0  0  0  0  0  0
  -26.8377  -22.1124   18.7846 C   0  0  0  0  0  0  0  0  0  0  0  0
  -27.5109  -28.4008   19.5803 C   0  0  0  0  0  0  0  0  0  0  0  0
  -30.0146  -11.9742   20.2124 C   0  0  0  0  0  0  0  0  0  0  0  0
  -26.4086  -27.7229   18.7727 C   0  0  0  0  0  0  0  0  0  0  0  0
  -28.6126  -12.0654   20.8123 C   0  0  0  0  0  0  0  0  0  0  0  0
  -30.5241  -13.3365   19.7515 C   0  0  0  0  0  0  0  0  0  0  0  0
  -28.2060  -14.1261   19.4091 C   0  0  0  0  0  0  0  0  0  0  0  0
  -25.2848  -27.2199   19.6867 C   0  0  1  0  0  0  0  0  0  0  0  0
  -26.0237  -23.6146   20.6293 C   0  0  1  0  0  0  0  0  0  0  0  0
  -27.6445  -12.7631   19.8410 C   0  0  2  0  0  0  0  0  0  0  0  0
  -32.7796  -19.8315   20.4081 C   0  0  0  0  0  0  0  0  0  0  0  0
  -29.4427  -24.9297   17.8113 C   0  0  0  0  0  0  0  0  0  0  0  0
  -31.4286  -23.4067   17.7409 C   0  0  0  0  0  0  0  0  0  0  0  0
  -31.0469  -24.8646   19.7287 C   0  0  0  0  0  0  0  0  0  0  0  0
  -26.5043  -15.8550   16.2159 C   0  0  0  0  0  0  0  0  0  0  0  0
  -26.8765  -14.7219   18.4054 C   0  0  0  0  0  0  0  0  0  0  0  0
  -29.7437  -15.6826   15.5383 C   0  0  0  0  0  0  0  0  0  0  0  0
  -29.4950  -18.5343   21.8239 C   0  0  0  0  0  0  0  0  0  0  0  0
  -25.9538  -12.7968   14.2489 C   0  0  0  0  0  0  0  0  0  0  0  0
  -23.0296  -14.0082   13.9227 C   0  0  0  0  0  0  0  0  0  0  0  0
  -22.0106  -18.8676   14.8393 C   0  0  0  0  0  0  0  0  0  0  0  0
  -28.1561  -13.9812   16.3570 C   0  0  0  0  0  0  0  0  0  0  0  0
  -23.6655  -13.2670   15.1109 C   0  0  0  0  0  0  0  0  0  0  0  0
  -25.6356  -13.5044   16.6153 C   0  0  0  0  0  0  0  0  0  0  0  0
  -22.1461  -19.1056   16.3393 C   0  0  0  0  0  0  0  0  0  1  0  0
  -29.5493  -22.8624   19.3543 C   0  0  1  0  0  0  0  0  0  0  0  0
  -31.3643  -19.9436   20.9530 C   0  0  2  0  0  0  0  0  0  0  0  0
  -30.3405  -24.0053   18.6577 C   0  0  0  0  0  0  0  0  0  0  0  0
  -26.7935  -14.4937   16.8812 C   0  0  0  0  0  0  0  0  0  0  0  0
  -24.1304  -16.1800   13.5066 N   0  0  0  0  0  0  0  0  0  0  0  0
  -25.9219  -14.0052   21.0948 N   0  0  0  0  0  0  0  0  0  0  0  0
  -22.6505  -17.5719   14.4035 N   0  0  0  0  0  0  0  0  0  0  0  0
  -26.2483  -12.8886   20.4218 N   0  0  0  0  0  0  0  0  0  0  0  0
  -27.1455  -22.9854   19.9293 N   0  0  0  0  0  0  0  0  0  0  0  0
  -29.5656  -13.9960   18.8640 N   0  0  0  0  0  0  0  0  0  0  0  0
  -25.3959  -10.7981   19.7050 N   0  0  0  0  0  0  0  0  0  0  0  0
  -21.9132  -12.6422   21.9109 N   0  0  0  0  0  0  0  0  0  0  0  0
  -25.6798  -25.9934   20.3456 N   0  0  0  0  0  0  0  0  0  0  0  0
  -30.3700  -21.9873   20.1844 N   0  0  0  0  0  0  0  0  0  0  0  0
  -29.2744  -14.8736   16.6542 N   0  0  0  0  0  0  0  0  0  0  0  0
  -30.8683  -18.5719   21.2586 N   0  3  0  0  0  0  0  0  0  0  0  0
  -25.1080  -13.6017   15.2048 N   0  3  1  0  0  0  0  0  0  0  0  0
  -22.6147  -10.7903   20.7546 O   0  0  0  0  0  0  0  0  0  0  0  0
  -25.0938  -24.5075   18.6512 O   0  0  0  0  0  0  0  0  0  0  0  0
  -28.7415  -24.1148   21.1997 O   0  0  0  0  0  0  0  0  0  0  0  0
  -29.8500  -20.0203   19.0720 O   0  0  0  0  0  0  0  0  0  0  0  0
  -31.1288  -15.4023   17.9169 O   0  0  0  0  0  0  0  0  0  0  0  0
  -21.8556  -17.6289   24.3937 O   0  0  0  0  0  0  0  0  0  0  0  0
  -23.5266  -19.1799   16.6930 O   0  0  0  0  0  0  0  0  0  1  0  0
  -16.7001  -18.7929   22.8222 F   0  0  0  0  0  0  0  0  0  0  0  0
  -21.1513  -20.1890   23.6240 F   0  0  0  0  0  0  0  0  0  0  0  0
  1  2  1  0  0  0  0
  1  5  2  0  0  0  0
  2  6  2  0  0  0  0
  3  8  2  0  0  0  0
  3 17  1  0  0  0  0
  4  9  1  0  0  0  0
  4 17  2  0  0  0  0
  5 19  1  0  0  0  0
  6 21  1  0  0  0  0
  7 10  2  0  0  0  0
  7 20  1  0  0  0  0
  8 23  1  0  0  0  0
  9 23  2  0  0  0  0
 10 24  1  0  0  0  0
 11 12  2  0  0  0  0
 11 25  1  0  0  0  0
 12 26  1  0  0  0  0
 13 22  1  0  0  0  0
 13 24  2  0  0  0  0
 14 26  2  0  0  0  0
 14 27  1  0  0  0  0
 15 29  2  0  0  0  0
 15 69  1  0  0  0  0
 16 67  2  0  0  0  0
 16 69  1  0  0  0  0
 17 28  1  0  0  0  0
 18 28  1  0  0  0  0
 18 30  2  0  0  0  0
 18 31  1  0  0  0  0
 19 21  2  0  0  0  0
 19 36  1  0  0  0  0
 20 22  2  0  0  0  0
 20 37  1  0  0  0  0
 21 45  1  0  0  0  0
 22 38  1  0  0  0  0
 23 85  1  0  0  0  0
 24 86  1  0  0  0  0
 25 27  2  0  0  0  0
 25 85  1  0  0  0  0
 26 87  1  0  0  0  0
 27 88  1  0  0  0  0
 28 68  2  0  0  0  0
 29 57  1  0  0  0  0
 29 67  1  0  0  0  0
 30 70  1  0  0  0  0
 30 73  1  0  0  0  0
 31 74  1  0  0  0  0
 31 80  2  0  0  0  0
 32 46  1  0  0  0  0
 32 75  1  0  0  0  0
 32 81  2  0  0  0  0
 33 63  1  0  0  0  0
 33 71  1  0  0  0  0
 33 82  2  0  0  0  0
 34 64  1  0  0  0  0
 34 76  1  0  0  0  0
 34 83  2  0  0  0  0
 35 72  1  0  0  0  0
 35 77  1  0  0  0  0
 35 84  2  0  0  0  0
 36 39  1  0  0  0  0
 37 46  1  0  0  0  0
 38 71  1  0  0  0  0
 39 41  1  0  0  0  0
 40 42  1  0  0  0  0
 40 43  1  0  0  0  0
 41 45  1  0  0  0  0
 42 47  1  0  0  0  0
 43 72  1  0  0  0  0
 44 47  1  0  0  0  0
 44 72  1  0  0  0  0
 45 75  1  0  0  0  0
 46 71  1  0  0  0  0
 47 70  1  0  0  0  0
 48 64  1  0  0  0  0
 49 65  1  0  0  0  0
 50 65  1  0  0  0  0
 51 65  1  0  0  0  0
 52 66  1  0  0  0  0
 53 66  1  0  0  0  0
 54 77  1  0  0  0  0
 55 78  1  0  0  0  0
 56 79  1  0  0  0  0
 57 60  1  0  0  0  0
 58 62  1  0  0  0  0
 58 69  1  0  0  0  0
 59 66  1  0  0  0  0
 59 77  1  0  0  0  0
 60 79  1  0  0  0  0
 61 66  1  0  0  0  0
 61 79  1  0  0  0  0
 62 86  1  0  0  0  0
 63 65  1  0  0  0  0
 63 76  1  0  0  0  0
 64 78  1  0  0  0  0
 68 70  1  0  0  0  0
M  CHG  2  78   1  79   1
M  ISO  4  35 100  62 101  77 100  86 101
M  END
> <Batch ID>
0052

> <Smiles>
CNC(C)C(=O)NC(C(=O)N1Cc2cc([101O:1][101CH2:1]Cn3cnc(CCN(C)CC(C)(C)C[100N:0](C)[100C:0](=O)N4CCCC(n5nc(-c6ccc(Oc7ccc(F)cc7F)cc6)c(C(N)=O)c5N)C4)c3)ccc2CC1C(=O)NC1CCCc2ccccc21)C(C)(C)C

> <Shape>
0.190

> <Color>
0.083

> <Negative vol penalty>
0.000

$$$$

  -OEChem-04052317363D

 84 92  0     1  0  0  0  0  0999 V2000
  -29.4469  -37.0453   20.9069 C   0  0  0  0  0  0  0  0  0  0  0  0
  -29.8783  -35.7272   21.0156 C   0  0  0  0  0  0  0  0  0  0  0  0
  -24.1627   -9.9006   22.3294 C   0  0  0  0  0  0  0  0  0  0  0  0
  -22.3290  -10.7415   21.0000 C   0  0  0  0  0  0  0  0  0  0  0  0
  -28.2621  -37.4430   21.5249 C   0  0  0  0  0  0  0  0  0  0  0  0
  -29.1256  -34.8061   21.7433 C   0  0  0  0  0  0  0  0  0  0  0  0
  -28.4189  -28.8464   20.5236 C   0  0  0  0  0  0  0  0  0  0  0  0
  -23.2982   -9.0010   22.9529 C   0  0  0  0  0  0  0  0  0  0  0  0
  -21.4644   -9.8418   21.6234 C   0  0  0  0  0  0  0  0  0  0  0  0
  -29.0360  -27.7049   21.0337 C   0  0  0  0  0  0  0  0  0  0  0  0
  -21.6469   -6.2350   24.6373 C   0  0  0  0  0  0  0  0  0  0  0  0
  -22.0824   -4.9191   24.7932 C   0  0  0  0  0  0  0  0  0  0  0  0
  -27.2102  -27.4180   22.5839 C   0  0  0  0  0  0  0  0  0  0  0  0
  -22.2984   -4.7066   22.3963 C   0  0  0  0  0  0  0  0  0  0  0  0
  -27.4091  -19.9420   20.7659 C   0  0  0  0  0  0  0  0  0  0  0  0
  -28.4339  -20.4792   22.6358 C   0  0  0  0  0  0  0  0  0  0  0  0
  -23.6781  -10.7710   21.3530 C   0  0  0  0  0  0  0  0  0  0  0  0
  -25.3212  -11.4865   19.5375 C   0  0  0  0  0  0  0  0  0  0  0  0
  -27.4895  -36.5241   22.2525 C   0  0  0  0  0  0  0  0  0  0  0  0
  -27.1961  -29.2891   21.0481 C   0  0  0  0  0  0  0  0  0  0  0  0
  -27.9300  -35.1922   22.3727 C   0  0  0  0  0  0  0  0  0  0  0  0
  -26.5784  -28.5639   22.0770 C   0  0  0  0  0  0  0  0  0  0  0  0
  -27.2506  -19.9654   22.1645 C   0  0  0  0  0  0  0  0  0  0  0  0
  -21.9491   -8.9715   22.5999 C   0  0  0  0  0  0  0  0  0  0  0  0
  -28.4330  -26.9922   22.0659 C   0  0  0  0  0  0  0  0  0  0  0  0
  -21.5370   -6.7867   23.3609 C   0  0  0  0  0  0  0  0  0  0  0  0
  -22.4082   -4.1549   23.6727 C   0  0  0  0  0  0  0  0  0  0  0  0
  -21.8628   -6.0226   22.2404 C   0  0  0  0  0  0  0  0  0  0  0  0
  -24.5705  -11.7010   20.7090 C   0  0  0  0  0  0  0  0  0  0  0  0
  -26.0003  -12.6647   19.3444 C   0  0  0  0  0  0  0  0  0  0  0  0
  -25.3977  -10.3262   18.6989 C   0  0  0  0  0  0  0  0  0  0  0  0
  -26.2134  -31.9240   22.5299 C   0  0  0  0  0  0  0  0  0  0  0  0
  -23.2997  -30.5257   22.2510 C   0  0  0  0  0  0  0  0  0  0  0  0
  -21.4851  -27.6583   21.8878 C   0  0  0  0  0  0  0  0  0  0  0  0
  -24.5601  -18.1787   21.4513 C   0  0  0  0  0  0  0  0  0  0  0  0
  -26.2403  -37.0118   22.9426 C   0  0  0  0  0  0  0  0  0  0  0  0
  -26.5303  -30.5071   20.4688 C   0  0  0  0  0  0  0  0  0  0  0  0
  -25.2558  -28.9859   22.6611 C   0  0  0  0  0  0  0  0  0  0  0  0
  -25.3078  -35.8858   23.3817 C   0  0  0  0  0  0  0  0  0  0  0  0
  -27.8283  -16.3794   21.7227 C   0  0  0  0  0  0  0  0  0  0  0  0
  -26.0959  -34.7817   24.0795 C   0  0  0  0  0  0  0  0  0  0  0  0
  -27.3916  -14.9399   21.4551 C   0  0  0  0  0  0  0  0  0  0  0  0
  -26.7021  -17.1895   22.3535 C   0  0  0  0  0  0  0  0  0  0  0  0
  -24.9951  -15.7539   21.2850 C   0  0  0  0  0  0  0  0  0  0  0  0
  -27.1282  -34.1579   23.1326 C   0  0  1  0  0  0  0  0  0  0  0  0
  -25.5381  -31.1585   21.4273 C   0  0  1  0  0  0  0  0  0  0  0  0
  -26.0949  -14.9029   20.6286 C   0  0  2  0  0  0  0  0  0  0  0  0
  -22.1277  -22.0196   22.3323 C   0  0  0  0  0  0  0  0  0  0  0  0
  -19.1217  -26.8294   21.7301 C   0  0  0  0  0  0  0  0  0  0  0  0
  -22.9685  -30.9049   25.2604 C   0  0  0  0  0  0  0  0  0  0  0  0
  -21.0884  -29.2530   25.1913 C   0  0  0  0  0  0  0  0  0  0  0  0
  -20.9164  -31.3898   23.9158 C   0  0  0  0  0  0  0  0  0  0  0  0
  -21.9312  -26.5516   19.1794 C   0  0  0  0  0  0  0  0  0  0  0  0
  -26.0802  -19.5385   22.9478 C   0  0  0  0  0  0  0  0  0  0  0  0
  -22.9080  -20.7584   22.6760 C   0  0  0  0  0  0  0  0  0  0  0  0
  -30.6531  -22.7830   21.1635 C   0  0  0  0  0  0  0  0  0  0  0  0
  -29.7894  -23.6532   22.0779 C   0  0  0  0  0  0  0  0  0  0  0  0
  -30.5953  -21.2939   21.5224 C   0  0  0  0  0  0  0  0  0  0  0  0
  -24.1534  -20.5832   21.8153 C   0  0  0  0  0  0  0  0  0  0  0  0
  -29.8441  -25.1193   21.6697 C   0  0  0  0  0  0  0  0  0  1  0  0
  -22.4819  -29.5808   23.0980 C   0  0  1  0  0  0  0  0  0  0  0  0
  -20.3421  -27.3010   20.9548 C   0  0  2  0  0  0  0  0  0  0  0  0
  -21.8897  -30.2750   24.3569 C   0  0  0  0  0  0  0  0  0  0  0  0
  -28.5994  -20.4045   20.3742 N   0  0  0  0  0  0  0  0  0  0  0  0
  -24.7553  -12.9195   21.2239 N   0  0  0  0  0  0  0  0  0  0  0  0
  -29.1994  -20.7233   21.5337 N   0  0  0  0  0  0  0  0  0  0  0  0
  -25.6299  -13.4812   20.3721 N   0  0  0  0  0  0  0  0  0  0  0  0
  -24.6475  -30.1869   22.0653 N   0  0  0  0  0  0  0  0  0  0  0  0
  -25.4682  -17.1126   21.5601 N   0  0  0  0  0  0  0  0  0  0  0  0
  -26.8724  -13.0714   18.3975 N   0  0  0  0  0  0  0  0  0  0  0  0
  -24.6343   -9.2021   19.0423 N   0  0  0  0  0  0  0  0  0  0  0  0
  -26.4844  -33.2420   22.2156 N   0  0  0  0  0  0  0  0  0  0  0  0
  -21.4811  -28.9989   22.2101 N   0  0  0  0  0  0  0  0  0  0  0  0
  -24.8798  -19.3622   22.1338 N   0  0  0  0  0  0  0  0  0  0  0  0
  -20.7551  -26.2144   20.0222 N   0  3  0  0  0  0  0  0  0  0  0  0
  -26.1342  -10.2815   17.6844 O   0  0  0  0  0  0  0  0  0  0  0  0
  -26.4683  -31.3609   23.5880 O   0  0  0  0  0  0  0  0  0  0  0  0
  -22.7608  -31.5236   21.7660 O   0  0  0  0  0  0  0  0  0  0  0  0
  -22.2977  -26.8302   22.2932 O   0  0  0  0  0  0  0  0  0  0  0  0
  -23.5286  -18.0818   20.7742 O   0  0  0  0  0  0  0  0  0  0  0  0
  -21.1052   -8.0935   23.2079 O   0  0  0  0  0  0  0  0  0  0  0  0
  -29.0335  -25.8781   22.5661 O   0  0  0  0  0  0  0  0  0  1  0  0
  -22.8279   -2.8918   23.8226 F   0  0  0  0  0  0  0  0  0  0  0  0
  -21.7604   -6.5475   21.0117 F   0  0  0  0  0  0  0  0  0  0  0  0
  1  2  1  0  0  0  0
  1  5  2  0  0  0  0
  2  6  2  0  0  0  0
  3  8  2  0  0  0  0
  3 17  1  0  0  0  0
  4  9  1  0  0  0  0
  4 17  2  0  0  0  0
  5 19  1  0  0  0  0
  6 21  1  0  0  0  0
  7 10  2  0  0  0  0
  7 20  1  0  0  0  0
  8 24  1  0  0  0  0
  9 24  2  0  0  0  0
 10 25  1  0  0  0  0
 11 12  2  0  0  0  0
 11 26  1  0  0  0  0
 12 27  1  0  0  0  0
 13 22  1  0  0  0  0
 13 25  2  0  0  0  0
 14 27  2  0  0  0  0
 14 28  1  0  0  0  0
 15 23  1  0  0  0  0
 15 64  2  0  0  0  0
 16 23  2  0  0  0  0
 16 66  1  0  0  0  0
 17 29  1  0  0  0  0
 18 29  1  0  0  0  0
 18 30  2  0  0  0  0
 18 31  1  0  0  0  0
 19 21  2  0  0  0  0
 19 36  1  0  0  0  0
 20 22  2  0  0  0  0
 20 37  1  0  0  0  0
 21 45  1  0  0  0  0
 22 38  1  0  0  0  0
 23 54  1  0  0  0  0
 24 81  1  0  0  0  0
 25 82  1  0  0  0  0
 26 28  2  0  0  0  0
 26 81  1  0  0  0  0
 27 83  1  0  0  0  0
 28 84  1  0  0  0  0
 29 65  2  0  0  0  0
 30 67  1  0  0  0  0
 30 70  1  0  0  0  0
 31 71  1  0  0  0  0
 31 76  2  0  0  0  0
 32 46  1  0  0  0  0
 32 72  1  0  0  0  0
 32 77  2  0  0  0  0
 33 61  1  0  0  0  0
 33 68  1  0  0  0  0
 33 78  2  0  0  0  0
 34 62  1  0  0  0  0
 34 73  1  0  0  0  0
 34 79  2  0  0  0  0
 35 69  1  0  0  0  0
 35 74  1  0  0  0  0
 35 80  2  0  0  0  0
 36 39  1  0  0  0  0
 37 46  1  0  0  0  0
 38 68  1  0  0  0  0
 39 41  1  0  0  0  0
 40 42  1  0  0  0  0
 40 43  1  0  0  0  0
 41 45  1  0  0  0  0
 42 47  1  0  0  0  0
 43 69  1  0  0  0  0
 44 47  1  0  0  0  0
 44 69  1  0  0  0  0
 45 72  1  0  0  0  0
 46 68  1  0  0  0  0
 47 67  1  0  0  0  0
 48 55  1  0  0  0  0
 49 62  1  0  0  0  0
 50 63  1  0  0  0  0
 51 63  1  0  0  0  0
 52 63  1  0  0  0  0
 53 75  1  0  0  0  0
 54 74  1  0  0  0  0
 55 59  1  0  0  0  0
 56 57  1  0  0  0  0
 56 58  1  0  0  0  0
 57 60  1  0  0  0  0
 58 66  1  0  0  0  0
 59 74  1  0  0  0  0
 60 82  1  0  0  0  0
 61 63  1  0  0  0  0
 61 73  1  0  0  0  0
 62 75  1  0  0  0  0
 64 66  1  0  0  0  0
 65 67  1  0  0  0  0
M  CHG  1  75   1
M  ISO  4  35 100  60 101  74 100  82 101
M  END
> <Batch ID>
0052

> <Smiles>
CCC[100N:0](Cc1cnn(CCC[101CH2:1][101O:1]c2ccc3c(c2)CN(C(=O)C(NC(=O)C(C)NC)C(C)(C)C)C(C(=O)NC2CCCc4ccccc42)C3)c1)[100C:0](=O)N1CCCC(n2nc(-c3ccc(Oc4ccc(F)cc4F)cc3)c(C(N)=O)c2N)C1

> <Shape>
0.284

> <Color>
0.067

> <Negative vol penalty>
0.000

$$$$

  -OEChem-04052317363D

 82 90  0     1  0  0  0  0  0999 V2000
  -21.6765  -12.2205   19.8312 C   0  0  0  0  0  0  0  0  0  0  0  0
  -21.5705  -13.5354   20.2729 C   0  0  0  0  0  0  0  0  0  0  0  0
  -25.3262  -30.5534   20.2864 C   0  0  0  0  0  0  0  0  0  0  0  0
  -24.2708  -28.5997   21.2383 C   0  0  0  0  0  0  0  0  0  0  0  0
  -22.9112  -11.5735   19.8616 C   0  0  0  0  0  0  0  0  0  0  0  0
  -22.6990  -14.2038   20.7463 C   0  0  0  0  0  0  0  0  0  0  0  0
  -23.0698  -18.9166   18.9303 C   0  0  0  0  0  0  0  0  0  0  0  0
  -24.8394  -31.3291   21.3385 C   0  0  0  0  0  0  0  0  0  0  0  0
  -23.7840  -29.3754   22.2905 C   0  0  0  0  0  0  0  0  0  0  0  0
  -22.2583  -19.8891   19.5129 C   0  0  0  0  0  0  0  0  0  0  0  0
  -25.6332  -31.9215   24.5714 C   0  0  0  0  0  0  0  0  0  0  0  0
  -26.5131  -32.8189   25.1763 C   0  0  0  0  0  0  0  0  0  0  0  0
  -24.1275  -20.6477   20.8358 C   0  0  0  0  0  0  0  0  0  0  0  0
  -25.0592  -34.6515   24.5723 C   0  0  0  0  0  0  0  0  0  0  0  0
  -21.8064  -25.0246   18.8575 C   0  0  0  0  0  0  0  0  0  0  0  0
  -25.0419  -29.1887   20.2363 C   0  0  0  0  0  0  0  0  0  0  0  0
  -26.7708  -27.6985   19.0970 C   0  0  0  0  0  0  0  0  0  0  0  0
  -24.0573  -12.2375   20.3265 C   0  0  0  0  0  0  0  0  0  0  0  0
  -24.4158  -18.7950   19.3047 C   0  0  0  0  0  0  0  0  0  0  0  0
  -23.9499  -13.5647   20.7841 C   0  0  0  0  0  0  0  0  0  0  0  0
  -24.9546  -19.6744   20.2547 C   0  0  0  0  0  0  0  0  0  0  0  0
  -24.0683  -30.7401   22.3406 C   0  0  0  0  0  0  0  0  0  0  0  0
  -22.7863  -20.7529   20.4679 C   0  0  0  0  0  0  0  0  0  0  0  0
  -24.4663  -32.3890   23.9669 C   0  0  0  0  0  0  0  0  0  0  0  0
  -26.2261  -34.1839   25.1768 C   0  0  0  0  0  0  0  0  0  0  0  0
  -24.1793  -33.7540   23.9674 C   0  0  0  0  0  0  0  0  0  0  0  0
  -25.5440  -28.3870   19.1494 C   0  0  0  0  0  0  0  0  0  0  0  0
  -21.2061  -24.2503   19.8684 C   0  0  0  0  0  0  0  0  0  0  0  0
  -21.0039  -24.8365   17.7587 C   0  0  0  0  0  0  0  0  0  0  0  0
  -26.7733  -27.0949   17.8633 C   0  0  0  0  0  0  0  0  0  0  0  0
  -27.8146  -27.6122   20.0761 C   0  0  0  0  0  0  0  0  0  0  0  0
  -26.1718  -16.5140   20.6527 C   0  0  0  0  0  0  0  0  0  0  0  0
  -28.6079  -18.5643   20.0329 C   0  0  0  0  0  0  0  0  0  0  0  0
  -22.3092  -25.4391   14.1970 C   0  0  0  0  0  0  0  0  0  0  0  0
  -29.6200  -21.7734   19.4634 C   0  0  0  0  0  0  0  0  0  0  0  0
  -25.3609  -11.4813   20.3846 C   0  0  0  0  0  0  0  0  0  0  0  0
  -25.2847  -17.7581   18.6474 C   0  0  0  0  0  0  0  0  0  0  0  0
  -26.3985  -19.5986   20.6764 C   0  0  0  0  0  0  0  0  0  0  0  0
  -26.5813  -12.3832   20.5505 C   0  0  0  0  0  0  0  0  0  0  0  0
  -25.0604  -27.6042   13.4333 C   0  0  0  0  0  0  0  0  0  0  0  0
  -26.3349  -13.4195   21.6424 C   0  0  0  0  0  0  0  0  0  0  0  0
  -25.5899  -28.0104   14.8080 C   0  0  0  0  0  0  0  0  0  0  0  0
  -23.5432  -27.4452   13.4440 C   0  0  0  0  0  0  0  0  0  0  0  0
  -23.5675  -26.8993   15.8571 C   0  0  0  0  0  0  0  0  0  0  0  0
  -25.1561  -14.3315   21.2815 C   0  0  1  0  0  0  0  0  0  0  0  0
  -26.5093  -17.3900   19.4795 C   0  0  1  0  0  0  0  0  0  0  0  0
  -25.0994  -27.0408   15.8979 C   0  0  2  0  0  0  0  0  0  0  0  0
  -31.6778  -23.1420   19.0279 C   0  0  0  0  0  0  0  0  0  0  0  0
  -21.0403  -23.4197   14.7633 C   0  0  0  0  0  0  0  0  0  0  0  0
  -23.1760  -23.9288   15.9583 C   0  0  0  0  0  0  0  0  0  0  0  0
  -29.3676  -18.3556   22.9807 C   0  0  0  0  0  0  0  0  0  0  0  0
  -30.7710  -20.4088   22.6925 C   0  0  0  0  0  0  0  0  0  0  0  0
  -31.3059  -18.3432   21.4004 C   0  0  0  0  0  0  0  0  0  0  0  0
  -18.9153  -23.4967   17.3626 C   0  0  0  0  0  0  0  0  0  0  0  0
  -28.6085  -22.6683   16.8300 C   0  0  0  0  0  0  0  0  0  0  0  0
  -21.6692  -24.0816   21.2950 C   0  0  0  0  0  0  0  0  0  0  0  0
  -21.0955  -25.3744   16.3891 C   0  0  0  0  0  0  0  0  0  0  0  0
  -22.6314  -22.9099   21.4576 C   0  0  0  0  0  0  0  0  0  1  0  0
  -29.2653  -19.7002   20.7789 C   0  0  1  0  0  0  0  0  0  0  0  0
  -30.5264  -22.3704   18.4021 C   0  0  2  0  0  0  0  0  0  0  0  0
  -21.9129  -24.5442   15.3443 C   0  0  0  0  0  0  0  0  0  0  0  0
  -30.1497  -19.2024   21.9568 C   0  0  0  0  0  0  0  0  0  0  0  0
  -24.8199  -28.2357   18.0373 N   0  0  0  0  0  0  0  0  0  0  0  0
  -20.1070  -23.6176   19.4492 N   0  0  0  0  0  0  0  0  0  0  0  0
  -20.0103  -23.9941   18.1627 N   0  0  0  0  0  0  0  0  0  0  0  0
  -25.5940  -27.4452   17.2745 N   0  0  0  0  0  0  0  0  0  0  0  0
  -27.2060  -18.5639   20.0095 N   0  0  0  0  0  0  0  0  0  0  0  0
  -23.1157  -26.5342   14.5073 N   0  0  0  0  0  0  0  0  0  0  0  0
  -27.6693  -26.3041   17.2355 N   0  0  0  0  0  0  0  0  0  0  0  0
  -27.6502  -28.2934   21.2899 N   0  0  0  0  0  0  0  0  0  0  0  0
  -25.5630  -15.3223   20.3084 N   0  0  0  0  0  0  0  0  0  0  0  0
  -29.9856  -20.4821   19.7798 N   0  0  0  0  0  0  0  0  0  0  0  0
  -29.7575  -23.3006   17.5278 N   0  3  0  0  0  0  0  0  0  0  0  0
  -28.8694  -26.9640   19.8739 O   0  0  0  0  0  0  0  0  0  0  0  0
  -26.4450  -16.8908   21.7864 O   0  0  0  0  0  0  0  0  0  0  0  0
  -29.3124  -17.7129   19.4848 O   0  0  0  0  0  0  0  0  0  0  0  0
  -21.9151  -25.1696   13.0594 O   0  0  0  0  0  0  0  0  0  0  0  0
  -28.6838  -22.3921   19.9646 O   0  0  0  0  0  0  0  0  0  0  0  0
  -23.5933  -31.4966   23.3675 O   0  0  0  0  0  0  0  0  0  0  0  0
  -21.9963  -21.7027   21.0386 O   0  0  0  0  0  0  0  0  0  1  0  0
  -27.0704  -35.0455   25.7590 F   0  0  0  0  0  0  0  0  0  0  0  0
  -23.0592  -34.2090   23.3893 F   0  0  0  0  0  0  0  0  0  0  0  0
  1  2  1  0  0  0  0
  1  5  2  0  0  0  0
  2  6  2  0  0  0  0
  3  8  2  0  0  0  0
  3 16  1  0  0  0  0
  4  9  1  0  0  0  0
  4 16  2  0  0  0  0
  5 18  1  0  0  0  0
  6 20  1  0  0  0  0
  7 10  2  0  0  0  0
  7 19  1  0  0  0  0
  8 22  1  0  0  0  0
  9 22  2  0  0  0  0
 10 23  1  0  0  0  0
 11 12  2  0  0  0  0
 11 24  1  0  0  0  0
 12 25  1  0  0  0  0
 13 21  1  0  0  0  0
 13 23  2  0  0  0  0
 14 25  2  0  0  0  0
 14 26  1  0  0  0  0
 15 28  1  0  0  0  0
 15 29  2  0  0  0  0
 16 27  1  0  0  0  0
 17 27  1  0  0  0  0
 17 30  2  0  0  0  0
 17 31  1  0  0  0  0
 18 20  2  0  0  0  0
 18 36  1  0  0  0  0
 19 21  2  0  0  0  0
 19 37  1  0  0  0  0
 20 45  1  0  0  0  0
 21 38  1  0  0  0  0
 22 79  1  0  0  0  0
 23 80  1  0  0  0  0
 24 26  2  0  0  0  0
 24 79  1  0  0  0  0
 25 81  1  0  0  0  0
 26 82  1  0  0  0  0
 27 63  2  0  0  0  0
 28 56  1  0  0  0  0
 28 64  2  0  0  0  0
 29 57  1  0  0  0  0
 29 65  1  0  0  0  0
 30 66  1  0  0  0  0
 30 69  1  0  0  0  0
 31 70  1  0  0  0  0
 31 74  2  0  0  0  0
 32 46  1  0  0  0  0
 32 71  1  0  0  0  0
 32 75  2  0  0  0  0
 33 59  1  0  0  0  0
 33 67  1  0  0  0  0
 33 76  2  0  0  0  0
 34 61  1  0  0  0  0
 34 68  1  0  0  0  0
 34 77  2  0  0  0  0
 35 60  1  0  0  0  0
 35 72  1  0  0  0  0
 35 78  2  0  0  0  0
 36 39  1  0  0  0  0
 37 46  1  0  0  0  0
 38 67  1  0  0  0  0
 39 41  1  0  0  0  0
 40 42  1  0  0  0  0
 40 43  1  0  0  0  0
 41 45  1  0  0  0  0
 42 47  1  0  0  0  0
 43 68  1  0  0  0  0
 44 47  1  0  0  0  0
 44 68  1  0  0  0  0
 45 71  1  0  0  0  0
 46 67  1  0  0  0  0
 47 66  1  0  0  0  0
 48 60  1  0  0  0  0
 49 61  1  0  0  0  0
 50 61  1  0  0  0  0
 51 62  1  0  0  0  0
 52 62  1  0  0  0  0
 53 62  1  0  0  0  0
 54 65  1  0  0  0  0
 55 73  1  0  0  0  0
 56 58  1  0  0  0  0
 57 61  1  0  0  0  0
 58 80  1  0  0  0  0
 59 62  1  0  0  0  0
 59 72  1  0  0  0  0
 60 73  1  0  0  0  0
 63 66  1  0  0  0  0
 64 65  1  0  0  0  0
M  CHG  1  73   1
M  ISO  4  34 100  58 101  61 100  80 101
M  END
> <Batch ID>
0052

> <Smiles>
CNC(C)C(=O)NC(C(=O)N1Cc2cc([101O:1][101CH2:1]Cc3cc(C[100C:0](C)(C)[100C:0](=O)N4CCCC(n5nc(-c6ccc(Oc7ccc(F)cc7F)cc6)c(C(N)=O)c5N)C4)n(C)n3)ccc2CC1C(=O)NC1CCCc2ccccc21)C(C)(C)C

> <Shape>
0.218

> <Color>
0.090

> <Negative vol penalty>
0.000

$$$$

  -OEChem-04052317363D

 83 91  0     1  0  0  0  0  0999 V2000
  -23.3875  -30.2716   21.0319 C   0  0  0  0  0  0  0  0  0  0  0  0
  -22.6747  -29.0775   21.0713 C   0  0  0  0  0  0  0  0  0  0  0  0
  -28.9190  -12.5962   20.8481 C   0  0  0  0  0  0  0  0  0  0  0  0
  -28.0958  -12.9650   18.6068 C   0  0  0  0  0  0  0  0  0  0  0  0
  -24.7441  -30.2620   20.7103 C   0  0  0  0  0  0  0  0  0  0  0  0
  -23.3179  -27.8732   20.7880 C   0  0  0  0  0  0  0  0  0  0  0  0
  -22.1956  -22.4141   23.3267 C   0  0  0  0  0  0  0  0  0  0  0  0
  -30.2284  -12.5977   20.3674 C   0  0  0  0  0  0  0  0  0  0  0  0
  -29.4052  -12.9666   18.1261 C   0  0  0  0  0  0  0  0  0  0  0  0
  -21.4458  -21.3183   22.9016 C   0  0  0  0  0  0  0  0  0  0  0  0
  -32.5297  -14.8849   19.4156 C   0  0  0  0  0  0  0  0  0  0  0  0
  -33.4804  -15.6171   20.1267 C   0  0  0  0  0  0  0  0  0  0  0  0
  -23.4476  -20.2962   22.0257 C   0  0  0  0  0  0  0  0  0  0  0  0
  -34.7586  -13.6002   20.4946 C   0  0  0  0  0  0  0  0  0  0  0  0
  -20.5559  -16.7655   19.5383 C   0  0  0  0  0  0  0  0  0  0  0  0
  -27.8526  -12.7797   19.9677 C   0  0  0  0  0  0  0  0  0  0  0  0
  -25.7591  -13.8853   20.9177 C   0  0  0  0  0  0  0  0  0  0  0  0
  -25.4065  -29.0559   20.4324 C   0  0  0  0  0  0  0  0  0  0  0  0
  -23.5776  -22.4642   23.0945 C   0  0  0  0  0  0  0  0  0  0  0  0
  -24.6844  -27.8475   20.4611 C   0  0  0  0  0  0  0  0  0  0  0  0
  -24.2131  -21.3926   22.4511 C   0  0  0  0  0  0  0  0  0  0  0  0
  -30.4715  -12.7830   19.0065 C   0  0  0  0  0  0  0  0  0  0  0  0
  -22.0714  -20.2604   22.2483 C   0  0  0  0  0  0  0  0  0  0  0  0
  -32.6934  -13.5103   19.2440 C   0  0  0  0  0  0  0  0  0  0  0  0
  -34.5948  -14.9748   20.6662 C   0  0  0  0  0  0  0  0  0  0  0  0
  -33.8079  -12.8680   19.7835 C   0  0  0  0  0  0  0  0  0  0  0  0
  -26.4998  -12.7776   20.4635 C   0  0  0  0  0  0  0  0  0  0  0  0
  -21.0725  -17.0747   20.7649 C   0  0  0  0  0  0  0  0  0  0  0  0
  -24.5419  -13.3603   21.2774 C   0  0  0  0  0  0  0  0  0  0  0  0
  -19.6955  -15.3598   21.0163 C   0  0  0  0  0  0  0  0  0  0  0  0
  -26.1374  -15.2654   21.0063 C   0  0  0  0  0  0  0  0  0  0  0  0
  -25.5088  -24.3862   21.4573 C   0  0  0  0  0  0  0  0  0  0  0  0
  -27.8289  -22.5809   22.8285 C   0  0  0  0  0  0  0  0  0  0  0  0
  -28.7261  -19.6158   24.2603 C   0  0  0  0  0  0  0  0  0  0  0  0
  -20.2868   -9.9190   19.7386 C   0  0  0  0  0  0  0  0  0  0  0  0
  -26.8630  -29.1005   20.0434 C   0  0  0  0  0  0  0  0  0  0  0  0
  -24.3764  -23.6413   23.5831 C   0  0  0  0  0  0  0  0  0  0  0  0
  -25.6974  -21.3886   22.1956 C   0  0  0  0  0  0  0  0  0  0  0  0
  -27.5566  -27.7429   20.1228 C   0  0  0  0  0  0  0  0  0  0  0  0
  -23.0331   -8.5728   21.8236 C   0  0  0  0  0  0  0  0  0  0  0  0
  -26.6991  -26.6661   19.4655 C   0  0  0  0  0  0  0  0  0  0  0  0
  -24.1383   -9.6094   21.6284 C   0  0  0  0  0  0  0  0  0  0  0  0
  -22.1051   -8.4987   20.6149 C   0  0  0  0  0  0  0  0  0  0  0  0
  -22.6211  -10.8454   20.0313 C   0  0  0  0  0  0  0  0  0  0  0  0
  -25.3525  -26.5182   20.1842 C   0  0  1  0  0  0  0  0  0  0  0  0
  -25.6948  -23.8200   22.8366 C   0  0  1  0  0  0  0  0  0  0  0  0
  -23.5461  -10.9782   21.2504 C   0  0  2  0  0  0  0  0  0  0  0  0
  -19.6643  -16.7637   23.8999 C   0  0  0  0  0  0  0  0  0  0  0  0
  -30.7009  -18.4226   25.2471 C   0  0  0  0  0  0  0  0  0  0  0  0
  -28.9323  -22.0941   20.0258 C   0  0  0  0  0  0  0  0  0  0  0  0
  -30.2658  -20.1907   20.9569 C   0  0  0  0  0  0  0  0  0  0  0  0
  -30.6715  -22.5126   21.7734 C   0  0  0  0  0  0  0  0  0  0  0  0
  -18.8459  -11.3538   18.3441 C   0  0  0  0  0  0  0  0  0  0  0  0
  -27.4009  -19.3574   26.8939 C   0  0  0  0  0  0  0  0  0  0  0  0
  -22.0473  -18.1414   21.1690 C   0  0  0  0  0  0  0  0  0  1  0  0
  -18.9001  -14.2559   21.6088 C   0  0  0  0  0  0  0  0  0  0  0  0
  -18.7232  -13.0244   20.6935 C   0  0  0  0  0  0  0  0  0  0  0  0
  -20.7919  -16.1527   23.0858 C   0  0  0  0  0  0  0  0  0  0  0  0
  -20.0353  -12.3857   20.2431 C   0  0  0  0  0  0  0  0  0  0  0  0
  -28.5549  -21.3105   22.4567 C   0  0  1  0  0  0  0  0  0  0  0  0
  -29.4939  -19.3028   25.5319 C   0  0  2  0  0  0  0  0  0  0  0  0
  -29.5778  -21.5276   21.3061 C   0  0  0  0  0  0  0  0  0  0  0  0
  -25.8108  -11.6352   20.5280 N   0  0  0  0  0  0  0  0  0  0  0  0
  -20.5226  -16.1895   21.6604 N   0  0  0  0  0  0  0  0  0  0  0  0
  -24.6245  -12.0222   21.0270 N   0  0  0  0  0  0  0  0  0  0  0  0
  -19.7074  -15.7007   19.7236 N   0  3  0  0  0  0  0  0  0  0  0  0
  -26.4341  -22.5648   22.6867 N   0  0  0  0  0  0  0  0  0  0  0  0
  -21.5908   -9.8193   20.2509 N   0  0  0  0  0  0  0  0  0  0  0  0
  -23.4199  -13.9174   21.7804 N   0  0  0  0  0  0  0  0  0  0  0  0
  -27.4257  -15.6328   20.5944 N   0  0  0  0  0  0  0  0  0  0  0  0
  -25.5141  -25.7673   21.4107 N   0  0  0  0  0  0  0  0  0  0  0  0
  -29.1428  -20.8003   23.6906 N   0  0  0  0  0  0  0  0  0  0  0  0
  -19.8245  -11.2027   19.4116 N   0  0  0  0  0  0  0  0  0  0  0  0
  -28.6158  -18.5953   26.5063 N   0  3  0  0  0  0  0  0  0  0  0  0
  -25.3619  -16.1442   21.4534 O   0  0  0  0  0  0  0  0  0  0  0  0
  -25.3721  -23.6264   20.5057 O   0  0  0  0  0  0  0  0  0  0  0  0
  -28.4749  -23.5492   23.2367 O   0  0  0  0  0  0  0  0  0  0  0  0
  -27.8475  -18.8809   23.8147 O   0  0  0  0  0  0  0  0  0  0  0  0
  -19.5729   -8.9187   19.5915 O   0  0  0  0  0  0  0  0  0  0  0  0
  -31.7491  -12.7848   18.5371 O   0  0  0  0  0  0  0  0  0  0  0  0
  -21.3418  -19.1899   21.8317 O   0  0  0  0  0  0  0  0  0  1  0  0
  -35.5085  -15.6783   21.3477 F   0  0  0  0  0  0  0  0  0  0  0  0
  -33.9713  -11.5478   19.6209 F   0  0  0  0  0  0  0  0  0  0  0  0
  1  2  1  0  0  0  0
  1  5  2  0  0  0  0
  2  6  2  0  0  0  0
  3  8  2  0  0  0  0
  3 16  1  0  0  0  0
  4  9  1  0  0  0  0
  4 16  2  0  0  0  0
  5 18  1  0  0  0  0
  6 20  1  0  0  0  0
  7 10  2  0  0  0  0
  7 19  1  0  0  0  0
  8 22  1  0  0  0  0
  9 22  2  0  0  0  0
 10 23  1  0  0  0  0
 11 12  2  0  0  0  0
 11 24  1  0  0  0  0
 12 25  1  0  0  0  0
 13 21  1  0  0  0  0
 13 23  2  0  0  0  0
 14 25  2  0  0  0  0
 14 26  1  0  0  0  0
 15 28  2  0  0  0  0
 15 66  1  0  0  0  0
 16 27  1  0  0  0  0
 17 27  1  0  0  0  0
 17 29  2  0  0  0  0
 17 31  1  0  0  0  0
 18 20  2  0  0  0  0
 18 36  1  0  0  0  0
 19 21  2  0  0  0  0
 19 37  1  0  0  0  0
 20 45  1  0  0  0  0
 21 38  1  0  0  0  0
 22 80  1  0  0  0  0
 23 81  1  0  0  0  0
 24 26  2  0  0  0  0
 24 80  1  0  0  0  0
 25 82  1  0  0  0  0
 26 83  1  0  0  0  0
 27 63  2  0  0  0  0
 28 55  1  0  0  0  0
 28 64  1  0  0  0  0
 29 65  1  0  0  0  0
 29 69  1  0  0  0  0
 30 56  1  0  0  0  0
 30 64  1  0  0  0  0
 30 66  2  0  0  0  0
 31 70  1  0  0  0  0
 31 75  2  0  0  0  0
 32 46  1  0  0  0  0
 32 71  1  0  0  0  0
 32 76  2  0  0  0  0
 33 60  1  0  0  0  0
 33 67  1  0  0  0  0
 33 77  2  0  0  0  0
 34 61  1  0  0  0  0
 34 72  1  0  0  0  0
 34 78  2  0  0  0  0
 35 68  1  0  0  0  0
 35 73  1  0  0  0  0
 35 79  2  0  0  0  0
 36 39  1  0  0  0  0
 37 46  1  0  0  0  0
 38 67  1  0  0  0  0
 39 41  1  0  0  0  0
 40 42  1  0  0  0  0
 40 43  1  0  0  0  0
 41 45  1  0  0  0  0
 42 47  1  0  0  0  0
 43 68  1  0  0  0  0
 44 47  1  0  0  0  0
 44 68  1  0  0  0  0
 45 71  1  0  0  0  0
 46 67  1  0  0  0  0
 47 65  1  0  0  0  0
 48 58  1  0  0  0  0
 49 61  1  0  0  0  0
 50 62  1  0  0  0  0
 51 62  1  0  0  0  0
 52 62  1  0  0  0  0
 53 73  1  0  0  0  0
 54 74  1  0  0  0  0
 55 81  1  0  0  0  0
 56 57  1  0  0  0  0
 57 59  1  0  0  0  0
 58 64  1  0  0  0  0
 59 73  1  0  0  0  0
 60 62  1  0  0  0  0
 60 72  1  0  0  0  0
 61 74  1  0  0  0  0
 63 65  1  0  0  0  0
M  CHG  2  66   1  74   1
M  ISO  4  35 100  55 101  73 100  81 101
M  END
> <Batch ID>
0052

> <Smiles>
CCn1c([101CH2:1][101O:1]c2ccc3c(c2)CN(C(=O)C(NC(=O)C(C)NC)C(C)(C)C)C(C(=O)NC2CCCc4ccccc42)C3)cnc1CCC[100N:0](C)[100C:0](=O)N1CCCC(n2nc(-c3ccc(Oc4ccc(F)cc4F)cc3)c(C(N)=O)c2N)C1

> <Shape>
0.193

> <Color>
0.096

> <Negative vol penalty>
0.000

$$$$

  -OEChem-04052317363D

 84 92  0     1  0  0  0  0  0999 V2000
  -29.3285  -22.9716   18.5069 C   0  0  0  0  0  0  0  0  0  0  0  0
  -28.0919  -23.1980   19.1028 C   0  0  0  0  0  0  0  0  0  0  0  0
  -26.0753  -14.4981   20.9608 C   0  0  0  0  0  0  0  0  0  0  0  0
  -23.9808  -14.1320   19.8134 C   0  0  0  0  0  0  0  0  0  0  0  0
  -30.4483  -23.6832   18.9353 C   0  0  0  0  0  0  0  0  0  0  0  0
  -27.9747  -24.1356   20.1283 C   0  0  0  0  0  0  0  0  0  0  0  0
  -23.9242  -27.1241   19.5746 C   0  0  0  0  0  0  0  0  0  0  0  0
  -26.2888  -13.1207   21.0106 C   0  0  0  0  0  0  0  0  0  0  0  0
  -24.1944  -12.7545   19.8633 C   0  0  0  0  0  0  0  0  0  0  0  0
  -22.6861  -26.5909   19.9303 C   0  0  0  0  0  0  0  0  0  0  0  0
  -23.9000  -10.2684   22.1356 C   0  0  0  0  0  0  0  0  0  0  0  0
  -22.8283   -9.4597   22.5136 C   0  0  0  0  0  0  0  0  0  0  0  0
  -22.7969  -27.7562   22.0396 C   0  0  0  0  0  0  0  0  0  0  0  0
  -22.9406   -8.3170   20.3878 C   0  0  0  0  0  0  0  0  0  0  0  0
  -18.5297  -23.8016   21.3819 C   0  0  0  0  0  0  0  0  0  0  0  0
  -16.9825  -25.2866   21.8896 C   0  0  0  0  0  0  0  0  0  0  0  0
  -24.9212  -15.0038   20.3622 C   0  0  0  0  0  0  0  0  0  0  0  0
  -25.1016  -17.3134   19.2941 C   0  0  0  0  0  0  0  0  0  0  0  0
  -30.3428  -24.6369   19.9601 C   0  0  0  0  0  0  0  0  0  0  0  0
  -24.6141  -27.9702   20.4547 C   0  0  0  0  0  0  0  0  0  0  0  0
  -29.0944  -24.8596   20.5718 C   0  0  0  0  0  0  0  0  0  0  0  0
  -24.0424  -28.3009   21.6916 C   0  0  0  0  0  0  0  0  0  0  0  0
  -25.3484  -12.2488   20.4619 C   0  0  0  0  0  0  0  0  0  0  0  0
  -22.1236  -26.9046   21.1641 C   0  0  0  0  0  0  0  0  0  0  0  0
  -24.4921  -10.1015   20.8836 C   0  0  0  0  0  0  0  0  0  0  0  0
  -22.3486   -8.4840   21.6398 C   0  0  0  0  0  0  0  0  0  0  0  0
  -24.0124   -9.1258   20.0098 C   0  0  0  0  0  0  0  0  0  0  0  0
  -24.6998  -16.4267   20.3109 C   0  0  0  0  0  0  0  0  0  0  0  0
  -18.9574  -25.0823   21.1223 C   0  0  0  0  0  0  0  0  0  0  0  0
  -24.6555  -18.5426   19.7143 C   0  0  0  0  0  0  0  0  0  0  0  0
  -25.8143  -17.0496   18.0783 C   0  0  0  0  0  0  0  0  0  0  0  0
  -27.4106  -27.8412   21.9603 C   0  0  0  0  0  0  0  0  0  0  0  0
  -26.6371  -30.8671   22.8365 C   0  0  0  0  0  0  0  0  0  0  0  0
  -20.1902  -20.0340   23.3354 C   0  0  0  0  0  0  0  0  0  0  0  0
  -24.1993  -33.1945   23.3726 C   0  0  0  0  0  0  0  0  0  0  0  0
  -31.5905  -25.3474   20.4217 C   0  0  0  0  0  0  0  0  0  0  0  0
  -25.9364  -28.5585   20.0450 C   0  0  0  0  0  0  0  0  0  0  0  0
  -24.7332  -29.2206   22.6639 C   0  0  0  0  0  0  0  0  0  0  0  0
  -31.3081  -26.5926   21.2584 C   0  0  0  0  0  0  0  0  0  0  0  0
  -23.6730  -21.0242   23.6767 C   0  0  0  0  0  0  0  0  0  0  0  0
  -30.2508  -26.2958   22.3171 C   0  0  0  0  0  0  0  0  0  0  0  0
  -24.3696  -20.0085   22.7721 C   0  0  0  0  0  0  0  0  0  0  0  0
  -22.4722  -20.4092   24.3907 C   0  0  0  0  0  0  0  0  0  0  0  0
  -22.1711  -18.7695   22.5617 C   0  0  0  0  0  0  0  0  0  0  0  0
  -28.9221  -25.8862   21.6702 C   0  0  1  0  0  0  0  0  0  0  0  0
  -26.7880  -28.9986   21.2318 C   0  0  1  0  0  0  0  0  0  0  0  0
  -23.3698  -19.3587   21.7996 C   0  0  2  0  0  0  0  0  0  0  0  0
  -23.8713  -35.5670   24.1217 C   0  0  0  0  0  0  0  0  0  0  0  0
  -19.8460  -20.5940   25.7359 C   0  0  0  0  0  0  0  0  0  0  0  0
  -20.2336  -22.4209   24.0374 C   0  0  0  0  0  0  0  0  0  0  0  0
  -27.1091  -30.0167   25.7286 C   0  0  0  0  0  0  0  0  0  0  0  0
  -25.8775  -32.0701   26.4602 C   0  0  0  0  0  0  0  0  0  0  0  0
  -27.9901  -32.2849   25.1512 C   0  0  0  0  0  0  0  0  0  0  0  0
  -22.9950  -33.9682   20.7822 C   0  0  0  0  0  0  0  0  0  0  0  0
  -17.4162  -19.9408   24.6214 C   0  0  0  0  0  0  0  0  0  0  0  0
  -20.2798  -25.5255   20.5689 C   0  0  0  0  0  0  0  0  0  1  0  0
  -16.2623  -22.7420   23.8125 C   0  0  0  0  0  0  0  0  0  0  0  0
  -16.3805  -22.8871   22.2916 C   0  0  0  0  0  0  0  0  0  0  0  0
  -17.5634  -22.4255   24.5421 C   0  0  0  0  0  0  0  0  0  0  0  0
  -25.8895  -31.4875   23.9921 C   0  0  1  0  0  0  0  0  0  0  0  0
  -24.0739  -34.6418   22.9319 C   0  0  2  0  0  0  0  0  0  0  0  0
  -19.6231  -21.0477   24.2969 C   0  0  0  0  0  0  0  0  0  0  0  0
  -26.7042  -31.4459   25.3157 C   0  0  0  0  0  0  0  0  0  0  0  0
  -17.9898  -26.0021   21.4408 N   0  0  0  0  0  0  0  0  0  0  0  0
  -24.0487  -17.0403   21.3026 N   0  0  0  0  0  0  0  0  0  0  0  0
  -17.2632  -23.9486   21.8733 N   0  0  0  0  0  0  0  0  0  0  0  0
  -24.0380  -18.3259   20.9109 N   0  0  0  0  0  0  0  0  0  0  0  0
  -26.0269  -29.7655   22.2201 N   0  0  0  0  0  0  0  0  0  0  0  0
  -21.5579  -19.7766   23.4323 N   0  0  0  0  0  0  0  0  0  0  0  0
  -24.7353  -19.7769   19.1734 N   0  0  0  0  0  0  0  0  0  0  0  0
  -26.1975  -15.7302   17.8013 N   0  0  0  0  0  0  0  0  0  0  0  0
  -28.2232  -27.0507   21.1702 N   0  0  0  0  0  0  0  0  0  0  0  0
  -25.5156  -32.8306   23.5625 N   0  0  0  0  0  0  0  0  0  0  0  0
  -22.9156  -34.8035   22.0082 N   0  3  0  0  0  0  0  0  0  0  0  0
  -18.1346  -21.1455   24.0625 N   0  3  1  0  0  0  0  0  0  0  0  0
  -26.1171  -17.9595   17.2696 O   0  0  0  0  0  0  0  0  0  0  0  0
  -27.1726  -27.6785   23.1513 O   0  0  0  0  0  0  0  0  0  0  0  0
  -27.7190  -31.3469   22.4889 O   0  0  0  0  0  0  0  0  0  0  0  0
  -19.4391  -19.4903   22.5215 O   0  0  0  0  0  0  0  0  0  0  0  0
  -23.2265  -32.4613   23.5360 O   0  0  0  0  0  0  0  0  0  0  0  0
  -25.5565  -10.9046   20.5101 O   0  0  0  0  0  0  0  0  0  0  0  0
  -20.9155  -26.3849   21.5141 O   0  0  0  0  0  0  0  0  0  1  0  0
  -21.3203   -7.7064   22.0035 F   0  0  0  0  0  0  0  0  0  0  0  0
  -24.5778   -8.9600   18.8062 F   0  0  0  0  0  0  0  0  0  0  0  0
  1  2  1  0  0  0  0
  1  5  2  0  0  0  0
  2  6  2  0  0  0  0
  3  8  2  0  0  0  0
  3 17  1  0  0  0  0
  4  9  1  0  0  0  0
  4 17  2  0  0  0  0
  5 19  1  0  0  0  0
  6 21  1  0  0  0  0
  7 10  2  0  0  0  0
  7 20  1  0  0  0  0
  8 23  1  0  0  0  0
  9 23  2  0  0  0  0
 10 24  1  0  0  0  0
 11 12  2  0  0  0  0
 11 25  1  0  0  0  0
 12 26  1  0  0  0  0
 13 22  1  0  0  0  0
 13 24  2  0  0  0  0
 14 26  2  0  0  0  0
 14 27  1  0  0  0  0
 15 29  2  0  0  0  0
 15 66  1  0  0  0  0
 16 64  2  0  0  0  0
 16 66  1  0  0  0  0
 17 28  1  0  0  0  0
 18 28  1  0  0  0  0
 18 30  2  0  0  0  0
 18 31  1  0  0  0  0
 19 21  2  0  0  0  0
 19 36  1  0  0  0  0
 20 22  2  0  0  0  0
 20 37  1  0  0  0  0
 21 45  1  0  0  0  0
 22 38  1  0  0  0  0
 23 81  1  0  0  0  0
 24 82  1  0  0  0  0
 25 27  2  0  0  0  0
 25 81  1  0  0  0  0
 26 83  1  0  0  0  0
 27 84  1  0  0  0  0
 28 65  2  0  0  0  0
 29 56  1  0  0  0  0
 29 64  1  0  0  0  0
 30 67  1  0  0  0  0
 30 70  1  0  0  0  0
 31 71  1  0  0  0  0
 31 76  2  0  0  0  0
 32 46  1  0  0  0  0
 32 72  1  0  0  0  0
 32 77  2  0  0  0  0
 33 60  1  0  0  0  0
 33 68  1  0  0  0  0
 33 78  2  0  0  0  0
 34 62  1  0  0  0  0
 34 69  1  0  0  0  0
 34 79  2  0  0  0  0
 35 61  1  0  0  0  0
 35 73  1  0  0  0  0
 35 80  2  0  0  0  0
 36 39  1  0  0  0  0
 37 46  1  0  0  0  0
 38 68  1  0  0  0  0
 39 41  1  0  0  0  0
 40 42  1  0  0  0  0
 40 43  1  0  0  0  0
 41 45  1  0  0  0  0
 42 47  1  0  0  0  0
 43 69  1  0  0  0  0
 44 47  1  0  0  0  0
 44 69  1  0  0  0  0
 45 72  1  0  0  0  0
 46 68  1  0  0  0  0
 47 67  1  0  0  0  0
 48 61  1  0  0  0  0
 49 62  1  0  0  0  0
 50 62  1  0  0  0  0
 51 63  1  0  0  0  0
 52 63  1  0  0  0  0
 53 63  1  0  0  0  0
 54 74  1  0  0  0  0
 55 75  1  0  0  0  0
 56 82  1  0  0  0  0
 57 58  1  0  0  0  0
 57 59  1  0  0  0  0
 58 66  1  0  0  0  0
 59 75  1  0  0  0  0
 60 63  1  0  0  0  0
 60 73  1  0  0  0  0
 61 74  1  0  0  0  0
 62 75  1  0  0  0  0
 65 67  1  0  0  0  0
M  CHG  2  74   1  75   1
M  ISO  4  34 100  56 101  62 100  82 101
M  END
> <Batch ID>
0052

> <Smiles>
CNC(C)C(=O)NC(C(=O)N1Cc2cc([101O:1][101CH2:1]c3cn(CCCN(C)[100C:0](C)(C)[100C:0](=O)N4CCCC(n5nc(-c6ccc(Oc7ccc(F)cc7F)cc6)c(C(N)=O)c5N)C4)cn3)ccc2CC1C(=O)NC1CCCc2ccccc21)C(C)(C)C

> <Shape>
0.230

> <Color>
0.070

> <Negative vol penalty>
0.000

$$$$

  -OEChem-04052317363D

 82 90  0     1  0  0  0  0  0999 V2000
  -14.9387  -25.5063   29.6302 C   0  0  0  0  0  0  0  0  0  0  0  0
  -16.0710  -24.7018   29.5523 C   0  0  0  0  0  0  0  0  0  0  0  0
  -23.0444   -9.9413   19.9256 C   0  0  0  0  0  0  0  0  0  0  0  0
  -24.0875   -9.7629   22.0975 C   0  0  0  0  0  0  0  0  0  0  0  0
  -14.4600  -26.1465   28.4879 C   0  0  0  0  0  0  0  0  0  0  0  0
  -16.7246  -24.5361   28.3318 C   0  0  0  0  0  0  0  0  0  0  0  0
  -23.2701  -23.5518   25.5924 C   0  0  0  0  0  0  0  0  0  0  0  0
  -22.3622   -8.7466   20.1551 C   0  0  0  0  0  0  0  0  0  0  0  0
  -23.4053   -8.5681   22.3270 C   0  0  0  0  0  0  0  0  0  0  0  0
  -23.9602  -22.7005   24.7305 C   0  0  0  0  0  0  0  0  0  0  0  0
  -20.2963   -7.6139   23.2460 C   0  0  0  0  0  0  0  0  0  0  0  0
  -19.6943   -7.4423   24.4925 C   0  0  0  0  0  0  0  0  0  0  0  0
  -23.0890  -23.9188   22.8395 C   0  0  0  0  0  0  0  0  0  0  0  0
  -21.0588   -5.4869   24.8823 C   0  0  0  0  0  0  0  0  0  0  0  0
  -27.4175  -20.1620   20.2619 C   0  0  0  0  0  0  0  0  0  0  0  0
  -23.9071  -10.4495   20.8968 C   0  0  0  0  0  0  0  0  0  0  0  0
  -24.1785  -12.9848   20.9758 C   0  0  0  0  0  0  0  0  0  0  0  0
  -15.1137  -25.9963   27.2547 C   0  0  0  0  0  0  0  0  0  0  0  0
  -22.4743  -24.5880   25.0831 C   0  0  0  0  0  0  0  0  0  0  0  0
  -16.2534  -25.1738   27.1716 C   0  0  0  0  0  0  0  0  0  0  0  0
  -22.3919  -24.7835   23.6971 C   0  0  0  0  0  0  0  0  0  0  0  0
  -22.5426   -8.0600   21.3558 C   0  0  0  0  0  0  0  0  0  0  0  0
  -23.8674  -22.8821   23.3537 C   0  0  0  0  0  0  0  0  0  0  0  0
  -21.2795   -6.7220   22.8176 C   0  0  0  0  0  0  0  0  0  0  0  0
  -20.0756   -6.3788   25.3106 C   0  0  0  0  0  0  0  0  0  0  0  0
  -21.6608   -5.6585   23.6357 C   0  0  0  0  0  0  0  0  0  0  0  0
  -24.6126  -11.6833   20.6601 C   0  0  0  0  0  0  0  0  0  0  0  0
  -27.1670  -18.8194   20.1400 C   0  0  0  0  0  0  0  0  0  0  0  0
  -25.2003  -13.7995   20.5529 C   0  0  0  0  0  0  0  0  0  0  0  0
  -26.0016  -20.2340   22.0197 C   0  0  0  0  0  0  0  0  0  0  0  0
  -22.9607  -13.4185   21.5958 C   0  0  0  0  0  0  0  0  0  0  0  0
  -19.3814  -25.3104   25.2095 C   0  0  0  0  0  0  0  0  0  0  0  0
  -20.3517  -28.0185   23.7106 C   0  0  0  0  0  0  0  0  0  0  0  0
  -22.6748  -29.5726   21.7523 C   0  0  0  0  0  0  0  0  0  0  0  0
  -30.8234  -14.6345   20.5370 C   0  0  0  0  0  0  0  0  0  0  0  0
  -14.5315  -26.6704   26.0376 C   0  0  0  0  0  0  0  0  0  0  0  0
  -21.7576  -25.5143   26.0269 C   0  0  0  0  0  0  0  0  0  0  0  0
  -21.5673  -25.8936   23.1004 C   0  0  0  0  0  0  0  0  0  0  0  0
  -15.4997  -26.7428   24.8597 C   0  0  0  0  0  0  0  0  0  0  0  0
  -29.2605  -12.8160   17.7170 C   0  0  0  0  0  0  0  0  0  0  0  0
  -16.1791  -25.3943   24.6434 C   0  0  0  0  0  0  0  0  0  0  0  0
  -27.9053  -12.4094   18.2932 C   0  0  0  0  0  0  0  0  0  0  0  0
  -30.3222  -12.9496   18.8046 C   0  0  0  0  0  0  0  0  0  0  0  0
  -28.5839  -13.4619   20.4868 C   0  0  0  0  0  0  0  0  0  0  0  0
  -17.0044  -24.9892   25.8708 C   0  0  1  0  0  0  0  0  0  0  0  0
  -20.5663  -26.2178   25.3841 C   0  0  1  0  0  0  0  0  0  0  0  0
  -27.4805  -13.3640   19.4226 C   0  0  2  0  0  0  0  0  0  0  0  0
  -23.1760  -31.7773   20.6635 C   0  0  0  0  0  0  0  0  0  0  0  0
  -18.2578  -27.4344   21.5695 C   0  0  0  0  0  0  0  0  0  0  0  0
  -19.4232  -29.0756   20.0808 C   0  0  0  0  0  0  0  0  0  0  0  0
  -18.4256  -29.8390   22.2360 C   0  0  0  0  0  0  0  0  0  0  0  0
  -31.3241  -16.7393   21.7198 C   0  0  0  0  0  0  0  0  0  0  0  0
  -25.1921  -29.8849   23.2770 C   0  0  0  0  0  0  0  0  0  0  0  0
  -27.8208  -18.0074   19.0797 C   0  0  0  0  0  0  0  0  0  0  0  0
  -25.3208  -21.0163   23.1041 C   0  0  0  0  0  0  0  0  0  1  0  0
  -29.1687  -17.3784   19.4913 C   0  0  0  0  0  0  0  0  0  0  0  0
  -29.0879  -16.4674   20.7143 C   0  0  0  0  0  0  0  0  0  0  0  0
  -20.5303  -28.4386   22.2716 C   0  0  1  0  0  0  0  0  0  0  0  0
  -23.3809  -30.9088   21.8950 C   0  0  2  0  0  0  0  0  0  0  0  0
  -19.1733  -28.6747   21.5504 C   0  0  0  0  0  0  0  0  0  0  0  0
  -26.8354  -20.9076   21.2134 N   0  0  0  0  0  0  0  0  0  0  0  0
  -25.8162  -11.6674   20.0813 N   0  0  0  0  0  0  0  0  0  0  0  0
  -26.3195  -18.1971   20.9792 N   0  0  0  0  0  0  0  0  0  0  0  0
  -25.7174  -18.9187   21.9473 N   0  0  0  0  0  0  0  0  0  0  0  0
  -26.1472  -12.9689   20.0297 N   0  0  0  0  0  0  0  0  0  0  0  0
  -20.8801  -26.7689   24.0643 N   0  0  0  0  0  0  0  0  0  0  0  0
  -29.8753  -13.8280   19.8862 N   0  0  0  0  0  0  0  0  0  0  0  0
  -25.3721  -15.1382   20.5812 N   0  0  0  0  0  0  0  0  0  0  0  0
  -22.0186  -12.4498   21.9679 N   0  0  0  0  0  0  0  0  0  0  0  0
  -18.2556  -25.7157   25.9007 N   0  0  0  0  0  0  0  0  0  0  0  0
  -21.4066  -29.6048   22.2927 N   0  0  0  0  0  0  0  0  0  0  0  0
  -30.3760  -15.8628   21.0469 N   0  0  0  0  0  0  0  0  0  0  0  0
  -24.8444  -30.7034   22.0870 N   0  3  0  0  0  0  0  0  0  0  0  0
  -22.7081  -14.6303   21.7986 O   0  0  0  0  0  0  0  0  0  0  0  0
  -19.4808  -24.3169   24.4990 O   0  0  0  0  0  0  0  0  0  0  0  0
  -19.7712  -28.7745   24.4937 O   0  0  0  0  0  0  0  0  0  0  0  0
  -23.1947  -28.5988   21.2121 O   0  0  0  0  0  0  0  0  0  0  0  0
  -32.0045  -14.2814   20.6471 O   0  0  0  0  0  0  0  0  0  0  0  0
  -21.8768   -6.8942   21.5802 O   0  0  0  0  0  0  0  0  0  0  0  0
  -24.5394  -22.0522   22.5102 O   0  0  0  0  0  0  0  0  0  1  0  0
  -19.4985   -6.2150   26.5083 F   0  0  0  0  0  0  0  0  0  0  0  0
  -22.6056   -4.7991   23.2301 F   0  0  0  0  0  0  0  0  0  0  0  0
  1  2  1  0  0  0  0
  1  5  2  0  0  0  0
  2  6  2  0  0  0  0
  3  8  2  0  0  0  0
  3 16  1  0  0  0  0
  4  9  1  0  0  0  0
  4 16  2  0  0  0  0
  5 18  1  0  0  0  0
  6 20  1  0  0  0  0
  7 10  2  0  0  0  0
  7 19  1  0  0  0  0
  8 22  1  0  0  0  0
  9 22  2  0  0  0  0
 10 23  1  0  0  0  0
 11 12  2  0  0  0  0
 11 24  1  0  0  0  0
 12 25  1  0  0  0  0
 13 21  1  0  0  0  0
 13 23  2  0  0  0  0
 14 25  2  0  0  0  0
 14 26  1  0  0  0  0
 15 28  1  0  0  0  0
 15 61  2  0  0  0  0
 16 27  1  0  0  0  0
 17 27  1  0  0  0  0
 17 29  2  0  0  0  0
 17 31  1  0  0  0  0
 18 20  2  0  0  0  0
 18 36  1  0  0  0  0
 19 21  2  0  0  0  0
 19 37  1  0  0  0  0
 20 45  1  0  0  0  0
 21 38  1  0  0  0  0
 22 79  1  0  0  0  0
 23 80  1  0  0  0  0
 24 26  2  0  0  0  0
 24 79  1  0  0  0  0
 25 81  1  0  0  0  0
 26 82  1  0  0  0  0
 27 62  2  0  0  0  0
 28 54  1  0  0  0  0
 28 63  2  0  0  0  0
 29 65  1  0  0  0  0
 29 68  1  0  0  0  0
 30 55  1  0  0  0  0
 30 61  1  0  0  0  0
 30 64  2  0  0  0  0
 31 69  1  0  0  0  0
 31 74  2  0  0  0  0
 32 46  1  0  0  0  0
 32 70  1  0  0  0  0
 32 75  2  0  0  0  0
 33 58  1  0  0  0  0
 33 66  1  0  0  0  0
 33 76  2  0  0  0  0
 34 59  1  0  0  0  0
 34 71  1  0  0  0  0
 34 77  2  0  0  0  0
 35 67  1  0  0  0  0
 35 72  1  0  0  0  0
 35 78  2  0  0  0  0
 36 39  1  0  0  0  0
 37 46  1  0  0  0  0
 38 66  1  0  0  0  0
 39 41  1  0  0  0  0
 40 42  1  0  0  0  0
 40 43  1  0  0  0  0
 41 45  1  0  0  0  0
 42 47  1  0  0  0  0
 43 67  1  0  0  0  0
 44 47  1  0  0  0  0
 44 67  1  0  0  0  0
 45 70  1  0  0  0  0
 46 66  1  0  0  0  0
 47 65  1  0  0  0  0
 48 59  1  0  0  0  0
 49 60  1  0  0  0  0
 50 60  1  0  0  0  0
 51 60  1  0  0  0  0
 52 72  1  0  0  0  0
 53 73  1  0  0  0  0
 54 56  1  0  0  0  0
 55 80  1  0  0  0  0
 56 57  1  0  0  0  0
 57 72  1  0  0  0  0
 58 60  1  0  0  0  0
 58 71  1  0  0  0  0
 59 73  1  0  0  0  0
 62 65  1  0  0  0  0
 63 64  1  0  0  0  0
M  CHG  1  73   1
M  ISO  4  35 100  55 101  72 100  80 101
M  END
> <Batch ID>
0052

> <Smiles>
CNC(C)C(=O)NC(C(=O)N1Cc2cc([101O:1][101CH2:1]c3ncc(CCC[100N:0](C)[100C:0](=O)N4CCCC(n5nc(-c6ccc(Oc7ccc(F)cc7F)cc6)c(C(N)=O)c5N)C4)nn3)ccc2CC1C(=O)NC1CCCc2ccccc21)C(C)(C)C

> <Shape>
0.283

> <Color>
0.189

> <Negative vol penalty>
0.000

$$$$

  -OEChem-04052317363D

 83 91  0     1  0  0  0  0  0999 V2000
  -22.6198   -8.2522   20.7631 C   0  0  0  0  0  0  0  0  0  0  0  0
  -21.8787   -9.4278   20.6981 C   0  0  0  0  0  0  0  0  0  0  0  0
  -29.5924  -25.6719   18.4436 C   0  0  0  0  0  0  0  0  0  0  0  0
  -30.2312  -26.9225   20.4096 C   0  0  0  0  0  0  0  0  0  0  0  0
  -23.9137   -8.2730   21.2819 C   0  0  0  0  0  0  0  0  0  0  0  0
  -22.4308  -10.6247   21.1530 C   0  0  0  0  0  0  0  0  0  0  0  0
  -21.4990  -16.2204   18.8452 C   0  0  0  0  0  0  0  0  0  0  0  0
  -30.9376  -25.4754   18.1315 C   0  0  0  0  0  0  0  0  0  0  0  0
  -31.5764  -26.7260   20.0975 C   0  0  0  0  0  0  0  0  0  0  0  0
  -20.6570  -17.2641   19.2267 C   0  0  0  0  0  0  0  0  0  0  0  0
  -33.4610  -23.4642   19.1417 C   0  0  0  0  0  0  0  0  0  0  0  0
  -33.8567  -22.1833   18.7567 C   0  0  0  0  0  0  0  0  0  0  0  0
  -22.4723  -18.2713   20.4554 C   0  0  0  0  0  0  0  0  0  0  0  0
  -34.6006  -23.0528   16.6288 C   0  0  0  0  0  0  0  0  0  0  0  0
  -20.6843  -26.3520   19.3782 C   0  0  0  0  0  0  0  0  0  0  0  0
  -20.1528  -26.3603   21.5118 C   0  0  0  0  0  0  0  0  0  0  0  0
  -29.2392  -26.3955   19.5826 C   0  0  0  0  0  0  0  0  0  0  0  0
  -26.8822  -25.6092   20.1603 C   0  0  0  0  0  0  0  0  0  0  0  0
  -24.4855   -9.4725   21.7344 C   0  0  0  0  0  0  0  0  0  0  0  0
  -22.8332  -16.1886   19.2756 C   0  0  0  0  0  0  0  0  0  0  0  0
  -23.7331  -10.6613   21.6796 C   0  0  0  0  0  0  0  0  0  0  0  0
  -23.3298  -17.2275   20.0758 C   0  0  0  0  0  0  0  0  0  0  0  0
  -20.0857  -25.5743   20.3874 C   0  0  0  0  0  0  0  0  0  0  0  0
  -31.9296  -26.0024   18.9585 C   0  0  0  0  0  0  0  0  0  0  0  0
  -21.1428  -18.2883   20.0343 C   0  0  0  0  0  0  0  0  0  0  0  0
  -33.6350  -24.5394   18.2703 C   0  0  0  0  0  0  0  0  0  0  0  0
  -34.4265  -21.9776   17.5002 C   0  0  0  0  0  0  0  0  0  0  0  0
  -34.2048  -24.3337   17.0139 C   0  0  0  0  0  0  0  0  0  0  0  0
  -27.8498  -26.5993   19.9052 C   0  0  0  0  0  0  0  0  0  0  0  0
  -25.7298  -26.3123   20.4136 C   0  0  0  0  0  0  0  0  0  0  0  0
  -27.0133  -24.1814   20.1676 C   0  0  0  0  0  0  0  0  0  0  0  0
  -24.5714  -14.2043   21.0490 C   0  0  0  0  0  0  0  0  0  0  0  0
  -27.0016  -16.1602   20.1596 C   0  0  0  0  0  0  0  0  0  0  0  0
  -27.9930  -19.2410   19.0770 C   0  0  0  0  0  0  0  0  0  0  0  0
  -23.4288  -30.6654   23.2550 C   0  0  0  0  0  0  0  0  0  0  0  0
  -25.8703   -9.4370   22.3308 C   0  0  0  0  0  0  0  0  0  0  0  0
  -23.7359  -15.0696   18.8334 C   0  0  0  0  0  0  0  0  0  0  0  0
  -24.7599  -17.2506   20.5479 C   0  0  0  0  0  0  0  0  0  0  0  0
  -26.5197  -10.8137   22.4455 C   0  0  0  0  0  0  0  0  0  0  0  0
  -24.6324  -31.2020   19.7960 C   0  0  0  0  0  0  0  0  0  0  0  0
  -25.5380  -11.8192   23.0388 C   0  0  0  0  0  0  0  0  0  0  0  0
  -25.5522  -30.0027   19.5735 C   0  0  0  0  0  0  0  0  0  0  0  0
  -24.5596  -31.5956   21.2682 C   0  0  0  0  0  0  0  0  0  0  0  0
  -25.0922  -29.2791   21.9495 C   0  0  0  0  0  0  0  0  0  0  0  0
  -24.3064  -11.9840   22.1402 C   0  0  1  0  0  0  0  0  0  0  0  0
  -24.9367  -14.8716   19.7532 C   0  0  1  0  0  0  0  0  0  0  0  0
  -25.1512  -28.8278   20.4824 C   0  0  2  0  0  0  0  0  0  0  0  0
  -30.0474  -20.5505   18.4749 C   0  0  0  0  0  0  0  0  0  0  0  0
  -27.6663  -16.4742   23.1209 C   0  0  0  0  0  0  0  0  0  0  0  0
  -29.0535  -18.4718   22.5262 C   0  0  0  0  0  0  0  0  0  0  0  0
  -29.6557  -16.2246   21.6260 C   0  0  0  0  0  0  0  0  0  0  0  0
  -21.7448  -29.7930   24.8307 C   0  0  0  0  0  0  0  0  0  0  0  0
  -27.0580  -19.6525   16.2993 C   0  0  0  0  0  0  0  0  0  0  0  0
  -19.4992  -24.1906   20.2640 C   0  0  0  0  0  0  0  0  0  0  0  0
  -20.5061  -23.0655   20.5281 C   0  0  0  0  0  0  0  0  0  0  0  0
  -19.9130  -21.6709   20.3230 C   0  0  0  0  0  0  0  0  0  0  0  0
  -21.0580  -28.6532   21.9614 C   0  0  0  0  0  0  0  0  0  0  0  0
  -22.2900  -28.4446   22.8381 C   0  0  0  0  0  0  0  0  0  0  0  0
  -20.9293  -20.5801   20.6325 C   0  0  0  0  0  0  0  0  0  1  0  0
  -27.6203  -17.4187   20.7184 C   0  0  1  0  0  0  0  0  0  0  0  0
  -28.9266  -19.6627   17.9567 C   0  0  2  0  0  0  0  0  0  0  0  0
  -28.4714  -17.1462   21.9907 C   0  0  0  0  0  0  0  0  0  0  0  0
  -21.1009  -27.5408   19.8221 N   0  0  0  0  0  0  0  0  0  0  0  0
  -27.3552  -27.8373   19.9887 N   0  0  0  0  0  0  0  0  0  0  0  0
  -20.7635  -27.5161   21.1227 N   0  0  0  0  0  0  0  0  0  0  0  0
  -26.0642  -27.6296   20.2990 N   0  0  0  0  0  0  0  0  0  0  0  0
  -25.6014  -16.1310   20.0941 N   0  0  0  0  0  0  0  0  0  0  0  0
  -24.2191  -30.4510   22.1138 N   0  0  0  0  0  0  0  0  0  0  0  0
  -24.4733  -25.9262   20.7209 N   0  0  0  0  0  0  0  0  0  0  0  0
  -26.7913  -23.4839   18.9724 N   0  0  0  0  0  0  0  0  0  0  0  0
  -24.6186  -12.8240   21.0038 N   0  0  0  0  0  0  0  0  0  0  0  0
  -28.3636  -18.0299   19.6219 N   0  0  0  0  0  0  0  0  0  0  0  0
  -22.5919  -29.6145   23.6600 N   0  0  0  0  0  0  0  0  0  0  0  0
  -28.1757  -20.4153   16.9123 N   0  3  0  0  0  0  0  0  0  0  0  0
  -27.3021  -23.5417   21.2072 O   0  0  0  0  0  0  0  0  0  0  0  0
  -24.2706  -14.8909   22.0184 O   0  0  0  0  0  0  0  0  0  0  0  0
  -27.7340  -15.2397   19.7880 O   0  0  0  0  0  0  0  0  0  0  0  0
  -27.0334  -19.9201   19.4354 O   0  0  0  0  0  0  0  0  0  0  0  0
  -23.4618  -31.7385   23.8708 O   0  0  0  0  0  0  0  0  0  0  0  0
  -33.2424  -25.8106   18.6544 O   0  0  0  0  0  0  0  0  0  0  0  0
  -20.3230  -19.3079   20.4086 O   0  0  0  0  0  0  0  0  0  1  0  0
  -34.8079  -20.7477   17.1311 F   0  0  0  0  0  0  0  0  0  0  0  0
  -34.3756  -25.3629   16.1729 F   0  0  0  0  0  0  0  0  0  0  0  0
  1  2  1  0  0  0  0
  1  5  2  0  0  0  0
  2  6  2  0  0  0  0
  3  8  2  0  0  0  0
  3 17  1  0  0  0  0
  4  9  1  0  0  0  0
  4 17  2  0  0  0  0
  5 19  1  0  0  0  0
  6 21  1  0  0  0  0
  7 10  2  0  0  0  0
  7 20  1  0  0  0  0
  8 24  1  0  0  0  0
  9 24  2  0  0  0  0
 10 25  1  0  0  0  0
 11 12  2  0  0  0  0
 11 26  1  0  0  0  0
 12 27  1  0  0  0  0
 13 22  1  0  0  0  0
 13 25  2  0  0  0  0
 14 27  2  0  0  0  0
 14 28  1  0  0  0  0
 15 23  1  0  0  0  0
 15 63  2  0  0  0  0
 16 23  2  0  0  0  0
 16 65  1  0  0  0  0
 17 29  1  0  0  0  0
 18 29  1  0  0  0  0
 18 30  2  0  0  0  0
 18 31  1  0  0  0  0
 19 21  2  0  0  0  0
 19 36  1  0  0  0  0
 20 22  2  0  0  0  0
 20 37  1  0  0  0  0
 21 45  1  0  0  0  0
 22 38  1  0  0  0  0
 23 54  1  0  0  0  0
 24 80  1  0  0  0  0
 25 81  1  0  0  0  0
 26 28  2  0  0  0  0
 26 80  1  0  0  0  0
 27 82  1  0  0  0  0
 28 83  1  0  0  0  0
 29 64  2  0  0  0  0
 30 66  1  0  0  0  0
 30 69  1  0  0  0  0
 31 70  1  0  0  0  0
 31 75  2  0  0  0  0
 32 46  1  0  0  0  0
 32 71  1  0  0  0  0
 32 76  2  0  0  0  0
 33 60  1  0  0  0  0
 33 67  1  0  0  0  0
 33 77  2  0  0  0  0
 34 61  1  0  0  0  0
 34 72  1  0  0  0  0
 34 78  2  0  0  0  0
 35 68  1  0  0  0  0
 35 73  1  0  0  0  0
 35 79  2  0  0  0  0
 36 39  1  0  0  0  0
 37 46  1  0  0  0  0
 38 67  1  0  0  0  0
 39 41  1  0  0  0  0
 40 42  1  0  0  0  0
 40 43  1  0  0  0  0
 41 45  1  0  0  0  0
 42 47  1  0  0  0  0
 43 68  1  0  0  0  0
 44 47  1  0  0  0  0
 44 68  1  0  0  0  0
 45 71  1  0  0  0  0
 46 67  1  0  0  0  0
 47 66  1  0  0  0  0
 48 61  1  0  0  0  0
 49 62  1  0  0  0  0
 50 62  1  0  0  0  0
 51 62  1  0  0  0  0
 52 73  1  0  0  0  0
 53 74  1  0  0  0  0
 54 55  1  0  0  0  0
 55 56  1  0  0  0  0
 56 59  1  0  0  0  0
 57 58  1  0  0  0  0
 57 65  1  0  0  0  0
 58 73  1  0  0  0  0
 59 81  1  0  0  0  0
 60 62  1  0  0  0  0
 60 72  1  0  0  0  0
 61 74  1  0  0  0  0
 63 65  1  0  0  0  0
 64 66  1  0  0  0  0
M  CHG  1  74   1
M  ISO  4  35 100  59 101  73 100  81 101
M  END
> <Batch ID>
0052

> <Smiles>
CNC(C)C(=O)NC(C(=O)N1Cc2cc([101O:1][101CH2:1]CCCc3cnn(CC[100N:0](C)[100C:0](=O)N4CCCC(n5nc(-c6ccc(Oc7ccc(F)cc7F)cc6)c(C(N)=O)c5N)C4)c3)ccc2CC1C(=O)NC1CCCc2ccccc21)C(C)(C)C

> <Shape>
0.235

> <Color>
0.058

> <Negative vol penalty>
0.000

$$$$

  -OEChem-04052317363D

 86 94  0     1  0  0  0  0  0999 V2000
  -28.7505  -23.9391   17.7024 C   0  0  0  0  0  0  0  0  0  0  0  0
  -27.5603  -24.6015   17.9807 C   0  0  0  0  0  0  0  0  0  0  0  0
  -24.0342  -13.4518   20.1530 C   0  0  0  0  0  0  0  0  0  0  0  0
  -26.2409  -13.4990   21.1355 C   0  0  0  0  0  0  0  0  0  0  0  0
  -29.8738  -24.1702   18.4935 C   0  0  0  0  0  0  0  0  0  0  0  0
  -27.4962  -25.5042   19.0427 C   0  0  0  0  0  0  0  0  0  0  0  0
  -23.3512  -28.1122   19.5123 C   0  0  0  0  0  0  0  0  0  0  0  0
  -24.1193  -12.0652   20.0284 C   0  0  0  0  0  0  0  0  0  0  0  0
  -26.3260  -12.1123   21.0110 C   0  0  0  0  0  0  0  0  0  0  0  0
  -22.1515  -27.5493   19.9451 C   0  0  0  0  0  0  0  0  0  0  0  0
  -23.6087   -8.4743   19.7831 C   0  0  0  0  0  0  0  0  0  0  0  0
  -22.4986   -7.7198   20.1625 C   0  0  0  0  0  0  0  0  0  0  0  0
  -22.4732  -28.5484   22.1171 C   0  0  0  0  0  0  0  0  0  0  0  0
  -21.4780  -22.6384   21.0580 C   0  0  0  0  0  0  0  0  0  0  0  0
  -23.4256  -23.5373   22.1459 C   0  0  0  0  0  0  0  0  0  0  0  0
  -22.6648   -8.6031   22.4052 C   0  0  0  0  0  0  0  0  0  0  0  0
  -25.0950  -14.1688   20.7065 C   0  0  0  0  0  0  0  0  0  0  0  0
  -24.0528  -16.3328   21.5659 C   0  0  0  0  0  0  0  0  0  0  0  0
  -29.8192  -25.0669   19.5733 C   0  0  0  0  0  0  0  0  0  0  0  0
  -24.1277  -28.8899   20.3834 C   0  0  0  0  0  0  0  0  0  0  0  0
  -28.6258  -25.7690   19.8381 C   0  0  0  0  0  0  0  0  0  0  0  0
  -23.6812  -29.1223   21.6921 C   0  0  0  0  0  0  0  0  0  0  0  0
  -25.2651  -11.3954   20.4574 C   0  0  0  0  0  0  0  0  0  0  0  0
  -21.7137  -27.7649   21.2486 C   0  0  0  0  0  0  0  0  0  0  0  0
  -24.2469   -9.2932   20.7147 C   0  0  0  0  0  0  0  0  0  0  0  0
  -22.0426  -23.4240   22.0566 C   0  0  0  0  0  0  0  0  0  0  0  0
  -22.0266   -7.7842   21.4735 C   0  0  0  0  0  0  0  0  0  0  0  0
  -23.7749   -9.3576   22.0257 C   0  0  0  0  0  0  0  0  0  0  0  0
  -25.0080  -15.6013   20.8349 C   0  0  0  0  0  0  0  0  0  0  0  0
  -22.3332  -21.9918   20.1802 C   0  0  0  0  0  0  0  0  0  0  0  0
  -24.1935  -22.8503   21.2196 C   0  0  0  0  0  0  0  0  0  0  0  0
  -24.4027  -17.6464   21.3698 C   0  0  0  0  0  0  0  0  0  0  0  0
  -22.9481  -15.8665   22.3519 C   0  0  0  0  0  0  0  0  0  0  0  0
  -27.0574  -28.6536   21.5937 C   0  0  0  0  0  0  0  0  0  0  0  0
  -26.3868  -31.6003   22.7725 C   0  0  0  0  0  0  0  0  0  0  0  0
  -24.0235  -33.8717   23.7226 C   0  0  0  0  0  0  0  0  0  0  0  0
  -28.6716  -21.4003   21.3323 C   0  0  0  0  0  0  0  0  0  0  0  0
  -31.0670  -25.2853   20.3921 C   0  0  0  0  0  0  0  0  0  0  0  0
  -25.4062  -29.5122   19.8930 C   0  0  0  0  0  0  0  0  0  0  0  0
  -24.4678  -29.9662   22.6603 C   0  0  0  0  0  0  0  0  0  0  0  0
  -30.7830  -25.9136   21.7525 C   0  0  0  0  0  0  0  0  0  0  0  0
  -27.6875  -19.7542   18.1663 C   0  0  0  0  0  0  0  0  0  0  0  0
  -29.8872  -27.1319   21.5856 C   0  0  0  0  0  0  0  0  0  0  0  0
  -26.8848  -18.5489   18.6531 C   0  0  0  0  0  0  0  0  0  0  0  0
  -28.7382  -20.1849   19.1852 C   0  0  0  0  0  0  0  0  0  0  0  0
  -27.3854  -19.2447   21.0292 C   0  0  0  0  0  0  0  0  0  0  0  0
  -28.5240  -26.7323   21.0069 C   0  0  1  0  0  0  0  0  0  0  0  0
  -26.3717  -29.8618   21.0212 C   0  0  1  0  0  0  0  0  0  0  0  0
  -26.2868  -18.8142   20.0457 C   0  0  2  0  0  0  0  0  0  0  0  0
  -21.5047  -21.9311   17.8145 C   0  0  0  0  0  0  0  0  0  0  0  0
  -23.0799  -36.0632   24.5001 C   0  0  0  0  0  0  0  0  0  0  0  0
  -27.1354  -30.5304   25.5301 C   0  0  0  0  0  0  0  0  0  0  0  0
  -25.9905  -32.5172   26.5351 C   0  0  0  0  0  0  0  0  0  0  0  0
  -27.9659  -32.8391   25.0462 C   0  0  0  0  0  0  0  0  0  0  0  0
  -28.2746  -23.0826   23.0907 C   0  0  0  0  0  0  0  0  0  0  0  0
  -23.8105  -34.8948   20.9537 C   0  0  0  0  0  0  0  0  0  0  0  0
  -21.7627  -21.1414   19.0948 C   0  0  0  0  0  0  0  0  0  0  0  0
  -25.6810  -22.9510   21.2842 C   0  0  0  0  0  0  0  0  0  0  0  0
  -19.4950  -25.7163   23.2466 C   0  0  0  0  0  0  0  0  0  0  0  0
  -26.3307  -21.8780   22.1656 C   0  0  0  0  0  0  0  0  0  0  0  0
  -20.4451  -26.8888   23.0593 C   0  0  0  0  0  0  0  0  0  1  0  0
  -19.9570  -24.4827   22.4869 C   0  0  0  0  0  0  0  0  0  0  0  0
  -25.7585  -32.1272   24.0400 C   0  0  1  0  0  0  0  0  0  0  0  0
  -23.8622  -35.3483   23.4093 C   0  0  2  0  0  0  0  0  0  0  0  0
  -26.6985  -31.9859   25.2705 C   0  0  0  0  0  0  0  0  0  0  0  0
  -25.8978  -16.3851   20.2201 N   0  0  0  0  0  0  0  0  0  0  0  0
  -23.6812  -22.0777   20.2355 N   0  0  0  0  0  0  0  0  0  0  0  0
  -25.5031  -17.6228   20.5644 N   0  0  0  0  0  0  0  0  0  0  0  0
  -25.7143  -30.5478   22.1355 N   0  0  0  0  0  0  0  0  0  0  0  0
  -28.1502  -20.3883   20.5097 N   0  0  0  0  0  0  0  0  0  0  0  0
  -23.8733  -18.8078   21.8095 N   0  0  0  0  0  0  0  0  0  0  0  0
  -23.1597  -15.6042   23.7124 N   0  0  0  0  0  0  0  0  0  0  0  0
  -27.7853  -27.9290   20.6693 N   0  0  0  0  0  0  0  0  0  0  0  0
  -25.3505  -33.4984   23.7541 N   0  0  0  0  0  0  0  0  0  0  0  0
  -27.7839  -22.0197   22.2250 N   0  0  0  0  0  0  0  0  0  0  0  0
  -23.1399  -35.5280   22.1182 N   0  3  0  0  0  0  0  0  0  0  0  0
  -21.8112  -15.6721   21.8588 O   0  0  0  0  0  0  0  0  0  0  0  0
  -26.9362  -28.3985   22.7862 O   0  0  0  0  0  0  0  0  0  0  0  0
  -27.4317  -32.1089   22.3588 O   0  0  0  0  0  0  0  0  0  0  0  0
  -23.0681  -33.1251   23.9232 O   0  0  0  0  0  0  0  0  0  0  0  0
  -29.8605  -21.7379   21.2655 O   0  0  0  0  0  0  0  0  0  0  0  0
  -25.3484  -10.0423   20.3363 O   0  0  0  0  0  0  0  0  0  0  0  0
  -20.5433  -27.2160   21.6738 O   0  0  0  0  0  0  0  0  0  1  0  0
  -21.2394  -24.0827   22.9508 O   0  0  0  0  0  0  0  0  0  0  0  0
  -20.9597   -7.0607   21.8374 F   0  0  0  0  0  0  0  0  0  0  0  0
  -24.3832  -10.1434   22.9248 F   0  0  0  0  0  0  0  0  0  0  0  0
  1  2  1  0  0  0  0
  1  5  2  0  0  0  0
  2  6  2  0  0  0  0
  3  8  2  0  0  0  0
  3 17  1  0  0  0  0
  4  9  1  0  0  0  0
  4 17  2  0  0  0  0
  5 19  1  0  0  0  0
  6 21  1  0  0  0  0
  7 10  2  0  0  0  0
  7 20  1  0  0  0  0
  8 23  1  0  0  0  0
  9 23  2  0  0  0  0
 10 24  1  0  0  0  0
 11 12  2  0  0  0  0
 11 25  1  0  0  0  0
 12 27  1  0  0  0  0
 13 22  1  0  0  0  0
 13 24  2  0  0  0  0
 14 26  2  0  0  0  0
 14 30  1  0  0  0  0
 15 26  1  0  0  0  0
 15 31  2  0  0  0  0
 16 27  2  0  0  0  0
 16 28  1  0  0  0  0
 17 29  1  0  0  0  0
 18 29  1  0  0  0  0
 18 32  2  0  0  0  0
 18 33  1  0  0  0  0
 19 21  2  0  0  0  0
 19 38  1  0  0  0  0
 20 22  2  0  0  0  0
 20 39  1  0  0  0  0
 21 47  1  0  0  0  0
 22 40  1  0  0  0  0
 23 82  1  0  0  0  0
 24 83  1  0  0  0  0
 25 28  2  0  0  0  0
 25 82  1  0  0  0  0
 26 84  1  0  0  0  0
 27 85  1  0  0  0  0
 28 86  1  0  0  0  0
 29 66  2  0  0  0  0
 30 57  1  0  0  0  0
 30 67  2  0  0  0  0
 31 58  1  0  0  0  0
 31 67  1  0  0  0  0
 32 68  1  0  0  0  0
 32 71  1  0  0  0  0
 33 72  1  0  0  0  0
 33 77  2  0  0  0  0
 34 48  1  0  0  0  0
 34 73  1  0  0  0  0
 34 78  2  0  0  0  0
 35 63  1  0  0  0  0
 35 69  1  0  0  0  0
 35 79  2  0  0  0  0
 36 64  1  0  0  0  0
 36 74  1  0  0  0  0
 36 80  2  0  0  0  0
 37 70  1  0  0  0  0
 37 75  1  0  0  0  0
 37 81  2  0  0  0  0
 38 41  1  0  0  0  0
 39 48  1  0  0  0  0
 40 69  1  0  0  0  0
 41 43  1  0  0  0  0
 42 44  1  0  0  0  0
 42 45  1  0  0  0  0
 43 47  1  0  0  0  0
 44 49  1  0  0  0  0
 45 70  1  0  0  0  0
 46 49  1  0  0  0  0
 46 70  1  0  0  0  0
 47 73  1  0  0  0  0
 48 69  1  0  0  0  0
 49 68  1  0  0  0  0
 50 57  1  0  0  0  0
 51 64  1  0  0  0  0
 52 65  1  0  0  0  0
 53 65  1  0  0  0  0
 54 65  1  0  0  0  0
 55 75  1  0  0  0  0
 56 76  1  0  0  0  0
 58 60  1  0  0  0  0
 59 61  1  0  0  0  0
 59 62  1  0  0  0  0
 60 75  1  0  0  0  0
 61 83  1  0  0  0  0
 62 84  1  0  0  0  0
 63 65  1  0  0  0  0
 63 74  1  0  0  0  0
 64 76  1  0  0  0  0
 66 68  1  0  0  0  0
M  CHG  1  76   1
M  ISO  4  37 100  61 101  75 100  83 101
M  END
> <Batch ID>
0052

> <Smiles>
CCc1cc(OCC[101CH2:1][101O:1]c2ccc3c(c2)CN(C(=O)C(NC(=O)C(C)NC)C(C)(C)C)C(C(=O)NC2CCCc4ccccc42)C3)cc(CC[100N:0](C)[100C:0](=O)N2CCCC(n3nc(-c4ccc(Oc5ccc(F)cc5F)cc4)c(C(N)=O)c3N)C2)n1

> <Shape>
0.302

> <Color>
0.081

> <Negative vol penalty>
0.000

$$$$

  -OEChem-04052317363D

 85 93  0     1  0  0  0  0  0999 V2000
  -29.9722  -25.2776   17.4369 C   0  0  0  0  0  0  0  0  0  0  0  0
  -28.5893  -25.4282   17.4593 C   0  0  0  0  0  0  0  0  0  0  0  0
  -23.4995  -13.7932   19.7696 C   0  0  0  0  0  0  0  0  0  0  0  0
  -24.7982  -13.8832   21.8050 C   0  0  0  0  0  0  0  0  0  0  0  0
  -30.7299  -25.6411   18.5494 C   0  0  0  0  0  0  0  0  0  0  0  0
  -27.9633  -25.9414   18.5947 C   0  0  0  0  0  0  0  0  0  0  0  0
  -22.9900  -29.5114   18.7602 C   0  0  0  0  0  0  0  0  0  0  0  0
  -24.4952  -13.0233   19.1684 C   0  0  0  0  0  0  0  0  0  0  0  0
  -25.7938  -13.1132   21.2037 C   0  0  0  0  0  0  0  0  0  0  0  0
  -21.6428  -29.2332   18.9868 C   0  0  0  0  0  0  0  0  0  0  0  0
  -28.3381  -13.5885   19.0285 C   0  0  0  0  0  0  0  0  0  0  0  0
  -29.6621  -13.9918   19.2011 C   0  0  0  0  0  0  0  0  0  0  0  0
  -21.9186  -29.8204   21.3102 C   0  0  0  0  0  0  0  0  0  0  0  0
  -30.1673  -11.8800   20.2605 C   0  0  0  0  0  0  0  0  0  0  0  0
  -19.4877  -24.6358   22.1648 C   0  0  0  0  0  0  0  0  0  0  0  0
  -23.6511  -14.2232   21.0879 C   0  0  0  0  0  0  0  0  0  0  0  0
  -21.5126  -14.5542   22.4388 C   0  0  0  0  0  0  0  0  0  0  0  0
  -30.1137  -26.1680   19.6955 C   0  0  0  0  0  0  0  0  0  0  0  0
  -23.8156  -29.9364   19.8110 C   0  0  0  0  0  0  0  0  0  0  0  0
  -28.7133  -26.3110   19.7241 C   0  0  0  0  0  0  0  0  0  0  0  0
  -23.2753  -30.1058   21.0938 C   0  0  0  0  0  0  0  0  0  0  0  0
  -25.6423  -12.6832   19.8854 C   0  0  0  0  0  0  0  0  0  0  0  0
  -21.1075  -29.3849   20.2626 C   0  0  0  0  0  0  0  0  0  0  0  0
  -27.9286  -12.3310   19.4719 C   0  0  0  0  0  0  0  0  0  0  0  0
  -30.5768  -13.1376   19.8171 C   0  0  0  0  0  0  0  0  0  0  0  0
  -28.8432  -11.4767   20.0879 C   0  0  0  0  0  0  0  0  0  0  0  0
  -22.6232  -15.0191   21.7094 C   0  0  0  0  0  0  0  0  0  0  0  0
  -19.6724  -25.6606   21.2630 C   0  0  0  0  0  0  0  0  0  0  0  0
  -21.9127  -25.2050   21.2041 C   0  0  0  0  0  0  0  0  0  0  0  0
  -21.7280  -24.1806   22.1064 C   0  0  0  0  0  0  0  0  0  0  0  0
  -20.8464  -15.6951   22.8144 C   0  0  0  0  0  0  0  0  0  0  0  0
  -21.1183  -13.2111   22.7492 C   0  0  0  0  0  0  0  0  0  0  0  0
  -26.4144  -28.7807   21.2302 C   0  0  0  0  0  0  0  0  0  0  0  0
  -26.3469  -31.6203   22.7968 C   0  0  0  0  0  0  0  0  0  0  0  0
  -24.5165  -34.2905   23.8769 C   0  0  0  0  0  0  0  0  0  0  0  0
  -22.5206  -21.1572   23.7988 C   0  0  0  0  0  0  0  0  0  0  0  0
  -30.9699  -26.5025   20.8912 C   0  0  0  0  0  0  0  0  0  0  0  0
  -25.2605  -30.2581   19.5445 C   0  0  0  0  0  0  0  0  0  0  0  0
  -24.1145  -30.5789   22.2516 C   0  0  0  0  0  0  0  0  0  0  0  0
  -30.2659  -27.3887   21.9156 C   0  0  0  0  0  0  0  0  0  0  0  0
  -20.0608  -20.2044   21.4507 C   0  0  0  0  0  0  0  0  0  0  0  0
  -28.8606  -26.8667   22.1970 C   0  0  0  0  0  0  0  0  0  0  0  0
  -20.3376  -18.7080   21.3128 C   0  0  0  0  0  0  0  0  0  0  0  0
  -21.3508  -21.0207   21.5506 C   0  0  0  0  0  0  0  0  0  0  0  0
  -22.5463  -19.0627   22.4779 C   0  0  0  0  0  0  0  0  0  0  0  0
  -28.0000  -26.8872   20.9279 C   0  0  1  0  0  0  0  0  0  0  0  0
  -26.1286  -30.1908   20.7972 C   0  0  1  0  0  0  0  0  0  0  0  0
  -21.2659  -18.2145   22.4360 C   0  0  2  0  0  0  0  0  0  0  0  0
  -23.2628  -25.5292   20.6621 C   0  0  0  0  0  0  0  0  0  0  0  0
  -23.8138  -24.3399   26.9037 C   0  0  0  0  0  0  0  0  0  0  0  0
  -24.7302  -36.4340   25.1641 C   0  0  0  0  0  0  0  0  0  0  0  0
  -26.4454  -30.0410   25.4056 C   0  0  0  0  0  0  0  0  0  0  0  0
  -25.7075  -32.1109   26.6053 C   0  0  0  0  0  0  0  0  0  0  0  0
  -27.8763  -32.0918   25.3730 C   0  0  0  0  0  0  0  0  0  0  0  0
  -23.6738  -35.9091   21.5469 C   0  0  0  0  0  0  0  0  0  0  0  0
  -18.5022  -26.4890   20.7961 C   0  0  0  0  0  0  0  0  0  0  0  0
  -22.8697  -23.3490   22.5827 C   0  0  0  0  0  0  0  0  0  0  0  0
  -23.8608  -23.5887   25.5804 C   0  0  0  0  0  0  0  0  0  0  0  0
  -18.2341  -27.7205   21.6639 C   0  0  0  0  0  0  0  0  0  0  0  0
  -22.4744  -23.3000   25.0173 C   0  0  0  0  0  0  0  0  0  0  0  0
  -19.4389  -28.6460   21.7876 C   0  0  0  0  0  0  0  0  0  1  0  0
  -25.7103  -32.1243   24.0694 C   0  0  1  0  0  0  0  0  0  0  0  0
  -24.7671  -35.7851   23.7892 C   0  0  2  0  0  0  0  0  0  0  0  0
  -26.4193  -31.5812   25.3421 C   0  0  0  0  0  0  0  0  0  0  0  0
  -20.5122  -23.8775   22.6027 N   0  0  0  0  0  0  0  0  0  0  0  0
  -22.6637  -16.3515   21.6252 N   0  0  0  0  0  0  0  0  0  0  0  0
  -20.8882  -25.9635   20.7664 N   0  0  0  0  0  0  0  0  0  0  0  0
  -21.5702  -16.7336   22.3066 N   0  0  0  0  0  0  0  0  0  0  0  0
  -25.5231  -30.8745   21.9418 N   0  0  0  0  0  0  0  0  0  0  0  0
  -22.2279  -20.4873   22.6018 N   0  0  0  0  0  0  0  0  0  0  0  0
  -19.7180  -15.9012   23.5261 N   0  0  0  0  0  0  0  0  0  0  0  0
  -21.9166  -12.1564   22.2857 N   0  0  0  0  0  0  0  0  0  0  0  0
  -27.5417  -28.2315   20.6498 N   0  0  0  0  0  0  0  0  0  0  0  0
  -25.6944  -33.5797   23.9693 N   0  0  0  0  0  0  0  0  0  0  0  0
  -22.5282  -22.5598   23.7645 N   0  0  0  0  0  0  0  0  0  0  0  0
  -23.7327  -36.4346   22.9352 N   0  3  0  0  0  0  0  0  0  0  0  0
  -20.0799  -12.9532   23.4039 O   0  0  0  0  0  0  0  0  0  0  0  0
  -25.6682  -28.2321   22.0327 O   0  0  0  0  0  0  0  0  0  0  0  0
  -27.5295  -31.8848   22.5662 O   0  0  0  0  0  0  0  0  0  0  0  0
  -23.3885  -33.8026   23.8683 O   0  0  0  0  0  0  0  0  0  0  0  0
  -22.7697  -20.5372   24.8407 O   0  0  0  0  0  0  0  0  0  0  0  0
  -26.6139  -11.9317   19.2991 O   0  0  0  0  0  0  0  0  0  0  0  0
  -19.7930  -29.1134   20.4866 O   0  0  0  0  0  0  0  0  0  1  0  0
  -31.8486  -13.5244   19.9814 F   0  0  0  0  0  0  0  0  0  0  0  0
  -28.4560  -10.2670   20.5149 F   0  0  0  0  0  0  0  0  0  0  0  0
  1  2  1  0  0  0  0
  1  5  2  0  0  0  0
  2  6  2  0  0  0  0
  3  8  2  0  0  0  0
  3 16  1  0  0  0  0
  4  9  1  0  0  0  0
  4 16  2  0  0  0  0
  5 18  1  0  0  0  0
  6 20  1  0  0  0  0
  7 10  2  0  0  0  0
  7 19  1  0  0  0  0
  8 22  1  0  0  0  0
  9 22  2  0  0  0  0
 10 23  1  0  0  0  0
 11 12  2  0  0  0  0
 11 24  1  0  0  0  0
 12 25  1  0  0  0  0
 13 21  1  0  0  0  0
 13 23  2  0  0  0  0
 14 25  2  0  0  0  0
 14 26  1  0  0  0  0
 15 28  1  0  0  0  0
 15 65  2  0  0  0  0
 16 27  1  0  0  0  0
 17 27  1  0  0  0  0
 17 31  2  0  0  0  0
 17 32  1  0  0  0  0
 18 20  2  0  0  0  0
 18 37  1  0  0  0  0
 19 21  2  0  0  0  0
 19 38  1  0  0  0  0
 20 46  1  0  0  0  0
 21 39  1  0  0  0  0
 22 82  1  0  0  0  0
 23 83  1  0  0  0  0
 24 26  2  0  0  0  0
 24 82  1  0  0  0  0
 25 84  1  0  0  0  0
 26 85  1  0  0  0  0
 27 66  2  0  0  0  0
 28 56  1  0  0  0  0
 28 67  2  0  0  0  0
 29 30  2  0  0  0  0
 29 49  1  0  0  0  0
 29 67  1  0  0  0  0
 30 57  1  0  0  0  0
 30 65  1  0  0  0  0
 31 68  1  0  0  0  0
 31 71  1  0  0  0  0
 32 72  1  0  0  0  0
 32 77  2  0  0  0  0
 33 47  1  0  0  0  0
 33 73  1  0  0  0  0
 33 78  2  0  0  0  0
 34 62  1  0  0  0  0
 34 69  1  0  0  0  0
 34 79  2  0  0  0  0
 35 63  1  0  0  0  0
 35 74  1  0  0  0  0
 35 80  2  0  0  0  0
 36 70  1  0  0  0  0
 36 75  1  0  0  0  0
 36 81  2  0  0  0  0
 37 40  1  0  0  0  0
 38 47  1  0  0  0  0
 39 69  1  0  0  0  0
 40 42  1  0  0  0  0
 41 43  1  0  0  0  0
 41 44  1  0  0  0  0
 42 46  1  0  0  0  0
 43 48  1  0  0  0  0
 44 70  1  0  0  0  0
 45 48  1  0  0  0  0
 45 70  1  0  0  0  0
 46 73  1  0  0  0  0
 47 69  1  0  0  0  0
 48 68  1  0  0  0  0
 50 58  1  0  0  0  0
 51 63  1  0  0  0  0
 52 64  1  0  0  0  0
 53 64  1  0  0  0  0
 54 64  1  0  0  0  0
 55 76  1  0  0  0  0
 56 59  1  0  0  0  0
 57 75  1  0  0  0  0
 58 60  1  0  0  0  0
 59 61  1  0  0  0  0
 60 75  1  0  0  0  0
 61 83  1  0  0  0  0
 62 64  1  0  0  0  0
 62 74  1  0  0  0  0
 63 76  1  0  0  0  0
 66 68  1  0  0  0  0
M  CHG  1  76   1
M  ISO  4  36 100  61 101  75 100  83 101
M  END
> <Batch ID>
0052

> <Smiles>
CCC[100N:0](Cc1ncc(CC[101CH2:1][101O:1]c2ccc3c(c2)CN(C(=O)C(NC(=O)C(C)NC)C(C)(C)C)C(C(=O)NC2CCCc4ccccc42)C3)nc1C)[100C:0](=O)N1CCCC(n2nc(-c3ccc(Oc4ccc(F)cc4F)cc3)c(C(N)=O)c2N)C1

> <Shape>
0.304

> <Color>
0.094

> <Negative vol penalty>
0.000

$$$$

  -OEChem-04052317363D

 86 94  0     1  0  0  0  0  0999 V2000
  -20.9459  -17.6666   17.5125 C   0  0  0  0  0  0  0  0  0  0  0  0
  -22.2073  -17.8820   18.0583 C   0  0  0  0  0  0  0  0  0  0  0  0
  -22.8531  -30.5298   20.3562 C   0  0  0  0  0  0  0  0  0  0  0  0
  -22.9186  -29.0651   22.2764 C   0  0  0  0  0  0  0  0  0  0  0  0
  -20.2229  -16.5261   17.8596 C   0  0  0  0  0  0  0  0  0  0  0  0
  -22.7460  -16.9575   18.9525 C   0  0  0  0  0  0  0  0  0  0  0  0
  -27.5993  -15.9007   17.9656 C   0  0  0  0  0  0  0  0  0  0  0  0
  -21.6629  -31.0880   20.8225 C   0  0  0  0  0  0  0  0  0  0  0  0
  -21.7284  -29.6233   22.7428 C   0  0  0  0  0  0  0  0  0  0  0  0
  -28.5499  -16.8363   18.3714 C   0  0  0  0  0  0  0  0  0  0  0  0
  -18.4232  -29.3509   22.0852 C   0  0  0  0  0  0  0  0  0  0  0  0
  -17.4384  -28.4804   22.5521 C   0  0  0  0  0  0  0  0  0  0  0  0
  -29.0363  -15.4906   20.3136 C   0  0  0  0  0  0  0  0  0  0  0  0
  -17.5315  -29.5390   24.7219 C   0  0  0  0  0  0  0  0  0  0  0  0
  -28.2916  -21.6322   21.8659 C   0  0  0  0  0  0  0  0  0  0  0  0
  -23.4809  -29.5183   21.0831 C   0  0  0  0  0  0  0  0  0  0  0  0
  -26.0200  -29.3714   20.8855 C   0  0  0  0  0  0  0  0  0  0  0  0
  -20.7571  -15.5824   18.7510 C   0  0  0  0  0  0  0  0  0  0  0  0
  -27.3518  -14.7565   18.7376 C   0  0  0  0  0  0  0  0  0  0  0  0
  -22.0289  -15.8040   19.3129 C   0  0  0  0  0  0  0  0  0  0  0  0
  -28.0838  -14.5408   19.9140 C   0  0  0  0  0  0  0  0  0  0  0  0
  -28.1254  -22.0297   20.5549 C   0  0  0  0  0  0  0  0  0  0  0  0
  -21.1005  -30.6348   22.0158 C   0  0  0  0  0  0  0  0  0  0  0  0
  -29.2665  -16.6328   19.5471 C   0  0  0  0  0  0  0  0  0  0  0  0
  -18.9622  -30.3154   22.9366 C   0  0  0  0  0  0  0  0  0  0  0  0
  -16.9925  -28.5745   23.8705 C   0  0  0  0  0  0  0  0  0  0  0  0
  -18.5163  -30.4095   24.2549 C   0  0  0  0  0  0  0  0  0  0  0  0
  -24.7101  -28.9410   20.6016 C   0  0  0  0  0  0  0  0  0  0  0  0
  -28.9330  -21.3968   19.6321 C   0  0  0  0  0  0  0  0  0  0  0  0
  -26.8253  -28.4997   20.1941 C   0  0  0  0  0  0  0  0  0  0  0  0
  -29.9040  -20.1473   21.2640 C   0  0  0  0  0  0  0  0  0  0  0  0
  -26.4687  -30.4618   21.7013 C   0  0  0  0  0  0  0  0  0  0  0  0
  -24.8282  -13.5957   20.2827 C   0  0  0  0  0  0  0  0  0  0  0  0
  -26.7768  -11.0450   20.7505 C   0  0  0  0  0  0  0  0  0  0  0  0
  -29.9590   -9.8283   20.9502 C   0  0  0  0  0  0  0  0  0  0  0  0
  -25.4683  -22.8904   18.2933 C   0  0  0  0  0  0  0  0  0  0  0  0
  -19.9183  -14.3884   19.1327 C   0  0  0  0  0  0  0  0  0  0  0  0
  -26.3421  -13.7435   18.2722 C   0  0  0  0  0  0  0  0  0  0  0  0
  -27.8702  -13.3187   20.7680 C   0  0  0  0  0  0  0  0  0  0  0  0
  -20.7171  -13.2705   19.7978 C   0  0  0  0  0  0  0  0  0  0  0  0
  -26.8917  -25.7243   16.3095 C   0  0  0  0  0  0  0  0  0  0  0  0
  -21.6383  -13.8391   20.8724 C   0  0  0  0  0  0  0  0  0  0  0  0
  -26.5328  -26.9128   17.2002 C   0  0  0  0  0  0  0  0  0  0  0  0
  -25.8872  -24.5899   16.4719 C   0  0  0  0  0  0  0  0  0  0  0  0
  -25.3631  -25.3090   18.7795 C   0  0  0  0  0  0  0  0  0  0  0  0
  -22.6575  -14.8118   20.2671 C   0  0  1  0  0  0  0  0  0  0  0  0
  -25.8067  -12.8704   19.4029 C   0  0  1  0  0  0  0  0  0  0  0  0
  -26.3627  -26.4718   18.6640 C   0  0  2  0  0  0  0  0  0  0  0  0
  -25.2436  -20.2564   20.2387 C   0  0  0  0  0  0  0  0  0  0  0  0
  -31.2350   -7.7110   21.3820 C   0  0  0  0  0  0  0  0  0  0  0  0
  -26.1924  -11.3042   23.7340 C   0  0  0  0  0  0  0  0  0  0  0  0
  -28.1722   -9.8374   24.1782 C   0  0  0  0  0  0  0  0  0  0  0  0
  -26.2342   -8.9542   22.8795 C   0  0  0  0  0  0  0  0  0  0  0  0
  -31.2048   -9.8946   18.2664 C   0  0  0  0  0  0  0  0  0  0  0  0
  -27.1349  -23.0735   20.1876 C   0  0  0  0  0  0  0  0  0  0  0  0
  -30.9034  -19.0885   21.6623 C   0  0  0  0  0  0  0  0  0  0  0  0
  -25.0698  -21.7480   20.4416 C   0  0  0  0  0  0  0  0  0  0  0  0
  -30.4110  -17.6796   21.3499 C   0  0  0  0  0  0  0  0  0  1  0  0
  -27.7784  -10.6443   21.8065 C   0  0  1  0  0  0  0  0  0  0  0  0
  -30.6125   -8.6092   20.3245 C   0  0  2  0  0  0  0  0  0  0  0  0
  -28.8404  -21.7457   18.1833 C   0  0  0  0  0  0  0  0  0  0  0  0
  -27.0972  -10.2091   23.1347 C   0  0  0  0  0  0  0  0  0  0  0  0
  -29.1748  -20.6904   22.2573 N   0  0  0  0  0  0  0  0  0  0  0  0
  -24.6804  -27.8784   19.7928 N   0  0  0  0  0  0  0  0  0  0  0  0
  -29.8367  -20.4477   19.9530 N   0  0  0  0  0  0  0  0  0  0  0  0
  -25.9817  -27.6340   19.5625 N   0  0  0  0  0  0  0  0  0  0  0  0
  -26.8675  -12.3605   20.2740 N   0  0  0  0  0  0  0  0  0  0  0  0
  -25.7219  -24.2091   17.8811 N   0  0  0  0  0  0  0  0  0  0  0  0
  -28.1657  -28.3969   20.0709 N   0  0  0  0  0  0  0  0  0  0  0  0
  -25.5081  -31.2576   22.3402 N   0  0  0  0  0  0  0  0  0  0  0  0
  -23.7232  -14.0842   19.6119 N   0  0  0  0  0  0  0  0  0  0  0  0
  -28.6200   -9.6172   21.2022 N   0  0  0  0  0  0  0  0  0  0  0  0
  -25.9385  -22.5159   19.5610 N   0  0  0  0  0  0  0  0  0  0  0  0
  -31.6813   -9.0255   19.3730 N   0  3  0  0  0  0  0  0  0  0  0  0
  -27.6850  -30.7326   21.8458 O   0  0  0  0  0  0  0  0  0  0  0  0
  -25.0578  -13.7028   21.4816 O   0  0  0  0  0  0  0  0  0  0  0  0
  -25.9492  -10.2190   20.3576 O   0  0  0  0  0  0  0  0  0  0  0  0
  -30.5758  -10.8629   21.1946 O   0  0  0  0  0  0  0  0  0  0  0  0
  -24.8479  -22.0970   17.5739 O   0  0  0  0  0  0  0  0  0  0  0  0
  -19.9393  -31.1794   22.4713 O   0  0  0  0  0  0  0  0  0  0  0  0
  -30.1945  -17.5447   19.9459 O   0  0  0  0  0  0  0  0  0  1  0  0
  -16.0457  -27.7395   24.3183 F   0  0  0  0  0  0  0  0  0  0  0  0
  -19.0295  -31.3348   25.0772 F   0  0  0  0  0  0  0  0  0  0  0  0
  -27.9123  -22.7097   17.9123 F   0  0  0  0  0  0  0  0  0  0  0  0
  -30.0097  -22.2183   17.6607 F   0  0  0  0  0  0  0  0  0  0  0  0
  -28.4969  -20.6768   17.4084 F   0  0  0  0  0  0  0  0  0  0  0  0
  1  2  1  0  0  0  0
  1  5  2  0  0  0  0
  2  6  2  0  0  0  0
  3  8  2  0  0  0  0
  3 16  1  0  0  0  0
  4  9  1  0  0  0  0
  4 16  2  0  0  0  0
  5 18  1  0  0  0  0
  6 20  1  0  0  0  0
  7 10  2  0  0  0  0
  7 19  1  0  0  0  0
  8 23  1  0  0  0  0
  9 23  2  0  0  0  0
 10 24  1  0  0  0  0
 11 12  2  0  0  0  0
 11 25  1  0  0  0  0
 12 26  1  0  0  0  0
 13 21  1  0  0  0  0
 13 24  2  0  0  0  0
 14 26  2  0  0  0  0
 14 27  1  0  0  0  0
 15 22  1  0  0  0  0
 15 63  2  0  0  0  0
 16 28  1  0  0  0  0
 17 28  1  0  0  0  0
 17 30  2  0  0  0  0
 17 32  1  0  0  0  0
 18 20  2  0  0  0  0
 18 37  1  0  0  0  0
 19 21  2  0  0  0  0
 19 38  1  0  0  0  0
 20 46  1  0  0  0  0
 21 39  1  0  0  0  0
 22 29  2  0  0  0  0
 22 55  1  0  0  0  0
 23 80  1  0  0  0  0
 24 81  1  0  0  0  0
 25 27  2  0  0  0  0
 25 80  1  0  0  0  0
 26 82  1  0  0  0  0
 27 83  1  0  0  0  0
 28 64  2  0  0  0  0
 29 61  1  0  0  0  0
 29 65  1  0  0  0  0
 30 66  1  0  0  0  0
 30 69  1  0  0  0  0
 31 56  1  0  0  0  0
 31 63  1  0  0  0  0
 31 65  2  0  0  0  0
 32 70  1  0  0  0  0
 32 75  2  0  0  0  0
 33 47  1  0  0  0  0
 33 71  1  0  0  0  0
 33 76  2  0  0  0  0
 34 59  1  0  0  0  0
 34 67  1  0  0  0  0
 34 77  2  0  0  0  0
 35 60  1  0  0  0  0
 35 72  1  0  0  0  0
 35 78  2  0  0  0  0
 36 68  1  0  0  0  0
 36 73  1  0  0  0  0
 36 79  2  0  0  0  0
 37 40  1  0  0  0  0
 38 47  1  0  0  0  0
 39 67  1  0  0  0  0
 40 42  1  0  0  0  0
 41 43  1  0  0  0  0
 41 44  1  0  0  0  0
 42 46  1  0  0  0  0
 43 48  1  0  0  0  0
 44 68  1  0  0  0  0
 45 48  1  0  0  0  0
 45 68  1  0  0  0  0
 46 71  1  0  0  0  0
 47 67  1  0  0  0  0
 48 66  1  0  0  0  0
 49 57  1  0  0  0  0
 50 60  1  0  0  0  0
 51 62  1  0  0  0  0
 52 62  1  0  0  0  0
 53 62  1  0  0  0  0
 54 74  1  0  0  0  0
 55 73  1  0  0  0  0
 56 58  1  0  0  0  0
 57 73  1  0  0  0  0
 58 81  1  0  0  0  0
 59 62  1  0  0  0  0
 59 72  1  0  0  0  0
 60 74  1  0  0  0  0
 61 84  1  0  0  0  0
 61 85  1  0  0  0  0
 61 86  1  0  0  0  0
 64 66  1  0  0  0  0
M  CHG  1  74   1
M  ISO  4  36 100  58 101  73 100  81 101
M  END
> <Batch ID>
0052

> <Smiles>
CC[100N:0](Cc1cnc(C[101CH2:1][101O:1]c2ccc3c(c2)CN(C(=O)C(NC(=O)C(C)NC)C(C)(C)C)C(C(=O)NC2CCCc4ccccc42)C3)nc1C(F)(F)F)[100C:0](=O)N1CCCC(n2nc(-c3ccc(Oc4ccc(F)cc4F)cc3)c(C(N)=O)c2N)C1

> <Shape>
0.241

> <Color>
0.074

> <Negative vol penalty>
0.000

$$$$

  -OEChem-04052317363D

 87 95  0     1  0  0  0  0  0999 V2000
  -28.2980  -21.8184   14.1374 C   0  0  0  0  0  0  0  0  0  0  0  0
  -27.2236  -22.6549   14.4226 C   0  0  0  0  0  0  0  0  0  0  0  0
  -26.7298  -12.8832   20.8518 C   0  0  0  0  0  0  0  0  0  0  0  0
  -25.8581  -13.8966   18.8393 C   0  0  0  0  0  0  0  0  0  0  0  0
  -29.1668  -21.4294   15.1561 C   0  0  0  0  0  0  0  0  0  0  0  0
  -27.0168  -23.1021   15.7271 C   0  0  0  0  0  0  0  0  0  0  0  0
  -24.5549  -28.7611   19.3645 C   0  0  0  0  0  0  0  0  0  0  0  0
  -26.0091  -11.7206   20.5786 C   0  0  0  0  0  0  0  0  0  0  0  0
  -25.1375  -12.7339   18.5659 C   0  0  0  0  0  0  0  0  0  0  0  0
  -23.6445  -29.0818   20.3705 C   0  0  0  0  0  0  0  0  0  0  0  0
  -24.1159   -8.6159   20.5976 C   0  0  0  0  0  0  0  0  0  0  0  0
  -23.4182   -8.0214   21.6490 C   0  0  0  0  0  0  0  0  0  0  0  0
  -25.2558  -28.4089   22.0349 C   0  0  0  0  0  0  0  0  0  0  0  0
  -22.1222  -10.0408   21.9309 C   0  0  0  0  0  0  0  0  0  0  0  0
  -19.3284  -27.9123   21.9470 C   0  0  0  0  0  0  0  0  0  0  0  0
  -26.6542  -13.9712   19.9822 C   0  0  0  0  0  0  0  0  0  0  0  0
  -28.7083  -15.4782   19.8503 C   0  0  0  0  0  0  0  0  0  0  0  0
  -28.9761  -21.8798   16.4719 C   0  0  0  0  0  0  0  0  0  0  0  0
  -25.8207  -28.2507   19.6863 C   0  0  0  0  0  0  0  0  0  0  0  0
  -27.8830  -22.7177   16.7646 C   0  0  0  0  0  0  0  0  0  0  0  0
  -26.1814  -28.0849   21.0312 C   0  0  0  0  0  0  0  0  0  0  0  0
  -25.2130  -11.6460   19.4356 C   0  0  0  0  0  0  0  0  0  0  0  0
  -23.9938  -28.9030   21.7058 C   0  0  0  0  0  0  0  0  0  0  0  0
  -23.8169   -9.9230   20.2130 C   0  0  0  0  0  0  0  0  0  0  0  0
  -22.4214   -8.7338   22.3156 C   0  0  0  0  0  0  0  0  0  0  0  0
  -22.8200  -10.6354   20.8796 C   0  0  0  0  0  0  0  0  0  0  0  0
  -27.3979  -15.1726   20.2642 C   0  0  0  0  0  0  0  0  0  0  0  0
  -18.9120  -26.6204   22.1819 C   0  0  0  0  0  0  0  0  0  0  0  0
  -20.7716  -27.7688   23.7150 C   0  0  0  0  0  0  0  0  0  0  0  0
  -20.3547  -26.4771   23.9505 C   0  0  0  0  0  0  0  0  0  0  0  0
  -28.9512  -16.7253   20.3720 C   0  0  0  0  0  0  0  0  0  0  0  0
  -29.6241  -14.7039   19.0644 C   0  0  0  0  0  0  0  0  0  0  0  0
  -27.3569  -25.5298   19.1030 C   0  0  0  0  0  0  0  0  0  0  0  0
  -29.8348  -27.0810   20.5089 C   0  0  0  0  0  0  0  0  0  0  0  0
  -30.8850  -29.5378   22.6321 C   0  0  0  0  0  0  0  0  0  0  0  0
  -25.3275  -21.1489   21.8401 C   0  0  0  0  0  0  0  0  0  0  0  0
  -29.9141  -21.3943   17.5485 C   0  0  0  0  0  0  0  0  0  0  0  0
  -26.8011  -27.9348   18.5902 C   0  0  0  0  0  0  0  0  0  0  0  0
  -27.5353  -27.5594   21.4301 C   0  0  0  0  0  0  0  0  0  0  0  0
  -29.8423  -22.2143   18.8341 C   0  0  0  0  0  0  0  0  0  0  0  0
  -27.7276  -19.5569   24.0316 C   0  0  0  0  0  0  0  0  0  0  0  0
  -28.3899  -22.4481   19.2377 C   0  0  0  0  0  0  0  0  0  0  0  0
  -28.0373  -18.2720   23.2613 C   0  0  0  0  0  0  0  0  0  0  0  0
  -26.2552  -19.9363   23.9045 C   0  0  0  0  0  0  0  0  0  0  0  0
  -26.0816  -18.7906   21.7295 C   0  0  0  0  0  0  0  0  0  0  0  0
  -27.6398  -23.2437   18.1626 C   0  0  1  0  0  0  0  0  0  0  0  0
  -27.8741  -26.9380   19.0173 C   0  0  1  0  0  0  0  0  0  0  0  0
  -27.5597  -18.3658   21.8000 C   0  0  2  0  0  0  0  0  0  0  0  0
  -17.8748  -25.9923   21.3184 C   0  0  0  0  0  0  0  0  0  0  0  0
  -32.9682  -30.5395   23.6089 C   0  0  0  0  0  0  0  0  0  0  0  0
  -30.0936  -24.6969   22.3955 C   0  0  0  0  0  0  0  0  0  0  0  0
  -31.4979  -26.1262   23.8967 C   0  0  0  0  0  0  0  0  0  0  0  0
  -32.2689  -25.6217   21.5785 C   0  0  0  0  0  0  0  0  0  0  0  0
  -30.3162  -32.1819   21.4305 C   0  0  0  0  0  0  0  0  0  0  0  0
  -20.4560  -22.3107   23.3343 C   0  0  0  0  0  0  0  0  0  0  0  0
  -21.8222  -28.4262   24.5766 C   0  0  0  0  0  0  0  0  0  0  0  0
  -20.9218  -25.6689   25.0672 C   0  0  0  0  0  0  0  0  0  0  0  0
  -23.0909  -23.5725   22.2190 C   0  0  0  0  0  0  0  0  0  0  0  0
  -24.6102  -23.5096   22.1043 C   0  0  0  0  0  0  0  0  0  0  0  0
  -20.6122  -24.1734   24.9795 C   0  0  0  0  0  0  0  0  0  0  0  0
  -22.6178  -23.5019   23.6653 C   0  0  0  0  0  0  0  0  0  0  0  0
  -23.1879  -28.4622   23.8995 C   0  0  0  0  0  0  0  0  0  1  0  0
  -30.3430  -27.2230   21.9233 C   0  0  1  0  0  0  0  0  0  0  0  0
  -31.9481  -30.6111   22.4833 C   0  0  2  0  0  0  0  0  0  0  0  0
  -31.0245  -25.9251   22.4413 C   0  0  0  0  0  0  0  0  0  0  0  0
  -20.2657  -28.5096   22.7092 N   0  0  0  0  0  0  0  0  0  0  0  0
  -26.8470  -16.1471   20.9929 N   0  0  0  0  0  0  0  0  0  0  0  0
  -19.4176  -25.8797   23.1880 N   0  0  0  0  0  0  0  0  0  0  0  0
  -27.8159  -17.0771   21.0410 N   0  0  0  0  0  0  0  0  0  0  0  0
  -28.4567  -27.2590   20.3218 N   0  0  0  0  0  0  0  0  0  0  0  0
  -25.8694  -20.0271   22.4893 N   0  0  0  0  0  0  0  0  0  0  0  0
  -30.0231  -17.5442   20.3193 N   0  0  0  0  0  0  0  0  0  0  0  0
  -29.2135  -13.4438   18.6086 N   0  0  0  0  0  0  0  0  0  0  0  0
  -27.9816  -24.6477   18.2422 N   0  0  0  0  0  0  0  0  0  0  0  0
  -31.2097  -28.3965   21.9297 N   0  0  0  0  0  0  0  0  0  0  0  0
  -25.1517  -22.2770   22.6321 N   0  0  0  0  0  0  0  0  0  0  0  0
  -31.3238  -31.9643   22.5002 N   0  3  0  0  0  0  0  0  0  0  0  0
  -21.1137  -23.6194   23.6977 N   0  3  1  0  0  0  0  0  0  0  0  0
  -30.7783  -15.1104   18.7887 O   0  0  0  0  0  0  0  0  0  0  0  0
  -26.4587  -25.2630   19.8928 O   0  0  0  0  0  0  0  0  0  0  0  0
  -30.6323  -26.8287   19.6022 O   0  0  0  0  0  0  0  0  0  0  0  0
  -29.8699  -29.6946   23.3071 O   0  0  0  0  0  0  0  0  0  0  0  0
  -25.0272  -21.1471   20.6414 O   0  0  0  0  0  0  0  0  0  0  0  0
  -24.5099  -10.5116   19.1685 O   0  0  0  0  0  0  0  0  0  0  0  0
  -23.1068  -29.2146   22.6897 O   0  0  0  0  0  0  0  0  0  1  0  0
  -21.7504   -8.1622   23.3242 F   0  0  0  0  0  0  0  0  0  0  0  0
  -22.5274  -11.8909   20.5138 F   0  0  0  0  0  0  0  0  0  0  0  0
  1  2  1  0  0  0  0
  1  5  2  0  0  0  0
  2  6  2  0  0  0  0
  3  8  2  0  0  0  0
  3 16  1  0  0  0  0
  4  9  1  0  0  0  0
  4 16  2  0  0  0  0
  5 18  1  0  0  0  0
  6 20  1  0  0  0  0
  7 10  2  0  0  0  0
  7 19  1  0  0  0  0
  8 22  1  0  0  0  0
  9 22  2  0  0  0  0
 10 23  1  0  0  0  0
 11 12  2  0  0  0  0
 11 24  1  0  0  0  0
 12 25  1  0  0  0  0
 13 21  1  0  0  0  0
 13 23  2  0  0  0  0
 14 25  2  0  0  0  0
 14 26  1  0  0  0  0
 15 28  1  0  0  0  0
 15 66  2  0  0  0  0
 16 27  1  0  0  0  0
 17 27  1  0  0  0  0
 17 31  2  0  0  0  0
 17 32  1  0  0  0  0
 18 20  2  0  0  0  0
 18 37  1  0  0  0  0
 19 21  2  0  0  0  0
 19 38  1  0  0  0  0
 20 46  1  0  0  0  0
 21 39  1  0  0  0  0
 22 84  1  0  0  0  0
 23 85  1  0  0  0  0
 24 26  2  0  0  0  0
 24 84  1  0  0  0  0
 25 86  1  0  0  0  0
 26 87  1  0  0  0  0
 27 67  2  0  0  0  0
 28 49  1  0  0  0  0
 28 68  2  0  0  0  0
 29 30  2  0  0  0  0
 29 56  1  0  0  0  0
 29 66  1  0  0  0  0
 30 57  1  0  0  0  0
 30 68  1  0  0  0  0
 31 69  1  0  0  0  0
 31 72  1  0  0  0  0
 32 73  1  0  0  0  0
 32 79  2  0  0  0  0
 33 47  1  0  0  0  0
 33 74  1  0  0  0  0
 33 80  2  0  0  0  0
 34 63  1  0  0  0  0
 34 70  1  0  0  0  0
 34 81  2  0  0  0  0
 35 64  1  0  0  0  0
 35 75  1  0  0  0  0
 35 82  2  0  0  0  0
 36 71  1  0  0  0  0
 36 76  1  0  0  0  0
 36 83  2  0  0  0  0
 37 40  1  0  0  0  0
 38 47  1  0  0  0  0
 39 70  1  0  0  0  0
 40 42  1  0  0  0  0
 41 43  1  0  0  0  0
 41 44  1  0  0  0  0
 42 46  1  0  0  0  0
 43 48  1  0  0  0  0
 44 71  1  0  0  0  0
 45 48  1  0  0  0  0
 45 71  1  0  0  0  0
 46 74  1  0  0  0  0
 47 70  1  0  0  0  0
 48 69  1  0  0  0  0
 50 64  1  0  0  0  0
 51 65  1  0  0  0  0
 52 65  1  0  0  0  0
 53 65  1  0  0  0  0
 54 77  1  0  0  0  0
 55 78  1  0  0  0  0
 56 62  1  0  0  0  0
 57 60  1  0  0  0  0
 58 59  1  0  0  0  0
 58 61  1  0  0  0  0
 59 76  1  0  0  0  0
 60 78  1  0  0  0  0
 61 78  1  0  0  0  0
 62 85  1  0  0  0  0
 63 65  1  0  0  0  0
 63 75  1  0  0  0  0
 64 77  1  0  0  0  0
 67 69  1  0  0  0  0
M  CHG  2  77   1  78   1
M  ISO  4  36 100  62 101  76 100  85 101
M  END
> <Batch ID>
0052

> <Smiles>
CNC(C)C(=O)NC(C(=O)N1Cc2cc([101O:1][101CH2:1]Cc3ncc(C)nc3CCN(C)CCC[100NH:0][100C:0](=O)N3CCCC(n4nc(-c5ccc(Oc6ccc(F)cc6F)cc5)c(C(N)=O)c4N)C3)ccc2CC1C(=O)NC1CCCc2ccccc21)C(C)(C)C

> <Shape>
0.226

> <Color>
0.070

> <Negative vol penalty>
0.000

$$$$

  -OEChem-04052317363D

 85 93  0     1  0  0  0  0  0999 V2000
  -19.6266  -33.7935   20.5206 C   0  0  0  0  0  0  0  0  0  0  0  0
  -20.8780  -33.2812   20.1934 C   0  0  0  0  0  0  0  0  0  0  0  0
  -25.9283  -14.6493   20.9531 C   0  0  0  0  0  0  0  0  0  0  0  0
  -26.0196  -14.6363   18.5389 C   0  0  0  0  0  0  0  0  0  0  0  0
  -18.9643  -33.3380   21.6598 C   0  0  0  0  0  0  0  0  0  0  0  0
  -21.4683  -32.3139   21.0060 C   0  0  0  0  0  0  0  0  0  0  0  0
  -25.0216  -27.6623   19.2050 C   0  0  0  0  0  0  0  0  0  0  0  0
  -24.9317  -13.6740   20.9207 C   0  0  0  0  0  0  0  0  0  0  0  0
  -25.0230  -13.6609   18.5064 C   0  0  0  0  0  0  0  0  0  0  0  0
  -26.4054  -27.4946   19.1789 C   0  0  0  0  0  0  0  0  0  0  0  0
  -24.7353  -10.3269   20.4829 C   0  0  0  0  0  0  0  0  0  0  0  0
  -24.8504   -9.2530   21.3655 C   0  0  0  0  0  0  0  0  0  0  0  0
  -26.3011  -26.3544   21.3021 C   0  0  0  0  0  0  0  0  0  0  0  0
  -22.7347   -9.8499   22.3678 C   0  0  0  0  0  0  0  0  0  0  0  0
  -31.5612  -21.3283   19.0859 C   0  0  0  0  0  0  0  0  0  0  0  0
  -26.4723  -15.1305   19.7622 C   0  0  0  0  0  0  0  0  0  0  0  0
  -28.8928  -15.9313   19.8485 C   0  0  0  0  0  0  0  0  0  0  0  0
  -19.5426  -32.3576   22.4814 C   0  0  0  0  0  0  0  0  0  0  0  0
  -24.2671  -27.1862   20.2869 C   0  0  0  0  0  0  0  0  0  0  0  0
  -20.8137  -31.8459   22.1580 C   0  0  0  0  0  0  0  0  0  0  0  0
  -24.9076  -26.5151   21.3383 C   0  0  0  0  0  0  0  0  0  0  0  0
  -24.4791  -13.1797   19.6974 C   0  0  0  0  0  0  0  0  0  0  0  0
  -27.0457  -26.8431   20.2289 C   0  0  0  0  0  0  0  0  0  0  0  0
  -23.6199  -11.1625   20.5428 C   0  0  0  0  0  0  0  0  0  0  0  0
  -23.8501   -9.0144   22.3079 C   0  0  0  0  0  0  0  0  0  0  0  0
  -22.6196  -10.9240   21.4852 C   0  0  0  0  0  0  0  0  0  0  0  0
  -27.5014  -16.1385   19.7950 C   0  0  0  0  0  0  0  0  0  0  0  0
  -29.4280  -17.1961   19.8611 C   0  0  0  0  0  0  0  0  0  0  0  0
  -31.8541  -23.1738   18.1555 C   0  0  0  0  0  0  0  0  0  0  0  0
  -29.6351  -14.7051   19.8836 C   0  0  0  0  0  0  0  0  0  0  0  0
  -22.4059  -28.5278   22.4868 C   0  0  0  0  0  0  0  0  0  0  0  0
  -21.7987  -25.4448   23.2922 C   0  0  0  0  0  0  0  0  0  0  0  0
  -27.3097  -22.4692   17.9067 C   0  0  0  0  0  0  0  0  0  0  0  0
  -22.8259  -22.1903   23.2776 C   0  0  0  0  0  0  0  0  0  0  0  0
  -18.8093  -31.9308   23.7284 C   0  0  0  0  0  0  0  0  0  0  0  0
  -22.7721  -27.3515   20.2872 C   0  0  0  0  0  0  0  0  0  0  0  0
  -24.1408  -25.9673   22.5133 C   0  0  0  0  0  0  0  0  0  0  0  0
  -19.3382  -30.6320   24.3315 C   0  0  0  0  0  0  0  0  0  0  0  0
  -28.4470  -21.6723   21.2099 C   0  0  0  0  0  0  0  0  0  0  0  0
  -20.8618  -30.6571   24.4009 C   0  0  0  0  0  0  0  0  0  0  0  0
  -28.4327  -20.1445   21.2357 C   0  0  0  0  0  0  0  0  0  0  0  0
  -27.3027  -22.2273   20.3675 C   0  0  0  0  0  0  0  0  0  0  0  0
  -27.2499  -20.1701   18.9939 C   0  0  0  0  0  0  0  0  0  0  0  0
  -21.4758  -30.7776   23.0009 C   0  0  1  0  0  0  0  0  0  0  0  0
  -22.1635  -27.2808   21.6843 C   0  0  1  0  0  0  0  0  0  0  0  0
  -28.4080  -19.5678   19.8091 C   0  0  2  0  0  0  0  0  0  0  0  0
  -26.6901  -22.6768   15.4981 C   0  0  0  0  0  0  0  0  0  0  0  0
  -22.1348  -19.9030   24.0445 C   0  0  0  0  0  0  0  0  0  0  0  0
  -22.5889  -26.1667   26.1495 C   0  0  0  0  0  0  0  0  0  0  0  0
  -22.8001  -23.7197   26.6353 C   0  0  0  0  0  0  0  0  0  0  0  0
  -20.5933  -24.6706   25.9654 C   0  0  0  0  0  0  0  0  0  0  0  0
  -22.7614  -21.1538   20.5063 C   0  0  0  0  0  0  0  0  0  0  0  0
  -28.7861  -20.3119   15.2039 C   0  0  0  0  0  0  0  0  0  0  0  0
  -32.1885  -24.5984   17.7911 C   0  0  0  0  0  0  0  0  0  0  0  0
  -30.9666  -25.5203   17.7122 C   0  0  0  0  0  0  0  0  0  0  0  0
  -30.2446  -25.6734   19.0517 C   0  0  0  0  0  0  0  0  0  0  0  0
  -30.9589  -22.5021   15.8945 C   0  0  0  0  0  0  0  0  0  0  0  0
  -29.4623  -22.6642   15.6632 C   0  0  0  0  0  0  0  0  0  0  0  0
  -29.0152  -26.5629   18.9256 C   0  0  0  0  0  0  0  0  0  1  0  0
  -22.4219  -24.4433   24.2343 C   0  0  1  0  0  0  0  0  0  0  0  0
  -27.3105  -21.7894   16.5606 C   0  0  1  0  0  0  0  0  0  0  0  0
  -22.1046  -20.9080   22.9035 C   0  0  2  0  0  0  0  0  0  0  0  0
  -22.1160  -24.7620   25.7251 C   0  0  0  0  0  0  0  0  0  0  0  0
  -32.0257  -22.5910   19.3193 N   0  0  0  0  0  0  0  0  0  0  0  0
  -31.1130  -21.0932   17.8508 N   0  0  0  0  0  0  0  0  0  0  0  0
  -27.1732  -17.4330   19.7751 N   0  0  0  0  0  0  0  0  0  0  0  0
  -28.3660  -18.0507   19.8164 N   0  0  0  0  0  0  0  0  0  0  0  0
  -31.3116  -22.2893   17.2763 N   0  0  0  0  0  0  0  0  0  0  0  0
  -22.6818  -26.1595   22.4706 N   0  0  0  0  0  0  0  0  0  0  0  0
  -27.3004  -21.6384   19.0272 N   0  0  0  0  0  0  0  0  0  0  0  0
  -30.6988  -17.6496   19.9059 N   0  0  0  0  0  0  0  0  0  0  0  0
  -28.9280  -13.4952   19.8641 N   0  0  0  0  0  0  0  0  0  0  0  0
  -21.4385  -29.5005   22.3211 N   0  0  0  0  0  0  0  0  0  0  0  0
  -21.9609  -23.1299   23.7973 N   0  0  0  0  0  0  0  0  0  0  0  0
  -22.7430  -20.2838   21.7103 N   0  3  0  0  0  0  0  0  0  0  0  0
  -28.7324  -21.4742   16.1650 N   0  3  1  0  0  0  0  0  0  0  0  0
  -30.8877  -14.6832   19.9474 O   0  0  0  0  0  0  0  0  0  0  0  0
  -23.3965  -28.6013   23.2045 O   0  0  0  0  0  0  0  0  0  0  0  0
  -20.5729  -25.5825   23.2805 O   0  0  0  0  0  0  0  0  0  0  0  0
  -27.3199  -23.7018   17.9586 O   0  0  0  0  0  0  0  0  0  0  0  0
  -24.0363  -22.3418   23.1275 O   0  0  0  0  0  0  0  0  0  0  0  0
  -23.5067  -12.2278   19.6654 O   0  0  0  0  0  0  0  0  0  0  0  0
  -28.3964  -26.6785   20.2063 O   0  0  0  0  0  0  0  0  0  1  0  0
  -23.9600   -7.9822   23.1543 F   0  0  0  0  0  0  0  0  0  0  0  0
  -21.5452  -11.7225   21.5468 F   0  0  0  0  0  0  0  0  0  0  0  0
  1  2  1  0  0  0  0
  1  5  2  0  0  0  0
  2  6  2  0  0  0  0
  3  8  2  0  0  0  0
  3 16  1  0  0  0  0
  4  9  1  0  0  0  0
  4 16  2  0  0  0  0
  5 18  1  0  0  0  0
  6 20  1  0  0  0  0
  7 10  2  0  0  0  0
  7 19  1  0  0  0  0
  8 22  1  0  0  0  0
  9 22  2  0  0  0  0
 10 23  1  0  0  0  0
 11 12  2  0  0  0  0
 11 24  1  0  0  0  0
 12 25  1  0  0  0  0
 13 21  1  0  0  0  0
 13 23  2  0  0  0  0
 14 25  2  0  0  0  0
 14 26  1  0  0  0  0
 15 64  1  0  0  0  0
 15 65  2  0  0  0  0
 16 27  1  0  0  0  0
 17 27  1  0  0  0  0
 17 28  2  0  0  0  0
 17 30  1  0  0  0  0
 18 20  2  0  0  0  0
 18 35  1  0  0  0  0
 19 21  2  0  0  0  0
 19 36  1  0  0  0  0
 20 44  1  0  0  0  0
 21 37  1  0  0  0  0
 22 82  1  0  0  0  0
 23 83  1  0  0  0  0
 24 26  2  0  0  0  0
 24 82  1  0  0  0  0
 25 84  1  0  0  0  0
 26 85  1  0  0  0  0
 27 66  2  0  0  0  0
 28 67  1  0  0  0  0
 28 71  1  0  0  0  0
 29 54  1  0  0  0  0
 29 64  2  0  0  0  0
 29 68  1  0  0  0  0
 30 72  1  0  0  0  0
 30 77  2  0  0  0  0
 31 45  1  0  0  0  0
 31 73  1  0  0  0  0
 31 78  2  0  0  0  0
 32 60  1  0  0  0  0
 32 69  1  0  0  0  0
 32 79  2  0  0  0  0
 33 61  1  0  0  0  0
 33 70  1  0  0  0  0
 33 80  2  0  0  0  0
 34 62  1  0  0  0  0
 34 74  1  0  0  0  0
 34 81  2  0  0  0  0
 35 38  1  0  0  0  0
 36 45  1  0  0  0  0
 37 69  1  0  0  0  0
 38 40  1  0  0  0  0
 39 41  1  0  0  0  0
 39 42  1  0  0  0  0
 40 44  1  0  0  0  0
 41 46  1  0  0  0  0
 42 70  1  0  0  0  0
 43 46  1  0  0  0  0
 43 70  1  0  0  0  0
 44 73  1  0  0  0  0
 45 69  1  0  0  0  0
 46 67  1  0  0  0  0
 47 61  1  0  0  0  0
 48 62  1  0  0  0  0
 49 63  1  0  0  0  0
 50 63  1  0  0  0  0
 51 63  1  0  0  0  0
 52 75  1  0  0  0  0
 53 76  1  0  0  0  0
 54 55  1  0  0  0  0
 55 56  1  0  0  0  0
 56 59  1  0  0  0  0
 57 58  1  0  0  0  0
 57 68  1  0  0  0  0
 58 76  1  0  0  0  0
 59 83  1  0  0  0  0
 60 63  1  0  0  0  0
 60 74  1  0  0  0  0
 61 76  1  0  0  0  0
 62 75  1  0  0  0  0
 65 68  1  0  0  0  0
 66 67  1  0  0  0  0
M  CHG  2  75   1  76   1
M  ISO  4  33 100  59 101  61 100  83 101
M  END
> <Batch ID>
0052

> <Smiles>
CNC(C)C(=O)NC(C(=O)N1Cc2cc([101O:1][101CH2:1]CCCc3ncnn3CCN(C)[100CH:0](C)[100C:0](=O)N3CCCC(n4nc(-c5ccc(Oc6ccc(F)cc6F)cc5)c(C(N)=O)c4N)C3)ccc2CC1C(=O)NC1CCCc2ccccc21)C(C)(C)C

> <Shape>
0.218

> <Color>
0.091

> <Negative vol penalty>
0.000

$$$$

  -OEChem-04052317363D

 83 91  0     1  0  0  0  0  0999 V2000
  -27.2019  -34.5282   24.2426 C   0  0  0  0  0  0  0  0  0  0  0  0
  -27.5151  -33.2501   23.7915 C   0  0  0  0  0  0  0  0  0  0  0  0
  -25.8172  -14.5275   21.6182 C   0  0  0  0  0  0  0  0  0  0  0  0
  -26.9404  -14.5525   19.4794 C   0  0  0  0  0  0  0  0  0  0  0  0
  -25.9747  -34.7671   24.8597 C   0  0  0  0  0  0  0  0  0  0  0  0
  -26.6017  -32.2097   23.9581 C   0  0  0  0  0  0  0  0  0  0  0  0
  -26.1114  -29.3693   19.7944 C   0  0  0  0  0  0  0  0  0  0  0  0
  -24.8358  -13.6869   21.0931 C   0  0  0  0  0  0  0  0  0  0  0  0
  -25.9591  -13.7118   18.9542 C   0  0  0  0  0  0  0  0  0  0  0  0
  -27.1156  -28.4368   19.5379 C   0  0  0  0  0  0  0  0  0  0  0  0
  -24.4965  -10.4012   20.3705 C   0  0  0  0  0  0  0  0  0  0  0  0
  -24.1053   -9.3035   21.1370 C   0  0  0  0  0  0  0  0  0  0  0  0
  -25.7186  -26.6918   20.4448 C   0  0  0  0  0  0  0  0  0  0  0  0
  -21.8401  -10.1425   21.1824 C   0  0  0  0  0  0  0  0  0  0  0  0
  -32.0466  -24.5344   19.2001 C   0  0  0  0  0  0  0  0  0  0  0  0
  -26.8695  -14.9603   20.8114 C   0  0  0  0  0  0  0  0  0  0  0  0
  -29.0846  -15.4467   21.9794 C   0  0  0  0  0  0  0  0  0  0  0  0
  -25.0418  -33.7313   25.0254 C   0  0  0  0  0  0  0  0  0  0  0  0
  -24.9055  -28.9711   20.3891 C   0  0  0  0  0  0  0  0  0  0  0  0
  -25.3614  -32.4347   24.5792 C   0  0  0  0  0  0  0  0  0  0  0  0
  -24.6997  -27.6207   20.7055 C   0  0  0  0  0  0  0  0  0  0  0  0
  -31.7121  -23.4566   18.4059 C   0  0  0  0  0  0  0  0  0  0  0  0
  -24.9067  -13.2790   19.7611 C   0  0  0  0  0  0  0  0  0  0  0  0
  -26.9205  -27.0983   19.8657 C   0  0  0  0  0  0  0  0  0  0  0  0
  -23.5596  -11.3696   20.0100 C   0  0  0  0  0  0  0  0  0  0  0  0
  -22.7771   -9.1741   21.5429 C   0  0  0  0  0  0  0  0  0  0  0  0
  -22.2314  -11.2403   20.4159 C   0  0  0  0  0  0  0  0  0  0  0  0
  -27.8832  -15.8292   21.3532 C   0  0  0  0  0  0  0  0  0  0  0  0
  -30.4604  -23.5071   17.8272 C   0  0  0  0  0  0  0  0  0  0  0  0
  -29.6918  -16.6332   22.3112 C   0  0  0  0  0  0  0  0  0  0  0  0
  -30.0368  -25.5178   18.7992 C   0  0  0  0  0  0  0  0  0  0  0  0
  -29.6052  -14.1361   22.2380 C   0  0  0  0  0  0  0  0  0  0  0  0
  -23.4030  -29.6719   23.1011 C   0  0  0  0  0  0  0  0  0  0  0  0
  -21.0452  -27.8572   21.8088 C   0  0  0  0  0  0  0  0  0  0  0  0
  -20.1552  -25.3886   19.6270 C   0  0  0  0  0  0  0  0  0  0  0  0
  -31.2029  -21.7991   21.1983 C   0  0  0  0  0  0  0  0  0  0  0  0
  -23.7476  -34.0275   25.7408 C   0  0  0  0  0  0  0  0  0  0  0  0
  -23.8217  -29.9847   20.6348 C   0  0  0  0  0  0  0  0  0  0  0  0
  -23.4152  -27.1386   21.3268 C   0  0  0  0  0  0  0  0  0  0  0  0
  -22.6821  -32.9524   25.5425 C   0  0  0  0  0  0  0  0  0  0  0  0
  -27.9344  -21.3668   22.2736 C   0  0  0  0  0  0  0  0  0  0  0  0
  -23.2806  -31.5640   25.7445 C   0  0  0  0  0  0  0  0  0  0  0  0
  -27.7143  -19.8574   22.1829 C   0  0  0  0  0  0  0  0  0  0  0  0
  -28.7318  -21.8735   21.0777 C   0  0  0  0  0  0  0  0  0  0  0  0
  -29.8528  -19.6837   20.8141 C   0  0  0  0  0  0  0  0  0  0  0  0
  -24.3867  -31.2856   24.7195 C   0  0  1  0  0  0  0  0  0  0  0  0
  -22.8346  -29.5540   21.7153 C   0  0  1  0  0  0  0  0  0  0  0  0
  -29.0503  -19.1155   22.0025 C   0  0  2  0  0  0  0  0  0  0  0  0
  -29.9904  -22.3960   16.9474 C   0  0  0  0  0  0  0  0  0  0  0  0
  -34.0181  -20.2509   21.8686 C   0  0  0  0  0  0  0  0  0  0  0  0
  -18.1602  -24.0975   18.8204 C   0  0  0  0  0  0  0  0  0  0  0  0
  -21.0713  -26.2150   24.3803 C   0  0  0  0  0  0  0  0  0  0  0  0
  -19.7945  -24.4321   23.1723 C   0  0  0  0  0  0  0  0  0  0  0  0
  -18.7911  -26.6961   23.4728 C   0  0  0  0  0  0  0  0  0  0  0  0
  -20.5036  -26.3587   16.8528 C   0  0  0  0  0  0  0  0  0  0  0  0
  -32.6560  -22.3280   18.2040 C   0  0  0  0  0  0  0  0  0  0  0  0
  -29.1009  -26.6699   19.0182 C   0  0  0  0  0  0  0  0  0  1  0  0
  -33.6472  -21.4970   21.0900 C   0  0  0  0  0  0  0  0  0  0  0  0
  -32.3278  -21.0862   19.0463 C   0  0  0  0  0  0  0  0  0  0  0  0
  -20.6906  -26.3900   21.8326 C   0  0  1  0  0  0  0  0  0  0  0  0
  -19.0482  -25.3106   18.5912 C   0  0  2  0  0  0  0  0  0  0  0  0
  -20.1119  -25.9424   23.2046 C   0  0  0  0  0  0  0  0  0  0  0  0
  -31.2303  -25.5860   19.4193 N   0  0  0  0  0  0  0  0  0  0  0  0
  -27.7341  -17.1550   21.2898 N   0  0  0  0  0  0  0  0  0  0  0  0
  -29.5937  -24.5261   18.0031 N   0  0  0  0  0  0  0  0  0  0  0  0
  -28.8498  -17.6160   21.8805 N   0  0  0  0  0  0  0  0  0  0  0  0
  -22.3882  -28.1688   21.5533 N   0  0  0  0  0  0  0  0  0  0  0  0
  -29.9915  -21.1433   20.9334 N   0  0  0  0  0  0  0  0  0  0  0  0
  -30.8583  -16.9213   22.9264 N   0  0  0  0  0  0  0  0  0  0  0  0
  -28.8529  -13.0259   21.8308 N   0  0  0  0  0  0  0  0  0  0  0  0
  -23.8121  -30.9490   23.4346 N   0  0  0  0  0  0  0  0  0  0  0  0
  -19.7925  -26.1688   20.7045 N   0  0  0  0  0  0  0  0  0  0  0  0
  -32.3312  -21.3780   20.4786 N   0  0  0  0  0  0  0  0  0  0  0  0
  -19.6266  -25.2175   17.2209 N   0  3  0  0  0  0  0  0  0  0  0  0
  -30.6973  -13.9546   22.8279 O   0  0  0  0  0  0  0  0  0  0  0  0
  -23.4645  -28.6782   23.8155 O   0  0  0  0  0  0  0  0  0  0  0  0
  -20.1619  -28.6961   22.0025 O   0  0  0  0  0  0  0  0  0  0  0  0
  -21.2324  -24.8117   19.4954 O   0  0  0  0  0  0  0  0  0  0  0  0
  -31.2724  -22.7161   22.0268 O   0  0  0  0  0  0  0  0  0  0  0  0
  -23.9494  -12.4585   19.2483 O   0  0  0  0  0  0  0  0  0  0  0  0
  -27.8993  -26.1862   19.6170 O   0  0  0  0  0  0  0  0  0  1  0  0
  -22.4012   -8.1191   22.2777 F   0  0  0  0  0  0  0  0  0  0  0  0
  -21.3265  -12.1668   20.0717 F   0  0  0  0  0  0  0  0  0  0  0  0
  1  2  1  0  0  0  0
  1  5  2  0  0  0  0
  2  6  2  0  0  0  0
  3  8  2  0  0  0  0
  3 16  1  0  0  0  0
  4  9  1  0  0  0  0
  4 16  2  0  0  0  0
  5 18  1  0  0  0  0
  6 20  1  0  0  0  0
  7 10  2  0  0  0  0
  7 19  1  0  0  0  0
  8 23  1  0  0  0  0
  9 23  2  0  0  0  0
 10 24  1  0  0  0  0
 11 12  2  0  0  0  0
 11 25  1  0  0  0  0
 12 26  1  0  0  0  0
 13 21  1  0  0  0  0
 13 24  2  0  0  0  0
 14 26  2  0  0  0  0
 14 27  1  0  0  0  0
 15 22  1  0  0  0  0
 15 63  2  0  0  0  0
 16 28  1  0  0  0  0
 17 28  1  0  0  0  0
 17 30  2  0  0  0  0
 17 32  1  0  0  0  0
 18 20  2  0  0  0  0
 18 37  1  0  0  0  0
 19 21  2  0  0  0  0
 19 38  1  0  0  0  0
 20 46  1  0  0  0  0
 21 39  1  0  0  0  0
 22 29  2  0  0  0  0
 22 56  1  0  0  0  0
 23 80  1  0  0  0  0
 24 81  1  0  0  0  0
 25 27  2  0  0  0  0
 25 80  1  0  0  0  0
 26 82  1  0  0  0  0
 27 83  1  0  0  0  0
 28 64  2  0  0  0  0
 29 49  1  0  0  0  0
 29 65  1  0  0  0  0
 30 66  1  0  0  0  0
 30 69  1  0  0  0  0
 31 57  1  0  0  0  0
 31 63  1  0  0  0  0
 31 65  2  0  0  0  0
 32 70  1  0  0  0  0
 32 75  2  0  0  0  0
 33 47  1  0  0  0  0
 33 71  1  0  0  0  0
 33 76  2  0  0  0  0
 34 60  1  0  0  0  0
 34 67  1  0  0  0  0
 34 77  2  0  0  0  0
 35 61  1  0  0  0  0
 35 72  1  0  0  0  0
 35 78  2  0  0  0  0
 36 68  1  0  0  0  0
 36 73  1  0  0  0  0
 36 79  2  0  0  0  0
 37 40  1  0  0  0  0
 38 47  1  0  0  0  0
 39 67  1  0  0  0  0
 40 42  1  0  0  0  0
 41 43  1  0  0  0  0
 41 44  1  0  0  0  0
 42 46  1  0  0  0  0
 43 48  1  0  0  0  0
 44 68  1  0  0  0  0
 45 48  1  0  0  0  0
 45 68  1  0  0  0  0
 46 71  1  0  0  0  0
 47 67  1  0  0  0  0
 48 66  1  0  0  0  0
 50 58  1  0  0  0  0
 51 61  1  0  0  0  0
 52 62  1  0  0  0  0
 53 62  1  0  0  0  0
 54 62  1  0  0  0  0
 55 74  1  0  0  0  0
 56 59  1  0  0  0  0
 57 81  1  0  0  0  0
 58 73  1  0  0  0  0
 59 73  1  0  0  0  0
 60 62  1  0  0  0  0
 60 72  1  0  0  0  0
 61 74  1  0  0  0  0
 64 66  1  0  0  0  0
M  CHG  1  74   1
M  ISO  4  36 100  57 101  73 100  81 101
M  END
> <Batch ID>
0052

> <Smiles>
CC[100N:0](CCc1cnc([101CH2:1][101O:1]c2ccc3c(c2)CN(C(=O)C(NC(=O)C(C)NC)C(C)(C)C)C(C(=O)NC2CCCc4ccccc42)C3)nc1C)[100C:0](=O)N1CCCC(n2nc(-c3ccc(Oc4ccc(F)cc4F)cc3)c(C(N)=O)c2N)C1

> <Shape>
0.311

> <Color>
0.065

> <Negative vol penalty>
0.000

$$$$

  -OEChem-04052317363D

 82 90  0     1  0  0  0  0  0999 V2000
  -29.7346  -35.7973   20.5593 C   0  0  0  0  0  0  0  0  0  0  0  0
  -30.0940  -34.5707   20.0102 C   0  0  0  0  0  0  0  0  0  0  0  0
  -22.9279  -10.3349   20.8873 C   0  0  0  0  0  0  0  0  0  0  0  0
  -24.6209   -9.0221   22.0043 C   0  0  0  0  0  0  0  0  0  0  0  0
  -28.9115  -35.8421   21.6838 C   0  0  0  0  0  0  0  0  0  0  0  0
  -29.6314  -33.3879   20.5860 C   0  0  0  0  0  0  0  0  0  0  0  0
  -27.6515  -26.7292   18.8374 C   0  0  0  0  0  0  0  0  0  0  0  0
  -22.0974   -9.2158   20.8307 C   0  0  0  0  0  0  0  0  0  0  0  0
  -23.7903   -7.9029   21.9477 C   0  0  0  0  0  0  0  0  0  0  0  0
  -27.9132  -25.4030   19.1788 C   0  0  0  0  0  0  0  0  0  0  0  0
  -21.1147   -6.7013   23.6264 C   0  0  0  0  0  0  0  0  0  0  0  0
  -20.9980   -5.9239   24.7786 C   0  0  0  0  0  0  0  0  0  0  0  0
  -26.4322  -25.6046   21.0723 C   0  0  0  0  0  0  0  0  0  0  0  0
  -21.8560   -4.0123   23.5758 C   0  0  0  0  0  0  0  0  0  0  0  0
  -28.0799  -19.2130   20.1035 C   0  0  0  0  0  0  0  0  0  0  0  0
  -29.4287  -19.9768   21.8510 C   0  0  0  0  0  0  0  0  0  0  0  0
  -24.1897  -10.2381   21.4741 C   0  0  0  0  0  0  0  0  0  0  0  0
  -25.1141  -12.3529   22.5606 C   0  0  0  0  0  0  0  0  0  0  0  0
  -28.4307  -34.6596   22.2679 C   0  0  0  0  0  0  0  0  0  0  0  0
  -26.7853  -27.5076   19.6184 C   0  0  0  0  0  0  0  0  0  0  0  0
  -28.8022  -33.4168   21.7201 C   0  0  0  0  0  0  0  0  0  0  0  0
  -26.1592  -26.9396   20.7372 C   0  0  0  0  0  0  0  0  0  0  0  0
  -28.8178  -18.9073   21.2288 C   0  0  0  0  0  0  0  0  0  0  0  0
  -22.5285   -7.9998   21.3609 C   0  0  0  0  0  0  0  0  0  0  0  0
  -27.3058  -24.8414   20.2981 C   0  0  0  0  0  0  0  0  0  0  0  0
  -21.6021   -6.1342   22.4489 C   0  0  0  0  0  0  0  0  0  0  0  0
  -21.3686   -4.5794   24.7533 C   0  0  0  0  0  0  0  0  0  0  0  0
  -21.9727   -4.7897   22.4236 C   0  0  0  0  0  0  0  0  0  0  0  0
  -25.0484  -11.3937   21.5324 C   0  0  0  0  0  0  0  0  0  0  0  0
  -26.0775  -13.2384   22.1431 C   0  0  0  0  0  0  0  0  0  0  0  0
  -28.5857  -21.4196   20.3099 C   0  0  0  0  0  0  0  0  0  0  0  0
  -24.3709  -12.4361   23.7839 C   0  0  0  0  0  0  0  0  0  0  0  0
  -27.0903  -30.1650   21.3357 C   0  0  0  0  0  0  0  0  0  0  0  0
  -23.8748  -29.8697   21.6452 C   0  0  0  0  0  0  0  0  0  0  0  0
  -21.1352  -27.8352   21.6058 C   0  0  0  0  0  0  0  0  0  0  0  0
  -31.3004  -13.7949   19.9684 C   0  0  0  0  0  0  0  0  0  0  0  0
  -27.5820  -34.7568   23.5108 C   0  0  0  0  0  0  0  0  0  0  0  0
  -26.4926  -28.9286   19.2214 C   0  0  0  0  0  0  0  0  0  0  0  0
  -25.2055  -27.7267   21.5970 C   0  0  0  0  0  0  0  0  0  0  0  0
  -26.8294  -33.4693   23.8367 C   0  0  0  0  0  0  0  0  0  0  0  0
  -28.3884  -13.7558   17.6836 C   0  0  0  0  0  0  0  0  0  0  0  0
  -27.7595  -32.2651   23.7281 C   0  0  0  0  0  0  0  0  0  0  0  0
  -27.2898  -13.1485   18.5545 C   0  0  0  0  0  0  0  0  0  0  0  0
  -29.7743  -13.2728   18.1002 C   0  0  0  0  0  0  0  0  0  0  0  0
  -28.9828  -12.8857   20.4106 C   0  0  0  0  0  0  0  0  0  0  0  0
  -28.3004  -32.1128   22.3013 C   0  0  1  0  0  0  0  0  0  0  0  0
  -25.9933  -29.7827   20.3827 C   0  0  1  0  0  0  0  0  0  0  0  0
  -27.5775  -13.3881   20.0468 C   0  0  2  0  0  0  0  0  0  0  0  0
  -18.6472  -27.8748   21.9310 C   0  0  0  0  0  0  0  0  0  0  0  0
  -24.2748  -30.0490   24.6648 C   0  0  0  0  0  0  0  0  0  0  0  0
  -21.9577  -29.1462   24.9552 C   0  0  0  0  0  0  0  0  0  0  0  0
  -22.3086  -31.3266   23.7952 C   0  0  0  0  0  0  0  0  0  0  0  0
  -32.7294  -14.9612   21.6046 C   0  0  0  0  0  0  0  0  0  0  0  0
  -20.6422  -26.9072   18.8391 C   0  0  0  0  0  0  0  0  0  0  0  0
  -28.9476  -17.5192   21.7346 C   0  0  0  0  0  0  0  0  0  0  0  0
  -28.4592  -22.8233   19.7952 C   0  0  0  0  0  0  0  0  0  1  0  0
  -30.1424  -16.7292   21.1554 C   0  0  0  0  0  0  0  0  0  0  0  0
  -30.2911  -15.3177   21.7191 C   0  0  0  0  0  0  0  0  0  0  0  0
  -22.9537  -29.1813   22.6233 C   0  0  1  0  0  0  0  0  0  0  0  0
  -19.7848  -27.9770   20.9269 C   0  0  2  0  0  0  0  0  0  0  0  0
  -22.8931  -29.9113   23.9947 C   0  0  0  0  0  0  0  0  0  0  0  0
  -27.9420  -20.4628   19.6143 N   0  0  0  0  0  0  0  0  0  0  0  0
  -29.3336  -21.2508   21.4170 N   0  0  0  0  0  0  0  0  0  0  0  0
  -25.9019  -11.6460   20.5364 N   0  0  0  0  0  0  0  0  0  0  0  0
  -26.5130  -12.7740   20.9369 N   0  0  0  0  0  0  0  0  0  0  0  0
  -24.9565  -29.1139   21.1713 N   0  0  0  0  0  0  0  0  0  0  0  0
  -30.0050  -13.4728   19.5313 N   0  0  0  0  0  0  0  0  0  0  0  0
  -26.5860  -14.3612   22.6937 N   0  0  0  0  0  0  0  0  0  0  0  0
  -23.4200  -11.4433   24.0567 N   0  0  0  0  0  0  0  0  0  0  0  0
  -27.2957  -31.5275   21.4397 N   0  0  0  0  0  0  0  0  0  0  0  0
  -21.6635  -29.0605   21.9531 N   0  0  0  0  0  0  0  0  0  0  0  0
  -31.4077  -14.5910   21.1188 N   0  0  0  0  0  0  0  0  0  0  0  0
  -19.6052  -26.9094   19.9029 N   0  3  0  0  0  0  0  0  0  0  0  0
  -24.5333  -13.3722   24.6029 O   0  0  0  0  0  0  0  0  0  0  0  0
  -27.7039  -29.2888   21.9335 O   0  0  0  0  0  0  0  0  0  0  0  0
  -23.6392  -31.0327   21.3084 O   0  0  0  0  0  0  0  0  0  0  0  0
  -21.6664  -26.7460   21.8111 O   0  0  0  0  0  0  0  0  0  0  0  0
  -32.3035  -13.4017   19.3594 O   0  0  0  0  0  0  0  0  0  0  0  0
  -21.7182   -6.9076   21.3060 O   0  0  0  0  0  0  0  0  0  0  0  0
  -27.5600  -23.5474   20.6339 O   0  0  0  0  0  0  0  0  0  1  0  0
  -21.2579   -3.8334   25.8603 F   0  0  0  0  0  0  0  0  0  0  0  0
  -22.4427   -4.2397   21.2956 F   0  0  0  0  0  0  0  0  0  0  0  0
  1  2  1  0  0  0  0
  1  5  2  0  0  0  0
  2  6  2  0  0  0  0
  3  8  2  0  0  0  0
  3 17  1  0  0  0  0
  4  9  1  0  0  0  0
  4 17  2  0  0  0  0
  5 19  1  0  0  0  0
  6 21  1  0  0  0  0
  7 10  2  0  0  0  0
  7 20  1  0  0  0  0
  8 24  1  0  0  0  0
  9 24  2  0  0  0  0
 10 25  1  0  0  0  0
 11 12  2  0  0  0  0
 11 26  1  0  0  0  0
 12 27  1  0  0  0  0
 13 22  1  0  0  0  0
 13 25  2  0  0  0  0
 14 27  2  0  0  0  0
 14 28  1  0  0  0  0
 15 23  1  0  0  0  0
 15 62  2  0  0  0  0
 16 23  2  0  0  0  0
 16 63  1  0  0  0  0
 17 29  1  0  0  0  0
 18 29  1  0  0  0  0
 18 30  2  0  0  0  0
 18 32  1  0  0  0  0
 19 21  2  0  0  0  0
 19 37  1  0  0  0  0
 20 22  2  0  0  0  0
 20 38  1  0  0  0  0
 21 46  1  0  0  0  0
 22 39  1  0  0  0  0
 23 55  1  0  0  0  0
 24 79  1  0  0  0  0
 25 80  1  0  0  0  0
 26 28  2  0  0  0  0
 26 79  1  0  0  0  0
 27 81  1  0  0  0  0
 28 82  1  0  0  0  0
 29 64  2  0  0  0  0
 30 65  1  0  0  0  0
 30 68  1  0  0  0  0
 31 56  1  0  0  0  0
 31 62  1  0  0  0  0
 31 63  2  0  0  0  0
 32 69  1  0  0  0  0
 32 74  2  0  0  0  0
 33 47  1  0  0  0  0
 33 70  1  0  0  0  0
 33 75  2  0  0  0  0
 34 59  1  0  0  0  0
 34 66  1  0  0  0  0
 34 76  2  0  0  0  0
 35 60  1  0  0  0  0
 35 71  1  0  0  0  0
 35 77  2  0  0  0  0
 36 67  1  0  0  0  0
 36 72  1  0  0  0  0
 36 78  2  0  0  0  0
 37 40  1  0  0  0  0
 38 47  1  0  0  0  0
 39 66  1  0  0  0  0
 40 42  1  0  0  0  0
 41 43  1  0  0  0  0
 41 44  1  0  0  0  0
 42 46  1  0  0  0  0
 43 48  1  0  0  0  0
 44 67  1  0  0  0  0
 45 48  1  0  0  0  0
 45 67  1  0  0  0  0
 46 70  1  0  0  0  0
 47 66  1  0  0  0  0
 48 65  1  0  0  0  0
 49 60  1  0  0  0  0
 50 61  1  0  0  0  0
 51 61  1  0  0  0  0
 52 61  1  0  0  0  0
 53 72  1  0  0  0  0
 54 73  1  0  0  0  0
 55 57  1  0  0  0  0
 56 80  1  0  0  0  0
 57 58  1  0  0  0  0
 58 72  1  0  0  0  0
 59 61  1  0  0  0  0
 59 71  1  0  0  0  0
 60 73  1  0  0  0  0
 64 65  1  0  0  0  0
M  CHG  1  73   1
M  ISO  4  36 100  56 101  72 100  80 101
M  END
> <Batch ID>
0052

> <Smiles>
CNC(C)C(=O)NC(C(=O)N1Cc2cc([101O:1][101CH2:1]c3ncc(CCC[100N:0](C)[100C:0](=O)N4CCCC(n5nc(-c6ccc(Oc7ccc(F)cc7F)cc6)c(C(N)=O)c5N)C4)cn3)ccc2CC1C(=O)NC1CCCc2ccccc21)C(C)(C)C

> <Shape>
0.350

> <Color>
0.135

> <Negative vol penalty>
0.000

$$$$

  -OEChem-04052317363D

 88 96  0     1  0  0  0  0  0999 V2000
  -33.5166  -33.9866   17.7409 C   0  0  0  0  0  0  0  0  0  0  0  0
  -33.0298  -32.7017   17.5235 C   0  0  0  0  0  0  0  0  0  0  0  0
  -22.4944  -15.2332   20.2332 C   0  0  0  0  0  0  0  0  0  0  0  0
  -23.4291  -17.0310   21.5490 C   0  0  0  0  0  0  0  0  0  0  0  0
  -33.3407  -34.5967   18.9822 C   0  0  0  0  0  0  0  0  0  0  0  0
  -32.3678  -32.0255   18.5478 C   0  0  0  0  0  0  0  0  0  0  0  0
  -27.6814  -28.1275   17.9576 C   0  0  0  0  0  0  0  0  0  0  0  0
  -21.2750  -15.3840   20.8933 C   0  0  0  0  0  0  0  0  0  0  0  0
  -22.2096  -17.1819   22.2091 C   0  0  0  0  0  0  0  0  0  0  0  0
  -27.6170  -26.7350   17.9321 C   0  0  0  0  0  0  0  0  0  0  0  0
  -18.6130  -17.4648   20.7636 C   0  0  0  0  0  0  0  0  0  0  0  0
  -17.4524  -17.4629   19.9899 C   0  0  0  0  0  0  0  0  0  0  0  0
  -27.0945  -26.7221   20.2871 C   0  0  0  0  0  0  0  0  0  0  0  0
  -16.6463  -15.5358   21.2039 C   0  0  0  0  0  0  0  0  0  0  0  0
  -23.5715  -16.0567   20.5611 C   0  0  0  0  0  0  0  0  0  0  0  0
  -25.2463  -16.5486   18.7008 C   0  0  0  0  0  0  0  0  0  0  0  0
  -32.6678  -33.9315   20.0191 C   0  0  0  0  0  0  0  0  0  0  0  0
  -27.4631  -28.8284   19.1524 C   0  0  0  0  0  0  0  0  0  0  0  0
  -32.1840  -32.6268   19.8045 C   0  0  0  0  0  0  0  0  0  0  0  0
  -27.1541  -28.1236   20.3246 C   0  0  0  0  0  0  0  0  0  0  0  0
  -29.2723  -19.4605   21.7507 C   0  0  0  0  0  0  0  0  0  0  0  0
  -21.1325  -16.3583   21.8812 C   0  0  0  0  0  0  0  0  0  0  0  0
  -27.3264  -26.0319   19.0976 C   0  0  0  0  0  0  0  0  0  0  0  0
  -18.7902  -16.5022   21.7575 C   0  0  0  0  0  0  0  0  0  0  0  0
  -16.4691  -16.4984   20.2100 C   0  0  0  0  0  0  0  0  0  0  0  0
  -17.8069  -15.5378   21.9776 C   0  0  0  0  0  0  0  0  0  0  0  0
  -24.8317  -15.9010   19.8799 C   0  0  0  0  0  0  0  0  0  0  0  0
  -29.1370  -20.4265   20.7745 C   0  0  0  0  0  0  0  0  0  0  0  0
  -29.7546  -18.2410   21.3210 C   0  0  0  0  0  0  0  0  0  0  0  0
  -26.5099  -16.0629   18.4685 C   0  0  0  0  0  0  0  0  0  0  0  0
  -29.9062  -18.9975   19.1829 C   0  0  0  0  0  0  0  0  0  0  0  0
  -24.5515  -17.5039   17.8882 C   0  0  0  0  0  0  0  0  0  0  0  0
  -29.2103  -30.7670   20.9670 C   0  0  0  0  0  0  0  0  0  0  0  0
  -26.4272  -31.1128   22.5971 C   0  0  0  0  0  0  0  0  0  0  0  0
  -23.3786  -29.8252   23.4307 C   0  0  0  0  0  0  0  0  0  0  0  0
  -30.4164  -13.5483   22.4628 C   0  0  0  0  0  0  0  0  0  0  0  0
  -32.5434  -34.6133   21.3586 C   0  0  0  0  0  0  0  0  0  0  0  0
  -27.5097  -30.3318   19.1574 C   0  0  0  0  0  0  0  0  0  0  0  0
  -26.8916  -28.8299   21.6287 C   0  0  0  0  0  0  0  0  0  0  0  0
  -31.5017  -33.9740   22.2732 C   0  0  0  0  0  0  0  0  0  0  0  0
  -29.2522  -12.2203   19.2097 C   0  0  0  0  0  0  0  0  0  0  0  0
  -31.6589  -32.4568   22.2827 C   0  0  0  0  0  0  0  0  0  0  0  0
  -27.9799  -13.0273   18.9566 C   0  0  0  0  0  0  0  0  0  0  0  0
  -29.5361  -12.0617   20.7003 C   0  0  0  0  0  0  0  0  0  0  0  0
  -28.3177  -14.1568   21.1906 C   0  0  0  0  0  0  0  0  0  0  0  0
  -31.4387  -31.8706   20.8829 C   0  0  1  0  0  0  0  0  0  0  0  0
  -27.7773  -30.9166   20.5408 C   0  0  1  0  0  0  0  0  0  0  0  0
  -28.0283  -14.3747   19.6979 C   0  0  2  0  0  0  0  0  0  0  0  0
  -27.5825  -19.0991   23.5674 C   0  0  0  0  0  0  0  0  0  0  0  0
  -31.7687  -18.7669   17.5202 C   0  0  0  0  0  0  0  0  0  0  0  0
  -33.2551  -14.9489   23.3310 C   0  0  0  0  0  0  0  0  0  0  0  0
  -21.3421  -30.3196   24.8110 C   0  0  0  0  0  0  0  0  0  0  0  0
  -27.9581  -30.3511   25.1243 C   0  0  0  0  0  0  0  0  0  0  0  0
  -25.7592  -29.9366   26.2475 C   0  0  0  0  0  0  0  0  0  0  0  0
  -26.3233  -32.2207   25.4185 C   0  0  0  0  0  0  0  0  0  0  0  0
  -21.6239  -29.8371   21.0475 C   0  0  0  0  0  0  0  0  0  0  0  0
  -28.9228  -19.7180   23.1735 C   0  0  0  0  0  0  0  0  0  0  0  0
  -28.6196  -21.7987   21.1251 C   0  0  0  0  0  0  0  0  0  0  0  0
  -29.9422  -17.1182   22.2875 C   0  0  0  0  0  0  0  0  0  0  0  0
  -30.2608  -18.7412   17.7574 C   0  0  0  0  0  0  0  0  0  0  0  0
  -28.2187  -22.6352   19.9081 C   0  0  0  0  0  0  0  0  0  0  0  0
  -31.8131  -15.1035   23.7705 C   0  0  0  0  0  0  0  0  0  0  0  0
  -30.7413  -15.9432   21.7134 C   0  0  0  0  0  0  0  0  0  0  0  0
  -27.6175  -23.9868   20.2759 C   0  0  0  0  0  0  0  0  0  1  0  0
  -25.7703  -30.3996   23.7542 C   0  0  1  0  0  0  0  0  0  0  0  0
  -21.9926  -30.4443   23.4421 C   0  0  2  0  0  0  0  0  0  0  0  0
  -26.4595  -30.7133   25.1121 C   0  0  0  0  0  0  0  0  0  0  0  0
  -25.7567  -15.0673   20.3629 N   0  0  0  0  0  0  0  0  0  0  0  0
  -29.4456  -20.2285   19.4761 N   0  0  0  0  0  0  0  0  0  0  0  0
  -30.0826  -17.9738   20.0399 N   0  0  0  0  0  0  0  0  0  0  0  0
  -26.7652  -15.1877   19.4829 N   0  0  0  0  0  0  0  0  0  0  0  0
  -26.9550  -30.3001   21.5838 N   0  0  0  0  0  0  0  0  0  0  0  0
  -29.5336  -13.3533   21.3879 N   0  0  0  0  0  0  0  0  0  0  0  0
  -27.4164  -16.3033   17.4974 N   0  0  0  0  0  0  0  0  0  0  0  0
  -23.2609  -17.8937   18.2711 N   0  0  0  0  0  0  0  0  0  0  0  0
  -30.0256  -31.8119   20.5761 N   0  0  0  0  0  0  0  0  0  0  0  0
  -24.3568  -30.7576   23.7048 N   0  0  0  0  0  0  0  0  0  0  0  0
  -30.8868  -14.8530   22.6755 N   0  0  0  0  0  0  0  0  0  0  0  0
  -21.1164  -29.7711   22.4422 N   0  3  0  0  0  0  0  0  0  0  0  0
  -25.0537  -17.9850   16.8442 O   0  0  0  0  0  0  0  0  0  0  0  0
  -29.5508  -29.7775   21.6047 O   0  0  0  0  0  0  0  0  0  0  0  0
  -26.4643  -32.3458   22.5891 O   0  0  0  0  0  0  0  0  0  0  0  0
  -23.5737  -28.6329   23.2052 O   0  0  0  0  0  0  0  0  0  0  0  0
  -30.7717  -12.6081   23.1850 O   0  0  0  0  0  0  0  0  0  0  0  0
  -19.9426  -16.5060   22.5254 O   0  0  0  0  0  0  0  0  0  0  0  0
  -27.2637  -24.6727   19.0757 O   0  0  0  0  0  0  0  0  0  1  0  0
  -15.3540  -16.4976   19.4679 F   0  0  0  0  0  0  0  0  0  0  0  0
  -17.9710  -14.6112   22.9317 F   0  0  0  0  0  0  0  0  0  0  0  0
  1  2  1  0  0  0  0
  1  5  2  0  0  0  0
  2  6  2  0  0  0  0
  3  8  2  0  0  0  0
  3 15  1  0  0  0  0
  4  9  1  0  0  0  0
  4 15  2  0  0  0  0
  5 17  1  0  0  0  0
  6 19  1  0  0  0  0
  7 10  2  0  0  0  0
  7 18  1  0  0  0  0
  8 22  1  0  0  0  0
  9 22  2  0  0  0  0
 10 23  1  0  0  0  0
 11 12  2  0  0  0  0
 11 24  1  0  0  0  0
 12 25  1  0  0  0  0
 13 20  1  0  0  0  0
 13 23  2  0  0  0  0
 14 25  2  0  0  0  0
 14 26  1  0  0  0  0
 15 27  1  0  0  0  0
 16 27  1  0  0  0  0
 16 30  2  0  0  0  0
 16 32  1  0  0  0  0
 17 19  2  0  0  0  0
 17 37  1  0  0  0  0
 18 20  2  0  0  0  0
 18 38  1  0  0  0  0
 19 46  1  0  0  0  0
 20 39  1  0  0  0  0
 21 28  2  0  0  0  0
 21 29  1  0  0  0  0
 21 57  1  0  0  0  0
 22 85  1  0  0  0  0
 23 86  1  0  0  0  0
 24 26  2  0  0  0  0
 24 85  1  0  0  0  0
 25 87  1  0  0  0  0
 26 88  1  0  0  0  0
 27 68  2  0  0  0  0
 28 58  1  0  0  0  0
 28 69  1  0  0  0  0
 29 59  1  0  0  0  0
 29 70  2  0  0  0  0
 30 71  1  0  0  0  0
 30 74  1  0  0  0  0
 31 60  1  0  0  0  0
 31 69  2  0  0  0  0
 31 70  1  0  0  0  0
 32 75  1  0  0  0  0
 32 80  2  0  0  0  0
 33 47  1  0  0  0  0
 33 76  1  0  0  0  0
 33 81  2  0  0  0  0
 34 65  1  0  0  0  0
 34 72  1  0  0  0  0
 34 82  2  0  0  0  0
 35 66  1  0  0  0  0
 35 77  1  0  0  0  0
 35 83  2  0  0  0  0
 36 73  1  0  0  0  0
 36 78  1  0  0  0  0
 36 84  2  0  0  0  0
 37 40  1  0  0  0  0
 38 47  1  0  0  0  0
 39 72  1  0  0  0  0
 40 42  1  0  0  0  0
 41 43  1  0  0  0  0
 41 44  1  0  0  0  0
 42 46  1  0  0  0  0
 43 48  1  0  0  0  0
 44 73  1  0  0  0  0
 45 48  1  0  0  0  0
 45 73  1  0  0  0  0
 46 76  1  0  0  0  0
 47 72  1  0  0  0  0
 48 71  1  0  0  0  0
 49 57  1  0  0  0  0
 50 60  1  0  0  0  0
 51 62  1  0  0  0  0
 52 66  1  0  0  0  0
 53 67  1  0  0  0  0
 54 67  1  0  0  0  0
 55 67  1  0  0  0  0
 56 79  1  0  0  0  0
 58 61  1  0  0  0  0
 59 63  1  0  0  0  0
 61 64  1  0  0  0  0
 62 78  1  0  0  0  0
 63 78  1  0  0  0  0
 64 86  1  0  0  0  0
 65 67  1  0  0  0  0
 65 77  1  0  0  0  0
 66 79  1  0  0  0  0
 68 71  1  0  0  0  0
M  CHG  1  79   1
M  ISO  4  36 100  64 101  78 100  86 101
M  END
> <Batch ID>
0052

> <Smiles>
CCc1nc(CC[100N:0](CC)[100C:0](=O)N2CCCC(n3nc(-c4ccc(Oc5ccc(F)cc5F)cc4)c(C(N)=O)c3N)C2)c(CC)c(CC[101CH2:1][101O:1]c2ccc3c(c2)CN(C(=O)C(NC(=O)C(C)NC)C(C)(C)C)C(C(=O)NC2CCCc4ccccc42)C3)n1

> <Shape>
0.221

> <Color>
0.106

> <Negative vol penalty>
0.000

$$$$

  -OEChem-04052317363D

 84 92  0     1  0  0  0  0  0999 V2000
  -17.1420  -14.3788   23.8947 C   0  0  0  0  0  0  0  0  0  0  0  0
  -18.0983  -15.3887   23.8626 C   0  0  0  0  0  0  0  0  0  0  0  0
  -23.0746   -9.8687   19.9422 C   0  0  0  0  0  0  0  0  0  0  0  0
  -23.8389   -9.8751   22.2341 C   0  0  0  0  0  0  0  0  0  0  0  0
  -16.8220  -13.7615   25.1032 C   0  0  0  0  0  0  0  0  0  0  0  0
  -18.7345  -15.7826   25.0392 C   0  0  0  0  0  0  0  0  0  0  0  0
  -23.7345  -16.3323   24.4541 C   0  0  0  0  0  0  0  0  0  0  0  0
  -22.3319   -8.7150   20.1930 C   0  0  0  0  0  0  0  0  0  0  0  0
  -23.0961   -8.7214   22.4850 C   0  0  0  0  0  0  0  0  0  0  0  0
  -24.1784  -17.4985   23.8322 C   0  0  0  0  0  0  0  0  0  0  0  0
  -21.1154   -5.9824   23.8241 C   0  0  0  0  0  0  0  0  0  0  0  0
  -20.3615   -5.9378   24.9967 C   0  0  0  0  0  0  0  0  0  0  0  0
  -24.7002  -18.4432   25.9896 C   0  0  0  0  0  0  0  0  0  0  0  0
  -19.1143   -7.8747   24.2685 C   0  0  0  0  0  0  0  0  0  0  0  0
  -29.3285  -18.9293   22.3222 C   0  0  0  0  0  0  0  0  0  0  0  0
  -23.8281  -10.4488   20.9628 C   0  0  0  0  0  0  0  0  0  0  0  0
  -24.1682  -12.9742   20.8433 C   0  0  0  0  0  0  0  0  0  0  0  0
  -17.4616  -14.1414   26.2937 C   0  0  0  0  0  0  0  0  0  0  0  0
  -23.7600  -16.2168   25.8514 C   0  0  0  0  0  0  0  0  0  0  0  0
  -18.4218  -15.1707   26.2650 C   0  0  0  0  0  0  0  0  0  0  0  0
  -24.2585  -17.2735   26.6267 C   0  0  0  0  0  0  0  0  0  0  0  0
  -29.9607  -17.7754   22.7164 C   0  0  0  0  0  0  0  0  0  0  0  0
  -22.3426   -8.1413   21.4644 C   0  0  0  0  0  0  0  0  0  0  0  0
  -24.6586  -18.5553   24.6001 C   0  0  0  0  0  0  0  0  0  0  0  0
  -20.8689   -6.9732   22.8737 C   0  0  0  0  0  0  0  0  0  0  0  0
  -19.3609   -6.8839   25.2189 C   0  0  0  0  0  0  0  0  0  0  0  0
  -19.8684   -7.9193   23.0959 C   0  0  0  0  0  0  0  0  0  0  0  0
  -24.5960  -11.6402   20.7041 C   0  0  0  0  0  0  0  0  0  0  0  0
  -29.6131  -17.6296   24.0728 C   0  0  0  0  0  0  0  0  0  0  0  0
  -25.2592  -13.7245   20.4783 C   0  0  0  0  0  0  0  0  0  0  0  0
  -22.8982  -13.4890   21.2649 C   0  0  0  0  0  0  0  0  0  0  0  0
  -21.5600  -15.8072   28.1088 C   0  0  0  0  0  0  0  0  0  0  0  0
  -24.1521  -15.5569   30.0429 C   0  0  0  0  0  0  0  0  0  0  0  0
  -27.4426  -16.2814   30.5858 C   0  0  0  0  0  0  0  0  0  0  0  0
  -30.7427  -14.7467   20.6566 C   0  0  0  0  0  0  0  0  0  0  0  0
  -17.0483  -13.4778   27.5835 C   0  0  0  0  0  0  0  0  0  0  0  0
  -23.3026  -14.9419   26.5054 C   0  0  0  0  0  0  0  0  0  0  0  0
  -24.3257  -17.1917   28.1291 C   0  0  0  0  0  0  0  0  0  0  0  0
  -18.0384  -13.6953   28.7249 C   0  0  0  0  0  0  0  0  0  0  0  0
  -29.6019  -12.3627   18.2709 C   0  0  0  0  0  0  0  0  0  0  0  0
  -18.4482  -15.1625   28.8037 C   0  0  0  0  0  0  0  0  0  0  0  0
  -28.1655  -12.0679   18.7064 C   0  0  0  0  0  0  0  0  0  0  0  0
  -30.5213  -12.5835   19.4701 C   0  0  0  0  0  0  0  0  0  0  0  0
  -28.6217  -13.3128   20.8607 C   0  0  0  0  0  0  0  0  0  0  0  0
  -19.1516  -15.6088   27.5163 C   0  0  1  0  0  0  0  0  0  0  0  0
  -22.8940  -15.1314   27.9631 C   0  0  1  0  0  0  0  0  0  0  0  0
  -27.6454  -13.1381   19.6848 C   0  0  2  0  0  0  0  0  0  0  0  0
  -29.2745  -15.9759   32.2735 C   0  0  0  0  0  0  0  0  0  0  0  0
  -22.9062  -17.7300   31.7850 C   0  0  0  0  0  0  0  0  0  0  0  0
  -25.1418  -18.0475   32.8664 C   0  0  0  0  0  0  0  0  0  0  0  0
  -23.9669  -15.8551   33.0553 C   0  0  0  0  0  0  0  0  0  0  0  0
  -29.1107  -14.7605   28.6719 C   0  0  0  0  0  0  0  0  0  0  0  0
  -30.8096  -16.8967   21.8944 C   0  0  0  0  0  0  0  0  0  0  0  0
  -26.6803  -20.6692   22.4844 C   0  0  0  0  0  0  0  0  0  0  0  0
  -27.8196  -20.6314   23.5054 C   0  0  0  0  0  0  0  0  0  0  0  0
  -25.6494  -19.5652   22.6885 C   0  0  0  0  0  0  0  0  0  1  0  0
  -24.9874  -16.5277   30.8421 C   0  0  1  0  0  0  0  0  0  0  0  0
  -28.6055  -15.4123   31.0295 C   0  0  2  0  0  0  0  0  0  0  0  0
  -30.0178  -16.5571   24.9985 C   0  0  0  0  0  0  0  0  0  0  0  0
  -24.2476  -17.0427   32.1090 C   0  0  0  0  0  0  0  0  0  0  0  0
  -25.8601  -11.5454   20.2834 N   0  0  0  0  0  0  0  0  0  0  0  0
  -28.8217  -18.6123   24.5109 N   0  0  0  0  0  0  0  0  0  0  0  0
  -28.6668  -19.3868   23.4236 N   0  0  0  0  0  0  0  0  0  0  0  0
  -26.2360  -12.8292   20.1549 N   0  0  0  0  0  0  0  0  0  0  0  0
  -23.8610  -15.9269   28.7222 N   0  0  0  0  0  0  0  0  0  0  0  0
  -29.9718  -13.6113   20.3576 N   0  0  0  0  0  0  0  0  0  0  0  0
  -25.4687  -15.0561   20.4055 N   0  0  0  0  0  0  0  0  0  0  0  0
  -21.8875  -12.5791   21.6037 N   0  0  0  0  0  0  0  0  0  0  0  0
  -20.5190  -15.1351   27.4972 N   0  0  0  0  0  0  0  0  0  0  0  0
  -26.2479  -15.8483   31.1211 N   0  0  0  0  0  0  0  0  0  0  0  0
  -30.1446  -15.6748   21.5002 N   0  0  0  0  0  0  0  0  0  0  0  0
  -29.6261  -15.3208   29.9475 N   0  3  0  0  0  0  0  0  0  0  0  0
  -22.6614  -14.7195   21.3233 O   0  0  0  0  0  0  0  0  0  0  0  0
  -21.4808  -16.8598   28.7314 O   0  0  0  0  0  0  0  0  0  0  0  0
  -23.7780  -14.5056   30.5686 O   0  0  0  0  0  0  0  0  0  0  0  0
  -27.5808  -17.2500   29.8420 O   0  0  0  0  0  0  0  0  0  0  0  0
  -31.8777  -14.9231   20.2009 O   0  0  0  0  0  0  0  0  0  0  0  0
  -21.6178   -7.0157   21.7096 O   0  0  0  0  0  0  0  0  0  0  0  0
  -25.0919  -19.6949   23.9957 O   0  0  0  0  0  0  0  0  0  1  0  0
  -18.6359   -6.8400   26.3444 F   0  0  0  0  0  0  0  0  0  0  0  0
  -19.6261   -8.8728   22.1859 F   0  0  0  0  0  0  0  0  0  0  0  0
  -30.8309  -15.6029   24.4376 F   0  0  0  0  0  0  0  0  0  0  0  0
  -30.7151  -16.9934   26.0981 F   0  0  0  0  0  0  0  0  0  0  0  0
  -28.9575  -15.8546   25.5127 F   0  0  0  0  0  0  0  0  0  0  0  0
  1  2  1  0  0  0  0
  1  5  2  0  0  0  0
  2  6  2  0  0  0  0
  3  8  2  0  0  0  0
  3 16  1  0  0  0  0
  4  9  1  0  0  0  0
  4 16  2  0  0  0  0
  5 18  1  0  0  0  0
  6 20  1  0  0  0  0
  7 10  2  0  0  0  0
  7 19  1  0  0  0  0
  8 23  1  0  0  0  0
  9 23  2  0  0  0  0
 10 24  1  0  0  0  0
 11 12  2  0  0  0  0
 11 25  1  0  0  0  0
 12 26  1  0  0  0  0
 13 21  1  0  0  0  0
 13 24  2  0  0  0  0
 14 26  2  0  0  0  0
 14 27  1  0  0  0  0
 15 22  2  0  0  0  0
 15 63  1  0  0  0  0
 16 28  1  0  0  0  0
 17 28  1  0  0  0  0
 17 30  2  0  0  0  0
 17 31  1  0  0  0  0
 18 20  2  0  0  0  0
 18 36  1  0  0  0  0
 19 21  2  0  0  0  0
 19 37  1  0  0  0  0
 20 45  1  0  0  0  0
 21 38  1  0  0  0  0
 22 29  1  0  0  0  0
 22 53  1  0  0  0  0
 23 78  1  0  0  0  0
 24 79  1  0  0  0  0
 25 27  2  0  0  0  0
 25 78  1  0  0  0  0
 26 80  1  0  0  0  0
 27 81  1  0  0  0  0
 28 61  2  0  0  0  0
 29 59  1  0  0  0  0
 29 62  2  0  0  0  0
 30 64  1  0  0  0  0
 30 67  1  0  0  0  0
 31 68  1  0  0  0  0
 31 73  2  0  0  0  0
 32 46  1  0  0  0  0
 32 69  1  0  0  0  0
 32 74  2  0  0  0  0
 33 57  1  0  0  0  0
 33 65  1  0  0  0  0
 33 75  2  0  0  0  0
 34 58  1  0  0  0  0
 34 70  1  0  0  0  0
 34 76  2  0  0  0  0
 35 66  1  0  0  0  0
 35 71  1  0  0  0  0
 35 77  2  0  0  0  0
 36 39  1  0  0  0  0
 37 46  1  0  0  0  0
 38 65  1  0  0  0  0
 39 41  1  0  0  0  0
 40 42  1  0  0  0  0
 40 43  1  0  0  0  0
 41 45  1  0  0  0  0
 42 47  1  0  0  0  0
 43 66  1  0  0  0  0
 44 47  1  0  0  0  0
 44 66  1  0  0  0  0
 45 69  1  0  0  0  0
 46 65  1  0  0  0  0
 47 64  1  0  0  0  0
 48 58  1  0  0  0  0
 49 60  1  0  0  0  0
 50 60  1  0  0  0  0
 51 60  1  0  0  0  0
 52 72  1  0  0  0  0
 53 71  1  0  0  0  0
 54 55  1  0  0  0  0
 54 56  1  0  0  0  0
 55 63  1  0  0  0  0
 56 79  1  0  0  0  0
 57 60  1  0  0  0  0
 57 70  1  0  0  0  0
 58 72  1  0  0  0  0
 59 82  1  0  0  0  0
 59 83  1  0  0  0  0
 59 84  1  0  0  0  0
 61 64  1  0  0  0  0
 62 63  1  0  0  0  0
M  CHG  1  72   1
M  ISO  4  35 100  56 101  71 100  79 101
M  END
> <Batch ID>
0052

> <Smiles>
CNC(C)C(=O)NC(C(=O)N1Cc2cc([101O:1][101CH2:1]CCn3cc(C[100NH:0][100C:0](=O)N4CCCC(n5nc(-c6ccc(Oc7ccc(F)cc7F)cc6)c(C(N)=O)c5N)C4)c(C(F)(F)F)n3)ccc2CC1C(=O)NC1CCCc2ccccc21)C(C)(C)C

> <Shape>
0.163

> <Color>
0.196

> <Negative vol penalty>
0.000

$$$$

  -OEChem-04052317363D

 84 92  0     1  0  0  0  0  0999 V2000
  -19.5347  -29.6598   26.2617 C   0  0  0  0  0  0  0  0  0  0  0  0
  -20.8353  -29.2853   25.9396 C   0  0  0  0  0  0  0  0  0  0  0  0
  -24.7321  -14.1869   21.0147 C   0  0  0  0  0  0  0  0  0  0  0  0
  -27.0820  -13.6814   21.2593 C   0  0  0  0  0  0  0  0  0  0  0  0
  -18.4900  -29.3715   25.3845 C   0  0  0  0  0  0  0  0  0  0  0  0
  -21.0917  -28.6213   24.7405 C   0  0  0  0  0  0  0  0  0  0  0  0
  -26.0806  -29.1574   21.2292 C   0  0  0  0  0  0  0  0  0  0  0  0
  -24.4950  -12.8795   20.5902 C   0  0  0  0  0  0  0  0  0  0  0  0
  -26.8449  -12.3740   20.8349 C   0  0  0  0  0  0  0  0  0  0  0  0
  -27.2303  -28.3781   21.1077 C   0  0  0  0  0  0  0  0  0  0  0  0
  -24.1519   -9.8260   22.0014 C   0  0  0  0  0  0  0  0  0  0  0  0
  -23.0551   -9.1570   22.5445 C   0  0  0  0  0  0  0  0  0  0  0  0
  -26.2492  -27.2353   19.2234 C   0  0  0  0  0  0  0  0  0  0  0  0
  -22.1153   -8.9027   20.3333 C   0  0  0  0  0  0  0  0  0  0  0  0
  -32.4048  -20.8407   21.9565 C   0  0  0  0  0  0  0  0  0  0  0  0
  -26.0256  -14.5879   21.3492 C   0  0  0  0  0  0  0  0  0  0  0  0
  -26.2381  -16.4229   23.1085 C   0  0  0  0  0  0  0  0  0  0  0  0
  -18.7351  -28.7122   24.1697 C   0  0  0  0  0  0  0  0  0  0  0  0
  -25.0005  -28.9737   20.3541 C   0  0  0  0  0  0  0  0  0  0  0  0
  -20.0491  -28.3227   23.8469 C   0  0  0  0  0  0  0  0  0  0  0  0
  -25.0880  -28.0153   19.3343 C   0  0  0  0  0  0  0  0  0  0  0  0
  -25.5514  -11.9731   20.5003 C   0  0  0  0  0  0  0  0  0  0  0  0
  -27.3136  -27.4149   20.1065 C   0  0  0  0  0  0  0  0  0  0  0  0
  -24.2304  -10.0335   20.6242 C   0  0  0  0  0  0  0  0  0  0  0  0
  -22.0368   -8.6953   21.7105 C   0  0  0  0  0  0  0  0  0  0  0  0
  -23.2121   -9.5718   19.7902 C   0  0  0  0  0  0  0  0  0  0  0  0
  -26.2712  -15.9384   21.7871 C   0  0  0  0  0  0  0  0  0  0  0  0
  -31.8856  -21.4803   20.8524 C   0  0  0  0  0  0  0  0  0  0  0  0
  -31.8159  -22.6214   23.2649 C   0  0  0  0  0  0  0  0  0  0  0  0
  -31.2975  -23.2614   22.1607 C   0  0  0  0  0  0  0  0  0  0  0  0
  -26.5383  -17.7581   22.9922 C   0  0  0  0  0  0  0  0  0  0  0  0
  -25.9609  -15.7280   24.3316 C   0  0  0  0  0  0  0  0  0  0  0  0
  -21.9616  -28.1052   20.6929 C   0  0  0  0  0  0  0  0  0  0  0  0
  -29.5359  -20.8466   18.7984 C   0  0  0  0  0  0  0  0  0  0  0  0
  -21.8115  -28.8181   17.5319 C   0  0  0  0  0  0  0  0  0  0  0  0
  -23.4538  -29.1788   14.5621 C   0  0  0  0  0  0  0  0  0  0  0  0
  -17.5670  -28.3801   23.2754 C   0  0  0  0  0  0  0  0  0  0  0  0
  -23.7780  -29.8407   20.4816 C   0  0  0  0  0  0  0  0  0  0  0  0
  -23.9642  -27.7927   18.3566 C   0  0  0  0  0  0  0  0  0  0  0  0
  -17.9758  -28.0065   21.8529 C   0  0  0  0  0  0  0  0  0  0  0  0
  -26.1957  -21.4307   19.9569 C   0  0  0  0  0  0  0  0  0  0  0  0
  -19.1337  -27.0137   21.8735 C   0  0  0  0  0  0  0  0  0  0  0  0
  -25.8231  -20.1222   20.6528 C   0  0  0  0  0  0  0  0  0  0  0  0
  -27.0868  -21.1838   18.7437 C   0  0  0  0  0  0  0  0  0  0  0  0
  -27.9536  -19.0930   19.7433 C   0  0  0  0  0  0  0  0  0  0  0  0
  -20.3708  -27.6229   22.5443 C   0  0  1  0  0  0  0  0  0  0  0  0
  -22.5342  -29.2154   19.8578 C   0  0  1  0  0  0  0  0  0  0  0  0
  -27.0788  -19.2998   20.9925 C   0  0  2  0  0  0  0  0  0  0  0  0
  -30.6886  -22.6618   25.5041 C   0  0  0  0  0  0  0  0  0  0  0  0
  -30.9626  -18.9771   18.0744 C   0  0  0  0  0  0  0  0  0  0  0  0
  -23.0578  -29.7316   12.1466 C   0  0  0  0  0  0  0  0  0  0  0  0
  -20.6554  -26.0299   17.0858 C   0  0  0  0  0  0  0  0  0  0  0  0
  -21.1694  -26.2826   14.6486 C   0  0  0  0  0  0  0  0  0  0  0  0
  -19.5610  -27.8390   15.7502 C   0  0  0  0  0  0  0  0  0  0  0  0
  -25.2145  -31.5538   14.6970 C   0  0  0  0  0  0  0  0  0  0  0  0
  -31.9305  -20.8317   19.5133 C   0  0  0  0  0  0  0  0  0  0  0  0
  -31.7816  -23.2510   24.6156 C   0  0  0  0  0  0  0  0  0  0  0  0
  -30.6709  -24.6287   22.2667 C   0  0  0  0  0  0  0  0  0  0  0  0
  -29.8661  -25.0350   21.0302 C   0  0  0  0  0  0  0  0  0  0  0  0
  -29.1665  -26.3809   21.1805 C   0  0  0  0  0  0  0  0  0  1  0  0
  -30.6910  -19.9658   19.2032 C   0  0  1  0  0  0  0  0  0  0  0  0
  -22.0302  -28.0496   16.2511 C   0  0  1  0  0  0  0  0  0  0  0  0
  -23.4177  -30.2805   13.5184 C   0  0  2  0  0  0  0  0  0  0  0  0
  -20.8746  -27.0529   15.9534 C   0  0  0  0  0  0  0  0  0  0  0  0
  -32.3792  -21.3998   23.1826 N   0  0  0  0  0  0  0  0  0  0  0  0
  -26.5688  -16.8886   20.8968 N   0  0  0  0  0  0  0  0  0  0  0  0
  -31.3227  -22.7021   20.9347 N   0  0  0  0  0  0  0  0  0  0  0  0
  -26.7254  -17.9835   21.6602 N   0  0  0  0  0  0  0  0  0  0  0  0
  -22.7874  -28.6610   18.5263 N   0  0  0  0  0  0  0  0  0  0  0  0
  -28.2568  -20.3806   19.1032 N   0  0  0  0  0  0  0  0  0  0  0  0
  -26.6578  -18.7496   23.9005 N   0  0  0  0  0  0  0  0  0  0  0  0
  -25.6717  -14.3580   24.2710 N   0  0  0  0  0  0  0  0  0  0  0  0
  -21.0444  -28.5267   21.6366 N   0  0  0  0  0  0  0  0  0  0  0  0
  -22.2426  -29.0470   15.2078 N   0  0  0  0  0  0  0  0  0  0  0  0
  -24.7467  -30.9481   13.4237 N   0  3  0  0  0  0  0  0  0  0  0  0
  -25.9532  -16.3085   25.4436 O   0  0  0  0  0  0  0  0  0  0  0  0
  -22.3239  -26.9515   20.4946 O   0  0  0  0  0  0  0  0  0  0  0  0
  -29.7656  -21.9179   18.2311 O   0  0  0  0  0  0  0  0  0  0  0  0
  -20.8154  -29.5371   17.6433 O   0  0  0  0  0  0  0  0  0  0  0  0
  -24.4552  -28.5003   14.7801 O   0  0  0  0  0  0  0  0  0  0  0  0
  -25.3204  -10.6972   20.0864 O   0  0  0  0  0  0  0  0  0  0  0  0
  -28.4343  -26.6525   19.9862 O   0  0  0  0  0  0  0  0  0  1  0  0
  -20.9843   -8.0515   22.2320 F   0  0  0  0  0  0  0  0  0  0  0  0
  -23.2825   -9.7671   18.4663 F   0  0  0  0  0  0  0  0  0  0  0  0
  1  2  1  0  0  0  0
  1  5  2  0  0  0  0
  2  6  2  0  0  0  0
  3  8  2  0  0  0  0
  3 16  1  0  0  0  0
  4  9  1  0  0  0  0
  4 16  2  0  0  0  0
  5 18  1  0  0  0  0
  6 20  1  0  0  0  0
  7 10  2  0  0  0  0
  7 19  1  0  0  0  0
  8 22  1  0  0  0  0
  9 22  2  0  0  0  0
 10 23  1  0  0  0  0
 11 12  2  0  0  0  0
 11 24  1  0  0  0  0
 12 25  1  0  0  0  0
 13 21  1  0  0  0  0
 13 23  2  0  0  0  0
 14 25  2  0  0  0  0
 14 26  1  0  0  0  0
 15 28  1  0  0  0  0
 15 65  2  0  0  0  0
 16 27  1  0  0  0  0
 17 27  1  0  0  0  0
 17 31  2  0  0  0  0
 17 32  1  0  0  0  0
 18 20  2  0  0  0  0
 18 37  1  0  0  0  0
 19 21  2  0  0  0  0
 19 38  1  0  0  0  0
 20 46  1  0  0  0  0
 21 39  1  0  0  0  0
 22 81  1  0  0  0  0
 23 82  1  0  0  0  0
 24 26  2  0  0  0  0
 24 81  1  0  0  0  0
 25 83  1  0  0  0  0
 26 84  1  0  0  0  0
 27 66  2  0  0  0  0
 28 56  1  0  0  0  0
 28 67  2  0  0  0  0
 29 30  2  0  0  0  0
 29 57  1  0  0  0  0
 29 65  1  0  0  0  0
 30 58  1  0  0  0  0
 30 67  1  0  0  0  0
 31 68  1  0  0  0  0
 31 71  1  0  0  0  0
 32 72  1  0  0  0  0
 32 76  2  0  0  0  0
 33 47  1  0  0  0  0
 33 73  1  0  0  0  0
 33 77  2  0  0  0  0
 34 61  1  0  0  0  0
 34 70  1  0  0  0  0
 34 78  2  0  0  0  0
 35 62  1  0  0  0  0
 35 69  1  0  0  0  0
 35 79  2  0  0  0  0
 36 63  1  0  0  0  0
 36 74  1  0  0  0  0
 36 80  2  0  0  0  0
 37 40  1  0  0  0  0
 38 47  1  0  0  0  0
 39 69  1  0  0  0  0
 40 42  1  0  0  0  0
 41 43  1  0  0  0  0
 41 44  1  0  0  0  0
 42 46  1  0  0  0  0
 43 48  1  0  0  0  0
 44 70  1  0  0  0  0
 45 48  1  0  0  0  0
 45 70  1  0  0  0  0
 46 73  1  0  0  0  0
 47 69  1  0  0  0  0
 48 68  1  0  0  0  0
 49 57  1  0  0  0  0
 50 61  1  0  0  0  0
 51 63  1  0  0  0  0
 52 64  1  0  0  0  0
 53 64  1  0  0  0  0
 54 64  1  0  0  0  0
 55 75  1  0  0  0  0
 56 61  1  0  0  0  0
 58 59  1  0  0  0  0
 59 60  1  0  0  0  0
 60 82  1  0  0  0  0
 62 64  1  0  0  0  0
 62 74  1  0  0  0  0
 63 75  1  0  0  0  0
 66 68  1  0  0  0  0
M  CHG  1  75   1
M  ISO  4  34 100  60 101  61 100  82 101
M  END
> <Batch ID>
0052

> <Smiles>
CCc1ncc(C[100CH:0](C)[100C:0](=O)N2CCCC(n3nc(-c4ccc(Oc5ccc(F)cc5F)cc4)c(C(N)=O)c3N)C2)nc1CC[101CH2:1][101O:1]c1ccc2c(c1)CN(C(=O)C(NC(=O)C(C)NC)C(C)(C)C)C(C(=O)NC1CCCc3ccccc31)C2

> <Shape>
0.212

> <Color>
0.090

> <Negative vol penalty>
0.000

$$$$

  -OEChem-04052317363D

 85 93  0     1  0  0  0  0  0999 V2000
  -22.2873  -32.0456   24.1116 C   0  0  0  0  0  0  0  0  0  0  0  0
  -22.1858  -30.6739   23.9029 C   0  0  0  0  0  0  0  0  0  0  0  0
  -24.3605   -9.4702   21.4022 C   0  0  0  0  0  0  0  0  0  0  0  0
  -24.8904  -10.6505   23.4426 C   0  0  0  0  0  0  0  0  0  0  0  0
  -22.9738  -32.8402   23.1943 C   0  0  0  0  0  0  0  0  0  0  0  0
  -22.7698  -30.0961   22.7761 C   0  0  0  0  0  0  0  0  0  0  0  0
  -25.2907  -25.8402   23.8609 C   0  0  0  0  0  0  0  0  0  0  0  0
  -24.1006   -8.3143   22.1383 C   0  0  0  0  0  0  0  0  0  0  0  0
  -24.6305   -9.4946   24.1788 C   0  0  0  0  0  0  0  0  0  0  0  0
  -24.5354  -24.6842   24.0534 C   0  0  0  0  0  0  0  0  0  0  0  0
  -21.5875   -7.0813   24.0349 C   0  0  0  0  0  0  0  0  0  0  0  0
  -20.4376   -6.3571   23.7201 C   0  0  0  0  0  0  0  0  0  0  0  0
  -25.0527  -23.9792   21.8051 C   0  0  0  0  0  0  0  0  0  0  0  0
  -21.7954   -4.4278   23.1992 C   0  0  0  0  0  0  0  0  0  0  0  0
  -25.6515  -19.3280   24.3483 C   0  0  0  0  0  0  0  0  0  0  0  0
  -24.7555  -10.6383   22.0543 C   0  0  0  0  0  0  0  0  0  0  0  0
  -24.1088  -12.8438   20.9475 C   0  0  0  0  0  0  0  0  0  0  0  0
  -23.5747  -32.2705   22.0607 C   0  0  0  0  0  0  0  0  0  0  0  0
  -25.9248  -26.0800   22.6334 C   0  0  0  0  0  0  0  0  0  0  0  0
  -23.4637  -30.8840   21.8421 C   0  0  0  0  0  0  0  0  0  0  0  0
  -25.8176  -25.1377   21.6005 C   0  0  0  0  0  0  0  0  0  0  0  0
  -24.2356   -8.3264   23.5266 C   0  0  0  0  0  0  0  0  0  0  0  0
  -24.4139  -23.7549   23.0244 C   0  0  0  0  0  0  0  0  0  0  0  0
  -22.8413   -6.4787   23.9317 C   0  0  0  0  0  0  0  0  0  0  0  0
  -20.5416   -5.0304   23.3023 C   0  0  0  0  0  0  0  0  0  0  0  0
  -22.9452   -5.1520   23.5139 C   0  0  0  0  0  0  0  0  0  0  0  0
  -25.0246  -11.8325   21.2944 C   0  0  0  0  0  0  0  0  0  0  0  0
  -24.4809  -19.8651   23.7800 C   0  0  0  0  0  0  0  0  0  0  0  0
  -26.3216  -18.7674   23.2885 C   0  0  0  0  0  0  0  0  0  0  0  0
  -24.8526  -13.7496   20.2313 C   0  0  0  0  0  0  0  0  0  0  0  0
  -22.7108  -12.9546   21.2459 C   0  0  0  0  0  0  0  0  0  0  0  0
  -25.7020  -28.3253   20.3944 C   0  0  0  0  0  0  0  0  0  0  0  0
  -28.2367  -26.7542   19.1179 C   0  0  0  0  0  0  0  0  0  0  0  0
  -30.0078  -23.8496   18.8472 C   0  0  0  0  0  0  0  0  0  0  0  0
  -30.9190  -14.6046   20.3107 C   0  0  0  0  0  0  0  0  0  0  0  0
  -24.2657  -33.1765   21.0727 C   0  0  0  0  0  0  0  0  0  0  0  0
  -26.7579  -27.3189   22.4507 C   0  0  0  0  0  0  0  0  0  0  0  0
  -26.4954  -25.3384   20.2706 C   0  0  0  0  0  0  0  0  0  0  0  0
  -25.1767  -32.4336   20.0988 C   0  0  0  0  0  0  0  0  0  0  0  0
  -28.6930  -14.0569   17.4043 C   0  0  0  0  0  0  0  0  0  0  0  0
  -24.4663  -31.2083   19.5323 C   0  0  0  0  0  0  0  0  0  0  0  0
  -27.4507  -13.4427   18.0473 C   0  0  0  0  0  0  0  0  0  0  0  0
  -29.9556  -13.7516   18.2045 C   0  0  0  0  0  0  0  0  0  0  0  0
  -28.6291  -13.5328   20.2798 C   0  0  0  0  0  0  0  0  0  0  0  0
  -24.1049  -30.2167   20.6448 C   0  0  1  0  0  0  0  0  0  0  0  0
  -26.9373  -27.7079   20.9865 C   0  0  1  0  0  0  0  0  0  0  0  0
  -27.3331  -13.8611   19.5233 C   0  0  2  0  0  0  0  0  0  0  0  0
  -32.0103  -22.8630   17.7010 C   0  0  0  0  0  0  0  0  0  0  0  0
  -26.6560  -26.5769   16.5141 C   0  0  0  0  0  0  0  0  0  0  0  0
  -28.2532  -24.8085   15.7463 C   0  0  0  0  0  0  0  0  0  0  0  0
  -29.0822  -27.1115   16.2273 C   0  0  0  0  0  0  0  0  0  0  0  0
  -25.8196  -18.5946   20.8324 C   0  0  0  0  0  0  0  0  0  0  0  0
  -31.8061  -16.0624   22.0904 C   0  0  0  0  0  0  0  0  0  0  0  0
  -31.3426  -23.2707   21.4244 C   0  0  0  0  0  0  0  0  0  0  0  0
  -26.6433  -15.9501   24.1509 C   0  0  0  0  0  0  0  0  0  0  0  0
  -23.3687  -20.6004   24.4876 C   0  0  0  0  0  0  0  0  0  0  0  0
  -27.6087  -18.0510   23.2263 C   0  0  0  0  0  0  0  0  0  0  0  0
  -29.4010  -16.1988   21.5584 C   0  0  0  0  0  0  0  0  0  0  0  0
  -28.8075  -15.8900   22.9203 C   0  0  0  0  0  0  0  0  0  0  0  0
  -23.6078  -22.1056   24.5363 C   0  0  0  0  0  0  0  0  0  1  0  0
  -28.4073  -25.6110   18.1469 C   0  0  1  0  0  0  0  0  0  0  0  0
  -31.4952  -23.5636   18.9486 C   0  0  2  0  0  0  0  0  0  0  0  0
  -28.0852  -26.0238   16.6829 C   0  0  0  0  0  0  0  0  0  0  0  0
  -26.2560  -12.0727   20.8362 N   0  0  0  0  0  0  0  0  0  0  0  0
  -24.4085  -19.6640   22.4616 N   0  0  0  0  0  0  0  0  0  0  0  0
  -25.5422  -18.9943   22.1925 N   0  0  0  0  0  0  0  0  0  0  0  0
  -26.1192  -13.2452   20.1940 N   0  0  0  0  0  0  0  0  0  0  0  0
  -27.2936  -26.5684   20.1386 N   0  0  0  0  0  0  0  0  0  0  0  0
  -29.8011  -14.1191   19.6124 N   0  0  0  0  0  0  0  0  0  0  0  0
  -24.5401  -14.9203   19.6361 N   0  0  0  0  0  0  0  0  0  0  0  0
  -22.1042  -11.9352   21.9923 N   0  0  0  0  0  0  0  0  0  0  0  0
  -25.2726  -29.4637   21.0495 N   0  0  0  0  0  0  0  0  0  0  0  0
  -29.7632  -25.1089   18.3416 N   0  0  0  0  0  0  0  0  0  0  0  0
  -30.6783  -15.5218   21.3448 N   0  0  0  0  0  0  0  0  0  0  0  0
  -31.7764  -22.6941   20.1258 N   0  3  0  0  0  0  0  0  0  0  0  0
  -27.4731  -16.5705   23.0602 N   0  3  1  0  0  0  0  0  0  0  0  0
  -22.0165  -13.9206   20.8481 O   0  0  0  0  0  0  0  0  0  0  0  0
  -25.1781  -27.8080   19.4148 O   0  0  0  0  0  0  0  0  0  0  0  0
  -28.9204  -27.7717   18.9803 O   0  0  0  0  0  0  0  0  0  0  0  0
  -29.1488  -23.0358   19.1795 O   0  0  0  0  0  0  0  0  0  0  0  0
  -32.0674  -14.2462   20.0197 O   0  0  0  0  0  0  0  0  0  0  0  0
  -23.9818   -7.1988   24.2453 O   0  0  0  0  0  0  0  0  0  0  0  0
  -23.6768  -22.6261   23.2094 O   0  0  0  0  0  0  0  0  0  1  0  0
  -19.4372   -4.3346   23.0016 F   0  0  0  0  0  0  0  0  0  0  0  0
  -24.1469   -4.5674   23.4140 F   0  0  0  0  0  0  0  0  0  0  0  0
  1  2  1  0  0  0  0
  1  5  2  0  0  0  0
  2  6  2  0  0  0  0
  3  8  2  0  0  0  0
  3 16  1  0  0  0  0
  4  9  1  0  0  0  0
  4 16  2  0  0  0  0
  5 18  1  0  0  0  0
  6 20  1  0  0  0  0
  7 10  2  0  0  0  0
  7 19  1  0  0  0  0
  8 22  1  0  0  0  0
  9 22  2  0  0  0  0
 10 23  1  0  0  0  0
 11 12  2  0  0  0  0
 11 24  1  0  0  0  0
 12 25  1  0  0  0  0
 13 21  1  0  0  0  0
 13 23  2  0  0  0  0
 14 25  2  0  0  0  0
 14 26  1  0  0  0  0
 15 28  1  0  0  0  0
 15 29  2  0  0  0  0
 16 27  1  0  0  0  0
 17 27  1  0  0  0  0
 17 30  2  0  0  0  0
 17 31  1  0  0  0  0
 18 20  2  0  0  0  0
 18 36  1  0  0  0  0
 19 21  2  0  0  0  0
 19 37  1  0  0  0  0
 20 45  1  0  0  0  0
 21 38  1  0  0  0  0
 22 82  1  0  0  0  0
 23 83  1  0  0  0  0
 24 26  2  0  0  0  0
 24 82  1  0  0  0  0
 25 84  1  0  0  0  0
 26 85  1  0  0  0  0
 27 64  2  0  0  0  0
 28 56  1  0  0  0  0
 28 65  2  0  0  0  0
 29 57  1  0  0  0  0
 29 66  1  0  0  0  0
 30 67  1  0  0  0  0
 30 70  1  0  0  0  0
 31 71  1  0  0  0  0
 31 77  2  0  0  0  0
 32 46  1  0  0  0  0
 32 72  1  0  0  0  0
 32 78  2  0  0  0  0
 33 61  1  0  0  0  0
 33 68  1  0  0  0  0
 33 79  2  0  0  0  0
 34 62  1  0  0  0  0
 34 73  1  0  0  0  0
 34 80  2  0  0  0  0
 35 69  1  0  0  0  0
 35 74  1  0  0  0  0
 35 81  2  0  0  0  0
 36 39  1  0  0  0  0
 37 46  1  0  0  0  0
 38 68  1  0  0  0  0
 39 41  1  0  0  0  0
 40 42  1  0  0  0  0
 40 43  1  0  0  0  0
 41 45  1  0  0  0  0
 42 47  1  0  0  0  0
 43 69  1  0  0  0  0
 44 47  1  0  0  0  0
 44 69  1  0  0  0  0
 45 72  1  0  0  0  0
 46 68  1  0  0  0  0
 47 67  1  0  0  0  0
 48 62  1  0  0  0  0
 49 63  1  0  0  0  0
 50 63  1  0  0  0  0
 51 63  1  0  0  0  0
 52 66  1  0  0  0  0
 53 74  1  0  0  0  0
 54 75  1  0  0  0  0
 55 76  1  0  0  0  0
 56 60  1  0  0  0  0
 57 76  1  0  0  0  0
 58 59  1  0  0  0  0
 58 74  1  0  0  0  0
 59 76  1  0  0  0  0
 60 83  1  0  0  0  0
 61 63  1  0  0  0  0
 61 73  1  0  0  0  0
 62 75  1  0  0  0  0
 64 67  1  0  0  0  0
 65 66  1  0  0  0  0
M  CHG  2  75   1  76   1
M  ISO  4  35 100  60 101  74 100  83 101
M  END
> <Batch ID>
0052

> <Smiles>
CNC(C)C(=O)NC(C(=O)N1Cc2cc([101O:1][101CH2:1]Cc3cc(CN(C)CC[100N:0](C)[100C:0](=O)N4CCCC(n5nc(-c6ccc(Oc7ccc(F)cc7F)cc6)c(C(N)=O)c5N)C4)n(C)n3)ccc2CC1C(=O)NC1CCCc2ccccc21)C(C)(C)C

> <Shape>
0.253

> <Color>
0.118

> <Negative vol penalty>
0.000

$$$$

  -OEChem-04052317363D

 85 93  0     1  0  0  0  0  0999 V2000
  -28.2884  -37.7569   22.7463 C   0  0  0  0  0  0  0  0  0  0  0  0
  -28.7413  -36.5386   22.2503 C   0  0  0  0  0  0  0  0  0  0  0  0
  -31.6283  -14.8963   19.4849 C   0  0  0  0  0  0  0  0  0  0  0  0
  -29.2521  -14.4605   19.5148 C   0  0  0  0  0  0  0  0  0  0  0  0
  -27.2727  -37.7854   23.7010 C   0  0  0  0  0  0  0  0  0  0  0  0
  -28.1793  -35.3479   22.7096 C   0  0  0  0  0  0  0  0  0  0  0  0
  -27.2505  -30.2288   19.4788 C   0  0  0  0  0  0  0  0  0  0  0  0
  -31.8689  -13.5622   19.1565 C   0  0  0  0  0  0  0  0  0  0  0  0
  -29.4927  -13.1264   19.1863 C   0  0  0  0  0  0  0  0  0  0  0  0
  -27.9744  -29.0419   19.3732 C   0  0  0  0  0  0  0  0  0  0  0  0
  -30.2386  -11.3405   16.4159 C   0  0  0  0  0  0  0  0  0  0  0  0
  -29.4437  -10.7653   15.4245 C   0  0  0  0  0  0  0  0  0  0  0  0
  -26.5506  -28.0326   21.0385 C   0  0  0  0  0  0  0  0  0  0  0  0
  -28.6642   -9.1146   17.0072 C   0  0  0  0  0  0  0  0  0  0  0  0
  -25.7645  -23.4645   18.1713 C   0  0  0  0  0  0  0  0  0  0  0  0
  -30.3199  -15.3454   19.6641 C   0  0  0  0  0  0  0  0  0  0  0  0
  -29.8630  -17.7942   19.1142 C   0  0  0  0  0  0  0  0  0  0  0  0
  -26.6913  -36.5949   24.1650 C   0  0  0  0  0  0  0  0  0  0  0  0
  -26.1763  -30.3301   20.3744 C   0  0  0  0  0  0  0  0  0  0  0  0
  -27.1558  -35.3604   23.6723 C   0  0  0  0  0  0  0  0  0  0  0  0
  -25.8131  -29.2210   21.1517 C   0  0  0  0  0  0  0  0  0  0  0  0
  -30.8011  -12.6772   19.0071 C   0  0  0  0  0  0  0  0  0  0  0  0
  -27.6263  -27.9445   20.1552 C   0  0  0  0  0  0  0  0  0  0  0  0
  -30.2464  -10.8027   17.7030 C   0  0  0  0  0  0  0  0  0  0  0  0
  -28.6565   -9.6524   15.7201 C   0  0  0  0  0  0  0  0  0  0  0  0
  -29.4592   -9.6898   17.9986 C   0  0  0  0  0  0  0  0  0  0  0  0
  -30.0708  -16.7233   20.0040 C   0  0  0  0  0  0  0  0  0  0  0  0
  -26.1751  -23.1182   19.4726 C   0  0  0  0  0  0  0  0  0  0  0  0
  -26.8002  -24.2167   17.6733 C   0  0  0  0  0  0  0  0  0  0  0  0
  -29.6724  -18.8844   19.9275 C   0  0  0  0  0  0  0  0  0  0  0  0
  -29.8439  -17.8027   17.6806 C   0  0  0  0  0  0  0  0  0  0  0  0
  -25.5400  -32.1236   22.9204 C   0  0  0  0  0  0  0  0  0  0  0  0
  -22.6479  -30.6657   22.7399 C   0  0  0  0  0  0  0  0  0  0  0  0
  -20.8158  -27.9835   21.6931 C   0  0  0  0  0  0  0  0  0  0  0  0
  -27.1193  -19.8289   25.1880 C   0  0  0  0  0  0  0  0  0  0  0  0
  -25.6287  -36.6738   25.2324 C   0  0  0  0  0  0  0  0  0  0  0  0
  -25.3888  -31.6089   20.4570 C   0  0  0  0  0  0  0  0  0  0  0  0
  -24.6554  -29.2717   22.1138 C   0  0  0  0  0  0  0  0  0  0  0  0
  -24.8275  -35.3842   25.3908 C   0  0  0  0  0  0  0  0  0  0  0  0
  -30.7717  -19.9934   24.6097 C   0  0  0  0  0  0  0  0  0  0  0  0
  -25.7603  -34.1780   25.4330 C   0  0  0  0  0  0  0  0  0  0  0  0
  -30.9398  -19.2007   23.3146 C   0  0  0  0  0  0  0  0  0  0  0  0
  -29.5587  -19.5251   25.4078 C   0  0  0  0  0  0  0  0  0  0  0  0
  -28.4562  -18.7410   23.3381 C   0  0  0  0  0  0  0  0  0  0  0  0
  -26.5542  -34.0485   24.1275 C   0  0  1  0  0  0  0  0  0  0  0  0
  -24.6365  -31.7632   21.7752 C   0  0  1  0  0  0  0  0  0  0  0  0
  -29.6425  -19.2192   22.4876 C   0  0  2  0  0  0  0  0  0  0  0  0
  -26.9791  -24.8726   16.3651 C   0  0  0  0  0  0  0  0  0  0  0  0
  -18.4836  -27.0576   21.7251 C   0  0  0  0  0  0  0  0  0  0  0  0
  -23.0072  -29.8684   25.6631 C   0  0  0  0  0  0  0  0  0  0  0  0
  -21.1708  -28.1940   25.3596 C   0  0  0  0  0  0  0  0  0  0  0  0
  -20.7002  -30.6258   25.0643 C   0  0  0  0  0  0  0  0  0  0  0  0
  -24.8640  -20.7993   24.9599 C   0  0  0  0  0  0  0  0  0  0  0  0
  -20.6413  -28.0075   18.7388 C   0  0  0  0  0  0  0  0  0  0  0  0
  -25.5584  -20.0199   19.4989 C   0  0  0  0  0  0  0  0  0  0  0  0
  -25.4384  -22.3133   20.4615 C   0  0  0  0  0  0  0  0  0  0  0  0
  -29.0635  -24.9823   18.6241 C   0  0  0  0  0  0  0  0  0  0  0  0
  -26.4223  -21.0045   23.0585 C   0  0  0  0  0  0  0  0  0  0  0  0
  -25.6041  -20.3378   21.9684 C   0  0  0  0  0  0  0  0  0  0  0  0
  -28.9219  -26.4916   18.7890 C   0  0  0  0  0  0  0  0  0  1  0  0
  -22.0498  -29.4027   23.3109 C   0  0  1  0  0  0  0  0  0  0  0  0
  -19.4929  -27.8939   20.9540 C   0  0  2  0  0  0  0  0  0  0  0  0
  -21.7551  -29.5221   24.8329 C   0  0  0  0  0  0  0  0  0  0  0  0
  -30.0174  -17.0992   21.2846 N   0  0  0  0  0  0  0  0  0  0  0  0
  -27.3778  -23.6098   19.7818 N   0  0  0  0  0  0  0  0  0  0  0  0
  -27.7320  -24.2727   18.6677 N   0  0  0  0  0  0  0  0  0  0  0  0
  -29.7740  -18.4185   21.2053 N   0  0  0  0  0  0  0  0  0  0  0  0
  -23.9202  -30.5463   22.1631 N   0  0  0  0  0  0  0  0  0  0  0  0
  -28.3480  -19.5112   24.5862 N   0  0  0  0  0  0  0  0  0  0  0  0
  -29.4296  -20.1866   19.6672 N   0  0  0  0  0  0  0  0  0  0  0  0
  -30.0577  -16.5949   17.0024 N   0  0  0  0  0  0  0  0  0  0  0  0
  -25.7243  -33.4832   23.0853 N   0  0  0  0  0  0  0  0  0  0  0  0
  -20.8770  -29.1021   22.4969 N   0  0  0  0  0  0  0  0  0  0  0  0
  -26.1498  -20.4403   24.3786 N   0  0  0  0  0  0  0  0  0  0  0  0
  -19.6897  -27.2744   19.6129 N   0  3  0  0  0  0  0  0  0  0  0  0
  -25.9657  -20.9229   20.6308 N   0  3  1  0  0  0  0  0  0  0  0  0
  -29.6596  -18.8532   17.0203 O   0  0  0  0  0  0  0  0  0  0  0  0
  -26.0322  -31.2342   23.6047 O   0  0  0  0  0  0  0  0  0  0  0  0
  -22.0067  -31.7180   22.7969 O   0  0  0  0  0  0  0  0  0  0  0  0
  -21.7044  -27.1430   21.5725 O   0  0  0  0  0  0  0  0  0  0  0  0
  -26.9047  -19.5890   26.3831 O   0  0  0  0  0  0  0  0  0  0  0  0
  -31.0354  -11.3754   18.6864 O   0  0  0  0  0  0  0  0  0  0  0  0
  -28.3316  -26.7850   20.0547 O   0  0  0  0  0  0  0  0  0  1  0  0
  -27.8921   -9.1011   14.7684 F   0  0  0  0  0  0  0  0  0  0  0  0
  -29.4615   -9.1695   19.2335 F   0  0  0  0  0  0  0  0  0  0  0  0
  1  2  1  0  0  0  0
  1  5  2  0  0  0  0
  2  6  2  0  0  0  0
  3  8  2  0  0  0  0
  3 16  1  0  0  0  0
  4  9  1  0  0  0  0
  4 16  2  0  0  0  0
  5 18  1  0  0  0  0
  6 20  1  0  0  0  0
  7 10  2  0  0  0  0
  7 19  1  0  0  0  0
  8 22  1  0  0  0  0
  9 22  2  0  0  0  0
 10 23  1  0  0  0  0
 11 12  2  0  0  0  0
 11 24  1  0  0  0  0
 12 25  1  0  0  0  0
 13 21  1  0  0  0  0
 13 23  2  0  0  0  0
 14 25  2  0  0  0  0
 14 26  1  0  0  0  0
 15 28  1  0  0  0  0
 15 29  2  0  0  0  0
 16 27  1  0  0  0  0
 17 27  1  0  0  0  0
 17 30  2  0  0  0  0
 17 31  1  0  0  0  0
 18 20  2  0  0  0  0
 18 36  1  0  0  0  0
 19 21  2  0  0  0  0
 19 37  1  0  0  0  0
 20 45  1  0  0  0  0
 21 38  1  0  0  0  0
 22 82  1  0  0  0  0
 23 83  1  0  0  0  0
 24 26  2  0  0  0  0
 24 82  1  0  0  0  0
 25 84  1  0  0  0  0
 26 85  1  0  0  0  0
 27 64  2  0  0  0  0
 28 56  1  0  0  0  0
 28 65  2  0  0  0  0
 29 48  1  0  0  0  0
 29 66  1  0  0  0  0
 30 67  1  0  0  0  0
 30 70  1  0  0  0  0
 31 71  1  0  0  0  0
 31 77  2  0  0  0  0
 32 46  1  0  0  0  0
 32 72  1  0  0  0  0
 32 78  2  0  0  0  0
 33 61  1  0  0  0  0
 33 68  1  0  0  0  0
 33 79  2  0  0  0  0
 34 62  1  0  0  0  0
 34 73  1  0  0  0  0
 34 80  2  0  0  0  0
 35 69  1  0  0  0  0
 35 74  1  0  0  0  0
 35 81  2  0  0  0  0
 36 39  1  0  0  0  0
 37 46  1  0  0  0  0
 38 68  1  0  0  0  0
 39 41  1  0  0  0  0
 40 42  1  0  0  0  0
 40 43  1  0  0  0  0
 41 45  1  0  0  0  0
 42 47  1  0  0  0  0
 43 69  1  0  0  0  0
 44 47  1  0  0  0  0
 44 69  1  0  0  0  0
 45 72  1  0  0  0  0
 46 68  1  0  0  0  0
 47 67  1  0  0  0  0
 49 62  1  0  0  0  0
 50 63  1  0  0  0  0
 51 63  1  0  0  0  0
 52 63  1  0  0  0  0
 53 74  1  0  0  0  0
 54 75  1  0  0  0  0
 55 76  1  0  0  0  0
 56 76  1  0  0  0  0
 57 60  1  0  0  0  0
 57 66  1  0  0  0  0
 58 59  1  0  0  0  0
 58 74  1  0  0  0  0
 59 76  1  0  0  0  0
 60 83  1  0  0  0  0
 61 63  1  0  0  0  0
 61 73  1  0  0  0  0
 62 75  1  0  0  0  0
 64 67  1  0  0  0  0
 65 66  1  0  0  0  0
M  CHG  2  75   1  76   1
M  ISO  4  35 100  60 101  74 100  83 101
M  END
> <Batch ID>
0052

> <Smiles>
CNC(C)C(=O)NC(C(=O)N1Cc2cc([101O:1][101CH2:1]Cn3nc(CN(C)CC[100N:0](C)[100C:0](=O)N4CCCC(n5nc(-c6ccc(Oc7ccc(F)cc7F)cc6)c(C(N)=O)c5N)C4)cc3C)ccc2CC1C(=O)NC1CCCc2ccccc21)C(C)(C)C

> <Shape>
0.249

> <Color>
0.075

> <Negative vol penalty>
0.000

$$$$

  -OEChem-04052317363D

 87 95  0     1  0  0  0  0  0999 V2000
  -35.6054  -24.0652   20.3681 C   0  0  0  0  0  0  0  0  0  0  0  0
  -34.4333  -24.5534   20.9366 C   0  0  0  0  0  0  0  0  0  0  0  0
  -27.9039  -31.2142   19.8458 C   0  0  0  0  0  0  0  0  0  0  0  0
  -26.9921  -30.8183   22.0478 C   0  0  0  0  0  0  0  0  0  0  0  0
  -35.5485  -23.3045   19.2010 C   0  0  0  0  0  0  0  0  0  0  0  0
  -33.2036  -24.2820   20.3378 C   0  0  0  0  0  0  0  0  0  0  0  0
  -26.3313  -23.1064   21.9828 C   0  0  0  0  0  0  0  0  0  0  0  0
  -28.5200  -32.3764   20.3098 C   0  0  0  0  0  0  0  0  0  0  0  0
  -27.6082  -31.9804   22.5119 C   0  0  0  0  0  0  0  0  0  0  0  0
  -25.0533  -23.5584   21.6570 C   0  0  0  0  0  0  0  0  0  0  0  0
  -27.0530  -35.3133   22.3907 C   0  0  0  0  0  0  0  0  0  0  0  0
  -26.2983  -36.1722   23.1895 C   0  0  0  0  0  0  0  0  0  0  0  0
  -25.0701  -22.1668   19.6866 C   0  0  0  0  0  0  0  0  0  0  0  0
  -27.8872  -35.8954   24.9884 C   0  0  0  0  0  0  0  0  0  0  0  0
  -20.0884  -19.8986   26.6918 C   0  0  0  0  0  0  0  0  0  0  0  0
  -27.1399  -30.4351   20.7148 C   0  0  0  0  0  0  0  0  0  0  0  0
  -27.0400  -27.9337   20.2246 C   0  0  0  0  0  0  0  0  0  0  0  0
  -34.3167  -23.0155   18.5929 C   0  0  0  0  0  0  0  0  0  0  0  0
  -26.9938  -22.1880   21.1558 C   0  0  0  0  0  0  0  0  0  0  0  0
  -33.1302  -23.5179   19.1608 C   0  0  0  0  0  0  0  0  0  0  0  0
  -26.3554  -21.7028   20.0056 C   0  0  0  0  0  0  0  0  0  0  0  0
  -28.3722  -32.7595   21.6429 C   0  0  0  0  0  0  0  0  0  0  0  0
  -24.4236  -23.0908   20.5072 C   0  0  0  0  0  0  0  0  0  0  0  0
  -28.2248  -34.7453   22.8907 C   0  0  0  0  0  0  0  0  0  0  0  0
  -26.7154  -36.4634   24.4883 C   0  0  0  0  0  0  0  0  0  0  0  0
  -28.6419  -35.0364   24.1895 C   0  0  0  0  0  0  0  0  0  0  0  0
  -26.5027  -29.2348   20.2359 C   0  0  0  0  0  0  0  0  0  0  0  0
  -19.3877  -19.9254   25.5061 C   0  0  0  0  0  0  0  0  0  0  0  0
  -21.9141  -20.7787   25.6328 C   0  0  0  0  0  0  0  0  0  0  0  0
  -21.2138  -20.8049   24.4469 C   0  0  0  0  0  0  0  0  0  0  0  0
  -26.0487  -27.1576   19.6755 C   0  0  0  0  0  0  0  0  0  0  0  0
  -28.3206  -27.4681   20.6707 C   0  0  0  0  0  0  0  0  0  0  0  0
  -29.6790  -22.2313   19.4554 C   0  0  0  0  0  0  0  0  0  0  0  0
  -28.9650  -19.1039   18.9740 C   0  0  0  0  0  0  0  0  0  0  0  0
  -26.5874  -16.6580   18.8679 C   0  0  0  0  0  0  0  0  0  0  0  0
  -20.1284  -27.1240   19.8576 C   0  0  0  0  0  0  0  0  0  0  0  0
  -34.3092  -22.2289   17.3061 C   0  0  0  0  0  0  0  0  0  0  0  0
  -28.3614  -21.6900   21.5355 C   0  0  0  0  0  0  0  0  0  0  0  0
  -27.0155  -20.7008   19.0952 C   0  0  0  0  0  0  0  0  0  0  0  0
  -32.9359  -21.6709   16.9413 C   0  0  0  0  0  0  0  0  0  0  0  0
  -22.0937  -28.0138   16.8497 C   0  0  0  0  0  0  0  0  0  0  0  0
  -31.8640  -22.7444   17.1006 C   0  0  0  0  0  0  0  0  0  0  0  0
  -23.4595  -28.3663   17.4364 C   0  0  0  0  0  0  0  0  0  0  0  0
  -20.9651  -28.2768   17.8420 C   0  0  0  0  0  0  0  0  0  0  0  0
  -22.5140  -27.9538   19.7422 C   0  0  0  0  0  0  0  0  0  0  0  0
  -31.7752  -23.2239   18.5545 C   0  0  1  0  0  0  0  0  0  0  0  0
  -29.1497  -21.1451   20.3484 C   0  0  1  0  0  0  0  0  0  0  0  0
  -23.6774  -27.6566   18.7841 C   0  0  2  0  0  0  0  0  0  0  0  0
  -17.9789  -19.4469   25.4498 C   0  0  0  0  0  0  0  0  0  0  0  0
  -23.3243  -21.2547   25.7079 C   0  0  0  0  0  0  0  0  0  0  0  0
  -19.6030  -27.7492   23.0367 C   0  0  0  0  0  0  0  0  0  0  0  0
  -26.3013  -14.2074   18.4096 C   0  0  0  0  0  0  0  0  0  0  0  0
  -29.2144  -19.6371   15.9800 C   0  0  0  0  0  0  0  0  0  0  0  0
  -28.0163  -17.4780   15.5665 C   0  0  0  0  0  0  0  0  0  0  0  0
  -30.2166  -17.4762   16.7418 C   0  0  0  0  0  0  0  0  0  0  0  0
  -25.5852  -16.1448   21.6049 C   0  0  0  0  0  0  0  0  0  0  0  0
  -19.4192  -26.5377   22.1451 C   0  0  0  0  0  0  0  0  0  0  0  0
  -21.5149  -25.5610   21.2850 C   0  0  0  0  0  0  0  0  0  0  0  0
  -21.0870  -24.1270   21.0072 C   0  0  0  0  0  0  0  0  0  0  0  0
  -21.8000  -21.8317   20.9700 C   0  0  0  0  0  0  0  0  0  0  0  0
  -20.9905  -21.2586   22.1231 C   0  0  0  0  0  0  0  0  0  0  0  0
  -28.1675  -18.3350   17.9484 C   0  0  1  0  0  0  0  0  0  0  0  0
  -26.5460  -15.2665   19.4732 C   0  0  2  0  0  0  0  0  0  0  0  0
  -28.8918  -18.2519   16.5751 C   0  0  0  0  0  0  0  0  0  0  0  0
  -21.3642  -20.3248   26.7764 N   0  0  0  0  0  0  0  0  0  0  0  0
  -25.2661  -29.2864   19.7337 N   0  0  0  0  0  0  0  0  0  0  0  0
  -19.9378  -20.3790   24.3624 N   0  0  0  0  0  0  0  0  0  0  0  0
  -25.0182  -28.0080   19.4016 N   0  0  0  0  0  0  0  0  0  0  0  0
  -28.3552  -20.2489   19.5058 N   0  0  0  0  0  0  0  0  0  0  0  0
  -21.2185  -27.6265   19.1281 N   0  0  0  0  0  0  0  0  0  0  0  0
  -25.9667  -25.8375   19.4050 N   0  0  0  0  0  0  0  0  0  0  0  0
  -29.2194  -28.3989   21.2094 N   0  0  0  0  0  0  0  0  0  0  0  0
  -31.0573  -22.2606   19.3614 N   0  0  0  0  0  0  0  0  0  0  0  0
  -27.8738  -17.0380   18.5484 N   0  0  0  0  0  0  0  0  0  0  0  0
  -20.4117  -26.4972   21.0805 N   0  0  0  0  0  0  0  0  0  0  0  0
  -22.2029  -23.2113   21.2347 N   0  0  1  0  0  0  0  0  0  1  0  0
  -25.4576  -15.1748   20.4870 N   0  3  0  0  0  0  0  0  0  0  0  0
  -28.6642  -26.2652   20.5787 O   0  0  0  0  0  0  0  0  0  0  0  0
  -28.8949  -22.9860   18.8920 O   0  0  0  0  0  0  0  0  0  0  0  0
  -30.0848  -18.6994   19.2967 O   0  0  0  0  0  0  0  0  0  0  0  0
  -25.5789  -17.3383   18.6923 O   0  0  0  0  0  0  0  0  0  0  0  0
  -18.9692  -27.2210   19.4350 O   0  0  0  0  0  0  0  0  0  0  0  0
  -28.9734  -33.8933   22.0961 O   0  0  0  0  0  0  0  0  0  0  0  0
  -23.1765  -23.5308   20.1865 O   0  0  0  0  0  0  0  0  0  1  0  0
  -21.7934  -21.2714   23.2960 O   0  0  0  0  0  0  0  0  0  0  0  0
  -25.9913  -37.2895   25.2548 F   0  0  0  0  0  0  0  0  0  0  0  0
  -29.7674  -34.4948   24.6750 F   0  0  0  0  0  0  0  0  0  0  0  0
  1  2  1  0  0  0  0
  1  5  2  0  0  0  0
  2  6  2  0  0  0  0
  3  8  2  0  0  0  0
  3 16  1  0  0  0  0
  4  9  1  0  0  0  0
  4 16  2  0  0  0  0
  5 18  1  0  0  0  0
  6 20  1  0  0  0  0
  7 10  2  0  0  0  0
  7 19  1  0  0  0  0
  8 22  1  0  0  0  0
  9 22  2  0  0  0  0
 10 23  1  0  0  0  0
 11 12  2  0  0  0  0
 11 24  1  0  0  0  0
 12 25  1  0  0  0  0
 13 21  1  0  0  0  0
 13 23  2  0  0  0  0
 14 25  2  0  0  0  0
 14 26  1  0  0  0  0
 15 28  1  0  0  0  0
 15 65  2  0  0  0  0
 16 27  1  0  0  0  0
 17 27  1  0  0  0  0
 17 31  2  0  0  0  0
 17 32  1  0  0  0  0
 18 20  2  0  0  0  0
 18 37  1  0  0  0  0
 19 21  2  0  0  0  0
 19 38  1  0  0  0  0
 20 46  1  0  0  0  0
 21 39  1  0  0  0  0
 22 83  1  0  0  0  0
 23 84  1  0  0  0  0
 24 26  2  0  0  0  0
 24 83  1  0  0  0  0
 25 86  1  0  0  0  0
 26 87  1  0  0  0  0
 27 66  2  0  0  0  0
 28 49  1  0  0  0  0
 28 67  2  0  0  0  0
 29 30  2  0  0  0  0
 29 50  1  0  0  0  0
 29 65  1  0  0  0  0
 30 67  1  0  0  0  0
 30 85  1  0  0  0  0
 31 68  1  0  0  0  0
 31 71  1  0  0  0  0
 32 72  1  0  0  0  0
 32 78  2  0  0  0  0
 33 47  1  0  0  0  0
 33 73  1  0  0  0  0
 33 79  2  0  0  0  0
 34 62  1  0  0  0  0
 34 69  1  0  0  0  0
 34 80  2  0  0  0  0
 35 63  1  0  0  0  0
 35 74  1  0  0  0  0
 35 81  2  0  0  0  0
 36 70  1  0  0  0  0
 36 75  1  0  0  0  0
 36 82  2  0  0  0  0
 37 40  1  0  0  0  0
 38 47  1  0  0  0  0
 39 69  1  0  0  0  0
 40 42  1  0  0  0  0
 41 43  1  0  0  0  0
 41 44  1  0  0  0  0
 42 46  1  0  0  0  0
 43 48  1  0  0  0  0
 44 70  1  0  0  0  0
 45 48  1  0  0  0  0
 45 70  1  0  0  0  0
 46 73  1  0  0  0  0
 47 69  1  0  0  0  0
 48 68  1  0  0  0  0
 51 57  1  0  0  0  0
 52 63  1  0  0  0  0
 53 64  1  0  0  0  0
 54 64  1  0  0  0  0
 55 64  1  0  0  0  0
 56 77  1  0  0  0  0
 57 75  1  0  0  0  0
 58 59  1  0  0  0  0
 58 75  1  0  0  0  0
 59 76  1  0  0  0  0
 60 61  1  0  0  0  0
 60 76  1  0  0  0  0
 61 85  1  0  0  0  0
 62 64  1  0  0  0  0
 62 74  1  0  0  0  0
 63 77  1  0  0  0  0
 66 68  1  0  0  0  0
 76 84  1  0  0  0  0
M  CHG  1  77   1
M  ISO  4  36 100  75 100  76 101  84 101
M  END
> <Batch ID>
0052

> <Smiles>
CC[100N:0](CC[101N:1](CCOc1nc(C)cnc1C)[101O:1]c1ccc2c(c1)CN(C(=O)C(NC(=O)C(C)NC)C(C)(C)C)C(C(=O)NC1CCCc3ccccc31)C2)[100C:0](=O)N1CCCC(n2nc(-c3ccc(Oc4ccc(F)cc4F)cc3)c(C(N)=O)c2N)C1

> <Shape>
0.189

> <Color>
0.072

> <Negative vol penalty>
0.000

$$$$

  -OEChem-04052317363D

 82 90  0     1  0  0  0  0  0999 V2000
  -17.2445  -25.4390   22.1921 C   0  0  0  0  0  0  0  0  0  0  0  0
  -18.4164  -25.4849   21.4438 C   0  0  0  0  0  0  0  0  0  0  0  0
  -22.5445  -15.5060   20.1634 C   0  0  0  0  0  0  0  0  0  0  0  0
  -24.1021  -14.7618   21.8537 C   0  0  0  0  0  0  0  0  0  0  0  0
  -17.0877  -26.2813   23.2921 C   0  0  0  0  0  0  0  0  0  0  0  0
  -19.4318  -26.3740   21.7944 C   0  0  0  0  0  0  0  0  0  0  0  0
  -24.0169  -24.2269   21.6864 C   0  0  0  0  0  0  0  0  0  0  0  0
  -21.8953  -14.2727   20.2187 C   0  0  0  0  0  0  0  0  0  0  0  0
  -23.4529  -13.5285   21.9090 C   0  0  0  0  0  0  0  0  0  0  0  0
  -24.6098  -24.0540   20.4364 C   0  0  0  0  0  0  0  0  0  0  0  0
  -23.3642  -10.6762   20.0958 C   0  0  0  0  0  0  0  0  0  0  0  0
  -24.1552   -9.5274   20.1077 C   0  0  0  0  0  0  0  0  0  0  0  0
  -29.7855  -24.2676   17.2663 C   0  0  0  0  0  0  0  0  0  0  0  0
  -25.9489  -26.0263   20.8055 C   0  0  0  0  0  0  0  0  0  0  0  0
  -23.2202   -8.9058   22.2469 C   0  0  0  0  0  0  0  0  0  0  0  0
  -30.9433  -24.5538   17.9605 C   0  0  0  0  0  0  0  0  0  0  0  0
  -23.6480  -15.7505   20.9809 C   0  0  0  0  0  0  0  0  0  0  0  0
  -24.0352  -18.1701   21.6906 C   0  0  0  0  0  0  0  0  0  0  0  0
  -18.1056  -27.1743   23.6621 C   0  0  0  0  0  0  0  0  0  0  0  0
  -24.3784  -25.3088   22.5021 C   0  0  0  0  0  0  0  0  0  0  0  0
  -19.2879  -27.2299   22.8995 C   0  0  0  0  0  0  0  0  0  0  0  0
  -25.3610  -26.2092   22.0664 C   0  0  0  0  0  0  0  0  0  0  0  0
  -22.3494  -13.2839   21.0915 C   0  0  0  0  0  0  0  0  0  0  0  0
  -25.5738  -24.9554   19.9946 C   0  0  0  0  0  0  0  0  0  0  0  0
  -22.5012  -10.9399   21.1595 C   0  0  0  0  0  0  0  0  0  0  0  0
  -24.0832   -8.6422   21.1832 C   0  0  0  0  0  0  0  0  0  0  0  0
  -22.4292  -10.0546   22.2350 C   0  0  0  0  0  0  0  0  0  0  0  0
  -24.3194  -17.0241   20.9239 C   0  0  0  0  0  0  0  0  0  0  0  0
  -28.7676  -23.7051   18.0091 C   0  0  0  0  0  0  0  0  0  0  0  0
  -24.9468  -19.1041   21.2629 C   0  0  0  0  0  0  0  0  0  0  0  0
  -30.0410  -23.7629   19.8912 C   0  0  0  0  0  0  0  0  0  0  0  0
  -23.0364  -18.3721   22.6993 C   0  0  0  0  0  0  0  0  0  0  0  0
  -22.8442  -27.8149   23.7143 C   0  0  0  0  0  0  0  0  0  0  0  0
  -25.6566  -28.2981   25.2566 C   0  0  0  0  0  0  0  0  0  0  0  0
  -29.0315  -27.8003   25.3518 C   0  0  0  0  0  0  0  0  0  0  0  0
  -30.1476  -20.5239   19.8203 C   0  0  0  0  0  0  0  0  0  0  0  0
  -17.8711  -28.0986   24.8306 C   0  0  0  0  0  0  0  0  0  0  0  0
  -23.7488  -25.4661   23.8590 C   0  0  0  0  0  0  0  0  0  0  0  0
  -25.7990  -27.3756   22.9127 C   0  0  0  0  0  0  0  0  0  0  0  0
  -19.1476  -28.7476   25.3595 C   0  0  0  0  0  0  0  0  0  0  0  0
  -28.0969  -19.0588   17.3055 C   0  0  0  0  0  0  0  0  0  0  0  0
  -19.9873  -29.2904   24.2076 C   0  0  0  0  0  0  0  0  0  0  0  0
  -26.9117  -18.4883   18.0864 C   0  0  0  0  0  0  0  0  0  0  0  0
  -29.4038  -18.9220   18.0834 C   0  0  0  0  0  0  0  0  0  0  0  0
  -28.1894  -18.9128   20.2279 C   0  0  0  0  0  0  0  0  0  0  0  0
  -20.4222  -28.1634   23.2631 C   0  0  1  0  0  0  0  0  0  0  0  0
  -23.8215  -26.8947   24.3894 C   0  0  1  0  0  0  0  0  0  0  0  0
  -26.8403  -19.0786   19.5076 C   0  0  2  0  0  0  0  0  0  0  0  0
  -28.8468  -23.6508   22.1015 C   0  0  0  0  0  0  0  0  0  0  0  0
  -31.0659  -28.3484   26.7149 C   0  0  0  0  0  0  0  0  0  0  0  0
  -25.6389  -31.1366   24.1373 C   0  0  0  0  0  0  0  0  0  0  0  0
  -28.0693  -31.3048   24.7146 C   0  0  0  0  0  0  0  0  0  0  0  0
  -26.3816  -30.9589   26.5188 C   0  0  0  0  0  0  0  0  0  0  0  0
  -29.5869  -24.9426   25.8848 C   0  0  0  0  0  0  0  0  0  0  0  0
  -27.4619  -23.3562   17.3371 C   0  0  0  0  0  0  0  0  0  0  0  0
  -30.7664  -22.0801   21.6519 C   0  0  0  0  0  0  0  0  0  0  0  0
  -26.2754  -23.4527   18.2900 C   0  0  0  0  0  0  0  0  0  1  0  0
  -30.1831  -23.4817   21.3485 C   0  0  1  0  0  0  0  0  0  0  0  0
  -26.9279  -29.0526   24.9505 C   0  0  1  0  0  0  0  0  0  0  0  0
  -29.9512  -27.3434   26.4698 C   0  0  2  0  0  0  0  0  0  0  0  0
  -26.7450  -30.5925   25.0633 C   0  0  0  0  0  0  0  0  0  0  0  0
  -31.1060  -24.3137   19.2782 N   0  0  0  0  0  0  0  0  0  0  0  0
  -25.3322  -17.2109   20.0734 N   0  0  0  0  0  0  0  0  0  0  0  0
  -28.8615  -23.4380   19.3283 N   0  0  0  0  0  0  0  0  0  0  0  0
  -25.6924  -18.4851   20.3032 N   0  0  0  0  0  0  0  0  0  0  0  0
  -25.1495  -27.4903   24.2290 N   0  0  0  0  0  0  0  0  0  0  0  0
  -29.2696  -19.5026   19.4216 N   0  0  0  0  0  0  0  0  0  0  0  0
  -25.1753  -20.3864   21.6179 N   0  0  0  0  0  0  0  0  0  0  0  0
  -22.1822  -17.3072   23.0165 N   0  0  0  0  0  0  0  0  0  0  0  0
  -21.5251  -27.4215   23.8356 N   0  0  0  0  0  0  0  0  0  0  0  0
  -27.9503  -28.5058   25.8360 N   0  0  0  0  0  0  0  0  0  0  0  0
  -29.9474  -21.0231   21.1015 N   0  0  0  0  0  0  0  0  0  0  0  0
  -30.5686  -26.0306   26.1287 N   0  3  0  0  0  0  0  0  0  0  0  0
  -22.8947  -19.4697   23.2898 O   0  0  0  0  0  0  0  0  0  0  0  0
  -23.2562  -28.8090   23.1281 O   0  0  0  0  0  0  0  0  0  0  0  0
  -25.1367  -28.4156   26.3691 O   0  0  0  0  0  0  0  0  0  0  0  0
  -29.2523  -27.5589   24.1671 O   0  0  0  0  0  0  0  0  0  0  0  0
  -31.0401  -20.9624   19.0868 O   0  0  0  0  0  0  0  0  0  0  0  0
  -21.7160  -12.0804   21.1459 O   0  0  0  0  0  0  0  0  0  0  0  0
  -26.1535  -24.7893   18.7746 O   0  0  0  0  0  0  0  0  0  1  0  0
  -24.8417   -7.5382   21.1938 F   0  0  0  0  0  0  0  0  0  0  0  0
  -21.6011  -10.3019   23.2592 F   0  0  0  0  0  0  0  0  0  0  0  0
  1  2  1  0  0  0  0
  1  5  2  0  0  0  0
  2  6  2  0  0  0  0
  3  8  2  0  0  0  0
  3 17  1  0  0  0  0
  4  9  1  0  0  0  0
  4 17  2  0  0  0  0
  5 19  1  0  0  0  0
  6 21  1  0  0  0  0
  7 10  2  0  0  0  0
  7 20  1  0  0  0  0
  8 23  1  0  0  0  0
  9 23  2  0  0  0  0
 10 24  1  0  0  0  0
 11 12  2  0  0  0  0
 11 25  1  0  0  0  0
 12 26  1  0  0  0  0
 13 16  2  0  0  0  0
 13 29  1  0  0  0  0
 14 22  1  0  0  0  0
 14 24  2  0  0  0  0
 15 26  2  0  0  0  0
 15 27  1  0  0  0  0
 16 62  1  0  0  0  0
 17 28  1  0  0  0  0
 18 28  1  0  0  0  0
 18 30  2  0  0  0  0
 18 32  1  0  0  0  0
 19 21  2  0  0  0  0
 19 37  1  0  0  0  0
 20 22  2  0  0  0  0
 20 38  1  0  0  0  0
 21 46  1  0  0  0  0
 22 39  1  0  0  0  0
 23 79  1  0  0  0  0
 24 80  1  0  0  0  0
 25 27  2  0  0  0  0
 25 79  1  0  0  0  0
 26 81  1  0  0  0  0
 27 82  1  0  0  0  0
 28 63  2  0  0  0  0
 29 55  1  0  0  0  0
 29 64  2  0  0  0  0
 30 65  1  0  0  0  0
 30 68  1  0  0  0  0
 31 58  1  0  0  0  0
 31 62  2  0  0  0  0
 31 64  1  0  0  0  0
 32 69  1  0  0  0  0
 32 74  2  0  0  0  0
 33 47  1  0  0  0  0
 33 70  1  0  0  0  0
 33 75  2  0  0  0  0
 34 59  1  0  0  0  0
 34 66  1  0  0  0  0
 34 76  2  0  0  0  0
 35 60  1  0  0  0  0
 35 71  1  0  0  0  0
 35 77  2  0  0  0  0
 36 67  1  0  0  0  0
 36 72  1  0  0  0  0
 36 78  2  0  0  0  0
 37 40  1  0  0  0  0
 38 47  1  0  0  0  0
 39 66  1  0  0  0  0
 40 42  1  0  0  0  0
 41 43  1  0  0  0  0
 41 44  1  0  0  0  0
 42 46  1  0  0  0  0
 43 48  1  0  0  0  0
 44 67  1  0  0  0  0
 45 48  1  0  0  0  0
 45 67  1  0  0  0  0
 46 70  1  0  0  0  0
 47 66  1  0  0  0  0
 48 65  1  0  0  0  0
 49 58  1  0  0  0  0
 50 60  1  0  0  0  0
 51 61  1  0  0  0  0
 52 61  1  0  0  0  0
 53 61  1  0  0  0  0
 54 73  1  0  0  0  0
 55 57  1  0  0  0  0
 56 58  1  0  0  0  0
 56 72  1  0  0  0  0
 57 80  1  0  0  0  0
 59 61  1  0  0  0  0
 59 71  1  0  0  0  0
 60 73  1  0  0  0  0
 63 65  1  0  0  0  0
M  CHG  1  73   1
M  ISO  4  36 100  57 101  72 100  80 101
M  END
> <Batch ID>
0052

> <Smiles>
CNC(C)C(=O)NC(C(=O)N1Cc2cc([101O:1][101CH2:1]Cc3ccnc(C(C)C[100NH:0][100C:0](=O)N4CCCC(n5nc(-c6ccc(Oc7ccc(F)cc7F)cc6)c(C(N)=O)c5N)C4)n3)ccc2CC1C(=O)NC1CCCc2ccccc21)C(C)(C)C

> <Shape>
0.213

> <Color>
0.067

> <Negative vol penalty>
0.000

$$$$

  -OEChem-04052317363D

 86 93  0     1  0  0  0  0  0999 V2000
  -18.3295  -30.1188   26.2302 C   0  0  0  0  0  0  0  0  0  0  0  0
  -19.7134  -30.0123   26.3252 C   0  0  0  0  0  0  0  0  0  0  0  0
  -28.5346  -13.0646   16.0910 C   0  0  0  0  0  0  0  0  0  0  0  0
  -30.1879  -13.2920   17.8379 C   0  0  0  0  0  0  0  0  0  0  0  0
  -17.6681  -29.6162   25.1104 C   0  0  0  0  0  0  0  0  0  0  0  0
  -20.4365  -29.4021   25.3009 C   0  0  0  0  0  0  0  0  0  0  0  0
  -26.7725  -29.7359   21.9751 C   0  0  0  0  0  0  0  0  0  0  0  0
  -29.4689  -12.4049   15.2926 C   0  0  0  0  0  0  0  0  0  0  0  0
  -31.1222  -12.6322   17.0396 C   0  0  0  0  0  0  0  0  0  0  0  0
  -27.8426  -28.9194   21.6119 C   0  0  0  0  0  0  0  0  0  0  0  0
  -33.8381  -10.6887   15.6026 C   0  0  0  0  0  0  0  0  0  0  0  0
  -34.6197   -9.6999   16.2000 C   0  0  0  0  0  0  0  0  0  0  0  0
  -26.6014  -28.1585   19.6885 C   0  0  0  0  0  0  0  0  0  0  0  0
  -32.6232   -8.4585   16.7570 C   0  0  0  0  0  0  0  0  0  0  0  0
  -28.8941  -13.5082   17.3636 C   0  0  0  0  0  0  0  0  0  0  0  0
  -27.0367  -13.6098   19.1094 C   0  0  0  0  0  0  0  0  0  0  0  0
  -18.3845  -29.0082   24.0674 C   0  0  0  0  0  0  0  0  0  0  0  0
  -25.6026  -29.7617   21.2024 C   0  0  0  0  0  0  0  0  0  0  0  0
  -19.7839  -28.8897   24.1667 C   0  0  0  0  0  0  0  0  0  0  0  0
  -25.5189  -28.9781   20.0426 C   0  0  0  0  0  0  0  0  0  0  0  0
  -30.7627  -12.1886   15.7669 C   0  0  0  0  0  0  0  0  0  0  0  0
  -27.7561  -28.1284   20.4701 C   0  0  0  0  0  0  0  0  0  0  0  0
  -32.4491  -10.5625   15.5824 C   0  0  0  0  0  0  0  0  0  0  0  0
  -34.0122   -8.5847   16.7772 C   0  0  0  0  0  0  0  0  0  0  0  0
  -31.8417   -9.4474   16.1596 C   0  0  0  0  0  0  0  0  0  0  0  0
  -27.9296  -14.1902   18.1886 C   0  0  0  0  0  0  0  0  0  0  0  0
  -26.3412  -14.6734   19.6304 C   0  0  0  0  0  0  0  0  0  0  0  0
  -26.8526  -12.2324   19.4623 C   0  0  0  0  0  0  0  0  0  0  0  0
  -22.5530  -29.0329   21.7245 C   0  0  0  0  0  0  0  0  0  0  0  0
  -22.1553  -30.2575   18.7471 C   0  0  0  0  0  0  0  0  0  0  0  0
  -23.5281  -30.9968   15.7113 C   0  0  0  0  0  0  0  0  0  0  0  0
  -27.5963  -20.2826   20.3854 C   0  0  0  0  0  0  0  0  0  0  0  0
  -17.6210  -28.4376   22.8986 C   0  0  0  0  0  0  0  0  0  0  0  0
  -24.4675  -30.6680   21.5929 C   0  0  0  0  0  0  0  0  0  0  0  0
  -24.2929  -28.9849   19.1677 C   0  0  0  0  0  0  0  0  0  0  0  0
  -18.4979  -28.1405   21.6849 C   0  0  0  0  0  0  0  0  0  0  0  0
  -24.8395  -19.0739   18.5384 C   0  0  0  0  0  0  0  0  0  0  0  0
  -19.7641  -27.4030   22.1088 C   0  0  0  0  0  0  0  0  0  0  0  0
  -25.2387  -17.6154   18.3185 C   0  0  0  0  0  0  0  0  0  0  0  0
  -26.0321  -20.0226   18.4037 C   0  0  0  0  0  0  0  0  0  0  0  0
  -27.5826  -18.2028   19.0413 C   0  0  0  0  0  0  0  0  0  0  0  0
  -20.6058  -28.2567   23.0649 C   0  0  1  0  0  0  0  0  0  0  0  0
  -23.1256  -30.2277   21.0158 C   0  0  1  0  0  0  0  0  0  0  0  0
  -26.4141  -17.2232   19.2303 C   0  0  2  0  0  0  0  0  0  0  0  0
  -22.9456  -31.9573   13.4673 C   0  0  0  0  0  0  0  0  0  0  0  0
  -25.5666  -23.0614   15.7704 C   0  0  0  0  0  0  0  0  0  0  0  0
  -25.9487  -25.0735   14.3323 C   0  0  0  0  0  0  0  0  0  0  0  0
  -26.4800  -21.9687   22.6091 C   0  0  0  0  0  0  0  0  0  0  0  0
  -28.9534  -22.2199   22.2316 C   0  0  0  0  0  0  0  0  0  0  0  0
  -29.8521  -21.8620   18.5028 C   0  0  0  0  0  0  0  0  0  0  0  0
  -20.7531  -27.6528   17.9989 C   0  0  0  0  0  0  0  0  0  0  0  0
  -21.0489  -28.2669   15.5899 C   0  0  0  0  0  0  0  0  0  0  0  0
  -19.6765  -29.7170   17.0853 C   0  0  0  0  0  0  0  0  0  0  0  0
  -25.4691  -33.2089   16.0250 C   0  0  0  0  0  0  0  0  0  0  0  0
  -29.9053  -25.7198   18.7222 C   0  0  0  0  0  0  0  0  0  0  0  0
  -27.9389  -23.8124   15.2044 C   0  0  0  0  0  0  0  0  0  0  0  0
  -27.4716  -22.4991   19.1704 C   0  0  0  0  0  0  0  0  0  0  0  0
  -29.8686  -24.8512   17.4738 C   0  0  0  0  0  0  0  0  0  0  0  0
  -28.6396  -23.0262   16.3078 C   0  0  0  0  0  0  0  0  0  0  0  0
  -28.6422  -26.5458   18.9318 C   0  0  0  0  0  0  0  0  0  1  0  0
  -22.1911  -29.6955   17.3464 C   0  0  1  0  0  0  0  0  0  0  0  0
  -23.4760  -32.2536   14.8615 C   0  0  2  0  0  0  0  0  0  0  0  0
  -26.4912  -24.2495   15.5036 C   0  0  0  0  0  0  0  0  0  0  0  0
  -27.5650  -22.4082   21.6340 C   0  0  0  0  0  0  0  0  0  0  0  0
  -28.8669  -22.9875   18.7872 C   0  0  2  0  0  0  0  0  0  0  0  0
  -20.9399  -28.8312   17.0225 C   0  0  0  0  0  0  0  0  0  0  0  0
  -27.8138  -15.5194   18.1259 N   0  0  0  0  0  0  0  0  0  0  0  0
  -26.8400  -15.7830   19.0137 N   0  0  0  0  0  0  0  0  0  0  0  0
  -23.2072  -29.8829   19.5950 N   0  0  0  0  0  0  0  0  0  0  0  0
  -27.1477  -19.5854   19.2540 N   0  0  0  0  0  0  0  0  0  0  0  0
  -25.3576  -14.7585   20.5511 N   0  0  0  0  0  0  0  0  0  0  0  0
  -27.6509  -11.2686   18.8312 N   0  0  0  0  0  0  0  0  0  0  0  0
  -21.3339  -29.2692   22.3306 N   0  0  0  0  0  0  0  0  0  0  0  0
  -22.3778  -30.8345   16.4542 N   0  0  0  0  0  0  0  0  0  0  0  0
  -27.4508  -21.6780   20.3794 N   0  0  0  0  0  0  0  0  0  0  0  0
  -24.8367  -32.8470   14.7304 N   0  3  0  0  0  0  0  0  0  0  0  0
  -28.7699  -23.8607   17.5593 N   0  3  1  0  0  0  0  0  0  0  0  0
  -25.9941  -11.8656   20.3000 O   0  0  0  0  0  0  0  0  0  0  0  0
  -23.1707  -27.9746   21.7203 O   0  0  0  0  0  0  0  0  0  0  0  0
  -21.2320  -31.0070   19.0745 O   0  0  0  0  0  0  0  0  0  0  0  0
  -24.4912  -30.2333   15.7130 O   0  0  0  0  0  0  0  0  0  0  0  0
  -28.1066  -19.6924   21.3463 O   0  0  0  0  0  0  0  0  0  0  0  0
  -31.6746  -11.5447   14.9882 O   0  0  0  0  0  0  0  0  0  0  0  0
  -28.7989  -27.3300   20.1137 O   0  0  0  0  0  0  0  0  0  1  0  0
  -34.7630   -7.6345   17.3496 F   0  0  0  0  0  0  0  0  0  0  0  0
  -30.5077   -9.3200   16.1423 F   0  0  0  0  0  0  0  0  0  0  0  0
  1  2  1  0  0  0  0
  1  5  2  0  0  0  0
  2  6  2  0  0  0  0
  3  8  2  0  0  0  0
  3 15  1  0  0  0  0
  4  9  1  0  0  0  0
  4 15  2  0  0  0  0
  5 17  1  0  0  0  0
  6 19  1  0  0  0  0
  7 10  2  0  0  0  0
  7 18  1  0  0  0  0
  8 21  1  0  0  0  0
  9 21  2  0  0  0  0
 10 22  1  0  0  0  0
 11 12  2  0  0  0  0
 11 23  1  0  0  0  0
 12 24  1  0  0  0  0
 13 20  1  0  0  0  0
 13 22  2  0  0  0  0
 14 24  2  0  0  0  0
 14 25  1  0  0  0  0
 15 26  1  0  0  0  0
 16 26  1  0  0  0  0
 16 27  2  0  0  0  0
 16 28  1  0  0  0  0
 17 19  2  0  0  0  0
 17 33  1  0  0  0  0
 18 20  2  0  0  0  0
 18 34  1  0  0  0  0
 19 42  1  0  0  0  0
 20 35  1  0  0  0  0
 21 83  1  0  0  0  0
 22 84  1  0  0  0  0
 23 25  2  0  0  0  0
 23 83  1  0  0  0  0
 24 85  1  0  0  0  0
 25 86  1  0  0  0  0
 26 67  2  0  0  0  0
 27 68  1  0  0  0  0
 27 71  1  0  0  0  0
 28 72  1  0  0  0  0
 28 78  2  0  0  0  0
 29 43  1  0  0  0  0
 29 73  1  0  0  0  0
 29 79  2  0  0  0  0
 30 61  1  0  0  0  0
 30 69  1  0  0  0  0
 30 80  2  0  0  0  0
 31 62  1  0  0  0  0
 31 74  1  0  0  0  0
 31 81  2  0  0  0  0
 32 70  1  0  0  0  0
 32 75  1  0  0  0  0
 32 82  2  0  0  0  0
 33 36  1  0  0  0  0
 34 43  1  0  0  0  0
 35 69  1  0  0  0  0
 36 38  1  0  0  0  0
 37 39  1  0  0  0  0
 37 40  1  0  0  0  0
 38 42  1  0  0  0  0
 39 44  1  0  0  0  0
 40 70  1  0  0  0  0
 41 44  1  0  0  0  0
 41 70  1  0  0  0  0
 42 73  1  0  0  0  0
 43 69  1  0  0  0  0
 44 68  1  0  0  0  0
 45 62  1  0  0  0  0
 46 63  1  0  0  0  0
 47 63  1  0  0  0  0
 48 64  1  0  0  0  0
 49 64  1  0  0  0  0
 50 65  1  0  0  0  0
 51 66  1  0  0  0  0
 52 66  1  0  0  0  0
 53 66  1  0  0  0  0
 54 76  1  0  0  0  0
 55 58  1  0  0  0  0
 55 60  1  0  0  0  0
 56 59  1  0  0  0  0
 56 63  1  0  0  0  0
 57 65  1  0  0  0  0
 57 75  1  0  0  0  0
 58 77  1  0  0  0  0
 59 77  1  0  0  0  0
 60 84  1  0  0  0  0
 61 66  1  0  0  0  0
 61 74  1  0  0  0  0
 62 76  1  0  0  0  0
 64 75  1  0  0  0  0
 65 77  1  0  0  0  0
 67 68  1  0  0  0  0
M  CHG  2  76   1  77   1
M  ISO  4  32 100  60 101  75 100  84 101
M  END
> <Batch ID>
0052

> <Smiles>
CNC(C)C(=O)NC(C(=O)N1Cc2cc([101O:1][101CH2:1]CCN(CCC(C)C)C(C)C[100N:0](C(C)C)[100C:0](=O)N3CCCC(n4nc(-c5ccc(Oc6ccc(F)cc6F)cc5)c(C(N)=O)c4N)C3)ccc2CC1C(=O)NC1CCCc2ccccc21)C(C)(C)C

> <Shape>
0.226

> <Color>
0.109

> <Negative vol penalty>
0.000

$$$$

  -OEChem-04052317363D

 88 97  0     1  0  0  0  0  0999 V2000
  -17.5895  -26.4955   22.1846 C   0  0  0  0  0  0  0  0  0  0  0  0
  -18.8873  -26.0143   22.3244 C   0  0  0  0  0  0  0  0  0  0  0  0
  -26.4501  -27.6083   17.4735 C   0  0  0  0  0  0  0  0  0  0  0  0
  -25.5099  -27.5751   18.4973 C   0  0  0  0  0  0  0  0  0  0  0  0
  -24.1662  -13.2794   20.8448 C   0  0  0  0  0  0  0  0  0  0  0  0
  -26.5415  -13.0687   21.2324 C   0  0  0  0  0  0  0  0  0  0  0  0
  -17.3746  -27.7955   21.7288 C   0  0  0  0  0  0  0  0  0  0  0  0
  -19.9710  -26.8324   22.0074 C   0  0  0  0  0  0  0  0  0  0  0  0
  -25.4315  -26.9476   24.7778 C   0  0  0  0  0  0  0  0  0  0  0  0
  -24.1138  -11.9456   20.4403 C   0  0  0  0  0  0  0  0  0  0  0  0
  -26.4892  -11.7348   20.8279 C   0  0  0  0  0  0  0  0  0  0  0  0
  -26.6586  -26.3687   24.4568 C   0  0  0  0  0  0  0  0  0  0  0  0
  -23.2895   -8.4945   19.6494 C   0  0  0  0  0  0  0  0  0  0  0  0
  -22.2497   -7.7072   20.1438 C   0  0  0  0  0  0  0  0  0  0  0  0
  -27.6441  -26.9090   17.6108 C   0  0  0  0  0  0  0  0  0  0  0  0
  -27.3496  -28.4290   23.4094 C   0  0  0  0  0  0  0  0  0  0  0  0
  -23.0170   -8.1101   22.3991 C   0  0  0  0  0  0  0  0  0  0  0  0
  -25.8092  -26.8339   19.6290 C   0  0  0  0  0  0  0  0  0  0  0  0
  -29.2544  -23.5741   22.0566 C   0  0  0  0  0  0  0  0  0  0  0  0
  -25.3800  -13.8410   21.2409 C   0  0  0  0  0  0  0  0  0  0  0  0
  -25.2665  -15.7192   22.9634 C   0  0  0  0  0  0  0  0  0  0  0  0
  -18.4564  -28.6332   21.4151 C   0  0  0  0  0  0  0  0  0  0  0  0
  -25.1497  -28.2702   24.4068 C   0  0  0  0  0  0  0  0  0  0  0  0
  -19.7704  -28.1444   21.5456 C   0  0  0  0  0  0  0  0  0  0  0  0
  -26.1193  -29.0231   23.7292 C   0  0  0  0  0  0  0  0  0  0  0  0
  -25.2753  -11.1732   20.4318 C   0  0  0  0  0  0  0  0  0  0  0  0
  -27.6168  -27.1085   23.7700 C   0  0  0  0  0  0  0  0  0  0  0  0
  -24.1932   -9.0896   20.5297 C   0  0  0  0  0  0  0  0  0  0  0  0
  -22.1134   -7.5150   21.5187 C   0  0  0  0  0  0  0  0  0  0  0  0
  -24.0569   -8.8974   21.9046 C   0  0  0  0  0  0  0  0  0  0  0  0
  -25.4349  -15.2190   21.6583 C   0  0  0  0  0  0  0  0  0  0  0  0
  -27.8479  -26.1977   18.7823 C   0  0  0  0  0  0  0  0  0  0  0  0
  -29.5732  -24.6817   21.3228 C   0  0  0  0  0  0  0  0  0  0  0  0
  -25.4096  -17.0788   22.8312 C   0  0  0  0  0  0  0  0  0  0  0  0
  -28.4018  -23.3195   20.0296 C   0  0  0  0  0  0  0  0  0  0  0  0
  -25.0043  -15.0176   24.1860 C   0  0  0  0  0  0  0  0  0  0  0  0
  -22.9890  -29.6638   22.5379 C   0  0  0  0  0  0  0  0  0  0  0  0
  -24.3010  -32.3880   23.7127 C   0  0  0  0  0  0  0  0  0  0  0  0
  -28.3151  -20.3120   18.7840 C   0  0  0  0  0  0  0  0  0  0  0  0
  -27.0006  -33.9313   25.1187 C   0  0  0  0  0  0  0  0  0  0  0  0
  -18.1735  -30.0150   20.8810 C   0  0  0  0  0  0  0  0  0  0  0  0
  -23.8315  -28.8887   24.7840 C   0  0  0  0  0  0  0  0  0  0  0  0
  -25.8737  -30.4534   23.3261 C   0  0  0  0  0  0  0  0  0  0  0  0
  -19.3840  -30.9441   20.9233 C   0  0  0  0  0  0  0  0  0  0  0  0
  -24.8070  -20.6273   19.6897 C   0  0  0  0  0  0  0  0  0  0  0  0
  -20.6209  -30.2344   20.3818 C   0  0  0  0  0  0  0  0  0  0  0  0
  -24.5529  -19.2964   20.3962 C   0  0  0  0  0  0  0  0  0  0  0  0
  -25.7905  -20.4699   18.5330 C   0  0  0  0  0  0  0  0  0  0  0  0
  -26.8392  -18.5178   19.6348 C   0  0  0  0  0  0  0  0  0  0  0  0
  -20.9724  -29.0099   21.2354 C   0  0  1  0  0  0  0  0  0  0  0  0
  -23.4558  -30.0775   23.9048 C   0  0  1  0  0  0  0  0  0  0  0  0
  -25.8757  -18.6390   20.8272 C   0  0  2  0  0  0  0  0  0  0  0  0
  -27.7870  -36.1716   25.9310 C   0  0  0  0  0  0  0  0  0  0  0  0
  -29.9261  -21.9697   17.9684 C   0  0  0  0  0  0  0  0  0  0  0  0
  -27.8676  -21.4705   16.6411 C   0  0  0  0  0  0  0  0  0  0  0  0
  -24.7034  -33.2907   20.8259 C   0  0  0  0  0  0  0  0  0  0  0  0
  -26.3030  -35.0245   21.6644 C   0  0  0  0  0  0  0  0  0  0  0  0
  -23.9139  -35.0845   22.3795 C   0  0  0  0  0  0  0  0  0  0  0  0
  -27.3771  -32.9283   27.8776 C   0  0  0  0  0  0  0  0  0  0  0  0
  -29.1288  -25.4294   18.9651 C   0  0  0  0  0  0  0  0  0  0  0  0
  -30.3539  -25.9162   21.7034 C   0  0  0  0  0  0  0  0  0  0  0  0
  -27.6841  -22.7346   18.8697 C   0  0  0  0  0  0  0  0  0  0  0  0
  -29.4616  -27.0141   22.2721 C   0  0  0  0  0  0  0  0  0  1  0  0
  -25.4388  -33.2906   23.3008 C   0  0  1  0  0  0  0  0  0  0  0  0
  -27.1209  -34.8593   26.3141 C   0  0  2  0  0  0  0  0  0  0  0  0
  -28.4297  -21.6292   18.0589 C   0  0  0  0  0  0  0  0  0  0  0  0
  -25.0940  -34.1450   22.0484 C   0  0  0  0  0  0  0  0  0  0  0  0
  -26.9581  -26.1418   19.7985 N   0  0  0  0  0  0  0  0  0  0  0  0
  -25.6670  -16.1824   20.7628 N   0  0  0  0  0  0  0  0  0  0  0  0
  -29.0336  -24.4970   20.0727 N   0  0  0  0  0  0  0  0  0  0  0  0
  -25.6454  -17.3017   21.5064 N   0  0  0  0  0  0  0  0  0  0  0  0
  -28.5294  -22.7483   21.2316 N   0  3  0  0  0  0  0  0  0  0  0  0
  -24.5671  -31.0114   23.7120 N   0  0  0  0  0  0  0  0  0  0  0  0
  -27.0262  -19.8151   18.9788 N   0  0  0  0  0  0  0  0  0  0  0  0
  -25.3553  -18.0935   23.7199 N   0  0  0  0  0  0  0  0  0  0  0  0
  -24.8867  -13.6216   24.1432 N   0  0  0  0  0  0  0  0  0  0  0  0
  -21.6316  -29.4181   22.4574 N   0  0  0  0  0  0  0  0  0  0  0  0
  -25.7862  -34.0741   24.4815 N   0  0  0  0  0  0  0  0  0  0  0  0
  -27.9299  -34.2176   27.3886 N   0  3  0  0  0  0  0  0  0  0  0  0
  -24.8618  -15.6124   25.2812 O   0  0  0  0  0  0  0  0  0  0  0  0
  -23.8000  -29.5757   21.6234 O   0  0  0  0  0  0  0  0  0  0  0  0
  -23.2182  -32.8863   24.0303 O   0  0  0  0  0  0  0  0  0  0  0  0
  -29.3414  -19.7446   19.1674 O   0  0  0  0  0  0  0  0  0  0  0  0
  -27.8960  -33.1598   24.7816 O   0  0  0  0  0  0  0  0  0  0  0  0
  -25.2245   -9.8716   20.0373 O   0  0  0  0  0  0  0  0  0  0  0  0
  -28.8150  -26.5457   23.4548 O   0  0  0  0  0  0  0  0  0  1  0  0
  -21.1139   -6.7602   21.9934 F   0  0  0  0  0  0  0  0  0  0  0  0
  -24.9212   -9.4675   22.7553 F   0  0  0  0  0  0  0  0  0  0  0  0
  1  2  1  0  0  0  0
  1  7  2  0  0  0  0
  2  8  2  0  0  0  0
  3  4  1  0  0  0  0
  3 15  2  0  0  0  0
  4 18  2  0  0  0  0
  5 10  2  0  0  0  0
  5 20  1  0  0  0  0
  6 11  1  0  0  0  0
  6 20  2  0  0  0  0
  7 22  1  0  0  0  0
  8 24  1  0  0  0  0
  9 12  2  0  0  0  0
  9 23  1  0  0  0  0
 10 26  1  0  0  0  0
 11 26  2  0  0  0  0
 12 27  1  0  0  0  0
 13 14  2  0  0  0  0
 13 28  1  0  0  0  0
 14 29  1  0  0  0  0
 15 32  1  0  0  0  0
 16 25  1  0  0  0  0
 16 27  2  0  0  0  0
 17 29  2  0  0  0  0
 17 30  1  0  0  0  0
 18 68  1  0  0  0  0
 19 33  2  0  0  0  0
 19 72  1  0  0  0  0
 20 31  1  0  0  0  0
 21 31  1  0  0  0  0
 21 34  2  0  0  0  0
 21 36  1  0  0  0  0
 22 24  2  0  0  0  0
 22 41  1  0  0  0  0
 23 25  2  0  0  0  0
 23 42  1  0  0  0  0
 24 50  1  0  0  0  0
 25 43  1  0  0  0  0
 26 85  1  0  0  0  0
 27 86  1  0  0  0  0
 28 30  2  0  0  0  0
 28 85  1  0  0  0  0
 29 87  1  0  0  0  0
 30 88  1  0  0  0  0
 31 69  2  0  0  0  0
 32 60  1  0  0  0  0
 32 68  2  0  0  0  0
 33 61  1  0  0  0  0
 33 70  1  0  0  0  0
 34 71  1  0  0  0  0
 34 75  1  0  0  0  0
 35 62  1  0  0  0  0
 35 70  1  0  0  0  0
 35 72  2  0  0  0  0
 36 76  1  0  0  0  0
 36 80  2  0  0  0  0
 37 51  1  0  0  0  0
 37 77  1  0  0  0  0
 37 81  2  0  0  0  0
 38 64  1  0  0  0  0
 38 73  1  0  0  0  0
 38 82  2  0  0  0  0
 39 66  1  0  0  0  0
 39 74  1  0  0  0  0
 39 83  2  0  0  0  0
 40 65  1  0  0  0  0
 40 78  1  0  0  0  0
 40 84  2  0  0  0  0
 41 44  1  0  0  0  0
 42 51  1  0  0  0  0
 43 73  1  0  0  0  0
 44 46  1  0  0  0  0
 45 47  1  0  0  0  0
 45 48  1  0  0  0  0
 46 50  1  0  0  0  0
 47 52  1  0  0  0  0
 48 74  1  0  0  0  0
 49 52  1  0  0  0  0
 49 74  1  0  0  0  0
 50 77  1  0  0  0  0
 51 73  1  0  0  0  0
 52 71  1  0  0  0  0
 53 65  1  0  0  0  0
 54 66  1  0  0  0  0
 55 66  1  0  0  0  0
 56 67  1  0  0  0  0
 57 67  1  0  0  0  0
 58 67  1  0  0  0  0
 59 79  1  0  0  0  0
 60 70  1  0  0  0  0
 61 63  1  0  0  0  0
 62 66  1  0  0  0  0
 63 86  1  0  0  0  0
 64 67  1  0  0  0  0
 64 78  1  0  0  0  0
 65 79  1  0  0  0  0
 69 71  1  0  0  0  0
M  CHG  2  72   1  79   1
M  ISO  4  39 100  63 101  66 100  86 101
M  END
> <Batch ID>
0052

> <Smiles>
CNC(C)C(=O)NC(C(=O)N1Cc2cc([101O:1][101CH2:1]Cc3cnc(C[100C:0](C)(C)[100C:0](=O)N4CCCC(n5nc(-c6ccc(Oc7ccc(F)cc7F)cc6)c(C(N)=O)c5N)C4)n3Cc3ccccn3)ccc2CC1C(=O)NC1CCCc2ccccc21)C(C)(C)C

> <Shape>
0.270

> <Color>
0.090

> <Negative vol penalty>
0.000

$$$$

  -OEChem-04052317363D

 81 89  0     1  0  0  0  0  0999 V2000
  -23.8978  -35.5652   21.3529 C   0  0  0  0  0  0  0  0  0  0  0  0
  -24.4191  -34.3705   20.8692 C   0  0  0  0  0  0  0  0  0  0  0  0
  -27.3040  -12.3844   21.2420 C   0  0  0  0  0  0  0  0  0  0  0  0
  -27.1006  -13.0865   18.9392 C   0  0  0  0  0  0  0  0  0  0  0  0
  -23.0063  -35.5495   22.4235 C   0  0  0  0  0  0  0  0  0  0  0  0
  -24.0399  -33.1589   21.4481 C   0  0  0  0  0  0  0  0  0  0  0  0
  -25.5952  -29.0450   19.2436 C   0  0  0  0  0  0  0  0  0  0  0  0
  -26.4890  -11.2836   20.9784 C   0  0  0  0  0  0  0  0  0  0  0  0
  -26.2856  -11.9856   18.6756 C   0  0  0  0  0  0  0  0  0  0  0  0
  -26.9239  -28.6247   19.2833 C   0  0  0  0  0  0  0  0  0  0  0  0
  -24.1679   -8.4843   20.9964 C   0  0  0  0  0  0  0  0  0  0  0  0
  -23.1579   -8.1892   21.9120 C   0  0  0  0  0  0  0  0  0  0  0  0
  -26.3429  -26.9637   20.9334 C   0  0  0  0  0  0  0  0  0  0  0  0
  -22.1753  -10.3629   21.5286 C   0  0  0  0  0  0  0  0  0  0  0  0
  -29.6424  -24.2027   17.7855 C   0  0  0  0  0  0  0  0  0  0  0  0
  -29.2530  -23.0214   20.1478 C   0  0  0  0  0  0  0  0  0  0  0  0
  -27.6098  -13.2859   20.2224 C   0  0  0  0  0  0  0  0  0  0  0  0
  -29.8536  -14.4880   20.3898 C   0  0  0  0  0  0  0  0  0  0  0  0
  -22.6262  -34.3376   23.0233 C   0  0  0  0  0  0  0  0  0  0  0  0
  -24.6308  -28.4340   20.0579 C   0  0  0  0  0  0  0  0  0  0  0  0
  -23.1229  -33.1205   22.5140 C   0  0  0  0  0  0  0  0  0  0  0  0
  -25.0021  -27.3764   20.9003 C   0  0  0  0  0  0  0  0  0  0  0  0
  -25.9798  -11.0842   19.6952 C   0  0  0  0  0  0  0  0  0  0  0  0
  -27.2985  -27.5859   20.1304 C   0  0  0  0  0  0  0  0  0  0  0  0
  -24.1817   -9.7188   20.3469 C   0  0  0  0  0  0  0  0  0  0  0  0
  -22.1616   -9.1285   22.1781 C   0  0  0  0  0  0  0  0  0  0  0  0
  -23.1854  -10.6580   20.6130 C   0  0  0  0  0  0  0  0  0  0  0  0
  -28.4512  -14.4236   20.4942 C   0  0  0  0  0  0  0  0  0  0  0  0
  -29.9260  -24.8582   18.9634 C   0  0  0  0  0  0  0  0  0  0  0  0
  -28.9686  -22.3661   18.9700 C   0  0  0  0  0  0  0  0  0  0  0  0
  -30.1662  -15.7750   20.7536 C   0  0  0  0  0  0  0  0  0  0  0  0
  -30.7899  -13.4751   19.9987 C   0  0  0  0  0  0  0  0  0  0  0  0
  -22.7219  -29.4206   22.4002 C   0  0  0  0  0  0  0  0  0  0  0  0
  -21.5202  -26.4173   22.1590 C   0  0  0  0  0  0  0  0  0  0  0  0
  -22.0020  -23.1703   21.2253 C   0  0  0  0  0  0  0  0  0  0  0  0
  -26.5683  -20.7336   20.6785 C   0  0  0  0  0  0  0  0  0  0  0  0
  -21.6521  -34.3779   24.1742 C   0  0  0  0  0  0  0  0  0  0  0  0
  -23.1966  -28.8812   19.9837 C   0  0  0  0  0  0  0  0  0  0  0  0
  -24.0012  -26.6739   21.7795 C   0  0  0  0  0  0  0  0  0  0  0  0
  -21.6554  -33.0963   25.0012 C   0  0  0  0  0  0  0  0  0  0  0  0
  -28.6144  -19.3961   23.4581 C   0  0  0  0  0  0  0  0  0  0  0  0
  -21.5385  -31.8868   24.0858 C   0  0  0  0  0  0  0  0  0  0  0  0
  -28.8580  -17.9508   23.0270 C   0  0  0  0  0  0  0  0  0  0  0  0
  -27.3049  -19.9423   22.8973 C   0  0  0  0  0  0  0  0  0  0  0  0
  -27.4297  -18.3766   20.9875 C   0  0  0  0  0  0  0  0  0  0  0  0
  -22.7485  -31.7928   23.1477 C   0  0  1  0  0  0  0  0  0  0  0  0
  -22.3960  -28.5308   21.2341 C   0  0  1  0  0  0  0  0  0  0  0  0
  -28.7638  -17.8113   21.4976 C   0  0  2  0  0  0  0  0  0  0  0  0
  -20.8518  -20.9403   21.1866 C   0  0  0  0  0  0  0  0  0  0  0  0
  -22.0107  -26.1149   25.1553 C   0  0  0  0  0  0  0  0  0  0  0  0
  -21.7555  -23.6400   24.8767 C   0  0  0  0  0  0  0  0  0  0  0  0
  -19.8456  -25.1560   24.3506 C   0  0  0  0  0  0  0  0  0  0  0  0
  -26.0868  -21.3765   18.3473 C   0  0  0  0  0  0  0  0  0  0  0  0
  -22.1580  -23.0110   18.2742 C   0  0  0  0  0  0  0  0  0  0  0  0
  -30.4672  -26.2671   18.9453 C   0  0  0  0  0  0  0  0  0  0  0  0
  -28.4352  -20.9764   18.9878 C   0  0  0  0  0  0  0  0  0  0  0  0
  -29.3593  -27.3143   18.9747 C   0  0  0  0  0  0  0  0  0  1  0  0
  -21.8367  -25.0849   22.7942 C   0  0  1  0  0  0  0  0  0  0  0  0
  -21.1429  -22.2174   20.4139 C   0  0  2  0  0  0  0  0  0  0  0  0
  -21.3816  -25.0133   24.2792 C   0  0  0  0  0  0  0  0  0  0  0  0
  -29.7367  -24.2793   20.1656 N   0  0  0  0  0  0  0  0  0  0  0  0
  -29.1583  -22.9450   17.7677 N   0  0  0  0  0  0  0  0  0  0  0  0
  -27.9103  -15.5778   20.8933 N   0  0  0  0  0  0  0  0  0  0  0  0
  -28.9784  -16.3796   21.0430 N   0  0  0  0  0  0  0  0  0  0  0  0
  -22.6125  -27.1516   21.6758 N   0  0  0  0  0  0  0  0  0  0  0  0
  -27.2231  -19.7579   21.4480 N   0  0  0  0  0  0  0  0  0  0  0  0
  -31.3386  -16.4371   20.8512 N   0  0  0  0  0  0  0  0  0  0  0  0
  -30.2991  -12.2077   19.6565 N   0  0  0  0  0  0  0  0  0  0  0  0
  -22.5025  -30.7638   22.1615 N   0  0  0  0  0  0  0  0  0  0  0  0
  -21.2357  -24.0701   21.9354 N   0  0  0  0  0  0  0  0  0  0  0  0
  -27.0245  -20.9250   19.3655 N   0  0  0  0  0  0  0  0  0  0  0  0
  -21.8323  -21.8517   19.1443 N   0  3  0  0  0  0  0  0  0  0  0  0
  -32.0267  -13.6828   19.9699 O   0  0  0  0  0  0  0  0  0  0  0  0
  -23.1399  -28.9250   23.4401 O   0  0  0  0  0  0  0  0  0  0  0  0
  -20.3463  -26.7894   22.0874 O   0  0  0  0  0  0  0  0  0  0  0  0
  -23.2299  -23.1189   21.2317 O   0  0  0  0  0  0  0  0  0  0  0  0
  -25.6358  -21.4025   21.1420 O   0  0  0  0  0  0  0  0  0  0  0  0
  -25.1847  -10.0099   19.4376 O   0  0  0  0  0  0  0  0  0  0  0  0
  -28.5949  -27.1741   20.1716 O   0  0  0  0  0  0  0  0  0  1  0  0
  -21.1908   -8.8443   23.0562 F   0  0  0  0  0  0  0  0  0  0  0  0
  -23.1926  -11.8451   19.9913 F   0  0  0  0  0  0  0  0  0  0  0  0
  1  2  1  0  0  0  0
  1  5  2  0  0  0  0
  2  6  2  0  0  0  0
  3  8  2  0  0  0  0
  3 17  1  0  0  0  0
  4  9  1  0  0  0  0
  4 17  2  0  0  0  0
  5 19  1  0  0  0  0
  6 21  1  0  0  0  0
  7 10  2  0  0  0  0
  7 20  1  0  0  0  0
  8 23  1  0  0  0  0
  9 23  2  0  0  0  0
 10 24  1  0  0  0  0
 11 12  2  0  0  0  0
 11 25  1  0  0  0  0
 12 26  1  0  0  0  0
 13 22  1  0  0  0  0
 13 24  2  0  0  0  0
 14 26  2  0  0  0  0
 14 27  1  0  0  0  0
 15 29  1  0  0  0  0
 15 62  2  0  0  0  0
 16 30  2  0  0  0  0
 16 61  1  0  0  0  0
 17 28  1  0  0  0  0
 18 28  1  0  0  0  0
 18 31  2  0  0  0  0
 18 32  1  0  0  0  0
 19 21  2  0  0  0  0
 19 37  1  0  0  0  0
 20 22  2  0  0  0  0
 20 38  1  0  0  0  0
 21 46  1  0  0  0  0
 22 39  1  0  0  0  0
 23 78  1  0  0  0  0
 24 79  1  0  0  0  0
 25 27  2  0  0  0  0
 25 78  1  0  0  0  0
 26 80  1  0  0  0  0
 27 81  1  0  0  0  0
 28 63  2  0  0  0  0
 29 55  1  0  0  0  0
 29 61  2  0  0  0  0
 30 56  1  0  0  0  0
 30 62  1  0  0  0  0
 31 64  1  0  0  0  0
 31 67  1  0  0  0  0
 32 68  1  0  0  0  0
 32 73  2  0  0  0  0
 33 47  1  0  0  0  0
 33 69  1  0  0  0  0
 33 74  2  0  0  0  0
 34 58  1  0  0  0  0
 34 65  1  0  0  0  0
 34 75  2  0  0  0  0
 35 59  1  0  0  0  0
 35 70  1  0  0  0  0
 35 76  2  0  0  0  0
 36 66  1  0  0  0  0
 36 71  1  0  0  0  0
 36 77  2  0  0  0  0
 37 40  1  0  0  0  0
 38 47  1  0  0  0  0
 39 65  1  0  0  0  0
 40 42  1  0  0  0  0
 41 43  1  0  0  0  0
 41 44  1  0  0  0  0
 42 46  1  0  0  0  0
 43 48  1  0  0  0  0
 44 66  1  0  0  0  0
 45 48  1  0  0  0  0
 45 66  1  0  0  0  0
 46 69  1  0  0  0  0
 47 65  1  0  0  0  0
 48 64  1  0  0  0  0
 49 59  1  0  0  0  0
 50 60  1  0  0  0  0
 51 60  1  0  0  0  0
 52 60  1  0  0  0  0
 53 71  1  0  0  0  0
 54 72  1  0  0  0  0
 55 57  1  0  0  0  0
 56 71  1  0  0  0  0
 57 79  1  0  0  0  0
 58 60  1  0  0  0  0
 58 70  1  0  0  0  0
 59 72  1  0  0  0  0
 63 64  1  0  0  0  0
M  CHG  1  72   1
M  ISO  4  36 100  57 101  71 100  79 101
M  END
> <Batch ID>
0052

> <Smiles>
CNC(C)C(=O)NC(C(=O)N1Cc2cc([101O:1][101CH2:1]Cc3cnc(C[100N:0](C)[100C:0](=O)N4CCCC(n5nc(-c6ccc(Oc7ccc(F)cc7F)cc6)c(C(N)=O)c5N)C4)cn3)ccc2CC1C(=O)NC1CCCc2ccccc21)C(C)(C)C

> <Shape>
0.262

> <Color>
0.088

> <Negative vol penalty>
0.000

$$$$

  -OEChem-04052317363D

 86 94  0     1  0  0  0  0  0999 V2000
  -31.6659  -32.0812   14.7548 C   0  0  0  0  0  0  0  0  0  0  0  0
  -31.2721  -30.7488   14.6833 C   0  0  0  0  0  0  0  0  0  0  0  0
  -19.8871  -15.6763   22.8457 C   0  0  0  0  0  0  0  0  0  0  0  0
  -20.3524  -17.3279   21.1450 C   0  0  0  0  0  0  0  0  0  0  0  0
  -31.7109  -32.7283   15.9889 C   0  0  0  0  0  0  0  0  0  0  0  0
  -30.9242  -30.0624   15.8461 C   0  0  0  0  0  0  0  0  0  0  0  0
  -26.5191  -24.9217   18.1881 C   0  0  0  0  0  0  0  0  0  0  0  0
  -19.2891  -16.6581   23.6356 C   0  0  0  0  0  0  0  0  0  0  0  0
  -19.7543  -18.3098   21.9348 C   0  0  0  0  0  0  0  0  0  0  0  0
  -26.5442  -23.7251   18.9031 C   0  0  0  0  0  0  0  0  0  0  0  0
  -20.5784  -20.1899   24.6212 C   0  0  0  0  0  0  0  0  0  0  0  0
  -21.2405  -21.4109   24.7492 C   0  0  0  0  0  0  0  0  0  0  0  0
  -26.5834  -24.9680   20.9702 C   0  0  0  0  0  0  0  0  0  0  0  0
  -19.3360  -22.5443   23.7872 C   0  0  0  0  0  0  0  0  0  0  0  0
  -29.1567  -16.0458   21.0196 C   0  0  0  0  0  0  0  0  0  0  0  0
  -20.4189  -16.0112   21.6004 C   0  0  0  0  0  0  0  0  0  0  0  0
  -20.4119  -14.1827   19.8216 C   0  0  0  0  0  0  0  0  0  0  0  0
  -31.3540  -32.0523   17.1663 C   0  0  0  0  0  0  0  0  0  0  0  0
  -26.5370  -26.1526   18.8597 C   0  0  0  0  0  0  0  0  0  0  0  0
  -30.9657  -30.7007   17.0973 C   0  0  0  0  0  0  0  0  0  0  0  0
  -26.5559  -26.1788   20.2615 C   0  0  0  0  0  0  0  0  0  0  0  0
  -19.2226  -17.9748   23.1802 C   0  0  0  0  0  0  0  0  0  0  0  0
  -26.5793  -23.7481   20.2943 C   0  0  0  0  0  0  0  0  0  0  0  0
  -19.2952  -20.1460   24.0762 C   0  0  0  0  0  0  0  0  0  0  0  0
  -20.6193  -22.5881   24.3322 C   0  0  0  0  0  0  0  0  0  0  0  0
  -18.6740  -21.3232   23.6592 C   0  0  0  0  0  0  0  0  0  0  0  0
  -21.0373  -14.9975   20.7842 C   0  0  0  0  0  0  0  0  0  0  0  0
  -29.8276  -17.2125   21.3250 C   0  0  0  0  0  0  0  0  0  0  0  0
  -29.9319  -15.0306   20.4975 C   0  0  0  0  0  0  0  0  0  0  0  0
  -21.4230  -13.3934   19.3306 C   0  0  0  0  0  0  0  0  0  0  0  0
  -31.7981  -16.3221   20.6241 C   0  0  0  0  0  0  0  0  0  0  0  0
  -19.0396  -14.1428   19.4081 C   0  0  0  0  0  0  0  0  0  0  0  0
  -28.5229  -28.6331   18.9441 C   0  0  0  0  0  0  0  0  0  0  0  0
  -26.1762  -29.9527   20.7536 C   0  0  0  0  0  0  0  0  0  0  0  0
  -23.4970  -29.4836   22.8148 C   0  0  0  0  0  0  0  0  0  0  0  0
  -27.1562  -14.0955   18.8353 C   0  0  0  0  0  0  0  0  0  0  0  0
  -31.4638  -32.7799   18.4829 C   0  0  0  0  0  0  0  0  0  0  0  0
  -26.4826  -27.4344   18.0745 C   0  0  0  0  0  0  0  0  0  0  0  0
  -26.5558  -27.4738   21.0305 C   0  0  0  0  0  0  0  0  0  0  0  0
  -30.7195  -32.0907   19.6236 C   0  0  0  0  0  0  0  0  0  0  0  0
  -25.6019  -11.4423   20.5720 C   0  0  0  0  0  0  0  0  0  0  0  0
  -31.0237  -30.5960   19.6334 C   0  0  0  0  0  0  0  0  0  0  0  0
  -24.1819  -11.9811   20.7397 C   0  0  0  0  0  0  0  0  0  0  0  0
  -26.6572  -12.5318   20.7711 C   0  0  0  0  0  0  0  0  0  0  0  0
  -25.0290  -14.2667   20.0915 C   0  0  0  0  0  0  0  0  0  0  0  0
  -30.5570  -29.9295   18.3336 C   0  0  1  0  0  0  0  0  0  0  0  0
  -27.0234  -28.6326   18.8485 C   0  0  1  0  0  0  0  0  0  0  0  0
  -23.9478  -13.2050   19.8374 C   0  0  2  0  0  0  0  0  0  0  0  0
  -33.2658  -16.4737   20.4076 C   0  0  0  0  0  0  0  0  0  0  0  0
  -21.8070  -30.7522   24.1683 C   0  0  0  0  0  0  0  0  0  0  0  0
  -29.8488  -15.2850   17.4519 C   0  0  0  0  0  0  0  0  0  0  0  0
  -30.4570  -12.8608   17.7297 C   0  0  0  0  0  0  0  0  0  0  0  0
  -28.2982  -30.5134   22.8732 C   0  0  0  0  0  0  0  0  0  0  0  0
  -26.4522  -30.8840   24.5234 C   0  0  0  0  0  0  0  0  0  0  0  0
  -26.6544  -32.3661   22.5270 C   0  0  0  0  0  0  0  0  0  0  0  0
  -21.2413  -28.3725   21.2540 C   0  0  0  0  0  0  0  0  0  0  0  0
  -29.0653  -18.3789   21.9014 C   0  0  0  0  0  0  0  0  0  0  0  0
  -29.2949  -13.7300   20.1381 C   0  0  0  0  0  0  0  0  0  0  0  0
  -28.5082  -19.3380   20.8435 C   0  0  0  0  0  0  0  0  0  0  0  0
  -27.8055  -20.5541   21.4487 C   0  0  0  0  0  0  0  0  0  0  0  0
  -27.2314  -21.4623   20.3697 C   0  0  0  0  0  0  0  0  0  1  0  0
  -25.8544  -29.9864   22.2281 C   0  0  1  0  0  0  0  0  0  0  0  0
  -22.1130  -30.1072   22.8255 C   0  0  2  0  0  0  0  0  0  0  0  0
  -29.3204  -13.8736   17.6755 C   0  0  0  0  0  0  0  0  0  0  0  0
  -26.8168  -30.9129   23.0237 C   0  0  0  0  0  0  0  0  0  0  0  0
  -22.3445  -14.7487   20.8996 N   0  0  0  0  0  0  0  0  0  0  0  0
  -31.1527  -17.3857   21.1395 N   0  0  0  0  0  0  0  0  0  0  0  0
  -31.2602  -15.1348   20.2856 N   0  0  0  0  0  0  0  0  0  0  0  0
  -22.5487  -13.7686   20.0030 N   0  0  0  0  0  0  0  0  0  0  0  0
  -26.5082  -28.7004   20.2175 N   0  0  0  0  0  0  0  0  0  0  0  0
  -26.3697  -13.6997   19.9271 N   0  0  0  0  0  0  0  0  0  0  0  0
  -21.4502  -12.4220   18.3936 N   0  0  0  0  0  0  0  0  0  0  0  0
  -18.1330  -15.0224   20.0154 N   0  0  0  0  0  0  0  0  0  0  0  0
  -29.1239  -29.7290   18.3547 N   0  0  0  0  0  0  0  0  0  0  0  0
  -24.4472  -30.3575   22.3304 N   0  0  0  0  0  0  0  0  0  0  0  0
  -28.5288  -13.8116   18.8961 N   0  0  0  0  0  0  0  0  0  0  0  0
  -21.0762  -29.0717   22.5543 N   0  3  0  0  0  0  0  0  0  0  0  0
  -18.6263  -13.3394   18.5380 O   0  0  0  0  0  0  0  0  0  0  0  0
  -29.0924  -27.7084   19.5119 O   0  0  0  0  0  0  0  0  0  0  0  0
  -26.1277  -30.9977   20.0999 O   0  0  0  0  0  0  0  0  0  0  0  0
  -23.7141  -28.3373   23.2012 O   0  0  0  0  0  0  0  0  0  0  0  0
  -26.6616  -14.6784   17.8617 O   0  0  0  0  0  0  0  0  0  0  0  0
  -18.6389  -18.9331   23.9506 O   0  0  0  0  0  0  0  0  0  0  0  0
  -26.6045  -22.5816   20.9946 O   0  0  0  0  0  0  0  0  0  1  0  0
  -21.2546  -23.7608   24.4566 F   0  0  0  0  0  0  0  0  0  0  0  0
  -17.4408  -21.2876   23.1360 F   0  0  0  0  0  0  0  0  0  0  0  0
  1  2  1  0  0  0  0
  1  5  2  0  0  0  0
  2  6  2  0  0  0  0
  3  8  2  0  0  0  0
  3 16  1  0  0  0  0
  4  9  1  0  0  0  0
  4 16  2  0  0  0  0
  5 18  1  0  0  0  0
  6 20  1  0  0  0  0
  7 10  2  0  0  0  0
  7 19  1  0  0  0  0
  8 22  1  0  0  0  0
  9 22  2  0  0  0  0
 10 23  1  0  0  0  0
 11 12  2  0  0  0  0
 11 24  1  0  0  0  0
 12 25  1  0  0  0  0
 13 21  1  0  0  0  0
 13 23  2  0  0  0  0
 14 25  2  0  0  0  0
 14 26  1  0  0  0  0
 15 28  1  0  0  0  0
 15 29  2  0  0  0  0
 16 27  1  0  0  0  0
 17 27  1  0  0  0  0
 17 30  2  0  0  0  0
 17 32  1  0  0  0  0
 18 20  2  0  0  0  0
 18 37  1  0  0  0  0
 19 21  2  0  0  0  0
 19 38  1  0  0  0  0
 20 46  1  0  0  0  0
 21 39  1  0  0  0  0
 22 83  1  0  0  0  0
 23 84  1  0  0  0  0
 24 26  2  0  0  0  0
 24 83  1  0  0  0  0
 25 85  1  0  0  0  0
 26 86  1  0  0  0  0
 27 66  2  0  0  0  0
 28 57  1  0  0  0  0
 28 67  2  0  0  0  0
 29 58  1  0  0  0  0
 29 68  1  0  0  0  0
 30 69  1  0  0  0  0
 30 72  1  0  0  0  0
 31 49  1  0  0  0  0
 31 67  1  0  0  0  0
 31 68  2  0  0  0  0
 32 73  1  0  0  0  0
 32 78  2  0  0  0  0
 33 47  1  0  0  0  0
 33 74  1  0  0  0  0
 33 79  2  0  0  0  0
 34 62  1  0  0  0  0
 34 70  1  0  0  0  0
 34 80  2  0  0  0  0
 35 63  1  0  0  0  0
 35 75  1  0  0  0  0
 35 81  2  0  0  0  0
 36 71  1  0  0  0  0
 36 76  1  0  0  0  0
 36 82  2  0  0  0  0
 37 40  1  0  0  0  0
 38 47  1  0  0  0  0
 39 70  1  0  0  0  0
 40 42  1  0  0  0  0
 41 43  1  0  0  0  0
 41 44  1  0  0  0  0
 42 46  1  0  0  0  0
 43 48  1  0  0  0  0
 44 71  1  0  0  0  0
 45 48  1  0  0  0  0
 45 71  1  0  0  0  0
 46 74  1  0  0  0  0
 47 70  1  0  0  0  0
 48 69  1  0  0  0  0
 50 63  1  0  0  0  0
 51 64  1  0  0  0  0
 52 64  1  0  0  0  0
 53 65  1  0  0  0  0
 54 65  1  0  0  0  0
 55 65  1  0  0  0  0
 56 77  1  0  0  0  0
 57 59  1  0  0  0  0
 58 76  1  0  0  0  0
 59 60  1  0  0  0  0
 60 61  1  0  0  0  0
 61 84  1  0  0  0  0
 62 65  1  0  0  0  0
 62 75  1  0  0  0  0
 63 77  1  0  0  0  0
 64 76  1  0  0  0  0
 66 69  1  0  0  0  0
M  CHG  1  77   1
M  ISO  4  36 100  61 101  76 100  84 101
M  END
> <Batch ID>
0052

> <Smiles>
CNC(C)C(=O)NC(C(=O)N1Cc2cc([101O:1][101CH2:1]CCCc3cc(C[100N:0](C(C)C)[100C:0](=O)N4CCCC(n5nc(-c6ccc(Oc7ccc(F)cc7F)cc6)c(C(N)=O)c5N)C4)nc(C)n3)ccc2CC1C(=O)NC1CCCc2ccccc21)C(C)(C)C

> <Shape>
0.204

> <Color>
0.086

> <Negative vol penalty>
0.000

$$$$

  -OEChem-04052317363D

 84 92  0     1  0  0  0  0  0999 V2000
  -24.2518   -8.2473   21.4940 C   0  0  0  0  0  0  0  0  0  0  0  0
  -24.7776   -9.4383   21.0036 C   0  0  0  0  0  0  0  0  0  0  0  0
  -21.1842  -29.8587   19.8666 C   0  0  0  0  0  0  0  0  0  0  0  0
  -21.7750  -27.9037   21.1572 C   0  0  0  0  0  0  0  0  0  0  0  0
  -22.8915   -8.1550   21.7856 C   0  0  0  0  0  0  0  0  0  0  0  0
  -23.9431  -10.5374   20.8036 C   0  0  0  0  0  0  0  0  0  0  0  0
  -25.9646  -14.8500   22.5240 C   0  0  0  0  0  0  0  0  0  0  0  0
  -19.8931  -29.3582   19.6993 C   0  0  0  0  0  0  0  0  0  0  0  0
  -20.4838  -27.4031   20.9900 C   0  0  0  0  0  0  0  0  0  0  0  0
  -26.9401  -15.4559   21.7334 C   0  0  0  0  0  0  0  0  0  0  0  0
  -18.7156  -25.8282   18.5767 C   0  0  0  0  0  0  0  0  0  0  0  0
  -18.5815  -24.4831   18.2330 C   0  0  0  0  0  0  0  0  0  0  0  0
  -25.2891  -16.9991   20.8895 C   0  0  0  0  0  0  0  0  0  0  0  0
  -17.3154  -24.0930   20.2534 C   0  0  0  0  0  0  0  0  0  0  0  0
  -29.9038  -23.0835   19.8361 C   0  0  0  0  0  0  0  0  0  0  0  0
  -22.1252  -29.1315   20.5955 C   0  0  0  0  0  0  0  0  0  0  0  0
  -23.9227  -30.4746   21.8089 C   0  0  0  0  0  0  0  0  0  0  0  0
  -22.0417   -9.2565   21.5982 C   0  0  0  0  0  0  0  0  0  0  0  0
  -24.6395  -15.3080   22.4951 C   0  0  0  0  0  0  0  0  0  0  0  0
  -22.5699  -10.4593   21.0917 C   0  0  0  0  0  0  0  0  0  0  0  0
  -24.2992  -16.3990   21.6827 C   0  0  0  0  0  0  0  0  0  0  0  0
  -19.5429  -28.1304   20.2610 C   0  0  0  0  0  0  0  0  0  0  0  0
  -26.6018  -16.5287   20.9138 C   0  0  0  0  0  0  0  0  0  0  0  0
  -18.1497  -26.3058   19.7588 C   0  0  0  0  0  0  0  0  0  0  0  0
  -17.8814  -23.6155   19.0713 C   0  0  0  0  0  0  0  0  0  0  0  0
  -17.4496  -25.4382   20.5971 C   0  0  0  0  0  0  0  0  0  0  0  0
  -23.4593  -29.6477   20.7681 C   0  0  0  0  0  0  0  0  0  0  0  0
  -29.3414  -24.3041   20.1497 C   0  0  0  0  0  0  0  0  0  0  0  0
  -29.2278  -21.9762   20.3062 C   0  0  0  0  0  0  0  0  0  0  0  0
  -25.2489  -30.6822   21.5179 C   0  0  0  0  0  0  0  0  0  0  0  0
  -27.6414  -23.2903   21.2674 C   0  0  0  0  0  0  0  0  0  0  0  0
  -23.2176  -31.0074   22.9379 C   0  0  0  0  0  0  0  0  0  0  0  0
  -21.8430  -14.0335   21.6832 C   0  0  0  0  0  0  0  0  0  0  0  0
  -20.6755  -16.8361   22.8254 C   0  0  0  0  0  0  0  0  0  0  0  0
  -21.2250  -20.1283   23.5371 C   0  0  0  0  0  0  0  0  0  0  0  0
  -29.2757  -27.5462   18.3872 C   0  0  0  0  0  0  0  0  0  0  0  0
  -20.5695   -9.0943   21.8829 C   0  0  0  0  0  0  0  0  0  0  0  0
  -23.6047  -14.6608   23.3741 C   0  0  0  0  0  0  0  0  0  0  0  0
  -22.8952  -16.9415   21.6307 C   0  0  0  0  0  0  0  0  0  0  0  0
  -19.8215  -10.4201   21.9970 C   0  0  0  0  0  0  0  0  0  0  0  0
  -28.2793  -30.9175   17.8230 C   0  0  0  0  0  0  0  0  0  0  0  0
  -20.2046  -11.3496   20.8498 C   0  0  0  0  0  0  0  0  0  0  0  0
  -26.9728  -31.0489   18.6077 C   0  0  0  0  0  0  0  0  0  0  0  0
  -28.4188  -29.5363   17.1866 C   0  0  0  0  0  0  0  0  0  0  0  0
  -26.9638  -28.5371   18.9066 C   0  0  0  0  0  0  0  0  0  0  0  0
  -21.7014  -11.6812   20.8848 C   0  0  1  0  0  0  0  0  0  0  0  0
  -22.1785  -14.8797   22.8787 C   0  0  1  0  0  0  0  0  0  0  0  0
  -26.8040  -29.8941   19.6132 C   0  0  2  0  0  0  0  0  0  0  0  0
  -26.3850  -23.4051   22.0622 C   0  0  0  0  0  0  0  0  0  0  0  0
  -31.0319  -26.0972   20.6869 C   0  0  0  0  0  0  0  0  0  0  0  0
  -20.0699  -22.1708   24.4266 C   0  0  0  0  0  0  0  0  0  0  0  0
  -19.2267  -17.1740   20.1614 C   0  0  0  0  0  0  0  0  0  0  0  0
  -18.8935  -19.5897   20.7285 C   0  0  0  0  0  0  0  0  0  0  0  0
  -17.8832  -17.8213   22.1690 C   0  0  0  0  0  0  0  0  0  0  0  0
  -23.1017  -20.3393   25.8157 C   0  0  0  0  0  0  0  0  0  0  0  0
  -29.6452  -18.3211   20.1158 C   0  0  0  0  0  0  0  0  0  0  0  0
  -28.8918  -17.1048   20.6311 C   0  0  0  0  0  0  0  0  0  1  0  0
  -28.9861  -19.6224   20.5452 C   0  0  0  0  0  0  0  0  0  0  0  0
  -30.0010  -25.5587   19.6845 C   0  0  2  0  0  0  0  0  0  0  0  0
  -20.3832  -18.1933   22.2326 C   0  0  1  0  0  0  0  0  0  0  0  0
  -20.9183  -20.9568   24.7716 C   0  0  2  0  0  0  0  0  0  0  0  0
  -19.1228  -18.1834   21.3222 C   0  0  0  0  0  0  0  0  0  0  0  0
  -24.4134  -29.3505   19.8820 N   0  0  0  0  0  0  0  0  0  0  0  0
  -28.2069  -24.4447   20.8661 N   0  0  0  0  0  0  0  0  0  0  0  0
  -28.0897  -22.0432   21.0278 N   0  0  0  0  0  0  0  0  0  0  0  0
  -25.4897  -29.9942   20.3652 N   0  0  0  0  0  0  0  0  0  0  0  0
  -21.9177  -16.2709   22.5038 N   0  0  0  0  0  0  0  0  0  0  0  0
  -28.2499  -28.4860   18.1937 N   0  0  0  0  0  0  0  0  0  0  0  0
  -26.2208  -31.3845   22.1381 N   0  0  0  0  0  0  0  0  0  0  0  0
  -21.8592  -30.6951   23.0853 N   0  0  0  0  0  0  0  0  0  0  0  0
  -21.9753  -12.6753   21.9003 N   0  0  0  0  0  0  0  0  0  0  0  0
  -20.3015  -19.1205   23.3560 N   0  0  0  0  0  0  0  0  0  0  0  0
  -29.0375  -26.5886   19.3655 N   0  0  0  0  0  0  0  0  0  0  0  0
  -22.1817  -21.4307   25.4043 N   0  3  0  0  0  0  0  0  0  0  0  0
  -23.7714  -31.7520   23.7819 O   0  0  0  0  0  0  0  0  0  0  0  0
  -21.4890  -14.5729   20.6414 O   0  0  0  0  0  0  0  0  0  0  0  0
  -19.8357  -16.3004   23.5530 O   0  0  0  0  0  0  0  0  0  0  0  0
  -22.1854  -20.3549   22.8044 O   0  0  0  0  0  0  0  0  0  0  0  0
  -30.3283  -27.5628   17.7402 O   0  0  0  0  0  0  0  0  0  0  0  0
  -18.2830  -27.6417   20.0982 O   0  0  0  0  0  0  0  0  0  0  0  0
  -27.5519  -17.1214   20.1405 O   0  0  0  0  0  0  0  0  0  1  0  0
  -29.7224  -20.7267   20.0369 O   0  0  0  0  0  0  0  0  0  0  0  0
  -17.7514  -22.3241   18.7404 F   0  0  0  0  0  0  0  0  0  0  0  0
  -16.9027  -25.8915   21.7335 F   0  0  0  0  0  0  0  0  0  0  0  0
  1  2  1  0  0  0  0
  1  5  2  0  0  0  0
  2  6  2  0  0  0  0
  3  8  2  0  0  0  0
  3 16  1  0  0  0  0
  4  9  1  0  0  0  0
  4 16  2  0  0  0  0
  5 18  1  0  0  0  0
  6 20  1  0  0  0  0
  7 10  2  0  0  0  0
  7 19  1  0  0  0  0
  8 22  1  0  0  0  0
  9 22  2  0  0  0  0
 10 23  1  0  0  0  0
 11 12  2  0  0  0  0
 11 24  1  0  0  0  0
 12 25  1  0  0  0  0
 13 21  1  0  0  0  0
 13 23  2  0  0  0  0
 14 25  2  0  0  0  0
 14 26  1  0  0  0  0
 15 28  2  0  0  0  0
 15 29  1  0  0  0  0
 16 27  1  0  0  0  0
 17 27  1  0  0  0  0
 17 30  2  0  0  0  0
 17 32  1  0  0  0  0
 18 20  2  0  0  0  0
 18 37  1  0  0  0  0
 19 21  2  0  0  0  0
 19 38  1  0  0  0  0
 20 46  1  0  0  0  0
 21 39  1  0  0  0  0
 22 80  1  0  0  0  0
 23 81  1  0  0  0  0
 24 26  2  0  0  0  0
 24 80  1  0  0  0  0
 25 83  1  0  0  0  0
 26 84  1  0  0  0  0
 27 63  2  0  0  0  0
 28 59  1  0  0  0  0
 28 64  1  0  0  0  0
 29 65  2  0  0  0  0
 29 82  1  0  0  0  0
 30 66  1  0  0  0  0
 30 69  1  0  0  0  0
 31 49  1  0  0  0  0
 31 64  2  0  0  0  0
 31 65  1  0  0  0  0
 32 70  1  0  0  0  0
 32 75  2  0  0  0  0
 33 47  1  0  0  0  0
 33 71  1  0  0  0  0
 33 76  2  0  0  0  0
 34 60  1  0  0  0  0
 34 67  1  0  0  0  0
 34 77  2  0  0  0  0
 35 61  1  0  0  0  0
 35 72  1  0  0  0  0
 35 78  2  0  0  0  0
 36 68  1  0  0  0  0
 36 73  1  0  0  0  0
 36 79  2  0  0  0  0
 37 40  1  0  0  0  0
 38 47  1  0  0  0  0
 39 67  1  0  0  0  0
 40 42  1  0  0  0  0
 41 43  1  0  0  0  0
 41 44  1  0  0  0  0
 42 46  1  0  0  0  0
 43 48  1  0  0  0  0
 44 68  1  0  0  0  0
 45 48  1  0  0  0  0
 45 68  1  0  0  0  0
 46 71  1  0  0  0  0
 47 67  1  0  0  0  0
 48 66  1  0  0  0  0
 50 59  1  0  0  0  0
 51 61  1  0  0  0  0
 52 62  1  0  0  0  0
 53 62  1  0  0  0  0
 54 62  1  0  0  0  0
 55 74  1  0  0  0  0
 56 57  1  0  0  0  0
 56 58  1  0  0  0  0
 57 81  1  0  0  0  0
 58 82  1  0  0  0  0
 59 73  1  0  0  0  0
 60 62  1  0  0  0  0
 60 72  1  0  0  0  0
 61 74  1  0  0  0  0
 63 66  1  0  0  0  0
M  CHG  1  74   1
M  ISO  4  36 100  57 101  73 100  81 101
M  END
> <Batch ID>
0052

> <Smiles>
CNC(C)C(=O)NC(C(=O)N1Cc2cc([101O:1][101CH2:1]CCOc3cc(C(C)[100NH:0][100C:0](=O)N4CCCC(n5nc(-c6ccc(Oc7ccc(F)cc7F)cc6)c(C(N)=O)c5N)C4)nc(C)n3)ccc2CC1C(=O)NC1CCCc2ccccc21)C(C)(C)C

> <Shape>
0.210

> <Color>
0.095

> <Negative vol penalty>
0.000

$$$$

  -OEChem-04052317363D

 93102  0     1  0  0  0  0  0999 V2000
  -20.9282  -39.5817   22.9425 C   0  0  0  0  0  0  0  0  0  0  0  0
  -21.5991  -38.9793   21.8830 C   0  0  0  0  0  0  0  0  0  0  0  0
  -24.7643   -8.0646   21.4992 C   0  0  0  0  0  0  0  0  0  0  0  0
  -23.1201   -9.5901   20.6011 C   0  0  0  0  0  0  0  0  0  0  0  0
  -21.4691  -39.5328   24.2266 C   0  0  0  0  0  0  0  0  0  0  0  0
  -22.8119  -38.3285   22.1069 C   0  0  0  0  0  0  0  0  0  0  0  0
  -23.6296  -31.3538   20.5018 C   0  0  0  0  0  0  0  0  0  0  0  0
  -27.6456  -26.2317   18.2608 C   0  0  0  0  0  0  0  0  0  0  0  0
  -27.7638  -24.9628   17.6939 C   0  0  0  0  0  0  0  0  0  0  0  0
  -23.8187   -7.5762   22.4008 C   0  0  0  0  0  0  0  0  0  0  0  0
  -22.1744   -9.1016   21.5026 C   0  0  0  0  0  0  0  0  0  0  0  0
  -23.9294  -30.0771   20.0262 C   0  0  0  0  0  0  0  0  0  0  0  0
  -21.2018   -5.4355   22.3501 C   0  0  0  0  0  0  0  0  0  0  0  0
  -21.1125   -4.0528   22.5102 C   0  0  0  0  0  0  0  0  0  0  0  0
  -26.1597  -30.2468   20.9453 C   0  0  0  0  0  0  0  0  0  0  0  0
  -26.2970  -25.3107   20.0412 C   0  0  0  0  0  0  0  0  0  0  0  0
  -21.6457   -4.2898   24.8547 C   0  0  0  0  0  0  0  0  0  0  0  0
  -24.4150   -9.0717   20.5994 C   0  0  0  0  0  0  0  0  0  0  0  0
  -25.6563   -9.0989   18.3709 C   0  0  0  0  0  0  0  0  0  0  0  0
  -22.6843  -38.8728   24.4681 C   0  0  0  0  0  0  0  0  0  0  0  0
  -24.5899  -32.0766   21.2152 C   0  0  0  0  0  0  0  0  0  0  0  0
  -23.3702  -38.2719   23.3953 C   0  0  0  0  0  0  0  0  0  0  0  0
  -25.8610  -31.5211   21.4350 C   0  0  0  0  0  0  0  0  0  0  0  0
  -26.9122  -26.4057   19.4345 C   0  0  0  0  0  0  0  0  0  0  0  0
  -27.1486  -23.8678   18.3006 C   0  0  0  0  0  0  0  0  0  0  0  0
  -26.4151  -24.0418   19.4743 C   0  0  0  0  0  0  0  0  0  0  0  0
  -27.6748  -19.9360   20.9617 C   0  0  0  0  0  0  0  0  0  0  0  0
  -22.5237   -8.0947   22.4025 C   0  0  0  0  0  0  0  0  0  0  0  0
  -25.1914  -29.5251   20.2472 C   0  0  0  0  0  0  0  0  0  0  0  0
  -21.5131   -6.2454   23.4423 C   0  0  0  0  0  0  0  0  0  0  0  0
  -21.3344   -3.4799   23.7624 C   0  0  0  0  0  0  0  0  0  0  0  0
  -21.7350   -5.6725   24.6946 C   0  0  0  0  0  0  0  0  0  0  0  0
  -25.3916   -9.5771   19.6682 C   0  0  0  0  0  0  0  0  0  0  0  0
  -28.5361  -21.0322   21.1574 C   0  0  0  0  0  0  0  0  0  0  0  0
  -26.4925  -20.4982   20.5463 C   0  0  0  0  0  0  0  0  0  0  0  0
  -26.6621   -9.9098   17.9047 C   0  0  0  0  0  0  0  0  0  0  0  0
  -25.0474   -8.0184   17.6515 C   0  0  0  0  0  0  0  0  0  0  0  0
  -25.4449  -35.2336   23.0531 C   0  0  0  0  0  0  0  0  0  0  0  0
  -26.6687  -32.9156   24.6467 C   0  0  0  0  0  0  0  0  0  0  0  0
  -27.4941  -30.0632   26.3258 C   0  0  0  0  0  0  0  0  0  0  0  0
  -28.1040  -15.5050   19.7840 C   0  0  0  0  0  0  0  0  0  0  0  0
  -23.2531  -38.8871   25.8648 C   0  0  0  0  0  0  0  0  0  0  0  0
  -24.3313  -33.4798   21.6928 C   0  0  0  0  0  0  0  0  0  0  0  0
  -26.8741  -32.3490   22.1774 C   0  0  0  0  0  0  0  0  0  0  0  0
  -24.3563  -37.8549   26.0839 C   0  0  0  0  0  0  0  0  0  0  0  0
  -30.3561  -12.5443   19.3914 C   0  0  0  0  0  0  0  0  0  0  0  0
  -25.3549  -37.8882   24.9313 C   0  0  0  0  0  0  0  0  0  0  0  0
  -29.3390  -11.4042   19.3771 C   0  0  0  0  0  0  0  0  0  0  0  0
  -29.8478  -13.7271   20.2069 C   0  0  0  0  0  0  0  0  0  0  0  0
  -27.4984  -13.1117   19.7399 C   0  0  0  0  0  0  0  0  0  0  0  0
  -24.6757  -37.5352   23.6025 C   0  0  1  0  0  0  0  0  0  0  0  0
  -25.0153  -33.7961   23.0349 C   0  0  1  0  0  0  0  0  0  0  0  0
  -27.9607  -11.9023   18.9101 C   0  0  2  0  0  0  0  0  0  0  0  0
  -27.2882  -22.5191   17.6745 C   0  0  0  0  0  0  0  0  0  0  0  0
  -30.9366  -21.2252   20.4597 C   0  0  0  0  0  0  0  0  0  0  0  0
  -24.1425  -20.0251   21.2815 C   0  0  0  0  0  0  0  0  0  0  0  0
  -31.3832  -16.1548   19.5878 C   0  0  0  0  0  0  0  0  0  0  0  0
  -28.6180  -29.2677   28.4238 C   0  0  0  0  0  0  0  0  0  0  0  0
  -29.3911  -33.5376   23.4197 C   0  0  0  0  0  0  0  0  0  0  0  0
  -30.4101  -31.9200   25.0362 C   0  0  0  0  0  0  0  0  0  0  0  0
  -29.2363  -33.9526   25.8810 C   0  0  0  0  0  0  0  0  0  0  0  0
  -25.0268  -28.7387   27.2837 C   0  0  0  0  0  0  0  0  0  0  0  0
  -27.9712  -18.5063   21.1578 C   0  0  0  0  0  0  0  0  0  0  0  0
  -25.7474  -22.8842   20.1413 C   0  0  0  0  0  0  0  0  0  0  0  0
  -26.7849  -27.7709   20.0439 C   0  0  0  0  0  0  0  0  0  1  0  0
  -29.9399  -21.0099   21.6049 C   0  0  0  0  0  0  0  0  0  0  0  0
  -25.1999  -19.8888   20.1802 C   0  0  0  0  0  0  0  0  0  0  0  0
  -30.3737  -16.1189   20.7174 C   0  0  0  0  0  0  0  0  0  0  0  0
  -28.7796  -17.8652   20.0135 C   0  0  0  0  0  0  0  0  0  0  0  0
  -27.8814  -32.0565   24.9007 C   0  0  1  0  0  0  0  0  0  0  0  0
  -27.2982  -29.6544   27.7746 C   0  0  2  0  0  0  0  0  0  0  0  0
  -29.2090  -32.8583   24.7917 C   0  0  0  0  0  0  0  0  0  0  0  0
  -26.1667  -10.6114   20.0047 N   0  0  0  0  0  0  0  0  0  0  0  0
  -27.9508  -22.2023   20.8884 N   0  0  0  0  0  0  0  0  0  0  0  0
  -26.7091  -21.8445   20.5193 N   0  0  0  0  0  0  0  0  0  0  0  0
  -26.9285  -10.7898   18.9120 N   0  0  0  0  0  0  0  0  0  0  0  0
  -26.2343  -33.0202   23.3197 N   0  0  0  0  0  0  0  0  0  0  0  0
  -28.5182  -14.1630   19.7597 N   0  0  0  0  0  0  0  0  0  0  0  0
  -27.3358   -9.9487   16.7355 N   0  0  0  0  0  0  0  0  0  0  0  0
  -24.0286   -7.2884   18.2787 N   0  0  0  0  0  0  0  0  0  0  0  0
  -24.4721  -36.1059   23.5029 N   0  0  0  0  0  0  0  0  0  0  0  0
  -27.6696  -31.4249   26.1986 N   0  0  0  0  0  0  0  0  0  0  0  0
  -29.0293  -16.4506   20.2512 N   0  0  0  0  0  0  0  0  0  0  0  0
  -26.3718  -28.4905   27.8638 N   0  3  0  0  0  0  0  0  0  0  0  0
  -25.4078   -7.6990   16.4932 O   0  0  0  0  0  0  0  0  0  0  0  0
  -26.5762  -35.5309   22.6876 O   0  0  0  0  0  0  0  0  0  0  0  0
  -26.1227  -33.4842   25.5964 O   0  0  0  0  0  0  0  0  0  0  0  0
  -27.4952  -29.2549   25.4000 O   0  0  0  0  0  0  0  0  0  0  0  0
  -26.9761  -15.8398   19.3999 O   0  0  0  0  0  0  0  0  0  0  0  0
  -21.6007   -7.6181   23.2819 O   0  0  0  0  0  0  0  0  0  0  0  0
  -25.4759  -28.2764   19.7840 O   0  0  0  0  0  0  0  0  0  1  0  0
  -21.2471   -2.1522   23.9164 F   0  0  0  0  0  0  0  0  0  0  0  0
  -22.0333   -6.4455   25.7478 F   0  0  0  0  0  0  0  0  0  0  0  0
  1  2  1  0  0  0  0
  1  5  2  0  0  0  0
  2  6  2  0  0  0  0
  3 10  2  0  0  0  0
  3 18  1  0  0  0  0
  4 11  1  0  0  0  0
  4 18  2  0  0  0  0
  5 20  1  0  0  0  0
  6 22  1  0  0  0  0
  7 12  2  0  0  0  0
  7 21  1  0  0  0  0
  8  9  2  0  0  0  0
  8 24  1  0  0  0  0
  9 25  1  0  0  0  0
 10 28  1  0  0  0  0
 11 28  2  0  0  0  0
 12 29  1  0  0  0  0
 13 14  2  0  0  0  0
 13 30  1  0  0  0  0
 14 31  1  0  0  0  0
 15 23  1  0  0  0  0
 15 29  2  0  0  0  0
 16 24  2  0  0  0  0
 16 26  1  0  0  0  0
 17 31  2  0  0  0  0
 17 32  1  0  0  0  0
 18 33  1  0  0  0  0
 19 33  1  0  0  0  0
 19 36  2  0  0  0  0
 19 37  1  0  0  0  0
 20 22  2  0  0  0  0
 20 42  1  0  0  0  0
 21 23  2  0  0  0  0
 21 43  1  0  0  0  0
 22 51  1  0  0  0  0
 23 44  1  0  0  0  0
 24 65  1  0  0  0  0
 25 26  2  0  0  0  0
 25 54  1  0  0  0  0
 26 64  1  0  0  0  0
 27 34  1  0  0  0  0
 27 35  2  0  0  0  0
 27 63  1  0  0  0  0
 28 90  1  0  0  0  0
 29 91  1  0  0  0  0
 30 32  2  0  0  0  0
 30 90  1  0  0  0  0
 31 92  1  0  0  0  0
 32 93  1  0  0  0  0
 33 73  2  0  0  0  0
 34 66  1  0  0  0  0
 34 74  2  0  0  0  0
 35 67  1  0  0  0  0
 35 75  1  0  0  0  0
 36 76  1  0  0  0  0
 36 79  1  0  0  0  0
 37 80  1  0  0  0  0
 37 85  2  0  0  0  0
 38 52  1  0  0  0  0
 38 81  1  0  0  0  0
 38 86  2  0  0  0  0
 39 70  1  0  0  0  0
 39 77  1  0  0  0  0
 39 87  2  0  0  0  0
 40 71  1  0  0  0  0
 40 82  1  0  0  0  0
 40 88  2  0  0  0  0
 41 78  1  0  0  0  0
 41 83  1  0  0  0  0
 41 89  2  0  0  0  0
 42 45  1  0  0  0  0
 43 52  1  0  0  0  0
 44 77  1  0  0  0  0
 45 47  1  0  0  0  0
 46 48  1  0  0  0  0
 46 49  1  0  0  0  0
 47 51  1  0  0  0  0
 48 53  1  0  0  0  0
 49 78  1  0  0  0  0
 50 53  1  0  0  0  0
 50 78  1  0  0  0  0
 51 81  1  0  0  0  0
 52 77  1  0  0  0  0
 53 76  1  0  0  0  0
 55 66  1  0  0  0  0
 56 67  1  0  0  0  0
 57 68  1  0  0  0  0
 58 71  1  0  0  0  0
 59 72  1  0  0  0  0
 60 72  1  0  0  0  0
 61 72  1  0  0  0  0
 62 84  1  0  0  0  0
 63 69  1  0  0  0  0
 64 75  1  0  0  0  0
 65 91  1  0  0  0  0
 68 83  1  0  0  0  0
 69 83  1  0  0  0  0
 70 72  1  0  0  0  0
 70 82  1  0  0  0  0
 71 84  1  0  0  0  0
 73 76  1  0  0  0  0
 74 75  1  0  0  0  0
M  CHG  1  84   1
M  ISO  4  41 100  65 101  83 100  91 101
M  END
> <Batch ID>
0052

> <Smiles>
CCc1nn(Cc2cc([101CH2:1][101O:1]c3ccc4c(c3)CN(C(=O)C(NC(=O)C(C)NC)C(C)(C)C)C(C(=O)NC3CCCc5ccccc53)C4)ccc2C)c(CC)c1CC[100N:0](CC)[100C:0](=O)N1CCCC(n2nc(-c3ccc(Oc4ccc(F)cc4F)cc3)c(C(N)=O)c2N)C1

> <Shape>
0.306

> <Color>
0.073

> <Negative vol penalty>
0.000

$$$$

  -OEChem-04052317363D

 85 93  0     1  0  0  0  0  0999 V2000
  -19.2094  -27.6402   23.1798 C   0  0  0  0  0  0  0  0  0  0  0  0
  -19.7708  -26.4124   23.5159 C   0  0  0  0  0  0  0  0  0  0  0  0
  -22.1821  -17.8979   23.2329 C   0  0  0  0  0  0  0  0  0  0  0  0
  -24.4970  -18.1190   23.8881 C   0  0  0  0  0  0  0  0  0  0  0  0
  -19.6022  -28.2880   22.0094 C   0  0  0  0  0  0  0  0  0  0  0  0
  -20.7246  -25.8313   22.6811 C   0  0  0  0  0  0  0  0  0  0  0  0
  -26.5865  -21.7204   22.9152 C   0  0  0  0  0  0  0  0  0  0  0  0
  -21.7940  -18.6234   24.3592 C   0  0  0  0  0  0  0  0  0  0  0  0
  -24.1089  -18.8446   25.0144 C   0  0  0  0  0  0  0  0  0  0  0  0
  -27.1089  -20.5564   22.3530 C   0  0  0  0  0  0  0  0  0  0  0  0
  -21.3785  -18.0563   27.6653 C   0  0  0  0  0  0  0  0  0  0  0  0
  -20.3033  -17.5706   28.4093 C   0  0  0  0  0  0  0  0  0  0  0  0
  -27.7687  -21.8046   20.3970 C   0  0  0  0  0  0  0  0  0  0  0  0
  -19.0930  -19.6209   27.9987 C   0  0  0  0  0  0  0  0  0  0  0  0
  -30.3997  -13.6698   19.9713 C   0  0  0  0  0  0  0  0  0  0  0  0
  -30.9800  -15.2416   18.5397 C   0  0  0  0  0  0  0  0  0  0  0  0
  -23.5337  -17.6457   22.9973 C   0  0  0  0  0  0  0  0  0  0  0  0
  -24.2473  -17.4061   20.5599 C   0  0  0  0  0  0  0  0  0  0  0  0
  -20.5684  -27.7191   21.1647 C   0  0  0  0  0  0  0  0  0  0  0  0
  -26.6416  -22.9351   22.2167 C   0  0  0  0  0  0  0  0  0  0  0  0
  -21.1297  -26.4715   21.4975 C   0  0  0  0  0  0  0  0  0  0  0  0
  -27.2486  -22.9830   20.9536 C   0  0  0  0  0  0  0  0  0  0  0  0
  -22.7574  -19.0967   25.2500 C   0  0  0  0  0  0  0  0  0  0  0  0
  -27.6975  -20.5978   21.0925 C   0  0  0  0  0  0  0  0  0  0  0  0
  -21.3110  -19.3244   27.0880 C   0  0  0  0  0  0  0  0  0  0  0  0
  -19.1605  -18.3528   28.5760 C   0  0  0  0  0  0  0  0  0  0  0  0
  -20.1683  -20.1066   27.2547 C   0  0  0  0  0  0  0  0  0  0  0  0
  -23.9352  -16.8958   21.8343 C   0  0  0  0  0  0  0  0  0  0  0  0
  -30.0658  -13.3248   18.6829 C   0  0  0  0  0  0  0  0  0  0  0  0
  -24.5651  -16.2971   19.8144 C   0  0  0  0  0  0  0  0  0  0  0  0
  -24.2499  -18.7613   20.0918 C   0  0  0  0  0  0  0  0  0  0  0  0
  -24.4796  -24.9692   21.0801 C   0  0  0  0  0  0  0  0  0  0  0  0
  -27.0951  -26.7650   20.4046 C   0  0  0  0  0  0  0  0  0  0  0  0
  -30.4487  -26.8799   19.7827 C   0  0  0  0  0  0  0  0  0  0  0  0
  -27.5257  -11.4464   19.6639 C   0  0  0  0  0  0  0  0  0  0  0  0
  -20.9265  -28.4343   19.8861 C   0  0  0  0  0  0  0  0  0  0  0  0
  -26.0975  -24.1870   22.8483 C   0  0  0  0  0  0  0  0  0  0  0  0
  -27.3511  -24.2659   20.1712 C   0  0  0  0  0  0  0  0  0  0  0  0
  -22.2173  -27.9293   19.2466 C   0  0  0  0  0  0  0  0  0  0  0  0
  -24.0022  -11.3763   20.7961 C   0  0  0  0  0  0  0  0  0  0  0  0
  -22.2354  -26.4044   19.2131 C   0  0  0  0  0  0  0  0  0  0  0  0
  -23.7296  -12.8425   21.1273 C   0  0  0  0  0  0  0  0  0  0  0  0
  -25.4755  -11.0199   20.9701 C   0  0  0  0  0  0  0  0  0  0  0  0
  -26.1294  -13.3649   20.5372 C   0  0  0  0  0  0  0  0  0  0  0  0
  -22.1854  -25.8207   20.6303 C   0  0  1  0  0  0  0  0  0  0  0  0
  -25.7476  -25.2670   21.8292 C   0  0  1  0  0  0  0  0  0  0  0  0
  -24.6622  -13.7684   20.3272 C   0  0  2  0  0  0  0  0  0  0  0  0
  -26.9811  -11.3398   16.3609 C   0  0  0  0  0  0  0  0  0  0  0  0
  -32.2954  -28.4859   19.2278 C   0  0  0  0  0  0  0  0  0  0  0  0
  -26.0854  -26.9290   17.5299 C   0  0  0  0  0  0  0  0  0  0  0  0
  -28.3694  -27.6921   16.8449 C   0  0  0  0  0  0  0  0  0  0  0  0
  -27.0206  -29.0664   18.4307 C   0  0  0  0  0  0  0  0  0  0  0  0
  -32.7256  -16.6595   20.6154 C   0  0  0  0  0  0  0  0  0  0  0  0
  -32.0823  -14.7915   22.1114 C   0  0  0  0  0  0  0  0  0  0  0  0
  -31.9287  -26.2139   22.2575 C   0  0  0  0  0  0  0  0  0  0  0  0
  -29.4085  -12.0966   18.2107 C   0  0  0  0  0  0  0  0  0  0  0  0
  -29.8270  -17.7015   20.7411 C   0  0  0  0  0  0  0  0  0  0  0  0
  -30.4255  -16.6331   21.6639 C   0  0  0  0  0  0  0  0  0  0  0  0
  -27.1135  -12.4538   17.3796 C   0  0  0  0  0  0  0  0  0  0  0  0
  -28.7151  -18.4763   21.4384 C   0  0  0  0  0  0  0  0  0  1  0  0
  -28.0311  -26.8898   19.2267 C   0  0  1  0  0  0  0  0  0  0  0  0
  -31.5467  -27.7679   20.3398 C   0  0  2  0  0  0  0  0  0  0  0  0
  -27.3731  -27.6196   18.0217 C   0  0  0  0  0  0  0  0  0  0  0  0
  -31.5409  -15.7497   21.0207 C   0  0  0  0  0  0  0  0  0  0  0  0
  -30.4299  -14.3073   17.7964 N   0  0  0  0  0  0  0  0  0  0  0  0
  -24.0446  -15.5662   21.8983 N   0  0  0  0  0  0  0  0  0  0  0  0
  -30.9849  -14.8999   19.8635 N   0  0  0  0  0  0  0  0  0  0  0  0
  -24.4290  -15.2315   20.6548 N   0  0  0  0  0  0  0  0  0  0  0  0
  -26.7989  -25.4618   20.8287 N   0  0  0  0  0  0  0  0  0  0  0  0
  -26.3414  -11.9416   20.2341 N   0  0  0  0  0  0  0  0  0  0  0  0
  -24.9449  -16.1393   18.5286 N   0  0  0  0  0  0  0  0  0  0  0  0
  -23.8979  -19.7787   20.9892 N   0  0  0  0  0  0  0  0  0  0  0  0
  -23.4851  -25.9115   21.2603 N   0  0  0  0  0  0  0  0  0  0  0  0
  -29.2375  -27.5369   19.7308 N   0  0  0  0  0  0  0  0  0  0  0  0
  -27.9801  -12.0690   18.4915 N   0  0  0  0  0  0  0  0  0  0  0  0
  -32.5252  -26.9560   21.1171 N   0  3  0  0  0  0  0  0  0  0  0  0
  -24.5393  -19.0596   18.9083 O   0  0  0  0  0  0  0  0  0  0  0  0
  -24.4092  -23.9600   20.3886 O   0  0  0  0  0  0  0  0  0  0  0  0
  -26.6491  -27.7862   20.9335 O   0  0  0  0  0  0  0  0  0  0  0  0
  -30.6466  -25.7207   19.4255 O   0  0  0  0  0  0  0  0  0  0  0  0
  -28.1365  -10.4955   20.1685 O   0  0  0  0  0  0  0  0  0  0  0  0
  -22.3790  -19.8049   26.3490 O   0  0  0  0  0  0  0  0  0  0  0  0
  -28.2076  -19.4631   20.5411 O   0  0  0  0  0  0  0  0  0  1  0  0
  -18.1274  -17.8856   29.2892 F   0  0  0  0  0  0  0  0  0  0  0  0
  -20.0971  -21.3251   26.7015 F   0  0  0  0  0  0  0  0  0  0  0  0
  1  2  1  0  0  0  0
  1  5  2  0  0  0  0
  2  6  2  0  0  0  0
  3  8  2  0  0  0  0
  3 17  1  0  0  0  0
  4  9  1  0  0  0  0
  4 17  2  0  0  0  0
  5 19  1  0  0  0  0
  6 21  1  0  0  0  0
  7 10  2  0  0  0  0
  7 20  1  0  0  0  0
  8 23  1  0  0  0  0
  9 23  2  0  0  0  0
 10 24  1  0  0  0  0
 11 12  2  0  0  0  0
 11 25  1  0  0  0  0
 12 26  1  0  0  0  0
 13 22  1  0  0  0  0
 13 24  2  0  0  0  0
 14 26  2  0  0  0  0
 14 27  1  0  0  0  0
 15 29  2  0  0  0  0
 15 67  1  0  0  0  0
 16 65  2  0  0  0  0
 16 67  1  0  0  0  0
 17 28  1  0  0  0  0
 18 28  1  0  0  0  0
 18 30  2  0  0  0  0
 18 31  1  0  0  0  0
 19 21  2  0  0  0  0
 19 36  1  0  0  0  0
 20 22  2  0  0  0  0
 20 37  1  0  0  0  0
 21 45  1  0  0  0  0
 22 38  1  0  0  0  0
 23 82  1  0  0  0  0
 24 83  1  0  0  0  0
 25 27  2  0  0  0  0
 25 82  1  0  0  0  0
 26 84  1  0  0  0  0
 27 85  1  0  0  0  0
 28 66  2  0  0  0  0
 29 56  1  0  0  0  0
 29 65  1  0  0  0  0
 30 68  1  0  0  0  0
 30 71  1  0  0  0  0
 31 72  1  0  0  0  0
 31 77  2  0  0  0  0
 32 46  1  0  0  0  0
 32 73  1  0  0  0  0
 32 78  2  0  0  0  0
 33 61  1  0  0  0  0
 33 69  1  0  0  0  0
 33 79  2  0  0  0  0
 34 62  1  0  0  0  0
 34 74  1  0  0  0  0
 34 80  2  0  0  0  0
 35 70  1  0  0  0  0
 35 75  1  0  0  0  0
 35 81  2  0  0  0  0
 36 39  1  0  0  0  0
 37 46  1  0  0  0  0
 38 69  1  0  0  0  0
 39 41  1  0  0  0  0
 40 42  1  0  0  0  0
 40 43  1  0  0  0  0
 41 45  1  0  0  0  0
 42 47  1  0  0  0  0
 43 70  1  0  0  0  0
 44 47  1  0  0  0  0
 44 70  1  0  0  0  0
 45 73  1  0  0  0  0
 46 69  1  0  0  0  0
 47 68  1  0  0  0  0
 48 59  1  0  0  0  0
 49 62  1  0  0  0  0
 50 63  1  0  0  0  0
 51 63  1  0  0  0  0
 52 63  1  0  0  0  0
 53 64  1  0  0  0  0
 54 64  1  0  0  0  0
 55 76  1  0  0  0  0
 56 75  1  0  0  0  0
 57 58  1  0  0  0  0
 57 60  1  0  0  0  0
 58 64  1  0  0  0  0
 59 75  1  0  0  0  0
 60 83  1  0  0  0  0
 61 63  1  0  0  0  0
 61 74  1  0  0  0  0
 62 76  1  0  0  0  0
 64 67  1  0  0  0  0
 66 68  1  0  0  0  0
M  CHG  1  76   1
M  ISO  4  35 100  60 101  75 100  83 101
M  END
> <Batch ID>
0052

> <Smiles>
CC[100N:0](Cc1cn(C(C)(C)CC[101CH2:1][101O:1]c2ccc3c(c2)CN(C(=O)C(NC(=O)C(C)NC)C(C)(C)C)C(C(=O)NC2CCCc4ccccc42)C3)cn1)[100C:0](=O)N1CCCC(n2nc(-c3ccc(Oc4ccc(F)cc4F)cc3)c(C(N)=O)c2N)C1

> <Shape>
0.208

> <Color>
0.041

> <Negative vol penalty>
0.000

$$$$

  -OEChem-04052317363D

 84 92  0     1  0  0  0  0  0999 V2000
  -22.4479  -11.6032   20.1193 C   0  0  0  0  0  0  0  0  0  0  0  0
  -21.9846  -12.9134   20.0552 C   0  0  0  0  0  0  0  0  0  0  0  0
  -30.5783  -27.5072   18.5112 C   0  0  0  0  0  0  0  0  0  0  0  0
  -31.2875  -28.4902   20.6011 C   0  0  0  0  0  0  0  0  0  0  0  0
  -23.7260  -11.3402   20.6102 C   0  0  0  0  0  0  0  0  0  0  0  0
  -22.7989  -13.9614   20.4831 C   0  0  0  0  0  0  0  0  0  0  0  0
  -23.0771  -19.6065   18.1249 C   0  0  0  0  0  0  0  0  0  0  0  0
  -31.8485  -27.7252   17.9776 C   0  0  0  0  0  0  0  0  0  0  0  0
  -32.5577  -28.7082   20.0676 C   0  0  0  0  0  0  0  0  0  0  0  0
  -22.4968  -20.8140   18.5109 C   0  0  0  0  0  0  0  0  0  0  0  0
  -34.8001  -28.3504   15.9477 C   0  0  0  0  0  0  0  0  0  0  0  0
  -34.8821  -28.8813   14.6605 C   0  0  0  0  0  0  0  0  0  0  0  0
  -24.5185  -21.4025   19.6879 C   0  0  0  0  0  0  0  0  0  0  0  0
  -33.6794  -30.8443   15.3935 C   0  0  0  0  0  0  0  0  0  0  0  0
  -22.2963  -26.0704   20.0586 C   0  0  0  0  0  0  0  0  0  0  0  0
  -30.2978  -27.8897   19.8230 C   0  0  0  0  0  0  0  0  0  0  0  0
  -28.5375  -26.5229   21.0642 C   0  0  0  0  0  0  0  0  0  0  0  0
  -24.5601  -12.3863   21.0353 C   0  0  0  0  0  0  0  0  0  0  0  0
  -24.3808  -19.2826   18.5273 C   0  0  0  0  0  0  0  0  0  0  0  0
  -24.0889  -13.7120   20.9814 C   0  0  0  0  0  0  0  0  0  0  0  0
  -25.1141  -20.1914   19.3035 C   0  0  0  0  0  0  0  0  0  0  0  0
  -32.8382  -28.3256   18.7558 C   0  0  0  0  0  0  0  0  0  0  0  0
  -23.2164  -21.7109   19.2949 C   0  0  0  0  0  0  0  0  0  0  0  0
  -34.1577  -29.0664   16.9579 C   0  0  0  0  0  0  0  0  0  0  0  0
  -34.3218  -30.1282   14.3834 C   0  0  0  0  0  0  0  0  0  0  0  0
  -33.5974  -30.3133   16.6808 C   0  0  0  0  0  0  0  0  0  0  0  0
  -28.9857  -27.6653   20.3745 C   0  0  0  0  0  0  0  0  0  0  0  0
  -22.6445  -24.9849   20.8118 C   0  0  0  0  0  0  0  0  0  0  0  0
  -27.2297  -26.8021   21.3776 C   0  0  0  0  0  0  0  0  0  0  0  0
  -21.4432  -26.3417   22.0832 C   0  0  0  0  0  0  0  0  0  0  0  0
  -29.2405  -25.3171   21.3923 C   0  0  0  0  0  0  0  0  0  0  0  0
  -25.6769  -16.9756   20.2883 C   0  0  0  0  0  0  0  0  0  0  0  0
  -28.4587  -18.3364   19.3229 C   0  0  0  0  0  0  0  0  0  0  0  0
  -30.0829  -21.1120   18.1805 C   0  0  0  0  0  0  0  0  0  0  0  0
  -23.6446  -30.6744   23.4917 C   0  0  0  0  0  0  0  0  0  0  0  0
  -25.9161  -12.0488   21.6026 C   0  0  0  0  0  0  0  0  0  0  0  0
  -25.0022  -17.9879   18.0802 C   0  0  0  0  0  0  0  0  0  0  0  0
  -26.5243  -19.9001   19.7449 C   0  0  0  0  0  0  0  0  0  0  0  0
  -26.8571  -13.2480   21.6860 C   0  0  0  0  0  0  0  0  0  0  0  0
  -24.1752  -30.5137   19.8319 C   0  0  0  0  0  0  0  0  0  0  0  0
  -26.1370  -14.4508   22.2873 C   0  0  0  0  0  0  0  0  0  0  0  0
  -25.4778  -29.7234   19.7186 C   0  0  0  0  0  0  0  0  0  0  0  0
  -24.0941  -31.2882   21.1438 C   0  0  0  0  0  0  0  0  0  0  0  0
  -25.5911  -29.6545   22.2411 C   0  0  0  0  0  0  0  0  0  0  0  0
  -24.9518  -14.8779   21.4129 C   0  0  1  0  0  0  0  0  0  0  0  0
  -26.1505  -17.5352   18.9768 C   0  0  1  0  0  0  0  0  0  0  0  0
  -25.6839  -28.8258   20.9511 C   0  0  2  0  0  0  0  0  0  0  0  0
  -32.3617  -21.9281   17.5185 C   0  0  0  0  0  0  0  0  0  0  0  0
  -19.1853  -27.1474   23.0551 C   0  0  0  0  0  0  0  0  0  0  0  0
  -20.8031  -25.9066   24.4650 C   0  0  0  0  0  0  0  0  0  0  0  0
  -29.2459  -18.5176   22.2652 C   0  0  0  0  0  0  0  0  0  0  0  0
  -31.0271  -20.1529   21.6160 C   0  0  0  0  0  0  0  0  0  0  0  0
  -31.0947  -17.8213   20.7317 C   0  0  0  0  0  0  0  0  0  0  0  0
  -20.9788  -28.1621   20.4689 C   0  0  0  0  0  0  0  0  0  0  0  0
  -23.2570  -29.7640   25.7502 C   0  0  0  0  0  0  0  0  0  0  0  0
  -29.1974  -21.6995   15.4184 C   0  0  0  0  0  0  0  0  0  0  0  0
  -23.4465  -23.7618   20.4768 C   0  0  0  0  0  0  0  0  0  1  0  0
  -21.3357  -28.2658   23.7669 C   0  0  0  0  0  0  0  0  0  0  0  0
  -22.8644  -28.2887   23.8124 C   0  0  0  0  0  0  0  0  0  0  0  0
  -29.3540  -19.4304   19.8525 C   0  0  1  0  0  0  0  0  0  0  0  0
  -31.0602  -21.3074   17.0355 C   0  0  2  0  0  0  0  0  0  0  0  0
  -20.7238  -26.9004   23.2551 C   0  0  0  0  0  0  0  0  0  0  0  0
  -30.1532  -18.9855   21.1098 C   0  0  0  0  0  0  0  0  0  0  0  0
  -28.0395  -28.6006   20.2563 N   0  0  0  0  0  0  0  0  0  0  0  0
  -21.5532  -26.8932   20.8702 N   0  0  0  0  0  0  0  0  0  0  0  0
  -26.9836  -28.0462   20.8759 N   0  0  0  0  0  0  0  0  0  0  0  0
  -22.1035  -25.1795   22.0598 N   0  3  0  0  0  0  0  0  0  0  0  0
  -27.0857  -18.6183   19.2875 N   0  0  0  0  0  0  0  0  0  0  0  0
  -24.3364  -30.4196   22.2962 N   0  0  0  0  0  0  0  0  0  0  0  0
  -26.2778  -26.1022   22.0307 N   0  0  0  0  0  0  0  0  0  0  0  0
  -30.5789  -25.1948   20.9948 N   0  0  0  0  0  0  0  0  0  0  0  0
  -25.4157  -15.6190   20.2597 N   0  0  0  0  0  0  0  0  0  0  0  0
  -30.1884  -19.8530   18.7328 N   0  0  0  0  0  0  0  0  0  0  0  0
  -23.3546  -29.5722   24.3102 N   0  0  0  0  0  0  0  0  0  0  0  0
  -30.4705  -22.1998   15.9978 N   0  3  0  0  0  0  0  0  0  0  0  0
  -28.6929  -24.3693   22.0050 O   0  0  0  0  0  0  0  0  0  0  0  0
  -25.5587  -17.7192   21.2551 O   0  0  0  0  0  0  0  0  0  0  0  0
  -28.9599  -17.2736   18.9475 O   0  0  0  0  0  0  0  0  0  0  0  0
  -29.3064  -21.9898   18.5507 O   0  0  0  0  0  0  0  0  0  0  0  0
  -23.2971  -31.8203   23.8048 O   0  0  0  0  0  0  0  0  0  0  0  0
  -34.0778  -28.5383   18.2355 O   0  0  0  0  0  0  0  0  0  0  0  0
  -22.6521  -22.8899   19.6736 O   0  0  0  0  0  0  0  0  0  1  0  0
  -34.4019  -30.6386   13.1476 F   0  0  0  0  0  0  0  0  0  0  0  0
  -32.9800  -31.0064   17.6474 F   0  0  0  0  0  0  0  0  0  0  0  0
  1  2  1  0  0  0  0
  1  5  2  0  0  0  0
  2  6  2  0  0  0  0
  3  8  2  0  0  0  0
  3 16  1  0  0  0  0
  4  9  1  0  0  0  0
  4 16  2  0  0  0  0
  5 18  1  0  0  0  0
  6 20  1  0  0  0  0
  7 10  2  0  0  0  0
  7 19  1  0  0  0  0
  8 22  1  0  0  0  0
  9 22  2  0  0  0  0
 10 23  1  0  0  0  0
 11 12  2  0  0  0  0
 11 24  1  0  0  0  0
 12 25  1  0  0  0  0
 13 21  1  0  0  0  0
 13 23  2  0  0  0  0
 14 25  2  0  0  0  0
 14 26  1  0  0  0  0
 15 28  2  0  0  0  0
 15 65  1  0  0  0  0
 16 27  1  0  0  0  0
 17 27  1  0  0  0  0
 17 29  2  0  0  0  0
 17 31  1  0  0  0  0
 18 20  2  0  0  0  0
 18 36  1  0  0  0  0
 19 21  2  0  0  0  0
 19 37  1  0  0  0  0
 20 45  1  0  0  0  0
 21 38  1  0  0  0  0
 22 81  1  0  0  0  0
 23 82  1  0  0  0  0
 24 26  2  0  0  0  0
 24 81  1  0  0  0  0
 25 83  1  0  0  0  0
 26 84  1  0  0  0  0
 27 64  2  0  0  0  0
 28 57  1  0  0  0  0
 28 67  1  0  0  0  0
 29 66  1  0  0  0  0
 29 70  1  0  0  0  0
 30 62  1  0  0  0  0
 30 65  1  0  0  0  0
 30 67  2  0  0  0  0
 31 71  1  0  0  0  0
 31 76  2  0  0  0  0
 32 46  1  0  0  0  0
 32 72  1  0  0  0  0
 32 77  2  0  0  0  0
 33 60  1  0  0  0  0
 33 68  1  0  0  0  0
 33 78  2  0  0  0  0
 34 61  1  0  0  0  0
 34 73  1  0  0  0  0
 34 79  2  0  0  0  0
 35 69  1  0  0  0  0
 35 74  1  0  0  0  0
 35 80  2  0  0  0  0
 36 39  1  0  0  0  0
 37 46  1  0  0  0  0
 38 68  1  0  0  0  0
 39 41  1  0  0  0  0
 40 42  1  0  0  0  0
 40 43  1  0  0  0  0
 41 45  1  0  0  0  0
 42 47  1  0  0  0  0
 43 69  1  0  0  0  0
 44 47  1  0  0  0  0
 44 69  1  0  0  0  0
 45 72  1  0  0  0  0
 46 68  1  0  0  0  0
 47 66  1  0  0  0  0
 48 61  1  0  0  0  0
 49 62  1  0  0  0  0
 50 62  1  0  0  0  0
 51 63  1  0  0  0  0
 52 63  1  0  0  0  0
 53 63  1  0  0  0  0
 54 65  1  0  0  0  0
 55 74  1  0  0  0  0
 56 75  1  0  0  0  0
 57 82  1  0  0  0  0
 58 59  1  0  0  0  0
 58 62  1  0  0  0  0
 59 74  1  0  0  0  0
 60 63  1  0  0  0  0
 60 73  1  0  0  0  0
 61 75  1  0  0  0  0
 64 66  1  0  0  0  0
M  CHG  2  67   1  75   1
M  ISO  4  35 100  57 101  74 100  82 101
M  END
> <Batch ID>
0052

> <Smiles>
CNC(C)C(=O)NC(C(=O)N1Cc2cc([101O:1][101CH2:1]c3cn(C)c(C(C)(C)CC[100N:0](C)[100C:0](=O)N4CCCC(n5nc(-c6ccc(Oc7ccc(F)cc7F)cc6)c(C(N)=O)c5N)C4)n3)ccc2CC1C(=O)NC1CCCc2ccccc21)C(C)(C)C

> <Shape>
0.213

> <Color>
0.063

> <Negative vol penalty>
0.000

$$$$

  -OEChem-04052317363D

 82 90  0     1  0  0  0  0  0999 V2000
  -22.5387  -11.6216   19.4224 C   0  0  0  0  0  0  0  0  0  0  0  0
  -22.0503  -12.9236   19.4619 C   0  0  0  0  0  0  0  0  0  0  0  0
  -30.9988  -28.2978   21.0535 C   0  0  0  0  0  0  0  0  0  0  0  0
  -30.1225  -26.1448   21.7120 C   0  0  0  0  0  0  0  0  0  0  0  0
  -23.8011  -11.3358   19.9405 C   0  0  0  0  0  0  0  0  0  0  0  0
  -22.8238  -13.9405   20.0206 C   0  0  0  0  0  0  0  0  0  0  0  0
  -23.0765  -19.7875   18.2166 C   0  0  0  0  0  0  0  0  0  0  0  0
  -32.1629  -28.0461   21.7796 C   0  0  0  0  0  0  0  0  0  0  0  0
  -31.2866  -25.8930   22.4381 C   0  0  0  0  0  0  0  0  0  0  0  0
  -22.4551  -20.9427   18.6892 C   0  0  0  0  0  0  0  0  0  0  0  0
  -32.5983  -26.7750   25.4269 C   0  0  0  0  0  0  0  0  0  0  0  0
  -32.4600  -26.2449   26.7096 C   0  0  0  0  0  0  0  0  0  0  0  0
  -24.4140  -21.4525   20.0013 C   0  0  0  0  0  0  0  0  0  0  0  0
  -33.7366  -24.3043   26.0452 C   0  0  0  0  0  0  0  0  0  0  0  0
  -20.2724  -26.6891   19.9051 C   0  0  0  0  0  0  0  0  0  0  0  0
  -29.9786  -27.3471   21.0198 C   0  0  0  0  0  0  0  0  0  0  0  0
  -28.5310  -27.2931   18.9199 C   0  0  0  0  0  0  0  0  0  0  0  0
  -24.5944  -12.3514   20.4971 C   0  0  0  0  0  0  0  0  0  0  0  0
  -24.3694  -19.4500   18.6421 C   0  0  0  0  0  0  0  0  0  0  0  0
  -24.0975  -13.6678   20.5478 C   0  0  0  0  0  0  0  0  0  0  0  0
  -25.0506  -20.2939   19.5307 C   0  0  0  0  0  0  0  0  0  0  0  0
  -32.3068  -26.8437   22.4719 C   0  0  0  0  0  0  0  0  0  0  0  0
  -23.1227  -21.7738   19.5839 C   0  0  0  0  0  0  0  0  0  0  0  0
  -33.3056  -26.0697   24.4532 C   0  0  0  0  0  0  0  0  0  0  0  0
  -33.0292  -25.0096   27.0188 C   0  0  0  0  0  0  0  0  0  0  0  0
  -33.8748  -24.8344   24.7624 C   0  0  0  0  0  0  0  0  0  0  0  0
  -28.7757  -27.6068   20.2703 C   0  0  0  0  0  0  0  0  0  0  0  0
  -19.8716  -26.7665   21.2207 C   0  0  0  0  0  0  0  0  0  0  0  0
  -20.3202  -24.5400   21.4884 C   0  0  0  0  0  0  0  0  0  0  0  0
  -20.7204  -24.4626   20.1725 C   0  0  0  0  0  0  0  0  0  0  0  0
  -27.2535  -27.7416   18.6893 C   0  0  0  0  0  0  0  0  0  0  0  0
  -29.3824  -26.6535   17.9599 C   0  0  0  0  0  0  0  0  0  0  0  0
  -25.6419  -17.0097   20.2325 C   0  0  0  0  0  0  0  0  0  0  0  0
  -28.4309  -18.5044   19.5184 C   0  0  0  0  0  0  0  0  0  0  0  0
  -30.0402  -21.4038   18.7119 C   0  0  0  0  0  0  0  0  0  0  0  0
  -22.6534  -28.5422   22.3023 C   0  0  0  0  0  0  0  0  0  0  0  0
  -25.9332  -11.9856   21.0875 C   0  0  0  0  0  0  0  0  0  0  0  0
  -25.0362  -18.2145   18.1023 C   0  0  0  0  0  0  0  0  0  0  0  0
  -26.4477  -19.9870   20.0025 C   0  0  0  0  0  0  0  0  0  0  0  0
  -26.8440  -13.1878   21.3231 C   0  0  0  0  0  0  0  0  0  0  0  0
  -24.1262  -31.0553   20.1546 C   0  0  0  0  0  0  0  0  0  0  0  0
  -26.0743  -14.3154   22.0034 C   0  0  0  0  0  0  0  0  0  0  0  0
  -25.4723  -30.4133   19.8140 C   0  0  0  0  0  0  0  0  0  0  0  0
  -23.7256  -30.7665   21.5983 C   0  0  0  0  0  0  0  0  0  0  0  0
  -25.0292  -28.6750   21.6089 C   0  0  0  0  0  0  0  0  0  0  0  0
  -24.9168  -14.8025   21.1233 C   0  0  1  0  0  0  0  0  0  0  0  0
  -26.1564  -17.6992   19.0006 C   0  0  1  0  0  0  0  0  0  0  0  0
  -25.4794  -28.9116   20.1558 C   0  0  2  0  0  0  0  0  0  0  0  0
  -20.3443  -23.3455   22.3795 C   0  0  0  0  0  0  0  0  0  0  0  0
  -17.9231  -27.9882   22.2381 C   0  0  0  0  0  0  0  0  0  0  0  0
  -32.3261  -22.3188   18.2272 C   0  0  0  0  0  0  0  0  0  0  0  0
  -29.0933  -18.4201   22.4957 C   0  0  0  0  0  0  0  0  0  0  0  0
  -30.8639  -20.1404   22.0793 C   0  0  0  0  0  0  0  0  0  0  0  0
  -31.0176  -17.9046   20.9838 C   0  0  0  0  0  0  0  0  0  0  0  0
  -29.2556  -22.2345   15.9819 C   0  0  0  0  0  0  0  0  0  0  0  0
  -21.1990  -23.1722   19.5749 C   0  0  0  0  0  0  0  0  0  1  0  0
  -20.2645  -28.5650   22.9728 C   0  0  0  0  0  0  0  0  0  0  0  0
  -19.3996  -28.0576   21.7918 C   0  0  1  0  0  0  0  0  0  0  0  0
  -29.2801  -19.5589   20.1861 C   0  0  1  0  0  0  0  0  0  0  0  0
  -31.0589  -21.7238   17.6330 C   0  0  2  0  0  0  0  0  0  0  0  0
  -30.0367  -19.0111   21.4290 C   0  0  0  0  0  0  0  0  0  0  0  0
  -20.7040  -25.5358   19.3574 N   0  0  0  0  0  0  0  0  0  0  0  0
  -27.7370  -28.2082   20.8564 N   0  0  0  0  0  0  0  0  0  0  0  0
  -19.8883  -25.6933   22.0360 N   0  0  0  0  0  0  0  0  0  0  0  0
  -26.8273  -28.2762   19.8695 N   0  0  0  0  0  0  0  0  0  0  0  0
  -27.0547  -18.7643   19.4512 N   0  0  0  0  0  0  0  0  0  0  0  0
  -23.7342  -29.3190   21.8530 N   0  0  0  0  0  0  0  0  0  0  0  0
  -26.4644  -27.7271   17.5941 N   0  0  0  0  0  0  0  0  0  0  0  0
  -30.6643  -26.2560   18.3638 N   0  0  0  0  0  0  0  0  0  0  0  0
  -25.4113  -15.6575   20.0655 N   0  0  0  0  0  0  0  0  0  0  0  0
  -30.1501  -20.1002   19.1476 N   0  0  0  0  0  0  0  0  0  0  0  0
  -21.4649  -29.2295   22.5161 N   0  0  0  0  0  0  0  0  0  0  0  0
  -30.4930  -22.7000   16.6595 N   0  3  0  0  0  0  0  0  0  0  0  0
  -29.0233  -26.4554   16.7745 O   0  0  0  0  0  0  0  0  0  0  0  0
  -25.4684  -17.6563   21.2589 O   0  0  0  0  0  0  0  0  0  0  0  0
  -28.9696  -17.4908   19.0667 O   0  0  0  0  0  0  0  0  0  0  0  0
  -29.2306  -22.2288   19.1294 O   0  0  0  0  0  0  0  0  0  0  0  0
  -22.7397  -27.3244   22.4939 O   0  0  0  0  0  0  0  0  0  0  0  0
  -33.4426  -26.5977   23.1804 O   0  0  0  0  0  0  0  0  0  0  0  0
  -22.5182  -22.9016   20.0472 O   0  0  0  0  0  0  0  0  0  1  0  0
  -32.8977  -24.5014   28.2511 F   0  0  0  0  0  0  0  0  0  0  0  0
  -34.5565  -24.1527   23.8316 F   0  0  0  0  0  0  0  0  0  0  0  0
  1  2  1  0  0  0  0
  1  5  2  0  0  0  0
  2  6  2  0  0  0  0
  3  8  2  0  0  0  0
  3 16  1  0  0  0  0
  4  9  1  0  0  0  0
  4 16  2  0  0  0  0
  5 18  1  0  0  0  0
  6 20  1  0  0  0  0
  7 10  2  0  0  0  0
  7 19  1  0  0  0  0
  8 22  1  0  0  0  0
  9 22  2  0  0  0  0
 10 23  1  0  0  0  0
 11 12  2  0  0  0  0
 11 24  1  0  0  0  0
 12 25  1  0  0  0  0
 13 21  1  0  0  0  0
 13 23  2  0  0  0  0
 14 25  2  0  0  0  0
 14 26  1  0  0  0  0
 15 28  1  0  0  0  0
 15 62  2  0  0  0  0
 16 27  1  0  0  0  0
 17 27  1  0  0  0  0
 17 31  2  0  0  0  0
 17 32  1  0  0  0  0
 18 20  2  0  0  0  0
 18 37  1  0  0  0  0
 19 21  2  0  0  0  0
 19 38  1  0  0  0  0
 20 46  1  0  0  0  0
 21 39  1  0  0  0  0
 22 79  1  0  0  0  0
 23 80  1  0  0  0  0
 24 26  2  0  0  0  0
 24 79  1  0  0  0  0
 25 81  1  0  0  0  0
 26 82  1  0  0  0  0
 27 63  2  0  0  0  0
 28 58  1  0  0  0  0
 28 64  2  0  0  0  0
 29 30  2  0  0  0  0
 29 49  1  0  0  0  0
 29 64  1  0  0  0  0
 30 56  1  0  0  0  0
 30 62  1  0  0  0  0
 31 65  1  0  0  0  0
 31 68  1  0  0  0  0
 32 69  1  0  0  0  0
 32 74  2  0  0  0  0
 33 47  1  0  0  0  0
 33 70  1  0  0  0  0
 33 75  2  0  0  0  0
 34 59  1  0  0  0  0
 34 66  1  0  0  0  0
 34 76  2  0  0  0  0
 35 60  1  0  0  0  0
 35 71  1  0  0  0  0
 35 77  2  0  0  0  0
 36 67  1  0  0  0  0
 36 72  1  0  0  0  0
 36 78  2  0  0  0  0
 37 40  1  0  0  0  0
 38 47  1  0  0  0  0
 39 66  1  0  0  0  0
 40 42  1  0  0  0  0
 41 43  1  0  0  0  0
 41 44  1  0  0  0  0
 42 46  1  0  0  0  0
 43 48  1  0  0  0  0
 44 67  1  0  0  0  0
 45 48  1  0  0  0  0
 45 67  1  0  0  0  0
 46 70  1  0  0  0  0
 47 66  1  0  0  0  0
 48 65  1  0  0  0  0
 50 58  1  0  0  0  0
 51 60  1  0  0  0  0
 52 61  1  0  0  0  0
 53 61  1  0  0  0  0
 54 61  1  0  0  0  0
 55 73  1  0  0  0  0
 56 80  1  0  0  0  0
 57 58  1  0  0  0  0
 57 72  1  0  0  0  0
 59 61  1  0  0  0  0
 59 71  1  0  0  0  0
 60 73  1  0  0  0  0
 63 65  1  0  0  0  0
M  CHG  1  73   1
M  ISO  4  36 100  56 101  72 100  80 101
M  END
> <Batch ID>
0052

> <Smiles>
CNC(C)C(=O)NC(C(=O)N1Cc2cc([101O:1][101CH2:1]c3ncc(C(C)C[100NH:0][100C:0](=O)N4CCCC(n5nc(-c6ccc(Oc7ccc(F)cc7F)cc6)c(C(N)=O)c5N)C4)nc3C)ccc2CC1C(=O)NC1CCCc2ccccc21)C(C)(C)C

> <Shape>
0.229

> <Color>
0.070

> <Negative vol penalty>
0.000

$$$$

  -OEChem-04052317363D

 81 89  0     1  0  0  0  0  0999 V2000
  -30.9669  -12.8760   24.0046 C   0  0  0  0  0  0  0  0  0  0  0  0
  -30.5748  -14.1148   23.5075 C   0  0  0  0  0  0  0  0  0  0  0  0
  -22.3934  -29.0758   20.8352 C   0  0  0  0  0  0  0  0  0  0  0  0
  -22.7634  -26.8294   21.6438 C   0  0  0  0  0  0  0  0  0  0  0  0
  -30.2991  -11.7208   23.6004 C   0  0  0  0  0  0  0  0  0  0  0  0
  -29.5153  -14.1989   22.6049 C   0  0  0  0  0  0  0  0  0  0  0  0
  -26.3063  -17.9543   23.7205 C   0  0  0  0  0  0  0  0  0  0  0  0
  -21.0350  -28.9580   21.1292 C   0  0  0  0  0  0  0  0  0  0  0  0
  -21.4049  -26.7116   21.9379 C   0  0  0  0  0  0  0  0  0  0  0  0
  -26.6947  -19.2477   23.3740 C   0  0  0  0  0  0  0  0  0  0  0  0
  -19.0538  -29.1342   23.8636 C   0  0  0  0  0  0  0  0  0  0  0  0
  -18.4358  -30.2034   24.5119 C   0  0  0  0  0  0  0  0  0  0  0  0
  -25.2981  -19.1345   21.4104 C   0  0  0  0  0  0  0  0  0  0  0  0
  -16.9123  -30.4499   22.6530 C   0  0  0  0  0  0  0  0  0  0  0  0
  -28.5327  -20.2494   20.5368 C   0  0  0  0  0  0  0  0  0  0  0  0
  -23.2576  -28.0115   21.0924 C   0  0  0  0  0  0  0  0  0  0  0  0
  -25.6773  -28.6060   21.6394 C   0  0  0  0  0  0  0  0  0  0  0  0
  -29.2246  -11.7918   22.6999 C   0  0  0  0  0  0  0  0  0  0  0  0
  -25.4179  -17.2360   22.9074 C   0  0  0  0  0  0  0  0  0  0  0  0
  -28.8333  -13.0434   22.1872 C   0  0  0  0  0  0  0  0  0  0  0  0
  -24.8980  -17.8331   21.7502 C   0  0  0  0  0  0  0  0  0  0  0  0
  -20.5408  -27.7759   21.6806 C   0  0  0  0  0  0  0  0  0  0  0  0
  -26.1928  -19.8369   22.2173 C   0  0  0  0  0  0  0  0  0  0  0  0
  -18.6012  -28.7228   22.6099 C   0  0  0  0  0  0  0  0  0  0  0  0
  -27.6911  -21.2413   21.0749 C   0  0  0  0  0  0  0  0  0  1  0  0
  -17.3650  -30.8613   23.9067 C   0  0  0  0  0  0  0  0  0  0  0  0
  -17.5304  -29.3807   22.0047 C   0  0  0  0  0  0  0  0  0  0  0  0
  -24.6608  -28.1325   20.7884 C   0  0  0  0  0  0  0  0  0  0  0  0
  -28.2257  -22.4249   20.6277 C   0  0  0  0  0  0  0  0  0  0  0  0
  -26.8226  -28.5225   20.8859 C   0  0  0  0  0  0  0  0  0  0  0  0
  -25.5937  -29.0791   22.9903 C   0  0  0  0  0  0  0  0  0  0  0  0
  -25.5846  -14.5311   21.2462 C   0  0  0  0  0  0  0  0  0  0  0  0
  -22.4245  -15.0860   20.7685 C   0  0  0  0  0  0  0  0  0  0  0  0
  -19.8661  -17.3409   20.6387 C   0  0  0  0  0  0  0  0  0  0  0  0
  -28.3952  -25.1127   16.2220 C   0  0  0  0  0  0  0  0  0  0  0  0
  -28.5638  -10.5109   22.2557 C   0  0  0  0  0  0  0  0  0  0  0  0
  -24.9880  -15.8517   23.3092 C   0  0  0  0  0  0  0  0  0  0  0  0
  -23.9257  -17.1119   20.8540 C   0  0  0  0  0  0  0  0  0  0  0  0
  -27.2094  -10.7250   21.5849 C   0  0  0  0  0  0  0  0  0  0  0  0
  -28.3402  -28.6704   16.3509 C   0  0  0  0  0  0  0  0  0  0  0  0
  -27.2940  -11.8502   20.5585 C   0  0  0  0  0  0  0  0  0  0  0  0
  -27.4827  -28.9787   17.5796 C   0  0  0  0  0  0  0  0  0  0  0  0
  -27.8294  -27.4428   15.5998 C   0  0  0  0  0  0  0  0  0  0  0  0
  -26.8134  -26.5404   17.6559 C   0  0  0  0  0  0  0  0  0  0  0  0
  -27.6726  -13.1781   21.2256 C   0  0  1  0  0  0  0  0  0  0  0  0
  -24.4774  -15.0206   22.1363 C   0  0  1  0  0  0  0  0  0  0  0  0
  -27.3226  -27.7371   18.4774 C   0  0  2  0  0  0  0  0  0  0  0  0
  -27.8087  -23.8237   20.8418 C   0  0  0  0  0  0  0  0  0  0  0  0
  -17.4028  -17.5014   20.1874 C   0  0  0  0  0  0  0  0  0  0  0  0
  -31.6250  -22.8798   19.7749 C   0  0  0  0  0  0  0  0  0  0  0  0
  -22.9578  -14.8184   17.7762 C   0  0  0  0  0  0  0  0  0  0  0  0
  -20.7417  -15.9045   17.3549 C   0  0  0  0  0  0  0  0  0  0  0  0
  -20.8507  -13.7243   18.5623 C   0  0  0  0  0  0  0  0  0  0  0  0
  -19.3154  -18.3575   23.3631 C   0  0  0  0  0  0  0  0  0  0  0  0
  -30.2469  -22.7527   17.6620 C   0  0  0  0  0  0  0  0  0  0  0  0
  -28.8773  -22.8003   16.9834 C   0  0  0  0  0  0  0  0  0  0  0  0
  -21.6140  -15.8301   19.7349 C   0  0  1  0  0  0  0  0  0  0  0  0
  -18.4765  -17.3239   21.2496 C   0  0  2  0  0  0  0  0  0  0  0  0
  -30.2104  -22.9819   19.1901 C   0  0  1  0  0  0  0  0  0  0  0  0
  -21.5608  -15.0825   18.3727 C   0  0  0  0  0  0  0  0  0  0  0  0
  -29.5263  -20.7583   19.8035 N   0  0  0  0  0  0  0  0  0  0  0  0
  -25.1199  -27.7747   19.5861 N   0  0  0  0  0  0  0  0  0  0  0  0
  -29.3126  -22.0831   19.8778 N   0  0  0  0  0  0  0  0  0  0  0  0
  -26.4374  -28.0237   19.6763 N   0  0  0  0  0  0  0  0  0  0  0  0
  -23.5407  -15.7582   21.2862 N   0  0  0  0  0  0  0  0  0  0  0  0
  -27.7015  -26.3002   16.5076 N   0  0  0  0  0  0  0  0  0  0  0  0
  -28.1115  -28.8278   21.1465 N   0  0  0  0  0  0  0  0  0  0  0  0
  -24.3393  -29.0982   23.6151 N   0  0  0  0  0  0  0  0  0  0  0  0
  -26.5250  -13.7531   21.8941 N   0  0  0  0  0  0  0  0  0  0  0  0
  -20.3066  -16.0697   20.3364 N   0  0  0  0  0  0  0  0  0  0  0  0
  -28.2239  -24.0811   17.1369 N   0  0  0  0  0  0  0  0  0  0  0  0
  -18.3361  -18.4216   22.2478 N   0  3  0  0  0  0  0  0  0  0  0  0
  -26.5991  -29.4885   23.6190 O   0  0  0  0  0  0  0  0  0  0  0  0
  -25.5848  -14.8355   20.0592 O   0  0  0  0  0  0  0  0  0  0  0  0
  -22.0759  -13.9529   21.1094 O   0  0  0  0  0  0  0  0  0  0  0  0
  -20.4961  -18.3783   20.4454 O   0  0  0  0  0  0  0  0  0  0  0  0
  -29.1183  -24.9834   15.2283 O   0  0  0  0  0  0  0  0  0  0  0  0
  -19.2153  -27.6606   21.9679 O   0  0  0  0  0  0  0  0  0  0  0  0
  -26.5707  -21.0990   21.8764 O   0  0  0  0  0  0  0  0  0  1  0  0
  -16.7706  -31.8870   24.5300 F   0  0  0  0  0  0  0  0  0  0  0  0
  -17.0904  -28.9893   20.8009 F   0  0  0  0  0  0  0  0  0  0  0  0
  1  2  1  0  0  0  0
  1  5  2  0  0  0  0
  2  6  2  0  0  0  0
  3  8  2  0  0  0  0
  3 16  1  0  0  0  0
  4  9  1  0  0  0  0
  4 16  2  0  0  0  0
  5 18  1  0  0  0  0
  6 20  1  0  0  0  0
  7 10  2  0  0  0  0
  7 19  1  0  0  0  0
  8 22  1  0  0  0  0
  9 22  2  0  0  0  0
 10 23  1  0  0  0  0
 11 12  2  0  0  0  0
 11 24  1  0  0  0  0
 12 26  1  0  0  0  0
 13 21  1  0  0  0  0
 13 23  2  0  0  0  0
 14 26  2  0  0  0  0
 14 27  1  0  0  0  0
 15 25  1  0  0  0  0
 15 61  2  0  0  0  0
 16 28  1  0  0  0  0
 17 28  1  0  0  0  0
 17 30  2  0  0  0  0
 17 31  1  0  0  0  0
 18 20  2  0  0  0  0
 18 36  1  0  0  0  0
 19 21  2  0  0  0  0
 19 37  1  0  0  0  0
 20 45  1  0  0  0  0
 21 38  1  0  0  0  0
 22 78  1  0  0  0  0
 23 79  1  0  0  0  0
 24 27  2  0  0  0  0
 24 78  1  0  0  0  0
 25 29  2  0  0  0  0
 25 79  1  0  0  0  0
 26 80  1  0  0  0  0
 27 81  1  0  0  0  0
 28 62  2  0  0  0  0
 29 48  1  0  0  0  0
 29 63  1  0  0  0  0
 30 64  1  0  0  0  0
 30 67  1  0  0  0  0
 31 68  1  0  0  0  0
 31 73  2  0  0  0  0
 32 46  1  0  0  0  0
 32 69  1  0  0  0  0
 32 74  2  0  0  0  0
 33 57  1  0  0  0  0
 33 65  1  0  0  0  0
 33 75  2  0  0  0  0
 34 58  1  0  0  0  0
 34 70  1  0  0  0  0
 34 76  2  0  0  0  0
 35 66  1  0  0  0  0
 35 71  1  0  0  0  0
 35 77  2  0  0  0  0
 36 39  1  0  0  0  0
 37 46  1  0  0  0  0
 38 65  1  0  0  0  0
 39 41  1  0  0  0  0
 40 42  1  0  0  0  0
 40 43  1  0  0  0  0
 41 45  1  0  0  0  0
 42 47  1  0  0  0  0
 43 66  1  0  0  0  0
 44 47  1  0  0  0  0
 44 66  1  0  0  0  0
 45 69  1  0  0  0  0
 46 65  1  0  0  0  0
 47 64  1  0  0  0  0
 49 58  1  0  0  0  0
 50 59  1  0  0  0  0
 51 60  1  0  0  0  0
 52 60  1  0  0  0  0
 53 60  1  0  0  0  0
 54 72  1  0  0  0  0
 55 56  1  0  0  0  0
 55 59  1  0  0  0  0
 56 71  1  0  0  0  0
 57 60  1  0  0  0  0
 57 70  1  0  0  0  0
 58 72  1  0  0  0  0
 59 63  1  0  0  0  0
 61 63  1  0  0  0  0
 62 64  1  0  0  0  0
M  CHG  1  72   1
M  ISO  4  25 101  35 100  71 100  79 101
M  END
> <Batch ID>
0052

> <Smiles>
CNC(C)C(=O)NC(C(=O)N1Cc2cc([101O:1][101c:1]3cnn(C(C)CC[100NH:0][100C:0](=O)N4CCCC(n5nc(-c6ccc(Oc7ccc(F)cc7F)cc6)c(C(N)=O)c5N)C4)c3C)ccc2CC1C(=O)NC1CCCc2ccccc21)C(C)(C)C

> <Shape>
0.201

> <Color>
0.073

> <Negative vol penalty>
0.000

$$$$

  -OEChem-04052317363D

 87 96  0     1  0  0  0  0  0999 V2000
  -22.7950  -11.5560   18.1044 C   0  0  0  0  0  0  0  0  0  0  0  0
  -22.5515  -12.9224   18.0084 C   0  0  0  0  0  0  0  0  0  0  0  0
  -29.3409  -26.7635   17.4658 C   0  0  0  0  0  0  0  0  0  0  0  0
  -28.5217  -24.9126   18.7848 C   0  0  0  0  0  0  0  0  0  0  0  0
  -23.6767  -11.0724   19.0702 C   0  0  0  0  0  0  0  0  0  0  0  0
  -23.1887  -13.8059   18.8789 C   0  0  0  0  0  0  0  0  0  0  0  0
  -25.0959  -19.4865   17.6145 C   0  0  0  0  0  0  0  0  0  0  0  0
  -18.0651  -28.1992   22.1553 C   0  0  0  0  0  0  0  0  0  0  0  0
  -18.7326  -27.2461   21.3758 C   0  0  0  0  0  0  0  0  0  0  0  0
  -30.5902  -26.1491   17.3795 C   0  0  0  0  0  0  0  0  0  0  0  0
  -29.7709  -24.2981   18.6985 C   0  0  0  0  0  0  0  0  0  0  0  0
  -24.5341  -20.7397   17.8543 C   0  0  0  0  0  0  0  0  0  0  0  0
  -33.8899  -24.8974   16.5074 C   0  0  0  0  0  0  0  0  0  0  0  0
  -34.5161  -24.8734   15.2613 C   0  0  0  0  0  0  0  0  0  0  0  0
  -25.8528  -20.9397   19.8643 C   0  0  0  0  0  0  0  0  0  0  0  0
  -19.6767  -27.9482   23.9651 C   0  0  0  0  0  0  0  0  0  0  0  0
  -32.6521  -23.6368   14.3484 C   0  0  0  0  0  0  0  0  0  0  0  0
  -28.3067  -26.1453   18.1685 C   0  0  0  0  0  0  0  0  0  0  0  0
  -25.9314  -26.6292   17.3739 C   0  0  0  0  0  0  0  0  0  0  0  0
  -24.3324  -11.9513   19.9467 C   0  0  0  0  0  0  0  0  0  0  0  0
  -26.0339  -18.9448   18.5051 C   0  0  0  0  0  0  0  0  0  0  0  0
  -24.0789  -13.3335   19.8582 C   0  0  0  0  0  0  0  0  0  0  0  0
  -26.4269  -19.6805   19.6323 C   0  0  0  0  0  0  0  0  0  0  0  0
  -18.5306  -28.5426   23.4267 C   0  0  0  0  0  0  0  0  0  0  0  0
  -19.8859  -26.6390   21.9009 C   0  0  0  0  0  0  0  0  0  0  0  0
  -20.3252  -27.0019   23.1710 C   0  0  0  0  0  0  0  0  0  0  0  0
  -30.8052  -24.9164   17.9958 C   0  0  0  0  0  0  0  0  0  0  0  0
  -24.9103  -21.4653   18.9809 C   0  0  0  0  0  0  0  0  0  0  0  0
  -32.6448  -24.2910   16.6741 C   0  0  0  0  0  0  0  0  0  0  0  0
  -33.8972  -24.2431   14.1817 C   0  0  0  0  0  0  0  0  0  0  0  0
  -32.0259  -23.6608   15.5945 C   0  0  0  0  0  0  0  0  0  0  0  0
  -27.0161  -26.7797   18.2584 C   0  0  0  0  0  0  0  0  0  0  0  0
  -24.9488  -27.4348   17.8955 C   0  0  0  0  0  0  0  0  0  0  0  0
  -21.6380  -25.4723   22.2591 C   0  0  0  0  0  0  0  0  0  0  0  0
  -25.8217  -25.8325   16.1870 C   0  0  0  0  0  0  0  0  0  0  0  0
  -26.1415  -16.3593   20.3511 C   0  0  0  0  0  0  0  0  0  0  0  0
  -29.1845  -17.3464   20.8876 C   0  0  0  0  0  0  0  0  0  0  0  0
  -31.4314  -19.9147   20.9356 C   0  0  0  0  0  0  0  0  0  0  0  0
  -23.8360  -29.4512   23.4224 C   0  0  0  0  0  0  0  0  0  0  0  0
  -25.2406  -11.3775   21.0052 C   0  0  0  0  0  0  0  0  0  0  0  0
  -26.6506  -17.6032   18.2181 C   0  0  0  0  0  0  0  0  0  0  0  0
  -27.4450  -19.1523   20.6085 C   0  0  0  0  0  0  0  0  0  0  0  0
  -26.1618  -12.4135   21.6442 C   0  0  0  0  0  0  0  0  0  0  0  0
  -24.3508  -31.4081   20.4928 C   0  0  0  0  0  0  0  0  0  0  0  0
  -25.3783  -13.6692   22.0133 C   0  0  0  0  0  0  0  0  0  0  0  0
  -24.9944  -30.4302   19.5082 C   0  0  0  0  0  0  0  0  0  0  0  0
  -24.8219  -31.1598   21.9241 C   0  0  0  0  0  0  0  0  0  0  0  0
  -25.2980  -28.7960   21.4149 C   0  0  0  0  0  0  0  0  0  0  0  0
  -24.7699  -14.3257   20.7682 C   0  0  1  0  0  0  0  0  0  0  0  0
  -27.2136  -16.9257   19.4636 C   0  0  1  0  0  0  0  0  0  0  0  0
  -24.8108  -28.9709   19.9664 C   0  0  2  0  0  0  0  0  0  0  0  0
  -17.7918  -29.5632   24.2287 C   0  0  0  0  0  0  0  0  0  0  0  0
  -33.6549  -21.0597   21.1414 C   0  0  0  0  0  0  0  0  0  0  0  0
  -21.4871  -25.7770   25.7833 C   0  0  0  0  0  0  0  0  0  0  0  0
  -28.5679  -17.2151   23.8730 C   0  0  0  0  0  0  0  0  0  0  0  0
  -30.6106  -18.6027   24.2850 C   0  0  0  0  0  0  0  0  0  0  0  0
  -30.8261  -16.3502   23.2352 C   0  0  0  0  0  0  0  0  0  0  0  0
  -32.0305  -19.5207   18.0642 C   0  0  0  0  0  0  0  0  0  0  0  0
  -22.7897  -24.5069   22.1359 C   0  0  0  0  0  0  0  0  0  0  0  0
  -23.0161  -23.9969   20.7111 C   0  0  0  0  0  0  0  0  0  0  0  0
  -22.9077  -27.6249   24.8231 C   0  0  0  0  0  0  0  0  0  0  0  0
  -24.2339  -23.0894   20.5810 C   0  0  0  0  0  0  0  0  0  1  0  0
  -29.8522  -18.2565   21.8901 C   0  0  1  0  0  0  0  0  0  0  0  0
  -32.8357  -20.0351   20.3719 C   0  0  2  0  0  0  0  0  0  0  0  0
  -22.2769  -26.2487   24.5578 C   0  0  2  0  0  0  0  0  0  0  0  0
  -29.9435  -17.6155   23.3037 C   0  0  0  0  0  0  0  0  0  0  0  0
  -20.7136  -25.6878   21.3502 N   0  0  0  0  0  0  0  0  0  0  0  0
  -26.7483  -27.6153   19.2654 N   0  0  0  0  0  0  0  0  0  0  0  0
  -21.4472  -26.2401   23.3741 N   0  0  0  0  0  0  0  0  0  0  0  0
  -25.4840  -27.9972   19.0168 N   0  0  0  0  0  0  0  0  0  0  0  0
  -28.0146  -17.8332   20.2876 N   0  0  0  0  0  0  0  0  0  0  0  0
  -24.6187  -29.7579   22.2971 N   0  0  0  0  0  0  0  0  0  0  0  0
  -23.6878  -27.7099   17.4996 N   0  0  0  0  0  0  0  0  0  0  0  0
  -26.9260  -25.0643   15.7936 N   0  0  0  0  0  0  0  0  0  0  0  0
  -25.7808  -15.0622   20.0401 N   0  0  0  0  0  0  0  0  0  0  0  0
  -31.1424  -18.6208   21.3147 N   0  0  0  0  0  0  0  0  0  0  0  0
  -23.6888  -28.0981   23.7021 N   0  0  0  0  0  0  0  0  0  0  0  0
  -32.7860  -20.4513   18.9418 N   0  3  0  0  0  0  0  0  0  0  0  0
  -24.7811  -25.8153   15.4867 O   0  0  0  0  0  0  0  0  0  0  0  0
  -25.6770  -17.0477   21.2522 O   0  0  0  0  0  0  0  0  0  0  0  0
  -29.6866  -16.2470   20.6407 O   0  0  0  0  0  0  0  0  0  0  0  0
  -30.6685  -20.8733   21.0335 O   0  0  0  0  0  0  0  0  0  0  0  0
  -23.3032  -30.3188   24.1227 O   0  0  0  0  0  0  0  0  0  0  0  0
  -32.0240  -24.3164   17.9117 O   0  0  0  0  0  0  0  0  0  0  0  0
  -24.3630  -22.6885   19.2176 O   0  0  0  0  0  0  0  0  0  1  0  0
  -34.4980  -24.2215   12.9848 F   0  0  0  0  0  0  0  0  0  0  0  0
  -30.8292  -23.0775   15.7482 F   0  0  0  0  0  0  0  0  0  0  0  0
  1  2  1  0  0  0  0
  1  5  2  0  0  0  0
  2  6  2  0  0  0  0
  3 10  2  0  0  0  0
  3 18  1  0  0  0  0
  4 11  1  0  0  0  0
  4 18  2  0  0  0  0
  5 20  1  0  0  0  0
  6 22  1  0  0  0  0
  7 12  2  0  0  0  0
  7 21  1  0  0  0  0
  8  9  2  0  0  0  0
  8 24  1  0  0  0  0
  9 25  1  0  0  0  0
 10 27  1  0  0  0  0
 11 27  2  0  0  0  0
 12 28  1  0  0  0  0
 13 14  2  0  0  0  0
 13 29  1  0  0  0  0
 14 30  1  0  0  0  0
 15 23  1  0  0  0  0
 15 28  2  0  0  0  0
 16 24  2  0  0  0  0
 16 26  1  0  0  0  0
 17 30  2  0  0  0  0
 17 31  1  0  0  0  0
 18 32  1  0  0  0  0
 19 32  1  0  0  0  0
 19 33  2  0  0  0  0
 19 35  1  0  0  0  0
 20 22  2  0  0  0  0
 20 40  1  0  0  0  0
 21 23  2  0  0  0  0
 21 41  1  0  0  0  0
 22 49  1  0  0  0  0
 23 42  1  0  0  0  0
 24 52  1  0  0  0  0
 25 26  2  0  0  0  0
 25 67  1  0  0  0  0
 26 69  1  0  0  0  0
 27 84  1  0  0  0  0
 28 85  1  0  0  0  0
 29 31  2  0  0  0  0
 29 84  1  0  0  0  0
 30 86  1  0  0  0  0
 31 87  1  0  0  0  0
 32 68  2  0  0  0  0
 33 70  1  0  0  0  0
 33 73  1  0  0  0  0
 34 59  1  0  0  0  0
 34 67  2  0  0  0  0
 34 69  1  0  0  0  0
 35 74  1  0  0  0  0
 35 79  2  0  0  0  0
 36 50  1  0  0  0  0
 36 75  1  0  0  0  0
 36 80  2  0  0  0  0
 37 63  1  0  0  0  0
 37 71  1  0  0  0  0
 37 81  2  0  0  0  0
 38 64  1  0  0  0  0
 38 76  1  0  0  0  0
 38 82  2  0  0  0  0
 39 72  1  0  0  0  0
 39 77  1  0  0  0  0
 39 83  2  0  0  0  0
 40 43  1  0  0  0  0
 41 50  1  0  0  0  0
 42 71  1  0  0  0  0
 43 45  1  0  0  0  0
 44 46  1  0  0  0  0
 44 47  1  0  0  0  0
 45 49  1  0  0  0  0
 46 51  1  0  0  0  0
 47 72  1  0  0  0  0
 48 51  1  0  0  0  0
 48 72  1  0  0  0  0
 49 75  1  0  0  0  0
 50 71  1  0  0  0  0
 51 70  1  0  0  0  0
 53 64  1  0  0  0  0
 54 65  1  0  0  0  0
 55 66  1  0  0  0  0
 56 66  1  0  0  0  0
 57 66  1  0  0  0  0
 58 78  1  0  0  0  0
 59 60  1  0  0  0  0
 60 62  1  0  0  0  0
 61 65  1  0  0  0  0
 61 77  1  0  0  0  0
 62 85  1  0  0  0  0
 63 66  1  0  0  0  0
 63 76  1  0  0  0  0
 64 78  1  0  0  0  0
 65 69  1  0  0  0  0
 68 70  1  0  0  0  0
M  CHG  1  78   1
M  ISO  4  39 100  62 101  77 100  85 101
M  END
> <Batch ID>
0052

> <Smiles>
CNC(C)C(=O)NC(C(=O)N1Cc2cc([101O:1][101CH2:1]CCc3nc4ccc(C)cc4n3C(C)C[100NH:0][100C:0](=O)N3CCCC(n4nc(-c5ccc(Oc6ccc(F)cc6F)cc5)c(C(N)=O)c4N)C3)ccc2CC1C(=O)NC1CCCc2ccccc21)C(C)(C)C

> <Shape>
0.211

> <Color>
0.072

> <Negative vol penalty>
0.000

$$$$

  -OEChem-04052317363D

 85 93  0     1  0  0  0  0  0999 V2000
  -26.2306  -19.9219   26.7908 C   0  0  0  0  0  0  0  0  0  0  0  0
  -26.6419  -20.6456   25.6761 C   0  0  0  0  0  0  0  0  0  0  0  0
  -25.3126  -16.4069   21.4399 C   0  0  0  0  0  0  0  0  0  0  0  0
  -25.1912  -15.8169   19.1002 C   0  0  0  0  0  0  0  0  0  0  0  0
  -24.8827  -19.8983   27.1466 C   0  0  0  0  0  0  0  0  0  0  0  0
  -25.7053  -21.3453   24.9159 C   0  0  0  0  0  0  0  0  0  0  0  0
  -27.2704  -26.0099   23.7173 C   0  0  0  0  0  0  0  0  0  0  0  0
  -24.1147  -15.7313   21.6725 C   0  0  0  0  0  0  0  0  0  0  0  0
  -23.9933  -15.1411   19.3328 C   0  0  0  0  0  0  0  0  0  0  0  0
  -28.1905  -26.1249   22.6762 C   0  0  0  0  0  0  0  0  0  0  0  0
  -21.2747  -13.8557   22.9499 C   0  0  0  0  0  0  0  0  0  0  0  0
  -21.2064  -13.0225   24.0664 C   0  0  0  0  0  0  0  0  0  0  0  0
  -26.4053  -26.7379   21.1741 C   0  0  0  0  0  0  0  0  0  0  0  0
  -23.0270  -11.6982   23.1897 C   0  0  0  0  0  0  0  0  0  0  0  0
  -30.5892  -25.4808   17.4169 C   0  0  0  0  0  0  0  0  0  0  0  0
  -25.8509  -16.4498   20.1537 C   0  0  0  0  0  0  0  0  0  0  0  0
  -28.3903  -16.6177   19.9787 C   0  0  0  0  0  0  0  0  0  0  0  0
  -23.9305  -20.6059   26.3961 C   0  0  0  0  0  0  0  0  0  0  0  0
  -25.9070  -26.2478   23.4917 C   0  0  0  0  0  0  0  0  0  0  0  0
  -24.3433  -21.3300   25.2614 C   0  0  0  0  0  0  0  0  0  0  0  0
  -25.4702  -26.6277   22.2146 C   0  0  0  0  0  0  0  0  0  0  0  0
  -23.4551  -15.0984   20.6190 C   0  0  0  0  0  0  0  0  0  0  0  0
  -27.7577  -26.4861   21.4037 C   0  0  0  0  0  0  0  0  0  0  0  0
  -22.2192  -13.6102   21.9532 C   0  0  0  0  0  0  0  0  0  0  0  0
  -22.0825  -11.9438   24.1863 C   0  0  0  0  0  0  0  0  0  0  0  0
  -23.0953  -12.5314   22.0731 C   0  0  0  0  0  0  0  0  0  0  0  0
  -27.0880  -17.1481   19.9127 C   0  0  0  0  0  0  0  0  0  0  0  0
  -30.9395  -25.8149   18.6947 C   0  0  0  0  0  0  0  0  0  0  0  0
  -29.2084  -17.6765   19.6684 C   0  0  0  0  0  0  0  0  0  0  0  0
  -31.3964  -23.6690   18.3998 C   0  0  0  0  0  0  0  0  0  0  0  0
  -28.8220  -15.2869   20.2924 C   0  0  0  0  0  0  0  0  0  0  0  0
  -23.2599  -24.5010   23.7044 C   0  0  0  0  0  0  0  0  0  0  0  0
  -21.8078  -27.3300   23.0639 C   0  0  0  0  0  0  0  0  0  0  0  0
  -30.3908  -21.9424   16.4001 C   0  0  0  0  0  0  0  0  0  0  0  0
  -22.0208  -30.4542   21.7071 C   0  0  0  0  0  0  0  0  0  0  0  0
  -22.4783  -20.5120   26.7922 C   0  0  0  0  0  0  0  0  0  0  0  0
  -24.9308  -26.1456   24.6314 C   0  0  0  0  0  0  0  0  0  0  0  0
  -24.0202  -26.9138   21.9249 C   0  0  0  0  0  0  0  0  0  0  0  0
  -21.6017  -21.5853   26.1520 C   0  0  0  0  0  0  0  0  0  0  0  0
  -28.2059  -22.6069   19.2306 C   0  0  0  0  0  0  0  0  0  0  0  0
  -21.9046  -21.7029   24.6616 C   0  0  0  0  0  0  0  0  0  0  0  0
  -27.8043  -21.1921   19.6455 C   0  0  0  0  0  0  0  0  0  0  0  0
  -28.3620  -22.7249   17.7167 C   0  0  0  0  0  0  0  0  0  0  0  0
  -28.9152  -20.3189   17.5439 C   0  0  0  0  0  0  0  0  0  0  0  0
  -23.3608  -22.1219   24.4261 C   0  0  1  0  0  0  0  0  0  0  0  0
  -23.4959  -25.9100   24.1699 C   0  0  1  0  0  0  0  0  0  0  0  0
  -28.7771  -20.1501   19.0662 C   0  0  2  0  0  0  0  0  0  0  0  0
  -33.8408  -20.7283   18.9310 C   0  0  0  0  0  0  0  0  0  0  0  0
  -20.6592  -32.5227   21.3013 C   0  0  0  0  0  0  0  0  0  0  0  0
  -30.2647  -28.3084   18.6162 C   0  0  0  0  0  0  0  0  0  0  0  0
  -32.2756  -27.5816   19.8834 C   0  0  0  0  0  0  0  0  0  0  0  0
  -31.9302  -23.4382   15.1691 C   0  0  0  0  0  0  0  0  0  0  0  0
  -29.4688  -23.8447   15.2011 C   0  0  0  0  0  0  0  0  0  0  0  0
  -20.3643  -25.9270   20.7708 C   0  0  0  0  0  0  0  0  0  0  0  0
  -19.7874  -28.1814   19.8471 C   0  0  0  0  0  0  0  0  0  0  0  0
  -18.9398  -27.5013   22.0924 C   0  0  0  0  0  0  0  0  0  0  0  0
  -23.8405  -32.1142   23.3479 C   0  0  0  0  0  0  0  0  0  0  0  0
  -31.8470  -22.2790   18.6600 C   0  0  0  0  0  0  0  0  0  0  0  0
  -33.3798  -22.1453   18.6287 C   0  0  0  0  0  0  0  0  0  0  0  0
  -29.9828  -26.9872   20.7300 C   0  0  0  0  0  0  0  0  0  1  0  0
  -21.3898  -28.0571   21.8087 C   0  0  1  0  0  0  0  0  0  0  0  0
  -21.6192  -31.8156   22.2453 C   0  0  2  0  0  0  0  0  0  0  0  0
  -30.8533  -27.1503   19.4573 C   0  0  0  0  0  0  0  0  0  0  0  0
  -30.6689  -23.3824   16.0495 C   0  0  0  0  0  0  0  0  0  0  0  0
  -20.1475  -27.4095   21.1344 C   0  0  0  0  0  0  0  0  0  0  0  0
  -27.0746  -18.4432   19.5863 N   0  0  0  0  0  0  0  0  0  0  0  0
  -30.8833  -24.1476   17.2618 N   0  0  0  0  0  0  0  0  0  0  0  0
  -28.3786  -18.7355   19.4444 N   0  0  0  0  0  0  0  0  0  0  0  0
  -31.4356  -24.6749   19.2797 N   0  3  0  0  0  0  0  0  0  0  0  0
  -23.1034  -26.7942   23.0706 N   0  0  0  0  0  0  0  0  0  0  0  0
  -29.2747  -21.6978   17.2006 N   0  0  0  0  0  0  0  0  0  0  0  0
  -30.5493  -17.7956   19.5680 N   0  0  0  0  0  0  0  0  0  0  0  0
  -27.8500  -14.3212   20.5872 N   0  0  0  0  0  0  0  0  0  0  0  0
  -23.5231  -23.5405   24.6623 N   0  0  0  0  0  0  0  0  0  0  0  0
  -21.2036  -29.4534   22.1885 N   0  0  0  0  0  0  0  0  0  0  0  0
  -22.8220  -32.6772   22.4245 N   0  3  0  0  0  0  0  0  0  0  0  0
  -30.0347  -14.9678   20.3269 O   0  0  0  0  0  0  0  0  0  0  0  0
  -22.8666  -24.3002   22.5613 O   0  0  0  0  0  0  0  0  0  0  0  0
  -21.0164  -27.2469   24.0065 O   0  0  0  0  0  0  0  0  0  0  0  0
  -31.1456  -21.0631   15.9767 O   0  0  0  0  0  0  0  0  0  0  0  0
  -22.9628  -30.2950   20.9338 O   0  0  0  0  0  0  0  0  0  0  0  0
  -22.2863  -14.4387   20.8456 O   0  0  0  0  0  0  0  0  0  0  0  0
  -28.6536  -26.5984   20.3856 O   0  0  0  0  0  0  0  0  0  1  0  0
  -22.0177  -11.1447   25.2594 F   0  0  0  0  0  0  0  0  0  0  0  0
  -24.0055  -12.2912   21.1193 F   0  0  0  0  0  0  0  0  0  0  0  0
  1  2  1  0  0  0  0
  1  5  2  0  0  0  0
  2  6  2  0  0  0  0
  3  8  2  0  0  0  0
  3 16  1  0  0  0  0
  4  9  1  0  0  0  0
  4 16  2  0  0  0  0
  5 18  1  0  0  0  0
  6 20  1  0  0  0  0
  7 10  2  0  0  0  0
  7 19  1  0  0  0  0
  8 22  1  0  0  0  0
  9 22  2  0  0  0  0
 10 23  1  0  0  0  0
 11 12  2  0  0  0  0
 11 24  1  0  0  0  0
 12 25  1  0  0  0  0
 13 21  1  0  0  0  0
 13 23  2  0  0  0  0
 14 25  2  0  0  0  0
 14 26  1  0  0  0  0
 15 28  2  0  0  0  0
 15 67  1  0  0  0  0
 16 27  1  0  0  0  0
 17 27  1  0  0  0  0
 17 29  2  0  0  0  0
 17 31  1  0  0  0  0
 18 20  2  0  0  0  0
 18 36  1  0  0  0  0
 19 21  2  0  0  0  0
 19 37  1  0  0  0  0
 20 45  1  0  0  0  0
 21 38  1  0  0  0  0
 22 82  1  0  0  0  0
 23 83  1  0  0  0  0
 24 26  2  0  0  0  0
 24 82  1  0  0  0  0
 25 84  1  0  0  0  0
 26 85  1  0  0  0  0
 27 66  2  0  0  0  0
 28 63  1  0  0  0  0
 28 69  1  0  0  0  0
 29 68  1  0  0  0  0
 29 72  1  0  0  0  0
 30 58  1  0  0  0  0
 30 67  1  0  0  0  0
 30 69  2  0  0  0  0
 31 73  1  0  0  0  0
 31 77  2  0  0  0  0
 32 46  1  0  0  0  0
 32 74  1  0  0  0  0
 32 78  2  0  0  0  0
 33 61  1  0  0  0  0
 33 70  1  0  0  0  0
 33 79  2  0  0  0  0
 34 64  1  0  0  0  0
 34 71  1  0  0  0  0
 34 80  2  0  0  0  0
 35 62  1  0  0  0  0
 35 75  1  0  0  0  0
 35 81  2  0  0  0  0
 36 39  1  0  0  0  0
 37 46  1  0  0  0  0
 38 70  1  0  0  0  0
 39 41  1  0  0  0  0
 40 42  1  0  0  0  0
 40 43  1  0  0  0  0
 41 45  1  0  0  0  0
 42 47  1  0  0  0  0
 43 71  1  0  0  0  0
 44 47  1  0  0  0  0
 44 71  1  0  0  0  0
 45 74  1  0  0  0  0
 46 70  1  0  0  0  0
 47 68  1  0  0  0  0
 48 59  1  0  0  0  0
 49 62  1  0  0  0  0
 50 63  1  0  0  0  0
 51 63  1  0  0  0  0
 52 64  1  0  0  0  0
 53 64  1  0  0  0  0
 54 65  1  0  0  0  0
 55 65  1  0  0  0  0
 56 65  1  0  0  0  0
 57 76  1  0  0  0  0
 58 59  1  0  0  0  0
 60 63  1  0  0  0  0
 60 83  1  0  0  0  0
 61 65  1  0  0  0  0
 61 75  1  0  0  0  0
 62 76  1  0  0  0  0
 64 67  1  0  0  0  0
 66 68  1  0  0  0  0
M  CHG  2  69   1  76   1
M  ISO  4  34 100  60 101  64 100  83 101
M  END
> <Batch ID>
0052

> <Smiles>
CCCc1nc(C(C)(C)[101CH2:1][101O:1]c2ccc3c(c2)CN(C(=O)C(NC(=O)C(C)NC)C(C)(C)C)C(C(=O)NC2CCCc4ccccc42)C3)cn1[100C:0](C)(C)[100C:0](=O)N1CCCC(n2nc(-c3ccc(Oc4ccc(F)cc4F)cc3)c(C(N)=O)c2N)C1

> <Shape>
0.214

> <Color>
0.064

> <Negative vol penalty>
0.000

$$$$

  -OEChem-04052317363D

 86 94  0     1  0  0  0  0  0999 V2000
  -20.5768  -34.2615   23.3237 C   0  0  0  0  0  0  0  0  0  0  0  0
  -21.8181  -33.7635   22.9408 C   0  0  0  0  0  0  0  0  0  0  0  0
  -25.9930  -16.3474   20.1602 C   0  0  0  0  0  0  0  0  0  0  0  0
  -24.8739  -18.2230   21.1929 C   0  0  0  0  0  0  0  0  0  0  0  0
  -19.6190  -33.4039   23.8630 C   0  0  0  0  0  0  0  0  0  0  0  0
  -22.1026  -32.4075   23.0981 C   0  0  0  0  0  0  0  0  0  0  0  0
  -25.5474  -28.9188   19.4282 C   0  0  0  0  0  0  0  0  0  0  0  0
  -24.7978  -15.6284   20.1707 C   0  0  0  0  0  0  0  0  0  0  0  0
  -23.6786  -17.5041   21.2034 C   0  0  0  0  0  0  0  0  0  0  0  0
  -26.8749  -28.5000   19.5070 C   0  0  0  0  0  0  0  0  0  0  0  0
  -22.9638  -13.8785   22.4064 C   0  0  0  0  0  0  0  0  0  0  0  0
  -23.0111  -12.5499   22.8285 C   0  0  0  0  0  0  0  0  0  0  0  0
  -26.1546  -26.4240   20.5021 C   0  0  0  0  0  0  0  0  0  0  0  0
  -22.1707  -11.8368   20.6786 C   0  0  0  0  0  0  0  0  0  0  0  0
  -31.4029  -27.0195   21.0303 C   0  0  0  0  0  0  0  0  0  0  0  0
  -26.0311  -17.6447   20.6713 C   0  0  0  0  0  0  0  0  0  0  0  0
  -28.4735  -18.0378   21.2942 C   0  0  0  0  0  0  0  0  0  0  0  0
  -19.8885  -32.0349   24.0181 C   0  0  0  0  0  0  0  0  0  0  0  0
  -24.5126  -28.0964   19.8965 C   0  0  0  0  0  0  0  0  0  0  0  0
  -21.1480  -31.5309   23.6413 C   0  0  0  0  0  0  0  0  0  0  0  0
  -24.8146  -26.8335   20.4258 C   0  0  0  0  0  0  0  0  0  0  0  0
  -23.6406  -16.2068   20.6922 C   0  0  0  0  0  0  0  0  0  0  0  0
  -27.1789  -27.2537   20.0467 C   0  0  0  0  0  0  0  0  0  0  0  0
  -22.5198  -14.1862   21.1203 C   0  0  0  0  0  0  0  0  0  0  0  0
  -22.6146  -11.5290   21.9647 C   0  0  0  0  0  0  0  0  0  0  0  0
  -22.1233  -13.1654   20.2565 C   0  0  0  0  0  0  0  0  0  0  0  0
  -27.2656  -18.3876   20.6613 C   0  0  0  0  0  0  0  0  0  0  0  0
  -32.6419  -26.4135   21.0729 C   0  0  0  0  0  0  0  0  0  0  0  0
  -30.8193  -27.0984   19.7823 C   0  0  0  0  0  0  0  0  0  0  0  0
  -29.3332  -19.0630   20.9839 C   0  0  0  0  0  0  0  0  0  0  0  0
  -32.6001  -26.0562   18.8284 C   0  0  0  0  0  0  0  0  0  0  0  0
  -28.7901  -16.8889   22.0913 C   0  0  0  0  0  0  0  0  0  0  0  0
  -22.3032  -28.3453   22.1682 C   0  0  0  0  0  0  0  0  0  0  0  0
  -21.2400  -25.5570   20.8963 C   0  0  0  0  0  0  0  0  0  0  0  0
  -21.9388  -22.7361   19.1073 C   0  0  0  0  0  0  0  0  0  0  0  0
  -29.4899  -22.8245   16.4361 C   0  0  0  0  0  0  0  0  0  0  0  0
  -18.8386  -31.1554   24.6496 C   0  0  0  0  0  0  0  0  0  0  0  0
  -23.0838  -28.5516   19.7799 C   0  0  0  0  0  0  0  0  0  0  0  0
  -23.7388  -25.9045   20.9239 C   0  0  0  0  0  0  0  0  0  0  0  0
  -19.0845  -29.6640   24.4358 C   0  0  0  0  0  0  0  0  0  0  0  0
  -29.3688  -23.7332   19.9371 C   0  0  0  0  0  0  0  0  0  0  0  0
  -20.5414  -29.3163   24.7245 C   0  0  0  0  0  0  0  0  0  0  0  0
  -28.9266  -22.4164   20.5780 C   0  0  0  0  0  0  0  0  0  0  0  0
  -28.6783  -23.9539   18.5945 C   0  0  0  0  0  0  0  0  0  0  0  0
  -28.4198  -21.5264   18.2561 C   0  0  0  0  0  0  0  0  0  0  0  0
  -21.4854  -30.0616   23.7732 C   0  0  1  0  0  0  0  0  0  0  0  0
  -22.1502  -27.8466   20.7591 C   0  0  1  0  0  0  0  0  0  0  0  0
  -29.0998  -21.2343   19.6061 C   0  0  2  0  0  0  0  0  0  0  0  0
  -33.3513  -26.2813   22.3788 C   0  0  0  0  0  0  0  0  0  0  0  0
  -21.5084  -20.5820   17.8940 C   0  0  0  0  0  0  0  0  0  0  0  0
  -34.3732  -24.3784   15.3704 C   0  0  0  0  0  0  0  0  0  0  0  0
  -21.3752  -24.3698   23.7039 C   0  0  0  0  0  0  0  0  0  0  0  0
  -21.2380  -22.0928   22.6722 C   0  0  0  0  0  0  0  0  0  0  0  0
  -19.3562  -23.7051   22.3862 C   0  0  0  0  0  0  0  0  0  0  0  0
  -21.3899  -24.1443   16.5627 C   0  0  0  0  0  0  0  0  0  0  0  0
  -33.0927  -23.0588   17.9567 C   0  0  0  0  0  0  0  0  0  0  0  0
  -29.4705  -27.7392   19.6363 C   0  0  0  0  0  0  0  0  0  1  0  0
  -33.2628  -25.5182   17.6056 C   0  0  0  0  0  0  0  0  0  0  0  0
  -31.9495  -24.8355   14.8160 C   0  0  0  0  0  0  0  0  0  0  0  0
  -30.5412  -24.2540   14.7016 C   0  0  0  0  0  0  0  0  0  0  0  0
  -21.5218  -24.0942   21.1409 C   0  0  1  0  0  0  0  0  0  0  0  0
  -21.2161  -22.0734   17.9484 C   0  0  2  0  0  0  0  0  0  0  0  0
  -32.9250  -24.0032   15.6584 C   0  0  2  0  0  0  0  0  0  0  0  0
  -20.8934  -23.5836   22.4683 C   0  0  0  0  0  0  0  0  0  0  0  0
  -27.3468  -19.5447   19.9991 N   0  0  0  0  0  0  0  0  0  0  0  0
  -33.2720  -25.9188   19.9872 N   0  0  0  0  0  0  0  0  0  0  0  0
  -31.3919  -26.6255   18.6559 N   0  0  0  0  0  0  0  0  0  0  0  0
  -28.6159  -19.9310   20.2142 N   0  0  0  0  0  0  0  0  0  0  0  0
  -22.3576  -26.3975   20.7941 N   0  0  0  0  0  0  0  0  0  0  0  0
  -28.8974  -22.8010   17.7096 N   0  0  0  0  0  0  0  0  0  0  0  0
  -30.6252  -19.2978   21.2971 N   0  0  0  0  0  0  0  0  0  0  0  0
  -28.5820  -16.9581   23.4756 N   0  0  0  0  0  0  0  0  0  0  0  0
  -21.4979  -29.4260   22.4731 N   0  0  0  0  0  0  0  0  0  0  0  0
  -21.0629  -23.3856   19.9511 N   0  0  0  0  0  0  0  0  0  0  0  0
  -29.9086  -24.0717   15.9891 N   0  0  0  0  0  0  0  0  0  0  0  0
  -21.6407  -22.6830   16.6565 N   0  3  0  0  0  0  0  0  0  0  0  0
  -32.6676  -24.2409   17.1242 N   0  3  1  0  0  0  0  0  0  0  0  0
  -29.2595  -15.8378   21.5929 O   0  0  0  0  0  0  0  0  0  0  0  0
  -23.0924  -27.7897   22.9234 O   0  0  0  0  0  0  0  0  0  0  0  0
  -20.0716  -25.9387   20.7925 O   0  0  0  0  0  0  0  0  0  0  0  0
  -23.1580  -22.6798   19.2516 O   0  0  0  0  0  0  0  0  0  0  0  0
  -29.6397  -21.8078   15.7498 O   0  0  0  0  0  0  0  0  0  0  0  0
  -22.4740  -15.5057   20.7024 O   0  0  0  0  0  0  0  0  0  0  0  0
  -28.4738  -26.8428   20.1254 O   0  0  0  0  0  0  0  0  0  1  0  0
  -22.6617  -10.2531   22.3697 F   0  0  0  0  0  0  0  0  0  0  0  0
  -21.6969  -13.4548   19.0194 F   0  0  0  0  0  0  0  0  0  0  0  0
  1  2  1  0  0  0  0
  1  5  2  0  0  0  0
  2  6  2  0  0  0  0
  3  8  2  0  0  0  0
  3 16  1  0  0  0  0
  4  9  1  0  0  0  0
  4 16  2  0  0  0  0
  5 18  1  0  0  0  0
  6 20  1  0  0  0  0
  7 10  2  0  0  0  0
  7 19  1  0  0  0  0
  8 22  1  0  0  0  0
  9 22  2  0  0  0  0
 10 23  1  0  0  0  0
 11 12  2  0  0  0  0
 11 24  1  0  0  0  0
 12 25  1  0  0  0  0
 13 21  1  0  0  0  0
 13 23  2  0  0  0  0
 14 25  2  0  0  0  0
 14 26  1  0  0  0  0
 15 28  2  0  0  0  0
 15 29  1  0  0  0  0
 16 27  1  0  0  0  0
 17 27  1  0  0  0  0
 17 30  2  0  0  0  0
 17 32  1  0  0  0  0
 18 20  2  0  0  0  0
 18 37  1  0  0  0  0
 19 21  2  0  0  0  0
 19 38  1  0  0  0  0
 20 46  1  0  0  0  0
 21 39  1  0  0  0  0
 22 83  1  0  0  0  0
 23 84  1  0  0  0  0
 24 26  2  0  0  0  0
 24 83  1  0  0  0  0
 25 85  1  0  0  0  0
 26 86  1  0  0  0  0
 27 65  2  0  0  0  0
 28 49  1  0  0  0  0
 28 66  1  0  0  0  0
 29 57  1  0  0  0  0
 29 67  2  0  0  0  0
 30 68  1  0  0  0  0
 30 71  1  0  0  0  0
 31 58  1  0  0  0  0
 31 66  2  0  0  0  0
 31 67  1  0  0  0  0
 32 72  1  0  0  0  0
 32 78  2  0  0  0  0
 33 47  1  0  0  0  0
 33 73  1  0  0  0  0
 33 79  2  0  0  0  0
 34 61  1  0  0  0  0
 34 69  1  0  0  0  0
 34 80  2  0  0  0  0
 35 62  1  0  0  0  0
 35 74  1  0  0  0  0
 35 81  2  0  0  0  0
 36 70  1  0  0  0  0
 36 75  1  0  0  0  0
 36 82  2  0  0  0  0
 37 40  1  0  0  0  0
 38 47  1  0  0  0  0
 39 69  1  0  0  0  0
 40 42  1  0  0  0  0
 41 43  1  0  0  0  0
 41 44  1  0  0  0  0
 42 46  1  0  0  0  0
 43 48  1  0  0  0  0
 44 70  1  0  0  0  0
 45 48  1  0  0  0  0
 45 70  1  0  0  0  0
 46 73  1  0  0  0  0
 47 69  1  0  0  0  0
 48 68  1  0  0  0  0
 50 62  1  0  0  0  0
 51 63  1  0  0  0  0
 52 64  1  0  0  0  0
 53 64  1  0  0  0  0
 54 64  1  0  0  0  0
 55 76  1  0  0  0  0
 56 77  1  0  0  0  0
 57 84  1  0  0  0  0
 58 77  1  0  0  0  0
 59 60  1  0  0  0  0
 59 63  1  0  0  0  0
 60 75  1  0  0  0  0
 61 64  1  0  0  0  0
 61 74  1  0  0  0  0
 62 76  1  0  0  0  0
 63 77  1  0  0  0  0
 65 68  1  0  0  0  0
M  CHG  2  76   1  77   1
M  ISO  4  36 100  57 101  75 100  84 101
M  END
> <Batch ID>
0052

> <Smiles>
CNC(C)C(=O)NC(C(=O)N1Cc2cc([101O:1][101CH2:1]c3cc(C)nc(CN(C)C(C)CC[100NH:0][100C:0](=O)N4CCCC(n5nc(-c6ccc(Oc7ccc(F)cc7F)cc6)c(C(N)=O)c5N)C4)n3)ccc2CC1C(=O)NC1CCCc2ccccc21)C(C)(C)C

> <Shape>
0.211

> <Color>
0.062

> <Negative vol penalty>
0.000

$$$$

  -OEChem-04052317363D

 81 89  0     1  0  0  0  0  0999 V2000
  -20.9274  -34.8801   22.9019 C   0  0  0  0  0  0  0  0  0  0  0  0
  -22.1447  -34.3060   22.5498 C   0  0  0  0  0  0  0  0  0  0  0  0
  -26.7585  -17.2453   19.8780 C   0  0  0  0  0  0  0  0  0  0  0  0
  -29.0853  -16.6992   19.5247 C   0  0  0  0  0  0  0  0  0  0  0  0
  -19.9498  -34.1091   23.5294 C   0  0  0  0  0  0  0  0  0  0  0  0
  -22.3856  -32.9606   22.8261 C   0  0  0  0  0  0  0  0  0  0  0  0
  -25.6502  -29.0351   19.4440 C   0  0  0  0  0  0  0  0  0  0  0  0
  -26.4082  -15.9203   19.6191 C   0  0  0  0  0  0  0  0  0  0  0  0
  -28.7350  -15.3741   19.2658 C   0  0  0  0  0  0  0  0  0  0  0  0
  -26.9638  -28.5786   19.5433 C   0  0  0  0  0  0  0  0  0  0  0  0
  -26.4315  -12.9695   21.2699 C   0  0  0  0  0  0  0  0  0  0  0  0
  -25.5139  -12.3622   22.1272 C   0  0  0  0  0  0  0  0  0  0  0  0
  -26.1896  -26.6278   20.7324 C   0  0  0  0  0  0  0  0  0  0  0  0
  -24.0185  -11.9940   20.2656 C   0  0  0  0  0  0  0  0  0  0  0  0
  -31.8581  -27.7150   20.5979 C   0  0  0  0  0  0  0  0  0  0  0  0
  -28.0971  -17.6348   19.8307 C   0  0  0  0  0  0  0  0  0  0  0  0
  -28.7822  -19.5699   21.3454 C   0  0  0  0  0  0  0  0  0  0  0  0
  -20.1752  -32.7511   23.8048 C   0  0  0  0  0  0  0  0  0  0  0  0
  -24.5958  -28.2954   19.9987 C   0  0  0  0  0  0  0  0  0  0  0  0
  -21.4106  -32.1710   23.4590 C   0  0  0  0  0  0  0  0  0  0  0  0
  -24.8633  -27.0757   20.6366 C   0  0  0  0  0  0  0  0  0  0  0  0
  -27.3964  -14.9846   19.3131 C   0  0  0  0  0  0  0  0  0  0  0  0
  -27.2340  -27.3762   20.1901 C   0  0  0  0  0  0  0  0  0  0  0  0
  -26.1426  -13.0891   19.9105 C   0  0  0  0  0  0  0  0  0  0  0  0
  -24.3074  -11.8745   21.6251 C   0  0  0  0  0  0  0  0  0  0  0  0
  -24.9361  -12.6013   19.4084 C   0  0  0  0  0  0  0  0  0  0  0  0
  -28.4596  -19.0036   20.0975 C   0  0  0  0  0  0  0  0  0  0  0  0
  -33.0459  -27.0237   20.7221 C   0  0  0  0  0  0  0  0  0  0  0  0
  -30.8624  -27.0694   19.8937 C   0  0  0  0  0  0  0  0  0  0  0  0
  -29.0499  -20.8876   21.0655 C   0  0  0  0  0  0  0  0  0  0  0  0
  -32.2089  -25.2727   19.5386 C   0  0  0  0  0  0  0  0  0  0  0  0
  -28.8352  -18.9592   22.6415 C   0  0  0  0  0  0  0  0  0  0  0  0
  -22.4332  -28.8264   22.2668 C   0  0  0  0  0  0  0  0  0  0  0  0
  -21.2555  -25.9738   21.2677 C   0  0  0  0  0  0  0  0  0  0  0  0
  -21.8292  -22.9798   19.7336 C   0  0  0  0  0  0  0  0  0  0  0  0
  -31.5540  -23.8221   16.5709 C   0  0  0  0  0  0  0  0  0  0  0  0
  -19.1064  -31.9698   24.5273 C   0  0  0  0  0  0  0  0  0  0  0  0
  -23.1816  -28.7883   19.8597 C   0  0  0  0  0  0  0  0  0  0  0  0
  -23.7648  -26.2341   21.2310 C   0  0  0  0  0  0  0  0  0  0  0  0
  -19.2980  -30.4575   24.4468 C   0  0  0  0  0  0  0  0  0  0  0  0
  -27.9450  -23.9776   17.3788 C   0  0  0  0  0  0  0  0  0  0  0  0
  -20.7468  -30.0862   24.7470 C   0  0  0  0  0  0  0  0  0  0  0  0
  -27.7372  -22.7187   18.2190 C   0  0  0  0  0  0  0  0  0  0  0  0
  -29.0928  -23.8145   16.3870 C   0  0  0  0  0  0  0  0  0  0  0  0
  -30.1691  -22.1408   17.8548 C   0  0  0  0  0  0  0  0  0  0  0  0
  -21.7000  -30.7086   23.7196 C   0  0  1  0  0  0  0  0  0  0  0  0
  -22.2406  -28.2081   20.9110 C   0  0  1  0  0  0  0  0  0  0  0  0
  -29.0499  -22.2885   18.8965 C   0  0  2  0  0  0  0  0  0  0  0  0
  -34.1814  -27.6409   21.4677 C   0  0  0  0  0  0  0  0  0  0  0  0
  -20.6824  -20.8398   19.0992 C   0  0  0  0  0  0  0  0  0  0  0  0
  -21.3956  -25.0414   24.1695 C   0  0  0  0  0  0  0  0  0  0  0  0
  -21.1646  -22.6866   23.3510 C   0  0  0  0  0  0  0  0  0  0  0  0
  -19.3342  -24.3318   22.9442 C   0  0  0  0  0  0  0  0  0  0  0  0
  -33.8911  -24.4390   17.0577 C   0  0  0  0  0  0  0  0  0  0  0  0
  -22.3242  -23.4334   16.8512 C   0  0  0  0  0  0  0  0  0  0  0  0
  -29.5339  -27.7416   19.7075 C   0  0  0  0  0  0  0  0  0  1  0  0
  -32.4018  -23.9148   18.9532 C   0  0  0  0  0  0  0  0  0  0  0  0
  -21.4914  -24.5301   21.6406 C   0  0  1  0  0  0  0  0  0  0  0  0
  -21.0658  -22.2410   18.6493 C   0  0  2  0  0  0  0  0  0  0  0  0
  -20.8676  -24.1641   23.0169 C   0  0  0  0  0  0  0  0  0  0  0  0
  -28.5164  -19.8892   19.0993 N   0  0  0  0  0  0  0  0  0  0  0  0
  -33.2566  -25.7962   20.2032 N   0  0  0  0  0  0  0  0  0  0  0  0
  -31.0040  -25.8435   19.3484 N   0  0  0  0  0  0  0  0  0  0  0  0
  -28.8777  -21.0253   19.7196 N   0  0  0  0  0  0  0  0  0  0  0  0
  -22.3992  -26.7617   21.0749 N   0  0  0  0  0  0  0  0  0  0  0  0
  -30.3162  -23.3635   17.0510 N   0  0  0  0  0  0  0  0  0  0  0  0
  -29.4133  -21.9305   21.8420 N   0  0  0  0  0  0  0  0  0  0  0  0
  -28.5309  -17.5955   22.7506 N   0  0  0  0  0  0  0  0  0  0  0  0
  -21.6700  -29.9580   22.4826 N   0  0  0  0  0  0  0  0  0  0  0  0
  -20.9896  -23.7335   20.5262 N   0  0  0  0  0  0  0  0  0  0  0  0
  -32.5924  -23.9560   17.5050 N   0  0  0  0  0  0  0  0  0  0  0  0
  -21.8957  -22.1282   17.4166 N   0  3  0  0  0  0  0  0  0  0  0  0
  -29.1274  -19.6076   23.6748 O   0  0  0  0  0  0  0  0  0  0  0  0
  -23.2151  -28.3139   23.0591 O   0  0  0  0  0  0  0  0  0  0  0  0
  -20.0992  -26.3855   21.1447 O   0  0  0  0  0  0  0  0  0  0  0  0
  -23.0480  -22.8938   19.8666 O   0  0  0  0  0  0  0  0  0  0  0  0
  -31.7186  -24.1054   15.3774 O   0  0  0  0  0  0  0  0  0  0  0  0
  -27.0549  -13.6915   19.0606 O   0  0  0  0  0  0  0  0  0  0  0  0
  -28.5154  -26.9287   20.2890 O   0  0  0  0  0  0  0  0  0  1  0  0
  -23.4270  -11.2899   22.4481 F   0  0  0  0  0  0  0  0  0  0  0  0
  -24.6535  -12.7122   18.1032 F   0  0  0  0  0  0  0  0  0  0  0  0
  1  2  1  0  0  0  0
  1  5  2  0  0  0  0
  2  6  2  0  0  0  0
  3  8  2  0  0  0  0
  3 16  1  0  0  0  0
  4  9  1  0  0  0  0
  4 16  2  0  0  0  0
  5 18  1  0  0  0  0
  6 20  1  0  0  0  0
  7 10  2  0  0  0  0
  7 19  1  0  0  0  0
  8 22  1  0  0  0  0
  9 22  2  0  0  0  0
 10 23  1  0  0  0  0
 11 12  2  0  0  0  0
 11 24  1  0  0  0  0
 12 25  1  0  0  0  0
 13 21  1  0  0  0  0
 13 23  2  0  0  0  0
 14 25  2  0  0  0  0
 14 26  1  0  0  0  0
 15 28  2  0  0  0  0
 15 29  1  0  0  0  0
 16 27  1  0  0  0  0
 17 27  1  0  0  0  0
 17 30  2  0  0  0  0
 17 32  1  0  0  0  0
 18 20  2  0  0  0  0
 18 37  1  0  0  0  0
 19 21  2  0  0  0  0
 19 38  1  0  0  0  0
 20 46  1  0  0  0  0
 21 39  1  0  0  0  0
 22 78  1  0  0  0  0
 23 79  1  0  0  0  0
 24 26  2  0  0  0  0
 24 78  1  0  0  0  0
 25 80  1  0  0  0  0
 26 81  1  0  0  0  0
 27 61  2  0  0  0  0
 28 49  1  0  0  0  0
 28 62  1  0  0  0  0
 29 56  1  0  0  0  0
 29 63  2  0  0  0  0
 30 64  1  0  0  0  0
 30 67  1  0  0  0  0
 31 57  1  0  0  0  0
 31 62  2  0  0  0  0
 31 63  1  0  0  0  0
 32 68  1  0  0  0  0
 32 73  2  0  0  0  0
 33 47  1  0  0  0  0
 33 69  1  0  0  0  0
 33 74  2  0  0  0  0
 34 58  1  0  0  0  0
 34 65  1  0  0  0  0
 34 75  2  0  0  0  0
 35 59  1  0  0  0  0
 35 70  1  0  0  0  0
 35 76  2  0  0  0  0
 36 66  1  0  0  0  0
 36 71  1  0  0  0  0
 36 77  2  0  0  0  0
 37 40  1  0  0  0  0
 38 47  1  0  0  0  0
 39 65  1  0  0  0  0
 40 42  1  0  0  0  0
 41 43  1  0  0  0  0
 41 44  1  0  0  0  0
 42 46  1  0  0  0  0
 43 48  1  0  0  0  0
 44 66  1  0  0  0  0
 45 48  1  0  0  0  0
 45 66  1  0  0  0  0
 46 69  1  0  0  0  0
 47 65  1  0  0  0  0
 48 64  1  0  0  0  0
 50 59  1  0  0  0  0
 51 60  1  0  0  0  0
 52 60  1  0  0  0  0
 53 60  1  0  0  0  0
 54 71  1  0  0  0  0
 55 72  1  0  0  0  0
 56 79  1  0  0  0  0
 57 71  1  0  0  0  0
 58 60  1  0  0  0  0
 58 70  1  0  0  0  0
 59 72  1  0  0  0  0
 61 64  1  0  0  0  0
M  CHG  1  72   1
M  ISO  4  36 100  56 101  71 100  79 101
M  END
> <Batch ID>
0052

> <Smiles>
CNC(C)C(=O)NC(C(=O)N1Cc2cc([101O:1][101CH2:1]c3cc(C)nc(C[100N:0](C)[100C:0](=O)N4CCCC(n5nc(-c6ccc(Oc7ccc(F)cc7F)cc6)c(C(N)=O)c5N)C4)n3)ccc2CC1C(=O)NC1CCCc2ccccc21)C(C)(C)C

> <Shape>
0.221

> <Color>
0.098

> <Negative vol penalty>
0.000

$$$$

  -OEChem-04052317363D

 90 99  0     1  0  0  0  0  0999 V2000
  -27.7110  -29.6934   13.0492 C   0  0  0  0  0  0  0  0  0  0  0  0
  -27.3301  -28.4673   13.5848 C   0  0  0  0  0  0  0  0  0  0  0  0
  -26.5455  -12.5276   21.6068 C   0  0  0  0  0  0  0  0  0  0  0  0
  -26.0802  -13.5330   19.4597 C   0  0  0  0  0  0  0  0  0  0  0  0
  -27.8543  -30.8023   13.8821 C   0  0  0  0  0  0  0  0  0  0  0  0
  -27.0933  -28.3491   14.9539 C   0  0  0  0  0  0  0  0  0  0  0  0
  -22.9240  -24.7825   17.6745 C   0  0  0  0  0  0  0  0  0  0  0  0
  -25.2847  -11.9311   21.6007 C   0  0  0  0  0  0  0  0  0  0  0  0
  -24.8194  -12.9364   19.4536 C   0  0  0  0  0  0  0  0  0  0  0  0
  -23.0132  -23.5305   18.2816 C   0  0  0  0  0  0  0  0  0  0  0  0
  -23.8030   -9.2530   20.1636 C   0  0  0  0  0  0  0  0  0  0  0  0
  -23.7190   -7.9110   20.5344 C   0  0  0  0  0  0  0  0  0  0  0  0
  -23.2393  -24.5968   20.4336 C   0  0  0  0  0  0  0  0  0  0  0  0
  -22.2441   -8.5058   22.3532 C   0  0  0  0  0  0  0  0  0  0  0  0
  -27.5346  -24.9528   21.3611 C   0  0  0  0  0  0  0  0  0  0  0  0
  -27.0094  -24.1412   20.3798 C   0  0  0  0  0  0  0  0  0  0  0  0
  -26.0043  -19.1017   18.9752 C   0  0  0  0  0  0  0  0  0  0  0  0
  -26.9432  -13.3287   20.5363 C   0  0  0  0  0  0  0  0  0  0  0  0
  -29.4425  -13.4093   20.0315 C   0  0  0  0  0  0  0  0  0  0  0  0
  -27.6099  -30.6999   15.2607 C   0  0  0  0  0  0  0  0  0  0  0  0
  -23.0028  -25.9531   18.4425 C   0  0  0  0  0  0  0  0  0  0  0  0
  -27.2348  -29.4573   15.8062 C   0  0  0  0  0  0  0  0  0  0  0  0
  -23.1482  -25.8624   19.8342 C   0  0  0  0  0  0  0  0  0  0  0  0
  -24.4216  -12.1355   20.5242 C   0  0  0  0  0  0  0  0  0  0  0  0
  -23.1738  -23.4376   19.6609 C   0  0  0  0  0  0  0  0  0  0  0  0
  -23.1076  -10.2214   20.8876 C   0  0  0  0  0  0  0  0  0  0  0  0
  -22.9396   -7.5373   21.6292 C   0  0  0  0  0  0  0  0  0  0  0  0
  -22.3281   -9.8478   21.9824 C   0  0  0  0  0  0  0  0  0  0  0  0
  -28.2453  -13.9456   20.5423 C   0  0  0  0  0  0  0  0  0  0  0  0
  -27.9182  -23.1192   22.6726 C   0  0  0  0  0  0  0  0  0  0  0  0
  -27.3924  -22.3075   21.6917 C   0  0  0  0  0  0  0  0  0  0  0  0
  -25.8216  -19.6465   20.2148 C   0  0  0  0  0  0  0  0  0  0  0  0
  -30.3854  -14.3768   20.2792 C   0  0  0  0  0  0  0  0  0  0  0  0
  -27.9451  -19.9224   19.6537 C   0  0  0  0  0  0  0  0  0  0  0  0
  -29.6809  -12.1492   19.3903 C   0  0  0  0  0  0  0  0  0  0  0  0
  -24.9887  -28.4324   18.5553 C   0  0  0  0  0  0  0  0  0  0  0  0
  -22.8155  -29.5791   20.6730 C   0  0  0  0  0  0  0  0  0  0  0  0
  -29.9266  -20.3144   21.0832 C   0  0  0  0  0  0  0  0  0  0  0  0
  -20.3333  -28.9200   22.9204 C   0  0  0  0  0  0  0  0  0  0  0  0
  -27.8238  -31.9150   16.1281 C   0  0  0  0  0  0  0  0  0  0  0  0
  -22.8779  -27.2955   17.7756 C   0  0  0  0  0  0  0  0  0  0  0  0
  -23.2179  -27.0886   20.7059 C   0  0  0  0  0  0  0  0  0  0  0  0
  -27.1904  -31.7948   17.5118 C   0  0  0  0  0  0  0  0  0  0  0  0
  -31.4127  -17.9277   23.3048 C   0  0  0  0  0  0  0  0  0  0  0  0
  -27.5139  -30.4388   18.1310 C   0  0  0  0  0  0  0  0  0  0  0  0
  -30.8553  -16.5901   22.8197 C   0  0  0  0  0  0  0  0  0  0  0  0
  -30.3870  -19.0470   23.1560 C   0  0  0  0  0  0  0  0  0  0  0  0
  -29.2893  -17.8597   21.2832 C   0  0  0  0  0  0  0  0  0  0  0  0
  -26.9450  -29.2950   17.2826 C   0  0  1  0  0  0  0  0  0  0  0  0
  -23.4867  -28.4289   18.5955 C   0  0  1  0  0  0  0  0  0  0  0  0
  -30.3043  -16.7076   21.3875 C   0  0  2  0  0  0  0  0  0  0  0  0
  -28.6657  -23.6373   25.0091 C   0  0  0  0  0  0  0  0  0  0  0  0
  -18.7728  -30.0587   24.5221 C   0  0  0  0  0  0  0  0  0  0  0  0
  -29.5959  -21.7255   19.0913 C   0  0  0  0  0  0  0  0  0  0  0  0
  -30.3577  -19.3542   18.9168 C   0  0  0  0  0  0  0  0  0  0  0  0
  -25.1205  -29.9764   22.6324 C   0  0  0  0  0  0  0  0  0  0  0  0
  -23.4311  -30.1945   24.4673 C   0  0  0  0  0  0  0  0  0  0  0  0
  -23.4526  -31.8394   22.5921 C   0  0  0  0  0  0  0  0  0  0  0  0
  -17.9455  -27.9266   21.4815 C   0  0  0  0  0  0  0  0  0  0  0  0
  -28.4280  -22.5579   23.9557 C   0  0  0  0  0  0  0  0  0  0  0  0
  -27.3082  -20.8156   21.8696 C   0  0  0  0  0  0  0  0  0  0  0  0
  -24.5828  -19.7373   21.0698 C   0  0  0  0  0  0  0  0  0  0  0  0
  -23.2837  -19.8178   20.2652 C   0  0  0  0  0  0  0  0  0  0  0  0
  -23.1821  -21.0731   19.4065 C   0  0  0  0  0  0  0  0  0  1  0  0
  -22.6282  -29.4873   22.1681 C   0  0  1  0  0  0  0  0  0  0  0  0
  -18.9561  -29.5304   23.1079 C   0  0  2  0  0  0  0  0  0  0  0  0
  -29.3797  -20.3015   19.6780 C   0  0  0  0  0  0  0  0  0  0  0  0
  -23.6588  -30.3511   22.9486 C   0  0  0  0  0  0  0  0  0  0  0  0
  -27.9985  -24.4564   22.5251 N   0  0  0  0  0  0  0  0  0  0  0  0
  -26.9289  -22.8039   20.5275 N   0  0  0  0  0  0  0  0  0  0  0  0
  -28.4099  -15.1596   21.0745 N   0  0  0  0  0  0  0  0  0  0  0  0
  -27.0387  -20.1465   20.6107 N   0  0  0  0  0  0  0  0  0  0  0  0
  -29.7216  -15.3940   20.8995 N   0  0  0  0  0  0  0  0  0  0  0  0
  -27.3272  -19.2869   18.6529 N   0  3  0  0  0  0  0  0  0  0  0  0
  -23.0974  -28.3784   20.0062 N   0  0  0  0  0  0  0  0  0  0  0  0
  -29.8712  -19.1114   21.7873 N   0  0  0  0  0  0  0  0  0  0  0  0
  -31.7093  -14.4481   20.0249 N   0  0  0  0  0  0  0  0  0  0  0  0
  -28.6006  -11.2737   19.2153 N   0  0  0  0  0  0  0  0  0  0  0  0
  -25.5219  -29.1585   17.5075 N   0  0  0  0  0  0  0  0  0  0  0  0
  -21.2361  -29.8382   22.4275 N   0  0  0  0  0  0  0  0  0  0  0  0
  -17.8987  -28.5135   22.8454 N   0  3  0  0  0  0  0  0  0  0  0  0
  -30.8214  -11.8029   18.9994 O   0  0  0  0  0  0  0  0  0  0  0  0
  -25.6175  -27.8227   19.4125 O   0  0  0  0  0  0  0  0  0  0  0  0
  -22.7083  -30.6746   20.1162 O   0  0  0  0  0  0  0  0  0  0  0  0
  -30.3915  -21.3625   21.5387 O   0  0  0  0  0  0  0  0  0  0  0  0
  -20.5841  -27.7470   23.1883 O   0  0  0  0  0  0  0  0  0  0  0  0
  -23.1913  -11.5533   20.5178 O   0  0  0  0  0  0  0  0  0  0  0  0
  -23.2619  -22.2169   20.2559 O   0  0  0  0  0  0  0  0  0  1  0  0
  -22.8578   -6.2484   21.9842 F   0  0  0  0  0  0  0  0  0  0  0  0
  -21.6568  -10.7736   22.6811 F   0  0  0  0  0  0  0  0  0  0  0  0
  1  2  1  0  0  0  0
  1  5  2  0  0  0  0
  2  6  2  0  0  0  0
  3  8  2  0  0  0  0
  3 18  1  0  0  0  0
  4  9  1  0  0  0  0
  4 18  2  0  0  0  0
  5 20  1  0  0  0  0
  6 22  1  0  0  0  0
  7 10  2  0  0  0  0
  7 21  1  0  0  0  0
  8 24  1  0  0  0  0
  9 24  2  0  0  0  0
 10 25  1  0  0  0  0
 11 12  2  0  0  0  0
 11 26  1  0  0  0  0
 12 27  1  0  0  0  0
 13 23  1  0  0  0  0
 13 25  2  0  0  0  0
 14 27  2  0  0  0  0
 14 28  1  0  0  0  0
 15 16  1  0  0  0  0
 15 69  2  0  0  0  0
 16 70  2  0  0  0  0
 17 32  2  0  0  0  0
 17 74  1  0  0  0  0
 18 29  1  0  0  0  0
 19 29  1  0  0  0  0
 19 33  2  0  0  0  0
 19 35  1  0  0  0  0
 20 22  2  0  0  0  0
 20 40  1  0  0  0  0
 21 23  2  0  0  0  0
 21 41  1  0  0  0  0
 22 49  1  0  0  0  0
 23 42  1  0  0  0  0
 24 87  1  0  0  0  0
 25 88  1  0  0  0  0
 26 28  2  0  0  0  0
 26 87  1  0  0  0  0
 27 89  1  0  0  0  0
 28 90  1  0  0  0  0
 29 71  2  0  0  0  0
 30 31  2  0  0  0  0
 30 60  1  0  0  0  0
 30 69  1  0  0  0  0
 31 61  1  0  0  0  0
 31 70  1  0  0  0  0
 32 62  1  0  0  0  0
 32 72  1  0  0  0  0
 33 73  1  0  0  0  0
 33 77  1  0  0  0  0
 34 67  1  0  0  0  0
 34 72  1  0  0  0  0
 34 74  2  0  0  0  0
 35 78  1  0  0  0  0
 35 82  2  0  0  0  0
 36 50  1  0  0  0  0
 36 79  1  0  0  0  0
 36 83  2  0  0  0  0
 37 65  1  0  0  0  0
 37 75  1  0  0  0  0
 37 84  2  0  0  0  0
 38 67  1  0  0  0  0
 38 76  1  0  0  0  0
 38 85  2  0  0  0  0
 39 66  1  0  0  0  0
 39 80  1  0  0  0  0
 39 86  2  0  0  0  0
 40 43  1  0  0  0  0
 41 50  1  0  0  0  0
 42 75  1  0  0  0  0
 43 45  1  0  0  0  0
 44 46  1  0  0  0  0
 44 47  1  0  0  0  0
 45 49  1  0  0  0  0
 46 51  1  0  0  0  0
 47 76  1  0  0  0  0
 48 51  1  0  0  0  0
 48 76  1  0  0  0  0
 49 79  1  0  0  0  0
 50 75  1  0  0  0  0
 51 73  1  0  0  0  0
 52 60  1  0  0  0  0
 53 66  1  0  0  0  0
 54 67  1  0  0  0  0
 55 67  1  0  0  0  0
 56 68  1  0  0  0  0
 57 68  1  0  0  0  0
 58 68  1  0  0  0  0
 59 81  1  0  0  0  0
 61 72  1  0  0  0  0
 62 63  1  0  0  0  0
 63 64  1  0  0  0  0
 64 88  1  0  0  0  0
 65 68  1  0  0  0  0
 65 80  1  0  0  0  0
 66 81  1  0  0  0  0
 71 73  1  0  0  0  0
M  CHG  2  74   1  81   1
M  ISO  4  38 100  64 101  67 100  88 101
M  END
> <Batch ID>
0052

> <Smiles>
CCc1nccnc1Cn1c(CC[101CH2:1][101O:1]c2ccc3c(c2)CN(C(=O)C(NC(=O)C(C)NC)C(C)(C)C)C(C(=O)NC2CCCc4ccccc42)C3)cnc1[100C:0](C)(C)[100C:0](=O)N1CCCC(n2nc(-c3ccc(Oc4ccc(F)cc4F)cc3)c(C(N)=O)c2N)C1

> <Shape>
0.272

> <Color>
0.060

> <Negative vol penalty>
0.000

$$$$

  -OEChem-04052317363D

 85 93  0     1  0  0  0  0  0999 V2000
  -35.9788  -19.7582   15.2152 C   0  0  0  0  0  0  0  0  0  0  0  0
  -34.7888  -19.1238   15.5574 C   0  0  0  0  0  0  0  0  0  0  0  0
  -30.8599  -18.4435   22.9095 C   0  0  0  0  0  0  0  0  0  0  0  0
  -28.6959  -17.6801   23.6654 C   0  0  0  0  0  0  0  0  0  0  0  0
  -36.4692  -20.7933   16.0101 C   0  0  0  0  0  0  0  0  0  0  0  0
  -34.0892  -19.5236   16.6955 C   0  0  0  0  0  0  0  0  0  0  0  0
  -28.0104  -19.6291   17.4322 C   0  0  0  0  0  0  0  0  0  0  0  0
  -30.5135  -19.7534   23.2406 C   0  0  0  0  0  0  0  0  0  0  0  0
  -28.3495  -18.9900   23.9966 C   0  0  0  0  0  0  0  0  0  0  0  0
  -27.1237  -18.7417   18.0406 C   0  0  0  0  0  0  0  0  0  0  0  0
  -27.0294  -22.0839   25.3763 C   0  0  0  0  0  0  0  0  0  0  0  0
  -26.4072  -22.2998   26.6059 C   0  0  0  0  0  0  0  0  0  0  0  0
  -27.2092  -20.0529   20.0637 C   0  0  0  0  0  0  0  0  0  0  0  0
  -28.3330  -21.3838   27.7413 C   0  0  0  0  0  0  0  0  0  0  0  0
  -24.6576  -15.2919   21.0227 C   0  0  0  0  0  0  0  0  0  0  0  0
  -29.9511  -17.4068   23.1218 C   0  0  0  0  0  0  0  0  0  0  0  0
  -31.3800  -15.3007   23.2952 C   0  0  0  0  0  0  0  0  0  0  0  0
  -35.7703  -21.2125   17.1530 C   0  0  0  0  0  0  0  0  0  0  0  0
  -28.5124  -20.7309   18.1397 C   0  0  0  0  0  0  0  0  0  0  0  0
  -34.5715  -20.5645   17.5071 C   0  0  0  0  0  0  0  0  0  0  0  0
  -28.1001  -20.9542   19.4611 C   0  0  0  0  0  0  0  0  0  0  0  0
  -29.2584  -20.0267   23.7842 C   0  0  0  0  0  0  0  0  0  0  0  0
  -26.7253  -18.9519   19.3575 C   0  0  0  0  0  0  0  0  0  0  0  0
  -28.3034  -21.5178   25.3292 C   0  0  0  0  0  0  0  0  0  0  0  0
  -27.0590  -21.9498   27.7883 C   0  0  0  0  0  0  0  0  0  0  0  0
  -28.9552  -21.1678   26.5117 C   0  0  0  0  0  0  0  0  0  0  0  0
  -30.3081  -16.0535   22.7794 C   0  0  0  0  0  0  0  0  0  0  0  0
  -23.3710  -14.8453   21.3791 C   0  0  0  0  0  0  0  0  0  0  0  0
  -24.4419  -16.1709   19.9896 C   0  0  0  0  0  0  0  0  0  0  0  0
  -31.2877  -14.0888   22.6554 C   0  0  0  0  0  0  0  0  0  0  0  0
  -32.3706  -15.6643   24.2659 C   0  0  0  0  0  0  0  0  0  0  0  0
  -31.4054  -21.6841   19.0484 C   0  0  0  0  0  0  0  0  0  0  0  0
  -29.8027  -24.3344   20.0126 C   0  0  0  0  0  0  0  0  0  0  0  0
  -26.8508  -25.7385   20.9932 C   0  0  0  0  0  0  0  0  0  0  0  0
  -26.7251  -11.1518   20.1239 C   0  0  0  0  0  0  0  0  0  0  0  0
  -36.3642  -22.3042   18.0074 C   0  0  0  0  0  0  0  0  0  0  0  0
  -29.4473  -21.6937   17.4604 C   0  0  0  0  0  0  0  0  0  0  0  0
  -28.5942  -22.1332   20.2575 C   0  0  0  0  0  0  0  0  0  0  0  0
  -35.3695  -22.9186   18.9890 C   0  0  0  0  0  0  0  0  0  0  0  0
  -29.7766  -12.1193   18.5653 C   0  0  0  0  0  0  0  0  0  0  0  0
  -34.5872  -21.8258   19.7104 C   0  0  0  0  0  0  0  0  0  0  0  0
  -30.3556  -13.1694   19.5151 C   0  0  0  0  0  0  0  0  0  0  0  0
  -28.2542  -12.2083   18.4861 C   0  0  0  0  0  0  0  0  0  0  0  0
  -28.1411  -13.2049   20.7373 C   0  0  0  0  0  0  0  0  0  0  0  0
  -33.7710  -20.9863   18.7202 C   0  0  1  0  0  0  0  0  0  0  0  0
  -30.2958  -22.4959   18.4422 C   0  0  1  0  0  0  0  0  0  0  0  0
  -29.6690  -13.1183   20.8933 C   0  0  2  0  0  0  0  0  0  0  0  0
  -25.8617  -27.9159   21.7534 C   0  0  0  0  0  0  0  0  0  0  0  0
  -22.4127  -10.8246   20.3275 C   0  0  0  0  0  0  0  0  0  0  0  0
  -31.0663  -23.9455   22.7625 C   0  0  0  0  0  0  0  0  0  0  0  0
  -29.3546  -25.5171   23.6943 C   0  0  0  0  0  0  0  0  0  0  0  0
  -30.9798  -26.3194   21.9804 C   0  0  0  0  0  0  0  0  0  0  0  0
  -22.3689  -16.9753   18.8192 C   0  0  0  0  0  0  0  0  0  0  0  0
  -24.9966  -25.8341   18.6885 C   0  0  0  0  0  0  0  0  0  0  0  0
  -21.4804  -12.0091   23.0124 C   0  0  0  0  0  0  0  0  0  0  0  0
  -23.0160  -13.8825   22.4353 C   0  0  0  0  0  0  0  0  0  0  0  0
  -25.4009  -16.9853   19.1720 C   0  0  0  0  0  0  0  0  0  1  0  0
  -23.9456  -10.8443   22.3376 C   0  0  0  0  0  0  0  0  0  0  0  0
  -25.2509  -10.1970   21.8772 C   0  0  0  0  0  0  0  0  0  0  0  0
  -29.1129  -24.7627   21.2853 C   0  0  1  0  0  0  0  0  0  0  0  0
  -26.1504  -27.0148   20.5629 C   0  0  2  0  0  0  0  0  0  0  0  0
  -23.2346  -11.6908   21.2736 C   0  0  2  0  0  0  0  0  0  0  0  0
  -30.1204  -25.1128   22.4165 C   0  0  0  0  0  0  0  0  0  0  0  0
  -29.5878  -15.3766   21.8810 N   0  0  0  0  0  0  0  0  0  0  0  0
  -22.4092  -15.3952   20.6331 N   0  0  0  0  0  0  0  0  0  0  0  0
  -23.0918  -16.1966   19.7977 N   0  0  0  0  0  0  0  0  0  0  0  0
  -30.2083  -14.1857   21.8273 N   0  0  0  0  0  0  0  0  0  0  0  0
  -29.5117  -23.0427   19.5514 N   0  0  0  0  0  0  0  0  0  0  0  0
  -27.6648  -12.1525   19.8261 N   0  0  0  0  0  0  0  0  0  0  0  0
  -32.0253  -12.9604   22.7260 N   0  0  0  0  0  0  0  0  0  0  0  0
  -32.1039  -15.4137   25.6188 N   0  0  0  0  0  0  0  0  0  0  0  0
  -32.5777  -21.6989   18.3170 N   0  0  0  0  0  0  0  0  0  0  0  0
  -28.2224  -25.8584   20.9180 N   0  0  0  0  0  0  0  0  0  0  0  0
  -26.2206  -11.1665   21.4185 N   0  0  0  0  0  0  0  0  0  0  0  0
  -24.8591  -26.6956   19.8909 N   0  3  0  0  0  0  0  0  0  0  0  0
  -22.3008  -12.6662   21.9364 N   0  3  1  0  0  0  0  0  0  0  0  0
  -33.4531  -16.2106   23.9445 O   0  0  0  0  0  0  0  0  0  0  0  0
  -31.2127  -21.0896   20.1025 O   0  0  0  0  0  0  0  0  0  0  0  0
  -30.5659  -25.1196   19.4447 O   0  0  0  0  0  0  0  0  0  0  0  0
  -26.2422  -24.7368   21.3629 O   0  0  0  0  0  0  0  0  0  0  0  0
  -26.3666  -10.3045   19.2989 O   0  0  0  0  0  0  0  0  0  0  0  0
  -28.9201  -21.3048   24.1077 O   0  0  0  0  0  0  0  0  0  0  0  0
  -25.8604  -18.0870   19.9540 O   0  0  0  0  0  0  0  0  0  1  0  0
  -26.4620  -22.1586   28.9691 F   0  0  0  0  0  0  0  0  0  0  0  0
  -30.1797  -20.6247   26.4728 F   0  0  0  0  0  0  0  0  0  0  0  0
  1  2  1  0  0  0  0
  1  5  2  0  0  0  0
  2  6  2  0  0  0  0
  3  8  2  0  0  0  0
  3 16  1  0  0  0  0
  4  9  1  0  0  0  0
  4 16  2  0  0  0  0
  5 18  1  0  0  0  0
  6 20  1  0  0  0  0
  7 10  2  0  0  0  0
  7 19  1  0  0  0  0
  8 22  1  0  0  0  0
  9 22  2  0  0  0  0
 10 23  1  0  0  0  0
 11 12  2  0  0  0  0
 11 24  1  0  0  0  0
 12 25  1  0  0  0  0
 13 21  1  0  0  0  0
 13 23  2  0  0  0  0
 14 25  2  0  0  0  0
 14 26  1  0  0  0  0
 15 28  1  0  0  0  0
 15 29  2  0  0  0  0
 16 27  1  0  0  0  0
 17 27  1  0  0  0  0
 17 30  2  0  0  0  0
 17 31  1  0  0  0  0
 18 20  2  0  0  0  0
 18 36  1  0  0  0  0
 19 21  2  0  0  0  0
 19 37  1  0  0  0  0
 20 45  1  0  0  0  0
 21 38  1  0  0  0  0
 22 82  1  0  0  0  0
 23 83  1  0  0  0  0
 24 26  2  0  0  0  0
 24 82  1  0  0  0  0
 25 84  1  0  0  0  0
 26 85  1  0  0  0  0
 27 64  2  0  0  0  0
 28 56  1  0  0  0  0
 28 65  2  0  0  0  0
 29 57  1  0  0  0  0
 29 66  1  0  0  0  0
 30 67  1  0  0  0  0
 30 70  1  0  0  0  0
 31 71  1  0  0  0  0
 31 77  2  0  0  0  0
 32 46  1  0  0  0  0
 32 72  1  0  0  0  0
 32 78  2  0  0  0  0
 33 60  1  0  0  0  0
 33 68  1  0  0  0  0
 33 79  2  0  0  0  0
 34 61  1  0  0  0  0
 34 73  1  0  0  0  0
 34 80  2  0  0  0  0
 35 69  1  0  0  0  0
 35 74  1  0  0  0  0
 35 81  2  0  0  0  0
 36 39  1  0  0  0  0
 37 46  1  0  0  0  0
 38 68  1  0  0  0  0
 39 41  1  0  0  0  0
 40 42  1  0  0  0  0
 40 43  1  0  0  0  0
 41 45  1  0  0  0  0
 42 47  1  0  0  0  0
 43 69  1  0  0  0  0
 44 47  1  0  0  0  0
 44 69  1  0  0  0  0
 45 72  1  0  0  0  0
 46 68  1  0  0  0  0
 47 67  1  0  0  0  0
 48 61  1  0  0  0  0
 49 62  1  0  0  0  0
 50 63  1  0  0  0  0
 51 63  1  0  0  0  0
 52 63  1  0  0  0  0
 53 66  1  0  0  0  0
 54 75  1  0  0  0  0
 55 76  1  0  0  0  0
 56 76  1  0  0  0  0
 57 83  1  0  0  0  0
 58 59  1  0  0  0  0
 58 62  1  0  0  0  0
 59 74  1  0  0  0  0
 60 63  1  0  0  0  0
 60 73  1  0  0  0  0
 61 75  1  0  0  0  0
 62 76  1  0  0  0  0
 64 67  1  0  0  0  0
 65 66  1  0  0  0  0
M  CHG  2  75   1  76   1
M  ISO  4  35 100  57 101  74 100  83 101
M  END
> <Batch ID>
0052

> <Smiles>
CNC(C)C(=O)NC(C(=O)N1Cc2cc([101O:1][101CH2:1]c3cc(CN(C)C(C)CC[100NH:0][100C:0](=O)N4CCCC(n5nc(-c6ccc(Oc7ccc(F)cc7F)cc6)c(C(N)=O)c5N)C4)nn3C)ccc2CC1C(=O)NC1CCCc2ccccc21)C(C)(C)C

> <Shape>
0.186

> <Color>
0.063

> <Negative vol penalty>
0.000

$$$$

  -OEChem-04052317363D

 80 88  0     1  0  0  0  0  0999 V2000
  -23.2808  -20.0289   19.9944 C   0  0  0  0  0  0  0  0  0  0  0  0
  -24.0972  -19.4440   20.9571 C   0  0  0  0  0  0  0  0  0  0  0  0
  -23.2060   -9.8479   19.9548 C   0  0  0  0  0  0  0  0  0  0  0  0
  -23.9139   -9.9313   22.2633 C   0  0  0  0  0  0  0  0  0  0  0  0
  -22.1863  -20.7993   20.3851 C   0  0  0  0  0  0  0  0  0  0  0  0
  -23.8203  -19.6301   22.3110 C   0  0  0  0  0  0  0  0  0  0  0  0
  -24.1652  -15.3357   24.9726 C   0  0  0  0  0  0  0  0  0  0  0  0
  -22.5148   -8.6634   20.2095 C   0  0  0  0  0  0  0  0  0  0  0  0
  -23.2227   -8.7468   22.5180 C   0  0  0  0  0  0  0  0  0  0  0  0
  -25.4451  -14.8922   25.3027 C   0  0  0  0  0  0  0  0  0  0  0  0
  -21.3468   -5.9368   23.8610 C   0  0  0  0  0  0  0  0  0  0  0  0
  -20.5680   -5.8752   25.0165 C   0  0  0  0  0  0  0  0  0  0  0  0
  -25.1851  -15.8101   27.5183 C   0  0  0  0  0  0  0  0  0  0  0  0
  -19.2454   -7.7354   24.2243 C   0  0  0  0  0  0  0  0  0  0  0  0
  -30.1760  -17.1121   24.5197 C   0  0  0  0  0  0  0  0  0  0  0  0
  -23.9055  -10.4818   20.9817 C   0  0  0  0  0  0  0  0  0  0  0  0
  -24.1244  -13.0185   20.8238 C   0  0  0  0  0  0  0  0  0  0  0  0
  -21.8902  -20.9870   21.7444 C   0  0  0  0  0  0  0  0  0  0  0  0
  -23.3886  -16.0304   25.9110 C   0  0  0  0  0  0  0  0  0  0  0  0
  -22.7217  -20.4048   22.7202 C   0  0  0  0  0  0  0  0  0  0  0  0
  -23.8947  -16.2590   27.1985 C   0  0  0  0  0  0  0  0  0  0  0  0
  -22.5231   -8.1128   21.4911 C   0  0  0  0  0  0  0  0  0  0  0  0
  -25.9564  -15.1320   26.5748 C   0  0  0  0  0  0  0  0  0  0  0  0
  -21.0750   -6.8978   22.8871 C   0  0  0  0  0  0  0  0  0  0  0  0
  -19.5173   -6.7745   25.1982 C   0  0  0  0  0  0  0  0  0  0  0  0
  -20.0243   -7.7970   23.0688 C   0  0  0  0  0  0  0  0  0  0  0  0
  -24.6202  -11.7051   20.7191 C   0  0  0  0  0  0  0  0  0  0  0  0
  -30.6955  -15.8836   24.2236 C   0  0  0  0  0  0  0  0  0  0  0  0
  -25.1858  -13.8154   20.4704 C   0  0  0  0  0  0  0  0  0  0  0  0
  -29.8518  -15.7938   26.2682 C   0  0  0  0  0  0  0  0  0  0  0  0
  -22.8210  -13.4772   21.2065 C   0  0  0  0  0  0  0  0  0  0  0  0
  -22.1261  -18.9437   26.0613 C   0  0  0  0  0  0  0  0  0  0  0  0
  -20.7591  -17.7881   28.7666 C   0  0  0  0  0  0  0  0  0  0  0  0
  -20.8549  -15.5316   31.3250 C   0  0  0  0  0  0  0  0  0  0  0  0
  -30.9486  -14.0617   20.9640 C   0  0  0  0  0  0  0  0  0  0  0  0
  -20.7239  -21.8670   22.1185 C   0  0  0  0  0  0  0  0  0  0  0  0
  -21.9995  -16.4787   25.5478 C   0  0  0  0  0  0  0  0  0  0  0  0
  -23.0933  -16.9824   28.2487 C   0  0  0  0  0  0  0  0  0  0  0  0
  -20.2807  -21.7062   23.5704 C   0  0  0  0  0  0  0  0  0  0  0  0
  -29.3626  -13.1249   17.9171 C   0  0  0  0  0  0  0  0  0  0  0  0
  -21.4880  -21.7267   24.5025 C   0  0  0  0  0  0  0  0  0  0  0  0
  -27.9319  -12.7854   18.3387 C   0  0  0  0  0  0  0  0  0  0  0  0
  -30.3787  -12.6997   18.9748 C   0  0  0  0  0  0  0  0  0  0  0  0
  -28.6813  -12.8737   20.7531 C   0  0  0  0  0  0  0  0  0  0  0  0
  -22.4394  -20.5631   24.1985 C   0  0  1  0  0  0  0  0  0  0  0  0
  -21.4958  -17.6269   26.4169 C   0  0  1  0  0  0  0  0  0  0  0  0
  -27.6162  -13.3340   19.7432 C   0  0  2  0  0  0  0  0  0  0  0  0
  -19.6221  -14.8573   33.4042 C   0  0  0  0  0  0  0  0  0  0  0  0
  -21.9180  -20.1999   30.2329 C   0  0  0  0  0  0  0  0  0  0  0  0
  -21.4871  -19.0068   32.3914 C   0  0  0  0  0  0  0  0  0  0  0  0
  -19.5819  -19.6003   30.8945 C   0  0  0  0  0  0  0  0  0  0  0  0
  -30.8738  -13.6967   25.4488 C   0  0  0  0  0  0  0  0  0  0  0  0
  -20.3126  -12.8224   30.2644 C   0  0  0  0  0  0  0  0  0  0  0  0
  -31.3673  -15.4015   23.0106 C   0  0  0  0  0  0  0  0  0  0  0  0
  -29.4258  -15.3063   27.6317 C   0  0  0  0  0  0  0  0  0  0  0  0
  -27.9272  -15.4671   27.8630 C   0  0  0  0  0  0  0  0  0  1  0  0
  -21.1507  -17.7347   30.2235 C   0  0  1  0  0  0  0  0  0  0  0  0
  -19.7862  -14.6261   31.9101 C   0  0  2  0  0  0  0  0  0  0  0  0
  -21.0505  -19.1234   30.9154 C   0  0  0  0  0  0  0  0  0  0  0  0
  -25.8971  -11.6655   20.3294 N   0  0  0  0  0  0  0  0  0  0  0  0
  -30.4814  -15.0880   25.3233 N   0  0  0  0  0  0  0  0  0  0  0  0
  -26.2127  -12.9640   20.1862 N   0  0  0  0  0  0  0  0  0  0  0  0
  -29.6604  -17.0277   25.7905 N   0  3  0  0  0  0  0  0  0  0  0  0
  -21.7430  -17.4066   27.8433 N   0  0  0  0  0  0  0  0  0  0  0  0
  -30.0226  -13.2544   20.2831 N   0  0  0  0  0  0  0  0  0  0  0  0
  -25.3315  -15.1543   20.3781 N   0  0  0  0  0  0  0  0  0  0  0  0
  -21.8482  -12.5244   21.5384 N   0  0  0  0  0  0  0  0  0  0  0  0
  -21.9216  -19.3295   24.7503 N   0  0  0  0  0  0  0  0  0  0  0  0
  -20.3187  -16.7024   30.8323 N   0  0  0  0  0  0  0  0  0  0  0  0
  -30.5289  -14.5519   22.1945 N   0  0  0  0  0  0  0  0  0  0  0  0
  -20.1431  -13.1956   31.6923 N   0  3  0  0  0  0  0  0  0  0  0  0
  -22.5228  -14.6953   21.2368 O   0  0  0  0  0  0  0  0  0  0  0  0
  -22.7504  -19.5645   26.9137 O   0  0  0  0  0  0  0  0  0  0  0  0
  -19.6200  -18.1479   28.4593 O   0  0  0  0  0  0  0  0  0  0  0  0
  -22.0468  -15.2319   31.3103 O   0  0  0  0  0  0  0  0  0  0  0  0
  -32.0646  -14.3305   20.5065 O   0  0  0  0  0  0  0  0  0  0  0  0
  -21.8486   -6.9572   21.7401 O   0  0  0  0  0  0  0  0  0  0  0  0
  -27.2056  -14.7008   26.8994 O   0  0  0  0  0  0  0  0  0  1  0  0
  -18.7685   -6.7142   26.3072 F   0  0  0  0  0  0  0  0  0  0  0  0
  -19.7576   -8.7216   22.1361 F   0  0  0  0  0  0  0  0  0  0  0  0
  1  2  1  0  0  0  0
  1  5  2  0  0  0  0
  2  6  2  0  0  0  0
  3  8  2  0  0  0  0
  3 16  1  0  0  0  0
  4  9  1  0  0  0  0
  4 16  2  0  0  0  0
  5 18  1  0  0  0  0
  6 20  1  0  0  0  0
  7 10  2  0  0  0  0
  7 19  1  0  0  0  0
  8 22  1  0  0  0  0
  9 22  2  0  0  0  0
 10 23  1  0  0  0  0
 11 12  2  0  0  0  0
 11 24  1  0  0  0  0
 12 25  1  0  0  0  0
 13 21  1  0  0  0  0
 13 23  2  0  0  0  0
 14 25  2  0  0  0  0
 14 26  1  0  0  0  0
 15 28  2  0  0  0  0
 15 63  1  0  0  0  0
 16 27  1  0  0  0  0
 17 27  1  0  0  0  0
 17 29  2  0  0  0  0
 17 31  1  0  0  0  0
 18 20  2  0  0  0  0
 18 36  1  0  0  0  0
 19 21  2  0  0  0  0
 19 37  1  0  0  0  0
 20 45  1  0  0  0  0
 21 38  1  0  0  0  0
 22 77  1  0  0  0  0
 23 78  1  0  0  0  0
 24 26  2  0  0  0  0
 24 77  1  0  0  0  0
 25 79  1  0  0  0  0
 26 80  1  0  0  0  0
 27 60  2  0  0  0  0
 28 54  1  0  0  0  0
 28 61  1  0  0  0  0
 29 62  1  0  0  0  0
 29 66  1  0  0  0  0
 30 55  1  0  0  0  0
 30 61  1  0  0  0  0
 30 63  2  0  0  0  0
 31 67  1  0  0  0  0
 31 72  2  0  0  0  0
 32 46  1  0  0  0  0
 32 68  1  0  0  0  0
 32 73  2  0  0  0  0
 33 57  1  0  0  0  0
 33 64  1  0  0  0  0
 33 74  2  0  0  0  0
 34 58  1  0  0  0  0
 34 69  1  0  0  0  0
 34 75  2  0  0  0  0
 35 65  1  0  0  0  0
 35 70  1  0  0  0  0
 35 76  2  0  0  0  0
 36 39  1  0  0  0  0
 37 46  1  0  0  0  0
 38 64  1  0  0  0  0
 39 41  1  0  0  0  0
 40 42  1  0  0  0  0
 40 43  1  0  0  0  0
 41 45  1  0  0  0  0
 42 47  1  0  0  0  0
 43 65  1  0  0  0  0
 44 47  1  0  0  0  0
 44 65  1  0  0  0  0
 45 68  1  0  0  0  0
 46 64  1  0  0  0  0
 47 62  1  0  0  0  0
 48 58  1  0  0  0  0
 49 59  1  0  0  0  0
 50 59  1  0  0  0  0
 51 59  1  0  0  0  0
 52 61  1  0  0  0  0
 53 71  1  0  0  0  0
 54 70  1  0  0  0  0
 55 56  1  0  0  0  0
 56 78  1  0  0  0  0
 57 59  1  0  0  0  0
 57 69  1  0  0  0  0
 58 71  1  0  0  0  0
 60 62  1  0  0  0  0
M  CHG  2  63   1  71   1
M  ISO  4  35 100  56 101  70 100  78 101
M  END
> <Batch ID>
0052

> <Smiles>
CNC(C)C(=O)NC(C(=O)N1Cc2cc([101O:1][101CH2:1]Cc3ncc(C[100NH:0][100C:0](=O)N4CCCC(n5nc(-c6ccc(Oc7ccc(F)cc7F)cc6)c(C(N)=O)c5N)C4)n3C)ccc2CC1C(=O)NC1CCCc2ccccc21)C(C)(C)C

> <Shape>
0.151

> <Color>
0.185

> <Negative vol penalty>
0.000

$$$$

  -OEChem-04052317363D

 86 94  0     1  0  0  0  0  0999 V2000
  -32.3012  -13.3900   20.7791 C   0  0  0  0  0  0  0  0  0  0  0  0
  -31.6763  -14.5251   21.2854 C   0  0  0  0  0  0  0  0  0  0  0  0
  -23.1141  -29.2322   19.9750 C   0  0  0  0  0  0  0  0  0  0  0  0
  -23.1009  -28.2285   22.1726 C   0  0  0  0  0  0  0  0  0  0  0  0
  -31.5850  -12.4987   19.9812 C   0  0  0  0  0  0  0  0  0  0  0  0
  -30.3350  -14.7702   20.9932 C   0  0  0  0  0  0  0  0  0  0  0  0
  -27.6931  -16.2182   25.0637 C   0  0  0  0  0  0  0  0  0  0  0  0
  -21.9723  -29.9634   20.3021 C   0  0  0  0  0  0  0  0  0  0  0  0
  -21.9590  -28.9597   22.4998 C   0  0  0  0  0  0  0  0  0  0  0  0
  -27.8370  -17.5414   25.4785 C   0  0  0  0  0  0  0  0  0  0  0  0
  -18.6348  -28.7853   21.9085 C   0  0  0  0  0  0  0  0  0  0  0  0
  -17.5972  -28.1126   22.5539 C   0  0  0  0  0  0  0  0  0  0  0  0
  -25.7594  -18.1027   24.3887 C   0  0  0  0  0  0  0  0  0  0  0  0
  -17.7923  -29.6162   24.4349 C   0  0  0  0  0  0  0  0  0  0  0  0
  -30.3284  -22.4789   19.0811 C   0  0  0  0  0  0  0  0  0  0  0  0
  -23.6785  -28.3647   20.9103 C   0  0  0  0  0  0  0  0  0  0  0  0
  -26.1982  -27.9965   20.7582 C   0  0  0  0  0  0  0  0  0  0  0  0
  -30.2316  -12.7280   19.6870 C   0  0  0  0  0  0  0  0  0  0  0  0
  -26.5849  -15.8289   24.2977 C   0  0  0  0  0  0  0  0  0  0  0  0
  -29.6004  -13.8819   20.1895 C   0  0  0  0  0  0  0  0  0  0  0  0
  -25.6025  -16.7734   23.9676 C   0  0  0  0  0  0  0  0  0  0  0  0
  -21.3947  -29.8272   21.5645 C   0  0  0  0  0  0  0  0  0  0  0  0
  -26.8716  -18.4845   25.1386 C   0  0  0  0  0  0  0  0  0  0  0  0
  -19.2512  -29.8735   22.5264 C   0  0  0  0  0  0  0  0  0  0  0  0
  -17.1759  -28.5280   23.8170 C   0  0  0  0  0  0  0  0  0  0  0  0
  -18.8299  -30.2889   23.7896 C   0  0  0  0  0  0  0  0  0  0  0  0
  -24.8577  -27.6086   20.5728 C   0  0  0  0  0  0  0  0  0  0  0  0
  -31.3673  -24.1624   19.8666 C   0  0  0  0  0  0  0  0  0  0  0  0
  -30.4872  -23.7811   20.8519 C   0  0  0  0  0  0  0  0  0  0  0  0
  -26.9312  -26.9380   20.2801 C   0  0  0  0  0  0  0  0  0  0  0  0
  -26.7329  -29.2056   21.3132 C   0  0  0  0  0  0  0  0  0  0  0  0
  -26.1836  -14.6266   21.3827 C   0  0  0  0  0  0  0  0  0  0  0  0
  -27.7941  -21.4200   19.9691 C   0  0  0  0  0  0  0  0  0  0  0  0
  -23.0865  -14.4089   22.3222 C   0  0  0  0  0  0  0  0  0  0  0  0
  -20.5946  -15.5253   24.3694 C   0  0  0  0  0  0  0  0  0  0  0  0
  -29.5117  -11.7606   18.7812 C   0  0  0  0  0  0  0  0  0  0  0  0
  -26.4307  -14.3920   23.8807 C   0  0  0  0  0  0  0  0  0  0  0  0
  -24.3837  -16.4023   23.1642 C   0  0  0  0  0  0  0  0  0  0  0  0
  -27.9921  -11.8989   18.8271 C   0  0  0  0  0  0  0  0  0  0  0  0
  -25.5252  -22.8852   17.6143 C   0  0  0  0  0  0  0  0  0  0  0  0
  -27.5865  -13.3663   18.7321 C   0  0  0  0  0  0  0  0  0  0  0  0
  -25.2360  -24.2646   18.2050 C   0  0  0  0  0  0  0  0  0  0  0  0
  -25.7088  -21.8371   18.7073 C   0  0  0  0  0  0  0  0  0  0  0  0
  -26.4693  -23.5654   20.3062 C   0  0  0  0  0  0  0  0  0  0  0  0
  -28.1402  -14.1695   19.9152 C   0  0  1  0  0  0  0  0  0  0  0  0
  -25.5222  -14.2160   22.6678 C   0  0  1  0  0  0  0  0  0  0  0  0
  -26.3075  -24.6599   19.2365 C   0  0  2  0  0  0  0  0  0  0  0  0
  -32.3325  -25.2730   19.8810 C   0  0  0  0  0  0  0  0  0  0  0  0
  -29.3568  -20.7579   21.7843 C   0  0  0  0  0  0  0  0  0  0  0  0
  -18.1613  -15.1825   24.8784 C   0  0  0  0  0  0  0  0  0  0  0  0
  -22.3433  -15.9587   19.8011 C   0  0  0  0  0  0  0  0  0  0  0  0
  -20.1005  -16.4046   20.8203 C   0  0  0  0  0  0  0  0  0  0  0  0
  -20.8102  -14.0602   20.3485 C   0  0  0  0  0  0  0  0  0  0  0  0
  -21.1731  -14.7079   27.1544 C   0  0  0  0  0  0  0  0  0  0  0  0
  -29.1235  -24.6859   26.3602 C   0  0  0  0  0  0  0  0  0  0  0  0
  -30.2139  -24.3369   22.2267 C   0  0  0  0  0  0  0  0  0  0  0  0
  -31.2342  -23.9013   23.2868 C   0  0  0  0  0  0  0  0  0  0  0  0
  -28.3420  -21.7682   25.4248 C   0  0  0  0  0  0  0  0  0  0  0  0
  -30.9596  -24.3980   24.7029 C   0  0  0  0  0  0  0  0  0  0  0  0
  -29.7163  -22.4100   25.5413 C   0  0  0  0  0  0  0  0  0  0  0  0
  -28.3401  -20.2693   25.6990 C   0  0  0  0  0  0  0  0  0  1  0  0
  -28.7948  -21.9257   20.9774 C   0  0  1  0  0  0  0  0  0  0  0  0
  -21.8839  -15.3194   22.2600 C   0  0  1  0  0  0  0  0  0  0  0  0
  -19.5864  -14.7818   25.2268 C   0  0  2  0  0  0  0  0  0  0  0  0
  -21.3083  -15.4434   20.8210 C   0  0  0  0  0  0  0  0  0  0  0  0
  -31.2633  -23.3480   18.7669 N   0  0  0  0  0  0  0  0  0  0  0  0
  -24.7429  -26.3982   20.0198 N   0  0  0  0  0  0  0  0  0  0  0  0
  -29.8285  -22.7018   20.3340 N   0  0  0  0  0  0  0  0  0  0  0  0
  -26.0207  -26.0164   19.8536 N   0  0  0  0  0  0  0  0  0  0  0  0
  -24.2814  -14.9862   22.7746 N   0  0  0  0  0  0  0  0  0  0  0  0
  -26.7186  -22.2598   19.6793 N   0  0  0  0  0  0  0  0  0  0  0  0
  -28.2594  -26.7149   20.1869 N   0  0  0  0  0  0  0  0  0  0  0  0
  -25.8390  -30.1898   21.7565 N   0  0  0  0  0  0  0  0  0  0  0  0
  -27.3459  -13.9341   21.1018 N   0  0  0  0  0  0  0  0  0  0  0  0
  -20.9335  -14.8080   23.2417 N   0  0  0  0  0  0  0  0  0  0  0  0
  -19.8175  -15.0745   26.6697 N   0  3  0  0  0  0  0  0  0  0  0  0
  -29.6475  -23.8537   25.2147 N   0  3  1  0  0  0  0  0  0  0  0  0
  -27.9670  -29.4140   21.3978 O   0  0  0  0  0  0  0  0  0  0  0  0
  -25.6761  -15.5056   20.6960 O   0  0  0  0  0  0  0  0  0  0  0  0
  -27.9663  -20.3125   19.4532 O   0  0  0  0  0  0  0  0  0  0  0  0
  -22.9682  -13.2272   21.9887 O   0  0  0  0  0  0  0  0  0  0  0  0
  -21.0345  -16.6333   24.6683 O   0  0  0  0  0  0  0  0  0  0  0  0
  -20.2806  -30.5408   21.8841 O   0  0  0  0  0  0  0  0  0  0  0  0
  -27.0100  -19.7769   25.5417 O   0  0  0  0  0  0  0  0  0  1  0  0
  -16.1785  -27.8829   24.4360 F   0  0  0  0  0  0  0  0  0  0  0  0
  -19.4174  -31.3343   24.3877 F   0  0  0  0  0  0  0  0  0  0  0  0
  1  2  1  0  0  0  0
  1  5  2  0  0  0  0
  2  6  2  0  0  0  0
  3  8  2  0  0  0  0
  3 16  1  0  0  0  0
  4  9  1  0  0  0  0
  4 16  2  0  0  0  0
  5 18  1  0  0  0  0
  6 20  1  0  0  0  0
  7 10  2  0  0  0  0
  7 19  1  0  0  0  0
  8 22  1  0  0  0  0
  9 22  2  0  0  0  0
 10 23  1  0  0  0  0
 11 12  2  0  0  0  0
 11 24  1  0  0  0  0
 12 25  1  0  0  0  0
 13 21  1  0  0  0  0
 13 23  2  0  0  0  0
 14 25  2  0  0  0  0
 14 26  1  0  0  0  0
 15 66  2  0  0  0  0
 15 68  1  0  0  0  0
 16 27  1  0  0  0  0
 17 27  1  0  0  0  0
 17 30  2  0  0  0  0
 17 31  1  0  0  0  0
 18 20  2  0  0  0  0
 18 36  1  0  0  0  0
 19 21  2  0  0  0  0
 19 37  1  0  0  0  0
 20 45  1  0  0  0  0
 21 38  1  0  0  0  0
 22 83  1  0  0  0  0
 23 84  1  0  0  0  0
 24 26  2  0  0  0  0
 24 83  1  0  0  0  0
 25 85  1  0  0  0  0
 26 86  1  0  0  0  0
 27 67  2  0  0  0  0
 28 29  2  0  0  0  0
 28 48  1  0  0  0  0
 28 66  1  0  0  0  0
 29 56  1  0  0  0  0
 29 68  1  0  0  0  0
 30 69  1  0  0  0  0
 30 72  1  0  0  0  0
 31 73  1  0  0  0  0
 31 78  2  0  0  0  0
 32 46  1  0  0  0  0
 32 74  1  0  0  0  0
 32 79  2  0  0  0  0
 33 62  1  0  0  0  0
 33 71  1  0  0  0  0
 33 80  2  0  0  0  0
 34 63  1  0  0  0  0
 34 70  1  0  0  0  0
 34 81  2  0  0  0  0
 35 64  1  0  0  0  0
 35 75  1  0  0  0  0
 35 82  2  0  0  0  0
 36 39  1  0  0  0  0
 37 46  1  0  0  0  0
 38 70  1  0  0  0  0
 39 41  1  0  0  0  0
 40 42  1  0  0  0  0
 40 43  1  0  0  0  0
 41 45  1  0  0  0  0
 42 47  1  0  0  0  0
 43 71  1  0  0  0  0
 44 47  1  0  0  0  0
 44 71  1  0  0  0  0
 45 74  1  0  0  0  0
 46 70  1  0  0  0  0
 47 69  1  0  0  0  0
 49 62  1  0  0  0  0
 50 64  1  0  0  0  0
 51 65  1  0  0  0  0
 52 65  1  0  0  0  0
 53 65  1  0  0  0  0
 54 76  1  0  0  0  0
 55 77  1  0  0  0  0
 56 57  1  0  0  0  0
 57 59  1  0  0  0  0
 58 60  1  0  0  0  0
 58 61  1  0  0  0  0
 59 77  1  0  0  0  0
 60 77  1  0  0  0  0
 61 84  1  0  0  0  0
 62 68  1  0  0  0  0
 63 65  1  0  0  0  0
 63 75  1  0  0  0  0
 64 76  1  0  0  0  0
 67 69  1  0  0  0  0
M  CHG  2  76   1  77   1
M  ISO  4  33 100  61 101  62 100  84 101
M  END
> <Batch ID>
0052

> <Smiles>
CNC(C)C(=O)NC(C(=O)N1Cc2cc([101O:1][101CH2:1]CCN(C)CCCc3c(C)ncn3[100CH:0](C)[100C:0](=O)N3CCCC(n4nc(-c5ccc(Oc6ccc(F)cc6F)cc5)c(C(N)=O)c4N)C3)ccc2CC1C(=O)NC1CCCc2ccccc21)C(C)(C)C

> <Shape>
0.235

> <Color>
0.070

> <Negative vol penalty>
0.000

$$$$

  -OEChem-04052317363D

 82 90  0     1  0  0  0  0  0999 V2000
  -31.7195  -15.6811   23.2334 C   0  0  0  0  0  0  0  0  0  0  0  0
  -31.1378  -16.7821   22.6131 C   0  0  0  0  0  0  0  0  0  0  0  0
  -20.6723  -28.9604   24.8586 C   0  0  0  0  0  0  0  0  0  0  0  0
  -20.5316  -29.9757   22.6708 C   0  0  0  0  0  0  0  0  0  0  0  0
  -31.2300  -14.4004   22.9803 C   0  0  0  0  0  0  0  0  0  0  0  0
  -30.0667  -16.6028   21.7383 C   0  0  0  0  0  0  0  0  0  0  0  0
  -26.3386  -19.9392   22.5226 C   0  0  0  0  0  0  0  0  0  0  0  0
  -19.6084  -29.7505   25.2937 C   0  0  0  0  0  0  0  0  0  0  0  0
  -19.4676  -30.7658   23.1059 C   0  0  0  0  0  0  0  0  0  0  0  0
  -26.5218  -21.2278   22.0228 C   0  0  0  0  0  0  0  0  0  0  0  0
  -16.6948  -31.2417   26.8757 C   0  0  0  0  0  0  0  0  0  0  0  0
  -15.6894  -30.6234   27.6189 C   0  0  0  0  0  0  0  0  0  0  0  0
  -25.1346  -20.6828   20.1260 C   0  0  0  0  0  0  0  0  0  0  0  0
  -15.2316  -29.1412   25.7667 C   0  0  0  0  0  0  0  0  0  0  0  0
  -21.1340  -29.0730   23.5471 C   0  0  0  0  0  0  0  0  0  0  0  0
  -22.1597  -26.9806   22.5092 C   0  0  0  0  0  0  0  0  0  0  0  0
  -30.1461  -14.2063   22.1095 C   0  0  0  0  0  0  0  0  0  0  0  0
  -25.5597  -19.0078   21.8212 C   0  0  0  0  0  0  0  0  0  0  0  0
  -29.5630  -15.3182   21.4723 C   0  0  0  0  0  0  0  0  0  0  0  0
  -24.9410  -19.3838   20.6204 C   0  0  0  0  0  0  0  0  0  0  0  0
  -19.0060  -30.6532   24.4174 C   0  0  0  0  0  0  0  0  0  0  0  0
  -25.9221  -21.5988   20.8229 C   0  0  0  0  0  0  0  0  0  0  0  0
  -16.9686  -30.8098   25.5779 C   0  0  0  0  0  0  0  0  0  0  0  0
  -14.9578  -29.5731   27.0644 C   0  0  0  0  0  0  0  0  0  0  0  0
  -16.2370  -29.7596   25.0234 C   0  0  0  0  0  0  0  0  0  0  0  0
  -22.2334  -28.2575   23.0972 C   0  0  0  0  0  0  0  0  0  0  0  0
  -30.0459  -22.7290   19.6543 C   0  0  0  0  0  0  0  0  0  0  0  0
  -30.9134  -23.7981   19.6119 C   0  0  0  0  0  0  0  0  0  0  0  0
  -28.3535  -24.0725   18.9058 C   0  0  0  0  0  0  0  0  0  0  0  0
  -29.2208  -25.1419   18.8642 C   0  0  0  0  0  0  0  0  0  0  0  0
  -23.4674  -26.6388   22.2655 C   0  0  0  0  0  0  0  0  0  0  0  0
  -21.0117  -26.1755   22.2098 C   0  0  0  0  0  0  0  0  0  0  0  0
  -26.1148  -16.1858   20.4675 C   0  0  0  0  0  0  0  0  0  0  0  0
  -22.9015  -16.2037   20.0243 C   0  0  0  0  0  0  0  0  0  0  0  0
  -20.0289  -18.0209   19.7195 C   0  0  0  0  0  0  0  0  0  0  0  0
  -28.5768  -27.9370   20.4341 C   0  0  0  0  0  0  0  0  0  0  0  0
  -29.6822  -12.7986   21.8306 C   0  0  0  0  0  0  0  0  0  0  0  0
  -25.3500  -17.6301   22.3872 C   0  0  0  0  0  0  0  0  0  0  0  0
  -24.0785  -18.4275   19.8392 C   0  0  0  0  0  0  0  0  0  0  0  0
  -28.3028  -12.7295   21.1803 C   0  0  0  0  0  0  0  0  0  0  0  0
  -27.7758  -28.8048   23.7930 C   0  0  0  0  0  0  0  0  0  0  0  0
  -28.2029  -13.7296   20.0328 C   0  0  0  0  0  0  0  0  0  0  0  0
  -26.2565  -28.6405   23.8608 C   0  0  0  0  0  0  0  0  0  0  0  0
  -28.2247  -29.3492   22.4387 C   0  0  0  0  0  0  0  0  0  0  0  0
  -26.2231  -28.4204   21.3410 C   0  0  0  0  0  0  0  0  0  0  0  0
  -28.3836  -15.1667   20.5363 C   0  0  1  0  0  0  0  0  0  0  0  0
  -24.9571  -16.6030   21.3297 C   0  0  1  0  0  0  0  0  0  0  0  0
  -25.7273  -27.8213   22.6683 C   0  0  2  0  0  0  0  0  0  0  0  0
  -30.4973  -21.3782   20.0936 C   0  0  0  0  0  0  0  0  0  0  0  0
  -32.3444  -23.6537   20.0032 C   0  0  0  0  0  0  0  0  0  0  0  0
  -17.5644  -17.7586   19.3258 C   0  0  0  0  0  0  0  0  0  0  0  0
  -23.4324  -15.6775   17.0660 C   0  0  0  0  0  0  0  0  0  0  0  0
  -21.0721  -16.3646   16.5918 C   0  0  0  0  0  0  0  0  0  0  0  0
  -21.5258  -14.3782   18.0309 C   0  0  0  0  0  0  0  0  0  0  0  0
  -19.3637  -19.2492   22.3286 C   0  0  0  0  0  0  0  0  0  0  0  0
  -26.9047  -24.2183   18.5083 C   0  0  0  0  0  0  0  0  0  0  0  0
  -28.7689  -26.4927   18.4251 C   0  0  0  0  0  0  0  0  0  0  0  0
  -26.0677  -23.0101   18.9142 C   0  0  0  0  0  0  0  0  0  1  0  0
  -21.9747  -16.6948   18.9385 C   0  0  1  0  0  0  0  0  0  0  0  0
  -18.6656  -17.8665   20.3691 C   0  0  2  0  0  0  0  0  0  0  0  0
  -22.0190  -15.7965   17.6703 C   0  0  0  0  0  0  0  0  0  0  0  0
  -23.4887  -28.6970   23.2199 N   0  0  0  0  0  0  0  0  0  0  0  0
  -28.7503  -22.8470   19.3019 N   0  0  0  0  0  0  0  0  0  0  0  0
  -30.5164  -25.0238   19.2162 N   0  0  0  0  0  0  0  0  0  0  0  0
  -24.2158  -27.6907   22.7056 N   0  0  0  0  0  0  0  0  0  0  0  0
  -23.9089  -17.0901   20.4307 N   0  0  0  0  0  0  0  0  0  0  0  0
  -27.6905  -28.5267   21.3505 N   0  0  0  0  0  0  0  0  0  0  0  0
  -24.0387  -25.5441   21.7199 N   0  0  0  0  0  0  0  0  0  0  0  0
  -19.7422  -26.6784   22.5257 N   0  0  0  0  0  0  0  0  0  0  0  0
  -27.1703  -15.6366   21.1701 N   0  0  0  0  0  0  0  0  0  0  0  0
  -20.6536  -16.8037   19.5478 N   0  0  0  0  0  0  0  0  0  0  0  0
  -27.9882  -27.1681   19.4375 N   0  0  0  0  0  0  0  0  0  0  0  0
  -18.3724  -19.0379   21.2425 N   0  3  0  0  0  0  0  0  0  0  0  0
  -21.1098  -25.0367   21.6930 O   0  0  0  0  0  0  0  0  0  0  0  0
  -26.0542  -16.3488   19.2545 O   0  0  0  0  0  0  0  0  0  0  0  0
  -22.7331  -15.0778   20.4994 O   0  0  0  0  0  0  0  0  0  0  0  0
  -20.4916  -19.1117   19.3932 O   0  0  0  0  0  0  0  0  0  0  0  0
  -29.8023  -28.0806   20.5023 O   0  0  0  0  0  0  0  0  0  0  0  0
  -17.9676  -31.4242   24.8416 O   0  0  0  0  0  0  0  0  0  0  0  0
  -26.0998  -22.8557   20.3325 O   0  0  0  0  0  0  0  0  0  1  0  0
  -13.9934  -28.9784   27.7788 F   0  0  0  0  0  0  0  0  0  0  0  0
  -16.4963  -29.3395   23.7776 F   0  0  0  0  0  0  0  0  0  0  0  0
  1  2  1  0  0  0  0
  1  5  2  0  0  0  0
  2  6  2  0  0  0  0
  3  8  2  0  0  0  0
  3 15  1  0  0  0  0
  4  9  1  0  0  0  0
  4 15  2  0  0  0  0
  5 17  1  0  0  0  0
  6 19  1  0  0  0  0
  7 10  2  0  0  0  0
  7 18  1  0  0  0  0
  8 21  1  0  0  0  0
  9 21  2  0  0  0  0
 10 22  1  0  0  0  0
 11 12  2  0  0  0  0
 11 23  1  0  0  0  0
 12 24  1  0  0  0  0
 13 20  1  0  0  0  0
 13 22  2  0  0  0  0
 14 24  2  0  0  0  0
 14 25  1  0  0  0  0
 15 26  1  0  0  0  0
 16 26  1  0  0  0  0
 16 31  2  0  0  0  0
 16 32  1  0  0  0  0
 17 19  2  0  0  0  0
 17 37  1  0  0  0  0
 18 20  2  0  0  0  0
 18 38  1  0  0  0  0
 19 46  1  0  0  0  0
 20 39  1  0  0  0  0
 21 79  1  0  0  0  0
 22 80  1  0  0  0  0
 23 25  2  0  0  0  0
 23 79  1  0  0  0  0
 24 81  1  0  0  0  0
 25 82  1  0  0  0  0
 26 62  2  0  0  0  0
 27 28  1  0  0  0  0
 27 49  1  0  0  0  0
 27 63  2  0  0  0  0
 28 50  1  0  0  0  0
 28 64  2  0  0  0  0
 29 30  2  0  0  0  0
 29 56  1  0  0  0  0
 29 63  1  0  0  0  0
 30 57  1  0  0  0  0
 30 64  1  0  0  0  0
 31 65  1  0  0  0  0
 31 68  1  0  0  0  0
 32 69  1  0  0  0  0
 32 74  2  0  0  0  0
 33 47  1  0  0  0  0
 33 70  1  0  0  0  0
 33 75  2  0  0  0  0
 34 59  1  0  0  0  0
 34 66  1  0  0  0  0
 34 76  2  0  0  0  0
 35 60  1  0  0  0  0
 35 71  1  0  0  0  0
 35 77  2  0  0  0  0
 36 67  1  0  0  0  0
 36 72  1  0  0  0  0
 36 78  2  0  0  0  0
 37 40  1  0  0  0  0
 38 47  1  0  0  0  0
 39 66  1  0  0  0  0
 40 42  1  0  0  0  0
 41 43  1  0  0  0  0
 41 44  1  0  0  0  0
 42 46  1  0  0  0  0
 43 48  1  0  0  0  0
 44 67  1  0  0  0  0
 45 48  1  0  0  0  0
 45 67  1  0  0  0  0
 46 70  1  0  0  0  0
 47 66  1  0  0  0  0
 48 65  1  0  0  0  0
 51 60  1  0  0  0  0
 52 61  1  0  0  0  0
 53 61  1  0  0  0  0
 54 61  1  0  0  0  0
 55 73  1  0  0  0  0
 56 58  1  0  0  0  0
 57 72  1  0  0  0  0
 58 80  1  0  0  0  0
 59 61  1  0  0  0  0
 59 71  1  0  0  0  0
 60 73  1  0  0  0  0
 62 65  1  0  0  0  0
M  CHG  1  73   1
M  ISO  4  36 100  58 101  72 100  80 101
M  END
> <Batch ID>
0052

> <Smiles>
CNC(C)C(=O)NC(C(=O)N1Cc2cc([101O:1][101CH2:1]Cc3nc(C)c(C)nc3C[100NH:0][100C:0](=O)N3CCCC(n4nc(-c5ccc(Oc6ccc(F)cc6F)cc5)c(C(N)=O)c4N)C3)ccc2CC1C(=O)NC1CCCc2ccccc21)C(C)(C)C

> <Shape>
0.195

> <Color>
0.063

> <Negative vol penalty>
0.000

$$$$

  -OEChem-04052317363D

 84 92  0     1  0  0  0  0  0999 V2000
  -22.4026  -27.3660   20.2469 C   0  0  0  0  0  0  0  0  0  0  0  0
  -23.0434  -26.1734   20.5671 C   0  0  0  0  0  0  0  0  0  0  0  0
  -23.0568   -9.8786   19.9335 C   0  0  0  0  0  0  0  0  0  0  0  0
  -23.8443   -9.8446   22.2173 C   0  0  0  0  0  0  0  0  0  0  0  0
  -23.1540  -28.5079   19.9723 C   0  0  0  0  0  0  0  0  0  0  0  0
  -24.4362  -26.1218   20.6117 C   0  0  0  0  0  0  0  0  0  0  0  0
  -26.1591  -23.6495   24.6817 C   0  0  0  0  0  0  0  0  0  0  0  0
  -22.3097   -8.7255   20.1740 C   0  0  0  0  0  0  0  0  0  0  0  0
  -23.0971   -8.6916   22.4578 C   0  0  0  0  0  0  0  0  0  0  0  0
  -26.1158  -22.2565   24.6460 C   0  0  0  0  0  0  0  0  0  0  0  0
  -19.8721   -7.9014   23.0867 C   0  0  0  0  0  0  0  0  0  0  0  0
  -19.1292   -7.8467   24.2659 C   0  0  0  0  0  0  0  0  0  0  0  0
  -28.4603  -22.2042   24.0802 C   0  0  0  0  0  0  0  0  0  0  0  0
  -20.3687   -5.8910   24.9561 C   0  0  0  0  0  0  0  0  0  0  0  0
  -23.8242  -10.4381   20.9552 C   0  0  0  0  0  0  0  0  0  0  0  0
  -24.1785  -12.9630   20.8715 C   0  0  0  0  0  0  0  0  0  0  0  0
  -24.5564  -28.4727   20.0230 C   0  0  0  0  0  0  0  0  0  0  0  0
  -27.3527  -24.3319   24.4057 C   0  0  0  0  0  0  0  0  0  0  0  0
  -25.2071  -27.2640   20.3362 C   0  0  0  0  0  0  0  0  0  0  0  0
  -28.5166  -23.6058   24.1155 C   0  0  0  0  0  0  0  0  0  0  0  0
  -22.3298   -8.1320   21.4361 C   0  0  0  0  0  0  0  0  0  0  0  0
  -27.2658  -21.5337   24.3424 C   0  0  0  0  0  0  0  0  0  0  0  0
  -20.8633   -6.9509   22.8421 C   0  0  0  0  0  0  0  0  0  0  0  0
  -19.3774   -6.8415   25.2006 C   0  0  0  0  0  0  0  0  0  0  0  0
  -21.1116   -5.9457   23.7768 C   0  0  0  0  0  0  0  0  0  0  0  0
  -24.5967  -11.6289   20.7072 C   0  0  0  0  0  0  0  0  0  0  0  0
  -26.5208  -19.0049   20.7809 C   0  0  0  0  0  0  0  0  0  0  0  0
  -28.5513  -18.8767   19.7367 C   0  0  0  0  0  0  0  0  0  0  0  0
  -27.0801  -18.4938   21.9313 C   0  0  0  0  0  0  0  0  0  0  0  0
  -29.1108  -18.3663   20.8874 C   0  0  0  0  0  0  0  0  0  0  0  0
  -25.2703  -13.7124   20.5070 C   0  0  0  0  0  0  0  0  0  0  0  0
  -22.9160  -13.4788   21.3140 C   0  0  0  0  0  0  0  0  0  0  0  0
  -28.2872  -26.4112   22.1905 C   0  0  0  0  0  0  0  0  0  0  0  0
  -30.9809  -26.5284   23.9940 C   0  0  0  0  0  0  0  0  0  0  0  0
  -33.0180  -24.9945   26.2621 C   0  0  0  0  0  0  0  0  0  0  0  0
  -30.7614  -14.6991   20.6450 C   0  0  0  0  0  0  0  0  0  0  0  0
  -25.3271  -29.7207   19.6722 C   0  0  0  0  0  0  0  0  0  0  0  0
  -27.3892  -25.8340   24.4745 C   0  0  0  0  0  0  0  0  0  0  0  0
  -29.8280  -24.2901   23.8316 C   0  0  0  0  0  0  0  0  0  0  0  0
  -26.7895  -29.6761   20.1076 C   0  0  0  0  0  0  0  0  0  0  0  0
  -29.5820  -12.3594   18.2344 C   0  0  0  0  0  0  0  0  0  0  0  0
  -27.4213  -28.3428   19.7205 C   0  0  0  0  0  0  0  0  0  0  0  0
  -28.1483  -12.0664   18.6800 C   0  0  0  0  0  0  0  0  0  0  0  0
  -30.5147  -12.5560   19.4274 C   0  0  0  0  0  0  0  0  0  0  0  0
  -28.6339  -13.2748   20.8485 C   0  0  0  0  0  0  0  0  0  0  0  0
  -26.7155  -27.1744   20.4191 C   0  0  1  0  0  0  0  0  0  0  0  0
  -28.5358  -26.4412   23.6721 C   0  0  1  0  0  0  0  0  0  0  0  0
  -27.6447  -13.1243   19.6802 C   0  0  2  0  0  0  0  0  0  0  0  0
  -25.0760  -19.3640   20.7118 C   0  0  0  0  0  0  0  0  0  0  0  0
  -29.3649  -19.0936   18.5068 C   0  0  0  0  0  0  0  0  0  0  0  0
  -31.4325  -19.2160   21.3474 C   0  0  0  0  0  0  0  0  0  0  0  0
  -35.1660  -25.3210   27.5178 C   0  0  0  0  0  0  0  0  0  0  0  0
  -32.5563  -25.8998   21.4577 C   0  0  0  0  0  0  0  0  0  0  0  0
  -34.5125  -25.3067   22.9032 C   0  0  0  0  0  0  0  0  0  0  0  0
  -33.6005  -27.6284   22.9329 C   0  0  0  0  0  0  0  0  0  0  0  0
  -31.6437  -24.8574   28.8797 C   0  0  0  0  0  0  0  0  0  0  0  0
  -26.2557  -18.2730   23.1763 C   0  0  0  0  0  0  0  0  0  0  0  0
  -30.8541  -16.8291   21.9153 C   0  0  0  0  0  0  0  0  0  0  0  0
  -25.9886  -19.5699   23.9324 C   0  0  0  0  0  0  0  0  0  1  0  0
  -30.5559  -18.0076   20.9562 C   0  0  1  0  0  0  0  0  0  0  0  0
  -32.2831  -25.7652   24.0215 C   0  0  1  0  0  0  0  0  0  0  0  0
  -33.6557  -25.4969   27.5448 C   0  0  2  0  0  0  0  0  0  0  0  0
  -33.2131  -26.1369   22.8322 C   0  0  0  0  0  0  0  0  0  0  0  0
  -25.8558  -11.5330   20.2721 N   0  0  0  0  0  0  0  0  0  0  0  0
  -27.2463  -19.2055   19.6629 N   0  0  0  0  0  0  0  0  0  0  0  0
  -28.3852  -18.1654   22.0052 N   0  0  0  0  0  0  0  0  0  0  0  0
  -26.2382  -12.8165   20.1598 N   0  0  0  0  0  0  0  0  0  0  0  0
  -29.8112  -25.7604   23.9048 N   0  0  0  0  0  0  0  0  0  0  0  0
  -29.9806  -13.5730   20.3363 N   0  0  0  0  0  0  0  0  0  0  0  0
  -25.4871  -15.0437   20.4528 N   0  0  0  0  0  0  0  0  0  0  0  0
  -21.9032  -12.5697   21.6489 N   0  0  0  0  0  0  0  0  0  0  0  0
  -27.1422  -27.0781   21.7986 N   0  0  0  0  0  0  0  0  0  0  0  0
  -32.8691  -26.0050   25.3358 N   0  0  0  0  0  0  0  0  0  0  0  0
  -30.1776  -15.6174   21.5090 N   0  0  0  0  0  0  0  0  0  0  0  0
  -33.1167  -24.7520   28.7176 N   0  3  0  0  0  0  0  0  0  0  0  0
  -22.6872  -14.7096   21.3939 O   0  0  0  0  0  0  0  0  0  0  0  0
  -29.0765  -25.8275   21.4571 O   0  0  0  0  0  0  0  0  0  0  0  0
  -31.0004  -27.7601   24.0568 O   0  0  0  0  0  0  0  0  0  0  0  0
  -32.6885  -23.8220   26.0969 O   0  0  0  0  0  0  0  0  0  0  0  0
  -31.8928  -14.8758   20.1805 O   0  0  0  0  0  0  0  0  0  0  0  0
  -21.6006   -7.0070   21.6712 O   0  0  0  0  0  0  0  0  0  0  0  0
  -27.2262  -20.1739   24.3063 O   0  0  0  0  0  0  0  0  0  1  0  0
  -18.6649   -6.7900   26.3337 F   0  0  0  0  0  0  0  0  0  0  0  0
  -22.0634   -5.0305   23.5479 F   0  0  0  0  0  0  0  0  0  0  0  0
  1  2  1  0  0  0  0
  1  5  2  0  0  0  0
  2  6  2  0  0  0  0
  3  8  2  0  0  0  0
  3 15  1  0  0  0  0
  4  9  1  0  0  0  0
  4 15  2  0  0  0  0
  5 17  1  0  0  0  0
  6 19  1  0  0  0  0
  7 10  2  0  0  0  0
  7 18  1  0  0  0  0
  8 21  1  0  0  0  0
  9 21  2  0  0  0  0
 10 22  1  0  0  0  0
 11 12  2  0  0  0  0
 11 23  1  0  0  0  0
 12 24  1  0  0  0  0
 13 20  1  0  0  0  0
 13 22  2  0  0  0  0
 14 24  2  0  0  0  0
 14 25  1  0  0  0  0
 15 26  1  0  0  0  0
 16 26  1  0  0  0  0
 16 31  2  0  0  0  0
 16 32  1  0  0  0  0
 17 19  2  0  0  0  0
 17 37  1  0  0  0  0
 18 20  2  0  0  0  0
 18 38  1  0  0  0  0
 19 46  1  0  0  0  0
 20 39  1  0  0  0  0
 21 81  1  0  0  0  0
 22 82  1  0  0  0  0
 23 25  2  0  0  0  0
 23 81  1  0  0  0  0
 24 83  1  0  0  0  0
 25 84  1  0  0  0  0
 26 64  2  0  0  0  0
 27 29  2  0  0  0  0
 27 49  1  0  0  0  0
 27 65  1  0  0  0  0
 28 30  1  0  0  0  0
 28 50  1  0  0  0  0
 28 65  2  0  0  0  0
 29 57  1  0  0  0  0
 29 66  1  0  0  0  0
 30 60  1  0  0  0  0
 30 66  2  0  0  0  0
 31 67  1  0  0  0  0
 31 70  1  0  0  0  0
 32 71  1  0  0  0  0
 32 76  2  0  0  0  0
 33 47  1  0  0  0  0
 33 72  1  0  0  0  0
 33 77  2  0  0  0  0
 34 61  1  0  0  0  0
 34 68  1  0  0  0  0
 34 78  2  0  0  0  0
 35 62  1  0  0  0  0
 35 73  1  0  0  0  0
 35 79  2  0  0  0  0
 36 69  1  0  0  0  0
 36 74  1  0  0  0  0
 36 80  2  0  0  0  0
 37 40  1  0  0  0  0
 38 47  1  0  0  0  0
 39 68  1  0  0  0  0
 40 42  1  0  0  0  0
 41 43  1  0  0  0  0
 41 44  1  0  0  0  0
 42 46  1  0  0  0  0
 43 48  1  0  0  0  0
 44 69  1  0  0  0  0
 45 48  1  0  0  0  0
 45 69  1  0  0  0  0
 46 72  1  0  0  0  0
 47 68  1  0  0  0  0
 48 67  1  0  0  0  0
 51 60  1  0  0  0  0
 52 62  1  0  0  0  0
 53 63  1  0  0  0  0
 54 63  1  0  0  0  0
 55 63  1  0  0  0  0
 56 75  1  0  0  0  0
 57 59  1  0  0  0  0
 58 60  1  0  0  0  0
 58 74  1  0  0  0  0
 59 82  1  0  0  0  0
 61 63  1  0  0  0  0
 61 73  1  0  0  0  0
 62 75  1  0  0  0  0
 64 67  1  0  0  0  0
M  CHG  1  75   1
M  ISO  4  36 100  59 101  74 100  82 101
M  END
> <Batch ID>
0052

> <Smiles>
CNC(C)C(=O)NC(C(=O)N1Cc2cc([101O:1][101CH2:1]Cc3nc(C(C)C[100NH:0][100C:0](=O)N4CCCC(n5nc(-c6ccc(Oc7ccc(F)cc7F)cc6)c(C(N)=O)c5N)C4)c(C)nc3C)ccc2CC1C(=O)NC1CCCc2ccccc21)C(C)(C)C

> <Shape>
0.253

> <Color>
0.212

> <Negative vol penalty>
0.000

$$$$

  -OEChem-04052317363D

 81 89  0     1  0  0  0  0  0999 V2000
  -20.5773  -29.9070   25.1639 C   0  0  0  0  0  0  0  0  0  0  0  0
  -21.6819  -29.0675   25.0616 C   0  0  0  0  0  0  0  0  0  0  0  0
  -25.1700  -14.2911   21.2288 C   0  0  0  0  0  0  0  0  0  0  0  0
  -26.2685  -12.7721   19.7045 C   0  0  0  0  0  0  0  0  0  0  0  0
  -19.4533  -29.6781   24.3713 C   0  0  0  0  0  0  0  0  0  0  0  0
  -21.6627  -27.9977   24.1673 C   0  0  0  0  0  0  0  0  0  0  0  0
  -26.3975  -25.7795   20.9787 C   0  0  0  0  0  0  0  0  0  0  0  0
  -24.2688  -13.2863   21.5806 C   0  0  0  0  0  0  0  0  0  0  0  0
  -25.3672  -11.7673   20.0564 C   0  0  0  0  0  0  0  0  0  0  0  0
  -27.2437  -24.6919   21.1903 C   0  0  0  0  0  0  0  0  0  0  0  0
  -23.5793   -8.6952   20.8203 C   0  0  0  0  0  0  0  0  0  0  0  0
  -24.0917   -7.4227   21.0727 C   0  0  0  0  0  0  0  0  0  0  0  0
  -25.8679  -23.3462   19.7358 C   0  0  0  0  0  0  0  0  0  0  0  0
  -25.4426   -8.3217   22.8626 C   0  0  0  0  0  0  0  0  0  0  0  0
  -30.0753  -22.9623   18.1037 C   0  0  0  0  0  0  0  0  0  0  0  0
  -29.7378  -21.1898   20.0714 C   0  0  0  0  0  0  0  0  0  0  0  0
  -26.1698  -14.0340   20.2907 C   0  0  0  0  0  0  0  0  0  0  0  0
  -28.3381  -15.3557   20.5348 C   0  0  0  0  0  0  0  0  0  0  0  0
  -19.4241  -28.6108   23.4599 C   0  0  0  0  0  0  0  0  0  0  0  0
  -25.2722  -25.6554   20.1513 C   0  0  0  0  0  0  0  0  0  0  0  0
  -20.5367  -27.7535   23.3627 C   0  0  0  0  0  0  0  0  0  0  0  0
  -25.0105  -24.4345   19.5132 C   0  0  0  0  0  0  0  0  0  0  0  0
  -24.3674  -12.0244   20.9945 C   0  0  0  0  0  0  0  0  0  0  0  0
  -26.9774  -23.4742   20.5711 C   0  0  0  0  0  0  0  0  0  0  0  0
  -23.9986   -9.7810   21.5890 C   0  0  0  0  0  0  0  0  0  0  0  0
  -25.0233   -7.2359   22.0939 C   0  0  0  0  0  0  0  0  0  0  0  0
  -24.9302   -9.5943   22.6102 C   0  0  0  0  0  0  0  0  0  0  0  0
  -27.1007  -15.0717   19.9264 C   0  0  0  0  0  0  0  0  0  0  0  0
  -30.9426  -21.9040   18.2637 C   0  0  0  0  0  0  0  0  0  0  0  0
  -28.8707  -22.2483   19.9116 C   0  0  0  0  0  0  0  0  0  1  0  0
  -28.8323  -16.4232   19.8258 C   0  0  0  0  0  0  0  0  0  0  0  0
  -28.9830  -14.7120   21.6417 C   0  0  0  0  0  0  0  0  0  0  0  0
  -22.1337  -25.9244   20.5776 C   0  0  0  0  0  0  0  0  0  0  0  0
  -22.0576  -25.5546   17.3559 C   0  0  0  0  0  0  0  0  0  0  0  0
  -23.5850  -24.3852   14.5369 C   0  0  0  0  0  0  0  0  0  0  0  0
  -29.7874  -18.5682   14.6486 C   0  0  0  0  0  0  0  0  0  0  0  0
  -18.1685  -28.3749   22.6583 C   0  0  0  0  0  0  0  0  0  0  0  0
  -24.3841  -26.8456   19.9120 C   0  0  0  0  0  0  0  0  0  0  0  0
  -23.8268  -24.2550   18.5994 C   0  0  0  0  0  0  0  0  0  0  0  0
  -18.3728  -27.4432   21.4665 C   0  0  0  0  0  0  0  0  0  0  0  0
  -26.6435  -19.4238   16.4052 C   0  0  0  0  0  0  0  0  0  0  0  0
  -19.1679  -26.2099   21.8831 C   0  0  0  0  0  0  0  0  0  0  0  0
  -26.5577  -18.3419   17.4805 C   0  0  0  0  0  0  0  0  0  0  0  0
  -27.4050  -18.9410   15.1744 C   0  0  0  0  0  0  0  0  0  0  0  0
  -28.6762  -17.3276   16.5510 C   0  0  0  0  0  0  0  0  0  0  0  0
  -20.5635  -26.5974   22.3866 C   0  0  1  0  0  0  0  0  0  0  0  0
  -22.9794  -26.4613   19.4577 C   0  0  1  0  0  0  0  0  0  0  0  0
  -27.9552  -17.7972   17.8235 C   0  0  2  0  0  0  0  0  0  0  0  0
  -23.2620  -24.1960   12.0556 C   0  0  0  0  0  0  0  0  0  0  0  0
  -20.0782  -23.2736   17.7899 C   0  0  0  0  0  0  0  0  0  0  0  0
  -20.5262  -22.5307   15.4414 C   0  0  0  0  0  0  0  0  0  0  0  0
  -19.5312  -24.7780   15.8685 C   0  0  0  0  0  0  0  0  0  0  0  0
  -32.2163  -18.2017   14.4351 C   0  0  0  0  0  0  0  0  0  0  0  0
  -25.9964  -26.0090   13.9823 C   0  0  0  0  0  0  0  0  0  0  0  0
  -32.0941  -21.7244   17.3371 C   0  0  0  0  0  0  0  0  0  0  0  0
  -31.7882  -20.8632   16.0945 C   0  0  0  0  0  0  0  0  0  0  0  0
  -31.3883  -19.4238   16.4115 C   0  0  0  0  0  0  0  0  0  0  0  0
  -21.9663  -24.3761   16.4169 C   0  0  1  0  0  0  0  0  0  0  0  0
  -23.8397  -25.0317   13.1872 C   0  0  2  0  0  0  0  0  0  0  0  0
  -20.5468  -23.7421   16.3979 C   0  0  0  0  0  0  0  0  0  0  0  0
  -30.7893  -20.9986   19.2502 N   0  0  0  0  0  0  0  0  0  0  0  0
  -29.0238  -23.1535   18.9249 N   0  0  0  0  0  0  0  0  0  0  0  0
  -26.8258  -15.8927   18.9093 N   0  0  0  0  0  0  0  0  0  0  0  0
  -27.8973  -16.7031   18.8732 N   0  0  0  0  0  0  0  0  0  0  0  0
  -22.9846  -25.4464   18.4022 N   0  0  0  0  0  0  0  0  0  0  0  0
  -28.7116  -18.3889   15.5337 N   0  0  0  0  0  0  0  0  0  0  0  0
  -29.9712  -17.1404   19.9307 N   0  0  0  0  0  0  0  0  0  0  0  0
  -28.3364  -13.6302   22.2549 N   0  0  0  0  0  0  0  0  0  0  0  0
  -21.4380  -26.8952   21.2726 N   0  0  0  0  0  0  0  0  0  0  0  0
  -22.4250  -24.8535   15.1168 N   0  0  0  0  0  0  0  0  0  0  0  0
  -31.0702  -18.6547   15.2104 N   0  0  0  0  0  0  0  0  0  0  0  0
  -25.3035  -25.1884   12.9559 N   0  3  0  0  0  0  0  0  0  0  0  0
  -30.0922  -15.0954   22.0848 O   0  0  0  0  0  0  0  0  0  0  0  0
  -22.1128  -24.7184   20.7942 O   0  0  0  0  0  0  0  0  0  0  0  0
  -21.3382  -26.5381   17.1637 O   0  0  0  0  0  0  0  0  0  0  0  0
  -24.3378  -23.5458   15.0261 O   0  0  0  0  0  0  0  0  0  0  0  0
  -29.6104  -18.6562   13.4268 O   0  0  0  0  0  0  0  0  0  0  0  0
  -23.4883  -11.0436   21.3377 O   0  0  0  0  0  0  0  0  0  0  0  0
  -27.8013  -22.4108   20.7765 O   0  0  0  0  0  0  0  0  0  1  0  0
  -25.5142   -6.0136   22.3371 F   0  0  0  0  0  0  0  0  0  0  0  0
  -25.3359  -10.6334   23.3528 F   0  0  0  0  0  0  0  0  0  0  0  0
  1  2  1  0  0  0  0
  1  5  2  0  0  0  0
  2  6  2  0  0  0  0
  3  8  2  0  0  0  0
  3 17  1  0  0  0  0
  4  9  1  0  0  0  0
  4 17  2  0  0  0  0
  5 19  1  0  0  0  0
  6 21  1  0  0  0  0
  7 10  2  0  0  0  0
  7 20  1  0  0  0  0
  8 23  1  0  0  0  0
  9 23  2  0  0  0  0
 10 24  1  0  0  0  0
 11 12  2  0  0  0  0
 11 25  1  0  0  0  0
 12 26  1  0  0  0  0
 13 22  1  0  0  0  0
 13 24  2  0  0  0  0
 14 26  2  0  0  0  0
 14 27  1  0  0  0  0
 15 29  2  0  0  0  0
 15 62  1  0  0  0  0
 16 30  1  0  0  0  0
 16 61  2  0  0  0  0
 17 28  1  0  0  0  0
 18 28  1  0  0  0  0
 18 31  2  0  0  0  0
 18 32  1  0  0  0  0
 19 21  2  0  0  0  0
 19 37  1  0  0  0  0
 20 22  2  0  0  0  0
 20 38  1  0  0  0  0
 21 46  1  0  0  0  0
 22 39  1  0  0  0  0
 23 78  1  0  0  0  0
 24 79  1  0  0  0  0
 25 27  2  0  0  0  0
 25 78  1  0  0  0  0
 26 80  1  0  0  0  0
 27 81  1  0  0  0  0
 28 63  2  0  0  0  0
 29 55  1  0  0  0  0
 29 61  1  0  0  0  0
 30 62  2  0  0  0  0
 30 79  1  0  0  0  0
 31 64  1  0  0  0  0
 31 67  1  0  0  0  0
 32 68  1  0  0  0  0
 32 73  2  0  0  0  0
 33 47  1  0  0  0  0
 33 69  1  0  0  0  0
 33 74  2  0  0  0  0
 34 58  1  0  0  0  0
 34 65  1  0  0  0  0
 34 75  2  0  0  0  0
 35 59  1  0  0  0  0
 35 70  1  0  0  0  0
 35 76  2  0  0  0  0
 36 66  1  0  0  0  0
 36 71  1  0  0  0  0
 36 77  2  0  0  0  0
 37 40  1  0  0  0  0
 38 47  1  0  0  0  0
 39 65  1  0  0  0  0
 40 42  1  0  0  0  0
 41 43  1  0  0  0  0
 41 44  1  0  0  0  0
 42 46  1  0  0  0  0
 43 48  1  0  0  0  0
 44 66  1  0  0  0  0
 45 48  1  0  0  0  0
 45 66  1  0  0  0  0
 46 69  1  0  0  0  0
 47 65  1  0  0  0  0
 48 64  1  0  0  0  0
 49 59  1  0  0  0  0
 50 60  1  0  0  0  0
 51 60  1  0  0  0  0
 52 60  1  0  0  0  0
 53 71  1  0  0  0  0
 54 72  1  0  0  0  0
 55 56  1  0  0  0  0
 56 57  1  0  0  0  0
 57 71  1  0  0  0  0
 58 60  1  0  0  0  0
 58 70  1  0  0  0  0
 59 72  1  0  0  0  0
 63 64  1  0  0  0  0
M  CHG  1  72   1
M  ISO  4  30 101  36 100  71 100  79 101
M  END
> <Batch ID>
0052

> <Smiles>
CNC(C)C(=O)NC(C(=O)N1Cc2cc([101O:1][101c:1]3cnc(CCC[100N:0](C)[100C:0](=O)N4CCCC(n5nc(-c6ccc(Oc7ccc(F)cc7F)cc6)c(C(N)=O)c5N)C4)cn3)ccc2CC1C(=O)NC1CCCc2ccccc21)C(C)(C)C

> <Shape>
0.188

> <Color>
0.070

> <Negative vol penalty>
0.000

$$$$

  -OEChem-04052317363D

 83 91  0     1  0  0  0  0  0999 V2000
  -27.6527  -12.3630   23.6310 C   0  0  0  0  0  0  0  0  0  0  0  0
  -28.2123  -13.4354   22.9439 C   0  0  0  0  0  0  0  0  0  0  0  0
  -22.3719  -28.0876   20.8859 C   0  0  0  0  0  0  0  0  0  0  0  0
  -23.4722  -27.0869   22.7898 C   0  0  0  0  0  0  0  0  0  0  0  0
  -26.4772  -11.7753   23.1656 C   0  0  0  0  0  0  0  0  0  0  0  0
  -27.5971  -13.9202   21.7903 C   0  0  0  0  0  0  0  0  0  0  0  0
  -27.3577  -18.9778   21.6951 C   0  0  0  0  0  0  0  0  0  0  0  0
  -21.1341  -27.8919   21.4984 C   0  0  0  0  0  0  0  0  0  0  0  0
  -22.2344  -26.8913   23.4023 C   0  0  0  0  0  0  0  0  0  0  0  0
  -28.5223  -19.6640   21.3538 C   0  0  0  0  0  0  0  0  0  0  0  0
  -19.2876  -29.3733   23.9126 C   0  0  0  0  0  0  0  0  0  0  0  0
  -18.3777  -30.4302   23.8877 C   0  0  0  0  0  0  0  0  0  0  0  0
  -27.6878  -19.9512   19.1087 C   0  0  0  0  0  0  0  0  0  0  0  0
  -32.1268  -23.1066   20.5348 C   0  0  0  0  0  0  0  0  0  0  0  0
  -32.8688  -21.1583   19.3357 C   0  0  0  0  0  0  0  0  0  0  0  0
  -16.7996  -29.0435   22.6945 C   0  0  0  0  0  0  0  0  0  0  0  0
  -23.5410  -27.6850   21.5315 C   0  0  0  0  0  0  0  0  0  0  0  0
  -25.6547  -29.0144   21.0097 C   0  0  0  0  0  0  0  0  0  0  0  0
  -25.8420  -12.2593   22.0110 C   0  0  0  0  0  0  0  0  0  0  0  0
  -26.3524  -18.7632   20.7412 C   0  0  0  0  0  0  0  0  0  0  0  0
  -26.4127  -13.3377   21.3082 C   0  0  0  0  0  0  0  0  0  0  0  0
  -26.5103  -19.2641   19.4411 C   0  0  0  0  0  0  0  0  0  0  0  0
  -31.9602  -21.7693   20.1926 C   0  0  0  0  0  0  0  0  0  0  0  0
  -21.0653  -27.2938   22.7566 C   0  0  0  0  0  0  0  0  0  0  0  0
  -28.6888  -20.1483   20.0596 C   0  0  0  0  0  0  0  0  0  0  0  0
  -18.9535  -28.1515   23.3284 C   0  0  0  0  0  0  0  0  0  0  0  0
  -17.1337  -30.2653   23.2787 C   0  0  0  0  0  0  0  0  0  0  0  0
  -17.7096  -27.9866   22.7194 C   0  0  0  0  0  0  0  0  0  0  0  0
  -24.8198  -27.8863   20.8991 C   0  0  0  0  0  0  0  0  0  0  0  0
  -33.2099  -23.7834   19.9975 C   0  0  0  0  0  0  0  0  0  0  0  0
  -33.9185  -21.9223   18.8519 C   0  0  0  0  0  0  0  0  0  0  0  0
  -26.7418  -28.7153   20.2253 C   0  0  0  0  0  0  0  0  0  0  0  0
  -25.4647  -30.2244   21.7550 C   0  0  0  0  0  0  0  0  0  0  0  0
  -25.0247  -16.1948   19.4205 C   0  0  0  0  0  0  0  0  0  0  0  0
  -23.0447  -18.3875   18.0812 C   0  0  0  0  0  0  0  0  0  0  0  0
  -22.5424  -21.6141   17.0893 C   0  0  0  0  0  0  0  0  0  0  0  0
  -30.6601  -25.1360   18.4988 C   0  0  0  0  0  0  0  0  0  0  0  0
  -24.5986  -11.5613   21.5198 C   0  0  0  0  0  0  0  0  0  0  0  0
  -25.0905  -18.0443   21.1325 C   0  0  0  0  0  0  0  0  0  0  0  0
  -25.4522  -19.0780   18.3856 C   0  0  0  0  0  0  0  0  0  0  0  0
  -23.8060  -12.3750   20.5000 C   0  0  0  0  0  0  0  0  0  0  0  0
  -27.4781  -24.9659   16.9107 C   0  0  0  0  0  0  0  0  0  0  0  0
  -24.7369  -12.9546   19.4397 C   0  0  0  0  0  0  0  0  0  0  0  0
  -26.5710  -25.7980   17.8190 C   0  0  0  0  0  0  0  0  0  0  0  0
  -28.5136  -24.1812   17.7133 C   0  0  0  0  0  0  0  0  0  0  0  0
  -28.4188  -25.8259   19.5463 C   0  0  0  0  0  0  0  0  0  0  0  0
  -25.7615  -13.9078   20.0668 C   0  0  1  0  0  0  0  0  0  0  0  0
  -24.3562  -17.4352   19.9421 C   0  0  1  0  0  0  0  0  0  0  0  0
  -27.3940  -26.6783   18.7787 C   0  0  2  0  0  0  0  0  0  0  0  0
  -36.3344  -21.2856   18.5176 C   0  0  0  0  0  0  0  0  0  0  0  0
  -34.9260  -21.9692   16.5417 C   0  0  0  0  0  0  0  0  0  0  0  0
  -20.8393  -23.0954   15.9927 C   0  0  0  0  0  0  0  0  0  0  0  0
  -23.7370  -17.1721   15.3695 C   0  0  0  0  0  0  0  0  0  0  0  0
  -22.8016  -19.2271   14.2877 C   0  0  0  0  0  0  0  0  0  0  0  0
  -21.3244  -17.7614   15.6633 C   0  0  0  0  0  0  0  0  0  0  0  0
  -22.3504  -23.3551   19.4748 C   0  0  0  0  0  0  0  0  0  0  0  0
  -30.8050  -20.9884   20.7467 C   0  0  0  0  0  0  0  0  0  1  0  0
  -33.4212  -25.2193   20.3440 C   0  0  0  0  0  0  0  0  0  0  0  0
  -32.7247  -26.1909   19.3841 C   0  0  0  0  0  0  0  0  0  0  0  0
  -34.9115  -21.2993   17.9285 C   0  0  0  0  0  0  0  0  0  0  0  0
  -23.0555  -19.2030   16.8108 C   0  0  1  0  0  0  0  0  0  0  0  0
  -21.3819  -22.5672   17.3115 C   0  0  2  0  0  0  0  0  0  0  0  0
  -22.7506  -18.3429   15.5520 C   0  0  0  0  0  0  0  0  0  0  0  0
  -25.3325  -26.9412   20.1067 N   0  0  0  0  0  0  0  0  0  0  0  0
  -34.1133  -23.2237   19.1619 N   0  0  0  0  0  0  0  0  0  0  0  0
  -26.5012  -27.4747   19.7122 N   0  0  0  0  0  0  0  0  0  0  0  0
  -24.2390  -18.3631   18.8153 N   0  0  0  0  0  0  0  0  0  0  0  0
  -29.2607  -25.0744   18.6021 N   0  0  0  0  0  0  0  0  0  0  0  0
  -27.8704  -29.3951   19.9312 N   0  0  0  0  0  0  0  0  0  0  0  0
  -24.2912  -30.3682   22.5077 N   0  0  0  0  0  0  0  0  0  0  0  0
  -25.1500  -15.1869   20.3575 N   0  0  0  0  0  0  0  0  0  0  0  0
  -22.1210  -20.3028   17.0237 N   0  0  0  0  0  0  0  0  0  0  0  0
  -31.2899  -26.0124   19.3741 N   0  0  0  0  0  0  0  0  0  0  0  0
  -21.8160  -23.7276   18.1397 N   0  3  0  0  0  0  0  0  0  0  0  0
  -26.3028  -31.1576   21.7403 O   0  0  0  0  0  0  0  0  0  0  0  0
  -25.3979  -16.1546   18.2540 O   0  0  0  0  0  0  0  0  0  0  0  0
  -22.0123  -17.8000   18.4139 O   0  0  0  0  0  0  0  0  0  0  0  0
  -23.7058  -21.9950   16.9807 O   0  0  0  0  0  0  0  0  0  0  0  0
  -31.3005  -24.4640   17.6832 O   0  0  0  0  0  0  0  0  0  0  0  0
  -19.8577  -27.1029   23.3547 O   0  0  0  0  0  0  0  0  0  0  0  0
  -29.8248  -20.8179   19.7236 O   0  0  0  0  0  0  0  0  0  1  0  0
  -16.2594  -31.2799   23.2561 F   0  0  0  0  0  0  0  0  0  0  0  0
  -17.3825  -26.8148   22.1575 F   0  0  0  0  0  0  0  0  0  0  0  0
  1  2  1  0  0  0  0
  1  5  2  0  0  0  0
  2  6  2  0  0  0  0
  3  8  2  0  0  0  0
  3 17  1  0  0  0  0
  4  9  1  0  0  0  0
  4 17  2  0  0  0  0
  5 19  1  0  0  0  0
  6 21  1  0  0  0  0
  7 10  2  0  0  0  0
  7 20  1  0  0  0  0
  8 24  1  0  0  0  0
  9 24  2  0  0  0  0
 10 25  1  0  0  0  0
 11 12  2  0  0  0  0
 11 26  1  0  0  0  0
 12 27  1  0  0  0  0
 13 22  1  0  0  0  0
 13 25  2  0  0  0  0
 14 23  1  0  0  0  0
 14 30  2  0  0  0  0
 15 23  2  0  0  0  0
 15 31  1  0  0  0  0
 16 27  2  0  0  0  0
 16 28  1  0  0  0  0
 17 29  1  0  0  0  0
 18 29  1  0  0  0  0
 18 32  2  0  0  0  0
 18 33  1  0  0  0  0
 19 21  2  0  0  0  0
 19 38  1  0  0  0  0
 20 22  2  0  0  0  0
 20 39  1  0  0  0  0
 21 47  1  0  0  0  0
 22 40  1  0  0  0  0
 23 57  1  0  0  0  0
 24 80  1  0  0  0  0
 25 81  1  0  0  0  0
 26 28  2  0  0  0  0
 26 80  1  0  0  0  0
 27 82  1  0  0  0  0
 28 83  1  0  0  0  0
 29 64  2  0  0  0  0
 30 58  1  0  0  0  0
 30 65  1  0  0  0  0
 31 60  1  0  0  0  0
 31 65  2  0  0  0  0
 32 66  1  0  0  0  0
 32 69  1  0  0  0  0
 33 70  1  0  0  0  0
 33 75  2  0  0  0  0
 34 48  1  0  0  0  0
 34 71  1  0  0  0  0
 34 76  2  0  0  0  0
 35 61  1  0  0  0  0
 35 67  1  0  0  0  0
 35 77  2  0  0  0  0
 36 62  1  0  0  0  0
 36 72  1  0  0  0  0
 36 78  2  0  0  0  0
 37 68  1  0  0  0  0
 37 73  1  0  0  0  0
 37 79  2  0  0  0  0
 38 41  1  0  0  0  0
 39 48  1  0  0  0  0
 40 67  1  0  0  0  0
 41 43  1  0  0  0  0
 42 44  1  0  0  0  0
 42 45  1  0  0  0  0
 43 47  1  0  0  0  0
 44 49  1  0  0  0  0
 45 68  1  0  0  0  0
 46 49  1  0  0  0  0
 46 68  1  0  0  0  0
 47 71  1  0  0  0  0
 48 67  1  0  0  0  0
 49 66  1  0  0  0  0
 50 60  1  0  0  0  0
 51 60  1  0  0  0  0
 52 62  1  0  0  0  0
 53 63  1  0  0  0  0
 54 63  1  0  0  0  0
 55 63  1  0  0  0  0
 56 74  1  0  0  0  0
 57 81  1  0  0  0  0
 58 59  1  0  0  0  0
 59 73  1  0  0  0  0
 61 63  1  0  0  0  0
 61 72  1  0  0  0  0
 62 74  1  0  0  0  0
 64 66  1  0  0  0  0
M  CHG  1  74   1
M  ISO  4  37 100  57 101  73 100  81 101
M  END
> <Batch ID>
0052

> <Smiles>
CNC(C)C(=O)NC(C(=O)N1Cc2cc([101O:1][101CH2:1]c3cc(CC[100NH:0][100C:0](=O)N4CCCC(n5nc(-c6ccc(Oc7ccc(F)cc7F)cc6)c(C(N)=O)c5N)C4)nc(C(C)C)c3)ccc2CC1C(=O)NC1CCCc2ccccc21)C(C)(C)C

> <Shape>
0.220

> <Color>
0.084

> <Negative vol penalty>
0.000

$$$$

  -OEChem-04052317363D

 86 94  0     1  0  0  0  0  0999 V2000
  -18.7729  -25.0383   20.3347 C   0  0  0  0  0  0  0  0  0  0  0  0
  -20.0858  -25.3497   19.9959 C   0  0  0  0  0  0  0  0  0  0  0  0
  -24.2904  -17.5193   20.0137 C   0  0  0  0  0  0  0  0  0  0  0  0
  -25.3831  -16.3359   21.8145 C   0  0  0  0  0  0  0  0  0  0  0  0
  -18.1270  -25.7506   21.3443 C   0  0  0  0  0  0  0  0  0  0  0  0
  -20.7532  -26.3745   20.6658 C   0  0  0  0  0  0  0  0  0  0  0  0
  -25.4743  -25.0895   21.9717 C   0  0  0  0  0  0  0  0  0  0  0  0
  -23.3938  -16.4615   19.8627 C   0  0  0  0  0  0  0  0  0  0  0  0
  -24.4865  -15.2781   21.6634 C   0  0  0  0  0  0  0  0  0  0  0  0
  -26.4434  -25.1230   20.9700 C   0  0  0  0  0  0  0  0  0  0  0  0
  -24.0687  -12.6438   19.5858 C   0  0  0  0  0  0  0  0  0  0  0  0
  -24.5874  -11.3489   19.5903 C   0  0  0  0  0  0  0  0  0  0  0  0
  -27.1979  -27.2663   21.7800 C   0  0  0  0  0  0  0  0  0  0  0  0
  -31.2150  -27.0471   20.4289 C   0  0  0  0  0  0  0  0  0  0  0  0
  -23.2315  -10.8126   21.5167 C   0  0  0  0  0  0  0  0  0  0  0  0
  -25.2851  -17.4565   20.9896 C   0  0  0  0  0  0  0  0  0  0  0  0
  -26.0651  -19.6760   21.9760 C   0  0  0  0  0  0  0  0  0  0  0  0
  -18.7901  -26.7782   22.0335 C   0  0  0  0  0  0  0  0  0  0  0  0
  -25.3523  -26.1510   22.8798 C   0  0  0  0  0  0  0  0  0  0  0  0
  -20.1151  -27.1021   21.6847 C   0  0  0  0  0  0  0  0  0  0  0  0
  -26.2281  -27.2427   22.7938 C   0  0  0  0  0  0  0  0  0  0  0  0
  -31.1304  -25.7080   19.9743 C   0  0  0  0  0  0  0  0  0  0  0  0
  -23.4918  -15.3409   20.6875 C   0  0  0  0  0  0  0  0  0  0  0  0
  -27.3036  -26.2128   20.8722 C   0  0  0  0  0  0  0  0  0  0  0  0
  -23.1315  -13.0230   20.5468 C   0  0  0  0  0  0  0  0  0  0  0  0
  -24.1688  -10.4333   20.5558 C   0  0  0  0  0  0  0  0  0  0  0  0
  -22.7129  -12.1074   21.5122 C   0  0  0  0  0  0  0  0  0  0  0  0
  -26.2119  -18.5486   21.1458 C   0  0  0  0  0  0  0  0  0  0  0  0
  -32.1994  -27.0934   21.3913 C   0  0  0  0  0  0  0  0  0  0  0  0
  -32.0656  -24.9766   20.6729 C   0  0  0  0  0  0  0  0  0  0  0  0
  -27.2076  -20.4086   21.7653 C   0  0  0  0  0  0  0  0  0  0  0  0
  -24.9920  -20.0293   22.8588 C   0  0  0  0  0  0  0  0  0  0  0  0
  -23.0672  -28.2425   23.5920 C   0  0  0  0  0  0  0  0  0  0  0  0
  -25.1225  -29.0944   25.9525 C   0  0  0  0  0  0  0  0  0  0  0  0
  -32.6899  -20.6057   21.3366 C   0  0  0  0  0  0  0  0  0  0  0  0
  -28.3351  -29.1968   27.0996 C   0  0  0  0  0  0  0  0  0  0  0  0
  -18.0349  -27.5517   23.0853 C   0  0  0  0  0  0  0  0  0  0  0  0
  -24.3192  -26.0874   23.9711 C   0  0  0  0  0  0  0  0  0  0  0  0
  -26.1518  -28.3983   23.7568 C   0  0  0  0  0  0  0  0  0  0  0  0
  -18.9373  -28.3733   24.0024 C   0  0  0  0  0  0  0  0  0  0  0  0
  -30.8332  -19.9437   18.2803 C   0  0  0  0  0  0  0  0  0  0  0  0
  -19.9684  -29.1450   23.1851 C   0  0  0  0  0  0  0  0  0  0  0  0
  -29.4544  -19.5839   18.8321 C   0  0  0  0  0  0  0  0  0  0  0  0
  -31.9505  -19.4509   19.1962 C   0  0  0  0  0  0  0  0  0  0  0  0
  -30.4500  -19.5699   21.1606 C   0  0  0  0  0  0  0  0  0  0  0  0
  -20.8808  -28.1904   22.4054 C   0  0  1  0  0  0  0  0  0  0  0  0
  -23.9487  -27.4602   24.5239 C   0  0  1  0  0  0  0  0  0  0  0  0
  -29.2943  -20.0760   20.2812 C   0  0  2  0  0  0  0  0  0  0  0  0
  -32.6936  -28.2369   22.1855 C   0  0  0  0  0  0  0  0  0  0  0  0
  -29.7076  -29.9883   29.0457 C   0  0  0  0  0  0  0  0  0  0  0  0
  -34.6774  -19.5561   20.2954 C   0  0  0  0  0  0  0  0  0  0  0  0
  -34.8998  -21.6095   21.7079 C   0  0  0  0  0  0  0  0  0  0  0  0
  -24.9015  -31.9636   24.9383 C   0  0  0  0  0  0  0  0  0  0  0  0
  -26.9574  -32.5142   26.2568 C   0  0  0  0  0  0  0  0  0  0  0  0
  -24.8980  -31.7343   27.4286 C   0  0  0  0  0  0  0  0  0  0  0  0
  -33.7661  -25.4524   22.4467 C   0  0  0  0  0  0  0  0  0  0  0  0
  -29.2406  -26.4500   27.7273 C   0  0  0  0  0  0  0  0  0  0  0  0
  -33.9065  -24.1837   18.7204 C   0  0  0  0  0  0  0  0  0  0  0  0
  -30.1867  -25.1870   18.9178 C   0  0  0  0  0  0  0  0  0  0  0  0
  -32.4014  -23.5388   20.5964 C   0  0  0  0  0  0  0  0  0  0  0  0
  -33.8001  -21.8121   19.4727 C   0  0  0  0  0  0  0  0  0  0  0  0
  -28.7700  -24.9966   19.4488 C   0  0  0  0  0  0  0  0  0  1  0  0
  -26.2558  -30.0838   26.0779 C   0  0  1  0  0  0  0  0  0  0  0  0
  -28.9377  -28.8240   28.4422 C   0  0  2  0  0  0  0  0  0  0  0  0
  -34.0180  -20.8857   20.6797 C   0  0  0  0  0  0  0  0  0  0  0  0
  -25.7536  -31.5533   26.1559 C   0  0  0  0  0  0  0  0  0  0  0  0
  -27.3573  -18.5598   20.4587 N   0  0  0  0  0  0  0  0  0  0  0  0
  -32.7092  -25.8290   21.5315 N   0  0  0  0  0  0  0  0  0  0  0  0
  -27.9406  -19.7032   20.8568 N   0  0  0  0  0  0  0  0  0  0  0  0
  -25.1208  -28.2925   24.8024 N   0  0  0  0  0  0  0  0  0  0  0  0
  -31.7466  -19.9182   20.5726 N   0  0  0  0  0  0  0  0  0  0  0  0
  -27.6467  -21.5811   22.2702 N   0  0  0  0  0  0  0  0  0  0  0  0
  -23.8939  -19.1639   22.9554 N   0  0  0  0  0  0  0  0  0  0  0  0
  -21.8764  -27.6133   23.2830 N   0  0  0  0  0  0  0  0  0  0  0  0
  -27.0427  -29.6593   27.2306 N   0  0  0  0  0  0  0  0  0  0  0  0
  -29.8710  -27.6723   28.2891 N   0  3  0  0  0  0  0  0  0  0  0  0
  -33.6838  -23.2552   19.8838 N   0  3  1  0  0  0  0  0  0  0  0  0
  -24.9991  -21.0895   23.5293 O   0  0  0  0  0  0  0  0  0  0  0  0
  -23.4391  -29.3368   23.1847 O   0  0  0  0  0  0  0  0  0  0  0  0
  -24.2742  -29.0302   26.8458 O   0  0  0  0  0  0  0  0  0  0  0  0
  -32.4976  -20.9898   22.4932 O   0  0  0  0  0  0  0  0  0  0  0  0
  -28.9507  -29.0920   26.0410 O   0  0  0  0  0  0  0  0  0  0  0  0
  -22.6170  -14.3087   20.5405 O   0  0  0  0  0  0  0  0  0  0  0  0
  -28.2500  -26.2483   19.8950 O   0  0  0  0  0  0  0  0  0  1  0  0
  -24.6657   -9.1895   20.5590 F   0  0  0  0  0  0  0  0  0  0  0  0
  -21.8119  -12.4656   22.4373 F   0  0  0  0  0  0  0  0  0  0  0  0
  1  2  1  0  0  0  0
  1  5  2  0  0  0  0
  2  6  2  0  0  0  0
  3  8  2  0  0  0  0
  3 16  1  0  0  0  0
  4  9  1  0  0  0  0
  4 16  2  0  0  0  0
  5 18  1  0  0  0  0
  6 20  1  0  0  0  0
  7 10  2  0  0  0  0
  7 19  1  0  0  0  0
  8 23  1  0  0  0  0
  9 23  2  0  0  0  0
 10 24  1  0  0  0  0
 11 12  2  0  0  0  0
 11 25  1  0  0  0  0
 12 26  1  0  0  0  0
 13 21  1  0  0  0  0
 13 24  2  0  0  0  0
 14 22  1  0  0  0  0
 14 29  2  0  0  0  0
 15 26  2  0  0  0  0
 15 27  1  0  0  0  0
 16 28  1  0  0  0  0
 17 28  1  0  0  0  0
 17 31  2  0  0  0  0
 17 32  1  0  0  0  0
 18 20  2  0  0  0  0
 18 37  1  0  0  0  0
 19 21  2  0  0  0  0
 19 38  1  0  0  0  0
 20 46  1  0  0  0  0
 21 39  1  0  0  0  0
 22 30  2  0  0  0  0
 22 59  1  0  0  0  0
 23 83  1  0  0  0  0
 24 84  1  0  0  0  0
 25 27  2  0  0  0  0
 25 83  1  0  0  0  0
 26 85  1  0  0  0  0
 27 86  1  0  0  0  0
 28 67  2  0  0  0  0
 29 49  1  0  0  0  0
 29 68  1  0  0  0  0
 30 60  1  0  0  0  0
 30 68  1  0  0  0  0
 31 69  1  0  0  0  0
 31 72  1  0  0  0  0
 32 73  1  0  0  0  0
 32 78  2  0  0  0  0
 33 47  1  0  0  0  0
 33 74  1  0  0  0  0
 33 79  2  0  0  0  0
 34 63  1  0  0  0  0
 34 70  1  0  0  0  0
 34 80  2  0  0  0  0
 35 65  1  0  0  0  0
 35 71  1  0  0  0  0
 35 81  2  0  0  0  0
 36 64  1  0  0  0  0
 36 75  1  0  0  0  0
 36 82  2  0  0  0  0
 37 40  1  0  0  0  0
 38 47  1  0  0  0  0
 39 70  1  0  0  0  0
 40 42  1  0  0  0  0
 41 43  1  0  0  0  0
 41 44  1  0  0  0  0
 42 46  1  0  0  0  0
 43 48  1  0  0  0  0
 44 71  1  0  0  0  0
 45 48  1  0  0  0  0
 45 71  1  0  0  0  0
 46 74  1  0  0  0  0
 47 70  1  0  0  0  0
 48 69  1  0  0  0  0
 50 64  1  0  0  0  0
 51 65  1  0  0  0  0
 52 65  1  0  0  0  0
 53 66  1  0  0  0  0
 54 66  1  0  0  0  0
 55 66  1  0  0  0  0
 56 68  1  0  0  0  0
 57 76  1  0  0  0  0
 58 77  1  0  0  0  0
 59 62  1  0  0  0  0
 60 77  1  0  0  0  0
 61 65  1  0  0  0  0
 61 77  1  0  0  0  0
 62 84  1  0  0  0  0
 63 66  1  0  0  0  0
 63 75  1  0  0  0  0
 64 76  1  0  0  0  0
 67 69  1  0  0  0  0
M  CHG  2  76   1  77   1
M  ISO  4  35 100  62 101  65 100  84 101
M  END
> <Batch ID>
0052

> <Smiles>
CNC(C)C(=O)NC(C(=O)N1Cc2cc([101O:1][101CH2:1]Cc3cc(C)n(C)c3CN(C)C[100C:0](C)(C)[100C:0](=O)N3CCCC(n4nc(-c5ccc(Oc6ccc(F)cc6F)cc5)c(C(N)=O)c4N)C3)ccc2CC1C(=O)NC1CCCc2ccccc21)C(C)(C)C

> <Shape>
0.204

> <Color>
0.067

> <Negative vol penalty>
0.000

$$$$

  -OEChem-04052317363D

 84 92  0     1  0  0  0  0  0999 V2000
  -32.9910  -25.8917   18.5920 C   0  0  0  0  0  0  0  0  0  0  0  0
  -31.6368  -25.6941   18.8419 C   0  0  0  0  0  0  0  0  0  0  0  0
  -24.8463  -14.3644   20.2471 C   0  0  0  0  0  0  0  0  0  0  0  0
  -26.9909  -14.1335   21.3353 C   0  0  0  0  0  0  0  0  0  0  0  0
  -33.7508  -26.6780   19.4571 C   0  0  0  0  0  0  0  0  0  0  0  0
  -31.0418  -26.2817   19.9577 C   0  0  0  0  0  0  0  0  0  0  0  0
  -26.5770  -28.4152   18.8810 C   0  0  0  0  0  0  0  0  0  0  0  0
  -24.7448  -12.9765   20.1525 C   0  0  0  0  0  0  0  0  0  0  0  0
  -26.8894  -12.7455   21.2408 C   0  0  0  0  0  0  0  0  0  0  0  0
  -25.4796  -27.5650   18.7526 C   0  0  0  0  0  0  0  0  0  0  0  0
  -23.7552   -9.4844   19.9491 C   0  0  0  0  0  0  0  0  0  0  0  0
  -22.5354   -8.8988   20.2878 C   0  0  0  0  0  0  0  0  0  0  0  0
  -24.7895  -28.1269   20.9947 C   0  0  0  0  0  0  0  0  0  0  0  0
  -22.7189   -9.8070   22.5191 C   0  0  0  0  0  0  0  0  0  0  0  0
  -25.3255  -23.9036   22.7982 C   0  0  0  0  0  0  0  0  0  0  0  0
  -25.9694  -14.9429   20.8384 C   0  0  0  0  0  0  0  0  0  0  0  0
  -25.1975  -17.2501   21.6056 C   0  0  0  0  0  0  0  0  0  0  0  0
  -33.1627  -27.2835   20.5788 C   0  0  0  0  0  0  0  0  0  0  0  0
  -26.7953  -29.1205   20.0732 C   0  0  0  0  0  0  0  0  0  0  0  0
  -31.7947  -27.0758   20.8393 C   0  0  0  0  0  0  0  0  0  0  0  0
  -25.8891  -28.9874   21.1348 C   0  0  0  0  0  0  0  0  0  0  0  0
  -24.1019  -23.9932   22.1808 C   0  0  0  0  0  0  0  0  0  0  0  0
  -25.7663  -12.1670   20.6494 C   0  0  0  0  0  0  0  0  0  0  0  0
  -24.5872  -27.4185   19.8105 C   0  0  0  0  0  0  0  0  0  0  0  0
  -24.4570  -10.2312   20.8955 C   0  0  0  0  0  0  0  0  0  0  0  0
  -22.0172   -9.0601   21.5727 C   0  0  0  0  0  0  0  0  0  0  0  0
  -23.9387  -10.3925   22.1804 C   0  0  0  0  0  0  0  0  0  0  0  0
  -26.0751  -16.3766   20.9358 C   0  0  0  0  0  0  0  0  0  0  0  0
  -24.4051  -24.0683   20.8081 C   0  0  0  0  0  0  0  0  0  0  0  0
  -25.7340  -18.4981   21.4025 C   0  0  0  0  0  0  0  0  0  0  0  0
  -24.0042  -16.9595   22.3452 C   0  0  0  0  0  0  0  0  0  0  0  0
  -29.1034  -29.1726   22.2581 C   0  0  0  0  0  0  0  0  0  0  0  0
  -27.3693  -31.6333   23.4665 C   0  0  0  0  0  0  0  0  0  0  0  0
  -24.3421  -33.1852   23.7393 C   0  0  0  0  0  0  0  0  0  0  0  0
  -30.4774  -21.6297   21.5042 C   0  0  0  0  0  0  0  0  0  0  0  0
  -34.0349  -28.0862   21.5113 C   0  0  0  0  0  0  0  0  0  0  0  0
  -27.9692  -30.0541   20.1863 C   0  0  0  0  0  0  0  0  0  0  0  0
  -26.0673  -29.7378   22.4285 C   0  0  0  0  0  0  0  0  0  0  0  0
  -33.2461  -28.9799   22.4649 C   0  0  0  0  0  0  0  0  0  0  0  0
  -29.4217  -20.0551   18.3249 C   0  0  0  0  0  0  0  0  0  0  0  0
  -32.0940  -28.2033   23.0943 C   0  0  0  0  0  0  0  0  0  0  0  0
  -28.4389  -18.9837   18.7941 C   0  0  0  0  0  0  0  0  0  0  0  0
  -30.4740  -20.3632   19.3858 C   0  0  0  0  0  0  0  0  0  0  0  0
  -28.9212  -19.6637   21.1785 C   0  0  0  0  0  0  0  0  0  0  0  0
  -31.1077  -27.7167   22.0256 C   0  0  1  0  0  0  0  0  0  0  0  0
  -28.3774  -30.3287   21.6304 C   0  0  1  0  0  0  0  0  0  0  0  0
  -27.8200  -19.3632   20.1507 C   0  0  2  0  0  0  0  0  0  0  0  0
  -22.1556  -25.4079   22.8857 C   0  0  0  0  0  0  0  0  0  0  0  0
  -22.6820  -34.9550   24.3791 C   0  0  0  0  0  0  0  0  0  0  0  0
  -22.6476  -25.5673   17.7035 C   0  0  0  0  0  0  0  0  0  0  0  0
  -27.3778  -30.1623   26.1397 C   0  0  0  0  0  0  0  0  0  0  0  0
  -25.5083  -31.6511   26.8857 C   0  0  0  0  0  0  0  0  0  0  0  0
  -27.7274  -32.6330   26.3074 C   0  0  0  0  0  0  0  0  0  0  0  0
  -30.2362  -23.3941   23.2096 C   0  0  0  0  0  0  0  0  0  0  0  0
  -24.8352  -34.7109   21.2517 C   0  0  0  0  0  0  0  0  0  0  0  0
  -22.7766  -24.0069   22.8227 C   0  0  0  0  0  0  0  0  0  0  0  0
  -23.4400  -24.1817   19.6516 C   0  0  0  0  0  0  0  0  0  0  0  0
  -27.6843  -23.8614   21.9535 C   0  0  0  0  0  0  0  0  0  0  0  0
  -28.1891  -22.4444   22.2131 C   0  0  0  0  0  0  0  0  0  0  0  0
  -26.2394  -31.7586   24.4598 C   0  0  1  0  0  0  0  0  0  0  0  0
  -23.9381  -34.6400   23.5817 C   0  0  2  0  0  0  0  0  0  0  0  0
  -23.6650  -25.4569   18.8320 C   0  0  2  0  0  0  0  0  0  1  0  0
  -26.7107  -31.5355   25.9246 C   0  0  0  0  0  0  0  0  0  0  0  0
  -27.0918  -17.0155   20.3509 N   0  0  0  0  0  0  0  0  0  0  0  0
  -25.7183  -24.0299   20.5672 N   0  0  0  0  0  0  0  0  0  0  0  0
  -26.2512  -23.9298   21.7969 N   0  0  0  0  0  0  0  0  0  0  0  0
  -26.8564  -18.3038   20.6524 N   0  0  0  0  0  0  0  0  0  0  0  0
  -27.2338  -30.6337   22.4927 N   0  0  0  0  0  0  0  0  0  0  0  0
  -29.8596  -20.6784   20.6759 N   0  0  0  0  0  0  0  0  0  0  0  0
  -25.3504  -19.7317   21.7942 N   0  0  0  0  0  0  0  0  0  0  0  0
  -24.1149  -16.7049   23.7190 N   0  0  0  0  0  0  0  0  0  0  0  0
  -30.2562  -28.8034   21.5915 N   0  0  0  0  0  0  0  0  0  0  0  0
  -25.6282  -33.0615   24.2206 N   0  0  0  0  0  0  0  0  0  0  0  0
  -29.6436  -22.3871   22.3408 N   0  0  0  0  0  0  0  0  0  0  0  0
  -23.6756  -34.9524   22.1484 N   0  3  0  0  0  0  0  0  0  0  0  0
  -22.8751  -16.9103   21.8008 O   0  0  0  0  0  0  0  0  0  0  0  0
  -28.6521  -28.6549   23.2730 O   0  0  0  0  0  0  0  0  0  0  0  0
  -28.3330  -32.3990   23.5470 O   0  0  0  0  0  0  0  0  0  0  0  0
  -23.5904  -32.2519   23.4664 O   0  0  0  0  0  0  0  0  0  0  0  0
  -31.7033  -21.7995   21.4894 O   0  0  0  0  0  0  0  0  0  0  0  0
  -25.6675  -10.8126   20.5575 O   0  0  0  0  0  0  0  0  0  0  0  0
  -23.5155  -26.5888   19.6880 O   0  0  0  0  0  0  0  0  0  1  0  0
  -20.8450   -8.4990   21.8973 F   0  0  0  0  0  0  0  0  0  0  0  0
  -24.6077  -11.1099   23.0935 F   0  0  0  0  0  0  0  0  0  0  0  0
  1  2  1  0  0  0  0
  1  5  2  0  0  0  0
  2  6  2  0  0  0  0
  3  8  2  0  0  0  0
  3 16  1  0  0  0  0
  4  9  1  0  0  0  0
  4 16  2  0  0  0  0
  5 18  1  0  0  0  0
  6 20  1  0  0  0  0
  7 10  2  0  0  0  0
  7 19  1  0  0  0  0
  8 23  1  0  0  0  0
  9 23  2  0  0  0  0
 10 24  1  0  0  0  0
 11 12  2  0  0  0  0
 11 25  1  0  0  0  0
 12 26  1  0  0  0  0
 13 21  1  0  0  0  0
 13 24  2  0  0  0  0
 14 26  2  0  0  0  0
 14 27  1  0  0  0  0
 15 22  2  0  0  0  0
 15 66  1  0  0  0  0
 16 28  1  0  0  0  0
 17 28  1  0  0  0  0
 17 30  2  0  0  0  0
 17 31  1  0  0  0  0
 18 20  2  0  0  0  0
 18 36  1  0  0  0  0
 19 21  2  0  0  0  0
 19 37  1  0  0  0  0
 20 45  1  0  0  0  0
 21 38  1  0  0  0  0
 22 29  1  0  0  0  0
 22 56  1  0  0  0  0
 23 81  1  0  0  0  0
 24 82  1  0  0  0  0
 25 27  2  0  0  0  0
 25 81  1  0  0  0  0
 26 83  1  0  0  0  0
 27 84  1  0  0  0  0
 28 64  2  0  0  0  0
 29 57  1  0  0  0  0
 29 65  2  0  0  0  0
 30 67  1  0  0  0  0
 30 70  1  0  0  0  0
 31 71  1  0  0  0  0
 31 76  2  0  0  0  0
 32 46  1  0  0  0  0
 32 72  1  0  0  0  0
 32 77  2  0  0  0  0
 33 60  1  0  0  0  0
 33 68  1  0  0  0  0
 33 78  2  0  0  0  0
 34 61  1  0  0  0  0
 34 73  1  0  0  0  0
 34 79  2  0  0  0  0
 35 69  1  0  0  0  0
 35 74  1  0  0  0  0
 35 80  2  0  0  0  0
 36 39  1  0  0  0  0
 37 46  1  0  0  0  0
 38 68  1  0  0  0  0
 39 41  1  0  0  0  0
 40 42  1  0  0  0  0
 40 43  1  0  0  0  0
 41 45  1  0  0  0  0
 42 47  1  0  0  0  0
 43 69  1  0  0  0  0
 44 47  1  0  0  0  0
 44 69  1  0  0  0  0
 45 72  1  0  0  0  0
 46 68  1  0  0  0  0
 47 67  1  0  0  0  0
 48 56  1  0  0  0  0
 49 61  1  0  0  0  0
 50 62  1  0  0  0  0
 51 63  1  0  0  0  0
 52 63  1  0  0  0  0
 53 63  1  0  0  0  0
 54 74  1  0  0  0  0
 55 75  1  0  0  0  0
 57 62  1  0  0  0  0
 58 59  1  0  0  0  0
 58 66  1  0  0  0  0
 59 74  1  0  0  0  0
 60 63  1  0  0  0  0
 60 73  1  0  0  0  0
 61 75  1  0  0  0  0
 62 82  1  0  0  0  0
 64 67  1  0  0  0  0
 65 66  1  0  0  0  0
M  CHG  1  75   1
M  ISO  4  35 100  62 101  74 100  82 101
M  END
> <Batch ID>
0052

> <Smiles>
CCc1cn(CC[100N:0](C)[100C:0](=O)N2CCCC(n3nc(-c4ccc(Oc5ccc(F)cc5F)cc4)c(C(N)=O)c3N)C2)nc1C[101CH:1](C)[101O:1]c1ccc2c(c1)CN(C(=O)C(NC(=O)C(C)NC)C(C)(C)C)C(C(=O)NC1CCCc3ccccc31)C2

> <Shape>
0.236

> <Color>
0.084

> <Negative vol penalty>
0.000

$$$$

  -OEChem-04052317363D

 88 97  0     1  0  0  0  0  0999 V2000
  -15.4287  -29.2229   26.6853 C   0  0  0  0  0  0  0  0  0  0  0  0
  -15.9528  -27.9375   26.5944 C   0  0  0  0  0  0  0  0  0  0  0  0
  -29.6514  -23.1046   20.6675 C   0  0  0  0  0  0  0  0  0  0  0  0
  -30.3425  -22.0609   18.6011 C   0  0  0  0  0  0  0  0  0  0  0  0
  -15.7978  -30.1925   25.7538 C   0  0  0  0  0  0  0  0  0  0  0  0
  -16.8457  -27.6205   25.5713 C   0  0  0  0  0  0  0  0  0  0  0  0
  -21.5905  -23.7616   25.8900 C   0  0  0  0  0  0  0  0  0  0  0  0
  -21.7706  -16.7431   22.6726 C   0  0  0  0  0  0  0  0  0  0  0  0
  -30.4641  -24.2023   20.3850 C   0  0  0  0  0  0  0  0  0  0  0  0
  -31.1553  -23.1587   18.3185 C   0  0  0  0  0  0  0  0  0  0  0  0
  -21.7458  -22.4318   25.5011 C   0  0  0  0  0  0  0  0  0  0  0  0
  -33.7478  -24.9823   20.5672 C   0  0  0  0  0  0  0  0  0  0  0  0
  -34.5404  -25.4837   21.5997 C   0  0  0  0  0  0  0  0  0  0  0  0
  -21.4877  -18.0007   23.1940 C   0  0  0  0  0  0  0  0  0  0  0  0
  -22.7128  -23.1610   23.4149 C   0  0  0  0  0  0  0  0  0  0  0  0
  -33.4287  -27.6209   21.4151 C   0  0  0  0  0  0  0  0  0  0  0  0
  -23.5908  -16.5790   24.1946 C   0  0  0  0  0  0  0  0  0  0  0  0
  -24.1283  -15.3552   20.2683 C   0  0  0  0  0  0  0  0  0  0  0  0
  -25.4833  -14.1627   21.5241 C   0  0  0  0  0  0  0  0  0  0  0  0
  -29.5906  -22.0338   19.7756 C   0  0  0  0  0  0  0  0  0  0  0  0
  -27.4028  -20.7238   19.7044 C   0  0  0  0  0  0  0  0  0  0  0  0
  -16.7031  -29.8899   24.7245 C   0  0  0  0  0  0  0  0  0  0  0  0
  -21.9859  -24.8031   25.0382 C   0  0  0  0  0  0  0  0  0  0  0  0
  -17.2263  -28.5866   24.6244 C   0  0  0  0  0  0  0  0  0  0  0  0
  -22.5638  -24.5032   23.7964 C   0  0  0  0  0  0  0  0  0  0  0  0
  -22.8405  -16.0122   23.1770 C   0  0  0  0  0  0  0  0  0  0  0  0
  -24.2281  -14.7204   21.5208 C   0  0  0  0  0  0  0  0  0  0  0  0
  -31.2161  -24.2294   19.2104 C   0  0  0  0  0  0  0  0  0  0  0  0
  -22.3043  -22.1313   24.2622 C   0  0  0  0  0  0  0  0  0  0  0  0
  -32.7957  -25.8001   19.9586 C   0  0  0  0  0  0  0  0  0  0  0  0
  -34.3808  -26.8030   22.0236 C   0  0  0  0  0  0  0  0  0  0  0  0
  -32.6362  -27.1194   20.3826 C   0  0  0  0  0  0  0  0  0  0  0  0
  -28.7516  -20.8992   20.0672 C   0  0  0  0  0  0  0  0  0  0  0  0
  -22.2984  -18.4783   24.2110 C   0  0  0  0  0  0  0  0  0  0  0  0
  -27.0677  -19.4928   20.2131 C   0  0  0  0  0  0  0  0  0  0  0  0
  -26.5307  -21.5956   18.9729 C   0  0  0  0  0  0  0  0  0  0  0  0
  -20.4909  -27.2026   23.5853 C   0  0  0  0  0  0  0  0  0  0  0  0
  -28.3259  -14.1014   21.0129 C   0  0  0  0  0  0  0  0  0  0  0  0
  -23.5053  -28.0585   22.7466 C   0  0  0  0  0  0  0  0  0  0  0  0
  -26.7398  -27.1151   22.2036 C   0  0  0  0  0  0  0  0  0  0  0  0
  -17.0359  -30.9581   23.7131 C   0  0  0  0  0  0  0  0  0  0  0  0
  -21.8362  -26.2319   25.4836 C   0  0  0  0  0  0  0  0  0  0  0  0
  -23.0232  -25.5843   22.8537 C   0  0  0  0  0  0  0  0  0  0  0  0
  -18.2766  -30.6439   22.8811 C   0  0  0  0  0  0  0  0  0  0  0  0
  -29.5276  -16.4662   23.4220 C   0  0  0  0  0  0  0  0  0  0  0  0
  -18.2305  -29.2053   22.3762 C   0  0  0  0  0  0  0  0  0  0  0  0
  -29.3501  -17.8131   22.7224 C   0  0  0  0  0  0  0  0  0  0  0  0
  -29.9052  -15.3684   22.4324 C   0  0  0  0  0  0  0  0  0  0  0  0
  -28.7718  -16.5700   20.5904 C   0  0  0  0  0  0  0  0  0  0  0  0
  -18.2167  -28.2110   23.5436 C   0  0  1  0  0  0  0  0  0  0  0  0
  -21.8007  -27.2195   24.3214 C   0  0  1  0  0  0  0  0  0  0  0  0
  -28.3598  -17.7006   21.5497 C   0  0  2  0  0  0  0  0  0  0  0  0
  -26.5567  -12.7438   17.8648 C   0  0  0  0  0  0  0  0  0  0  0  0
  -28.9650  -28.0294   21.4894 C   0  0  0  0  0  0  0  0  0  0  0  0
  -22.5482  -28.1186   19.8500 C   0  0  0  0  0  0  0  0  0  0  0  0
  -24.9460  -28.0901   19.1303 C   0  0  0  0  0  0  0  0  0  0  0  0
  -24.0744  -29.9957   20.4836 C   0  0  0  0  0  0  0  0  0  0  0  0
  -27.9962  -26.3894   24.7831 C   0  0  0  0  0  0  0  0  0  0  0  0
  -22.0220  -19.8314   24.7976 C   0  0  0  0  0  0  0  0  0  1  0  0
  -27.4078  -12.7678   19.1279 C   0  0  0  0  0  0  0  0  0  0  0  0
  -21.9341  -13.8212   22.2220 C   0  0  0  0  0  0  0  0  0  0  0  0
  -23.1692  -14.6645   22.6403 C   0  0  2  0  0  0  0  0  0  0  0  0
  -27.3553  -14.1193   19.8590 C   0  0  1  0  0  0  0  0  0  0  0  0
  -24.4215  -27.7479   21.5877 C   0  0  1  0  0  0  0  0  0  0  0  0
  -28.0552  -27.7147   22.6668 C   0  0  2  0  0  0  0  0  0  0  0  0
  -23.9872  -28.4675   20.2796 C   0  0  0  0  0  0  0  0  0  0  0  0
  -23.3465  -17.7976   24.7266 N   0  0  0  0  0  0  0  0  0  0  0  0
  -25.2323  -15.2147   19.5296 N   0  0  0  0  0  0  0  0  0  0  0  0
  -29.2400  -19.8626   20.7535 N   0  0  0  0  0  0  0  0  0  0  0  0
  -26.0376  -14.4852   20.3204 N   0  0  0  0  0  0  0  0  0  0  0  0
  -28.1923  -19.0241   20.8261 N   0  0  0  0  0  0  0  0  0  0  0  0
  -22.8499  -26.9659   23.3319 N   0  0  0  0  0  0  0  0  0  0  0  0
  -28.9528  -15.3086   21.3221 N   0  0  0  0  0  0  0  0  0  0  0  0
  -25.9237  -18.7764   20.1915 N   0  0  0  0  0  0  0  0  0  0  0  0
  -27.0365  -22.8229   18.5231 N   0  0  0  0  0  0  0  0  0  0  0  0
  -19.5445  -28.0674   24.1009 N   0  0  0  0  0  0  0  0  0  0  0  0
  -25.7703  -28.0806   22.0331 N   0  0  0  0  0  0  0  0  0  0  0  0
  -22.2674  -12.3735   22.1553 N   0  3  0  0  0  0  0  0  0  0  0  0
  -28.7668  -26.7671   23.5704 N   0  3  0  0  0  0  0  0  0  0  0  0
  -25.3336  -21.3024   18.7397 O   0  0  0  0  0  0  0  0  0  0  0  0
  -20.3499  -26.4609   22.6200 O   0  0  0  0  0  0  0  0  0  0  0  0
  -28.5175  -13.0457   21.6220 O   0  0  0  0  0  0  0  0  0  0  0  0
  -23.3814  -29.2265   23.1234 O   0  0  0  0  0  0  0  0  0  0  0  0
  -26.5885  -25.9111   22.0087 O   0  0  0  0  0  0  0  0  0  0  0  0
  -32.0091  -25.3006   18.9343 O   0  0  0  0  0  0  0  0  0  0  0  0
  -22.4564  -20.8342   23.8799 O   0  0  0  0  0  0  0  0  0  1  0  0
  -35.1409  -27.2840   23.0162 F   0  0  0  0  0  0  0  0  0  0  0  0
  -31.7224  -27.9095   19.8025 F   0  0  0  0  0  0  0  0  0  0  0  0
  1  2  1  0  0  0  0
  1  5  2  0  0  0  0
  2  6  2  0  0  0  0
  3  9  2  0  0  0  0
  3 20  1  0  0  0  0
  4 10  1  0  0  0  0
  4 20  2  0  0  0  0
  5 22  1  0  0  0  0
  6 24  1  0  0  0  0
  7 11  2  0  0  0  0
  7 23  1  0  0  0  0
  8 14  2  0  0  0  0
  8 26  1  0  0  0  0
  9 28  1  0  0  0  0
 10 28  2  0  0  0  0
 11 29  1  0  0  0  0
 12 13  2  0  0  0  0
 12 30  1  0  0  0  0
 13 31  1  0  0  0  0
 14 34  1  0  0  0  0
 15 25  1  0  0  0  0
 15 29  2  0  0  0  0
 16 31  2  0  0  0  0
 16 32  1  0  0  0  0
 17 26  2  0  0  0  0
 17 67  1  0  0  0  0
 18 27  1  0  0  0  0
 18 68  2  0  0  0  0
 19 27  2  0  0  0  0
 19 70  1  0  0  0  0
 20 33  1  0  0  0  0
 21 33  1  0  0  0  0
 21 35  2  0  0  0  0
 21 36  1  0  0  0  0
 22 24  2  0  0  0  0
 22 41  1  0  0  0  0
 23 25  2  0  0  0  0
 23 42  1  0  0  0  0
 24 50  1  0  0  0  0
 25 43  1  0  0  0  0
 26 62  1  0  0  0  0
 27 62  1  0  0  0  0
 28 85  1  0  0  0  0
 29 86  1  0  0  0  0
 30 32  2  0  0  0  0
 30 85  1  0  0  0  0
 31 87  1  0  0  0  0
 32 88  1  0  0  0  0
 33 69  2  0  0  0  0
 34 59  1  0  0  0  0
 34 67  2  0  0  0  0
 35 71  1  0  0  0  0
 35 74  1  0  0  0  0
 36 75  1  0  0  0  0
 36 80  2  0  0  0  0
 37 51  1  0  0  0  0
 37 76  1  0  0  0  0
 37 81  2  0  0  0  0
 38 63  1  0  0  0  0
 38 73  1  0  0  0  0
 38 82  2  0  0  0  0
 39 64  1  0  0  0  0
 39 72  1  0  0  0  0
 39 83  2  0  0  0  0
 40 65  1  0  0  0  0
 40 77  1  0  0  0  0
 40 84  2  0  0  0  0
 41 44  1  0  0  0  0
 42 51  1  0  0  0  0
 43 72  1  0  0  0  0
 44 46  1  0  0  0  0
 45 47  1  0  0  0  0
 45 48  1  0  0  0  0
 46 50  1  0  0  0  0
 47 52  1  0  0  0  0
 48 73  1  0  0  0  0
 49 52  1  0  0  0  0
 49 73  1  0  0  0  0
 50 76  1  0  0  0  0
 51 72  1  0  0  0  0
 52 71  1  0  0  0  0
 53 60  1  0  0  0  0
 54 65  1  0  0  0  0
 55 66  1  0  0  0  0
 56 66  1  0  0  0  0
 57 66  1  0  0  0  0
 58 79  1  0  0  0  0
 59 86  1  0  0  0  0
 60 63  1  0  0  0  0
 61 62  1  0  0  0  0
 61 78  1  0  0  0  0
 63 70  1  0  0  0  0
 64 66  1  0  0  0  0
 64 77  1  0  0  0  0
 65 79  1  0  0  0  0
 68 70  1  0  0  0  0
 69 71  1  0  0  0  0
M  CHG  2  78   1  79   1
M  ISO  4  38 100  59 101  63 100  86 101
M  END
> <Batch ID>
0052

> <Smiles>
CC[100CH:0]([100C:0](=O)N1CCCC(n2nc(-c3ccc(Oc4ccc(F)cc4F)cc3)c(C(N)=O)c2N)C1)n1cc(C(CN)c2ccc([101CH2:1][101O:1]c3ccc4c(c3)CN(C(=O)C(NC(=O)C(C)NC)C(C)(C)C)C(C(=O)NC3CCCc5ccccc53)C4)nc2)cn1

> <Shape>
0.224

> <Color>
0.063

> <Negative vol penalty>
0.000

$$$$

  -OEChem-04052317363D

 90 98  0     1  0  0  0  0  0999 V2000
  -21.2812  -13.9341   14.8339 C   0  0  0  0  0  0  0  0  0  0  0  0
  -22.1390  -14.9826   15.1504 C   0  0  0  0  0  0  0  0  0  0  0  0
  -21.4533  -29.6151   22.4909 C   0  0  0  0  0  0  0  0  0  0  0  0
  -22.8461  -27.6730   22.8451 C   0  0  0  0  0  0  0  0  0  0  0  0
  -21.0006  -12.9534   15.7844 C   0  0  0  0  0  0  0  0  0  0  0  0
  -22.7160  -15.0515   16.4179 C   0  0  0  0  0  0  0  0  0  0  0  0
  -28.3042  -17.1344   17.8109 C   0  0  0  0  0  0  0  0  0  0  0  0
  -20.3611  -28.9285   23.0212 C   0  0  0  0  0  0  0  0  0  0  0  0
  -21.7538  -26.9864   23.3755 C   0  0  0  0  0  0  0  0  0  0  0  0
  -28.7538  -18.3620   18.2951 C   0  0  0  0  0  0  0  0  0  0  0  0
  -18.1452  -26.5952   21.9868 C   0  0  0  0  0  0  0  0  0  0  0  0
  -16.9310  -26.6862   21.3065 C   0  0  0  0  0  0  0  0  0  0  0  0
  -28.7208  -17.4814   20.5407 C   0  0  0  0  0  0  0  0  0  0  0  0
  -15.9050  -27.6559   23.2672 C   0  0  0  0  0  0  0  0  0  0  0  0
  -22.6958  -28.9873   22.4028 C   0  0  0  0  0  0  0  0  0  0  0  0
  -24.3940  -30.8897   22.3359 C   0  0  0  0  0  0  0  0  0  0  0  0
  -21.5821  -13.0051   17.0610 C   0  0  0  0  0  0  0  0  0  0  0  0
  -28.0486  -16.0727   18.6905 C   0  0  0  0  0  0  0  0  0  0  0  0
  -22.4419  -14.0713   17.3868 C   0  0  0  0  0  0  0  0  0  0  0  0
  -28.2704  -16.2405   20.0648 C   0  0  0  0  0  0  0  0  0  0  0  0
  -20.5113  -27.6142   23.4635 C   0  0  0  0  0  0  0  0  0  0  0  0
  -28.9595  -18.5366   19.6606 C   0  0  0  0  0  0  0  0  0  0  0  0
  -18.2394  -27.0344   23.3074 C   0  0  0  0  0  0  0  0  0  0  0  0
  -15.8109  -27.2166   21.9466 C   0  0  0  0  0  0  0  0  0  0  0  0
  -17.1193  -27.5647   23.9476 C   0  0  0  0  0  0  0  0  0  0  0  0
  -23.8243  -29.6958   21.8545 C   0  0  0  0  0  0  0  0  0  0  0  0
  -25.4321  -31.1468   21.4741 C   0  0  0  0  0  0  0  0  0  0  0  0
  -30.4483  -26.3358   21.2020 C   0  0  0  0  0  0  0  0  0  0  0  0
  -30.7083  -27.5501   20.6628 C   0  0  0  0  0  0  0  0  0  0  0  0
  -30.5510  -27.3260   18.2339 C   0  0  0  0  0  0  0  0  0  0  0  0
  -24.0184  -31.6945   23.4615 C   0  0  0  0  0  0  0  0  0  0  0  0
  -25.4759  -14.3780   19.4735 C   0  0  0  0  0  0  0  0  0  0  0  0
  -27.6193  -12.6400   21.1785 C   0  0  0  0  0  0  0  0  0  0  0  0
  -30.6389  -12.5116   22.7635 C   0  0  0  0  0  0  0  0  0  0  0  0
  -27.5556  -27.1932   21.2016 C   0  0  0  0  0  0  0  0  0  0  0  0
  -21.2117  -11.9477   18.0707 C   0  0  0  0  0  0  0  0  0  0  0  0
  -27.5894  -14.7465   18.1494 C   0  0  0  0  0  0  0  0  0  0  0  0
  -28.0304  -15.1259   21.0488 C   0  0  0  0  0  0  0  0  0  0  0  0
  -22.1580  -11.8899   19.2671 C   0  0  0  0  0  0  0  0  0  0  0  0
  -25.7286  -27.7263   18.2243 C   0  0  0  0  0  0  0  0  0  0  0  0
  -22.4271  -13.2924   19.8032 C   0  0  0  0  0  0  0  0  0  0  0  0
  -25.8012  -29.2528   18.1235 C   0  0  0  0  0  0  0  0  0  0  0  0
  -27.0336  -27.1053   18.7167 C   0  0  0  0  0  0  0  0  0  0  0  0
  -27.6795  -29.2279   19.7940 C   0  0  0  0  0  0  0  0  0  0  0  0
  -23.1068  -14.1672   18.7429 C   0  0  1  0  0  0  0  0  0  0  0  0
  -26.8696  -13.8937   19.1896 C   0  0  1  0  0  0  0  0  0  0  0  0
  -26.3712  -29.9368   19.3863 C   0  0  2  0  0  0  0  0  0  0  0  0
  -30.0144  -24.9875   20.6425 C   0  0  2  0  0  0  0  0  0  0  0  0
  -30.9822  -24.3720   19.5716 C   0  0  1  0  0  0  0  0  0  0  0  0
  -31.0663  -28.6637   21.6355 C   0  0  0  0  0  0  0  0  0  0  0  0
  -30.5562  -28.1278   16.9632 C   0  0  0  0  0  0  0  0  0  0  0  0
  -33.2625  -23.3850   19.2493 C   0  0  0  0  0  0  0  0  0  0  0  0
  -28.7158  -25.0560   23.4041 C   0  0  0  0  0  0  0  0  0  0  0  0
  -32.0991  -10.9675   24.0980 C   0  0  0  0  0  0  0  0  0  0  0  0
  -25.8344  -13.0633   23.6167 C   0  0  0  0  0  0  0  0  0  0  0  0
  -27.7542  -12.3534   25.0585 C   0  0  0  0  0  0  0  0  0  0  0  0
  -26.7820  -10.7585   23.4050 C   0  0  0  0  0  0  0  0  0  0  0  0
  -32.8078  -12.6378   20.7538 C   0  0  0  0  0  0  0  0  0  0  0  0
  -28.5259  -25.0525   20.2668 C   0  0  0  0  0  0  0  0  0  0  0  0
  -32.3173  -23.9742   20.2386 C   0  0  0  0  0  0  0  0  0  0  0  0
  -30.4118  -23.1291   18.8743 C   0  0  0  0  0  0  0  0  0  0  0  0
  -30.1566  -22.0162   19.8764 C   0  0  0  0  0  0  0  0  0  0  0  0
  -27.4952  -25.1043   22.5075 C   0  0  0  0  0  0  0  0  0  0  0  0
  -29.6271  -20.7685   19.1820 C   0  0  0  0  0  0  0  0  0  1  0  0
  -28.1722  -12.7032   22.5818 C   0  0  1  0  0  0  0  0  0  0  0  0
  -31.7617  -11.4912   22.7107 C   0  0  2  0  0  0  0  0  0  0  0  0
  -27.1385  -12.2414   23.6474 C   0  0  0  0  0  0  0  0  0  0  0  0
  -24.4487  -29.2268   20.7709 N   0  0  0  0  0  0  0  0  0  0  0  0
  -30.3492  -25.9845   18.1237 N   0  0  0  0  0  0  0  0  0  0  0  0
  -31.3444  -25.3800   18.5602 N   0  0  0  0  0  0  0  0  0  0  0  0
  -25.4214  -30.1308   20.5641 N   0  0  0  0  0  0  0  0  0  0  0  0
  -27.5759  -13.8500   20.4716 N   0  0  0  0  0  0  0  0  0  0  0  0
  -27.5061  -27.7812   19.9294 N   0  0  0  0  0  0  0  0  0  0  0  0
  -30.6984  -28.0100   19.3131 N   0  3  0  0  0  0  0  0  0  0  0  0
  -26.3439  -32.1404   21.4133 N   0  0  0  0  0  0  0  0  0  0  0  0
  -24.6020  -31.4176   24.7053 N   0  0  0  0  0  0  0  0  0  0  0  0
  -24.5126  -13.8389   18.6422 N   0  0  0  0  0  0  0  0  0  0  0  0
  -29.4062  -11.9250   22.5698 N   0  0  0  0  0  0  0  0  0  0  0  0
  -27.7689  -25.8083   21.2628 N   0  0  0  0  0  0  0  0  0  0  0  0
  -32.9896  -12.1018   22.1273 N   0  3  0  0  0  0  0  0  0  0  0  0
  -23.1774  -32.6209   23.3705 O   0  0  0  0  0  0  0  0  0  0  0  0
  -25.2881  -15.1803   20.3805 O   0  0  0  0  0  0  0  0  0  0  0  0
  -27.2466  -11.5556   20.7236 O   0  0  0  0  0  0  0  0  0  0  0  0
  -30.8355  -13.7086   22.9608 O   0  0  0  0  0  0  0  0  0  0  0  0
  -27.4235  -27.8675   22.2311 O   0  0  0  0  0  0  0  0  0  0  0  0
  -19.4458  -26.9440   23.9813 O   0  0  0  0  0  0  0  0  0  0  0  0
  -29.4009  -19.7426   20.1394 O   0  0  0  0  0  0  0  0  0  1  0  0
  -14.6453  -27.3054   21.2926 F   0  0  0  0  0  0  0  0  0  0  0  0
  -17.2039  -27.9894   25.2158 F   0  0  0  0  0  0  0  0  0  0  0  0
  -30.0339  -24.0885   21.6957 F   0  0  0  0  0  0  0  0  0  0  0  0
  1  2  1  0  0  0  0
  1  5  2  0  0  0  0
  2  6  2  0  0  0  0
  3  8  2  0  0  0  0
  3 15  1  0  0  0  0
  4  9  1  0  0  0  0
  4 15  2  0  0  0  0
  5 17  1  0  0  0  0
  6 19  1  0  0  0  0
  7 10  2  0  0  0  0
  7 18  1  0  0  0  0
  8 21  1  0  0  0  0
  9 21  2  0  0  0  0
 10 22  1  0  0  0  0
 11 12  2  0  0  0  0
 11 23  1  0  0  0  0
 12 24  1  0  0  0  0
 13 20  1  0  0  0  0
 13 22  2  0  0  0  0
 14 24  2  0  0  0  0
 14 25  1  0  0  0  0
 15 26  1  0  0  0  0
 16 26  1  0  0  0  0
 16 27  2  0  0  0  0
 16 31  1  0  0  0  0
 17 19  2  0  0  0  0
 17 36  1  0  0  0  0
 18 20  2  0  0  0  0
 18 37  1  0  0  0  0
 19 45  1  0  0  0  0
 20 38  1  0  0  0  0
 21 86  1  0  0  0  0
 22 87  1  0  0  0  0
 23 25  2  0  0  0  0
 23 86  1  0  0  0  0
 24 88  1  0  0  0  0
 25 89  1  0  0  0  0
 26 68  2  0  0  0  0
 27 71  1  0  0  0  0
 27 75  1  0  0  0  0
 28 29  2  0  0  0  0
 28 48  1  0  0  0  0
 29 50  1  0  0  0  0
 29 74  1  0  0  0  0
 30 51  1  0  0  0  0
 30 69  1  0  0  0  0
 30 74  2  0  0  0  0
 31 76  1  0  0  0  0
 31 81  2  0  0  0  0
 32 46  1  0  0  0  0
 32 77  1  0  0  0  0
 32 82  2  0  0  0  0
 33 65  1  0  0  0  0
 33 72  1  0  0  0  0
 33 83  2  0  0  0  0
 34 66  1  0  0  0  0
 34 78  1  0  0  0  0
 34 84  2  0  0  0  0
 35 73  1  0  0  0  0
 35 79  1  0  0  0  0
 35 85  2  0  0  0  0
 36 39  1  0  0  0  0
 37 46  1  0  0  0  0
 38 72  1  0  0  0  0
 39 41  1  0  0  0  0
 40 42  1  0  0  0  0
 40 43  1  0  0  0  0
 41 45  1  0  0  0  0
 42 47  1  0  0  0  0
 43 73  1  0  0  0  0
 44 47  1  0  0  0  0
 44 73  1  0  0  0  0
 45 77  1  0  0  0  0
 46 72  1  0  0  0  0
 47 71  1  0  0  0  0
 48 49  1  0  0  0  0
 48 59  1  0  0  0  0
 48 90  1  0  0  0  0
 49 60  1  0  0  0  0
 49 61  1  0  0  0  0
 49 70  1  0  0  0  0
 52 60  1  0  0  0  0
 53 63  1  0  0  0  0
 54 66  1  0  0  0  0
 55 67  1  0  0  0  0
 56 67  1  0  0  0  0
 57 67  1  0  0  0  0
 58 80  1  0  0  0  0
 59 79  1  0  0  0  0
 61 62  1  0  0  0  0
 62 64  1  0  0  0  0
 63 79  1  0  0  0  0
 64 87  1  0  0  0  0
 65 67  1  0  0  0  0
 65 78  1  0  0  0  0
 66 80  1  0  0  0  0
 68 71  1  0  0  0  0
 69 70  2  3  0  0  0
M  CHG  2  74   1  80   1
M  ISO  4  35 100  64 101  79 100  87 101
M  END
> <Batch ID>
0052

> <Smiles>
CC[100N:0](CC1(F)C=C(C)N=C(C)N=NC1(CC)CC[101CH2:1][101O:1]c1ccc2c(c1)CN(C(=O)C(NC(=O)C(C)NC)C(C)(C)C)C(C(=O)NC1CCCc3ccccc31)C2)[100C:0](=O)N1CCCC(n2nc(-c3ccc(Oc4ccc(F)cc4F)cc3)c(C(N)=O)c2N)C1

> <Shape>
0.276

> <Color>
0.066

> <Negative vol penalty>
0.000

$$$$

  -OEChem-04052317363D

 87 95  0     1  0  0  0  0  0999 V2000
  -17.4265  -15.9078   23.0873 C   0  0  0  0  0  0  0  0  0  0  0  0
  -18.7887  -16.1894   23.0709 C   0  0  0  0  0  0  0  0  0  0  0  0
  -23.1332   -9.8893   21.4651 C   0  0  0  0  0  0  0  0  0  0  0  0
  -23.9776  -10.7807   23.5459 C   0  0  0  0  0  0  0  0  0  0  0  0
  -16.5174  -16.8381   22.5852 C   0  0  0  0  0  0  0  0  0  0  0  0
  -19.2429  -17.4011   22.5512 C   0  0  0  0  0  0  0  0  0  0  0  0
  -24.0346  -20.6784   24.5017 C   0  0  0  0  0  0  0  0  0  0  0  0
  -22.4481   -8.8981   22.1677 C   0  0  0  0  0  0  0  0  0  0  0  0
  -23.2925   -9.7894   24.2485 C   0  0  0  0  0  0  0  0  0  0  0  0
  -25.3483  -20.7813   24.0464 C   0  0  0  0  0  0  0  0  0  0  0  0
  -23.1692   -5.9505   23.6563 C   0  0  0  0  0  0  0  0  0  0  0  0
  -23.2438   -4.6446   23.1718 C   0  0  0  0  0  0  0  0  0  0  0  0
  -24.7499  -22.7470   22.7826 C   0  0  0  0  0  0  0  0  0  0  0  0
  -30.2736  -21.7827   23.4035 C   0  0  0  0  0  0  0  0  0  0  0  0
  -20.8429   -4.6066   22.9045 C   0  0  0  0  0  0  0  0  0  0  0  0
  -29.5539  -20.9653   21.2892 C   0  0  0  0  0  0  0  0  0  0  0  0
  -23.8980  -10.8306   22.1542 C   0  0  0  0  0  0  0  0  0  0  0  0
  -24.1291  -13.1310   21.0760 C   0  0  0  0  0  0  0  0  0  0  0  0
  -16.9599  -18.0658   22.0680 C   0  0  0  0  0  0  0  0  0  0  0  0
  -23.0645  -21.6042   24.0916 C   0  0  0  0  0  0  0  0  0  0  0  0
  -18.3390  -18.3481   22.0405 C   0  0  0  0  0  0  0  0  0  0  0  0
  -23.4251  -22.6551   23.2362 C   0  0  0  0  0  0  0  0  0  0  0  0
  -29.2673  -21.2309   22.6186 C   0  0  0  0  0  0  0  0  0  0  0  0
  -31.5181  -22.0483   22.8431 C   0  0  0  0  0  0  0  0  0  0  0  0
  -22.5277   -8.8481   23.5594 C   0  0  0  0  0  0  0  0  0  0  0  0
  -25.7055  -21.8141   23.1845 C   0  0  0  0  0  0  0  0  0  0  0  0
  -21.9315   -6.5844   23.7650 C   0  0  0  0  0  0  0  0  0  0  0  0
  -22.0807   -3.9727   22.7959 C   0  0  0  0  0  0  0  0  0  0  0  0
  -20.7683   -5.9125   23.3890 C   0  0  0  0  0  0  0  0  0  0  0  0
  -24.6064  -11.8545   21.4289 C   0  0  0  0  0  0  0  0  0  0  0  0
  -31.7039  -21.7458   21.5038 C   0  0  0  0  0  0  0  0  0  0  0  0
  -25.1746  -13.7144   20.4028 C   0  0  0  0  0  0  0  0  0  0  0  0
  -22.8548  -13.7354   21.3337 C   0  0  0  0  0  0  0  0  0  0  0  0
  -20.3393  -21.4256   22.4652 C   0  0  0  0  0  0  0  0  0  0  0  0
  -20.1091  -24.5607   23.2656 C   0  0  0  0  0  0  0  0  0  0  0  0
  -21.6950  -27.4436   24.1716 C   0  0  0  0  0  0  0  0  0  0  0  0
  -30.3782  -14.9576   19.8214 C   0  0  0  0  0  0  0  0  0  0  0  0
  -15.9432  -19.0200   21.4930 C   0  0  0  0  0  0  0  0  0  0  0  0
  -21.6579  -21.4948   24.6129 C   0  0  0  0  0  0  0  0  0  0  0  0
  -22.4259  -23.6866   22.7823 C   0  0  0  0  0  0  0  0  0  0  0  0
  -16.4773  -20.4374   21.3033 C   0  0  0  0  0  0  0  0  0  0  0  0
  -29.4816  -11.7499   18.6473 C   0  0  0  0  0  0  0  0  0  0  0  0
  -17.8491  -20.4063   20.6370 C   0  0  0  0  0  0  0  0  0  0  0  0
  -28.0862  -11.5868   19.2482 C   0  0  0  0  0  0  0  0  0  0  0  0
  -30.4495  -12.4287   19.6181 C   0  0  0  0  0  0  0  0  0  0  0  0
  -28.5606  -13.5560   20.7511 C   0  0  0  0  0  0  0  0  0  0  0  0
  -18.8685  -19.6618   21.5078 C   0  0  1  0  0  0  0  0  0  0  0  0
  -20.6347  -22.1933   23.7226 C   0  0  1  0  0  0  0  0  0  0  0  0
  -27.5531  -12.9308   19.7740 C   0  0  2  0  0  0  0  0  0  0  0  0
  -32.6001  -22.6411   23.6781 C   0  0  0  0  0  0  0  0  0  0  0  0
  -21.2451  -29.8508   24.7196 C   0  0  0  0  0  0  0  0  0  0  0  0
  -19.7175  -25.1602   20.2996 C   0  0  0  0  0  0  0  0  0  0  0  0
  -20.2244  -27.5626   20.7897 C   0  0  0  0  0  0  0  0  0  0  0  0
  -18.2389  -26.4706   21.8329 C   0  0  0  0  0  0  0  0  0  0  0  0
  -32.7696  -14.1974   20.1503 C   0  0  0  0  0  0  0  0  0  0  0  0
  -22.7858  -27.1453   26.9065 C   0  0  0  0  0  0  0  0  0  0  0  0
  -34.8021  -19.3848   20.8962 C   0  0  0  0  0  0  0  0  0  0  0  0
  -27.9139  -20.9316   23.1929 C   0  0  0  0  0  0  0  0  0  1  0  0
  -33.0204  -22.0089   20.8486 C   0  0  0  0  0  0  0  0  0  0  0  0
  -32.6476  -17.3519   19.8940 C   0  0  0  0  0  0  0  0  0  0  0  0
  -32.2570  -16.2622   18.9014 C   0  0  0  0  0  0  0  0  0  0  0  0
  -33.3600  -21.0380   19.7181 C   0  0  0  0  0  0  0  0  0  0  0  0
  -33.1507  -18.6113   19.2002 C   0  0  0  0  0  0  0  0  0  0  0  0
  -20.5558  -25.8596   22.6393 C   0  0  1  0  0  0  0  0  0  0  0  0
  -21.4107  -28.4452   25.2762 C   0  0  2  0  0  0  0  0  0  0  0  0
  -19.7028  -26.2428   21.3972 C   0  0  0  0  0  0  0  0  0  0  0  0
  -30.7505  -21.2094   20.7095 N   0  0  0  0  0  0  0  0  0  0  0  0
  -25.8575  -11.6389   21.0141 N   0  0  0  0  0  0  0  0  0  0  0  0
  -26.1753  -12.7878   20.3935 N   0  0  0  0  0  0  0  0  0  0  0  0
  -21.0618  -23.5332   23.3144 N   0  0  0  0  0  0  0  0  0  0  0  0
  -29.8822  -13.6829   20.1320 N   0  0  0  0  0  0  0  0  0  0  0  0
  -25.3262  -14.9244   19.8238 N   0  0  0  0  0  0  0  0  0  0  0  0
  -21.8951  -12.9964   22.0389 N   0  0  0  0  0  0  0  0  0  0  0  0
  -19.3164  -20.5056   22.5949 N   0  0  0  0  0  0  0  0  0  0  0  0
  -20.5384  -26.8544   23.7062 N   0  0  0  0  0  0  0  0  0  0  0  0
  -31.7525  -15.0661   19.5611 N   0  0  0  0  0  0  0  0  0  0  0  0
  -22.5275  -28.4590   26.2629 N   0  3  0  0  0  0  0  0  0  0  0  0
  -33.4687  -19.6545   20.2432 N   0  3  1  0  0  0  0  0  0  0  0  0
  -22.5696  -14.8903   20.9358 O   0  0  0  0  0  0  0  0  0  0  0  0
  -20.9902  -21.6523   21.4519 O   0  0  0  0  0  0  0  0  0  0  0  0
  -18.9594  -24.4637   23.7021 O   0  0  0  0  0  0  0  0  0  0  0  0
  -22.8292  -27.2100   23.7599 O   0  0  0  0  0  0  0  0  0  0  0  0
  -29.6359  -15.9475   19.7862 O   0  0  0  0  0  0  0  0  0  0  0  0
  -21.8591   -7.8812   24.2454 O   0  0  0  0  0  0  0  0  0  0  0  0
  -26.9869  -21.9165   22.7380 O   0  0  0  0  0  0  0  0  0  1  0  0
  -22.1527   -2.7192   22.3292 F   0  0  0  0  0  0  0  0  0  0  0  0
  -19.5765   -6.5167   23.4901 F   0  0  0  0  0  0  0  0  0  0  0  0
  1  2  1  0  0  0  0
  1  5  2  0  0  0  0
  2  6  2  0  0  0  0
  3  8  2  0  0  0  0
  3 17  1  0  0  0  0
  4  9  1  0  0  0  0
  4 17  2  0  0  0  0
  5 19  1  0  0  0  0
  6 21  1  0  0  0  0
  7 10  2  0  0  0  0
  7 20  1  0  0  0  0
  8 25  1  0  0  0  0
  9 25  2  0  0  0  0
 10 26  1  0  0  0  0
 11 12  2  0  0  0  0
 11 27  1  0  0  0  0
 12 28  1  0  0  0  0
 13 22  1  0  0  0  0
 13 26  2  0  0  0  0
 14 23  2  0  0  0  0
 14 24  1  0  0  0  0
 15 28  2  0  0  0  0
 15 29  1  0  0  0  0
 16 23  1  0  0  0  0
 16 67  2  0  0  0  0
 17 30  1  0  0  0  0
 18 30  1  0  0  0  0
 18 32  2  0  0  0  0
 18 33  1  0  0  0  0
 19 21  2  0  0  0  0
 19 38  1  0  0  0  0
 20 22  2  0  0  0  0
 20 39  1  0  0  0  0
 21 47  1  0  0  0  0
 22 40  1  0  0  0  0
 23 58  1  0  0  0  0
 24 31  2  0  0  0  0
 24 50  1  0  0  0  0
 25 84  1  0  0  0  0
 26 85  1  0  0  0  0
 27 29  2  0  0  0  0
 27 84  1  0  0  0  0
 28 86  1  0  0  0  0
 29 87  1  0  0  0  0
 30 68  2  0  0  0  0
 31 59  1  0  0  0  0
 31 67  1  0  0  0  0
 32 69  1  0  0  0  0
 32 72  1  0  0  0  0
 33 73  1  0  0  0  0
 33 79  2  0  0  0  0
 34 48  1  0  0  0  0
 34 74  1  0  0  0  0
 34 80  2  0  0  0  0
 35 64  1  0  0  0  0
 35 70  1  0  0  0  0
 35 81  2  0  0  0  0
 36 65  1  0  0  0  0
 36 75  1  0  0  0  0
 36 82  2  0  0  0  0
 37 71  1  0  0  0  0
 37 76  1  0  0  0  0
 37 83  2  0  0  0  0
 38 41  1  0  0  0  0
 39 48  1  0  0  0  0
 40 70  1  0  0  0  0
 41 43  1  0  0  0  0
 42 44  1  0  0  0  0
 42 45  1  0  0  0  0
 43 47  1  0  0  0  0
 44 49  1  0  0  0  0
 45 71  1  0  0  0  0
 46 49  1  0  0  0  0
 46 71  1  0  0  0  0
 47 74  1  0  0  0  0
 48 70  1  0  0  0  0
 49 69  1  0  0  0  0
 51 65  1  0  0  0  0
 52 66  1  0  0  0  0
 53 66  1  0  0  0  0
 54 66  1  0  0  0  0
 55 76  1  0  0  0  0
 56 77  1  0  0  0  0
 57 78  1  0  0  0  0
 58 85  1  0  0  0  0
 59 62  1  0  0  0  0
 60 61  1  0  0  0  0
 60 63  1  0  0  0  0
 61 76  1  0  0  0  0
 62 78  1  0  0  0  0
 63 78  1  0  0  0  0
 64 66  1  0  0  0  0
 64 75  1  0  0  0  0
 65 77  1  0  0  0  0
 68 69  1  0  0  0  0
M  CHG  2  77   1  78   1
M  ISO  4  37 100  58 101  76 100  85 101
M  END
> <Batch ID>
0052

> <Smiles>
CNC(C)C(=O)NC(C(=O)N1Cc2cc([101O:1][101CH2:1]c3cnc(CCN(C)CCC[100N:0](C)[100C:0](=O)N4CCCC(n5nc(-c6ccc(Oc7ccc(F)cc7F)cc6)c(C(N)=O)c5N)C4)c(C)c3)ccc2CC1C(=O)NC1CCCc2ccccc21)C(C)(C)C

> <Shape>
0.189

> <Color>
0.137

> <Negative vol penalty>
0.000

$$$$

  -OEChem-04052317363D

 85 93  0     1  0  0  0  0  0999 V2000
  -35.9804  -25.4507   16.4601 C   0  0  0  0  0  0  0  0  0  0  0  0
  -35.2000  -24.3033   16.5595 C   0  0  0  0  0  0  0  0  0  0  0  0
  -23.2926   -9.7864   19.8714 C   0  0  0  0  0  0  0  0  0  0  0  0
  -23.7437   -9.8731   22.2433 C   0  0  0  0  0  0  0  0  0  0  0  0
  -35.8698  -26.4531   17.4229 C   0  0  0  0  0  0  0  0  0  0  0  0
  -34.3094  -24.1571   17.6224 C   0  0  0  0  0  0  0  0  0  0  0  0
  -27.9400  -21.2916   19.2152 C   0  0  0  0  0  0  0  0  0  0  0  0
  -22.5744   -8.6042   20.0512 C   0  0  0  0  0  0  0  0  0  0  0  0
  -23.0254   -8.6910   22.4231 C   0  0  0  0  0  0  0  0  0  0  0  0
  -27.3438  -20.4413   20.1454 C   0  0  0  0  0  0  0  0  0  0  0  0
  -19.7848   -7.7527   22.6198 C   0  0  0  0  0  0  0  0  0  0  0  0
  -18.8832   -7.6993   23.6827 C   0  0  0  0  0  0  0  0  0  0  0  0
  -27.1801  -22.2734   21.7061 C   0  0  0  0  0  0  0  0  0  0  0  0
  -20.1021   -5.8373   24.6231 C   0  0  0  0  0  0  0  0  0  0  0  0
  -29.6219  -17.6258   23.2607 C   0  0  0  0  0  0  0  0  0  0  0  0
  -23.8773  -10.4208   20.9674 C   0  0  0  0  0  0  0  0  0  0  0  0
  -24.1192  -12.9566   20.8296 C   0  0  0  0  0  0  0  0  0  0  0  0
  -34.9703  -26.3234   18.4928 C   0  0  0  0  0  0  0  0  0  0  0  0
  -28.1711  -22.6389   19.5280 C   0  0  0  0  0  0  0  0  0  0  0  0
  -34.1876  -25.1580   18.6011 C   0  0  0  0  0  0  0  0  0  0  0  0
  -27.7770  -23.1393   20.7772 C   0  0  0  0  0  0  0  0  0  0  0  0
  -22.4408   -8.0566   21.3270 C   0  0  0  0  0  0  0  0  0  0  0  0
  -26.9664  -20.9314   21.3921 C   0  0  0  0  0  0  0  0  0  0  0  0
  -20.8451   -6.8484   22.5584 C   0  0  0  0  0  0  0  0  0  0  0  0
  -19.0418   -6.7416   24.6843 C   0  0  0  0  0  0  0  0  0  0  0  0
  -21.0037   -5.8907   23.5601 C   0  0  0  0  0  0  0  0  0  0  0  0
  -24.6198  -11.6417   20.7823 C   0  0  0  0  0  0  0  0  0  0  0  0
  -29.3625  -16.2751   23.3369 C   0  0  0  0  0  0  0  0  0  0  0  0
  -27.2753  -16.7222   24.1575 C   0  0  0  0  0  0  0  0  0  0  0  0
  -27.5351  -18.0729   24.0820 C   0  0  0  0  0  0  0  0  0  0  0  0
  -25.2152  -13.7499   20.5930 C   0  0  0  0  0  0  0  0  0  0  0  0
  -22.7830  -13.4195   21.0663 C   0  0  0  0  0  0  0  0  0  0  0  0
  -30.7562  -24.4703   19.7865 C   0  0  0  0  0  0  0  0  0  0  0  0
  -28.5668  -26.8324   20.1725 C   0  0  0  0  0  0  0  0  0  0  0  0
  -25.4006  -27.7284   21.0777 C   0  0  0  0  0  0  0  0  0  0  0  0
  -31.1388  -12.3888   21.3654 C   0  0  0  0  0  0  0  0  0  0  0  0
  -34.9201  -27.4124   19.5350 C   0  0  0  0  0  0  0  0  0  0  0  0
  -28.7909  -23.5494   18.5037 C   0  0  0  0  0  0  0  0  0  0  0  0
  -27.9845  -24.5826   21.1546 C   0  0  0  0  0  0  0  0  0  0  0  0
  -33.6815  -27.3472   20.4249 C   0  0  0  0  0  0  0  0  0  0  0  0
  -29.4442  -13.7474   18.3680 C   0  0  0  0  0  0  0  0  0  0  0  0
  -33.4447  -25.9193   20.9064 C   0  0  0  0  0  0  0  0  0  0  0  0
  -27.9788  -13.4033   18.6292 C   0  0  0  0  0  0  0  0  0  0  0  0
  -30.3883  -12.7572   19.0432 C   0  0  0  0  0  0  0  0  0  0  0  0
  -28.6862  -12.2554   20.7651 C   0  0  0  0  0  0  0  0  0  0  0  0
  -33.1921  -24.9738   19.7259 C   0  0  1  0  0  0  0  0  0  0  0  0
  -29.4467  -24.7819   19.1187 C   0  0  1  0  0  0  0  0  0  0  0  0
  -27.7091  -13.2606   20.1372 C   0  0  2  0  0  0  0  0  0  0  0  0
  -26.0061  -14.7121   24.9543 C   0  0  0  0  0  0  0  0  0  0  0  0
  -26.6033  -19.4067   26.0015 C   0  0  0  0  0  0  0  0  0  0  0  0
  -23.9163  -29.7367   21.3250 C   0  0  0  0  0  0  0  0  0  0  0  0
  -30.0151  -27.5822   22.7513 C   0  0  0  0  0  0  0  0  0  0  0  0
  -27.9992  -28.9103   23.4152 C   0  0  0  0  0  0  0  0  0  0  0  0
  -29.2783  -29.5288   21.3648 C   0  0  0  0  0  0  0  0  0  0  0  0
  -32.0547  -12.6897   23.6347 C   0  0  0  0  0  0  0  0  0  0  0  0
  -23.4796  -26.6998   19.0750 C   0  0  0  0  0  0  0  0  0  0  0  0
  -30.3912  -15.2836   22.9189 C   0  0  0  0  0  0  0  0  0  0  0  0
  -25.9678  -16.2090   24.6563 C   0  0  0  0  0  0  0  0  0  0  0  0
  -29.9390  -13.8249   23.0685 C   0  0  0  0  0  0  0  0  0  0  0  0
  -26.6074  -20.3954   23.6812 C   0  0  0  0  0  0  0  0  0  1  0  0
  -26.5003  -19.1042   24.5040 C   0  0  1  0  0  0  0  0  0  0  0  0
  -27.8496  -27.4430   21.3523 C   0  0  1  0  0  0  0  0  0  0  0  0
  -24.3734  -28.6183   20.4014 C   0  0  2  0  0  0  0  0  0  0  0  0
  -28.7833  -28.3384   22.2148 C   0  0  0  0  0  0  0  0  0  0  0  0
  -28.7129  -18.5490   23.6320 N   0  0  0  0  0  0  0  0  0  0  0  0
  -25.9316  -11.5979   20.5349 N   0  0  0  0  0  0  0  0  0  0  0  0
  -28.1845  -15.7991   23.7866 N   0  0  0  0  0  0  0  0  0  0  0  0
  -26.2646  -12.8952   20.4245 N   0  0  0  0  0  0  0  0  0  0  0  0
  -28.6001  -25.4317   20.1214 N   0  0  0  0  0  0  0  0  0  0  0  0
  -30.0822  -12.6083   20.4663 N   0  0  0  0  0  0  0  0  0  0  0  0
  -25.3739  -15.0882   20.5145 N   0  0  0  0  0  0  0  0  0  0  0  0
  -21.7770  -12.4700   21.2916 N   0  0  0  0  0  0  0  0  0  0  0  0
  -31.8393  -25.1280   19.2353 N   0  0  0  0  0  0  0  0  0  0  0  0
  -26.6889  -28.1397   20.8084 N   0  0  0  0  0  0  0  0  0  0  0  0
  -30.9819  -12.8824   22.6694 N   0  0  0  0  0  0  0  0  0  0  0  0
  -23.1793  -27.8206   20.0027 N   0  3  0  0  0  0  0  0  0  0  0  0
  -22.4868  -14.6384   21.0614 O   0  0  0  0  0  0  0  0  0  0  0  0
  -30.7818  -23.6920   20.7327 O   0  0  0  0  0  0  0  0  0  0  0  0
  -29.0724  -27.5711   19.3238 O   0  0  0  0  0  0  0  0  0  0  0  0
  -25.0911  -26.7671   21.7780 O   0  0  0  0  0  0  0  0  0  0  0  0
  -32.1677  -11.7943   21.0194 O   0  0  0  0  0  0  0  0  0  0  0  0
  -21.7398   -6.9032   21.5029 O   0  0  0  0  0  0  0  0  0  0  0  0
  -26.3848  -20.1035   22.3022 O   0  0  0  0  0  0  0  0  0  1  0  0
  -18.1768   -6.6915   25.7058 F   0  0  0  0  0  0  0  0  0  0  0  0
  -22.0210   -5.0200   23.5072 F   0  0  0  0  0  0  0  0  0  0  0  0
  1  2  1  0  0  0  0
  1  5  2  0  0  0  0
  2  6  2  0  0  0  0
  3  8  2  0  0  0  0
  3 16  1  0  0  0  0
  4  9  1  0  0  0  0
  4 16  2  0  0  0  0
  5 18  1  0  0  0  0
  6 20  1  0  0  0  0
  7 10  2  0  0  0  0
  7 19  1  0  0  0  0
  8 22  1  0  0  0  0
  9 22  2  0  0  0  0
 10 23  1  0  0  0  0
 11 12  2  0  0  0  0
 11 24  1  0  0  0  0
 12 25  1  0  0  0  0
 13 21  1  0  0  0  0
 13 23  2  0  0  0  0
 14 25  2  0  0  0  0
 14 26  1  0  0  0  0
 15 28  1  0  0  0  0
 15 65  2  0  0  0  0
 16 27  1  0  0  0  0
 17 27  1  0  0  0  0
 17 31  2  0  0  0  0
 17 32  1  0  0  0  0
 18 20  2  0  0  0  0
 18 37  1  0  0  0  0
 19 21  2  0  0  0  0
 19 38  1  0  0  0  0
 20 46  1  0  0  0  0
 21 39  1  0  0  0  0
 22 82  1  0  0  0  0
 23 83  1  0  0  0  0
 24 26  2  0  0  0  0
 24 82  1  0  0  0  0
 25 84  1  0  0  0  0
 26 85  1  0  0  0  0
 27 66  2  0  0  0  0
 28 57  1  0  0  0  0
 28 67  2  0  0  0  0
 29 30  2  0  0  0  0
 29 58  1  0  0  0  0
 29 67  1  0  0  0  0
 30 61  1  0  0  0  0
 30 65  1  0  0  0  0
 31 68  1  0  0  0  0
 31 71  1  0  0  0  0
 32 72  1  0  0  0  0
 32 77  2  0  0  0  0
 33 47  1  0  0  0  0
 33 73  1  0  0  0  0
 33 78  2  0  0  0  0
 34 62  1  0  0  0  0
 34 69  1  0  0  0  0
 34 79  2  0  0  0  0
 35 63  1  0  0  0  0
 35 74  1  0  0  0  0
 35 80  2  0  0  0  0
 36 70  1  0  0  0  0
 36 75  1  0  0  0  0
 36 81  2  0  0  0  0
 37 40  1  0  0  0  0
 38 47  1  0  0  0  0
 39 69  1  0  0  0  0
 40 42  1  0  0  0  0
 41 43  1  0  0  0  0
 41 44  1  0  0  0  0
 42 46  1  0  0  0  0
 43 48  1  0  0  0  0
 44 70  1  0  0  0  0
 45 48  1  0  0  0  0
 45 70  1  0  0  0  0
 46 73  1  0  0  0  0
 47 69  1  0  0  0  0
 48 68  1  0  0  0  0
 49 58  1  0  0  0  0
 50 61  1  0  0  0  0
 51 63  1  0  0  0  0
 52 64  1  0  0  0  0
 53 64  1  0  0  0  0
 54 64  1  0  0  0  0
 55 75  1  0  0  0  0
 56 76  1  0  0  0  0
 57 59  1  0  0  0  0
 59 75  1  0  0  0  0
 60 61  1  0  0  0  0
 60 83  1  0  0  0  0
 62 64  1  0  0  0  0
 62 74  1  0  0  0  0
 63 76  1  0  0  0  0
 66 68  1  0  0  0  0
M  CHG  1  76   1
M  ISO  4  36 100  60 101  75 100  83 101
M  END
> <Batch ID>
0052

> <Smiles>
CCc1nc(CC[100N:0](C)[100C:0](=O)N2CCCC(n3nc(-c4ccc(Oc5ccc(F)cc5F)cc4)c(C(N)=O)c3N)C2)cnc1C(C)[101CH2:1][101O:1]c1ccc2c(c1)CN(C(=O)C(NC(=O)C(C)NC)C(C)(C)C)C(C(=O)NC1CCCc3ccccc31)C2

> <Shape>
0.252

> <Color>
0.173

> <Negative vol penalty>
0.000

$$$$

  -OEChem-04052317363D

 84 92  0     1  0  0  0  0  0999 V2000
  -27.7847  -33.8465   26.3978 C   0  0  0  0  0  0  0  0  0  0  0  0
  -27.9879  -32.6565   25.7064 C   0  0  0  0  0  0  0  0  0  0  0  0
  -25.4075  -13.3439   20.9132 C   0  0  0  0  0  0  0  0  0  0  0  0
  -25.8079  -13.0977   18.5434 C   0  0  0  0  0  0  0  0  0  0  0  0
  -26.4903  -34.2504   26.7224 C   0  0  0  0  0  0  0  0  0  0  0  0
  -26.8969  -31.8692   25.3401 C   0  0  0  0  0  0  0  0  0  0  0  0
  -27.2231  -30.1947   20.5720 C   0  0  0  0  0  0  0  0  0  0  0  0
  -24.4335  -12.3473   20.8522 C   0  0  0  0  0  0  0  0  0  0  0  0
  -24.8340  -12.1010   18.4824 C   0  0  0  0  0  0  0  0  0  0  0  0
  -28.0729  -29.1157   20.3328 C   0  0  0  0  0  0  0  0  0  0  0  0
  -24.3300   -8.9699   20.7289 C   0  0  0  0  0  0  0  0  0  0  0  0
  -24.3422   -7.9901   21.7216 C   0  0  0  0  0  0  0  0  0  0  0  0
  -26.1741  -27.6277   20.3341 C   0  0  0  0  0  0  0  0  0  0  0  0
  -22.1092   -8.6328   22.3833 C   0  0  0  0  0  0  0  0  0  0  0  0
  -29.4512  -24.3460   18.4202 C   0  0  0  0  0  0  0  0  0  0  0  0
  -26.0946  -13.7192   19.7588 C   0  0  0  0  0  0  0  0  0  0  0  0
  -28.4755  -14.5804   20.0707 C   0  0  0  0  0  0  0  0  0  0  0  0
  -25.3822  -33.4724   26.3514 C   0  0  0  0  0  0  0  0  0  0  0  0
  -25.8412  -29.9966   20.7051 C   0  0  0  0  0  0  0  0  0  0  0  0
  -25.5866  -32.2624   25.6612 C   0  0  0  0  0  0  0  0  0  0  0  0
  -25.3086  -28.7063   20.5724 C   0  0  0  0  0  0  0  0  0  0  0  0
  -24.1468  -11.7258   19.6369 C   0  0  0  0  0  0  0  0  0  0  0  0
  -27.5488  -27.8316   20.2167 C   0  0  0  0  0  0  0  0  0  0  0  0
  -23.2075   -9.7813   20.5635 C   0  0  0  0  0  0  0  0  0  0  0  0
  -23.2318   -7.8215   22.5488 C   0  0  0  0  0  0  0  0  0  0  0  0
  -22.0971   -9.6127   21.3907 C   0  0  0  0  0  0  0  0  0  0  0  0
  -27.1004  -14.7491   19.8210 C   0  0  0  0  0  0  0  0  0  0  0  0
  -28.8426  -24.4622   19.6505 C   0  0  0  0  0  0  0  0  0  0  0  0
  -30.1416  -22.7601   20.4538 C   0  0  0  0  0  0  0  0  0  0  0  0
  -30.7496  -22.6435   19.2232 C   0  0  0  0  0  0  0  0  0  0  0  0
  -28.9914  -15.8525   20.0248 C   0  0  0  0  0  0  0  0  0  0  0  0
  -29.2200  -13.3810   20.3215 C   0  0  0  0  0  0  0  0  0  0  0  0
  -23.7221  -30.4613   23.0282 C   0  0  0  0  0  0  0  0  0  0  0  0
  -21.5971  -29.6166   20.7275 C   0  0  0  0  0  0  0  0  0  0  0  0
  -21.0012  -27.9732   17.7964 C   0  0  0  0  0  0  0  0  0  0  0  0
  -29.1276  -20.7498   17.1412 C   0  0  0  0  0  0  0  0  0  0  0  0
  -24.0050  -33.9264   26.7659 C   0  0  0  0  0  0  0  0  0  0  0  0
  -24.9351  -31.1746   20.9364 C   0  0  0  0  0  0  0  0  0  0  0  0
  -23.8301  -28.4430   20.6870 C   0  0  0  0  0  0  0  0  0  0  0  0
  -22.8792  -33.2221   26.0131 C   0  0  0  0  0  0  0  0  0  0  0  0
  -26.7013  -20.3510   19.9081 C   0  0  0  0  0  0  0  0  0  0  0  0
  -23.1261  -31.7175   25.9691 C   0  0  0  0  0  0  0  0  0  0  0  0
  -26.6564  -18.8355   20.0959 C   0  0  0  0  0  0  0  0  0  0  0  0
  -27.0498  -20.7346   18.4731 C   0  0  0  0  0  0  0  0  0  0  0  0
  -28.2645  -18.6035   18.1619 C   0  0  0  0  0  0  0  0  0  0  0  0
  -24.4270  -31.3934   25.2248 C   0  0  1  0  0  0  0  0  0  0  0  0
  -23.6007  -30.7874   21.5665 C   0  0  1  0  0  0  0  0  0  0  0  0
  -27.9617  -18.1833   19.6080 C   0  0  2  0  0  0  0  0  0  0  0  0
  -30.5213  -21.8793   21.5948 C   0  0  0  0  0  0  0  0  0  0  0  0
  -19.1579  -27.4284   16.1831 C   0  0  0  0  0  0  0  0  0  0  0  0
  -20.5281  -27.5137   22.6627 C   0  0  0  0  0  0  0  0  0  0  0  0
  -19.3916  -26.4087   20.7248 C   0  0  0  0  0  0  0  0  0  0  0  0
  -18.7678  -28.7353   21.3730 C   0  0  0  0  0  0  0  0  0  0  0  0
  -31.3228  -20.5746   16.0322 C   0  0  0  0  0  0  0  0  0  0  0  0
  -22.3622  -29.3902   15.5832 C   0  0  0  0  0  0  0  0  0  0  0  0
  -27.7715  -25.4884   19.8761 C   0  0  0  0  0  0  0  0  0  1  0  0
  -31.2265  -20.3043   18.4823 C   0  0  0  0  0  0  0  0  0  0  0  0
  -20.9955  -28.3157   20.2535 C   0  0  1  0  0  0  0  0  0  0  0  0
  -20.2756  -28.3986   16.5327 C   0  0  2  0  0  0  0  0  0  0  0  0
  -31.8154  -21.6311   18.9756 C   0  0  0  0  0  0  0  0  0  0  0  0
  -19.9489  -27.7477   21.2532 C   0  0  0  0  0  0  0  0  0  0  0  0
  -30.4156  -23.4345   18.1844 N   0  0  0  0  0  0  0  0  0  0  0  0
  -26.7639  -16.0276   19.6308 N   0  0  0  0  0  0  0  0  0  0  0  0
  -29.1770  -23.6713   20.6894 N   0  0  0  0  0  0  0  0  0  0  0  0
  -27.9350  -16.6738   19.7611 N   0  0  0  0  0  0  0  0  0  0  0  0
  -22.9859  -29.6265   20.9196 N   0  0  0  0  0  0  0  0  0  0  0  0
  -28.2708  -20.0672   18.0203 N   0  0  0  0  0  0  0  0  0  0  0  0
  -30.2411  -16.3374   20.1848 N   0  0  0  0  0  0  0  0  0  0  0  0
  -28.5340  -12.1589   20.3334 N   0  0  0  0  0  0  0  0  0  0  0  0
  -24.2294  -31.4931   23.7946 N   0  0  0  0  0  0  0  0  0  0  0  0
  -20.4678  -28.5727   18.9178 N   0  0  0  0  0  0  0  0  0  0  0  0
  -30.4968  -20.4553   17.2253 N   0  0  0  0  0  0  0  0  0  0  0  0
  -21.2245  -28.4557   15.3849 N   0  3  0  0  0  0  0  0  0  0  0  0
  -30.4542  -13.3944   20.5453 O   0  0  0  0  0  0  0  0  0  0  0  0
  -23.3793  -29.3559   23.4311 O   0  0  0  0  0  0  0  0  0  0  0  0
  -20.8628  -30.5902   20.9134 O   0  0  0  0  0  0  0  0  0  0  0  0
  -21.9441  -27.1850   17.7899 O   0  0  0  0  0  0  0  0  0  0  0  0
  -28.6945  -21.5822   16.3341 O   0  0  0  0  0  0  0  0  0  0  0  0
  -23.1967  -10.7531   19.5770 O   0  0  0  0  0  0  0  0  0  0  0  0
  -28.3761  -26.7765   19.9839 O   0  0  0  0  0  0  0  0  0  1  0  0
  -23.2430   -6.8795   23.5010 F   0  0  0  0  0  0  0  0  0  0  0  0
  -21.0153  -10.3883   21.2358 F   0  0  0  0  0  0  0  0  0  0  0  0
  -32.7357  -22.0452   18.0451 F   0  0  0  0  0  0  0  0  0  0  0  0
  -32.5610  -21.3603   20.0959 F   0  0  0  0  0  0  0  0  0  0  0  0
  1  2  1  0  0  0  0
  1  5  2  0  0  0  0
  2  6  2  0  0  0  0
  3  8  2  0  0  0  0
  3 16  1  0  0  0  0
  4  9  1  0  0  0  0
  4 16  2  0  0  0  0
  5 18  1  0  0  0  0
  6 20  1  0  0  0  0
  7 10  2  0  0  0  0
  7 19  1  0  0  0  0
  8 22  1  0  0  0  0
  9 22  2  0  0  0  0
 10 23  1  0  0  0  0
 11 12  2  0  0  0  0
 11 24  1  0  0  0  0
 12 25  1  0  0  0  0
 13 21  1  0  0  0  0
 13 23  2  0  0  0  0
 14 25  2  0  0  0  0
 14 26  1  0  0  0  0
 15 28  1  0  0  0  0
 15 62  2  0  0  0  0
 16 27  1  0  0  0  0
 17 27  1  0  0  0  0
 17 31  2  0  0  0  0
 17 32  1  0  0  0  0
 18 20  2  0  0  0  0
 18 37  1  0  0  0  0
 19 21  2  0  0  0  0
 19 38  1  0  0  0  0
 20 46  1  0  0  0  0
 21 39  1  0  0  0  0
 22 79  1  0  0  0  0
 23 80  1  0  0  0  0
 24 26  2  0  0  0  0
 24 79  1  0  0  0  0
 25 81  1  0  0  0  0
 26 82  1  0  0  0  0
 27 63  2  0  0  0  0
 28 56  1  0  0  0  0
 28 64  2  0  0  0  0
 29 30  2  0  0  0  0
 29 49  1  0  0  0  0
 29 64  1  0  0  0  0
 30 60  1  0  0  0  0
 30 62  1  0  0  0  0
 31 65  1  0  0  0  0
 31 68  1  0  0  0  0
 32 69  1  0  0  0  0
 32 74  2  0  0  0  0
 33 47  1  0  0  0  0
 33 70  1  0  0  0  0
 33 75  2  0  0  0  0
 34 58  1  0  0  0  0
 34 66  1  0  0  0  0
 34 76  2  0  0  0  0
 35 59  1  0  0  0  0
 35 71  1  0  0  0  0
 35 77  2  0  0  0  0
 36 67  1  0  0  0  0
 36 72  1  0  0  0  0
 36 78  2  0  0  0  0
 37 40  1  0  0  0  0
 38 47  1  0  0  0  0
 39 66  1  0  0  0  0
 40 42  1  0  0  0  0
 41 43  1  0  0  0  0
 41 44  1  0  0  0  0
 42 46  1  0  0  0  0
 43 48  1  0  0  0  0
 44 67  1  0  0  0  0
 45 48  1  0  0  0  0
 45 67  1  0  0  0  0
 46 70  1  0  0  0  0
 47 66  1  0  0  0  0
 48 65  1  0  0  0  0
 50 59  1  0  0  0  0
 51 61  1  0  0  0  0
 52 61  1  0  0  0  0
 53 61  1  0  0  0  0
 54 72  1  0  0  0  0
 55 73  1  0  0  0  0
 56 80  1  0  0  0  0
 57 60  1  0  0  0  0
 57 72  1  0  0  0  0
 58 61  1  0  0  0  0
 58 71  1  0  0  0  0
 59 73  1  0  0  0  0
 60 83  1  0  0  0  0
 60 84  1  0  0  0  0
 63 65  1  0  0  0  0
M  CHG  1  73   1
M  ISO  4  36 100  56 101  72 100  80 101
M  END
> <Batch ID>
0052

> <Smiles>
CNC(C)C(=O)NC(C(=O)N1Cc2cc([101O:1][101CH2:1]c3cnc(C(F)(F)C[100N:0](C)[100C:0](=O)N4CCCC(n5nc(-c6ccc(Oc7ccc(F)cc7F)cc6)c(C(N)=O)c5N)C4)c(C)n3)ccc2CC1C(=O)NC1CCCc2ccccc21)C(C)(C)C

> <Shape>
0.316

> <Color>
0.086

> <Negative vol penalty>
0.000

$$$$

  -OEChem-04052317363D

 81 89  0     1  0  0  0  0  0999 V2000
  -24.7207  -18.3868   23.4903 C   0  0  0  0  0  0  0  0  0  0  0  0
  -25.3038  -19.3883   22.7207 C   0  0  0  0  0  0  0  0  0  0  0  0
  -26.0532  -14.6332   21.7093 C   0  0  0  0  0  0  0  0  0  0  0  0
  -25.9248  -15.3826   19.4161 C   0  0  0  0  0  0  0  0  0  0  0  0
  -23.3594  -18.4405   23.7869 C   0  0  0  0  0  0  0  0  0  0  0  0
  -24.5256  -20.4436   22.2462 C   0  0  0  0  0  0  0  0  0  0  0  0
  -26.7773  -24.9399   22.8447 C   0  0  0  0  0  0  0  0  0  0  0  0
  -24.6801  -14.3878   21.7060 C   0  0  0  0  0  0  0  0  0  0  0  0
  -24.5517  -15.1372   19.4128 C   0  0  0  0  0  0  0  0  0  0  0  0
  -27.7774  -25.2774   21.9339 C   0  0  0  0  0  0  0  0  0  0  0  0
  -21.2701  -13.2236   22.1868 C   0  0  0  0  0  0  0  0  0  0  0  0
  -20.8244  -12.0235   22.7407 C   0  0  0  0  0  0  0  0  0  0  0  0
  -26.2024  -26.6428   20.7196 C   0  0  0  0  0  0  0  0  0  0  0  0
  -22.1335  -10.7921   21.1260 C   0  0  0  0  0  0  0  0  0  0  0  0
  -30.7209  -24.3510   17.9060 C   0  0  0  0  0  0  0  0  0  0  0  0
  -28.6374  -23.9247   17.3283 C   0  0  0  0  0  0  0  0  0  0  0  0
  -26.6756  -15.1307   20.5643 C   0  0  0  0  0  0  0  0  0  0  0  0
  -29.1192  -14.4865   20.2161 C   0  0  0  0  0  0  0  0  0  0  0  0
  -22.5662  -19.5021   23.3239 C   0  0  0  0  0  0  0  0  0  0  0  0
  -25.4773  -25.4435   22.6933 C   0  0  0  0  0  0  0  0  0  0  0  0
  -23.1522  -20.5109   22.5358 C   0  0  0  0  0  0  0  0  0  0  0  0
  -25.1882  -26.3122   21.6313 C   0  0  0  0  0  0  0  0  0  0  0  0
  -23.9294  -14.6398   20.5578 C   0  0  0  0  0  0  0  0  0  0  0  0
  -27.4894  -26.1267   20.8695 C   0  0  0  0  0  0  0  0  0  0  0  0
  -22.1474  -13.2080   21.1024 C   0  0  0  0  0  0  0  0  0  0  0  0
  -21.2561  -10.8078   22.2103 C   0  0  0  0  0  0  0  0  0  0  0  0
  -22.5791  -11.9923   20.5721 C   0  0  0  0  0  0  0  0  0  0  0  0
  -28.0938  -15.3849   20.5673 C   0  0  0  0  0  0  0  0  0  0  0  0
  -30.5048  -23.0006   17.7635 C   0  0  0  0  0  0  0  0  0  0  0  0
  -30.2777  -15.2048   20.3850 C   0  0  0  0  0  0  0  0  0  0  0  0
  -29.0323  -13.1246   19.7763 C   0  0  0  0  0  0  0  0  0  0  0  0
  -22.6138  -24.1517   22.2082 C   0  0  0  0  0  0  0  0  0  0  0  0
  -21.5993  -27.2073   22.6043 C   0  0  0  0  0  0  0  0  0  0  0  0
  -22.3219  -30.5400   22.4721 C   0  0  0  0  0  0  0  0  0  0  0  0
  -31.4923  -21.0670   20.2837 C   0  0  0  0  0  0  0  0  0  0  0  0
  -21.0895  -19.4922   23.6305 C   0  0  0  0  0  0  0  0  0  0  0  0
  -24.4163  -25.0912   23.6996 C   0  0  0  0  0  0  0  0  0  0  0  0
  -23.8136  -26.8959   21.4358 C   0  0  0  0  0  0  0  0  0  0  0  0
  -20.4114  -20.8410   23.4040 C   0  0  0  0  0  0  0  0  0  0  0  0
  -32.1147  -18.7976   22.9556 C   0  0  0  0  0  0  0  0  0  0  0  0
  -20.8342  -21.4325   22.0631 C   0  0  0  0  0  0  0  0  0  0  0  0
  -31.2473  -17.5846   22.6148 C   0  0  0  0  0  0  0  0  0  0  0  0
  -31.4319  -20.1069   22.5664 C   0  0  0  0  0  0  0  0  0  0  0  0
  -30.1171  -18.9657   20.8221 C   0  0  0  0  0  0  0  0  0  0  0  0
  -22.3462  -21.6849   22.0237 C   0  0  1  0  0  0  0  0  0  0  0  0
  -23.0001  -25.2520   23.1558 C   0  0  1  0  0  0  0  0  0  0  0  0
  -30.7874  -17.6193   21.1449 C   0  0  2  0  0  0  0  0  0  0  0  0
  -21.2791  -32.7968   22.8140 C   0  0  0  0  0  0  0  0  0  0  0  0
  -20.1524  -26.9410   19.9311 C   0  0  0  0  0  0  0  0  0  0  0  0
  -19.9475  -29.4356   19.8728 C   0  0  0  0  0  0  0  0  0  0  0  0
  -18.8571  -28.1388   21.7037 C   0  0  0  0  0  0  0  0  0  0  0  0
  -30.4138  -27.3197   18.0254 C   0  0  0  0  0  0  0  0  0  0  0  0
  -28.7539  -26.8778   16.2290 C   0  0  0  0  0  0  0  0  0  0  0  0
  -24.2219  -31.2184   24.6374 C   0  0  0  0  0  0  0  0  0  0  0  0
  -31.4642  -21.9010   17.9464 C   0  0  0  0  0  0  0  0  0  0  0  0
  -28.0530  -26.7347   18.6405 C   0  0  0  0  0  0  0  0  0  1  0  0
  -21.3732  -28.3859   21.6884 C   0  0  1  0  0  0  0  0  0  0  0  0
  -22.0663  -31.6660   23.4577 C   0  0  2  0  0  0  0  0  0  0  0  0
  -20.1081  -28.2130   20.8013 C   0  0  0  0  0  0  0  0  0  0  0  0
  -29.2013  -26.4376   17.6419 C   0  0  0  0  0  0  0  0  0  0  0  0
  -29.2059  -22.7419   17.4034 N   0  0  0  0  0  0  0  0  0  0  0  0
  -28.5599  -16.5823   20.9320 N   0  0  0  0  0  0  0  0  0  0  0  0
  -29.5158  -24.9299   17.6236 N   0  0  0  0  0  0  0  0  0  0  0  0
  -29.8909  -16.4413   20.8109 N   0  0  0  0  0  0  0  0  0  0  0  0
  -22.8087  -26.5165   22.4426 N   0  0  0  0  0  0  0  0  0  0  0  0
  -31.0218  -20.0756   21.1605 N   0  0  0  0  0  0  0  0  0  0  0  0
  -31.5794  -14.8928   20.2094 N   0  0  0  0  0  0  0  0  0  0  0  0
  -27.7638  -12.5407   19.6573 N   0  0  0  0  0  0  0  0  0  0  0  0
  -22.6775  -22.8863   22.7596 N   0  0  0  0  0  0  0  0  0  0  0  0
  -21.3467  -29.5678   22.5432 N   0  0  0  0  0  0  0  0  0  0  0  0
  -31.0606  -20.9599   18.9673 N   0  0  0  0  0  0  0  0  0  0  0  0
  -23.3564  -32.2178   23.9597 N   0  3  0  0  0  0  0  0  0  0  0  0
  -30.0502  -12.4406   19.5130 O   0  0  0  0  0  0  0  0  0  0  0  0
  -22.2811  -24.4304   21.0622 O   0  0  0  0  0  0  0  0  0  0  0  0
  -20.7379  -26.9148   23.4373 O   0  0  0  0  0  0  0  0  0  0  0  0
  -23.2879  -30.5263   21.7124 O   0  0  0  0  0  0  0  0  0  0  0  0
  -32.2458  -21.9769   20.6459 O   0  0  0  0  0  0  0  0  0  0  0  0
  -22.5895  -14.4003   20.5541 O   0  0  0  0  0  0  0  0  0  0  0  0
  -28.4636  -26.4572   19.9786 O   0  0  0  0  0  0  0  0  0  1  0  0
  -20.8293   -9.6555   22.7433 F   0  0  0  0  0  0  0  0  0  0  0  0
  -23.4228  -11.9709   19.5312 F   0  0  0  0  0  0  0  0  0  0  0  0
  1  2  1  0  0  0  0
  1  5  2  0  0  0  0
  2  6  2  0  0  0  0
  3  8  2  0  0  0  0
  3 17  1  0  0  0  0
  4  9  1  0  0  0  0
  4 17  2  0  0  0  0
  5 19  1  0  0  0  0
  6 21  1  0  0  0  0
  7 10  2  0  0  0  0
  7 20  1  0  0  0  0
  8 23  1  0  0  0  0
  9 23  2  0  0  0  0
 10 24  1  0  0  0  0
 11 12  2  0  0  0  0
 11 25  1  0  0  0  0
 12 26  1  0  0  0  0
 13 22  1  0  0  0  0
 13 24  2  0  0  0  0
 14 26  2  0  0  0  0
 14 27  1  0  0  0  0
 15 29  2  0  0  0  0
 15 63  1  0  0  0  0
 16 61  2  0  0  0  0
 16 63  1  0  0  0  0
 17 28  1  0  0  0  0
 18 28  1  0  0  0  0
 18 30  2  0  0  0  0
 18 31  1  0  0  0  0
 19 21  2  0  0  0  0
 19 36  1  0  0  0  0
 20 22  2  0  0  0  0
 20 37  1  0  0  0  0
 21 45  1  0  0  0  0
 22 38  1  0  0  0  0
 23 78  1  0  0  0  0
 24 79  1  0  0  0  0
 25 27  2  0  0  0  0
 25 78  1  0  0  0  0
 26 80  1  0  0  0  0
 27 81  1  0  0  0  0
 28 62  2  0  0  0  0
 29 55  1  0  0  0  0
 29 61  1  0  0  0  0
 30 64  1  0  0  0  0
 30 67  1  0  0  0  0
 31 68  1  0  0  0  0
 31 73  2  0  0  0  0
 32 46  1  0  0  0  0
 32 69  1  0  0  0  0
 32 74  2  0  0  0  0
 33 57  1  0  0  0  0
 33 65  1  0  0  0  0
 33 75  2  0  0  0  0
 34 58  1  0  0  0  0
 34 70  1  0  0  0  0
 34 76  2  0  0  0  0
 35 66  1  0  0  0  0
 35 71  1  0  0  0  0
 35 77  2  0  0  0  0
 36 39  1  0  0  0  0
 37 46  1  0  0  0  0
 38 65  1  0  0  0  0
 39 41  1  0  0  0  0
 40 42  1  0  0  0  0
 40 43  1  0  0  0  0
 41 45  1  0  0  0  0
 42 47  1  0  0  0  0
 43 66  1  0  0  0  0
 44 47  1  0  0  0  0
 44 66  1  0  0  0  0
 45 69  1  0  0  0  0
 46 65  1  0  0  0  0
 47 64  1  0  0  0  0
 48 58  1  0  0  0  0
 49 59  1  0  0  0  0
 50 59  1  0  0  0  0
 51 59  1  0  0  0  0
 52 60  1  0  0  0  0
 53 60  1  0  0  0  0
 54 72  1  0  0  0  0
 55 71  1  0  0  0  0
 56 60  1  0  0  0  0
 56 79  1  0  0  0  0
 57 59  1  0  0  0  0
 57 70  1  0  0  0  0
 58 72  1  0  0  0  0
 60 63  1  0  0  0  0
 62 64  1  0  0  0  0
M  CHG  1  72   1
M  ISO  4  35 100  56 101  71 100  79 101
M  END
> <Batch ID>
0052

> <Smiles>
CNC(C)C(=O)NC(C(=O)N1Cc2cc([101O:1][101CH2:1]C(C)(C)n3cnc(C[100NH:0][100C:0](=O)N4CCCC(n5nc(-c6ccc(Oc7ccc(F)cc7F)cc6)c(C(N)=O)c5N)C4)c3)ccc2CC1C(=O)NC1CCCc2ccccc21)C(C)(C)C

> <Shape>
0.223

> <Color>
0.071

> <Negative vol penalty>
0.000

$$$$

  -OEChem-04052317363D

 82 90  0     1  0  0  0  0  0999 V2000
  -16.6168  -28.7790   23.9547 C   0  0  0  0  0  0  0  0  0  0  0  0
  -17.0940  -28.4192   22.6984 C   0  0  0  0  0  0  0  0  0  0  0  0
  -25.4735  -16.4821   21.0754 C   0  0  0  0  0  0  0  0  0  0  0  0
  -25.6493  -16.2342   18.6786 C   0  0  0  0  0  0  0  0  0  0  0  0
  -17.3106  -29.7146   24.7210 C   0  0  0  0  0  0  0  0  0  0  0  0
  -18.2648  -28.9957   22.2072 C   0  0  0  0  0  0  0  0  0  0  0  0
  -22.4876  -26.3141   18.6741 C   0  0  0  0  0  0  0  0  0  0  0  0
  -24.7276  -15.3054   21.1425 C   0  0  0  0  0  0  0  0  0  0  0  0
  -24.9033  -15.0574   18.7457 C   0  0  0  0  0  0  0  0  0  0  0  0
  -22.7151  -26.3421   17.2988 C   0  0  0  0  0  0  0  0  0  0  0  0
  -23.3520  -11.7960   18.3276 C   0  0  0  0  0  0  0  0  0  0  0  0
  -23.8026  -10.6990   17.5934 C   0  0  0  0  0  0  0  0  0  0  0  0
  -24.3484  -28.0897   17.6106 C   0  0  0  0  0  0  0  0  0  0  0  0
  -25.8768  -10.7218   18.8320 C   0  0  0  0  0  0  0  0  0  0  0  0
  -26.9293  -25.1234   14.0391 C   0  0  0  0  0  0  0  0  0  0  0  0
  -27.8957  -27.0973   14.2013 C   0  0  0  0  0  0  0  0  0  0  0  0
  -25.9343  -16.9466   19.8435 C   0  0  0  0  0  0  0  0  0  0  0  0
  -28.1037  -18.2887   19.8628 C   0  0  0  0  0  0  0  0  0  0  0  0
  -18.4957  -30.2957   24.2430 C   0  0  0  0  0  0  0  0  0  0  0  0
  -23.1821  -27.1828   19.5282 C   0  0  0  0  0  0  0  0  0  0  0  0
  -18.9744  -29.9410   22.9672 C   0  0  0  0  0  0  0  0  0  0  0  0
  -24.1298  -28.0690   18.9966 C   0  0  0  0  0  0  0  0  0  0  0  0
  -24.4425  -14.5931   19.9776 C   0  0  0  0  0  0  0  0  0  0  0  0
  -23.6435  -27.2319   16.7666 C   0  0  0  0  0  0  0  0  0  0  0  0
  -24.1639  -12.3560   19.3140 C   0  0  0  0  0  0  0  0  0  0  0  0
  -25.0649  -10.1619   17.8456 C   0  0  0  0  0  0  0  0  0  0  0  0
  -25.4262  -11.8189   19.5662 C   0  0  0  0  0  0  0  0  0  0  0  0
  -26.7045  -18.1624   19.7735 C   0  0  0  0  0  0  0  0  0  0  0  0
  -26.0363  -26.1416   13.8016 C   0  0  0  0  0  0  0  0  0  0  0  0
  -28.3353  -19.6368   19.7395 C   0  0  0  0  0  0  0  0  0  0  0  0
  -29.1046  -17.2777   20.0412 C   0  0  0  0  0  0  0  0  0  0  0  0
  -22.3459  -29.5183   21.5156 C   0  0  0  0  0  0  0  0  0  0  0  0
  -25.4964  -29.4625   22.2858 C   0  0  0  0  0  0  0  0  0  0  0  0
  -28.6902  -28.6857   21.3673 C   0  0  0  0  0  0  0  0  0  0  0  0
  -27.3688  -24.5324   17.2405 C   0  0  0  0  0  0  0  0  0  0  0  0
  -19.1854  -31.3376   25.0876 C   0  0  0  0  0  0  0  0  0  0  0  0
  -22.9447  -27.1216   21.0122 C   0  0  0  0  0  0  0  0  0  0  0  0
  -24.9164  -29.0081   19.8728 C   0  0  0  0  0  0  0  0  0  0  0  0
  -20.6202  -31.6229   24.6516 C   0  0  0  0  0  0  0  0  0  0  0  0
  -25.1309  -23.5497   19.8294 C   0  0  0  0  0  0  0  0  0  0  0  0
  -20.6928  -31.8020   23.1385 C   0  0  0  0  0  0  0  0  0  0  0  0
  -25.4519  -22.0701   20.0483 C   0  0  0  0  0  0  0  0  0  0  0  0
  -25.2385  -23.9386   18.3566 C   0  0  0  0  0  0  0  0  0  0  0  0
  -26.8441  -22.1165   17.9368 C   0  0  0  0  0  0  0  0  0  0  0  0
  -20.2542  -30.5258   22.4102 C   0  0  1  0  0  0  0  0  0  0  0  0
  -23.3348  -28.4082   21.7332 C   0  0  1  0  0  0  0  0  0  0  0  0
  -26.8034  -21.6898   19.4142 C   0  0  2  0  0  0  0  0  0  0  0  0
  -31.0579  -28.7909   22.1920 C   0  0  0  0  0  0  0  0  0  0  0  0
  -25.5631  -32.4571   21.7049 C   0  0  0  0  0  0  0  0  0  0  0  0
  -28.0610  -32.3130   21.6133 C   0  0  0  0  0  0  0  0  0  0  0  0
  -26.8580  -31.7576   23.7269 C   0  0  0  0  0  0  0  0  0  0  0  0
  -29.5371  -23.7115   13.9692 C   0  0  0  0  0  0  0  0  0  0  0  0
  -30.5250  -25.9856   14.0610 C   0  0  0  0  0  0  0  0  0  0  0  0
  -28.9869  -25.7438   21.2424 C   0  0  0  0  0  0  0  0  0  0  0  0
  -24.5687  -26.0372   13.4649 C   0  0  0  0  0  0  0  0  0  0  0  0
  -29.5514  -24.9727   16.1443 C   0  0  0  0  0  0  0  0  0  0  0  0
  -23.6868  -26.0405   14.7088 C   0  0  0  0  0  0  0  0  0  1  0  0
  -26.7348  -30.1574   21.7733 C   0  0  1  0  0  0  0  0  0  0  0  0
  -29.7967  -27.9464   22.0976 C   0  0  2  0  0  0  0  0  0  0  0  0
  -26.7882  -31.6551   22.1876 C   0  0  0  0  0  0  0  0  0  0  0  0
  -29.3705  -25.1121   14.6081 C   0  0  0  0  0  0  0  0  0  0  0  0
  -26.6442  -27.3678   13.9038 N   0  0  0  0  0  0  0  0  0  0  0  0
  -26.0903  -19.3367   19.6065 N   0  0  0  0  0  0  0  0  0  0  0  0
  -28.1162  -25.7511   14.2932 N   0  0  0  0  0  0  0  0  0  0  0  0
  -27.1085  -20.2137   19.5900 N   0  0  0  0  0  0  0  0  0  0  0  0
  -24.6440  -28.9149   21.3166 N   0  0  0  0  0  0  0  0  0  0  0  0
  -26.5440  -23.5519   17.8161 N   0  0  0  0  0  0  0  0  0  0  0  0
  -29.4667  -20.3733   19.7455 N   0  0  0  0  0  0  0  0  0  0  0  0
  -28.6934  -15.9422   20.1500 N   0  0  0  0  0  0  0  0  0  0  0  0
  -21.3139  -29.5406   22.4343 N   0  0  0  0  0  0  0  0  0  0  0  0
  -27.8689  -29.3675   22.2403 N   0  0  0  0  0  0  0  0  0  0  0  0
  -28.5918  -24.0822   16.7582 N   0  0  0  0  0  0  0  0  0  0  0  0
  -30.1311  -26.6804   21.3860 N   0  3  0  0  0  0  0  0  0  0  0  0
  -30.3261  -17.5522   20.1188 O   0  0  0  0  0  0  0  0  0  0  0  0
  -22.5079  -30.2978   20.5841 O   0  0  0  0  0  0  0  0  0  0  0  0
  -25.2966  -29.4013   23.5015 O   0  0  0  0  0  0  0  0  0  0  0  0
  -28.5688  -28.6639   20.1445 O   0  0  0  0  0  0  0  0  0  0  0  0
  -27.0420  -25.7218   17.1669 O   0  0  0  0  0  0  0  0  0  0  0  0
  -23.7149  -13.4447   20.0427 O   0  0  0  0  0  0  0  0  0  0  0  0
  -23.8670  -27.2618   15.4246 O   0  0  0  0  0  0  0  0  0  1  0  0
  -25.4968   -9.1074   17.1414 F   0  0  0  0  0  0  0  0  0  0  0  0
  -26.2102  -12.3518   20.5134 F   0  0  0  0  0  0  0  0  0  0  0  0
  1  2  1  0  0  0  0
  1  5  2  0  0  0  0
  2  6  2  0  0  0  0
  3  8  2  0  0  0  0
  3 17  1  0  0  0  0
  4  9  1  0  0  0  0
  4 17  2  0  0  0  0
  5 19  1  0  0  0  0
  6 21  1  0  0  0  0
  7 10  2  0  0  0  0
  7 20  1  0  0  0  0
  8 23  1  0  0  0  0
  9 23  2  0  0  0  0
 10 24  1  0  0  0  0
 11 12  2  0  0  0  0
 11 25  1  0  0  0  0
 12 26  1  0  0  0  0
 13 22  1  0  0  0  0
 13 24  2  0  0  0  0
 14 26  2  0  0  0  0
 14 27  1  0  0  0  0
 15 29  2  0  0  0  0
 15 64  1  0  0  0  0
 16 62  2  0  0  0  0
 16 64  1  0  0  0  0
 17 28  1  0  0  0  0
 18 28  1  0  0  0  0
 18 30  2  0  0  0  0
 18 31  1  0  0  0  0
 19 21  2  0  0  0  0
 19 36  1  0  0  0  0
 20 22  2  0  0  0  0
 20 37  1  0  0  0  0
 21 45  1  0  0  0  0
 22 38  1  0  0  0  0
 23 79  1  0  0  0  0
 24 80  1  0  0  0  0
 25 27  2  0  0  0  0
 25 79  1  0  0  0  0
 26 81  1  0  0  0  0
 27 82  1  0  0  0  0
 28 63  2  0  0  0  0
 29 55  1  0  0  0  0
 29 62  1  0  0  0  0
 30 65  1  0  0  0  0
 30 68  1  0  0  0  0
 31 69  1  0  0  0  0
 31 74  2  0  0  0  0
 32 46  1  0  0  0  0
 32 70  1  0  0  0  0
 32 75  2  0  0  0  0
 33 58  1  0  0  0  0
 33 66  1  0  0  0  0
 33 76  2  0  0  0  0
 34 59  1  0  0  0  0
 34 71  1  0  0  0  0
 34 77  2  0  0  0  0
 35 67  1  0  0  0  0
 35 72  1  0  0  0  0
 35 78  2  0  0  0  0
 36 39  1  0  0  0  0
 37 46  1  0  0  0  0
 38 66  1  0  0  0  0
 39 41  1  0  0  0  0
 40 42  1  0  0  0  0
 40 43  1  0  0  0  0
 41 45  1  0  0  0  0
 42 47  1  0  0  0  0
 43 67  1  0  0  0  0
 44 47  1  0  0  0  0
 44 67  1  0  0  0  0
 45 70  1  0  0  0  0
 46 66  1  0  0  0  0
 47 65  1  0  0  0  0
 48 59  1  0  0  0  0
 49 60  1  0  0  0  0
 50 60  1  0  0  0  0
 51 60  1  0  0  0  0
 52 61  1  0  0  0  0
 53 61  1  0  0  0  0
 54 73  1  0  0  0  0
 55 57  1  0  0  0  0
 56 61  1  0  0  0  0
 56 72  1  0  0  0  0
 57 80  1  0  0  0  0
 58 60  1  0  0  0  0
 58 71  1  0  0  0  0
 59 73  1  0  0  0  0
 61 64  1  0  0  0  0
 63 65  1  0  0  0  0
M  CHG  1  73   1
M  ISO  4  35 100  57 101  72 100  80 101
M  END
> <Batch ID>
0052

> <Smiles>
CNC(C)C(=O)NC(C(=O)N1Cc2cc([101O:1][101CH2:1]Cc3cn(C(C)(C)C[100NH:0][100C:0](=O)N4CCCC(n5nc(-c6ccc(Oc7ccc(F)cc7F)cc6)c(C(N)=O)c5N)C4)cn3)ccc2CC1C(=O)NC1CCCc2ccccc21)C(C)(C)C

> <Shape>
0.209

> <Color>
0.074

> <Negative vol penalty>
0.000

$$$$

  -OEChem-04052317363D

 87 95  0     1  0  0  0  0  0999 V2000
  -28.1737  -34.5471   25.3816 C   0  0  0  0  0  0  0  0  0  0  0  0
  -28.3061  -33.2594   24.8721 C   0  0  0  0  0  0  0  0  0  0  0  0
  -25.4199  -16.4827   20.1751 C   0  0  0  0  0  0  0  0  0  0  0  0
  -26.0432  -16.1526   17.8643 C   0  0  0  0  0  0  0  0  0  0  0  0
  -26.9143  -35.0298   25.7348 C   0  0  0  0  0  0  0  0  0  0  0  0
  -27.1791  -32.4531   24.7165 C   0  0  0  0  0  0  0  0  0  0  0  0
  -27.1096  -30.0507   20.2591 C   0  0  0  0  0  0  0  0  0  0  0  0
  -24.6668  -15.3093   20.1397 C   0  0  0  0  0  0  0  0  0  0  0  0
  -25.2901  -14.9790   17.8289 C   0  0  0  0  0  0  0  0  0  0  0  0
  -27.9232  -28.9261   20.1291 C   0  0  0  0  0  0  0  0  0  0  0  0
  -21.6417  -14.3252   18.9974 C   0  0  0  0  0  0  0  0  0  0  0  0
  -20.3664  -14.3572   19.5615 C   0  0  0  0  0  0  0  0  0  0  0  0
  -26.0100  -27.5059   20.5058 C   0  0  0  0  0  0  0  0  0  0  0  0
  -21.0105  -12.6231   21.1157 C   0  0  0  0  0  0  0  0  0  0  0  0
  -28.6904  -21.2319   14.1919 C   0  0  0  0  0  0  0  0  0  0  0  0
  -29.7631  -20.5869   14.7399 C   0  0  0  0  0  0  0  0  0  0  0  0
  -26.1081  -16.9044   19.0374 C   0  0  0  0  0  0  0  0  0  0  0  0
  -28.2439  -18.2457   19.4209 C   0  0  0  0  0  0  0  0  0  0  0  0
  -25.7701  -34.2325   25.5744 C   0  0  0  0  0  0  0  0  0  0  0  0
  -25.7397  -29.9114   20.5246 C   0  0  0  0  0  0  0  0  0  0  0  0
  -25.9033  -32.9251   25.0691 C   0  0  0  0  0  0  0  0  0  0  0  0
  -25.1806  -28.6303   20.6361 C   0  0  0  0  0  0  0  0  0  0  0  0
  -24.6018  -14.5574   18.9666 C   0  0  0  0  0  0  0  0  0  0  0  0
  -27.3740  -27.6535   20.2554 C   0  0  0  0  0  0  0  0  0  0  0  0
  -22.6013  -13.4421   19.4923 C   0  0  0  0  0  0  0  0  0  0  0  0
  -20.0508  -13.5062   20.6207 C   0  0  0  0  0  0  0  0  0  0  0  0
  -22.2857  -12.5911   20.5515 C   0  0  0  0  0  0  0  0  0  0  0  0
  -26.8858  -18.1169   19.0733 C   0  0  0  0  0  0  0  0  0  0  0  0
  -28.5038  -19.5888   19.2983 C   0  0  0  0  0  0  0  0  0  0  0  0
  -29.4221  -22.4462   15.8920 C   0  0  0  0  0  0  0  0  0  0  0  0
  -29.1862  -17.2412   19.8191 C   0  0  0  0  0  0  0  0  0  0  0  0
  -23.8146  -30.7858   22.8980 C   0  0  0  0  0  0  0  0  0  0  0  0
  -21.5054  -29.6491   20.9238 C   0  0  0  0  0  0  0  0  0  0  0  0
  -27.0086  -24.0795   15.9299 C   0  0  0  0  0  0  0  0  0  0  0  0
  -20.6602  -27.5866   18.3395 C   0  0  0  0  0  0  0  0  0  0  0  0
  -24.4357  -34.7808   26.0144 C   0  0  0  0  0  0  0  0  0  0  0  0
  -24.8707  -31.1340   20.6354 C   0  0  0  0  0  0  0  0  0  0  0  0
  -23.7120  -28.4263   20.9009 C   0  0  0  0  0  0  0  0  0  0  0  0
  -23.2451  -33.9974   25.4677 C   0  0  0  0  0  0  0  0  0  0  0  0
  -25.7578  -23.6898   19.2651 C   0  0  0  0  0  0  0  0  0  0  0  0
  -23.4670  -32.4983   25.6418 C   0  0  0  0  0  0  0  0  0  0  0  0
  -26.0237  -22.2180   19.5786 C   0  0  0  0  0  0  0  0  0  0  0  0
  -25.3978  -23.8918   17.7965 C   0  0  0  0  0  0  0  0  0  0  0  0
  -26.6775  -21.8741   17.1538 C   0  0  0  0  0  0  0  0  0  0  0  0
  -24.7014  -32.0291   24.8624 C   0  0  1  0  0  0  0  0  0  0  0  0
  -23.5843  -30.8840   21.4165 C   0  0  1  0  0  0  0  0  0  0  0  0
  -27.0747  -21.6299   18.6205 C   0  0  2  0  0  0  0  0  0  0  0  0
  -25.0623  -23.7068   13.7153 C   0  0  0  0  0  0  0  0  0  0  0  0
  -28.4727  -23.8895   12.3398 C   0  0  0  0  0  0  0  0  0  0  0  0
  -18.6895  -26.8455   16.9740 C   0  0  0  0  0  0  0  0  0  0  0  0
  -29.3378  -24.7787   22.1623 C   0  0  0  0  0  0  0  0  0  0  0  0
  -20.5615  -27.9005   23.2393 C   0  0  0  0  0  0  0  0  0  0  0  0
  -19.2623  -26.5377   21.5891 C   0  0  0  0  0  0  0  0  0  0  0  0
  -18.7231  -28.9521   21.9093 C   0  0  0  0  0  0  0  0  0  0  0  0
  -21.8641  -28.6071   15.8359 C   0  0  0  0  0  0  0  0  0  0  0  0
  -29.5767  -23.5388   16.9196 C   0  0  0  0  0  0  0  0  0  0  0  0
  -26.1685  -22.7209   14.0880 C   0  0  0  0  0  0  0  0  0  0  0  0
  -27.9679  -24.4358   13.6743 C   0  0  0  0  0  0  0  0  0  0  0  0
  -30.8761  -23.4494   17.7307 C   0  0  0  0  0  0  0  0  0  0  0  0
  -31.0426  -24.5053   18.8191 C   0  0  0  0  0  0  0  0  0  0  0  0
  -29.5319  -26.6894   20.5201 C   0  0  0  0  0  0  0  0  0  1  0  0
  -20.8507  -28.3064   20.7059 C   0  0  1  0  0  0  0  0  0  0  0  0
  -19.8444  -27.8291   17.0825 C   0  0  2  0  0  0  0  0  0  0  0  0
  -30.0931  -25.3457   20.9711 C   0  0  2  0  0  0  0  0  0  0  0  0
  -27.4625  -23.3606   14.6844 C   0  0  0  0  0  0  0  0  0  0  0  0
  -19.8775  -27.9277   21.8578 C   0  0  0  0  0  0  0  0  0  0  0  0
  -26.3223  -19.2849   18.7538 N   0  0  0  0  0  0  0  0  0  0  0  0
  -28.5016  -22.3788   14.9248 N   0  0  0  0  0  0  0  0  0  0  0  0
  -27.3312  -20.1606   18.9004 N   0  0  0  0  0  0  0  0  0  0  0  0
  -30.1959  -21.3607   15.7896 N   0  3  0  0  0  0  0  0  0  0  0  0
  -22.9049  -29.6530   21.0075 N   0  0  0  0  0  0  0  0  0  0  0  0
  -26.4092  -23.2997   16.9192 N   0  0  0  0  0  0  0  0  0  0  0  0
  -29.6186  -20.3247   19.4931 N   0  0  0  0  0  0  0  0  0  0  0  0
  -28.7528  -15.9104   19.8932 N   0  0  0  0  0  0  0  0  0  0  0  0
  -24.3943  -31.9106   23.4531 N   0  0  0  0  0  0  0  0  0  0  0  0
  -20.2242  -28.3664   19.3898 N   0  0  0  0  0  0  0  0  0  0  0  0
  -20.7016  -27.6828   15.8723 N   0  3  0  0  0  0  0  0  0  0  0  0
  -29.9728  -24.3792   19.8414 N   0  3  0  0  0  0  0  0  0  0  0  0
  -30.3730  -17.5178   20.1168 O   0  0  0  0  0  0  0  0  0  0  0  0
  -23.4891  -29.7656   23.4938 O   0  0  0  0  0  0  0  0  0  0  0  0
  -20.8013  -30.6584   21.0091 O   0  0  0  0  0  0  0  0  0  0  0  0
  -27.1852  -25.2972   16.0203 O   0  0  0  0  0  0  0  0  0  0  0  0
  -21.5888  -26.7828   18.3861 O   0  0  0  0  0  0  0  0  0  0  0  0
  -23.8672  -13.4121   18.9317 O   0  0  0  0  0  0  0  0  0  0  0  0
  -28.1660  -26.5540   20.1297 O   0  0  0  0  0  0  0  0  0  1  0  0
  -18.8266  -13.5381   21.1634 F   0  0  0  0  0  0  0  0  0  0  0  0
  -23.2039  -11.7415   21.0321 F   0  0  0  0  0  0  0  0  0  0  0  0
  1  2  1  0  0  0  0
  1  5  2  0  0  0  0
  2  6  2  0  0  0  0
  3  8  2  0  0  0  0
  3 17  1  0  0  0  0
  4  9  1  0  0  0  0
  4 17  2  0  0  0  0
  5 19  1  0  0  0  0
  6 21  1  0  0  0  0
  7 10  2  0  0  0  0
  7 20  1  0  0  0  0
  8 23  1  0  0  0  0
  9 23  2  0  0  0  0
 10 24  1  0  0  0  0
 11 12  2  0  0  0  0
 11 25  1  0  0  0  0
 12 26  1  0  0  0  0
 13 22  1  0  0  0  0
 13 24  2  0  0  0  0
 14 26  2  0  0  0  0
 14 27  1  0  0  0  0
 15 16  2  0  0  0  0
 15 68  1  0  0  0  0
 16 70  1  0  0  0  0
 17 28  1  0  0  0  0
 18 28  1  0  0  0  0
 18 29  2  0  0  0  0
 18 31  1  0  0  0  0
 19 21  2  0  0  0  0
 19 36  1  0  0  0  0
 20 22  2  0  0  0  0
 20 37  1  0  0  0  0
 21 45  1  0  0  0  0
 22 38  1  0  0  0  0
 23 84  1  0  0  0  0
 24 85  1  0  0  0  0
 25 27  2  0  0  0  0
 25 84  1  0  0  0  0
 26 86  1  0  0  0  0
 27 87  1  0  0  0  0
 28 67  2  0  0  0  0
 29 69  1  0  0  0  0
 29 73  1  0  0  0  0
 30 56  1  0  0  0  0
 30 68  1  0  0  0  0
 30 70  2  0  0  0  0
 31 74  1  0  0  0  0
 31 79  2  0  0  0  0
 32 46  1  0  0  0  0
 32 75  1  0  0  0  0
 32 80  2  0  0  0  0
 33 62  1  0  0  0  0
 33 71  1  0  0  0  0
 33 81  2  0  0  0  0
 34 65  1  0  0  0  0
 34 72  1  0  0  0  0
 34 82  2  0  0  0  0
 35 63  1  0  0  0  0
 35 76  1  0  0  0  0
 35 83  2  0  0  0  0
 36 39  1  0  0  0  0
 37 46  1  0  0  0  0
 38 71  1  0  0  0  0
 39 41  1  0  0  0  0
 40 42  1  0  0  0  0
 40 43  1  0  0  0  0
 41 45  1  0  0  0  0
 42 47  1  0  0  0  0
 43 72  1  0  0  0  0
 44 47  1  0  0  0  0
 44 72  1  0  0  0  0
 45 75  1  0  0  0  0
 46 71  1  0  0  0  0
 47 69  1  0  0  0  0
 48 57  1  0  0  0  0
 49 58  1  0  0  0  0
 50 63  1  0  0  0  0
 51 64  1  0  0  0  0
 52 66  1  0  0  0  0
 53 66  1  0  0  0  0
 54 66  1  0  0  0  0
 55 77  1  0  0  0  0
 56 59  1  0  0  0  0
 57 65  1  0  0  0  0
 58 65  1  0  0  0  0
 59 60  1  0  0  0  0
 60 78  1  0  0  0  0
 61 64  1  0  0  0  0
 61 85  1  0  0  0  0
 62 66  1  0  0  0  0
 62 76  1  0  0  0  0
 63 77  1  0  0  0  0
 64 78  1  0  0  0  0
 65 68  1  0  0  0  0
 67 69  1  0  0  0  0
M  CHG  3  70   1  77   1  78   1
M  ISO  4  34 100  61 101  65 100  85 101
M  END
> <Batch ID>
0052

> <Smiles>
CC[100C:0](CC)([100C:0](=O)N1CCCC(n2nc(-c3ccc(Oc4ccc(F)cc4F)cc3)c(C(N)=O)c2N)C1)n1ccnc1CCCNC(C)[101CH2:1][101O:1]c1ccc2c(c1)CN(C(=O)C(NC(=O)C(C)NC)C(C)(C)C)C(C(=O)NC1CCCc3ccccc31)C2

> <Shape>
0.243

> <Color>
0.078

> <Negative vol penalty>
0.000

$$$$

  -OEChem-04052317363D

 82 90  0     1  0  0  0  0  0999 V2000
  -24.9087  -24.2959   18.6502 C   0  0  0  0  0  0  0  0  0  0  0  0
  -25.6669  -23.1378   18.5205 C   0  0  0  0  0  0  0  0  0  0  0  0
  -22.1606  -28.6792   21.9208 C   0  0  0  0  0  0  0  0  0  0  0  0
  -22.8373  -26.9500   23.4665 C   0  0  0  0  0  0  0  0  0  0  0  0
  -23.8105  -24.3131   19.5074 C   0  0  0  0  0  0  0  0  0  0  0  0
  -25.3202  -21.9930   19.2389 C   0  0  0  0  0  0  0  0  0  0  0  0
  -27.8191  -17.8776   18.2276 C   0  0  0  0  0  0  0  0  0  0  0  0
  -20.8229  -28.3465   22.1343 C   0  0  0  0  0  0  0  0  0  0  0  0
  -21.4996  -26.6174   23.6801 C   0  0  0  0  0  0  0  0  0  0  0  0
  -29.1470  -17.6894   18.6082 C   0  0  0  0  0  0  0  0  0  0  0  0
  -17.2144  -28.1921   22.5469 C   0  0  0  0  0  0  0  0  0  0  0  0
  -16.3101  -29.2356   22.7436 C   0  0  0  0  0  0  0  0  0  0  0  0
  -28.4222  -16.2511   20.4040 C   0  0  0  0  0  0  0  0  0  0  0  0
  -17.5566  -29.9496   24.6862 C   0  0  0  0  0  0  0  0  0  0  0  0
  -32.5392  -22.4125   21.3191 C   0  0  0  0  0  0  0  0  0  0  0  0
  -30.7526  -22.5702   22.8156 C   0  0  0  0  0  0  0  0  0  0  0  0
  -23.1678  -27.9809   22.5869 C   0  0  0  0  0  0  0  0  0  0  0  0
  -25.3173  -29.2627   23.0811 C   0  0  0  0  0  0  0  0  0  0  0  0
  -23.4582  -23.1713   20.2457 C   0  0  0  0  0  0  0  0  0  0  0  0
  -26.7803  -17.2617   18.9403 C   0  0  0  0  0  0  0  0  0  0  0  0
  -24.2011  -21.9832   20.0910 C   0  0  0  0  0  0  0  0  0  0  0  0
  -27.0821  -16.4310   20.0289 C   0  0  0  0  0  0  0  0  0  0  0  0
  -31.6631  -23.2240   22.0107 C   0  0  0  0  0  0  0  0  0  0  0  0
  -20.4924  -27.3157   23.0140 C   0  0  0  0  0  0  0  0  0  0  0  0
  -29.4486  -16.8784   19.6983 C   0  0  0  0  0  0  0  0  0  0  0  0
  -18.2898  -28.0271   23.4199 C   0  0  0  0  0  0  0  0  0  0  0  0
  -16.4812  -30.1144   23.8132 C   0  0  0  0  0  0  0  0  0  0  0  0
  -18.4609  -28.9059   24.4895 C   0  0  0  0  0  0  0  0  0  0  0  0
  -24.5498  -28.3236   22.3663 C   0  0  0  0  0  0  0  0  0  0  0  0
  -26.5555  -29.2164   22.4886 C   0  0  0  0  0  0  0  0  0  0  0  0
  -31.6005  -20.5476   22.2180 C   0  0  0  0  0  0  0  0  0  0  0  0
  -24.9443  -30.1017   24.1823 C   0  0  0  0  0  0  0  0  0  0  0  0
  -24.2924  -18.2995   20.6247 C   0  0  0  0  0  0  0  0  0  0  0  0
  -23.5521  -15.1435   20.7431 C   0  0  0  0  0  0  0  0  0  0  0  0
  -24.6240  -11.9079   20.5737 C   0  0  0  0  0  0  0  0  0  0  0  0
  -30.2077  -25.4407   20.0555 C   0  0  0  0  0  0  0  0  0  0  0  0
  -22.2553  -23.2429   21.1529 C   0  0  0  0  0  0  0  0  0  0  0  0
  -25.3547  -17.4533   18.5006 C   0  0  0  0  0  0  0  0  0  0  0  0
  -26.0048  -15.7308   20.8147 C   0  0  0  0  0  0  0  0  0  0  0  0
  -22.2321  -22.1325   22.1983 C   0  0  0  0  0  0  0  0  0  0  0  0
  -28.2660  -27.6994   18.1050 C   0  0  0  0  0  0  0  0  0  0  0  0
  -22.4707  -20.7860   21.5316 C   0  0  0  0  0  0  0  0  0  0  0  0
  -27.1811  -28.1779   19.0715 C   0  0  0  0  0  0  0  0  0  0  0  0
  -28.6145  -26.2299   18.3306 C   0  0  0  0  0  0  0  0  0  0  0  0
  -27.8951  -26.3644   20.6839 C   0  0  0  0  0  0  0  0  0  0  0  0
  -23.8611  -20.7352   20.8855 C   0  0  1  0  0  0  0  0  0  0  0  0
  -24.3454  -17.1891   19.6138 C   0  0  1  0  0  0  0  0  0  0  0  0
  -27.5496  -27.8557   20.5322 C   0  0  2  0  0  0  0  0  0  0  0  0
  -23.7937   -9.5460   20.7460 C   0  0  0  0  0  0  0  0  0  0  0  0
  -23.3980  -15.4216   23.7777 C   0  0  0  0  0  0  0  0  0  0  0  0
  -23.5167  -12.9262   23.9427 C   0  0  0  0  0  0  0  0  0  0  0  0
  -21.6003  -14.0069   22.7672 C   0  0  0  0  0  0  0  0  0  0  0  0
  -25.4501  -11.2922   17.7992 C   0  0  0  0  0  0  0  0  0  0  0  0
  -31.6983  -24.7019   21.8971 C   0  0  0  0  0  0  0  0  0  0  0  0
  -32.3747  -16.9671   21.8294 C   0  0  0  0  0  0  0  0  0  0  0  0
  -30.9924  -16.4545   21.4570 C   0  0  0  0  0  0  0  0  0  1  0  0
  -32.5211  -18.4562   21.5589 C   0  0  0  0  0  0  0  0  0  0  0  0
  -23.8807  -14.0026   21.6755 C   0  0  1  0  0  0  0  0  0  0  0  0
  -24.0902  -10.7085   19.8114 C   0  0  2  0  0  0  0  0  0  0  0  0
  -23.1193  -14.1039   23.0274 C   0  0  0  0  0  0  0  0  0  0  0  0
  -32.5360  -21.0657   21.3996 N   0  0  0  0  0  0  0  0  0  0  0  0
  -30.6927  -21.2284   22.9433 N   0  0  0  0  0  0  0  0  0  0  0  0
  -25.2424  -27.7247   21.3939 N   0  0  0  0  0  0  0  0  0  0  0  0
  -26.4581  -28.2889   21.4934 N   0  0  0  0  0  0  0  0  0  0  0  0
  -24.6259  -15.9547   20.3497 N   0  0  0  0  0  0  0  0  0  0  0  0
  -28.9559  -25.9915   19.7351 N   0  0  0  0  0  0  0  0  0  0  0  0
  -27.7072  -29.8792   22.7268 N   0  0  0  0  0  0  0  0  0  0  0  0
  -23.6318  -30.0230   24.6676 N   0  0  0  0  0  0  0  0  0  0  0  0
  -23.9684  -19.5319   20.0903 N   0  0  0  0  0  0  0  0  0  0  0  0
  -23.6146  -12.7769   20.9304 N   0  0  0  0  0  0  0  0  0  0  0  0
  -30.4534  -25.2532   21.4102 N   0  0  0  0  0  0  0  0  0  0  0  0
  -25.0840  -10.2549   18.7977 N   0  3  0  0  0  0  0  0  0  0  0  0
  -25.7463  -30.9095   24.7093 O   0  0  0  0  0  0  0  0  0  0  0  0
  -24.5266  -18.0558   21.8026 O   0  0  0  0  0  0  0  0  0  0  0  0
  -22.3869  -15.3046   20.3717 O   0  0  0  0  0  0  0  0  0  0  0  0
  -25.8166  -12.0569   20.8305 O   0  0  0  0  0  0  0  0  0  0  0  0
  -31.0465  -25.1434   19.1982 O   0  0  0  0  0  0  0  0  0  0  0  0
  -19.1872  -26.9910   23.2228 O   0  0  0  0  0  0  0  0  0  0  0  0
  -30.7439  -16.6935   20.0723 O   0  0  0  0  0  0  0  0  0  1  0  0
  -31.5671  -19.1814   22.3230 O   0  0  0  0  0  0  0  0  0  0  0  0
  -15.6136  -31.1175   24.0011 F   0  0  0  0  0  0  0  0  0  0  0  0
  -19.4927  -28.7533   25.3308 F   0  0  0  0  0  0  0  0  0  0  0  0
  1  2  1  0  0  0  0
  1  5  2  0  0  0  0
  2  6  2  0  0  0  0
  3  8  2  0  0  0  0
  3 17  1  0  0  0  0
  4  9  1  0  0  0  0
  4 17  2  0  0  0  0
  5 19  1  0  0  0  0
  6 21  1  0  0  0  0
  7 10  2  0  0  0  0
  7 20  1  0  0  0  0
  8 24  1  0  0  0  0
  9 24  2  0  0  0  0
 10 25  1  0  0  0  0
 11 12  2  0  0  0  0
 11 26  1  0  0  0  0
 12 27  1  0  0  0  0
 13 22  1  0  0  0  0
 13 25  2  0  0  0  0
 14 27  2  0  0  0  0
 14 28  1  0  0  0  0
 15 23  1  0  0  0  0
 15 61  2  0  0  0  0
 16 23  2  0  0  0  0
 16 62  1  0  0  0  0
 17 29  1  0  0  0  0
 18 29  1  0  0  0  0
 18 30  2  0  0  0  0
 18 32  1  0  0  0  0
 19 21  2  0  0  0  0
 19 37  1  0  0  0  0
 20 22  2  0  0  0  0
 20 38  1  0  0  0  0
 21 46  1  0  0  0  0
 22 39  1  0  0  0  0
 23 54  1  0  0  0  0
 24 78  1  0  0  0  0
 25 79  1  0  0  0  0
 26 28  2  0  0  0  0
 26 78  1  0  0  0  0
 27 81  1  0  0  0  0
 28 82  1  0  0  0  0
 29 63  2  0  0  0  0
 30 64  1  0  0  0  0
 30 67  1  0  0  0  0
 31 61  1  0  0  0  0
 31 62  2  0  0  0  0
 31 80  1  0  0  0  0
 32 68  1  0  0  0  0
 32 73  2  0  0  0  0
 33 47  1  0  0  0  0
 33 69  1  0  0  0  0
 33 74  2  0  0  0  0
 34 58  1  0  0  0  0
 34 65  1  0  0  0  0
 34 75  2  0  0  0  0
 35 59  1  0  0  0  0
 35 70  1  0  0  0  0
 35 76  2  0  0  0  0
 36 66  1  0  0  0  0
 36 71  1  0  0  0  0
 36 77  2  0  0  0  0
 37 40  1  0  0  0  0
 38 47  1  0  0  0  0
 39 65  1  0  0  0  0
 40 42  1  0  0  0  0
 41 43  1  0  0  0  0
 41 44  1  0  0  0  0
 42 46  1  0  0  0  0
 43 48  1  0  0  0  0
 44 66  1  0  0  0  0
 45 48  1  0  0  0  0
 45 66  1  0  0  0  0
 46 69  1  0  0  0  0
 47 65  1  0  0  0  0
 48 64  1  0  0  0  0
 49 59  1  0  0  0  0
 50 60  1  0  0  0  0
 51 60  1  0  0  0  0
 52 60  1  0  0  0  0
 53 72  1  0  0  0  0
 54 71  1  0  0  0  0
 55 56  1  0  0  0  0
 55 57  1  0  0  0  0
 56 79  1  0  0  0  0
 57 80  1  0  0  0  0
 58 60  1  0  0  0  0
 58 70  1  0  0  0  0
 59 72  1  0  0  0  0
 63 64  1  0  0  0  0
M  CHG  1  72   1
M  ISO  4  36 100  56 101  71 100  79 101
M  END
> <Batch ID>
0052

> <Smiles>
CNC(C)C(=O)NC(C(=O)N1Cc2cc([101O:1][101CH2:1]CCOc3ncc(C[100NH:0][100C:0](=O)N4CCCC(n5nc(-c6ccc(Oc7ccc(F)cc7F)cc6)c(C(N)=O)c5N)C4)cn3)ccc2CC1C(=O)NC1CCCc2ccccc21)C(C)(C)C

> <Shape>
0.217

> <Color>
0.061

> <Negative vol penalty>
0.000

$$$$

  -OEChem-04052317363D

 85 93  0     1  0  0  0  0  0999 V2000
  -25.4047   -7.3685   23.6725 C   0  0  0  0  0  0  0  0  0  0  0  0
  -26.3922   -8.2973   23.3603 C   0  0  0  0  0  0  0  0  0  0  0  0
  -24.6578  -30.0354   22.6386 C   0  0  0  0  0  0  0  0  0  0  0  0
  -24.4815  -29.4646   20.2976 C   0  0  0  0  0  0  0  0  0  0  0  0
  -24.1731   -7.4165   23.0206 C   0  0  0  0  0  0  0  0  0  0  0  0
  -26.1492   -9.2740   22.3952 C   0  0  0  0  0  0  0  0  0  0  0  0
  -28.2412  -15.0298   22.3739 C   0  0  0  0  0  0  0  0  0  0  0  0
  -24.8344  -31.3765   22.2983 C   0  0  0  0  0  0  0  0  0  0  0  0
  -24.6580  -30.8057   19.9573 C   0  0  0  0  0  0  0  0  0  0  0  0
  -29.3155  -15.6349   21.7232 C   0  0  0  0  0  0  0  0  0  0  0  0
  -22.8988  -33.9806   21.3467 C   0  0  0  0  0  0  0  0  0  0  0  0
  -22.1791  -34.9327   22.0685 C   0  0  0  0  0  0  0  0  0  0  0  0
  -27.8334  -16.3598   19.9634 C   0  0  0  0  0  0  0  0  0  0  0  0
  -24.2481  -35.9554   22.7828 C   0  0  0  0  0  0  0  0  0  0  0  0
  -31.8465  -21.8969   19.0493 C   0  0  0  0  0  0  0  0  0  0  0  0
  -31.7063  -23.3628   20.6888 C   0  0  0  0  0  0  0  0  0  0  0  0
  -24.4814  -29.0794   21.6382 C   0  0  0  0  0  0  0  0  0  0  0  0
  -23.0822  -27.0335   22.2416 C   0  0  0  0  0  0  0  0  0  0  0  0
  -23.9115   -8.4002   22.0539 C   0  0  0  0  0  0  0  0  0  0  0  0
  -26.9547  -15.0758   21.8178 C   0  0  0  0  0  0  0  0  0  0  0  0
  -24.9135   -9.3343   21.7288 C   0  0  0  0  0  0  0  0  0  0  0  0
  -26.7440  -15.7567   20.6103 C   0  0  0  0  0  0  0  0  0  0  0  0
  -24.8344  -31.7617   20.9577 C   0  0  0  0  0  0  0  0  0  0  0  0
  -29.1122  -16.2976   20.5163 C   0  0  0  0  0  0  0  0  0  0  0  0
  -24.2933  -34.0158   21.3430 C   0  0  0  0  0  0  0  0  0  0  0  0
  -22.8537  -35.9201   22.7865 C   0  0  0  0  0  0  0  0  0  0  0  0
  -24.9679  -35.0032   22.0610 C   0  0  0  0  0  0  0  0  0  0  0  0
  -24.2996  -27.6938   21.9891 C   0  0  0  0  0  0  0  0  0  0  0  0
  -32.6936  -21.5768   20.0839 C   0  0  0  0  0  0  0  0  0  0  0  0
  -23.4459  -25.7405   22.5286 C   0  0  0  0  0  0  0  0  0  0  0  0
  -21.7423  -27.5433   22.2186 C   0  0  0  0  0  0  0  0  0  0  0  0
  -24.8843  -12.9029   20.7711 C   0  0  0  0  0  0  0  0  0  0  0  0
  -22.9322  -15.4760   20.4699 C   0  0  0  0  0  0  0  0  0  0  0  0
  -22.6290  -18.8535   20.0863 C   0  0  0  0  0  0  0  0  0  0  0  0
  -28.0553  -22.3566   21.1218 C   0  0  0  0  0  0  0  0  0  0  0  0
  -22.5819   -8.3829   21.3420 C   0  0  0  0  0  0  0  0  0  0  0  0
  -25.8016  -14.4410   22.5456 C   0  0  0  0  0  0  0  0  0  0  0  0
  -25.3787  -15.8522   19.9816 C   0  0  0  0  0  0  0  0  0  0  0  0
  -22.2712   -9.6805   20.6004 C   0  0  0  0  0  0  0  0  0  0  0  0
  -27.0378  -23.1645   24.3371 C   0  0  0  0  0  0  0  0  0  0  0  0
  -23.4816  -10.1361   19.7916 C   0  0  0  0  0  0  0  0  0  0  0  0
  -26.1024  -24.3563   24.1380 C   0  0  0  0  0  0  0  0  0  0  0  0
  -28.2487  -23.2632   23.4169 C   0  0  0  0  0  0  0  0  0  0  0  0
  -26.9584  -24.5584   21.7498 C   0  0  0  0  0  0  0  0  0  0  0  0
  -24.6790  -10.4241   20.7053 C   0  0  1  0  0  0  0  0  0  0  0  0
  -24.6274  -14.1086   21.6301 C   0  0  1  0  0  0  0  0  0  0  0  0
  -25.7122  -24.5093   22.6574 C   0  0  2  0  0  0  0  0  0  0  0  0
  -20.9063  -20.6606   19.8334 C   0  0  0  0  0  0  0  0  0  0  0  0
  -28.1162  -20.5339   18.6244 C   0  0  0  0  0  0  0  0  0  0  0  0
  -26.1652  -22.1190   18.6922 C   0  0  0  0  0  0  0  0  0  0  0  0
  -22.4832  -14.6388   17.5703 C   0  0  0  0  0  0  0  0  0  0  0  0
  -21.5674  -16.9259   17.1248 C   0  0  0  0  0  0  0  0  0  0  0  0
  -20.4283  -15.4248   18.7593 C   0  0  0  0  0  0  0  0  0  0  0  0
  -23.5150  -20.2057   22.5654 C   0  0  0  0  0  0  0  0  0  0  0  0
  -33.6355  -20.4040   20.1900 C   0  0  0  0  0  0  0  0  0  0  0  0
  -33.0064  -19.1603   20.8277 C   0  0  0  0  0  0  0  0  0  0  0  0
  -31.8460  -18.5905   20.0106 C   0  0  0  0  0  0  0  0  0  0  0  0
  -30.2334  -23.7843   18.7052 C   0  0  0  0  0  0  0  0  0  0  0  0
  -28.9218  -23.9637   19.4652 C   0  0  0  0  0  0  0  0  0  0  0  0
  -31.2216  -17.3816   20.6941 C   0  0  0  0  0  0  0  0  0  1  0  0
  -22.6429  -16.4763   19.3769 C   0  0  1  0  0  0  0  0  0  0  0  0
  -21.7705  -19.8762   20.8084 C   0  0  2  0  0  0  0  0  0  0  0  0
  -27.6826  -21.9943   18.6450 C   0  0  0  0  0  0  0  0  0  0  0  0
  -21.8067  -15.8632   18.2184 C   0  0  0  0  0  0  0  0  0  0  0  0
  -32.6014  -22.4930   21.1015 N   0  0  0  0  0  0  0  0  0  0  0  0
  -25.3576  -26.8869   22.1056 N   0  0  0  0  0  0  0  0  0  0  0  0
  -31.2205  -23.0430   19.4515 N   0  0  0  0  0  0  0  0  0  0  0  0
  -24.8061  -25.7064   22.4345 N   0  0  0  0  0  0  0  0  0  0  0  0
  -24.2844  -15.2101   20.7283 N   0  0  0  0  0  0  0  0  0  0  0  0
  -27.8411  -23.4129   22.0196 N   0  0  0  0  0  0  0  0  0  0  0  0
  -22.7318  -24.6409   22.8498 N   0  0  0  0  0  0  0  0  0  0  0  0
  -21.5471  -28.8952   21.9045 N   0  0  0  0  0  0  0  0  0  0  0  0
  -24.5200  -11.7061   21.3578 N   0  0  0  0  0  0  0  0  0  0  0  0
  -22.0139  -17.6209   20.0271 N   0  0  0  0  0  0  0  0  0  0  0  0
  -28.2852  -22.6924   19.7791 N   0  0  0  0  0  0  0  0  0  0  0  0
  -22.6291  -20.8389   21.5548 N   0  3  0  0  0  0  0  0  0  0  0  0
  -20.7489  -26.8254   22.4854 O   0  0  0  0  0  0  0  0  0  0  0  0
  -25.3754  -13.0478   19.6577 O   0  0  0  0  0  0  0  0  0  0  0  0
  -21.9931  -14.9551   21.0769 O   0  0  0  0  0  0  0  0  0  0  0  0
  -23.7332  -19.1222   19.6181 O   0  0  0  0  0  0  0  0  0  0  0  0
  -28.0495  -21.1778   21.4993 O   0  0  0  0  0  0  0  0  0  0  0  0
  -25.0064  -33.0703   20.6252 O   0  0  0  0  0  0  0  0  0  0  0  0
  -30.1592  -16.8886   19.8788 O   0  0  0  0  0  0  0  0  0  1  0  0
  -22.1623  -36.8353   23.4784 F   0  0  0  0  0  0  0  0  0  0  0  0
  -26.3074  -35.0429   22.0602 F   0  0  0  0  0  0  0  0  0  0  0  0
  1  2  1  0  0  0  0
  1  5  2  0  0  0  0
  2  6  2  0  0  0  0
  3  8  2  0  0  0  0
  3 17  1  0  0  0  0
  4  9  1  0  0  0  0
  4 17  2  0  0  0  0
  5 19  1  0  0  0  0
  6 21  1  0  0  0  0
  7 10  2  0  0  0  0
  7 20  1  0  0  0  0
  8 23  1  0  0  0  0
  9 23  2  0  0  0  0
 10 24  1  0  0  0  0
 11 12  2  0  0  0  0
 11 25  1  0  0  0  0
 12 26  1  0  0  0  0
 13 22  1  0  0  0  0
 13 24  2  0  0  0  0
 14 26  2  0  0  0  0
 14 27  1  0  0  0  0
 15 29  2  0  0  0  0
 15 67  1  0  0  0  0
 16 65  2  0  0  0  0
 16 67  1  0  0  0  0
 17 28  1  0  0  0  0
 18 28  1  0  0  0  0
 18 30  2  0  0  0  0
 18 31  1  0  0  0  0
 19 21  2  0  0  0  0
 19 36  1  0  0  0  0
 20 22  2  0  0  0  0
 20 37  1  0  0  0  0
 21 45  1  0  0  0  0
 22 38  1  0  0  0  0
 23 82  1  0  0  0  0
 24 83  1  0  0  0  0
 25 27  2  0  0  0  0
 25 82  1  0  0  0  0
 26 84  1  0  0  0  0
 27 85  1  0  0  0  0
 28 66  2  0  0  0  0
 29 55  1  0  0  0  0
 29 65  1  0  0  0  0
 30 68  1  0  0  0  0
 30 71  1  0  0  0  0
 31 72  1  0  0  0  0
 31 77  2  0  0  0  0
 32 46  1  0  0  0  0
 32 73  1  0  0  0  0
 32 78  2  0  0  0  0
 33 61  1  0  0  0  0
 33 69  1  0  0  0  0
 33 79  2  0  0  0  0
 34 62  1  0  0  0  0
 34 74  1  0  0  0  0
 34 80  2  0  0  0  0
 35 70  1  0  0  0  0
 35 75  1  0  0  0  0
 35 81  2  0  0  0  0
 36 39  1  0  0  0  0
 37 46  1  0  0  0  0
 38 69  1  0  0  0  0
 39 41  1  0  0  0  0
 40 42  1  0  0  0  0
 40 43  1  0  0  0  0
 41 45  1  0  0  0  0
 42 47  1  0  0  0  0
 43 70  1  0  0  0  0
 44 47  1  0  0  0  0
 44 70  1  0  0  0  0
 45 73  1  0  0  0  0
 46 69  1  0  0  0  0
 47 68  1  0  0  0  0
 48 62  1  0  0  0  0
 49 63  1  0  0  0  0
 50 63  1  0  0  0  0
 51 64  1  0  0  0  0
 52 64  1  0  0  0  0
 53 64  1  0  0  0  0
 54 76  1  0  0  0  0
 55 56  1  0  0  0  0
 56 57  1  0  0  0  0
 57 60  1  0  0  0  0
 58 59  1  0  0  0  0
 58 67  1  0  0  0  0
 59 75  1  0  0  0  0
 60 83  1  0  0  0  0
 61 64  1  0  0  0  0
 61 74  1  0  0  0  0
 62 76  1  0  0  0  0
 63 75  1  0  0  0  0
 66 68  1  0  0  0  0
M  CHG  1  76   1
M  ISO  4  35 100  60 101  75 100  83 101
M  END
> <Batch ID>
0052

> <Smiles>
CNC(C)C(=O)NC(C(=O)N1Cc2cc([101O:1][101CH2:1]CCCc3cn(CC[100N:0](C(C)C)[100C:0](=O)N4CCCC(n5nc(-c6ccc(Oc7ccc(F)cc7F)cc6)c(C(N)=O)c5N)C4)cn3)ccc2CC1C(=O)NC1CCCc2ccccc21)C(C)(C)C

> <Shape>
0.207

> <Color>
0.065

> <Negative vol penalty>
0.000

$$$$

  -OEChem-04052317363D

 80 88  0     1  0  0  0  0  0999 V2000
  -19.0388  -28.1391   26.5630 C   0  0  0  0  0  0  0  0  0  0  0  0
  -19.9642  -27.1940   26.1321 C   0  0  0  0  0  0  0  0  0  0  0  0
  -23.8402   -9.9911   22.4720 C   0  0  0  0  0  0  0  0  0  0  0  0
  -24.4709  -11.7036   24.0552 C   0  0  0  0  0  0  0  0  0  0  0  0
  -18.5079  -29.0566   25.6573 C   0  0  0  0  0  0  0  0  0  0  0  0
  -20.3584  -27.1651   24.7949 C   0  0  0  0  0  0  0  0  0  0  0  0
  -25.9026  -25.7354   22.6214 C   0  0  0  0  0  0  0  0  0  0  0  0
  -23.3883   -9.1889   23.5197 C   0  0  0  0  0  0  0  0  0  0  0  0
  -24.0189  -10.9014   25.1030 C   0  0  0  0  0  0  0  0  0  0  0  0
  -26.4250  -24.5596   22.0845 C   0  0  0  0  0  0  0  0  0  0  0  0
  -21.0573  -10.0696   26.5022 C   0  0  0  0  0  0  0  0  0  0  0  0
  -20.2805  -10.6740   27.4906 C   0  0  0  0  0  0  0  0  0  0  0  0
  -25.9647  -25.3771   19.8621 C   0  0  0  0  0  0  0  0  0  0  0  0
  -21.9206  -10.0604   29.1550 C   0  0  0  0  0  0  0  0  0  0  0  0
  -27.1539  -20.1815   19.7287 C   0  0  0  0  0  0  0  0  0  0  0  0
  -24.3816  -11.2485   22.7397 C   0  0  0  0  0  0  0  0  0  0  0  0
  -24.1049  -13.0248   20.9299 C   0  0  0  0  0  0  0  0  0  0  0  0
  -18.9031  -29.0451   24.3104 C   0  0  0  0  0  0  0  0  0  0  0  0
  -25.3965  -26.7380   21.7817 C   0  0  0  0  0  0  0  0  0  0  0  0
  -19.8313  -28.0824   23.8701 C   0  0  0  0  0  0  0  0  0  0  0  0
  -25.4387  -26.5658   20.3908 C   0  0  0  0  0  0  0  0  0  0  0  0
  -23.4775   -9.6440   24.8352 C   0  0  0  0  0  0  0  0  0  0  0  0
  -26.4535  -24.3790   20.7048 C   0  0  0  0  0  0  0  0  0  0  0  0
  -22.2658   -9.4605   26.8403 C   0  0  0  0  0  0  0  0  0  0  0  0
  -20.7121  -10.6694   28.8169 C   0  0  0  0  0  0  0  0  0  0  0  0
  -22.6975   -9.4559   28.1667 C   0  0  0  0  0  0  0  0  0  0  0  0
  -24.8493  -12.0774   21.6579 C   0  0  0  0  0  0  0  0  0  0  0  0
  -27.9915  -21.0867   20.3283 C   0  0  0  0  0  0  0  0  0  0  0  0
  -24.9976  -13.5378   20.0208 C   0  0  0  0  0  0  0  0  0  0  0  0
  -28.9612  -19.0484   18.9873 C   0  0  0  0  0  0  0  0  0  0  0  0
  -22.7295  -13.4071   21.0635 C   0  0  0  0  0  0  0  0  0  0  0  0
  -22.5509  -28.0930   21.3687 C   0  0  0  0  0  0  0  0  0  0  0  0
  -24.2007  -30.0352   19.3617 C   0  0  0  0  0  0  0  0  0  0  0  0
  -26.9248  -30.4876   17.3563 C   0  0  0  0  0  0  0  0  0  0  0  0
  -30.0551  -15.5314   18.7591 C   0  0  0  0  0  0  0  0  0  0  0  0
  -18.2661  -30.0265   23.3586 C   0  0  0  0  0  0  0  0  0  0  0  0
  -24.8608  -28.0118   22.3756 C   0  0  0  0  0  0  0  0  0  0  0  0
  -24.9264  -27.6202   19.4452 C   0  0  0  0  0  0  0  0  0  0  0  0
  -19.0178  -30.1693   22.0377 C   0  0  0  0  0  0  0  0  0  0  0  0
  -29.6403  -11.9953   18.7353 C   0  0  0  0  0  0  0  0  0  0  0  0
  -19.3768  -28.7971   21.4766 C   0  0  0  0  0  0  0  0  0  0  0  0
  -28.2991  -11.7796   19.4387 C   0  0  0  0  0  0  0  0  0  0  0  0
  -30.4209  -13.1541   19.3517 C   0  0  0  0  0  0  0  0  0  0  0  0
  -28.3377  -14.2103   20.1380 C   0  0  0  0  0  0  0  0  0  0  0  0
  -20.3025  -28.0351   22.4327 C   0  0  1  0  0  0  0  0  0  0  0  0
  -23.9012  -28.7475   21.4454 C   0  0  1  0  0  0  0  0  0  0  0  0
  -27.4895  -13.0880   19.5156 C   0  0  2  0  0  0  0  0  0  0  0  0
  -29.1333  -17.8930   16.7519 C   0  0  0  0  0  0  0  0  0  0  0  0
  -27.9801  -32.1640   15.8157 C   0  0  0  0  0  0  0  0  0  0  0  0
  -22.1513  -29.3438   17.2095 C   0  0  0  0  0  0  0  0  0  0  0  0
  -23.7446  -30.2449   15.5013 C   0  0  0  0  0  0  0  0  0  0  0  0
  -22.8309  -31.7499   17.2685 C   0  0  0  0  0  0  0  0  0  0  0  0
  -29.3573  -30.6696   19.0322 C   0  0  0  0  0  0  0  0  0  0  0  0
  -27.4498  -22.2556   21.0974 C   0  0  0  0  0  0  0  0  0  1  0  0
  -29.5404  -17.9015   18.2332 C   0  0  2  0  0  0  0  0  0  0  0  0
  -24.5513  -30.0059   17.8936 C   0  0  1  0  0  0  0  0  0  0  0  0
  -27.9105  -31.6362   17.2402 C   0  0  2  0  0  0  0  0  0  0  0  0
  -23.3275  -30.3152   16.9858 C   0  0  0  0  0  0  0  0  0  0  0  0
  -27.6234  -19.1315   19.0380 N   0  0  0  0  0  0  0  0  0  0  0  0
  -26.1171  -11.9913   21.2467 N   0  0  0  0  0  0  0  0  0  0  0  0
  -29.3273  -20.9515   20.2430 N   0  0  0  0  0  0  0  0  0  0  0  0
  -29.8317  -19.9061   19.5551 N   0  0  0  0  0  0  0  0  0  0  0  0
  -26.1763  -12.8913   20.2503 N   0  0  0  0  0  0  0  0  0  0  0  0
  -24.4067  -28.8455   20.0746 N   0  0  0  0  0  0  0  0  0  0  0  0
  -29.5974  -14.3649   19.3937 N   0  0  0  0  0  0  0  0  0  0  0  0
  -24.8813  -14.4741   19.0553 N   0  0  0  0  0  0  0  0  0  0  0  0
  -21.9545  -12.7805   22.0489 N   0  0  0  0  0  0  0  0  0  0  0  0
  -21.6577  -28.5320   22.3273 N   0  0  0  0  0  0  0  0  0  0  0  0
  -25.6700  -30.9265   17.7226 N   0  0  0  0  0  0  0  0  0  0  0  0
  -29.2107  -16.6318   18.8414 N   0  0  0  0  0  0  0  0  0  0  0  0
  -29.2744  -31.1911   17.6436 N   0  3  0  0  0  0  0  0  0  0  0  0
  -22.1990  -14.2669   20.3199 O   0  0  0  0  0  0  0  0  0  0  0  0
  -22.3350  -27.2529   20.5031 O   0  0  0  0  0  0  0  0  0  0  0  0
  -23.7672  -31.0773   19.8592 O   0  0  0  0  0  0  0  0  0  0  0  0
  -27.2358  -29.3185   17.1397 O   0  0  0  0  0  0  0  0  0  0  0  0
  -31.1338  -15.5864   18.1587 O   0  0  0  0  0  0  0  0  0  0  0  0
  -23.0363   -8.8616   25.8578 O   0  0  0  0  0  0  0  0  0  0  0  0
  -26.9622  -23.2320   20.1781 O   0  0  0  0  0  0  0  0  0  1  0  0
  -19.9668  -11.2512   29.7657 F   0  0  0  0  0  0  0  0  0  0  0  0
  -23.8582   -8.8734   28.4973 F   0  0  0  0  0  0  0  0  0  0  0  0
  1  2  1  0  0  0  0
  1  5  2  0  0  0  0
  2  6  2  0  0  0  0
  3  8  2  0  0  0  0
  3 16  1  0  0  0  0
  4  9  1  0  0  0  0
  4 16  2  0  0  0  0
  5 18  1  0  0  0  0
  6 20  1  0  0  0  0
  7 10  2  0  0  0  0
  7 19  1  0  0  0  0
  8 22  1  0  0  0  0
  9 22  2  0  0  0  0
 10 23  1  0  0  0  0
 11 12  2  0  0  0  0
 11 24  1  0  0  0  0
 12 25  1  0  0  0  0
 13 21  1  0  0  0  0
 13 23  2  0  0  0  0
 14 25  2  0  0  0  0
 14 26  1  0  0  0  0
 15 28  1  0  0  0  0
 15 59  2  0  0  0  0
 16 27  1  0  0  0  0
 17 27  1  0  0  0  0
 17 29  2  0  0  0  0
 17 31  1  0  0  0  0
 18 20  2  0  0  0  0
 18 36  1  0  0  0  0
 19 21  2  0  0  0  0
 19 37  1  0  0  0  0
 20 45  1  0  0  0  0
 21 38  1  0  0  0  0
 22 77  1  0  0  0  0
 23 78  1  0  0  0  0
 24 26  2  0  0  0  0
 24 77  1  0  0  0  0
 25 79  1  0  0  0  0
 26 80  1  0  0  0  0
 27 60  2  0  0  0  0
 28 54  1  0  0  0  0
 28 61  2  0  0  0  0
 29 63  1  0  0  0  0
 29 66  1  0  0  0  0
 30 55  1  0  0  0  0
 30 59  1  0  0  0  0
 30 62  2  0  0  0  0
 31 67  1  0  0  0  0
 31 72  2  0  0  0  0
 32 46  1  0  0  0  0
 32 68  1  0  0  0  0
 32 73  2  0  0  0  0
 33 56  1  0  0  0  0
 33 64  1  0  0  0  0
 33 74  2  0  0  0  0
 34 57  1  0  0  0  0
 34 69  1  0  0  0  0
 34 75  2  0  0  0  0
 35 65  1  0  0  0  0
 35 70  1  0  0  0  0
 35 76  2  0  0  0  0
 36 39  1  0  0  0  0
 37 46  1  0  0  0  0
 38 64  1  0  0  0  0
 39 41  1  0  0  0  0
 40 42  1  0  0  0  0
 40 43  1  0  0  0  0
 41 45  1  0  0  0  0
 42 47  1  0  0  0  0
 43 65  1  0  0  0  0
 44 47  1  0  0  0  0
 44 65  1  0  0  0  0
 45 68  1  0  0  0  0
 46 64  1  0  0  0  0
 47 63  1  0  0  0  0
 48 55  1  0  0  0  0
 49 57  1  0  0  0  0
 50 58  1  0  0  0  0
 51 58  1  0  0  0  0
 52 58  1  0  0  0  0
 53 71  1  0  0  0  0
 54 78  1  0  0  0  0
 55 70  1  0  0  0  0
 56 58  1  0  0  0  0
 56 69  1  0  0  0  0
 57 71  1  0  0  0  0
 60 63  1  0  0  0  0
 61 62  1  0  0  0  0
M  CHG  1  71   1
M  ISO  4  35 100  54 101  70 100  78 101
M  END
> <Batch ID>
0052

> <Smiles>
CNC(C)C(=O)NC(C(=O)N1Cc2cc([101O:1][101CH2:1]c3cnc(C(C)[100NH:0][100C:0](=O)N4CCCC(n5nc(-c6ccc(Oc7ccc(F)cc7F)cc6)c(C(N)=O)c5N)C4)nn3)ccc2CC1C(=O)NC1CCCc2ccccc21)C(C)(C)C

> <Shape>
0.211

> <Color>
0.124

> <Negative vol penalty>
0.000

$$$$

  -OEChem-04052317363D

 85 93  0     1  0  0  0  0  0999 V2000
  -17.9922  -25.5196   23.1801 C   0  0  0  0  0  0  0  0  0  0  0  0
  -19.3195  -25.1821   22.9360 C   0  0  0  0  0  0  0  0  0  0  0  0
  -26.2317  -13.1475   21.3048 C   0  0  0  0  0  0  0  0  0  0  0  0
  -24.7544  -12.5970   19.4740 C   0  0  0  0  0  0  0  0  0  0  0  0
  -17.5405  -26.8099   22.9060 C   0  0  0  0  0  0  0  0  0  0  0  0
  -20.1958  -26.1344   22.4166 C   0  0  0  0  0  0  0  0  0  0  0  0
  -26.1626  -26.7168   23.6668 C   0  0  0  0  0  0  0  0  0  0  0  0
  -25.9331  -11.9280   21.9124 C   0  0  0  0  0  0  0  0  0  0  0  0
  -24.4558  -11.3775   20.0816 C   0  0  0  0  0  0  0  0  0  0  0  0
  -27.3079  -26.2998   22.9898 C   0  0  0  0  0  0  0  0  0  0  0  0
  -22.4884  -10.2617   22.5946 C   0  0  0  0  0  0  0  0  0  0  0  0
  -21.1502   -9.8712   22.6410 C   0  0  0  0  0  0  0  0  0  0  0  0
  -27.4939  -28.4798   21.9739 C   0  0  0  0  0  0  0  0  0  0  0  0
  -21.6859   -7.8852   21.3737 C   0  0  0  0  0  0  0  0  0  0  0  0
  -28.1326  -21.4180   18.4220 C   0  0  0  0  0  0  0  0  0  0  0  0
  -25.6423  -13.4821   20.0856 C   0  0  0  0  0  0  0  0  0  0  0  0
  -26.9863  -15.0048   18.5420 C   0  0  0  0  0  0  0  0  0  0  0  0
  -18.4139  -27.7812   22.3920 C   0  0  0  0  0  0  0  0  0  0  0  0
  -25.6674  -28.0172   23.4936 C   0  0  0  0  0  0  0  0  0  0  0  0
  -19.7550  -27.4385   22.1341 C   0  0  0  0  0  0  0  0  0  0  0  0
  -26.3436  -28.9117   22.6517 C   0  0  0  0  0  0  0  0  0  0  0  0
  -25.0452  -11.0429   21.3008 C   0  0  0  0  0  0  0  0  0  0  0  0
  -27.9721  -27.1804   22.1410 C   0  0  0  0  0  0  0  0  0  0  0  0
  -23.4254   -9.4641   21.9378 C   0  0  0  0  0  0  0  0  0  0  0  0
  -20.7489   -8.6830   22.0305 C   0  0  0  0  0  0  0  0  0  0  0  0
  -23.0241   -8.2758   21.3273 C   0  0  0  0  0  0  0  0  0  0  0  0
  -25.9498  -14.7419   19.4577 C   0  0  0  0  0  0  0  0  0  0  0  0
  -27.4869  -21.5097   19.6309 C   0  0  0  0  0  0  0  0  0  0  0  0
  -29.4991  -21.3645   18.7562 C   0  0  0  0  0  0  0  0  0  0  0  0
  -26.8534  -16.3396   18.2469 C   0  0  0  0  0  0  0  0  0  0  0  0
  -27.9804  -14.1213   18.0062 C   0  0  0  0  0  0  0  0  0  0  0  0
  -26.0453  -21.5962   19.8973 C   0  0  0  0  0  0  0  0  0  0  0  0
  -22.9624  -29.2570   22.3756 C   0  0  0  0  0  0  0  0  0  0  0  0
  -24.2765  -32.0437   23.3904 C   0  0  0  0  0  0  0  0  0  0  0  0
  -27.0950  -33.8042   24.1673 C   0  0  0  0  0  0  0  0  0  0  0  0
  -17.8682  -29.1492   22.0671 C   0  0  0  0  0  0  0  0  0  0  0  0
  -24.4460  -28.4601   24.2517 C   0  0  0  0  0  0  0  0  0  0  0  0
  -25.8643  -30.3248   22.4472 C   0  0  0  0  0  0  0  0  0  0  0  0
  -18.9518  -30.2061   21.8696 C   0  0  0  0  0  0  0  0  0  0  0  0
  -23.1411  -19.6064   19.3070 C   0  0  0  0  0  0  0  0  0  0  0  0
  -20.0598  -29.6725   20.9671 C   0  0  0  0  0  0  0  0  0  0  0  0
  -23.6926  -18.1813   19.2374 C   0  0  0  0  0  0  0  0  0  0  0  0
  -23.8961  -20.4537   20.3281 C   0  0  0  0  0  0  0  0  0  0  0  0
  -25.9169  -19.0561   20.0668 C   0  0  0  0  0  0  0  0  0  0  0  0
  -20.7419  -28.4508   21.5944 C   0  0  1  0  0  0  0  0  0  0  0  0
  -23.7372  -29.6451   23.6031 C   0  0  1  0  0  0  0  0  0  0  0  0
  -25.2164  -18.1832   19.0126 C   0  0  1  0  0  0  0  0  0  0  0  0
  -27.8539  -36.0712   24.9301 C   0  0  0  0  0  0  0  0  0  0  0  0
  -31.4900  -19.9591   18.1052 C   0  0  0  0  0  0  0  0  0  0  0  0
  -30.2879  -21.1551   16.3012 C   0  0  0  0  0  0  0  0  0  0  0  0
  -23.8024  -33.1440   20.5842 C   0  0  0  0  0  0  0  0  0  0  0  0
  -25.3961  -34.9996   21.1179 C   0  0  0  0  0  0  0  0  0  0  0  0
  -23.2918  -34.7481   22.4337 C   0  0  0  0  0  0  0  0  0  0  0  0
  -28.2911  -21.5844   22.0101 C   0  0  0  0  0  0  0  0  0  0  0  0
  -28.2911  -32.7001   26.6390 C   0  0  0  0  0  0  0  0  0  0  0  0
  -30.1012  -24.0809   16.9229 C   0  0  0  0  0  0  0  0  0  0  0  0
  -30.0111  -25.2506   19.8728 C   0  0  0  0  0  0  0  0  0  0  0  0
  -30.1635  -23.8134   19.3978 C   0  0  0  0  0  0  0  0  0  0  0  0
  -31.6748  -22.4532   17.9603 C   0  0  0  0  0  0  0  0  0  0  0  0
  -29.1802  -25.3918   21.1422 C   0  0  0  0  0  0  0  0  0  1  0  0
  -25.1711  -33.0912   22.7727 C   0  0  1  0  0  0  0  0  0  0  0  0
  -27.4427  -34.6725   25.3629 C   0  0  2  0  0  0  0  0  0  0  0  0
  -30.6983  -21.2564   17.7920 C   0  0  0  0  0  0  0  0  0  0  0  0
  -24.4235  -33.9686   21.7293 C   0  0  0  0  0  0  0  0  0  0  0  0
  -25.2129  -15.8230   19.7266 N   0  0  0  0  0  0  0  0  0  0  0  0
  -29.7103  -21.4177   20.0739 N   0  0  0  0  0  0  0  0  0  0  0  0
  -28.4678  -21.5057   20.5786 N   0  0  0  0  0  0  0  0  0  0  0  0
  -25.7871  -16.7781   18.9755 N   0  0  0  0  0  0  0  0  0  0  0  0
  -25.3360  -20.4062   20.0765 N   0  0  0  0  0  0  0  0  0  0  0  0
  -24.6622  -30.7085   23.2057 N   0  0  0  0  0  0  0  0  0  0  0  0
  -27.5458  -17.1692   17.4378 N   0  0  0  0  0  0  0  0  0  0  0  0
  -27.9736  -12.7810   18.4157 N   0  0  0  0  0  0  0  0  0  0  0  0
  -21.6628  -28.8633   22.6318 N   0  0  0  0  0  0  0  0  0  0  0  0
  -25.7463  -33.8428   23.8830 N   0  0  0  0  0  0  0  0  0  0  0  0
  -28.5675  -34.0688   26.1319 N   0  3  0  0  0  0  0  0  0  0  0  0
  -30.9397  -23.7601   18.1368 N   0  3  1  0  0  0  0  0  0  0  0  0
  -28.8590  -14.5129   17.2010 O   0  0  0  0  0  0  0  0  0  0  0  0
  -25.5657  -22.7285   19.9303 O   0  0  0  0  0  0  0  0  0  0  0  0
  -23.5031  -29.3121   21.2773 O   0  0  0  0  0  0  0  0  0  0  0  0
  -23.2763  -32.3975   24.0197 O   0  0  0  0  0  0  0  0  0  0  0  0
  -27.9363  -33.1592   23.5453 O   0  0  0  0  0  0  0  0  0  0  0  0
  -24.7538   -9.8527   21.8933 O   0  0  0  0  0  0  0  0  0  0  0  0
  -29.0898  -26.7757   21.4785 O   0  0  0  0  0  0  0  0  0  1  0  0
  -19.4640   -8.3073   22.0764 F   0  0  0  0  0  0  0  0  0  0  0  0
  -23.9199   -7.5047   20.6958 F   0  0  0  0  0  0  0  0  0  0  0  0
  1  2  1  0  0  0  0
  1  5  2  0  0  0  0
  2  6  2  0  0  0  0
  3  8  2  0  0  0  0
  3 16  1  0  0  0  0
  4  9  1  0  0  0  0
  4 16  2  0  0  0  0
  5 18  1  0  0  0  0
  6 20  1  0  0  0  0
  7 10  2  0  0  0  0
  7 19  1  0  0  0  0
  8 22  1  0  0  0  0
  9 22  2  0  0  0  0
 10 23  1  0  0  0  0
 11 12  2  0  0  0  0
 11 24  1  0  0  0  0
 12 25  1  0  0  0  0
 13 21  1  0  0  0  0
 13 23  2  0  0  0  0
 14 25  2  0  0  0  0
 14 26  1  0  0  0  0
 15 28  2  0  0  0  0
 15 29  1  0  0  0  0
 16 27  1  0  0  0  0
 17 27  1  0  0  0  0
 17 30  2  0  0  0  0
 17 31  1  0  0  0  0
 18 20  2  0  0  0  0
 18 36  1  0  0  0  0
 19 21  2  0  0  0  0
 19 37  1  0  0  0  0
 20 45  1  0  0  0  0
 21 38  1  0  0  0  0
 22 82  1  0  0  0  0
 23 83  1  0  0  0  0
 24 26  2  0  0  0  0
 24 82  1  0  0  0  0
 25 84  1  0  0  0  0
 26 85  1  0  0  0  0
 27 65  2  0  0  0  0
 28 32  1  0  0  0  0
 28 67  1  0  0  0  0
 29 63  1  0  0  0  0
 29 66  2  0  0  0  0
 30 68  1  0  0  0  0
 30 71  1  0  0  0  0
 31 72  1  0  0  0  0
 31 77  2  0  0  0  0
 32 69  1  0  0  0  0
 32 78  2  0  0  0  0
 33 46  1  0  0  0  0
 33 73  1  0  0  0  0
 33 79  2  0  0  0  0
 34 61  1  0  0  0  0
 34 70  1  0  0  0  0
 34 80  2  0  0  0  0
 35 62  1  0  0  0  0
 35 74  1  0  0  0  0
 35 81  2  0  0  0  0
 36 39  1  0  0  0  0
 37 46  1  0  0  0  0
 38 70  1  0  0  0  0
 39 41  1  0  0  0  0
 40 42  1  0  0  0  0
 40 43  1  0  0  0  0
 41 45  1  0  0  0  0
 42 47  1  0  0  0  0
 43 69  1  0  0  0  0
 44 47  1  0  0  0  0
 44 69  1  0  0  0  0
 45 73  1  0  0  0  0
 46 70  1  0  0  0  0
 47 68  1  0  0  0  0
 48 62  1  0  0  0  0
 49 63  1  0  0  0  0
 50 63  1  0  0  0  0
 51 64  1  0  0  0  0
 52 64  1  0  0  0  0
 53 64  1  0  0  0  0
 54 67  1  0  0  0  0
 55 75  1  0  0  0  0
 56 76  1  0  0  0  0
 57 58  1  0  0  0  0
 57 60  1  0  0  0  0
 58 76  1  0  0  0  0
 59 63  1  0  0  0  0
 59 76  1  0  0  0  0
 60 83  1  0  0  0  0
 61 64  1  0  0  0  0
 61 74  1  0  0  0  0
 62 75  1  0  0  0  0
 65 68  1  0  0  0  0
 66 67  1  0  0  0  0
M  CHG  2  75   1  76   1
M  ISO  4  28 100  32 100  60 101  83 101
M  END
> <Batch ID>
0052

> <Smiles>
CNC(C)C(=O)NC(C(=O)N1Cc2cc([101O:1][101CH2:1]CCN(C)CC(C)(C)c3c[100c:0]([100C:0](=O)N4CCCC(n5nc(-c6ccc(Oc7ccc(F)cc7F)cc6)c(C(N)=O)c5N)C4)n(C)n3)ccc2CC1C(=O)NC1CCCc2ccccc21)C(C)(C)C

> <Shape>
0.276

> <Color>
0.088

> <Negative vol penalty>
0.000

$$$$

  -OEChem-04052317363D

 84 92  0     1  0  0  0  0  0999 V2000
  -19.3732  -23.7143   20.2119 C   0  0  0  0  0  0  0  0  0  0  0  0
  -20.6199  -23.1965   19.8759 C   0  0  0  0  0  0  0  0  0  0  0  0
  -22.9728   -9.9122   20.0029 C   0  0  0  0  0  0  0  0  0  0  0  0
  -23.7405   -9.9583   22.2932 C   0  0  0  0  0  0  0  0  0  0  0  0
  -19.2849  -24.9113   20.9214 C   0  0  0  0  0  0  0  0  0  0  0  0
  -21.7792  -23.8761   20.2483 C   0  0  0  0  0  0  0  0  0  0  0  0
  -25.3095  -20.7910   22.1627 C   0  0  0  0  0  0  0  0  0  0  0  0
  -22.2046   -8.7821   20.2832 C   0  0  0  0  0  0  0  0  0  0  0  0
  -22.9723   -8.8283   22.5735 C   0  0  0  0  0  0  0  0  0  0  0  0
  -26.0524  -20.0344   21.2575 C   0  0  0  0  0  0  0  0  0  0  0  0
  -23.1882   -5.4881   22.0968 C   0  0  0  0  0  0  0  0  0  0  0  0
  -23.7835   -4.4673   22.8378 C   0  0  0  0  0  0  0  0  0  0  0  0
  -27.8662  -21.6149   21.4344 C   0  0  0  0  0  0  0  0  0  0  0  0
  -22.0922   -4.7200   24.5445 C   0  0  0  0  0  0  0  0  0  0  0  0
  -23.7408  -10.5002   21.0079 C   0  0  0  0  0  0  0  0  0  0  0  0
  -24.1377  -13.0135   20.8251 C   0  0  0  0  0  0  0  0  0  0  0  0
  -20.4439  -25.6009   21.3111 C   0  0  0  0  0  0  0  0  0  0  0  0
  -25.8360  -21.9731   22.7030 C   0  0  0  0  0  0  0  0  0  0  0  0
  -21.7064  -25.0841   20.9625 C   0  0  0  0  0  0  0  0  0  0  0  0
  -27.1290  -22.3834   22.3481 C   0  0  0  0  0  0  0  0  0  0  0  0
  -22.2043   -8.2402   21.5685 C   0  0  0  0  0  0  0  0  0  0  0  0
  -27.3299  -20.4477   20.8910 C   0  0  0  0  0  0  0  0  0  0  0  0
  -22.0449   -6.1250   22.5796 C   0  0  0  0  0  0  0  0  0  0  0  0
  -23.2355   -4.0832   24.0617 C   0  0  0  0  0  0  0  0  0  0  0  0
  -21.4969   -5.7409   23.8035 C   0  0  0  0  0  0  0  0  0  0  0  0
  -24.5350  -11.6672   20.7189 C   0  0  0  0  0  0  0  0  0  0  0  0
  -25.2448  -13.7297   20.4405 C   0  0  0  0  0  0  0  0  0  0  0  0
  -31.9078  -18.5763   21.4531 C   0  0  0  0  0  0  0  0  0  0  0  0
  -30.2594  -17.8208   20.4191 C   0  0  0  0  0  0  0  0  0  0  0  0
  -22.8803  -13.5673   21.2350 C   0  0  0  0  0  0  0  0  0  0  0  0
  -25.0097  -25.0412   22.6175 C   0  0  0  0  0  0  0  0  0  0  0  0
  -30.7700  -14.5672   20.6864 C   0  0  0  0  0  0  0  0  0  0  0  0
  -27.4462  -25.3542   24.7359 C   0  0  0  0  0  0  0  0  0  0  0  0
  -30.3691  -24.1198   25.9929 C   0  0  0  0  0  0  0  0  0  0  0  0
  -20.2973  -26.9155   22.0357 C   0  0  0  0  0  0  0  0  0  0  0  0
  -25.0323  -22.7638   23.6986 C   0  0  0  0  0  0  0  0  0  0  0  0
  -27.7478  -23.6339   22.9152 C   0  0  0  0  0  0  0  0  0  0  0  0
  -21.5808  -27.3810   22.7184 C   0  0  0  0  0  0  0  0  0  0  0  0
  -29.5463  -12.2368   18.2550 C   0  0  0  0  0  0  0  0  0  0  0  0
  -22.7692  -27.2430   21.7721 C   0  0  0  0  0  0  0  0  0  0  0  0
  -28.1110  -11.9685   18.7055 C   0  0  0  0  0  0  0  0  0  0  0  0
  -30.4752  -12.4483   19.4464 C   0  0  0  0  0  0  0  0  0  0  0  0
  -28.5933  -13.2588   20.8333 C   0  0  0  0  0  0  0  0  0  0  0  0
  -22.9873  -25.7793   21.3702 C   0  0  1  0  0  0  0  0  0  0  0  0
  -25.4662  -24.2234   23.7924 C   0  0  1  0  0  0  0  0  0  0  0  0
  -27.6160  -13.0699   19.6595 C   0  0  2  0  0  0  0  0  0  0  0  0
  -32.1645  -19.1968   26.8827 C   0  0  0  0  0  0  0  0  0  0  0  0
  -30.3727  -15.1800   23.0616 C   0  0  0  0  0  0  0  0  0  0  0  0
  -32.3534  -23.9336   27.5177 C   0  0  0  0  0  0  0  0  0  0  0  0
  -28.6017  -27.4993   22.8992 C   0  0  0  0  0  0  0  0  0  0  0  0
  -30.7781  -27.2695   24.1153 C   0  0  0  0  0  0  0  0  0  0  0  0
  -28.7416  -28.0293   25.3393 C   0  0  0  0  0  0  0  0  0  0  0  0
  -28.8918  -22.4005   27.8957 C   0  0  0  0  0  0  0  0  0  0  0  0
  -32.9696  -19.4986   21.8725 C   0  0  0  0  0  0  0  0  0  0  0  0
  -29.0779  -17.5798   19.5113 C   0  0  0  0  0  0  0  0  0  0  0  0
  -32.2701  -20.1141   25.6748 C   0  0  0  0  0  0  0  0  0  0  0  0
  -32.6775  -20.2564   23.1859 C   0  0  0  0  0  0  0  0  0  0  0  0
  -32.5336  -19.3236   24.3926 C   0  0  0  0  0  0  0  0  0  0  0  0
  -27.8233  -18.3038   19.9878 C   0  0  0  0  0  0  0  0  0  1  0  0
  -30.1672  -15.5977   21.6077 C   0  0  1  0  0  0  0  0  0  0  0  0
  -28.9301  -25.6104   24.6284 C   0  0  1  0  0  0  0  0  0  0  0  0
  -30.8363  -23.8940   27.4195 C   0  0  2  0  0  0  0  0  0  0  0  0
  -29.2507  -27.0795   24.2332 C   0  0  0  0  0  0  0  0  0  0  0  0
  -25.7960  -11.5333   20.2994 N   0  0  0  0  0  0  0  0  0  0  0  0
  -31.0119  -18.8951   20.4731 N   0  0  0  0  0  0  0  0  0  0  0  0
  -31.7570  -17.3722   22.0088 N   0  0  0  0  0  0  0  0  0  0  0  0
  -26.2006  -12.8047   20.1386 N   0  0  0  0  0  0  0  0  0  0  0  0
  -30.6962  -16.9099   21.3297 N   0  0  0  0  0  0  0  0  0  0  0  0
  -26.9199  -24.3763   23.8801 N   0  0  0  0  0  0  0  0  0  0  0  0
  -29.9588  -13.4864   20.3402 N   0  0  0  0  0  0  0  0  0  0  0  0
  -25.4842  -15.0540   20.3343 N   0  0  0  0  0  0  0  0  0  0  0  0
  -21.8498  -12.6892   21.5974 N   0  0  0  0  0  0  0  0  0  0  0  0
  -23.6395  -25.0535   22.4389 N   0  0  0  0  0  0  0  0  0  0  0  0
  -29.5094  -25.1939   25.9010 N   0  0  0  0  0  0  0  0  0  0  0  0
  -30.3677  -22.5688   27.9145 N   0  3  0  0  0  0  0  0  0  0  0  0
  -22.6713  -14.8039   21.2629 O   0  0  0  0  0  0  0  0  0  0  0  0
  -25.8391  -25.6197   21.9252 O   0  0  0  0  0  0  0  0  0  0  0  0
  -31.9264  -14.7216   20.2850 O   0  0  0  0  0  0  0  0  0  0  0  0
  -26.7800  -25.9930   25.5543 O   0  0  0  0  0  0  0  0  0  0  0  0
  -30.7333  -23.4160   25.0534 O   0  0  0  0  0  0  0  0  0  0  0  0
  -21.4547   -7.1377   21.8424 O   0  0  0  0  0  0  0  0  0  0  0  0
  -28.0569  -19.7114   20.0072 O   0  0  0  0  0  0  0  0  0  1  0  0
  -23.8063   -3.1019   24.7725 F   0  0  0  0  0  0  0  0  0  0  0  0
  -20.3980   -6.3482   24.2719 F   0  0  0  0  0  0  0  0  0  0  0  0
  1  2  1  0  0  0  0
  1  5  2  0  0  0  0
  2  6  2  0  0  0  0
  3  8  2  0  0  0  0
  3 15  1  0  0  0  0
  4  9  1  0  0  0  0
  4 15  2  0  0  0  0
  5 17  1  0  0  0  0
  6 19  1  0  0  0  0
  7 10  2  0  0  0  0
  7 18  1  0  0  0  0
  8 21  1  0  0  0  0
  9 21  2  0  0  0  0
 10 22  1  0  0  0  0
 11 12  2  0  0  0  0
 11 23  1  0  0  0  0
 12 24  1  0  0  0  0
 13 20  1  0  0  0  0
 13 22  2  0  0  0  0
 14 24  2  0  0  0  0
 14 25  1  0  0  0  0
 15 26  1  0  0  0  0
 16 26  1  0  0  0  0
 16 27  2  0  0  0  0
 16 30  1  0  0  0  0
 17 19  2  0  0  0  0
 17 35  1  0  0  0  0
 18 20  2  0  0  0  0
 18 36  1  0  0  0  0
 19 44  1  0  0  0  0
 20 37  1  0  0  0  0
 21 81  1  0  0  0  0
 22 82  1  0  0  0  0
 23 25  2  0  0  0  0
 23 81  1  0  0  0  0
 24 83  1  0  0  0  0
 25 84  1  0  0  0  0
 26 64  2  0  0  0  0
 27 67  1  0  0  0  0
 27 71  1  0  0  0  0
 28 54  1  0  0  0  0
 28 65  1  0  0  0  0
 28 66  2  0  0  0  0
 29 55  1  0  0  0  0
 29 65  2  0  0  0  0
 29 68  1  0  0  0  0
 30 72  1  0  0  0  0
 30 76  2  0  0  0  0
 31 45  1  0  0  0  0
 31 73  1  0  0  0  0
 31 77  2  0  0  0  0
 32 60  1  0  0  0  0
 32 70  1  0  0  0  0
 32 78  2  0  0  0  0
 33 61  1  0  0  0  0
 33 69  1  0  0  0  0
 33 79  2  0  0  0  0
 34 62  1  0  0  0  0
 34 74  1  0  0  0  0
 34 80  2  0  0  0  0
 35 38  1  0  0  0  0
 36 45  1  0  0  0  0
 37 69  1  0  0  0  0
 38 40  1  0  0  0  0
 39 41  1  0  0  0  0
 39 42  1  0  0  0  0
 40 44  1  0  0  0  0
 41 46  1  0  0  0  0
 42 70  1  0  0  0  0
 43 46  1  0  0  0  0
 43 70  1  0  0  0  0
 44 73  1  0  0  0  0
 45 69  1  0  0  0  0
 46 67  1  0  0  0  0
 47 56  1  0  0  0  0
 48 60  1  0  0  0  0
 49 62  1  0  0  0  0
 50 63  1  0  0  0  0
 51 63  1  0  0  0  0
 52 63  1  0  0  0  0
 53 75  1  0  0  0  0
 54 57  1  0  0  0  0
 55 59  1  0  0  0  0
 56 58  1  0  0  0  0
 57 58  1  0  0  0  0
 59 82  1  0  0  0  0
 60 68  1  0  0  0  0
 61 63  1  0  0  0  0
 61 74  1  0  0  0  0
 62 75  1  0  0  0  0
 64 67  1  0  0  0  0
 66 68  1  0  0  0  0
M  CHG  1  75   1
M  ISO  4  32 100  59 101  60 100  82 101
M  END
> <Batch ID>
0052

> <Smiles>
CCCCCc1nc(C[101CH2:1][101O:1]c2ccc3c(c2)CN(C(=O)C(NC(=O)C(C)NC)C(C)(C)C)C(C(=O)NC2CCCc4ccccc42)C3)n([100CH:0](C)[100C:0](=O)N2CCCC(n3nc(-c4ccc(Oc5ccc(F)cc5F)cc4)c(C(N)=O)c3N)C2)n1

> <Shape>
0.245

> <Color>
0.197

> <Negative vol penalty>
0.000

$$$$

  -OEChem-04052317363D

 80 88  0     1  0  0  0  0  0999 V2000
  -17.3850  -30.7220   24.3041 C   0  0  0  0  0  0  0  0  0  0  0  0
  -18.5324  -30.4335   25.0359 C   0  0  0  0  0  0  0  0  0  0  0  0
  -26.5871  -18.6606   19.5007 C   0  0  0  0  0  0  0  0  0  0  0  0
  -27.6502  -18.0034   21.5683 C   0  0  0  0  0  0  0  0  0  0  0  0
  -17.1215  -30.0312   23.1220 C   0  0  0  0  0  0  0  0  0  0  0  0
  -19.4164  -29.4532   24.5867 C   0  0  0  0  0  0  0  0  0  0  0  0
  -25.5134  -29.4507   25.1635 C   0  0  0  0  0  0  0  0  0  0  0  0
  -26.0992  -17.3639   19.3393 C   0  0  0  0  0  0  0  0  0  0  0  0
  -27.1622  -16.7067   21.4070 C   0  0  0  0  0  0  0  0  0  0  0  0
  -26.3694  -28.8293   26.0717 C   0  0  0  0  0  0  0  0  0  0  0  0
  -27.9479  -13.9553   19.6059 C   0  0  0  0  0  0  0  0  0  0  0  0
  -28.8283  -12.8983   19.8364 C   0  0  0  0  0  0  0  0  0  0  0  0
  -26.6980  -27.0176   24.5131 C   0  0  0  0  0  0  0  0  0  0  0  0
  -27.3810  -12.0744   21.5868 C   0  0  0  0  0  0  0  0  0  0  0  0
  -31.5622  -25.7575   26.7542 C   0  0  0  0  0  0  0  0  0  0  0  0
  -31.4570  -27.3810   24.6375 C   0  0  0  0  0  0  0  0  0  0  0  0
  -27.3627  -18.9804   20.6151 C   0  0  0  0  0  0  0  0  0  0  0  0
  -27.2373  -21.3889   21.4462 C   0  0  0  0  0  0  0  0  0  0  0  0
  -18.0076  -29.0487   22.6530 C   0  0  0  0  0  0  0  0  0  0  0  0
  -25.2343  -28.8539   23.9256 C   0  0  0  0  0  0  0  0  0  0  0  0
  -19.1639  -28.7477   23.3979 C   0  0  0  0  0  0  0  0  0  0  0  0
  -25.8402  -27.6348   23.5899 C   0  0  0  0  0  0  0  0  0  0  0  0
  -26.3867  -16.3869   20.2925 C   0  0  0  0  0  0  0  0  0  0  0  0
  -26.9596  -27.6111   25.7478 C   0  0  0  0  0  0  0  0  0  0  0  0
  -26.7841  -14.0720   20.3660 C   0  0  0  0  0  0  0  0  0  0  0  0
  -28.5449  -11.9578   20.8267 C   0  0  0  0  0  0  0  0  0  0  0  0
  -26.5006  -13.1315   21.3563 C   0  0  0  0  0  0  0  0  0  0  0  0
  -27.8674  -20.3196   20.7821 C   0  0  0  0  0  0  0  0  0  0  0  0
  -30.7209  -26.8480   26.7359 C   0  0  0  0  0  0  0  0  0  0  0  0
  -32.2990  -26.2910   24.6559 C   0  0  0  0  0  0  0  0  0  0  0  0
  -28.1191  -22.4351   21.3264 C   0  0  0  0  0  0  0  0  0  0  0  0
  -25.9682  -21.4327   22.1121 C   0  0  0  0  0  0  0  0  0  0  0  0
  -22.6103  -27.7603   22.5035 C   0  0  0  0  0  0  0  0  0  0  0  0
  -24.6094  -27.3764   19.9779 C   0  0  0  0  0  0  0  0  0  0  0  0
  -27.8019  -26.9558   18.8477 C   0  0  0  0  0  0  0  0  0  0  0  0
  -33.3110  -24.4717   21.5321 C   0  0  0  0  0  0  0  0  0  0  0  0
  -17.6564  -28.2954   21.3945 C   0  0  0  0  0  0  0  0  0  0  0  0
  -24.3297  -29.5501   22.9461 C   0  0  0  0  0  0  0  0  0  0  0  0
  -25.5891  -26.9625   22.2657 C   0  0  0  0  0  0  0  0  0  0  0  0
  -18.8340  -27.5337   20.7917 C   0  0  0  0  0  0  0  0  0  0  0  0
  -32.2824  -22.9236   18.4953 C   0  0  0  0  0  0  0  0  0  0  0  0
  -19.5795  -26.7598   21.8744 C   0  0  0  0  0  0  0  0  0  0  0  0
  -30.9942  -22.1916   18.8759 C   0  0  0  0  0  0  0  0  0  0  0  0
  -33.3070  -22.8882   19.6271 C   0  0  0  0  0  0  0  0  0  0  0  0
  -31.5219  -22.6426   21.3084 C   0  0  0  0  0  0  0  0  0  0  0  0
  -20.1596  -27.7084   22.9304 C   0  0  1  0  0  0  0  0  0  0  0  0
  -23.7125  -28.6008   21.9237 C   0  0  1  0  0  0  0  0  0  0  0  0
  -30.4369  -22.6992   20.2194 C   0  0  2  0  0  0  0  0  0  0  0  0
  -29.1174  -26.6338   16.7351 C   0  0  0  0  0  0  0  0  0  0  0  0
  -23.6861  -24.4711   19.8487 C   0  0  0  0  0  0  0  0  0  0  0  0
  -25.6692  -23.9781   18.4021 C   0  0  0  0  0  0  0  0  0  0  0  0
  -23.9297  -25.5882   17.6245 C   0  0  0  0  0  0  0  0  0  0  0  0
  -29.3336  -29.4503   19.2839 C   0  0  0  0  0  0  0  0  0  0  0  0
  -29.8336  -27.1513   27.9188 C   0  0  0  0  0  0  0  0  0  0  0  0
  -33.1738  -25.9916   23.4892 C   0  0  0  0  0  0  0  0  0  0  0  0
  -28.5395  -27.8464   27.5097 C   0  0  0  0  0  0  0  0  0  1  0  0
  -25.5047  -26.2667   19.4821 C   0  0  1  0  0  0  0  0  0  0  0  0
  -28.5757  -27.6420   17.7365 C   0  0  2  0  0  0  0  0  0  0  0  0
  -24.7008  -25.0875   18.8652 C   0  0  0  0  0  0  0  0  0  0  0  0
  -30.6529  -27.6792   25.6772 N   0  0  0  0  0  0  0  0  0  0  0  0
  -32.3666  -25.4596   25.7146 N   0  0  0  0  0  0  0  0  0  0  0  0
  -29.0576  -20.6555   20.2775 N   0  0  0  0  0  0  0  0  0  0  0  0
  -29.1823  -21.9478   20.6247 N   0  0  0  0  0  0  0  0  0  0  0  0
  -24.6923  -27.6796   21.3443 N   0  0  0  0  0  0  0  0  0  0  0  0
  -32.7158  -23.3837   20.8724 N   0  0  0  0  0  0  0  0  0  0  0  0
  -28.0810  -23.7151   21.7536 N   0  0  0  0  0  0  0  0  0  0  0  0
  -25.1888  -20.2683   22.1418 N   0  0  0  0  0  0  0  0  0  0  0  0
  -21.3603  -28.3451   22.4329 N   0  0  0  0  0  0  0  0  0  0  0  0
  -26.4542  -26.8873   18.5647 N   0  0  0  0  0  0  0  0  0  0  0  0
  -32.6836  -24.8821   22.7020 N   0  0  0  0  0  0  0  0  0  0  0  0
  -29.7235  -28.4072   18.3006 N   0  3  0  0  0  0  0  0  0  0  0  0
  -25.5309  -22.4781   22.6502 O   0  0  0  0  0  0  0  0  0  0  0  0
  -22.8741  -26.6618   22.9784 O   0  0  0  0  0  0  0  0  0  0  0  0
  -23.8690  -27.9579   19.1807 O   0  0  0  0  0  0  0  0  0  0  0  0
  -28.3398  -26.5204   19.8634 O   0  0  0  0  0  0  0  0  0  0  0  0
  -34.3231  -25.0389   21.1069 O   0  0  0  0  0  0  0  0  0  0  0  0
  -25.9106  -15.1215   20.1355 O   0  0  0  0  0  0  0  0  0  0  0  0
  -27.7950  -27.0021   26.6327 O   0  0  0  0  0  0  0  0  0  1  0  0
  -29.3897  -10.9419   21.0469 F   0  0  0  0  0  0  0  0  0  0  0  0
  -25.3835  -13.2377   22.0889 F   0  0  0  0  0  0  0  0  0  0  0  0
  1  2  1  0  0  0  0
  1  5  2  0  0  0  0
  2  6  2  0  0  0  0
  3  8  2  0  0  0  0
  3 17  1  0  0  0  0
  4  9  1  0  0  0  0
  4 17  2  0  0  0  0
  5 19  1  0  0  0  0
  6 21  1  0  0  0  0
  7 10  2  0  0  0  0
  7 20  1  0  0  0  0
  8 23  1  0  0  0  0
  9 23  2  0  0  0  0
 10 24  1  0  0  0  0
 11 12  2  0  0  0  0
 11 25  1  0  0  0  0
 12 26  1  0  0  0  0
 13 22  1  0  0  0  0
 13 24  2  0  0  0  0
 14 26  2  0  0  0  0
 14 27  1  0  0  0  0
 15 29  1  0  0  0  0
 15 61  2  0  0  0  0
 16 30  2  0  0  0  0
 16 60  1  0  0  0  0
 17 28  1  0  0  0  0
 18 28  1  0  0  0  0
 18 31  2  0  0  0  0
 18 32  1  0  0  0  0
 19 21  2  0  0  0  0
 19 37  1  0  0  0  0
 20 22  2  0  0  0  0
 20 38  1  0  0  0  0
 21 46  1  0  0  0  0
 22 39  1  0  0  0  0
 23 77  1  0  0  0  0
 24 78  1  0  0  0  0
 25 27  2  0  0  0  0
 25 77  1  0  0  0  0
 26 79  1  0  0  0  0
 27 80  1  0  0  0  0
 28 62  2  0  0  0  0
 29 54  1  0  0  0  0
 29 60  2  0  0  0  0
 30 55  1  0  0  0  0
 30 61  1  0  0  0  0
 31 63  1  0  0  0  0
 31 66  1  0  0  0  0
 32 67  1  0  0  0  0
 32 72  2  0  0  0  0
 33 47  1  0  0  0  0
 33 68  1  0  0  0  0
 33 73  2  0  0  0  0
 34 57  1  0  0  0  0
 34 64  1  0  0  0  0
 34 74  2  0  0  0  0
 35 58  1  0  0  0  0
 35 69  1  0  0  0  0
 35 75  2  0  0  0  0
 36 65  1  0  0  0  0
 36 70  1  0  0  0  0
 36 76  2  0  0  0  0
 37 40  1  0  0  0  0
 38 47  1  0  0  0  0
 39 64  1  0  0  0  0
 40 42  1  0  0  0  0
 41 43  1  0  0  0  0
 41 44  1  0  0  0  0
 42 46  1  0  0  0  0
 43 48  1  0  0  0  0
 44 65  1  0  0  0  0
 45 48  1  0  0  0  0
 45 65  1  0  0  0  0
 46 68  1  0  0  0  0
 47 64  1  0  0  0  0
 48 63  1  0  0  0  0
 49 58  1  0  0  0  0
 50 59  1  0  0  0  0
 51 59  1  0  0  0  0
 52 59  1  0  0  0  0
 53 71  1  0  0  0  0
 54 56  1  0  0  0  0
 55 70  1  0  0  0  0
 56 78  1  0  0  0  0
 57 59  1  0  0  0  0
 57 69  1  0  0  0  0
 58 71  1  0  0  0  0
 62 63  1  0  0  0  0
M  CHG  1  71   1
M  ISO  4  36 100  56 101  70 100  78 101
M  END
> <Batch ID>
0052

> <Smiles>
CNC(C)C(=O)NC(C(=O)N1Cc2cc([101O:1][101CH2:1]Cc3cnc(C[100NH:0][100C:0](=O)N4CCCC(n5nc(-c6ccc(Oc7ccc(F)cc7F)cc6)c(C(N)=O)c5N)C4)cn3)ccc2CC1C(=O)NC1CCCc2ccccc21)C(C)(C)C

> <Shape>
0.204

> <Color>
0.079

> <Negative vol penalty>
0.000

$$$$

  -OEChem-04052317363D

 81 89  0     1  0  0  0  0  0999 V2000
  -17.5415  -32.8035   21.5039 C   0  0  0  0  0  0  0  0  0  0  0  0
  -18.7781  -32.7903   20.8666 C   0  0  0  0  0  0  0  0  0  0  0  0
  -24.9716  -12.4392   19.3212 C   0  0  0  0  0  0  0  0  0  0  0  0
  -24.7811  -12.6670   21.7189 C   0  0  0  0  0  0  0  0  0  0  0  0
  -17.3764  -32.1354   22.7165 C   0  0  0  0  0  0  0  0  0  0  0  0
  -19.8506  -32.1099   21.4421 C   0  0  0  0  0  0  0  0  0  0  0  0
  -25.6973  -28.3753   19.6574 C   0  0  0  0  0  0  0  0  0  0  0  0
  -24.9627  -11.0506   19.4524 C   0  0  0  0  0  0  0  0  0  0  0  0
  -24.7721  -11.2783   21.8501 C   0  0  0  0  0  0  0  0  0  0  0  0
  -27.0676  -28.3334   19.9111 C   0  0  0  0  0  0  0  0  0  0  0  0
  -24.3359   -7.7929   22.7880 C   0  0  0  0  0  0  0  0  0  0  0  0
  -23.3935   -7.2280   23.6472 C   0  0  0  0  0  0  0  0  0  0  0  0
  -26.6444  -27.1482   21.9690 C   0  0  0  0  0  0  0  0  0  0  0  0
  -21.6133   -8.1884   22.3259 C   0  0  0  0  0  0  0  0  0  0  0  0
  -30.0036  -23.5822   18.1642 C   0  0  0  0  0  0  0  0  0  0  0  0
  -24.8809  -13.2474   20.4545 C   0  0  0  0  0  0  0  0  0  0  0  0
  -23.7778  -15.5275   20.1511 C   0  0  0  0  0  0  0  0  0  0  0  0
  -18.4448  -31.4383   23.3023 C   0  0  0  0  0  0  0  0  0  0  0  0
  -24.7880  -27.8126   20.5646 C   0  0  0  0  0  0  0  0  0  0  0  0
  -19.6999  -31.4329   22.6643 C   0  0  0  0  0  0  0  0  0  0  0  0
  -25.2632  -27.1820   21.7234 C   0  0  0  0  0  0  0  0  0  0  0  0
  -24.8629  -10.4701   20.7168 C   0  0  0  0  0  0  0  0  0  0  0  0
  -27.5412  -27.7223   21.0684 C   0  0  0  0  0  0  0  0  0  0  0  0
  -23.9171   -8.5556   21.6977 C   0  0  0  0  0  0  0  0  0  0  0  0
  -22.0322   -7.4257   23.4162 C   0  0  0  0  0  0  0  0  0  0  0  0
  -22.5557   -8.7533   21.4667 C   0  0  0  0  0  0  0  0  0  0  0  0
  -24.8906  -14.6819   20.3197 C   0  0  0  0  0  0  0  0  0  0  0  0
  -24.3141  -16.7897   20.0747 C   0  0  0  0  0  0  0  0  0  0  0  0
  -29.0378  -23.8512   19.9950 C   0  0  0  0  0  0  0  0  0  0  0  0
  -22.3840  -15.2013   20.0709 C   0  0  0  0  0  0  0  0  0  0  0  0
  -22.4073  -28.9389   22.3444 C   0  0  0  0  0  0  0  0  0  0  0  0
  -21.9372  -25.7989   23.0091 C   0  0  0  0  0  0  0  0  0  0  0  0
  -23.2416  -22.6511   23.2006 C   0  0  0  0  0  0  0  0  0  0  0  0
  -27.7110  -20.6376   21.9725 C   0  0  0  0  0  0  0  0  0  0  0  0
  -18.2308  -30.7706   24.6376 C   0  0  0  0  0  0  0  0  0  0  0  0
  -23.3147  -27.8425   20.2633 C   0  0  0  0  0  0  0  0  0  0  0  0
  -24.3298  -26.5451   22.7192 C   0  0  0  0  0  0  0  0  0  0  0  0
  -19.3174  -29.7594   24.9940 C   0  0  0  0  0  0  0  0  0  0  0  0
  -29.1160  -18.3052   19.5886 C   0  0  0  0  0  0  0  0  0  0  0  0
  -20.7003  -30.3462   24.7292 C   0  0  0  0  0  0  0  0  0  0  0  0
  -28.0394  -17.2189   19.5552 C   0  0  0  0  0  0  0  0  0  0  0  0
  -29.2923  -18.8656   20.9968 C   0  0  0  0  0  0  0  0  0  0  0  0
  -26.9637  -18.3074   21.5794 C   0  0  0  0  0  0  0  0  0  0  0  0
  -20.8807  -30.6852   23.2446 C   0  0  1  0  0  0  0  0  0  0  0  0
  -22.4469  -27.6907   21.5088 C   0  0  1  0  0  0  0  0  0  0  0  0
  -26.7219  -17.7164   20.1786 C   0  0  2  0  0  0  0  0  0  0  0  0
  -22.6242  -20.2967   23.8111 C   0  0  0  0  0  0  0  0  0  0  0  0
  -22.0674  -26.5345   25.9675 C   0  0  0  0  0  0  0  0  0  0  0  0
  -22.4011  -24.1077   26.4847 C   0  0  0  0  0  0  0  0  0  0  0  0
  -20.2959  -24.8685   25.3837 C   0  0  0  0  0  0  0  0  0  0  0  0
  -23.8310  -21.6659   20.4727 C   0  0  0  0  0  0  0  0  0  0  0  0
  -28.1295  -23.8312   21.1556 C   0  0  0  0  0  0  0  0  0  0  0  0
  -31.0214  -26.8996   20.5753 C   0  0  0  0  0  0  0  0  0  0  0  0
  -30.7655  -25.4634   21.0374 C   0  0  0  0  0  0  0  0  0  0  0  0
  -28.6014  -22.9287   22.3115 C   0  0  0  0  0  0  0  0  0  0  0  0
  -29.7496  -27.6457   20.1892 C   0  0  0  0  0  0  0  0  0  1  0  0
  -22.4480  -24.8399   24.0572 C   0  0  1  0  0  0  0  0  0  0  0  0
  -22.7314  -21.3164   22.6880 C   0  0  2  0  0  0  0  0  0  0  0  0
  -21.8208  -25.1012   25.4557 C   0  0  0  0  0  0  0  0  0  0  0  0
  -28.8907  -23.2068   18.8607 N   0  0  0  0  0  0  0  0  0  0  0  0
  -30.8301  -24.4182   18.7961 N   0  0  0  0  0  0  0  0  0  0  0  0
  -26.0466  -15.3505   20.3485 N   0  0  0  0  0  0  0  0  0  0  0  0
  -25.6630  -16.6296   20.1970 N   0  0  0  0  0  0  0  0  0  0  0  0
  -30.1893  -24.5743   19.9646 N   0  0  0  0  0  0  0  0  0  0  0  0
  -22.8977  -26.6058   22.3830 N   0  0  0  0  0  0  0  0  0  0  0  0
  -28.0051  -19.3388   21.5251 N   0  0  0  0  0  0  0  0  0  0  0  0
  -23.7587  -18.0097   19.9154 N   0  0  0  0  0  0  0  0  0  0  0  0
  -22.0062  -13.8551   20.1680 N   0  0  0  0  0  0  0  0  0  0  0  0
  -21.1453  -29.4849   22.4806 N   0  0  0  0  0  0  0  0  0  0  0  0
  -22.2071  -23.4989   23.5355 N   0  0  0  0  0  0  0  0  0  0  0  0
  -28.7537  -21.5527   21.8941 N   0  0  0  0  0  0  0  0  0  0  0  0
  -23.6512  -20.7751   21.6479 N   0  3  0  0  0  0  0  0  0  0  0  0
  -21.5010  -16.0760   19.9012 O   0  0  0  0  0  0  0  0  0  0  0  0
  -23.4448  -29.3735   22.8307 O   0  0  0  0  0  0  0  0  0  0  0  0
  -20.7314  -25.8258   22.7504 O   0  0  0  0  0  0  0  0  0  0  0  0
  -24.4383  -22.9138   23.2979 O   0  0  0  0  0  0  0  0  0  0  0  0
  -26.5991  -20.9597   22.4051 O   0  0  0  0  0  0  0  0  0  0  0  0
  -24.8539   -9.1151   20.8452 O   0  0  0  0  0  0  0  0  0  0  0  0
  -28.8781  -27.6806   21.3187 O   0  0  0  0  0  0  0  0  0  1  0  0
  -21.1272   -6.8818   24.2405 F   0  0  0  0  0  0  0  0  0  0  0  0
  -22.1473   -9.4841   20.4204 F   0  0  0  0  0  0  0  0  0  0  0  0
  1  2  1  0  0  0  0
  1  5  2  0  0  0  0
  2  6  2  0  0  0  0
  3  8  2  0  0  0  0
  3 16  1  0  0  0  0
  4  9  1  0  0  0  0
  4 16  2  0  0  0  0
  5 18  1  0  0  0  0
  6 20  1  0  0  0  0
  7 10  2  0  0  0  0
  7 19  1  0  0  0  0
  8 22  1  0  0  0  0
  9 22  2  0  0  0  0
 10 23  1  0  0  0  0
 11 12  2  0  0  0  0
 11 24  1  0  0  0  0
 12 25  1  0  0  0  0
 13 21  1  0  0  0  0
 13 23  2  0  0  0  0
 14 25  2  0  0  0  0
 14 26  1  0  0  0  0
 15 60  1  0  0  0  0
 15 61  2  0  0  0  0
 16 27  1  0  0  0  0
 17 27  1  0  0  0  0
 17 28  2  0  0  0  0
 17 30  1  0  0  0  0
 18 20  2  0  0  0  0
 18 35  1  0  0  0  0
 19 21  2  0  0  0  0
 19 36  1  0  0  0  0
 20 44  1  0  0  0  0
 21 37  1  0  0  0  0
 22 78  1  0  0  0  0
 23 79  1  0  0  0  0
 24 26  2  0  0  0  0
 24 78  1  0  0  0  0
 25 80  1  0  0  0  0
 26 81  1  0  0  0  0
 27 62  2  0  0  0  0
 28 63  1  0  0  0  0
 28 67  1  0  0  0  0
 29 52  1  0  0  0  0
 29 60  2  0  0  0  0
 29 64  1  0  0  0  0
 30 68  1  0  0  0  0
 30 73  2  0  0  0  0
 31 45  1  0  0  0  0
 31 69  1  0  0  0  0
 31 74  2  0  0  0  0
 32 57  1  0  0  0  0
 32 65  1  0  0  0  0
 32 75  2  0  0  0  0
 33 58  1  0  0  0  0
 33 70  1  0  0  0  0
 33 76  2  0  0  0  0
 34 66  1  0  0  0  0
 34 71  1  0  0  0  0
 34 77  2  0  0  0  0
 35 38  1  0  0  0  0
 36 45  1  0  0  0  0
 37 65  1  0  0  0  0
 38 40  1  0  0  0  0
 39 41  1  0  0  0  0
 39 42  1  0  0  0  0
 40 44  1  0  0  0  0
 41 46  1  0  0  0  0
 42 66  1  0  0  0  0
 43 46  1  0  0  0  0
 43 66  1  0  0  0  0
 44 69  1  0  0  0  0
 45 65  1  0  0  0  0
 46 63  1  0  0  0  0
 47 58  1  0  0  0  0
 48 59  1  0  0  0  0
 49 59  1  0  0  0  0
 50 59  1  0  0  0  0
 51 72  1  0  0  0  0
 52 55  1  0  0  0  0
 53 54  1  0  0  0  0
 53 56  1  0  0  0  0
 54 64  1  0  0  0  0
 55 71  1  0  0  0  0
 56 79  1  0  0  0  0
 57 59  1  0  0  0  0
 57 70  1  0  0  0  0
 58 72  1  0  0  0  0
 61 64  1  0  0  0  0
 62 63  1  0  0  0  0
M  CHG  1  72   1
M  ISO  4  34 100  56 101  71 100  79 101
M  END
> <Batch ID>
0052

> <Smiles>
CNC(C)C(=O)NC(C(=O)N1Cc2cc([101O:1][101CH2:1]CCn3ncnc3CC[100NH:0][100C:0](=O)N3CCCC(n4nc(-c5ccc(Oc6ccc(F)cc6F)cc5)c(C(N)=O)c4N)C3)ccc2CC1C(=O)NC1CCCc2ccccc21)C(C)(C)C

> <Shape>
0.249

> <Color>
0.087

> <Negative vol penalty>
0.000

$$$$

  -OEChem-04052317363D

 83 91  0     1  0  0  0  0  0999 V2000
  -35.7547  -27.8624   21.7398 C   0  0  0  0  0  0  0  0  0  0  0  0
  -34.9841  -26.7294   21.4994 C   0  0  0  0  0  0  0  0  0  0  0  0
  -23.3187   -9.6860   19.9744 C   0  0  0  0  0  0  0  0  0  0  0  0
  -23.8919   -9.9081   22.3109 C   0  0  0  0  0  0  0  0  0  0  0  0
  -35.1437  -29.1118   21.8378 C   0  0  0  0  0  0  0  0  0  0  0  0
  -33.6017  -26.8450   21.3579 C   0  0  0  0  0  0  0  0  0  0  0  0
  -31.8175  -24.1605   17.4521 C   0  0  0  0  0  0  0  0  0  0  0  0
  -22.6651   -8.4848   20.2489 C   0  0  0  0  0  0  0  0  0  0  0  0
  -23.2382   -8.7069   22.5854 C   0  0  0  0  0  0  0  0  0  0  0  0
  -31.6765  -22.7857   17.6359 C   0  0  0  0  0  0  0  0  0  0  0  0
  -21.4106   -5.8808   23.9606 C   0  0  0  0  0  0  0  0  0  0  0  0
  -20.5715   -5.8379   25.0740 C   0  0  0  0  0  0  0  0  0  0  0  0
  -29.3156  -23.0866   18.0298 C   0  0  0  0  0  0  0  0  0  0  0  0
  -19.2179   -7.5980   24.1217 C   0  0  0  0  0  0  0  0  0  0  0  0
  -23.9321  -10.3977   21.0054 C   0  0  0  0  0  0  0  0  0  0  0  0
  -24.0520  -12.9316   20.7360 C   0  0  0  0  0  0  0  0  0  0  0  0
  -33.7542  -29.2441   21.6877 C   0  0  0  0  0  0  0  0  0  0  0  0
  -30.7088  -25.0114   17.5667 C   0  0  0  0  0  0  0  0  0  0  0  0
  -32.9713  -28.0972   21.4552 C   0  0  0  0  0  0  0  0  0  0  0  0
  -29.4448  -24.4716   17.8444 C   0  0  0  0  0  0  0  0  0  0  0  0
  -22.6248   -7.9952   21.5544 C   0  0  0  0  0  0  0  0  0  0  0  0
  -30.4259  -22.2489   17.9277 C   0  0  0  0  0  0  0  0  0  0  0  0
  -21.1534   -6.7823   22.9277 C   0  0  0  0  0  0  0  0  0  0  0  0
  -19.4752   -6.6965   25.1546 C   0  0  0  0  0  0  0  0  0  0  0  0
  -20.0570   -7.6409   23.0083 C   0  0  0  0  0  0  0  0  0  0  0  0
  -24.6080  -11.6384   20.7224 C   0  0  0  0  0  0  0  0  0  0  0  0
  -25.0969  -13.7581   20.4020 C   0  0  0  0  0  0  0  0  0  0  0  0
  -30.9374  -17.3104   18.2961 C   0  0  0  0  0  0  0  0  0  0  0  0
  -22.7109  -13.3485   21.0249 C   0  0  0  0  0  0  0  0  0  0  0  0
  -29.9227  -27.4264   19.4781 C   0  0  0  0  0  0  0  0  0  0  0  0
  -27.3800  -27.6702   17.4786 C   0  0  0  0  0  0  0  0  0  0  0  0
  -25.2996  -26.1528   15.2389 C   0  0  0  0  0  0  0  0  0  0  0  0
  -30.1997  -15.4130   20.8300 C   0  0  0  0  0  0  0  0  0  0  0  0
  -33.1333  -30.6091   21.8488 C   0  0  0  0  0  0  0  0  0  0  0  0
  -30.8727  -26.4891   17.3392 C   0  0  0  0  0  0  0  0  0  0  0  0
  -28.2193  -25.3397   17.9580 C   0  0  0  0  0  0  0  0  0  0  0  0
  -31.7062  -30.6961   21.3139 C   0  0  0  0  0  0  0  0  0  0  0  0
  -29.7010  -12.7070   18.6162 C   0  0  0  0  0  0  0  0  0  0  0  0
  -30.8839  -29.5029   21.7903 C   0  0  0  0  0  0  0  0  0  0  0  0
  -28.2778  -12.2813   18.9744 C   0  0  0  0  0  0  0  0  0  0  0  0
  -30.5143  -13.0915   19.8535 C   0  0  0  0  0  0  0  0  0  0  0  0
  -28.4391  -13.6872   21.0623 C   0  0  0  0  0  0  0  0  0  0  0  0
  -31.4718  -28.1852   21.2712 C   0  0  1  0  0  0  0  0  0  0  0  0
  -29.7692  -27.3195   17.9872 C   0  0  1  0  0  0  0  0  0  0  0  0
  -27.5823  -13.3532   19.8315 C   0  0  2  0  0  0  0  0  0  0  0  0
  -23.2915  -26.5977   13.8012 C   0  0  0  0  0  0  0  0  0  0  0  0
  -32.8993  -18.8274   19.0351 C   0  0  0  0  0  0  0  0  0  0  0  0
  -33.2817  -16.4368   18.4923 C   0  0  0  0  0  0  0  0  0  0  0  0
  -25.5873  -27.5307   19.9437 C   0  0  0  0  0  0  0  0  0  0  0  0
  -23.6604  -27.0237   18.4277 C   0  0  0  0  0  0  0  0  0  0  0  0
  -24.8676  -29.1971   18.2233 C   0  0  0  0  0  0  0  0  0  0  0  0
  -32.6107  -14.7233   21.1712 C   0  0  0  0  0  0  0  0  0  0  0  0
  -26.7983  -25.5532   12.7584 C   0  0  0  0  0  0  0  0  0  0  0  0
  -29.6298  -19.1269   19.6021 C   0  0  0  0  0  0  0  0  0  0  0  0
  -32.0289  -17.0475   20.5833 C   0  0  0  0  0  0  0  0  0  0  0  0
  -29.2562  -20.4759   18.9973 C   0  0  0  0  0  0  0  0  0  1  0  0
  -25.9934  -27.0750   17.4350 C   0  0  1  0  0  0  0  0  0  0  0  0
  -24.8108  -26.5821   13.8674 C   0  0  2  0  0  0  0  0  0  0  0  0
  -32.1924  -17.4176   19.0572 C   0  0  0  0  0  0  0  0  0  0  0  0
  -25.0504  -27.6902   18.5073 C   0  0  0  0  0  0  0  0  0  0  0  0
  -25.9053  -11.6382   20.4046 N   0  0  0  0  0  0  0  0  0  0  0  0
  -30.6718  -16.5104   17.2892 N   0  0  0  0  0  0  0  0  0  0  0  0
  -29.3737  -16.7894   16.9257 N   0  0  0  0  0  0  0  0  0  0  0  0
  -28.8566  -17.7397   17.6949 N   0  0  0  0  0  0  0  0  0  0  0  0
  -26.1732  -12.9414   20.2155 N   0  0  0  0  0  0  0  0  0  0  0  0
  -29.8360  -18.0638   18.5506 N   0  0  0  0  0  0  0  0  0  0  0  0
  -28.4321  -26.7791   17.7333 N   0  0  0  0  0  0  0  0  0  0  0  0
  -29.7939  -14.0802   20.6673 N   0  0  0  0  0  0  0  0  0  0  0  0
  -25.1908  -15.0965   20.2525 N   0  0  0  0  0  0  0  0  0  0  0  0
  -21.7622  -12.3694   21.3499 N   0  0  0  0  0  0  0  0  0  0  0  0
  -31.1194  -27.9872   19.8816 N   0  0  0  0  0  0  0  0  0  0  0  0
  -25.5233  -27.2353   16.0632 N   0  0  0  0  0  0  0  0  0  0  0  0
  -31.5766  -15.6765   20.7734 N   0  0  0  0  0  0  0  0  0  0  0  0
  -25.3172  -25.6489   12.8215 N   0  3  0  0  0  0  0  0  0  0  0  0
  -22.3603  -14.5521   20.9796 O   0  0  0  0  0  0  0  0  0  0  0  0
  -29.0215  -27.0309   20.2082 O   0  0  0  0  0  0  0  0  0  0  0  0
  -27.5252  -28.8800   17.2865 O   0  0  0  0  0  0  0  0  0  0  0  0
  -25.4629  -24.9749   15.5494 O   0  0  0  0  0  0  0  0  0  0  0  0
  -29.3782  -16.3184   21.0234 O   0  0  0  0  0  0  0  0  0  0  0  0
  -21.9869   -6.8232   21.8226 O   0  0  0  0  0  0  0  0  0  0  0  0
  -30.2856  -20.9074   18.1082 O   0  0  0  0  0  0  0  0  0  1  0  0
  -18.6686   -6.6541   26.2231 F   0  0  0  0  0  0  0  0  0  0  0  0
  -19.8042   -8.5084   22.0186 F   0  0  0  0  0  0  0  0  0  0  0  0
  1  2  1  0  0  0  0
  1  5  2  0  0  0  0
  2  6  2  0  0  0  0
  3  8  2  0  0  0  0
  3 15  1  0  0  0  0
  4  9  1  0  0  0  0
  4 15  2  0  0  0  0
  5 17  1  0  0  0  0
  6 19  1  0  0  0  0
  7 10  2  0  0  0  0
  7 18  1  0  0  0  0
  8 21  1  0  0  0  0
  9 21  2  0  0  0  0
 10 22  1  0  0  0  0
 11 12  2  0  0  0  0
 11 23  1  0  0  0  0
 12 24  1  0  0  0  0
 13 20  1  0  0  0  0
 13 22  2  0  0  0  0
 14 24  2  0  0  0  0
 14 25  1  0  0  0  0
 15 26  1  0  0  0  0
 16 26  1  0  0  0  0
 16 27  2  0  0  0  0
 16 29  1  0  0  0  0
 17 19  2  0  0  0  0
 17 34  1  0  0  0  0
 18 20  2  0  0  0  0
 18 35  1  0  0  0  0
 19 43  1  0  0  0  0
 20 36  1  0  0  0  0
 21 80  1  0  0  0  0
 22 81  1  0  0  0  0
 23 25  2  0  0  0  0
 23 80  1  0  0  0  0
 24 82  1  0  0  0  0
 25 83  1  0  0  0  0
 26 61  2  0  0  0  0
 27 65  1  0  0  0  0
 27 69  1  0  0  0  0
 28 59  1  0  0  0  0
 28 62  2  0  0  0  0
 28 66  1  0  0  0  0
 29 70  1  0  0  0  0
 29 75  2  0  0  0  0
 30 44  1  0  0  0  0
 30 71  1  0  0  0  0
 30 76  2  0  0  0  0
 31 57  1  0  0  0  0
 31 67  1  0  0  0  0
 31 77  2  0  0  0  0
 32 58  1  0  0  0  0
 32 72  1  0  0  0  0
 32 78  2  0  0  0  0
 33 68  1  0  0  0  0
 33 73  1  0  0  0  0
 33 79  2  0  0  0  0
 34 37  1  0  0  0  0
 35 44  1  0  0  0  0
 36 67  1  0  0  0  0
 37 39  1  0  0  0  0
 38 40  1  0  0  0  0
 38 41  1  0  0  0  0
 39 43  1  0  0  0  0
 40 45  1  0  0  0  0
 41 68  1  0  0  0  0
 42 45  1  0  0  0  0
 42 68  1  0  0  0  0
 43 71  1  0  0  0  0
 44 67  1  0  0  0  0
 45 65  1  0  0  0  0
 46 58  1  0  0  0  0
 47 59  1  0  0  0  0
 48 59  1  0  0  0  0
 49 60  1  0  0  0  0
 50 60  1  0  0  0  0
 51 60  1  0  0  0  0
 52 73  1  0  0  0  0
 53 74  1  0  0  0  0
 54 56  1  0  0  0  0
 54 66  1  0  0  0  0
 55 59  1  0  0  0  0
 55 73  1  0  0  0  0
 56 81  1  0  0  0  0
 57 60  1  0  0  0  0
 57 72  1  0  0  0  0
 58 74  1  0  0  0  0
 61 65  1  0  0  0  0
 62 63  1  0  0  0  0
 63 64  2  0  0  0  0
 64 66  1  0  0  0  0
M  CHG  1  74   1
M  ISO  4  33 100  56 101  73 100  81 101
M  END
> <Batch ID>
0052

> <Smiles>
CNC(C)C(=O)NC(C(=O)N1Cc2cc([101O:1][101CH2:1]Cn3nnnc3C(C)(C)C[100N:0](C)[100C:0](=O)N3CCCC(n4nc(-c5ccc(Oc6ccc(F)cc6F)cc5)c(C(N)=O)c4N)C3)ccc2CC1C(=O)NC1CCCc2ccccc21)C(C)(C)C

> <Shape>
0.260

> <Color>
0.169

> <Negative vol penalty>
0.000

$$$$

  -OEChem-04052317363D

 84 92  0     1  0  0  0  0  0999 V2000
  -19.8801  -28.9771   21.9897 C   0  0  0  0  0  0  0  0  0  0  0  0
  -20.9044  -28.1377   22.4160 C   0  0  0  0  0  0  0  0  0  0  0  0
  -26.2305  -27.7990   18.6681 C   0  0  0  0  0  0  0  0  0  0  0  0
  -25.7634  -26.8043   20.8197 C   0  0  0  0  0  0  0  0  0  0  0  0
  -18.5509  -28.6271   22.2232 C   0  0  0  0  0  0  0  0  0  0  0  0
  -20.6001  -26.9483   23.0770 C   0  0  0  0  0  0  0  0  0  0  0  0
  -23.3243  -23.0309   21.3808 C   0  0  0  0  0  0  0  0  0  0  0  0
  -25.6300  -28.9864   19.0866 C   0  0  0  0  0  0  0  0  0  0  0  0
  -25.1630  -27.9917   21.2383 C   0  0  0  0  0  0  0  0  0  0  0  0
  -24.6422  -22.9320   21.8248 C   0  0  0  0  0  0  0  0  0  0  0  0
  -23.8282  -30.8794   22.9983 C   0  0  0  0  0  0  0  0  0  0  0  0
  -24.1486  -31.3560   24.2694 C   0  0  0  0  0  0  0  0  0  0  0  0
  -23.9649  -21.2816   23.4486 C   0  0  0  0  0  0  0  0  0  0  0  0
  -26.4735  -31.5019   23.6286 C   0  0  0  0  0  0  0  0  0  0  0  0
  -30.5766  -21.0521   21.4087 C   0  0  0  0  0  0  0  0  0  0  0  0
  -29.0167  -20.4331   23.4851 C   0  0  0  0  0  0  0  0  0  0  0  0
  -26.2971  -26.7079   19.5346 C   0  0  0  0  0  0  0  0  0  0  0  0
  -28.2719  -25.1218   19.2309 C   0  0  0  0  0  0  0  0  0  0  0  0
  -18.2298  -27.4281   22.8789 C   0  0  0  0  0  0  0  0  0  0  0  0
  -22.3132  -22.2626   21.9757 C   0  0  0  0  0  0  0  0  0  0  0  0
  -19.2653  -26.5826   23.3208 C   0  0  0  0  0  0  0  0  0  0  0  0
  -22.6354  -21.3707   23.0086 C   0  0  0  0  0  0  0  0  0  0  0  0
  -25.0963  -29.0827   20.3717 C   0  0  0  0  0  0  0  0  0  0  0  0
  -24.9622  -22.0594   22.8608 C   0  0  0  0  0  0  0  0  0  0  0  0
  -24.8304  -30.7139   22.0423 C   0  0  0  0  0  0  0  0  0  0  0  0
  -25.4713  -31.6673   24.5845 C   0  0  0  0  0  0  0  0  0  0  0  0
  -26.1531  -31.0252   22.3574 C   0  0  0  0  0  0  0  0  0  0  0  0
  -26.9168  -25.4809   19.1026 C   0  0  0  0  0  0  0  0  0  0  0  0
  -30.4318  -19.7469   21.8249 C   0  0  0  0  0  0  0  0  0  0  0  0
  -29.1620  -21.7384   23.0695 C   0  0  0  0  0  0  0  0  0  0  0  0
  -28.3500  -23.8704   18.6703 C   0  0  0  0  0  0  0  0  0  0  0  0
  -29.3625  -25.8539   19.8057 C   0  0  0  0  0  0  0  0  0  0  0  0
  -19.6515  -22.9173   23.5850 C   0  0  0  0  0  0  0  0  0  0  0  0
  -26.3501  -18.7663   18.1936 C   0  0  0  0  0  0  0  0  0  0  0  0
  -19.2127  -19.7088   23.3978 C   0  0  0  0  0  0  0  0  0  0  0  0
  -20.3723  -16.2936   23.4920 C   0  0  0  0  0  0  0  0  0  0  0  0
  -16.7797  -27.1152   23.1507 C   0  0  0  0  0  0  0  0  0  0  0  0
  -20.9011  -22.3612   21.4672 C   0  0  0  0  0  0  0  0  0  0  0  0
  -21.5903  -20.5089   23.6669 C   0  0  0  0  0  0  0  0  0  0  0  0
  -16.5313  -25.6564   23.5257 C   0  0  0  0  0  0  0  0  0  0  0  0
  -25.0063  -21.2683   15.9217 C   0  0  0  0  0  0  0  0  0  0  0  0
  -17.5446  -25.1929   24.5673 C   0  0  0  0  0  0  0  0  0  0  0  0
  -25.4752  -22.5641   16.5822 C   0  0  0  0  0  0  0  0  0  0  0  0
  -24.6562  -20.2045   16.9589 C   0  0  0  0  0  0  0  0  0  0  0  0
  -26.2332  -21.2071   18.5814 C   0  0  0  0  0  0  0  0  0  0  0  0
  -18.9746  -25.2719   24.0192 C   0  0  1  0  0  0  0  0  0  0  0  0
  -19.8644  -21.9094   22.4912 C   0  0  1  0  0  0  0  0  0  0  0  0
  -26.6252  -22.2960   17.5687 C   0  0  2  0  0  0  0  0  0  0  0  0
  -19.1398  -14.1410   23.1116 C   0  0  0  0  0  0  0  0  0  0  0  0
  -18.8720  -19.7045   26.4299 C   0  0  0  0  0  0  0  0  0  0  0  0
  -19.2211  -17.2256   26.3958 C   0  0  0  0  0  0  0  0  0  0  0  0
  -17.2746  -18.2258   25.1986 C   0  0  0  0  0  0  0  0  0  0  0  0
  -22.2698  -15.4446   21.3853 C   0  0  0  0  0  0  0  0  0  0  0  0
  -29.3363  -16.0383   21.0560 C   0  0  0  0  0  0  0  0  0  0  0  0
  -31.1454  -18.6458   21.1217 C   0  0  0  0  0  0  0  0  0  0  0  0
  -28.4381  -22.8548   23.7822 C   0  0  0  0  0  0  0  0  0  0  0  0
  -27.4810  -18.7768   19.1910 C   0  0  0  0  0  0  0  0  0  0  0  0
  -30.3609  -18.0269   19.9624 C   0  0  0  0  0  0  0  0  0  0  0  0
  -28.0195  -17.3760   19.4195 C   0  0  0  0  0  0  0  0  0  0  0  0
  -27.0620  -23.1278   23.1847 C   0  0  0  0  0  0  0  0  0  1  0  0
  -19.5995  -18.5253   24.2514 C   0  0  1  0  0  0  0  0  0  0  0  0
  -20.0464  -15.1954   22.4959 C   0  0  2  0  0  0  0  0  0  0  0  0
  -18.7614  -18.4378   25.5581 C   0  0  0  0  0  0  0  0  0  0  0  0
  -29.6491  -19.4140   22.8703 N   0  0  0  0  0  0  0  0  0  0  0  0
  -29.9445  -22.0713   22.0238 N   0  0  0  0  0  0  0  0  0  0  0  0
  -26.1866  -24.5343   18.5070 N   0  0  0  0  0  0  0  0  0  0  0  0
  -27.0863  -23.5679   18.2560 N   0  0  0  0  0  0  0  0  0  0  0  0
  -20.2229  -20.6459   23.1387 N   0  0  0  0  0  0  0  0  0  0  0  0
  -25.7668  -19.9982   17.8962 N   0  0  0  0  0  0  0  0  0  0  0  0
  -29.3758  -23.0102   18.4961 N   0  0  0  0  0  0  0  0  0  0  0  0
  -29.1072  -27.1253   20.3372 N   0  0  0  0  0  0  0  0  0  0  0  0
  -19.2393  -24.1572   23.1351 N   0  0  0  0  0  0  0  0  0  0  0  0
  -19.4923  -17.3505   23.3930 N   0  0  0  0  0  0  0  0  0  0  0  0
  -21.2961  -14.5284   22.0330 N   0  3  0  0  0  0  0  0  0  0  0  0
  -29.1092  -17.4072   20.4630 N   0  3  1  0  0  0  0  0  0  0  0  0
  -30.5320  -25.4010   19.8319 O   0  0  0  0  0  0  0  0  0  0  0  0
  -19.8452  -22.5937   24.7509 O   0  0  0  0  0  0  0  0  0  0  0  0
  -25.9953  -17.6941   17.6970 O   0  0  0  0  0  0  0  0  0  0  0  0
  -18.0587  -19.7948   22.9706 O   0  0  0  0  0  0  0  0  0  0  0  0
  -21.3112  -16.2195   24.2816 O   0  0  0  0  0  0  0  0  0  0  0  0
  -24.5105  -30.2413   20.7806 O   0  0  0  0  0  0  0  0  0  0  0  0
  -26.2476  -21.9614   23.2966 O   0  0  0  0  0  0  0  0  0  1  0  0
  -25.7787  -32.1265   25.8047 F   0  0  0  0  0  0  0  0  0  0  0  0
  -27.1200  -30.8694   21.4428 F   0  0  0  0  0  0  0  0  0  0  0  0
  1  2  1  0  0  0  0
  1  5  2  0  0  0  0
  2  6  2  0  0  0  0
  3  8  2  0  0  0  0
  3 17  1  0  0  0  0
  4  9  1  0  0  0  0
  4 17  2  0  0  0  0
  5 19  1  0  0  0  0
  6 21  1  0  0  0  0
  7 10  2  0  0  0  0
  7 20  1  0  0  0  0
  8 23  1  0  0  0  0
  9 23  2  0  0  0  0
 10 24  1  0  0  0  0
 11 12  2  0  0  0  0
 11 25  1  0  0  0  0
 12 26  1  0  0  0  0
 13 22  1  0  0  0  0
 13 24  2  0  0  0  0
 14 26  2  0  0  0  0
 14 27  1  0  0  0  0
 15 29  2  0  0  0  0
 15 65  1  0  0  0  0
 16 30  1  0  0  0  0
 16 64  2  0  0  0  0
 17 28  1  0  0  0  0
 18 28  1  0  0  0  0
 18 31  2  0  0  0  0
 18 32  1  0  0  0  0
 19 21  2  0  0  0  0
 19 37  1  0  0  0  0
 20 22  2  0  0  0  0
 20 38  1  0  0  0  0
 21 46  1  0  0  0  0
 22 39  1  0  0  0  0
 23 81  1  0  0  0  0
 24 82  1  0  0  0  0
 25 27  2  0  0  0  0
 25 81  1  0  0  0  0
 26 83  1  0  0  0  0
 27 84  1  0  0  0  0
 28 66  2  0  0  0  0
 29 55  1  0  0  0  0
 29 64  1  0  0  0  0
 30 56  1  0  0  0  0
 30 65  2  0  0  0  0
 31 67  1  0  0  0  0
 31 70  1  0  0  0  0
 32 71  1  0  0  0  0
 32 76  2  0  0  0  0
 33 47  1  0  0  0  0
 33 72  1  0  0  0  0
 33 77  2  0  0  0  0
 34 57  1  0  0  0  0
 34 69  1  0  0  0  0
 34 78  2  0  0  0  0
 35 61  1  0  0  0  0
 35 68  1  0  0  0  0
 35 79  2  0  0  0  0
 36 62  1  0  0  0  0
 36 73  1  0  0  0  0
 36 80  2  0  0  0  0
 37 40  1  0  0  0  0
 38 47  1  0  0  0  0
 39 68  1  0  0  0  0
 40 42  1  0  0  0  0
 41 43  1  0  0  0  0
 41 44  1  0  0  0  0
 42 46  1  0  0  0  0
 43 48  1  0  0  0  0
 44 69  1  0  0  0  0
 45 48  1  0  0  0  0
 45 69  1  0  0  0  0
 46 72  1  0  0  0  0
 47 68  1  0  0  0  0
 48 67  1  0  0  0  0
 49 62  1  0  0  0  0
 50 63  1  0  0  0  0
 51 63  1  0  0  0  0
 52 63  1  0  0  0  0
 53 74  1  0  0  0  0
 54 75  1  0  0  0  0
 55 58  1  0  0  0  0
 56 60  1  0  0  0  0
 57 59  1  0  0  0  0
 58 75  1  0  0  0  0
 59 75  1  0  0  0  0
 60 82  1  0  0  0  0
 61 63  1  0  0  0  0
 61 73  1  0  0  0  0
 62 74  1  0  0  0  0
 66 67  1  0  0  0  0
M  CHG  2  74   1  75   1
M  ISO  4  34 100  57 100  60 101  82 101
M  END
> <Batch ID>
0052

> <Smiles>
CNC(C)C(=O)NC(C(=O)N1Cc2cc([101O:1][101CH2:1]Cc3cnc(CCN(C)C[100CH2:0][100C:0](=O)N4CCCC(n5nc(-c6ccc(Oc7ccc(F)cc7F)cc6)c(C(N)=O)c5N)C4)cn3)ccc2CC1C(=O)NC1CCCc2ccccc21)C(C)(C)C

> <Shape>
0.189

> <Color>
0.061

> <Negative vol penalty>
0.000

$$$$

  -OEChem-04052317363D

 80 88  0     1  0  0  0  0  0999 V2000
  -27.5351  -10.7092   22.5528 C   0  0  0  0  0  0  0  0  0  0  0  0
  -28.2496  -11.8701   22.2749 C   0  0  0  0  0  0  0  0  0  0  0  0
  -23.8623  -29.9528   22.7823 C   0  0  0  0  0  0  0  0  0  0  0  0
  -25.1059  -28.0654   23.6357 C   0  0  0  0  0  0  0  0  0  0  0  0
  -26.2519  -10.5408   22.0342 C   0  0  0  0  0  0  0  0  0  0  0  0
  -27.6817  -12.8629   21.4772 C   0  0  0  0  0  0  0  0  0  0  0  0
  -28.4470  -18.9141   22.0278 C   0  0  0  0  0  0  0  0  0  0  0  0
  -22.6739  -29.3667   23.2180 C   0  0  0  0  0  0  0  0  0  0  0  0
  -23.9175  -27.4793   24.0714 C   0  0  0  0  0  0  0  0  0  0  0  0
  -29.2742  -19.8191   21.3643 C   0  0  0  0  0  0  0  0  0  0  0  0
  -19.2774  -28.1985   23.7858 C   0  0  0  0  0  0  0  0  0  0  0  0
  -18.1906  -28.2052   22.9115 C   0  0  0  0  0  0  0  0  0  0  0  0
  -27.4636  -20.3676   19.8677 C   0  0  0  0  0  0  0  0  0  0  0  0
  -19.4775  -26.9435   21.3024 C   0  0  0  0  0  0  0  0  0  0  0  0
  -31.5311  -23.4354   16.2442 C   0  0  0  0  0  0  0  0  0  0  0  0
  -25.0783  -29.3021   22.9911 C   0  0  0  0  0  0  0  0  0  0  0  0
  -27.1382  -30.7818   23.2645 C   0  0  0  0  0  0  0  0  0  0  0  0
  -25.6642  -11.5363   21.2377 C   0  0  0  0  0  0  0  0  0  0  0  0
  -27.1228  -18.7207   21.6087 C   0  0  0  0  0  0  0  0  0  0  0  0
  -26.3899  -12.7071   20.9464 C   0  0  0  0  0  0  0  0  0  0  0  0
  -26.6208  -19.4614   20.5292 C   0  0  0  0  0  0  0  0  0  0  0  0
  -30.4354  -24.1981   18.5739 C   0  0  0  0  0  0  0  0  0  0  0  0
  -22.7015  -28.1300   23.8625 C   0  0  0  0  0  0  0  0  0  0  0  0
  -28.7835  -20.5440   20.2822 C   0  0  0  0  0  0  0  0  0  0  0  0
  -20.4642  -27.5644   23.4184 C   0  0  0  0  0  0  0  0  0  0  0  0
  -18.2906  -27.5776   21.6698 C   0  0  0  0  0  0  0  0  0  0  0  0
  -20.5643  -26.9368   22.1767 C   0  0  0  0  0  0  0  0  0  0  0  0
  -26.3063  -29.9067   22.5409 C   0  0  0  0  0  0  0  0  0  0  0  0
  -31.4046  -24.9465   17.9376 C   0  0  0  0  0  0  0  0  0  0  0  0
  -30.0660  -23.0322   17.9347 C   0  0  0  0  0  0  0  0  0  0  0  0
  -28.1677  -31.0689   22.4018 C   0  0  0  0  0  0  0  0  0  0  0  0
  -26.9936  -31.2897   24.5975 C   0  0  0  0  0  0  0  0  0  0  0  0
  -25.4639  -16.2540   20.4832 C   0  0  0  0  0  0  0  0  0  0  0  0
  -22.9750  -18.3210   20.7181 C   0  0  0  0  0  0  0  0  0  0  0  0
  -21.8964  -21.5572   20.8218 C   0  0  0  0  0  0  0  0  0  0  0  0
  -30.5161  -28.1393   17.7377 C   0  0  0  0  0  0  0  0  0  0  0  0
  -24.2930  -11.2886   20.6606 C   0  0  0  0  0  0  0  0  0  0  0  0
  -26.2353  -17.7603   22.3519 C   0  0  0  0  0  0  0  0  0  0  0  0
  -25.2006  -19.3055   20.0526 C   0  0  0  0  0  0  0  0  0  0  0  0
  -23.6170  -12.5515   20.1329 C   0  0  0  0  0  0  0  0  0  0  0  0
  -29.1508  -31.4276   17.7332 C   0  0  0  0  0  0  0  0  0  0  0  0
  -24.5891  -13.3608   19.2804 C   0  0  0  0  0  0  0  0  0  0  0  0
  -28.3421  -31.4896   19.0301 C   0  0  0  0  0  0  0  0  0  0  0  0
  -29.0753  -30.0462   17.0865 C   0  0  0  0  0  0  0  0  0  0  0  0
  -28.6373  -28.9887   19.2691 C   0  0  0  0  0  0  0  0  0  0  0  0
  -25.7983  -13.8175   20.1055 C   0  0  1  0  0  0  0  0  0  0  0  0
  -25.0580  -17.2663   21.5167 C   0  0  1  0  0  0  0  0  0  0  0  0
  -28.7286  -30.3460   19.9872 C   0  0  2  0  0  0  0  0  0  0  0  0
  -29.8285  -24.6204   19.8647 C   0  0  0  0  0  0  0  0  0  0  0  0
  -19.8028  -22.9317   20.9797 C   0  0  0  0  0  0  0  0  0  0  0  0
  -22.3646  -17.7234   17.7889 C   0  0  0  0  0  0  0  0  0  0  0  0
  -20.9234  -19.7701   17.7439 C   0  0  0  0  0  0  0  0  0  0  0  0
  -20.3508  -17.8769   19.2639 C   0  0  0  0  0  0  0  0  0  0  0  0
  -22.7653  -22.7998   23.3634 C   0  0  0  0  0  0  0  0  0  0  0  0
  -31.8841  -26.2283   18.5351 C   0  0  0  0  0  0  0  0  0  0  0  0
  -29.0208  -22.1365   18.5320 C   0  0  0  0  0  0  0  0  0  1  0  0
  -22.3413  -19.3399   19.8019 C   0  0  1  0  0  0  0  0  0  0  0  0
  -20.9313  -22.2679   21.7534 C   0  0  2  0  0  0  0  0  0  0  0  0
  -21.5224  -18.6793   18.6572 C   0  0  0  0  0  0  0  0  0  0  0  0
  -31.9761  -24.5936   16.7675 N   0  0  0  0  0  0  0  0  0  0  0  0
  -30.5950  -22.6189   16.7644 N   0  0  0  0  0  0  0  0  0  0  0  0
  -26.7672  -29.6545   21.3128 N   0  0  0  0  0  0  0  0  0  0  0  0
  -27.8999  -30.3756   21.2582 N   0  0  0  0  0  0  0  0  0  0  0  0
  -24.3739  -18.3496   20.8078 N   0  0  0  0  0  0  0  0  0  0  0  0
  -29.4554  -29.0070   18.0464 N   0  0  0  0  0  0  0  0  0  0  0  0
  -29.2666  -31.8444   22.5173 N   0  0  0  0  0  0  0  0  0  0  0  0
  -25.8769  -30.8933   25.3460 N   0  0  0  0  0  0  0  0  0  0  0  0
  -25.4451  -14.9487   20.9363 N   0  0  0  0  0  0  0  0  0  0  0  0
  -21.5629  -20.2295   20.6570 N   0  0  0  0  0  0  0  0  0  0  0  0
  -30.8155  -27.1875   18.7048 N   0  0  0  0  0  0  0  0  0  0  0  0
  -21.6445  -23.3163   22.5364 N   0  3  0  0  0  0  0  0  0  0  0  0
  -27.8212  -32.0848   25.1038 O   0  0  0  0  0  0  0  0  0  0  0  0
  -25.7698  -16.6293   19.3574 O   0  0  0  0  0  0  0  0  0  0  0  0
  -22.2548  -17.5336   21.3370 O   0  0  0  0  0  0  0  0  0  0  0  0
  -22.8486  -22.1241   20.2903 O   0  0  0  0  0  0  0  0  0  0  0  0
  -31.1528  -28.2112   16.6812 O   0  0  0  0  0  0  0  0  0  0  0  0
  -21.5420  -27.5579   24.2879 O   0  0  0  0  0  0  0  0  0  0  0  0
  -29.5890  -21.4275   19.6324 O   0  0  0  0  0  0  0  0  0  1  0  0
  -17.2464  -27.5828   20.8309 F   0  0  0  0  0  0  0  0  0  0  0  0
  -21.7015  -26.3250   21.8187 F   0  0  0  0  0  0  0  0  0  0  0  0
  1  2  1  0  0  0  0
  1  5  2  0  0  0  0
  2  6  2  0  0  0  0
  3  8  2  0  0  0  0
  3 16  1  0  0  0  0
  4  9  1  0  0  0  0
  4 16  2  0  0  0  0
  5 18  1  0  0  0  0
  6 20  1  0  0  0  0
  7 10  2  0  0  0  0
  7 19  1  0  0  0  0
  8 23  1  0  0  0  0
  9 23  2  0  0  0  0
 10 24  1  0  0  0  0
 11 12  2  0  0  0  0
 11 25  1  0  0  0  0
 12 26  1  0  0  0  0
 13 21  1  0  0  0  0
 13 24  2  0  0  0  0
 14 26  2  0  0  0  0
 14 27  1  0  0  0  0
 15 60  1  0  0  0  0
 15 61  2  0  0  0  0
 16 28  1  0  0  0  0
 17 28  1  0  0  0  0
 17 31  2  0  0  0  0
 17 32  1  0  0  0  0
 18 20  2  0  0  0  0
 18 37  1  0  0  0  0
 19 21  2  0  0  0  0
 19 38  1  0  0  0  0
 20 46  1  0  0  0  0
 21 39  1  0  0  0  0
 22 29  1  0  0  0  0
 22 30  2  0  0  0  0
 22 49  1  0  0  0  0
 23 77  1  0  0  0  0
 24 78  1  0  0  0  0
 25 27  2  0  0  0  0
 25 77  1  0  0  0  0
 26 79  1  0  0  0  0
 27 80  1  0  0  0  0
 28 62  2  0  0  0  0
 29 55  1  0  0  0  0
 29 60  2  0  0  0  0
 30 56  1  0  0  0  0
 30 61  1  0  0  0  0
 31 63  1  0  0  0  0
 31 66  1  0  0  0  0
 32 67  1  0  0  0  0
 32 72  2  0  0  0  0
 33 47  1  0  0  0  0
 33 68  1  0  0  0  0
 33 73  2  0  0  0  0
 34 57  1  0  0  0  0
 34 64  1  0  0  0  0
 34 74  2  0  0  0  0
 35 58  1  0  0  0  0
 35 69  1  0  0  0  0
 35 75  2  0  0  0  0
 36 65  1  0  0  0  0
 36 70  1  0  0  0  0
 36 76  2  0  0  0  0
 37 40  1  0  0  0  0
 38 47  1  0  0  0  0
 39 64  1  0  0  0  0
 40 42  1  0  0  0  0
 41 43  1  0  0  0  0
 41 44  1  0  0  0  0
 42 46  1  0  0  0  0
 43 48  1  0  0  0  0
 44 65  1  0  0  0  0
 45 48  1  0  0  0  0
 45 65  1  0  0  0  0
 46 68  1  0  0  0  0
 47 64  1  0  0  0  0
 48 63  1  0  0  0  0
 50 58  1  0  0  0  0
 51 59  1  0  0  0  0
 52 59  1  0  0  0  0
 53 59  1  0  0  0  0
 54 71  1  0  0  0  0
 55 70  1  0  0  0  0
 56 78  1  0  0  0  0
 57 59  1  0  0  0  0
 57 69  1  0  0  0  0
 58 71  1  0  0  0  0
 62 63  1  0  0  0  0
M  CHG  1  71   1
M  ISO  4  36 100  56 101  70 100  78 101
M  END
> <Batch ID>
0052

> <Smiles>
CNC(C)C(=O)NC(C(=O)N1Cc2cc([101O:1][101CH2:1]c3ncnc(C[100NH:0][100C:0](=O)N4CCCC(n5nc(-c6ccc(Oc7ccc(F)cc7F)cc6)c(C(N)=O)c5N)C4)c3C)ccc2CC1C(=O)NC1CCCc2ccccc21)C(C)(C)C

> <Shape>
0.230

> <Color>
0.056

> <Negative vol penalty>
0.000

$$$$

  -OEChem-04052317363D

 81 89  0     1  0  0  0  0  0999 V2000
  -21.9464  -12.5201   19.4169 C   0  0  0  0  0  0  0  0  0  0  0  0
  -21.8288  -13.8879   19.6419 C   0  0  0  0  0  0  0  0  0  0  0  0
  -29.0630  -28.9367   19.5929 C   0  0  0  0  0  0  0  0  0  0  0  0
  -29.0346  -27.5420   21.5655 C   0  0  0  0  0  0  0  0  0  0  0  0
  -23.1248  -11.8575   19.7578 C   0  0  0  0  0  0  0  0  0  0  0  0
  -22.8893  -14.5938   20.2090 C   0  0  0  0  0  0  0  0  0  0  0  0
  -23.7937  -18.9767   17.8391 C   0  0  0  0  0  0  0  0  0  0  0  0
  -30.4061  -29.2344   19.8227 C   0  0  0  0  0  0  0  0  0  0  0  0
  -30.3778  -27.8397   21.7953 C   0  0  0  0  0  0  0  0  0  0  0  0
  -22.9413  -20.0425   18.1242 C   0  0  0  0  0  0  0  0  0  0  0  0
  -33.4036  -27.7402   19.3582 C   0  0  0  0  0  0  0  0  0  0  0  0
  -34.2737  -27.6923   18.2691 C   0  0  0  0  0  0  0  0  0  0  0  0
  -24.5879  -20.9467   19.6376 C   0  0  0  0  0  0  0  0  0  0  0  0
  -34.8128  -30.0245   18.5972 C   0  0  0  0  0  0  0  0  0  0  0  0
  -19.8514  -23.5617   20.2488 C   0  0  0  0  0  0  0  0  0  0  0  0
  -19.6750  -25.2754   18.8746 C   0  0  0  0  0  0  0  0  0  0  0  0
  -28.3771  -28.0905   20.4643 C   0  0  0  0  0  0  0  0  0  0  0  0
  -26.4726  -26.7172   19.4670 C   0  0  0  0  0  0  0  0  0  0  0  0
  -24.2038  -12.5573   20.3204 C   0  0  0  0  0  0  0  0  0  0  0  0
  -25.0473  -18.8821   18.4604 C   0  0  0  0  0  0  0  0  0  0  0  0
  -24.0827  -13.9397   20.5590 C   0  0  0  0  0  0  0  0  0  0  0  0
  -25.4554  -19.8801   19.3567 C   0  0  0  0  0  0  0  0  0  0  0  0
  -31.0636  -28.6859   20.9239 C   0  0  0  0  0  0  0  0  0  0  0  0
  -23.3371  -21.0262   19.0258 C   0  0  0  0  0  0  0  0  0  0  0  0
  -33.2380  -28.9303   20.0668 C   0  0  0  0  0  0  0  0  0  0  0  0
  -34.9783  -28.8344   17.8886 C   0  0  0  0  0  0  0  0  0  0  0  0
  -33.9426  -30.0724   19.6863 C   0  0  0  0  0  0  0  0  0  0  0  0
  -26.9895  -27.7830   20.2278 C   0  0  0  0  0  0  0  0  0  0  0  0
  -20.4929  -23.3188   19.0572 C   0  0  0  0  0  0  0  0  0  0  0  0
  -25.1097  -26.8639   19.5521 C   0  0  0  0  0  0  0  0  0  0  0  0
  -27.1629  -25.6867   18.7478 C   0  0  0  0  0  0  0  0  0  0  0  0
  -26.4327  -16.7871   20.4086 C   0  0  0  0  0  0  0  0  0  0  0  0
  -29.0346  -18.6686   19.9481 C   0  0  0  0  0  0  0  0  0  0  0  0
  -30.2825  -21.7350   19.1191 C   0  0  0  0  0  0  0  0  0  0  0  0
  -20.4998  -27.8704   22.5324 C   0  0  0  0  0  0  0  0  0  0  0  0
  -25.4401  -11.7894   20.7161 C   0  0  0  0  0  0  0  0  0  0  0  0
  -25.9661  -17.7403   18.1218 C   0  0  0  0  0  0  0  0  0  0  0  0
  -26.7994  -19.8355   20.0351 C   0  0  0  0  0  0  0  0  0  0  0  0
  -26.6553  -12.6785   20.9670 C   0  0  0  0  0  0  0  0  0  0  0  0
  -22.3144  -30.6873   21.3285 C   0  0  0  0  0  0  0  0  0  0  0  0
  -26.2738  -13.8701   21.8396 C   0  0  0  0  0  0  0  0  0  0  0  0
  -23.6514  -30.0959   20.8782 C   0  0  0  0  0  0  0  0  0  0  0  0
  -21.7812  -29.9900   22.5781 C   0  0  0  0  0  0  0  0  0  0  0  0
  -23.0163  -27.9310   22.0223 C   0  0  0  0  0  0  0  0  0  0  0  0
  -25.2201  -14.7446   21.1493 C   0  0  1  0  0  0  0  0  0  0  0  0
  -27.0094  -17.4723   19.2021 C   0  0  1  0  0  0  0  0  0  0  0  0
  -23.5667  -28.5645   20.7330 C   0  0  2  0  0  0  0  0  0  0  0  0
  -32.0020  -23.4780   18.5689 C   0  0  0  0  0  0  0  0  0  0  0  0
  -29.2627  -18.8813   22.9833 C   0  0  0  0  0  0  0  0  0  0  0  0
  -30.7915  -20.8377   22.6616 C   0  0  0  0  0  0  0  0  0  0  0  0
  -31.4421  -18.5923   21.7911 C   0  0  0  0  0  0  0  0  0  0  0  0
  -18.1149  -26.9442   20.6508 C   0  0  0  0  0  0  0  0  0  0  0  0
  -17.2650  -24.7346   21.3933 C   0  0  0  0  0  0  0  0  0  0  0  0
  -30.2343  -21.0409   16.2425 C   0  0  0  0  0  0  0  0  0  0  0  0
  -21.2446  -22.0887   18.6411 C   0  0  0  0  0  0  0  0  0  1  0  0
  -19.3514  -25.6726   22.4330 C   0  0  0  0  0  0  0  0  0  0  0  0
  -29.6069  -19.8875   20.6306 C   0  0  1  0  0  0  0  0  0  0  0  0
  -31.3862  -22.1482   18.1623 C   0  0  2  0  0  0  0  0  0  0  0  0
  -30.2496  -19.5498   22.0055 C   0  0  0  0  0  0  0  0  0  0  0  0
  -18.5596  -25.5320   21.1043 C   0  0  0  0  0  0  0  0  0  0  0  0
  -20.3797  -24.3896   18.2062 N   0  0  0  0  0  0  0  0  0  0  0  0
  -26.0328  -28.5503   20.7570 N   0  0  0  0  0  0  0  0  0  0  0  0
  -19.3328  -24.8190   20.1171 N   0  0  0  0  0  0  0  0  0  0  0  0
  -24.9011  -27.9660   20.3282 N   0  0  0  0  0  0  0  0  0  0  0  0
  -27.6595  -18.6958   19.6759 N   0  0  0  0  0  0  0  0  0  0  0  0
  -21.7242  -28.5405   22.3741 N   0  0  0  0  0  0  0  0  0  0  0  0
  -24.0812  -26.1565   19.0381 N   0  0  0  0  0  0  0  0  0  0  0  0
  -28.5643  -25.6838   18.7650 N   0  0  0  0  0  0  0  0  0  0  0  0
  -25.8362  -15.5714   20.1337 N   0  0  0  0  0  0  0  0  0  0  0  0
  -30.5256  -20.4968   19.6751 N   0  0  0  0  0  0  0  0  0  0  0  0
  -20.5323  -26.4985   22.3144 N   0  0  0  0  0  0  0  0  0  0  0  0
  -30.8490  -22.2825   16.7787 N   0  3  0  0  0  0  0  0  0  0  0  0
  -26.5551  -24.8045   18.0953 O   0  0  0  0  0  0  0  0  0  0  0  0
  -26.5236  -17.3212   21.5078 O   0  0  0  0  0  0  0  0  0  0  0  0
  -29.7816  -17.7301   19.6603 O   0  0  0  0  0  0  0  0  0  0  0  0
  -29.3045  -22.4416   19.3529 O   0  0  0  0  0  0  0  0  0  0  0  0
  -19.4541  -28.4525   22.8397 O   0  0  0  0  0  0  0  0  0  0  0  0
  -32.3743  -28.9760   21.1483 O   0  0  0  0  0  0  0  0  0  0  0  0
  -22.5068  -22.0671   19.3064 O   0  0  0  0  0  0  0  0  0  1  0  0
  -35.8150  -28.7879   16.8437 F   0  0  0  0  0  0  0  0  0  0  0  0
  -33.7885  -31.2182   20.3639 F   0  0  0  0  0  0  0  0  0  0  0  0
  1  2  1  0  0  0  0
  1  5  2  0  0  0  0
  2  6  2  0  0  0  0
  3  8  2  0  0  0  0
  3 17  1  0  0  0  0
  4  9  1  0  0  0  0
  4 17  2  0  0  0  0
  5 19  1  0  0  0  0
  6 21  1  0  0  0  0
  7 10  2  0  0  0  0
  7 20  1  0  0  0  0
  8 23  1  0  0  0  0
  9 23  2  0  0  0  0
 10 24  1  0  0  0  0
 11 12  2  0  0  0  0
 11 25  1  0  0  0  0
 12 26  1  0  0  0  0
 13 22  1  0  0  0  0
 13 24  2  0  0  0  0
 14 26  2  0  0  0  0
 14 27  1  0  0  0  0
 15 29  2  0  0  0  0
 15 63  1  0  0  0  0
 16 61  2  0  0  0  0
 16 63  1  0  0  0  0
 17 28  1  0  0  0  0
 18 28  1  0  0  0  0
 18 30  2  0  0  0  0
 18 31  1  0  0  0  0
 19 21  2  0  0  0  0
 19 36  1  0  0  0  0
 20 22  2  0  0  0  0
 20 37  1  0  0  0  0
 21 45  1  0  0  0  0
 22 38  1  0  0  0  0
 23 78  1  0  0  0  0
 24 79  1  0  0  0  0
 25 27  2  0  0  0  0
 25 78  1  0  0  0  0
 26 80  1  0  0  0  0
 27 81  1  0  0  0  0
 28 62  2  0  0  0  0
 29 55  1  0  0  0  0
 29 61  1  0  0  0  0
 30 64  1  0  0  0  0
 30 67  1  0  0  0  0
 31 68  1  0  0  0  0
 31 73  2  0  0  0  0
 32 46  1  0  0  0  0
 32 69  1  0  0  0  0
 32 74  2  0  0  0  0
 33 57  1  0  0  0  0
 33 65  1  0  0  0  0
 33 75  2  0  0  0  0
 34 58  1  0  0  0  0
 34 70  1  0  0  0  0
 34 76  2  0  0  0  0
 35 66  1  0  0  0  0
 35 71  1  0  0  0  0
 35 77  2  0  0  0  0
 36 39  1  0  0  0  0
 37 46  1  0  0  0  0
 38 65  1  0  0  0  0
 39 41  1  0  0  0  0
 40 42  1  0  0  0  0
 40 43  1  0  0  0  0
 41 45  1  0  0  0  0
 42 47  1  0  0  0  0
 43 66  1  0  0  0  0
 44 47  1  0  0  0  0
 44 66  1  0  0  0  0
 45 69  1  0  0  0  0
 46 65  1  0  0  0  0
 47 64  1  0  0  0  0
 48 58  1  0  0  0  0
 49 59  1  0  0  0  0
 50 59  1  0  0  0  0
 51 59  1  0  0  0  0
 52 60  1  0  0  0  0
 53 60  1  0  0  0  0
 54 72  1  0  0  0  0
 55 79  1  0  0  0  0
 56 60  1  0  0  0  0
 56 71  1  0  0  0  0
 57 59  1  0  0  0  0
 57 70  1  0  0  0  0
 58 72  1  0  0  0  0
 60 63  1  0  0  0  0
 62 64  1  0  0  0  0
M  CHG  1  72   1
M  ISO  4  35 100  55 101  71 100  79 101
M  END
> <Batch ID>
0052

> <Smiles>
CNC(C)C(=O)NC(C(=O)N1Cc2cc([101O:1][101CH2:1]c3cn(C(C)(C)C[100NH:0][100C:0](=O)N4CCCC(n5nc(-c6ccc(Oc7ccc(F)cc7F)cc6)c(C(N)=O)c5N)C4)cn3)ccc2CC1C(=O)NC1CCCc2ccccc21)C(C)(C)C

> <Shape>
0.223

> <Color>
0.058

> <Negative vol penalty>
0.000

$$$$

  -OEChem-04052317363D

 83 91  0     1  0  0  0  0  0999 V2000
  -33.5199  -27.5200   22.1182 C   0  0  0  0  0  0  0  0  0  0  0  0
  -32.6965  -26.4320   22.3896 C   0  0  0  0  0  0  0  0  0  0  0  0
  -23.1802   -9.8223   19.9364 C   0  0  0  0  0  0  0  0  0  0  0  0
  -23.5576  -10.0073   22.3156 C   0  0  0  0  0  0  0  0  0  0  0  0
  -32.9595  -28.7408   21.7450 C   0  0  0  0  0  0  0  0  0  0  0  0
  -31.3120  -26.5645   22.2890 C   0  0  0  0  0  0  0  0  0  0  0  0
  -29.1580  -22.6698   19.8733 C   0  0  0  0  0  0  0  0  0  0  0  0
  -22.4083   -8.6799   20.1477 C   0  0  0  0  0  0  0  0  0  0  0  0
  -22.7857   -8.8648   22.5268 C   0  0  0  0  0  0  0  0  0  0  0  0
  -28.9852  -21.4896   20.5952 C   0  0  0  0  0  0  0  0  0  0  0  0
  -23.1711   -5.5156   22.2720 C   0  0  0  0  0  0  0  0  0  0  0  0
  -23.6643   -4.5543   23.1542 C   0  0  0  0  0  0  0  0  0  0  0  0
  -28.5974  -11.9994   24.5859 C   0  0  0  0  0  0  0  0  0  0  0  0
  -26.6710  -22.0615   20.9645 C   0  0  0  0  0  0  0  0  0  0  0  0
  -21.7080   -4.8273   24.5453 C   0  0  0  0  0  0  0  0  0  0  0  0
  -27.5504  -12.1814   25.5092 C   0  0  0  0  0  0  0  0  0  0  0  0
  -23.7549  -10.4860   21.0204 C   0  0  0  0  0  0  0  0  0  0  0  0
  -24.1056  -13.0004   20.7702 C   0  0  0  0  0  0  0  0  0  0  0  0
  -31.5680  -28.8858   21.6303 C   0  0  0  0  0  0  0  0  0  0  0  0
  -28.0895  -23.5613   19.7005 C   0  0  0  0  0  0  0  0  0  0  0  0
  -30.7325  -27.7889   21.9151 C   0  0  0  0  0  0  0  0  0  0  0  0
  -26.8321  -23.2510   20.2377 C   0  0  0  0  0  0  0  0  0  0  0  0
  -22.2111   -8.2011   21.4428 C   0  0  0  0  0  0  0  0  0  0  0  0
  -27.7423  -21.1867   21.1434 C   0  0  0  0  0  0  0  0  0  0  0  0
  -21.9464   -6.1329   22.5265 C   0  0  0  0  0  0  0  0  0  0  0  0
  -22.9327   -4.2101   24.2908 C   0  0  0  0  0  0  0  0  0  0  0  0
  -21.2148   -5.7887   23.6632 C   0  0  0  0  0  0  0  0  0  0  0  0
  -24.5528  -11.6659   20.8028 C   0  0  0  0  0  0  0  0  0  0  0  0
  -28.8847  -13.2657   24.1385 C   0  0  0  0  0  0  0  0  0  0  0  0
  -25.2405  -13.7371   20.5337 C   0  0  0  0  0  0  0  0  0  0  0  0
  -22.7828  -13.5270   20.9386 C   0  0  0  0  0  0  0  0  0  0  0  0
  -27.5265  -26.5763   20.5352 C   0  0  0  0  0  0  0  0  0  0  0  0
  -24.8535  -26.1636   18.7443 C   0  0  0  0  0  0  0  0  0  0  0  0
  -22.5651  -24.0133   17.4076 C   0  0  0  0  0  0  0  0  0  0  0  0
  -31.0748  -12.1813   21.5727 C   0  0  0  0  0  0  0  0  0  0  0  0
  -31.0063  -30.2382   21.2694 C   0  0  0  0  0  0  0  0  0  0  0  0
  -28.2854  -24.8173   18.8963 C   0  0  0  0  0  0  0  0  0  0  0  0
  -25.6478  -24.1650   20.0635 C   0  0  0  0  0  0  0  0  0  0  0  0
  -29.5475  -30.1922   20.8221 C   0  0  0  0  0  0  0  0  0  0  0  0
  -29.5355  -13.4576   18.4577 C   0  0  0  0  0  0  0  0  0  0  0  0
  -28.7231  -29.3346   21.7770 C   0  0  0  0  0  0  0  0  0  0  0  0
  -28.0495  -13.1852   18.6846 C   0  0  0  0  0  0  0  0  0  0  0  0
  -30.4156  -12.4650   19.2112 C   0  0  0  0  0  0  0  0  0  0  0  0
  -28.6395  -12.1162   20.8958 C   0  0  0  0  0  0  0  0  0  0  0  0
  -29.2272  -27.8864   21.7928 C   0  0  1  0  0  0  0  0  0  0  0  0
  -27.2605  -25.9000   19.2201 C   0  0  1  0  0  0  0  0  0  0  0  0
  -27.7256  -13.1274   20.1876 C   0  0  2  0  0  0  0  0  0  0  0  0
  -20.4729  -23.9745   16.0226 C   0  0  0  0  0  0  0  0  0  0  0  0
  -23.2427  -27.1136   21.1553 C   0  0  0  0  0  0  0  0  0  0  0  0
  -21.1940  -26.1661   20.0721 C   0  0  0  0  0  0  0  0  0  0  0  0
  -22.4545  -28.0070   18.9565 C   0  0  0  0  0  0  0  0  0  0  0  0
  -31.9286  -12.5565   23.8552 C   0  0  0  0  0  0  0  0  0  0  0  0
  -23.8571  -22.3968   15.2919 C   0  0  0  0  0  0  0  0  0  0  0  0
  -29.8810  -13.7457   23.1633 C   0  0  0  0  0  0  0  0  0  0  0  0
  -27.0790  -17.5232   23.2685 C   0  0  0  0  0  0  0  0  0  0  0  0
  -27.2056  -16.0021   23.3761 C   0  0  0  0  0  0  0  0  0  0  0  0
  -26.3869  -17.9318   21.9648 C   0  0  0  0  0  0  0  0  0  0  0  0
  -27.9335  -15.5953   24.6593 C   0  0  0  0  0  0  0  0  0  0  0  0
  -26.2726  -19.4446   21.8224 C   0  0  0  0  0  0  0  0  0  1  0  0
  -23.4484  -25.6831   19.0158 C   0  0  1  0  0  0  0  0  0  0  0  0
  -21.9915  -23.8957   16.0071 C   0  0  2  0  0  0  0  0  0  0  0  0
  -22.6075  -26.7259   19.8050 C   0  0  0  0  0  0  0  0  0  0  0  0
  -27.1967  -13.4626   25.6417 N   0  0  0  0  0  0  0  0  0  0  0  0
  -25.8690  -11.5581   20.6029 N   0  0  0  0  0  0  0  0  0  0  0  0
  -28.0261  -14.0970   24.7957 N   0  0  0  0  0  0  0  0  0  0  0  0
  -26.2587  -12.8342   20.4423 N   0  0  0  0  0  0  0  0  0  0  0  0
  -25.8912  -25.3839   19.2746 N   0  0  0  0  0  0  0  0  0  0  0  0
  -30.0578  -12.3983   20.6285 N   0  0  0  0  0  0  0  0  0  0  0  0
  -25.4568  -15.0626   20.3971 N   0  0  0  0  0  0  0  0  0  0  0  0
  -21.7317  -12.6304   21.1743 N   0  0  0  0  0  0  0  0  0  0  0  0
  -28.7675  -27.1783   20.6174 N   0  0  0  0  0  0  0  0  0  0  0  0
  -22.8845  -25.3176   17.7209 N   0  0  0  0  0  0  0  0  0  0  0  0
  -30.8964  -12.7441   22.8456 N   0  0  0  0  0  0  0  0  0  0  0  0
  -22.3886  -22.5976   15.3920 N   0  3  0  0  0  0  0  0  0  0  0  0
  -22.5374  -14.7550   20.8655 O   0  0  0  0  0  0  0  0  0  0  0  0
  -26.6686  -26.5548   21.4100 O   0  0  0  0  0  0  0  0  0  0  0  0
  -25.0242  -27.1888   18.0800 O   0  0  0  0  0  0  0  0  0  0  0  0
  -22.7115  -23.0455   18.1509 O   0  0  0  0  0  0  0  0  0  0  0  0
  -32.0890  -11.5302   21.2909 O   0  0  0  0  0  0  0  0  0  0  0  0
  -21.4577   -7.0865   21.6494 O   0  0  0  0  0  0  0  0  0  0  0  0
  -27.5711  -20.0358   21.8491 O   0  0  0  0  0  0  0  0  0  1  0  0
  -23.4057   -3.2858   25.1370 F   0  0  0  0  0  0  0  0  0  0  0  0
  -20.0370   -6.3773   23.9124 F   0  0  0  0  0  0  0  0  0  0  0  0
  1  2  1  0  0  0  0
  1  5  2  0  0  0  0
  2  6  2  0  0  0  0
  3  8  2  0  0  0  0
  3 17  1  0  0  0  0
  4  9  1  0  0  0  0
  4 17  2  0  0  0  0
  5 19  1  0  0  0  0
  6 21  1  0  0  0  0
  7 10  2  0  0  0  0
  7 20  1  0  0  0  0
  8 23  1  0  0  0  0
  9 23  2  0  0  0  0
 10 24  1  0  0  0  0
 11 12  2  0  0  0  0
 11 25  1  0  0  0  0
 12 26  1  0  0  0  0
 13 16  1  0  0  0  0
 13 29  2  0  0  0  0
 14 22  1  0  0  0  0
 14 24  2  0  0  0  0
 15 26  2  0  0  0  0
 15 27  1  0  0  0  0
 16 63  2  0  0  0  0
 17 28  1  0  0  0  0
 18 28  1  0  0  0  0
 18 30  2  0  0  0  0
 18 31  1  0  0  0  0
 19 21  2  0  0  0  0
 19 36  1  0  0  0  0
 20 22  2  0  0  0  0
 20 37  1  0  0  0  0
 21 45  1  0  0  0  0
 22 38  1  0  0  0  0
 23 80  1  0  0  0  0
 24 81  1  0  0  0  0
 25 27  2  0  0  0  0
 25 80  1  0  0  0  0
 26 82  1  0  0  0  0
 27 83  1  0  0  0  0
 28 64  2  0  0  0  0
 29 54  1  0  0  0  0
 29 65  1  0  0  0  0
 30 66  1  0  0  0  0
 30 69  1  0  0  0  0
 31 70  1  0  0  0  0
 31 75  2  0  0  0  0
 32 46  1  0  0  0  0
 32 71  1  0  0  0  0
 32 76  2  0  0  0  0
 33 60  1  0  0  0  0
 33 67  1  0  0  0  0
 33 77  2  0  0  0  0
 34 61  1  0  0  0  0
 34 72  1  0  0  0  0
 34 78  2  0  0  0  0
 35 68  1  0  0  0  0
 35 73  1  0  0  0  0
 35 79  2  0  0  0  0
 36 39  1  0  0  0  0
 37 46  1  0  0  0  0
 38 67  1  0  0  0  0
 39 41  1  0  0  0  0
 40 42  1  0  0  0  0
 40 43  1  0  0  0  0
 41 45  1  0  0  0  0
 42 47  1  0  0  0  0
 43 68  1  0  0  0  0
 44 47  1  0  0  0  0
 44 68  1  0  0  0  0
 45 71  1  0  0  0  0
 46 67  1  0  0  0  0
 47 66  1  0  0  0  0
 48 61  1  0  0  0  0
 49 62  1  0  0  0  0
 50 62  1  0  0  0  0
 51 62  1  0  0  0  0
 52 73  1  0  0  0  0
 53 74  1  0  0  0  0
 54 73  1  0  0  0  0
 55 56  1  0  0  0  0
 55 57  1  0  0  0  0
 56 58  1  0  0  0  0
 57 59  1  0  0  0  0
 58 65  1  0  0  0  0
 59 81  1  0  0  0  0
 60 62  1  0  0  0  0
 60 72  1  0  0  0  0
 61 74  1  0  0  0  0
 63 65  1  0  0  0  0
 64 66  1  0  0  0  0
M  CHG  1  74   1
M  ISO  4  35 100  59 101  73 100  81 101
M  END
> <Batch ID>
0052

> <Smiles>
CNC(C)C(=O)NC(C(=O)N1Cc2cc([101O:1][101CH2:1]CCCCn3nccc3C[100N:0](C)[100C:0](=O)N3CCCC(n4nc(-c5ccc(Oc6ccc(F)cc6F)cc5)c(C(N)=O)c4N)C3)ccc2CC1C(=O)NC1CCCc2ccccc21)C(C)(C)C

> <Shape>
0.226

> <Color>
0.190

> <Negative vol penalty>
0.000

$$$$

  -OEChem-04052317363D

 84 92  0     1  0  0  0  0  0999 V2000
  -16.6235  -29.0524   23.9874 C   0  0  0  0  0  0  0  0  0  0  0  0
  -17.3547  -27.8742   24.0995 C   0  0  0  0  0  0  0  0  0  0  0  0
  -22.8758  -10.1406   20.0755 C   0  0  0  0  0  0  0  0  0  0  0  0
  -23.5632  -10.1579   22.3915 C   0  0  0  0  0  0  0  0  0  0  0  0
  -17.0537  -30.0590   23.1240 C   0  0  0  0  0  0  0  0  0  0  0  0
  -18.5161  -27.7015   23.3473 C   0  0  0  0  0  0  0  0  0  0  0  0
  -23.5872  -24.7132   25.0383 C   0  0  0  0  0  0  0  0  0  0  0  0
  -22.0400   -9.0536   20.3316 C   0  0  0  0  0  0  0  0  0  0  0  0
  -22.7274   -9.0709   22.6477 C   0  0  0  0  0  0  0  0  0  0  0  0
  -24.0489  -23.4246   24.7735 C   0  0  0  0  0  0  0  0  0  0  0  0
  -22.7848   -5.7217   22.1893 C   0  0  0  0  0  0  0  0  0  0  0  0
  -23.2992   -4.6749   22.9542 C   0  0  0  0  0  0  0  0  0  0  0  0
  -25.3800  -24.2822   22.9535 C   0  0  0  0  0  0  0  0  0  0  0  0
  -21.5640   -5.0240   24.5987 C   0  0  0  0  0  0  0  0  0  0  0  0
  -26.2765  -19.4044   21.3207 C   0  0  0  0  0  0  0  0  0  0  0  0
  -23.6374  -10.6927   21.1054 C   0  0  0  0  0  0  0  0  0  0  0  0
  -24.1716  -13.1809   20.9292 C   0  0  0  0  0  0  0  0  0  0  0  0
  -18.2262  -29.9026   22.3681 C   0  0  0  0  0  0  0  0  0  0  0  0
  -24.0106  -25.7961   24.2546 C   0  0  0  0  0  0  0  0  0  0  0  0
  -18.9617  -28.7065   22.4720 C   0  0  0  0  0  0  0  0  0  0  0  0
  -24.9241  -25.5838   23.2121 C   0  0  0  0  0  0  0  0  0  0  0  0
  -21.9658   -8.5188   21.6177 C   0  0  0  0  0  0  0  0  0  0  0  0
  -24.9432  -23.2085   23.7291 C   0  0  0  0  0  0  0  0  0  0  0  0
  -21.6601   -6.4198   22.6291 C   0  0  0  0  0  0  0  0  0  0  0  0
  -22.6888   -4.3260   24.1589 C   0  0  0  0  0  0  0  0  0  0  0  0
  -21.0497   -6.0709   23.8338 C   0  0  0  0  0  0  0  0  0  0  0  0
  -24.5014  -11.8151   20.8413 C   0  0  0  0  0  0  0  0  0  0  0  0
  -26.6650  -20.3521   22.2380 C   0  0  0  0  0  0  0  0  0  0  0  0
  -25.3276  -13.8363   20.5820 C   0  0  0  0  0  0  0  0  0  0  0  0
  -27.6017  -18.4002   22.6497 C   0  0  0  0  0  0  0  0  0  0  0  0
  -22.9312  -13.8016   21.2922 C   0  0  0  0  0  0  0  0  0  0  0  0
  -22.5626  -27.8871   22.3481 C   0  0  0  0  0  0  0  0  0  0  0  0
  -25.5112  -29.2343   22.2334 C   0  0  0  0  0  0  0  0  0  0  0  0
  -28.8867  -28.8500   22.5579 C   0  0  0  0  0  0  0  0  0  0  0  0
  -31.1192  -12.8851   21.3796 C   0  0  0  0  0  0  0  0  0  0  0  0
  -18.6259  -30.9992   21.4130 C   0  0  0  0  0  0  0  0  0  0  0  0
  -23.5239  -27.1839   24.5701 C   0  0  0  0  0  0  0  0  0  0  0  0
  -25.4251  -26.7157   22.3540 C   0  0  0  0  0  0  0  0  0  0  0  0
  -20.0704  -30.8911   20.9314 C   0  0  0  0  0  0  0  0  0  0  0  0
  -29.4214  -12.6363   18.0998 C   0  0  0  0  0  0  0  0  0  0  0  0
  -20.3870  -29.4595   20.5105 C   0  0  0  0  0  0  0  0  0  0  0  0
  -27.9571  -12.4539   18.4957 C   0  0  0  0  0  0  0  0  0  0  0  0
  -30.3689  -12.0938   19.1654 C   0  0  0  0  0  0  0  0  0  0  0  0
  -28.6676  -12.4716   20.9196 C   0  0  0  0  0  0  0  0  0  0  0  0
  -20.2402  -28.4921   21.6912 C   0  0  1  0  0  0  0  0  0  0  0  0
  -23.6234  -28.1364   23.3826 C   0  0  1  0  0  0  0  0  0  0  0  0
  -27.6870  -13.0498   19.8883 C   0  0  2  0  0  0  0  0  0  0  0  0
  -31.0415  -30.1217   22.3658 C   0  0  0  0  0  0  0  0  0  0  0  0
  -25.3197  -29.0942   19.1914 C   0  0  0  0  0  0  0  0  0  0  0  0
  -27.7934  -29.4663   19.0883 C   0  0  0  0  0  0  0  0  0  0  0  0
  -26.3116  -31.2120   20.0779 C   0  0  0  0  0  0  0  0  0  0  0  0
  -28.1929  -20.2629   24.2247 C   0  0  0  0  0  0  0  0  0  0  0  0
  -32.0325  -14.2393   23.2266 C   0  0  0  0  0  0  0  0  0  0  0  0
  -29.5515  -28.3815   25.4035 C   0  0  0  0  0  0  0  0  0  0  0  0
  -26.7606  -15.7473   24.1452 C   0  0  0  0  0  0  0  0  0  0  0  0
  -26.3098  -21.8027   22.3830 C   0  0  0  0  0  0  0  0  0  1  0  0
  -28.4414  -17.3957   23.3338 C   0  0  0  0  0  0  0  0  0  0  0  0
  -29.9128  -14.9570   22.1886 C   0  0  0  0  0  0  0  0  0  0  0  0
  -29.0094  -14.9723   23.4075 C   0  0  0  0  0  0  0  0  0  0  0  0
  -26.7281  -29.0703   21.3552 C   0  0  1  0  0  0  0  0  0  0  0  0
  -29.9274  -29.6711   23.2977 C   0  0  2  0  0  0  0  0  0  0  0  0
  -26.5275  -29.6889   19.9430 C   0  0  0  0  0  0  0  0  0  0  0  0
  -26.8628  -18.1914   21.5827 N   0  0  0  0  0  0  0  0  0  0  0  0
  -25.7677  -11.6135   20.4674 N   0  0  0  0  0  0  0  0  0  0  0  0
  -27.5135  -19.6939   23.0831 N   0  0  0  0  0  0  0  0  0  0  0  0
  -26.2438  -12.8613   20.3173 N   0  0  0  0  0  0  0  0  0  0  0  0
  -24.9152  -28.0533   22.6980 N   0  0  0  0  0  0  0  0  0  0  0  0
  -30.0624  -12.6435   20.4865 N   0  0  0  0  0  0  0  0  0  0  0  0
  -25.6396  -15.1458   20.4804 N   0  0  0  0  0  0  0  0  0  0  0  0
  -21.8439  -12.9803   21.6203 N   0  0  0  0  0  0  0  0  0  0  0  0
  -21.3895  -28.5841   22.5660 N   0  0  0  0  0  0  0  0  0  0  0  0
  -27.8484  -29.6338   22.1007 N   0  0  0  0  0  0  0  0  0  0  0  0
  -30.9596  -13.9423   22.2882 N   0  0  0  0  0  0  0  0  0  0  0  0
  -30.5316  -28.8700   24.3996 N   0  3  0  0  0  0  0  0  0  0  0  0
  -27.9235  -15.9979   23.2236 N   0  3  1  0  0  0  0  0  0  0  0  0
  -22.7864  -15.0475   21.3089 O   0  0  0  0  0  0  0  0  0  0  0  0
  -22.7919  -27.1203   21.4201 O   0  0  0  0  0  0  0  0  0  0  0  0
  -25.1086  -30.3687   22.5033 O   0  0  0  0  0  0  0  0  0  0  0  0
  -28.9867  -27.6355   22.3982 O   0  0  0  0  0  0  0  0  0  0  0  0
  -32.1507  -12.2014   21.3592 O   0  0  0  0  0  0  0  0  0  0  0  0
  -21.1502   -7.4583   21.8681 O   0  0  0  0  0  0  0  0  0  0  0  0
  -25.3950  -21.9517   23.4680 O   0  0  0  0  0  0  0  0  0  1  0  0
  -23.1819   -3.3196   24.8926 F   0  0  0  0  0  0  0  0  0  0  0  0
  -19.9682   -6.7370   24.2609 F   0  0  0  0  0  0  0  0  0  0  0  0
  1  2  1  0  0  0  0
  1  5  2  0  0  0  0
  2  6  2  0  0  0  0
  3  8  2  0  0  0  0
  3 16  1  0  0  0  0
  4  9  1  0  0  0  0
  4 16  2  0  0  0  0
  5 18  1  0  0  0  0
  6 20  1  0  0  0  0
  7 10  2  0  0  0  0
  7 19  1  0  0  0  0
  8 22  1  0  0  0  0
  9 22  2  0  0  0  0
 10 23  1  0  0  0  0
 11 12  2  0  0  0  0
 11 24  1  0  0  0  0
 12 25  1  0  0  0  0
 13 21  1  0  0  0  0
 13 23  2  0  0  0  0
 14 25  2  0  0  0  0
 14 26  1  0  0  0  0
 15 28  2  0  0  0  0
 15 63  1  0  0  0  0
 16 27  1  0  0  0  0
 17 27  1  0  0  0  0
 17 29  2  0  0  0  0
 17 31  1  0  0  0  0
 18 20  2  0  0  0  0
 18 36  1  0  0  0  0
 19 21  2  0  0  0  0
 19 37  1  0  0  0  0
 20 45  1  0  0  0  0
 21 38  1  0  0  0  0
 22 81  1  0  0  0  0
 23 82  1  0  0  0  0
 24 26  2  0  0  0  0
 24 81  1  0  0  0  0
 25 83  1  0  0  0  0
 26 84  1  0  0  0  0
 27 64  2  0  0  0  0
 28 56  1  0  0  0  0
 28 65  1  0  0  0  0
 29 66  1  0  0  0  0
 29 69  1  0  0  0  0
 30 57  1  0  0  0  0
 30 63  2  0  0  0  0
 30 65  1  0  0  0  0
 31 70  1  0  0  0  0
 31 76  2  0  0  0  0
 32 46  1  0  0  0  0
 32 71  1  0  0  0  0
 32 77  2  0  0  0  0
 33 60  1  0  0  0  0
 33 67  1  0  0  0  0
 33 78  2  0  0  0  0
 34 61  1  0  0  0  0
 34 72  1  0  0  0  0
 34 79  2  0  0  0  0
 35 68  1  0  0  0  0
 35 73  1  0  0  0  0
 35 80  2  0  0  0  0
 36 39  1  0  0  0  0
 37 46  1  0  0  0  0
 38 67  1  0  0  0  0
 39 41  1  0  0  0  0
 40 42  1  0  0  0  0
 40 43  1  0  0  0  0
 41 45  1  0  0  0  0
 42 47  1  0  0  0  0
 43 68  1  0  0  0  0
 44 47  1  0  0  0  0
 44 68  1  0  0  0  0
 45 71  1  0  0  0  0
 46 67  1  0  0  0  0
 47 66  1  0  0  0  0
 48 61  1  0  0  0  0
 49 62  1  0  0  0  0
 50 62  1  0  0  0  0
 51 62  1  0  0  0  0
 52 65  1  0  0  0  0
 53 73  1  0  0  0  0
 54 74  1  0  0  0  0
 55 75  1  0  0  0  0
 56 82  1  0  0  0  0
 57 75  1  0  0  0  0
 58 59  1  0  0  0  0
 58 73  1  0  0  0  0
 59 75  1  0  0  0  0
 60 62  1  0  0  0  0
 60 72  1  0  0  0  0
 61 74  1  0  0  0  0
 64 66  1  0  0  0  0
M  CHG  2  74   1  75   1
M  ISO  4  35 100  56 101  73 100  82 101
M  END
> <Batch ID>
0052

> <Smiles>
CNC(C)C(=O)NC(C(=O)N1Cc2cc([101O:1][101CH2:1]c3cnc(CN(C)CC[100N:0](C)[100C:0](=O)N4CCCC(n5nc(-c6ccc(Oc7ccc(F)cc7F)cc6)c(C(N)=O)c5N)C4)n3C)ccc2CC1C(=O)NC1CCCc2ccccc21)C(C)(C)C

> <Shape>
0.264

> <Color>
0.193

> <Negative vol penalty>
0.000

$$$$

  -OEChem-04052317363D

 81 89  0     1  0  0  0  0  0999 V2000
  -30.9058  -25.0748   17.0557 C   0  0  0  0  0  0  0  0  0  0  0  0
  -30.4774  -24.4050   18.1973 C   0  0  0  0  0  0  0  0  0  0  0  0
  -25.7143  -16.0065   19.8535 C   0  0  0  0  0  0  0  0  0  0  0  0
  -24.6929  -17.3439   21.5870 C   0  0  0  0  0  0  0  0  0  0  0  0
  -30.6516  -26.4381   16.9120 C   0  0  0  0  0  0  0  0  0  0  0  0
  -29.7954  -25.0985   19.1965 C   0  0  0  0  0  0  0  0  0  0  0  0
  -25.2884  -22.9549   22.7458 C   0  0  0  0  0  0  0  0  0  0  0  0
  -24.5914  -15.1794   19.8300 C   0  0  0  0  0  0  0  0  0  0  0  0
  -23.5699  -16.5168   21.5635 C   0  0  0  0  0  0  0  0  0  0  0  0
  -25.2771  -22.4518   24.0460 C   0  0  0  0  0  0  0  0  0  0  0  0
  -23.3304  -12.6393   21.6691 C   0  0  0  0  0  0  0  0  0  0  0  0
  -23.5422  -11.2609   21.6407 C   0  0  0  0  0  0  0  0  0  0  0  0
  -24.6496  -24.6281   24.8762 C   0  0  0  0  0  0  0  0  0  0  0  0
  -22.3573  -11.1221   19.5397 C   0  0  0  0  0  0  0  0  0  0  0  0
  -28.8314  -21.8858   26.7524 C   0  0  0  0  0  0  0  0  0  0  0  0
  -25.7651  -17.0888   20.7321 C   0  0  0  0  0  0  0  0  0  0  0  0
  -27.1428  -19.1036   19.9906 C   0  0  0  0  0  0  0  0  0  0  0  0
  -29.9576  -27.1466   17.9055 C   0  0  0  0  0  0  0  0  0  0  0  0
  -24.9906  -24.3033   22.5017 C   0  0  0  0  0  0  0  0  0  0  0  0
  -29.5328  -26.4729   19.0666 C   0  0  0  0  0  0  0  0  0  0  0  0
  -24.6554  -25.1452   23.5717 C   0  0  0  0  0  0  0  0  0  0  0  0
  -23.5192  -15.4345   20.6849 C   0  0  0  0  0  0  0  0  0  0  0  0
  -24.9605  -23.2891   25.1117 C   0  0  0  0  0  0  0  0  0  0  0  0
  -22.6320  -13.2591   20.6328 C   0  0  0  0  0  0  0  0  0  0  0  0
  -23.0557  -10.5023   20.5760 C   0  0  0  0  0  0  0  0  0  0  0  0
  -22.1455  -12.5005   19.5682 C   0  0  0  0  0  0  0  0  0  0  0  0
  -26.9250  -17.9432   20.7572 C   0  0  0  0  0  0  0  0  0  0  0  0
  -29.3833  -20.9415   27.5898 C   0  0  0  0  0  0  0  0  0  0  0  0
  -27.6859  -21.2762   29.0856 C   0  0  0  0  0  0  0  0  0  0  0  0
  -27.1346  -22.2209   28.2484 C   0  0  0  0  0  0  0  0  0  0  0  0
  -28.3831  -19.5456   20.3815 C   0  0  0  0  0  0  0  0  0  0  0  0
  -26.2994  -19.7264   19.0126 C   0  0  0  0  0  0  0  0  0  0  0  0
  -26.5809  -26.7643   21.2697 C   0  0  0  0  0  0  0  0  0  0  0  0
  -23.7161  -28.2584   21.5582 C   0  0  0  0  0  0  0  0  0  0  0  0
  -20.6829  -28.4326   23.1127 C   0  0  0  0  0  0  0  0  0  0  0  0
  -31.5745  -18.8253   25.3962 C   0  0  0  0  0  0  0  0  0  0  0  0
  -29.7477  -28.6295   17.7271 C   0  0  0  0  0  0  0  0  0  0  0  0
  -24.9811  -24.8241   21.0907 C   0  0  0  0  0  0  0  0  0  0  0  0
  -24.3083  -26.5956   23.3609 C   0  0  0  0  0  0  0  0  0  0  0  0
  -28.6903  -29.2117   18.6615 C   0  0  0  0  0  0  0  0  0  0  0  0
  -32.5595  -17.9529   22.0878 C   0  0  0  0  0  0  0  0  0  0  0  0
  -28.9032  -28.7109   20.0866 C   0  0  0  0  0  0  0  0  0  0  0  0
  -31.2468  -17.9562   21.3025 C   0  0  0  0  0  0  0  0  0  0  0  0
  -32.3655  -17.4290   23.5091 C   0  0  0  0  0  0  0  0  0  0  0  0
  -29.9984  -18.1148   23.4968 C   0  0  0  0  0  0  0  0  0  0  0  0
  -28.7683  -27.1852   20.1612 C   0  0  1  0  0  0  0  0  0  0  0  0
  -25.1640  -26.3366   21.0108 C   0  0  1  0  0  0  0  0  0  0  0  0
  -30.1328  -18.6875   22.0754 C   0  0  2  0  0  0  0  0  0  0  0  0
  -27.0529  -20.9292   30.3896 C   0  0  0  0  0  0  0  0  0  0  0  0
  -18.5692  -29.7842   23.1615 C   0  0  0  0  0  0  0  0  0  0  0  0
  -25.1585  -30.4537   23.1108 C   0  0  0  0  0  0  0  0  0  0  0  0
  -22.9282  -31.2446   23.9281 C   0  0  0  0  0  0  0  0  0  0  0  0
  -23.4438  -31.2782   21.4877 C   0  0  0  0  0  0  0  0  0  0  0  0
  -19.0383  -26.1039   22.3180 C   0  0  0  0  0  0  0  0  0  0  0  0
  -25.8635  -22.9491   28.6122 C   0  0  0  0  0  0  0  0  0  0  0  0
  -30.6381  -20.2365   27.2103 C   0  0  0  0  0  0  0  0  0  0  0  0
  -25.2738  -23.7120   27.4310 C   0  0  0  0  0  0  0  0  0  1  0  0
  -23.0345  -29.0642   22.6377 C   0  0  1  0  0  0  0  0  0  0  0  0
  -19.2758  -28.5784   22.5621 C   0  0  2  0  0  0  0  0  0  0  0  0
  -23.6497  -30.4834   22.7956 C   0  0  0  0  0  0  0  0  0  0  0  0
  -27.6971  -22.5425   27.0666 N   0  0  0  0  0  0  0  0  0  0  0  0
  -27.9451  -17.6654   21.5734 N   0  0  0  0  0  0  0  0  0  0  0  0
  -28.8204  -20.6197   28.7714 N   0  0  0  0  0  0  0  0  0  0  0  0
  -28.8160  -18.6575   21.3217 N   0  0  0  0  0  0  0  0  0  0  0  0
  -24.3189  -27.0592   21.9636 N   0  0  0  0  0  0  0  0  0  0  0  0
  -31.2964  -18.1655   24.1878 N   0  0  0  0  0  0  0  0  0  0  0  0
  -29.1347  -20.6034   20.0093 N   0  0  0  0  0  0  0  0  0  0  0  0
  -25.0574  -19.1410   18.7314 N   0  0  0  0  0  0  0  0  0  0  0  0
  -27.3736  -26.7994   20.1384 N   0  0  0  0  0  0  0  0  0  0  0  0
  -21.6124  -29.0622   22.3121 N   0  0  0  0  0  0  0  0  0  0  0  0
  -30.5069  -19.5047   25.9701 N   0  0  0  0  0  0  0  0  0  0  0  0
  -18.4712  -27.3619   22.8683 N   0  3  0  0  0  0  0  0  0  0  0  0
  -26.6441  -20.7618   18.3941 O   0  0  0  0  0  0  0  0  0  0  0  0
  -26.9288  -27.0434   22.4111 O   0  0  0  0  0  0  0  0  0  0  0  0
  -23.7077  -28.6741   20.3969 O   0  0  0  0  0  0  0  0  0  0  0  0
  -20.9322  -27.8245   24.1512 O   0  0  0  0  0  0  0  0  0  0  0  0
  -32.6928  -18.8144   25.9218 O   0  0  0  0  0  0  0  0  0  0  0  0
  -22.4232  -14.6278   20.6621 O   0  0  0  0  0  0  0  0  0  0  0  0
  -24.9493  -22.8007   26.3819 O   0  0  0  0  0  0  0  0  0  1  0  0
  -23.2605   -9.1789   20.5481 F   0  0  0  0  0  0  0  0  0  0  0  0
  -21.4749  -13.0906   18.5692 F   0  0  0  0  0  0  0  0  0  0  0  0
  1  2  1  0  0  0  0
  1  5  2  0  0  0  0
  2  6  2  0  0  0  0
  3  8  2  0  0  0  0
  3 16  1  0  0  0  0
  4  9  1  0  0  0  0
  4 16  2  0  0  0  0
  5 18  1  0  0  0  0
  6 20  1  0  0  0  0
  7 10  2  0  0  0  0
  7 19  1  0  0  0  0
  8 22  1  0  0  0  0
  9 22  2  0  0  0  0
 10 23  1  0  0  0  0
 11 12  2  0  0  0  0
 11 24  1  0  0  0  0
 12 25  1  0  0  0  0
 13 21  1  0  0  0  0
 13 23  2  0  0  0  0
 14 25  2  0  0  0  0
 14 26  1  0  0  0  0
 15 28  1  0  0  0  0
 15 61  2  0  0  0  0
 16 27  1  0  0  0  0
 17 27  1  0  0  0  0
 17 31  2  0  0  0  0
 17 32  1  0  0  0  0
 18 20  2  0  0  0  0
 18 37  1  0  0  0  0
 19 21  2  0  0  0  0
 19 38  1  0  0  0  0
 20 46  1  0  0  0  0
 21 39  1  0  0  0  0
 22 78  1  0  0  0  0
 23 79  1  0  0  0  0
 24 26  2  0  0  0  0
 24 78  1  0  0  0  0
 25 80  1  0  0  0  0
 26 81  1  0  0  0  0
 27 62  2  0  0  0  0
 28 56  1  0  0  0  0
 28 63  2  0  0  0  0
 29 30  2  0  0  0  0
 29 49  1  0  0  0  0
 29 63  1  0  0  0  0
 30 55  1  0  0  0  0
 30 61  1  0  0  0  0
 31 64  1  0  0  0  0
 31 67  1  0  0  0  0
 32 68  1  0  0  0  0
 32 73  2  0  0  0  0
 33 47  1  0  0  0  0
 33 69  1  0  0  0  0
 33 74  2  0  0  0  0
 34 58  1  0  0  0  0
 34 65  1  0  0  0  0
 34 75  2  0  0  0  0
 35 59  1  0  0  0  0
 35 70  1  0  0  0  0
 35 76  2  0  0  0  0
 36 66  1  0  0  0  0
 36 71  1  0  0  0  0
 36 77  2  0  0  0  0
 37 40  1  0  0  0  0
 38 47  1  0  0  0  0
 39 65  1  0  0  0  0
 40 42  1  0  0  0  0
 41 43  1  0  0  0  0
 41 44  1  0  0  0  0
 42 46  1  0  0  0  0
 43 48  1  0  0  0  0
 44 66  1  0  0  0  0
 45 48  1  0  0  0  0
 45 66  1  0  0  0  0
 46 69  1  0  0  0  0
 47 65  1  0  0  0  0
 48 64  1  0  0  0  0
 50 59  1  0  0  0  0
 51 60  1  0  0  0  0
 52 60  1  0  0  0  0
 53 60  1  0  0  0  0
 54 72  1  0  0  0  0
 55 57  1  0  0  0  0
 56 71  1  0  0  0  0
 57 79  1  0  0  0  0
 58 60  1  0  0  0  0
 58 70  1  0  0  0  0
 59 72  1  0  0  0  0
 62 64  1  0  0  0  0
M  CHG  1  72   1
M  ISO  4  36 100  57 101  71 100  79 101
M  END
> <Batch ID>
0052

> <Smiles>
CNC(C)C(=O)NC(C(=O)N1Cc2cc([101O:1][101CH2:1]Cc3ncc(C[100NH:0][100C:0](=O)N4CCCC(n5nc(-c6ccc(Oc7ccc(F)cc7F)cc6)c(C(N)=O)c5N)C4)nc3C)ccc2CC1C(=O)NC1CCCc2ccccc21)C(C)(C)C

> <Shape>
0.209

> <Color>
0.053

> <Negative vol penalty>
0.000

$$$$

  -OEChem-04052317363D

 79 87  0     1  0  0  0  0  0999 V2000
  -32.8675  -30.2169   11.4682 C   0  0  0  0  0  0  0  0  0  0  0  0
  -32.7220  -28.9809   12.0901 C   0  0  0  0  0  0  0  0  0  0  0  0
  -23.1009   -9.8374   19.9411 C   0  0  0  0  0  0  0  0  0  0  0  0
  -23.8738   -9.8634   22.2300 C   0  0  0  0  0  0  0  0  0  0  0  0
  -32.6025  -31.3880   12.1769 C   0  0  0  0  0  0  0  0  0  0  0  0
  -32.3125  -28.9155   13.4215 C   0  0  0  0  0  0  0  0  0  0  0  0
  -28.7806  -24.6158   15.9796 C   0  0  0  0  0  0  0  0  0  0  0  0
  -22.3910   -8.6637   20.1941 C   0  0  0  0  0  0  0  0  0  0  0  0
  -23.1638   -8.6896   22.4830 C   0  0  0  0  0  0  0  0  0  0  0  0
  -29.0803  -23.4834   16.7356 C   0  0  0  0  0  0  0  0  0  0  0  0
  -19.4748   -7.7836   21.6617 C   0  0  0  0  0  0  0  0  0  0  0  0
  -18.1668   -7.7014   21.1840 C   0  0  0  0  0  0  0  0  0  0  0  0
  -28.7005  -24.7411   18.7588 C   0  0  0  0  0  0  0  0  0  0  0  0
  -18.7728   -5.7760   19.8563 C   0  0  0  0  0  0  0  0  0  0  0  0
  -31.1463  -19.4995   19.2080 C   0  0  0  0  0  0  0  0  0  0  0  0
  -28.9698  -19.7187   20.0273 C   0  0  0  0  0  0  0  0  0  0  0  0
  -23.8424  -10.4372   20.9591 C   0  0  0  0  0  0  0  0  0  0  0  0
  -24.1128  -12.9711   20.8399 C   0  0  0  0  0  0  0  0  0  0  0  0
  -32.1802  -31.3365   13.5147 C   0  0  0  0  0  0  0  0  0  0  0  0
  -28.4487  -25.8243   16.6087 C   0  0  0  0  0  0  0  0  0  0  0  0
  -32.0429  -30.0870   14.1491 C   0  0  0  0  0  0  0  0  0  0  0  0
  -28.3945  -25.8867   18.0085 C   0  0  0  0  0  0  0  0  0  0  0  0
  -29.9315  -20.1503   19.1368 C   0  0  0  0  0  0  0  0  0  0  0  0
  -22.4224   -8.0898   21.4650 C   0  0  0  0  0  0  0  0  0  0  0  0
  -29.0431  -23.5467   18.1255 C   0  0  0  0  0  0  0  0  0  0  0  0
  -20.4318   -6.8621   21.2366 C   0  0  0  0  0  0  0  0  0  0  0  0
  -17.8158   -6.6976   20.2814 C   0  0  0  0  0  0  0  0  0  0  0  0
  -20.0808   -5.8583   20.3340 C   0  0  0  0  0  0  0  0  0  0  0  0
  -24.5764  -11.6494   20.6982 C   0  0  0  0  0  0  0  0  0  0  0  0
  -25.1815  -13.7511   20.4711 C   0  0  0  0  0  0  0  0  0  0  0  0
  -30.3938  -18.1732   20.8938 C   0  0  0  0  0  0  0  0  0  0  0  0
  -22.8309  -13.4508   21.2669 C   0  0  0  0  0  0  0  0  0  0  0  0
  -29.7206  -28.7363   16.6858 C   0  0  0  0  0  0  0  0  0  0  0  0
  -27.0309  -29.4431   18.3557 C   0  0  0  0  0  0  0  0  0  0  0  0
  -24.4703  -28.3425   20.3251 C   0  0  0  0  0  0  0  0  0  0  0  0
  -30.6356  -14.9227   20.6286 C   0  0  0  0  0  0  0  0  0  0  0  0
  -31.9512  -32.6310   14.2540 C   0  0  0  0  0  0  0  0  0  0  0  0
  -28.1019  -27.0297   15.7785 C   0  0  0  0  0  0  0  0  0  0  0  0
  -28.0242  -27.1546   18.7320 C   0  0  0  0  0  0  0  0  0  0  0  0
  -31.1605  -32.4613   15.5487 C   0  0  0  0  0  0  0  0  0  0  0  0
  -29.5511  -12.5097   18.2458 C   0  0  0  0  0  0  0  0  0  0  0  0
  -31.7081  -31.2908   16.3592 C   0  0  0  0  0  0  0  0  0  0  0  0
  -28.1249  -12.1755   18.6868 C   0  0  0  0  0  0  0  0  0  0  0  0
  -30.4687  -12.7549   19.4415 C   0  0  0  0  0  0  0  0  0  0  0  0
  -28.5555  -13.4312   20.8401 C   0  0  0  0  0  0  0  0  0  0  0  0
  -31.5769  -29.9740   15.5844 C   0  0  1  0  0  0  0  0  0  0  0  0
  -28.2782  -28.3447   16.5316 C   0  0  1  0  0  0  0  0  0  0  0  0
  -27.5797  -13.2306   19.6679 C   0  0  2  0  0  0  0  0  0  0  0  0
  -22.4487  -29.1600   21.5670 C   0  0  0  0  0  0  0  0  0  0  0  0
  -28.8347  -30.5836   20.5364 C   0  0  0  0  0  0  0  0  0  0  0  0
  -26.8806  -30.5005   22.0992 C   0  0  0  0  0  0  0  0  0  0  0  0
  -26.7864  -31.9380   20.0627 C   0  0  0  0  0  0  0  0  0  0  0  0
  -22.6534  -26.6487   18.7161 C   0  0  0  0  0  0  0  0  0  0  0  0
  -29.6729  -21.2535   18.1532 C   0  0  0  0  0  0  0  0  0  1  0  0
  -30.6487  -17.0731   21.8675 C   0  0  0  0  0  0  0  0  0  0  0  0
  -26.6427  -29.4261   19.8144 C   0  0  1  0  0  0  0  0  0  0  0  0
  -22.9733  -28.5858   20.2601 C   0  0  2  0  0  0  0  0  0  0  0  0
  -27.2950  -30.5885   20.6149 C   0  0  0  0  0  0  0  0  0  0  0  0
  -31.4129  -18.5029   20.0775 N   0  0  0  0  0  0  0  0  0  0  0  0
  -29.1675  -18.7289   20.9227 N   0  0  0  0  0  0  0  0  0  0  0  0
  -25.8409  -11.5893   20.2724 N   0  0  0  0  0  0  0  0  0  0  0  0
  -26.1811  -12.8830   20.1433 N   0  0  0  0  0  0  0  0  0  0  0  0
  -27.6996  -28.3079   17.8763 N   0  0  0  0  0  0  0  0  0  0  0  0
  -29.8949  -13.7668   20.3319 N   0  0  0  0  0  0  0  0  0  0  0  0
  -25.3542  -15.0880   20.3984 N   0  0  0  0  0  0  0  0  0  0  0  0
  -21.8468  -12.5134   21.6090 N   0  0  0  0  0  0  0  0  0  0  0  0
  -30.2142  -29.4897   15.6379 N   0  0  0  0  0  0  0  0  0  0  0  0
  -25.1842  -29.4217   19.8487 N   0  0  0  0  0  0  0  0  0  0  0  0
  -30.0157  -15.8336   21.4752 N   0  0  0  0  0  0  0  0  0  0  0  0
  -22.2528  -27.3108   19.9842 N   0  3  0  0  0  0  0  0  0  0  0  0
  -22.5607  -14.6743   21.3270 O   0  0  0  0  0  0  0  0  0  0  0  0
  -30.3395  -28.3825   17.6826 O   0  0  0  0  0  0  0  0  0  0  0  0
  -26.7448  -30.4245   17.6652 O   0  0  0  0  0  0  0  0  0  0  0  0
  -24.9576  -27.3009   20.7588 O   0  0  0  0  0  0  0  0  0  0  0  0
  -31.7636  -15.1303   20.1685 O   0  0  0  0  0  0  0  0  0  0  0  0
  -21.7297   -6.9446   21.7123 O   0  0  0  0  0  0  0  0  0  0  0  0
  -29.3359  -22.4430   18.8658 O   0  0  0  0  0  0  0  0  0  1  0  0
  -16.5594   -6.6178   19.8240 F   0  0  0  0  0  0  0  0  0  0  0  0
  -20.9955   -4.9694   19.9229 F   0  0  0  0  0  0  0  0  0  0  0  0
  1  2  1  0  0  0  0
  1  5  2  0  0  0  0
  2  6  2  0  0  0  0
  3  8  2  0  0  0  0
  3 17  1  0  0  0  0
  4  9  1  0  0  0  0
  4 17  2  0  0  0  0
  5 19  1  0  0  0  0
  6 21  1  0  0  0  0
  7 10  2  0  0  0  0
  7 20  1  0  0  0  0
  8 24  1  0  0  0  0
  9 24  2  0  0  0  0
 10 25  1  0  0  0  0
 11 12  2  0  0  0  0
 11 26  1  0  0  0  0
 12 27  1  0  0  0  0
 13 22  1  0  0  0  0
 13 25  2  0  0  0  0
 14 27  2  0  0  0  0
 14 28  1  0  0  0  0
 15 23  1  0  0  0  0
 15 59  2  0  0  0  0
 16 23  2  0  0  0  0
 16 60  1  0  0  0  0
 17 29  1  0  0  0  0
 18 29  1  0  0  0  0
 18 30  2  0  0  0  0
 18 32  1  0  0  0  0
 19 21  2  0  0  0  0
 19 37  1  0  0  0  0
 20 22  2  0  0  0  0
 20 38  1  0  0  0  0
 21 46  1  0  0  0  0
 22 39  1  0  0  0  0
 23 54  1  0  0  0  0
 24 76  1  0  0  0  0
 25 77  1  0  0  0  0
 26 28  2  0  0  0  0
 26 76  1  0  0  0  0
 27 78  1  0  0  0  0
 28 79  1  0  0  0  0
 29 61  2  0  0  0  0
 30 62  1  0  0  0  0
 30 65  1  0  0  0  0
 31 55  1  0  0  0  0
 31 59  1  0  0  0  0
 31 60  2  0  0  0  0
 32 66  1  0  0  0  0
 32 71  2  0  0  0  0
 33 47  1  0  0  0  0
 33 67  1  0  0  0  0
 33 72  2  0  0  0  0
 34 56  1  0  0  0  0
 34 63  1  0  0  0  0
 34 73  2  0  0  0  0
 35 57  1  0  0  0  0
 35 68  1  0  0  0  0
 35 74  2  0  0  0  0
 36 64  1  0  0  0  0
 36 69  1  0  0  0  0
 36 75  2  0  0  0  0
 37 40  1  0  0  0  0
 38 47  1  0  0  0  0
 39 63  1  0  0  0  0
 40 42  1  0  0  0  0
 41 43  1  0  0  0  0
 41 44  1  0  0  0  0
 42 46  1  0  0  0  0
 43 48  1  0  0  0  0
 44 64  1  0  0  0  0
 45 48  1  0  0  0  0
 45 64  1  0  0  0  0
 46 67  1  0  0  0  0
 47 63  1  0  0  0  0
 48 62  1  0  0  0  0
 49 57  1  0  0  0  0
 50 58  1  0  0  0  0
 51 58  1  0  0  0  0
 52 58  1  0  0  0  0
 53 70  1  0  0  0  0
 54 77  1  0  0  0  0
 55 69  1  0  0  0  0
 56 58  1  0  0  0  0
 56 68  1  0  0  0  0
 57 70  1  0  0  0  0
 61 62  1  0  0  0  0
M  CHG  1  70   1
M  ISO  4  36 100  54 101  69 100  77 101
M  END
> <Batch ID>
0052

> <Smiles>
CNC(C)C(=O)NC(C(=O)N1Cc2cc([101O:1][101CH2:1]c3cnc(C[100NH:0][100C:0](=O)N4CCCC(n5nc(-c6ccc(Oc7ccc(F)cc7F)cc6)c(C(N)=O)c5N)C4)nc3)ccc2CC1C(=O)NC1CCCc2ccccc21)C(C)(C)C

> <Shape>
0.256

> <Color>
0.211

> <Negative vol penalty>
0.000

$$$$

  -OEChem-04052317363D

 82 90  0     1  0  0  0  0  0999 V2000
  -28.5364  -11.2865   21.6184 C   0  0  0  0  0  0  0  0  0  0  0  0
  -29.0502  -12.5461   21.3268 C   0  0  0  0  0  0  0  0  0  0  0  0
  -21.8586  -27.6328   22.8284 C   0  0  0  0  0  0  0  0  0  0  0  0
  -22.5904  -29.0860   21.0424 C   0  0  0  0  0  0  0  0  0  0  0  0
  -27.2151  -10.9817   21.2943 C   0  0  0  0  0  0  0  0  0  0  0  0
  -28.2431  -13.5012   20.7098 C   0  0  0  0  0  0  0  0  0  0  0  0
  -28.3538  -19.5566   21.6190 C   0  0  0  0  0  0  0  0  0  0  0  0
  -20.9467  -28.6029   23.2442 C   0  0  0  0  0  0  0  0  0  0  0  0
  -21.6785  -30.0562   21.4582 C   0  0  0  0  0  0  0  0  0  0  0  0
  -28.9452  -20.6009   20.9096 C   0  0  0  0  0  0  0  0  0  0  0  0
  -18.1737  -30.5536   24.5558 C   0  0  0  0  0  0  0  0  0  0  0  0
  -16.8801  -30.1360   24.8688 C   0  0  0  0  0  0  0  0  0  0  0  0
  -26.8599  -20.9945   19.7624 C   0  0  0  0  0  0  0  0  0  0  0  0
  -16.6034  -29.3052   22.6170 C   0  0  0  0  0  0  0  0  0  0  0  0
  -22.6804  -27.8743   21.7275 C   0  0  0  0  0  0  0  0  0  0  0  0
  -23.4011  -25.8404   20.3668 C   0  0  0  0  0  0  0  0  0  0  0  0
  -26.3885  -11.9369   20.6818 C   0  0  0  0  0  0  0  0  0  0  0  0
  -27.0117  -19.2157   21.3972 C   0  0  0  0  0  0  0  0  0  0  0  0
  -26.9098  -13.2085   20.3759 C   0  0  0  0  0  0  0  0  0  0  0  0
  -26.2531  -19.9471   20.4722 C   0  0  0  0  0  0  0  0  0  0  0  0
  -20.8566  -29.8146   22.5591 C   0  0  0  0  0  0  0  0  0  0  0  0
  -28.1991  -21.3182   19.9791 C   0  0  0  0  0  0  0  0  0  0  0  0
  -18.6821  -30.3470   23.2734 C   0  0  0  0  0  0  0  0  0  0  0  0
  -16.0950  -29.5118   23.8995 C   0  0  0  0  0  0  0  0  0  0  0  0
  -17.8970  -29.7228   22.3040 C   0  0  0  0  0  0  0  0  0  0  0  0
  -23.6230  -26.8727   21.2979 C   0  0  0  0  0  0  0  0  0  0  0  0
  -24.5972  -25.1678   20.3084 C   0  0  0  0  0  0  0  0  0  0  0  0
  -30.5844  -23.7839   18.7230 C   0  0  0  0  0  0  0  0  0  0  0  0
  -31.1815  -24.8889   17.0558 C   0  0  0  0  0  0  0  0  0  0  0  0
  -22.2195  -25.5184   19.6212 C   0  0  0  0  0  0  0  0  0  0  0  0
  -25.4995  -16.6236   20.3494 C   0  0  0  0  0  0  0  0  0  0  0  0
  -22.8526  -18.3265   21.1347 C   0  0  0  0  0  0  0  0  0  0  0  0
  -21.4239  -21.3801   21.6651 C   0  0  0  0  0  0  0  0  0  0  0  0
  -30.1837  -27.1983   21.7938 C   0  0  0  0  0  0  0  0  0  0  0  0
  -24.9809  -11.5455   20.3074 C   0  0  0  0  0  0  0  0  0  0  0  0
  -26.3811  -18.1038   22.1900 C   0  0  0  0  0  0  0  0  0  0  0  0
  -24.8030  -19.6340   20.2119 C   0  0  0  0  0  0  0  0  0  0  0  0
  -24.0800  -12.7376   19.9948 C   0  0  0  0  0  0  0  0  0  0  0  0
  -28.4546  -24.1293   22.9309 C   0  0  0  0  0  0  0  0  0  0  0  0
  -24.7936  -13.7177   19.0690 C   0  0  0  0  0  0  0  0  0  0  0  0
  -26.9905  -24.4381   22.6222 C   0  0  0  0  0  0  0  0  0  0  0  0
  -29.2563  -25.3981   23.2048 C   0  0  0  0  0  0  0  0  0  0  0  0
  -27.7004  -26.7231   21.8127 C   0  0  0  0  0  0  0  0  0  0  0  0
  -26.0582  -14.2796   19.7296 C   0  0  1  0  0  0  0  0  0  0  0  0
  -25.1505  -17.5098   21.5116 C   0  0  1  0  0  0  0  0  0  0  0  0
  -26.8751  -25.4694   21.4863 C   0  0  2  0  0  0  0  0  0  0  0  0
  -31.5714  -25.3739   15.7197 C   0  0  0  0  0  0  0  0  0  0  0  0
  -19.2348  -22.4546   22.2573 C   0  0  0  0  0  0  0  0  0  0  0  0
  -21.8444  -17.8302   18.2980 C   0  0  0  0  0  0  0  0  0  0  0  0
  -20.1795  -19.6680   18.6428 C   0  0  0  0  0  0  0  0  0  0  0  0
  -20.0976  -17.6281   20.0763 C   0  0  0  0  0  0  0  0  0  0  0  0
  -30.7446  -29.3654   20.7601 C   0  0  0  0  0  0  0  0  0  0  0  0
  -22.5437  -22.5719   24.1318 C   0  0  0  0  0  0  0  0  0  0  0  0
  -30.1459  -22.6182   19.5599 C   0  0  0  0  0  0  0  0  0  1  0  0
  -30.2027  -27.9976   18.2780 C   0  0  0  0  0  0  0  0  0  0  0  0
  -31.4436  -27.0952   18.2505 C   0  0  0  0  0  0  0  0  0  0  0  0
  -29.3065  -27.8070   19.4998 C   0  0  0  0  0  0  0  0  0  0  0  0
  -21.9585  -19.3060   20.4134 C   0  0  1  0  0  0  0  0  0  0  0  0
  -20.5470  -21.9002   22.7898 C   0  0  2  0  0  0  0  0  0  0  0  0
  -21.0478  -18.6129   19.3609 C   0  0  0  0  0  0  0  0  0  0  0  0
  -24.8625  -26.8608   21.7954 N   0  0  0  0  0  0  0  0  0  0  0  0
  -30.8318  -23.6672   17.3852 N   0  0  0  0  0  0  0  0  0  0  0  0
  -30.7590  -25.0010   19.2421 N   0  0  0  0  0  0  0  0  0  0  0  0
  -25.4302  -25.8127   21.1746 N   0  0  0  0  0  0  0  0  0  0  0  0
  -31.1407  -25.6887   18.1551 N   0  0  0  0  0  0  0  0  0  0  0  0
  -24.2334  -18.5339   21.0073 N   0  0  0  0  0  0  0  0  0  0  0  0
  -29.0942  -26.3782   22.1303 N   0  0  0  0  0  0  0  0  0  0  0  0
  -25.0071  -24.0934   19.6012 N   0  0  0  0  0  0  0  0  0  0  0  0
  -21.0788  -26.3126   19.8011 N   0  0  0  0  0  0  0  0  0  0  0  0
  -25.7131  -15.3025   20.6935 N   0  0  0  0  0  0  0  0  0  0  0  0
  -21.2302  -20.0322   21.4481 N   0  0  0  0  0  0  0  0  0  0  0  0
  -29.9940  -28.1179   20.7512 N   0  0  0  0  0  0  0  0  0  0  0  0
  -21.2479  -22.9847   23.5338 N   0  3  0  0  0  0  0  0  0  0  0  0
  -22.1715  -24.5449   18.8315 O   0  0  0  0  0  0  0  0  0  0  0  0
  -25.5683  -17.1027   19.2236 O   0  0  0  0  0  0  0  0  0  0  0  0
  -22.3445  -17.4153   21.7929 O   0  0  0  0  0  0  0  0  0  0  0  0
  -22.2001  -22.0984   21.0390 O   0  0  0  0  0  0  0  0  0  0  0  0
  -31.2673  -27.1069   22.3849 O   0  0  0  0  0  0  0  0  0  0  0  0
  -19.9668  -30.7614   22.9644 O   0  0  0  0  0  0  0  0  0  0  0  0
  -28.7741  -22.3376   19.2848 O   0  0  0  0  0  0  0  0  0  1  0  0
  -14.8534  -29.1095   24.2006 F   0  0  0  0  0  0  0  0  0  0  0  0
  -18.3804  -29.5206   21.0707 F   0  0  0  0  0  0  0  0  0  0  0  0
  1  2  1  0  0  0  0
  1  5  2  0  0  0  0
  2  6  2  0  0  0  0
  3  8  2  0  0  0  0
  3 15  1  0  0  0  0
  4  9  1  0  0  0  0
  4 15  2  0  0  0  0
  5 17  1  0  0  0  0
  6 19  1  0  0  0  0
  7 10  2  0  0  0  0
  7 18  1  0  0  0  0
  8 21  1  0  0  0  0
  9 21  2  0  0  0  0
 10 22  1  0  0  0  0
 11 12  2  0  0  0  0
 11 23  1  0  0  0  0
 12 24  1  0  0  0  0
 13 20  1  0  0  0  0
 13 22  2  0  0  0  0
 14 24  2  0  0  0  0
 14 25  1  0  0  0  0
 15 26  1  0  0  0  0
 16 26  1  0  0  0  0
 16 27  2  0  0  0  0
 16 30  1  0  0  0  0
 17 19  2  0  0  0  0
 17 35  1  0  0  0  0
 18 20  2  0  0  0  0
 18 36  1  0  0  0  0
 19 44  1  0  0  0  0
 20 37  1  0  0  0  0
 21 79  1  0  0  0  0
 22 80  1  0  0  0  0
 23 25  2  0  0  0  0
 23 79  1  0  0  0  0
 24 81  1  0  0  0  0
 25 82  1  0  0  0  0
 26 61  2  0  0  0  0
 27 64  1  0  0  0  0
 27 68  1  0  0  0  0
 28 54  1  0  0  0  0
 28 62  1  0  0  0  0
 28 63  2  0  0  0  0
 29 47  1  0  0  0  0
 29 62  2  0  0  0  0
 29 65  1  0  0  0  0
 30 69  1  0  0  0  0
 30 74  2  0  0  0  0
 31 45  1  0  0  0  0
 31 70  1  0  0  0  0
 31 75  2  0  0  0  0
 32 58  1  0  0  0  0
 32 66  1  0  0  0  0
 32 76  2  0  0  0  0
 33 59  1  0  0  0  0
 33 71  1  0  0  0  0
 33 77  2  0  0  0  0
 34 67  1  0  0  0  0
 34 72  1  0  0  0  0
 34 78  2  0  0  0  0
 35 38  1  0  0  0  0
 36 45  1  0  0  0  0
 37 66  1  0  0  0  0
 38 40  1  0  0  0  0
 39 41  1  0  0  0  0
 39 42  1  0  0  0  0
 40 44  1  0  0  0  0
 41 46  1  0  0  0  0
 42 67  1  0  0  0  0
 43 46  1  0  0  0  0
 43 67  1  0  0  0  0
 44 70  1  0  0  0  0
 45 66  1  0  0  0  0
 46 64  1  0  0  0  0
 48 59  1  0  0  0  0
 49 60  1  0  0  0  0
 50 60  1  0  0  0  0
 51 60  1  0  0  0  0
 52 72  1  0  0  0  0
 53 73  1  0  0  0  0
 54 80  1  0  0  0  0
 55 56  1  0  0  0  0
 55 57  1  0  0  0  0
 56 65  1  0  0  0  0
 57 72  1  0  0  0  0
 58 60  1  0  0  0  0
 58 71  1  0  0  0  0
 59 73  1  0  0  0  0
 61 64  1  0  0  0  0
 63 65  1  0  0  0  0
M  CHG  1  73   1
M  ISO  4  34 100  54 101  72 100  80 101
M  END
> <Batch ID>
0052

> <Smiles>
CNC(C)C(=O)NC(C(=O)N1Cc2cc([101O:1][101CH2:1]c3nc(C)n(CCC[100N:0](C)[100C:0](=O)N4CCCC(n5nc(-c6ccc(Oc7ccc(F)cc7F)cc6)c(C(N)=O)c5N)C4)n3)ccc2CC1C(=O)NC1CCCc2ccccc21)C(C)(C)C

> <Shape>
0.207

> <Color>
0.067

> <Negative vol penalty>
0.000

$$$$

  -OEChem-04052317363D

 80 88  0     1  0  0  0  0  0999 V2000
  -16.4058  -25.2640   23.0370 C   0  0  0  0  0  0  0  0  0  0  0  0
  -17.0447  -24.7980   21.8924 C   0  0  0  0  0  0  0  0  0  0  0  0
  -24.6091  -13.6552   21.1355 C   0  0  0  0  0  0  0  0  0  0  0  0
  -26.8728  -13.1086   20.4921 C   0  0  0  0  0  0  0  0  0  0  0  0
  -16.8632  -26.4205   23.6673 C   0  0  0  0  0  0  0  0  0  0  0  0
  -18.1406  -25.4889   21.3768 C   0  0  0  0  0  0  0  0  0  0  0  0
  -23.0459  -23.0768   18.6152 C   0  0  0  0  0  0  0  0  0  0  0  0
  -24.1770  -12.4130   20.6708 C   0  0  0  0  0  0  0  0  0  0  0  0
  -26.4407  -11.8663   20.0275 C   0  0  0  0  0  0  0  0  0  0  0  0
  -23.3849  -22.9228   17.2717 C   0  0  0  0  0  0  0  0  0  0  0  0
  -22.5371   -9.2423   19.9840 C   0  0  0  0  0  0  0  0  0  0  0  0
  -21.6581   -8.5185   20.7896 C   0  0  0  0  0  0  0  0  0  0  0  0
  -28.8324  -23.8929   14.3451 C   0  0  0  0  0  0  0  0  0  0  0  0
  -24.6685  -24.9630   17.3680 C   0  0  0  0  0  0  0  0  0  0  0  0
  -23.3057   -8.4841   22.5563 C   0  0  0  0  0  0  0  0  0  0  0  0
  -27.5752  -23.9630   13.7965 C   0  0  0  0  0  0  0  0  0  0  0  0
  -25.9570  -14.0030   21.0460 C   0  0  0  0  0  0  0  0  0  0  0  0
  -26.8489  -15.6011   22.8232 C   0  0  0  0  0  0  0  0  0  0  0  0
  -17.9713  -27.1205   23.1647 C   0  0  0  0  0  0  0  0  0  0  0  0
  -23.5075  -24.1826   19.3436 C   0  0  0  0  0  0  0  0  0  0  0  0
  -18.6124  -26.6566   22.0001 C   0  0  0  0  0  0  0  0  0  0  0  0
  -24.3360  -25.1274   18.7213 C   0  0  0  0  0  0  0  0  0  0  0  0
  -25.0928  -11.5186   20.1169 C   0  0  0  0  0  0  0  0  0  0  0  0
  -24.1939  -23.8675   16.6471 C   0  0  0  0  0  0  0  0  0  0  0  0
  -23.8004   -9.5869   20.4644 C   0  0  0  0  0  0  0  0  0  0  0  0
  -22.0424   -8.1394   22.0758 C   0  0  0  0  0  0  0  0  0  0  0  0
  -24.1847   -9.2079   21.7506 C   0  0  0  0  0  0  0  0  0  0  0  0
  -26.4038  -15.2863   21.5253 C   0  0  0  0  0  0  0  0  0  0  0  0
  -28.8967  -22.6071   14.9146 C   0  0  0  0  0  0  0  0  0  0  0  0
  -27.1565  -16.9385   22.7657 C   0  0  0  0  0  0  0  0  0  0  0  0
  -26.9734  -14.7598   23.9775 C   0  0  0  0  0  0  0  0  0  0  0  0
  -22.1209  -26.6191   20.8418 C   0  0  0  0  0  0  0  0  0  0  0  0
  -25.1566  -27.2567   21.7907 C   0  0  0  0  0  0  0  0  0  0  0  0
  -28.5033  -26.9298   21.2079 C   0  0  0  0  0  0  0  0  0  0  0  0
  -28.7897  -20.4097   18.2782 C   0  0  0  0  0  0  0  0  0  0  0  0
  -18.4000  -28.3921   23.8532 C   0  0  0  0  0  0  0  0  0  0  0  0
  -23.1548  -24.3202   20.7993 C   0  0  0  0  0  0  0  0  0  0  0  0
  -24.8743  -26.3217   19.4644 C   0  0  0  0  0  0  0  0  0  0  0  0
  -19.7992  -28.8569   23.4578 C   0  0  0  0  0  0  0  0  0  0  0  0
  -25.9591  -20.9609   20.4649 C   0  0  0  0  0  0  0  0  0  0  0  0
  -19.9728  -28.7995   21.9434 C   0  0  0  0  0  0  0  0  0  0  0  0
  -25.7999  -19.5828   21.1096 C   0  0  0  0  0  0  0  0  0  0  0  0
  -26.3633  -20.8418   18.9984 C   0  0  0  0  0  0  0  0  0  0  0  0
  -27.4407  -18.6631   19.4060 C   0  0  0  0  0  0  0  0  0  0  0  0
  -19.8198  -27.3646   21.4246 C   0  0  1  0  0  0  0  0  0  0  0  0
  -23.2591  -25.7552   21.3064 C   0  0  1  0  0  0  0  0  0  0  0  0
  -27.0547  -18.7157   20.8954 C   0  0  2  0  0  0  0  0  0  0  0  0
  -30.7385  -27.5914   22.1371 C   0  0  0  0  0  0  0  0  0  0  0  0
  -24.7708  -30.0806   20.7015 C   0  0  0  0  0  0  0  0  0  0  0  0
  -27.2558  -30.3758   20.7810 C   0  0  0  0  0  0  0  0  0  0  0  0
  -25.9828  -29.9615   22.8859 C   0  0  0  0  0  0  0  0  0  0  0  0
  -29.2989  -24.1084   21.6150 C   0  0  0  0  0  0  0  0  0  0  0  0
  -30.0282  -22.0023   15.6377 C   0  0  0  0  0  0  0  0  0  0  0  0
  -25.5915  -22.3419   13.6632 C   0  0  0  0  0  0  0  0  0  0  0  0
  -30.0148  -22.2540   17.1580 C   0  0  0  0  0  0  0  0  0  0  0  0
  -24.6162  -22.3870   14.8345 C   0  0  0  0  0  0  0  0  0  1  0  0
  -26.3009  -28.0712   21.2374 C   0  0  1  0  0  0  0  0  0  0  0  0
  -29.6500  -26.5295   22.1186 C   0  0  2  0  0  0  0  0  0  0  0  0
  -26.0660  -29.6009   21.3867 C   0  0  0  0  0  0  0  0  0  0  0  0
  -26.4250  -16.3390   20.7034 N   0  0  0  0  0  0  0  0  0  0  0  0
  -27.7699  -21.9106   14.7437 N   0  0  0  0  0  0  0  0  0  0  0  0
  -26.9857  -22.7618   14.0608 N   0  0  0  0  0  0  0  0  0  0  0  0
  -26.8870  -17.3283   21.4868 N   0  0  0  0  0  0  0  0  0  0  0  0
  -24.4962  -26.4153   20.8842 N   0  0  0  0  0  0  0  0  0  0  0  0
  -27.5745  -20.0200   18.8655 N   0  0  0  0  0  0  0  0  0  0  0  0
  -27.6283  -17.8073   23.6850 N   0  0  0  0  0  0  0  0  0  0  0  0
  -26.6139  -13.4100   23.8624 N   0  0  0  0  0  0  0  0  0  0  0  0
  -21.0235  -26.6033   21.6813 N   0  0  0  0  0  0  0  0  0  0  0  0
  -27.5062  -27.5844   21.8997 N   0  0  0  0  0  0  0  0  0  0  0  0
  -28.8315  -21.7079   17.7845 N   0  0  0  0  0  0  0  0  0  0  0  0
  -30.2528  -25.2464   21.6591 N   0  3  0  0  0  0  0  0  0  0  0  0
  -27.3754  -15.1959   25.0828 O   0  0  0  0  0  0  0  0  0  0  0  0
  -22.2309  -27.2543   19.7996 O   0  0  0  0  0  0  0  0  0  0  0  0
  -24.8643  -27.3576   22.9849 O   0  0  0  0  0  0  0  0  0  0  0  0
  -28.4948  -26.6893   20.0026 O   0  0  0  0  0  0  0  0  0  0  0  0
  -29.7676  -19.6579   18.2039 O   0  0  0  0  0  0  0  0  0  0  0  0
  -24.6716  -10.3062   19.6636 O   0  0  0  0  0  0  0  0  0  0  0  0
  -24.5257  -23.7200   15.3356 O   0  0  0  0  0  0  0  0  0  1  0  0
  -21.1976   -7.4457   22.8499 F   0  0  0  0  0  0  0  0  0  0  0  0
  -25.3967   -9.5372   22.2181 F   0  0  0  0  0  0  0  0  0  0  0  0
  1  2  1  0  0  0  0
  1  5  2  0  0  0  0
  2  6  2  0  0  0  0
  3  8  2  0  0  0  0
  3 17  1  0  0  0  0
  4  9  1  0  0  0  0
  4 17  2  0  0  0  0
  5 19  1  0  0  0  0
  6 21  1  0  0  0  0
  7 10  2  0  0  0  0
  7 20  1  0  0  0  0
  8 23  1  0  0  0  0
  9 23  2  0  0  0  0
 10 24  1  0  0  0  0
 11 12  2  0  0  0  0
 11 25  1  0  0  0  0
 12 26  1  0  0  0  0
 13 16  2  0  0  0  0
 13 29  1  0  0  0  0
 14 22  1  0  0  0  0
 14 24  2  0  0  0  0
 15 26  2  0  0  0  0
 15 27  1  0  0  0  0
 16 62  1  0  0  0  0
 17 28  1  0  0  0  0
 18 28  1  0  0  0  0
 18 30  2  0  0  0  0
 18 31  1  0  0  0  0
 19 21  2  0  0  0  0
 19 36  1  0  0  0  0
 20 22  2  0  0  0  0
 20 37  1  0  0  0  0
 21 45  1  0  0  0  0
 22 38  1  0  0  0  0
 23 77  1  0  0  0  0
 24 78  1  0  0  0  0
 25 27  2  0  0  0  0
 25 77  1  0  0  0  0
 26 79  1  0  0  0  0
 27 80  1  0  0  0  0
 28 60  2  0  0  0  0
 29 53  1  0  0  0  0
 29 61  2  0  0  0  0
 30 63  1  0  0  0  0
 30 66  1  0  0  0  0
 31 67  1  0  0  0  0
 31 72  2  0  0  0  0
 32 46  1  0  0  0  0
 32 68  1  0  0  0  0
 32 73  2  0  0  0  0
 33 57  1  0  0  0  0
 33 64  1  0  0  0  0
 33 74  2  0  0  0  0
 34 58  1  0  0  0  0
 34 69  1  0  0  0  0
 34 75  2  0  0  0  0
 35 65  1  0  0  0  0
 35 70  1  0  0  0  0
 35 76  2  0  0  0  0
 36 39  1  0  0  0  0
 37 46  1  0  0  0  0
 38 64  1  0  0  0  0
 39 41  1  0  0  0  0
 40 42  1  0  0  0  0
 40 43  1  0  0  0  0
 41 45  1  0  0  0  0
 42 47  1  0  0  0  0
 43 65  1  0  0  0  0
 44 47  1  0  0  0  0
 44 65  1  0  0  0  0
 45 68  1  0  0  0  0
 46 64  1  0  0  0  0
 47 63  1  0  0  0  0
 48 58  1  0  0  0  0
 49 59  1  0  0  0  0
 50 59  1  0  0  0  0
 51 59  1  0  0  0  0
 52 71  1  0  0  0  0
 53 55  1  0  0  0  0
 54 56  1  0  0  0  0
 54 62  1  0  0  0  0
 55 70  1  0  0  0  0
 56 78  1  0  0  0  0
 57 59  1  0  0  0  0
 57 69  1  0  0  0  0
 58 71  1  0  0  0  0
 60 63  1  0  0  0  0
 61 62  1  0  0  0  0
M  CHG  1  71   1
M  ISO  4  35 100  56 101  70 100  78 101
M  END
> <Batch ID>
0052

> <Smiles>
CNC(C)C(=O)NC(C(=O)N1Cc2cc([101O:1][101CH2:1]Cn3ccc(CC[100NH:0][100C:0](=O)N4CCCC(n5nc(-c6ccc(Oc7ccc(F)cc7F)cc6)c(C(N)=O)c5N)C4)n3)ccc2CC1C(=O)NC1CCCc2ccccc21)C(C)(C)C

> <Shape>
0.212

> <Color>
0.073

> <Negative vol penalty>
0.000

$$$$

  -OEChem-04052317363D

 81 89  0     1  0  0  0  0  0999 V2000
  -29.1288  -35.8582   22.8753 C   0  0  0  0  0  0  0  0  0  0  0  0
  -29.2243  -34.4939   22.6207 C   0  0  0  0  0  0  0  0  0  0  0  0
  -26.0090  -15.1292   20.9797 C   0  0  0  0  0  0  0  0  0  0  0  0
  -27.7935  -14.3902   19.5283 C   0  0  0  0  0  0  0  0  0  0  0  0
  -28.0442  -36.3577   23.5951 C   0  0  0  0  0  0  0  0  0  0  0  0
  -28.2356  -33.6280   23.0867 C   0  0  0  0  0  0  0  0  0  0  0  0
  -26.8031  -30.2545   19.5920 C   0  0  0  0  0  0  0  0  0  0  0  0
  -25.5669  -13.8124   21.1067 C   0  0  0  0  0  0  0  0  0  0  0  0
  -27.3514  -13.0734   19.6553 C   0  0  0  0  0  0  0  0  0  0  0  0
  -27.6455  -29.1648   19.3760 C   0  0  0  0  0  0  0  0  0  0  0  0
  -23.7739  -11.6009   19.2850 C   0  0  0  0  0  0  0  0  0  0  0  0
  -22.4038  -11.3645   19.1738 C   0  0  0  0  0  0  0  0  0  0  0  0
  -26.2150  -27.7938   20.7519 C   0  0  0  0  0  0  0  0  0  0  0  0
  -22.3795  -10.4533   21.4113 C   0  0  0  0  0  0  0  0  0  0  0  0
  -27.1223  -15.4182   20.1905 C   0  0  0  0  0  0  0  0  0  0  0  0
  -28.5163  -17.4430   20.8720 C   0  0  0  0  0  0  0  0  0  0  0  0
  -27.0367  -35.4986   24.0618 C   0  0  0  0  0  0  0  0  0  0  0  0
  -25.6643  -30.1246   20.3999 C   0  0  0  0  0  0  0  0  0  0  0  0
  -27.1371  -34.1162   23.8145 C   0  0  0  0  0  0  0  0  0  0  0  0
  -25.3584  -28.8827   20.9746 C   0  0  0  0  0  0  0  0  0  0  0  0
  -26.2381  -12.7845   20.4445 C   0  0  0  0  0  0  0  0  0  0  0  0
  -27.3531  -27.9350   19.9583 C   0  0  0  0  0  0  0  0  0  0  0  0
  -24.4469  -11.2634   20.4592 C   0  0  0  0  0  0  0  0  0  0  0  0
  -21.7065  -10.7907   20.2370 C   0  0  0  0  0  0  0  0  0  0  0  0
  -23.7497  -10.6896   21.5224 C   0  0  0  0  0  0  0  0  0  0  0  0
  -27.5792  -16.7783   20.0585 C   0  0  0  0  0  0  0  0  0  0  0  0
  -31.5660  -24.2770   18.8371 C   0  0  0  0  0  0  0  0  0  0  0  0
  -30.4585  -23.6864   18.2758 C   0  0  0  0  0  0  0  0  0  0  0  0
  -28.6033  -18.7043   20.3353 C   0  0  0  0  0  0  0  0  0  0  0  0
  -30.0739  -25.7942   18.7914 C   0  0  0  0  0  0  0  0  0  0  0  0
  -29.2433  -16.9632   22.0108 C   0  0  0  0  0  0  0  0  0  0  0  0
  -24.6791  -31.4469   23.1173 C   0  0  0  0  0  0  0  0  0  0  0  0
  -21.9636  -29.7888   22.4856 C   0  0  0  0  0  0  0  0  0  0  0  0
  -20.4811  -27.1491   20.9105 C   0  0  0  0  0  0  0  0  0  0  0  0
  -29.1541  -21.7324   15.5557 C   0  0  0  0  0  0  0  0  0  0  0  0
  -25.9076  -36.0789   24.8760 C   0  0  0  0  0  0  0  0  0  0  0  0
  -24.7513  -31.3028   20.6014 C   0  0  0  0  0  0  0  0  0  0  0  0
  -24.1370  -28.6857   21.8336 C   0  0  0  0  0  0  0  0  0  0  0  0
  -24.7103  -35.1417   25.0119 C   0  0  0  0  0  0  0  0  0  0  0  0
  -25.7646  -21.0285   16.8662 C   0  0  0  0  0  0  0  0  0  0  0  0
  -25.1726  -33.7346   25.3768 C   0  0  0  0  0  0  0  0  0  0  0  0
  -26.0132  -19.8660   17.8258 C   0  0  0  0  0  0  0  0  0  0  0  0
  -26.7866  -21.0579   15.7339 C   0  0  0  0  0  0  0  0  0  0  0  0
  -28.4490  -19.9081   17.1582 C   0  0  0  0  0  0  0  0  0  0  0  0
  -26.0720  -33.1481   24.2820 C   0  0  1  0  0  0  0  0  0  0  0  0
  -23.8974  -31.1885   21.8604 C   0  0  1  0  0  0  0  0  0  0  0  0
  -27.4644  -19.8773   18.3368 C   0  0  2  0  0  0  0  0  0  0  0  0
  -32.8837  -23.6798   19.1065 C   0  0  0  0  0  0  0  0  0  0  0  0
  -18.2545  -26.0307   20.6125 C   0  0  0  0  0  0  0  0  0  0  0  0
  -22.1947  -28.5891   25.2815 C   0  0  0  0  0  0  0  0  0  0  0  0
  -20.5571  -26.8278   24.5854 C   0  0  0  0  0  0  0  0  0  0  0  0
  -19.8719  -29.2263   24.6085 C   0  0  0  0  0  0  0  0  0  0  0  0
  -28.1617  -24.5457   17.7498 C   0  0  0  0  0  0  0  0  0  0  0  0
  -31.2711  -22.9932   15.6456 C   0  0  0  0  0  0  0  0  0  0  0  0
  -20.5115  -27.6082   17.9870 C   0  0  0  0  0  0  0  0  0  0  0  0
  -30.2200  -22.3212   17.7738 C   0  0  0  0  0  0  0  0  0  0  0  0
  -29.3176  -27.0834   18.9231 C   0  0  0  0  0  0  0  0  0  1  0  0
  -21.4540  -28.4064   22.8149 C   0  0  1  0  0  0  0  0  0  0  0  0
  -19.2281  -27.0591   20.0582 C   0  0  2  0  0  0  0  0  0  0  0  0
  -21.0436  -28.2663   24.3080 C   0  0  0  0  0  0  0  0  0  0  0  0
  -27.1046  -17.5533   19.0797 N   0  0  0  0  0  0  0  0  0  0  0  0
  -31.3200  -25.5890   19.1562 N   0  0  0  0  0  0  0  0  0  0  0  0
  -29.5107  -24.6705   18.2534 N   0  0  0  0  0  0  0  0  0  0  0  0
  -27.7461  -18.7180   19.2746 N   0  0  0  0  0  0  0  0  0  0  0  0
  -23.2787  -29.8694   22.0060 N   0  0  0  0  0  0  0  0  0  0  0  0
  -28.1569  -21.0242   16.2463 N   0  0  0  0  0  0  0  0  0  0  0  0
  -29.3286  -19.7919   20.6721 N   0  0  0  0  0  0  0  0  0  0  0  0
  -29.0346  -15.6416   22.4284 N   0  0  0  0  0  0  0  0  0  0  0  0
  -25.2750  -32.6928   23.1631 N   0  0  0  0  0  0  0  0  0  0  0  0
  -20.3760  -28.1331   21.8707 N   0  0  0  0  0  0  0  0  0  0  0  0
  -30.2186  -22.2419   16.3146 N   0  0  0  0  0  0  0  0  0  0  0  0
  -19.5778  -26.6708   18.6625 N   0  3  0  0  0  0  0  0  0  0  0  0
  -30.0417  -17.6900   22.6495 O   0  0  0  0  0  0  0  0  0  0  0  0
  -24.7361  -30.5807   23.9822 O   0  0  0  0  0  0  0  0  0  0  0  0
  -21.2199  -30.7605   22.6411 O   0  0  0  0  0  0  0  0  0  0  0  0
  -21.4541  -26.4170   20.7438 O   0  0  0  0  0  0  0  0  0  0  0  0
  -29.0914  -21.9079   14.3321 O   0  0  0  0  0  0  0  0  0  0  0  0
  -25.8071  -11.4994   20.5683 O   0  0  0  0  0  0  0  0  0  0  0  0
  -28.1740  -26.8699   19.7495 O   0  0  0  0  0  0  0  0  0  1  0  0
  -20.3905  -10.5652   20.1307 F   0  0  0  0  0  0  0  0  0  0  0  0
  -24.3906  -10.3643   22.6534 F   0  0  0  0  0  0  0  0  0  0  0  0
  1  2  1  0  0  0  0
  1  5  2  0  0  0  0
  2  6  2  0  0  0  0
  3  8  2  0  0  0  0
  3 15  1  0  0  0  0
  4  9  1  0  0  0  0
  4 15  2  0  0  0  0
  5 17  1  0  0  0  0
  6 19  1  0  0  0  0
  7 10  2  0  0  0  0
  7 18  1  0  0  0  0
  8 21  1  0  0  0  0
  9 21  2  0  0  0  0
 10 22  1  0  0  0  0
 11 12  2  0  0  0  0
 11 23  1  0  0  0  0
 12 24  1  0  0  0  0
 13 20  1  0  0  0  0
 13 22  2  0  0  0  0
 14 24  2  0  0  0  0
 14 25  1  0  0  0  0
 15 26  1  0  0  0  0
 16 26  1  0  0  0  0
 16 29  2  0  0  0  0
 16 31  1  0  0  0  0
 17 19  2  0  0  0  0
 17 36  1  0  0  0  0
 18 20  2  0  0  0  0
 18 37  1  0  0  0  0
 19 45  1  0  0  0  0
 20 38  1  0  0  0  0
 21 78  1  0  0  0  0
 22 79  1  0  0  0  0
 23 25  2  0  0  0  0
 23 78  1  0  0  0  0
 24 80  1  0  0  0  0
 25 81  1  0  0  0  0
 26 61  2  0  0  0  0
 27 28  2  0  0  0  0
 27 48  1  0  0  0  0
 27 62  1  0  0  0  0
 28 56  1  0  0  0  0
 28 63  1  0  0  0  0
 29 64  1  0  0  0  0
 29 67  1  0  0  0  0
 30 57  1  0  0  0  0
 30 62  2  0  0  0  0
 30 63  1  0  0  0  0
 31 68  1  0  0  0  0
 31 73  2  0  0  0  0
 32 46  1  0  0  0  0
 32 69  1  0  0  0  0
 32 74  2  0  0  0  0
 33 58  1  0  0  0  0
 33 65  1  0  0  0  0
 33 75  2  0  0  0  0
 34 59  1  0  0  0  0
 34 70  1  0  0  0  0
 34 76  2  0  0  0  0
 35 66  1  0  0  0  0
 35 71  1  0  0  0  0
 35 77  2  0  0  0  0
 36 39  1  0  0  0  0
 37 46  1  0  0  0  0
 38 65  1  0  0  0  0
 39 41  1  0  0  0  0
 40 42  1  0  0  0  0
 40 43  1  0  0  0  0
 41 45  1  0  0  0  0
 42 47  1  0  0  0  0
 43 66  1  0  0  0  0
 44 47  1  0  0  0  0
 44 66  1  0  0  0  0
 45 69  1  0  0  0  0
 46 65  1  0  0  0  0
 47 64  1  0  0  0  0
 49 59  1  0  0  0  0
 50 60  1  0  0  0  0
 51 60  1  0  0  0  0
 52 60  1  0  0  0  0
 53 63  1  0  0  0  0
 54 71  1  0  0  0  0
 55 72  1  0  0  0  0
 56 71  1  0  0  0  0
 57 79  1  0  0  0  0
 58 60  1  0  0  0  0
 58 70  1  0  0  0  0
 59 72  1  0  0  0  0
 61 64  1  0  0  0  0
M  CHG  1  72   1
M  ISO  4  35 100  57 101  71 100  79 101
M  END
> <Batch ID>
0052

> <Smiles>
CNC(C)C(=O)NC(C(=O)N1Cc2cc([101O:1][101CH2:1]c3nc(C)c(C[100N:0](C)[100C:0](=O)N4CCCC(n5nc(-c6ccc(Oc7ccc(F)cc7F)cc6)c(C(N)=O)c5N)C4)n3C)ccc2CC1C(=O)NC1CCCc2ccccc21)C(C)(C)C

> <Shape>
0.323

> <Color>
0.086

> <Negative vol penalty>
0.000

$$$$

  -OEChem-04052317363D

 81 89  0     1  0  0  0  0  0999 V2000
  -25.9734  -38.5313   20.9415 C   0  0  0  0  0  0  0  0  0  0  0  0
  -26.6430  -37.5153   20.2670 C   0  0  0  0  0  0  0  0  0  0  0  0
  -24.6237  -13.6531   20.5347 C   0  0  0  0  0  0  0  0  0  0  0  0
  -26.9296  -13.0204   20.1888 C   0  0  0  0  0  0  0  0  0  0  0  0
  -25.3403  -38.2619   22.1542 C   0  0  0  0  0  0  0  0  0  0  0  0
  -26.6807  -36.2296   20.8054 C   0  0  0  0  0  0  0  0  0  0  0  0
  -26.8091  -29.3477   18.8206 C   0  0  0  0  0  0  0  0  0  0  0  0
  -24.2279  -12.3352   20.3064 C   0  0  0  0  0  0  0  0  0  0  0  0
  -26.5338  -11.7025   19.9606 C   0  0  0  0  0  0  0  0  0  0  0  0
  -27.5394  -28.1791   19.0323 C   0  0  0  0  0  0  0  0  0  0  0  0
  -24.1557   -9.4232   22.0233 C   0  0  0  0  0  0  0  0  0  0  0  0
  -23.2205   -8.8669   22.8959 C   0  0  0  0  0  0  0  0  0  0  0  0
  -26.3427  -27.8121   21.0945 C   0  0  0  0  0  0  0  0  0  0  0  0
  -21.7082   -8.5080   21.0463 C   0  0  0  0  0  0  0  0  0  0  0  0
  -25.9746  -13.9957   20.4758 C   0  0  0  0  0  0  0  0  0  0  0  0
  -26.7293  -15.9398   21.9450 C   0  0  0  0  0  0  0  0  0  0  0  0
  -25.3621  -36.9700   22.7029 C   0  0  0  0  0  0  0  0  0  0  0  0
  -25.8461  -29.7637   19.7512 C   0  0  0  0  0  0  0  0  0  0  0  0
  -26.0484  -35.9430   22.0272 C   0  0  0  0  0  0  0  0  0  0  0  0
  -25.5997  -28.9850   20.8909 C   0  0  0  0  0  0  0  0  0  0  0  0
  -25.1829  -11.3599   20.0194 C   0  0  0  0  0  0  0  0  0  0  0  0
  -27.3083  -27.4126   20.1708 C   0  0  0  0  0  0  0  0  0  0  0  0
  -23.8671   -9.5220   20.6621 C   0  0  0  0  0  0  0  0  0  0  0  0
  -21.9968   -8.4092   22.4074 C   0  0  0  0  0  0  0  0  0  0  0  0
  -22.6434   -9.0643   20.1736 C   0  0  0  0  0  0  0  0  0  0  0  0
  -26.3841  -15.3570   20.7109 C   0  0  0  0  0  0  0  0  0  0  0  0
  -27.0408  -17.2411   21.6350 C   0  0  0  0  0  0  0  0  0  0  0  0
  -28.6328  -24.3371   21.6317 C   0  0  0  0  0  0  0  0  0  0  0  0
  -29.4600  -22.3763   21.2074 C   0  0  0  0  0  0  0  0  0  0  0  0
  -26.7653  -15.3570   23.2545 C   0  0  0  0  0  0  0  0  0  0  0  0
  -25.4782  -32.3163   21.6094 C   0  0  0  0  0  0  0  0  0  0  0  0
  -22.6151  -30.9408   22.2677 C   0  0  0  0  0  0  0  0  0  0  0  0
  -20.7272  -28.1009   22.3992 C   0  0  0  0  0  0  0  0  0  0  0  0
  -29.9148  -20.6580   18.1162 C   0  0  0  0  0  0  0  0  0  0  0  0
  -24.7035  -36.7379   24.0397 C   0  0  0  0  0  0  0  0  0  0  0  0
  -25.0481  -31.0126   19.4948 C   0  0  0  0  0  0  0  0  0  0  0  0
  -24.5627  -29.3773   21.9103 C   0  0  0  0  0  0  0  0  0  0  0  0
  -24.4717  -35.2627   24.3566 C   0  0  0  0  0  0  0  0  0  0  0  0
  -26.3700  -19.8828   17.3845 C   0  0  0  0  0  0  0  0  0  0  0  0
  -25.7254  -34.4483   24.0538 C   0  0  0  0  0  0  0  0  0  0  0  0
  -26.1180  -18.6403   18.2370 C   0  0  0  0  0  0  0  0  0  0  0  0
  -27.8330  -19.9969   16.9670 C   0  0  0  0  0  0  0  0  0  0  0  0
  -28.5376  -18.7121   18.9586 C   0  0  0  0  0  0  0  0  0  0  0  0
  -26.0905  -34.5297   22.5667 C   0  0  1  0  0  0  0  0  0  0  0  0
  -24.4534  -31.6130   20.7650 C   0  0  1  0  0  0  0  0  0  0  0  0
  -27.0822  -18.5921   19.4350 C   0  0  2  0  0  0  0  0  0  0  0  0
  -30.2703  -20.0133   21.5553 C   0  0  0  0  0  0  0  0  0  0  0  0
  -18.4343  -27.2863   23.0128 C   0  0  0  0  0  0  0  0  0  0  0  0
  -23.3327  -31.1569   25.2255 C   0  0  0  0  0  0  0  0  0  0  0  0
  -21.5076  -29.5149   25.7166 C   0  0  0  0  0  0  0  0  0  0  0  0
  -20.9563  -31.7181   24.6848 C   0  0  0  0  0  0  0  0  0  0  0  0
  -27.4177  -23.0022   19.8842 C   0  0  0  0  0  0  0  0  0  0  0  0
  -31.6221  -21.8832   19.4060 C   0  0  0  0  0  0  0  0  0  0  0  0
  -20.2052  -27.1418   19.6484 C   0  0  0  0  0  0  0  0  0  0  0  0
  -27.7317  -25.5352   21.5679 C   0  0  0  0  0  0  0  0  0  1  0  0
  -29.6336  -21.0445   20.6010 C   0  0  2  0  0  0  0  0  0  0  0  0
  -22.1143  -29.9530   23.2936 C   0  0  1  0  0  0  0  0  0  0  0  0
  -19.3285  -27.7969   21.8936 C   0  0  2  0  0  0  0  0  0  0  0  0
  -21.9987  -30.5791   24.7120 C   0  0  0  0  0  0  0  0  0  0  0  0
  -26.4681  -16.2175   19.6928 N   0  0  0  0  0  0  0  0  0  0  0  0
  -29.6839  -24.1767   22.4036 N   0  0  0  0  0  0  0  0  0  0  0  0
  -30.2101  -22.9292   22.1337 N   0  0  0  0  0  0  0  0  0  0  0  0
  -26.8695  -17.3543   20.2866 N   0  0  0  0  0  0  0  0  0  0  0  0
  -28.4549  -23.2278   20.8619 N   0  0  0  0  0  0  0  0  0  0  0  0
  -23.8128  -30.6100   21.6180 N   0  0  0  0  0  0  0  0  0  0  0  0
  -28.7293  -19.9048   18.1199 N   0  0  0  0  0  0  0  0  0  0  0  0
  -27.4416  -18.2881   22.3870 N   0  0  0  0  0  0  0  0  0  0  0  0
  -26.4152  -14.0071   23.3948 N   0  0  0  0  0  0  0  0  0  0  0  0
  -25.2315  -33.6642   21.7873 N   0  0  0  0  0  0  0  0  0  0  0  0
  -20.8601  -29.4221   22.7707 N   0  0  0  0  0  0  0  0  0  0  0  0
  -30.4024  -21.0894   19.3591 N   0  0  0  0  0  0  0  0  0  0  0  0
  -19.3783  -26.7617   20.8227 N   0  3  0  0  0  0  0  0  0  0  0  0
  -27.0823  -16.0181   24.2723 O   0  0  0  0  0  0  0  0  0  0  0  0
  -26.4220  -31.6825   22.0669 O   0  0  0  0  0  0  0  0  0  0  0  0
  -21.9639  -31.9646   22.0457 O   0  0  0  0  0  0  0  0  0  0  0  0
  -21.6123  -27.2504   22.4619 O   0  0  0  0  0  0  0  0  0  0  0  0
  -30.4987  -20.9374   17.0612 O   0  0  0  0  0  0  0  0  0  0  0  0
  -24.7970  -10.0738   19.7969 O   0  0  0  0  0  0  0  0  0  0  0  0
  -28.0201  -26.2719   20.3803 O   0  0  0  0  0  0  0  0  0  1  0  0
  -21.0994   -7.8736   23.2453 F   0  0  0  0  0  0  0  0  0  0  0  0
  -22.3609   -9.1555   18.8668 F   0  0  0  0  0  0  0  0  0  0  0  0
  1  2  1  0  0  0  0
  1  5  2  0  0  0  0
  2  6  2  0  0  0  0
  3  8  2  0  0  0  0
  3 15  1  0  0  0  0
  4  9  1  0  0  0  0
  4 15  2  0  0  0  0
  5 17  1  0  0  0  0
  6 19  1  0  0  0  0
  7 10  2  0  0  0  0
  7 18  1  0  0  0  0
  8 21  1  0  0  0  0
  9 21  2  0  0  0  0
 10 22  1  0  0  0  0
 11 12  2  0  0  0  0
 11 23  1  0  0  0  0
 12 24  1  0  0  0  0
 13 20  1  0  0  0  0
 13 22  2  0  0  0  0
 14 24  2  0  0  0  0
 14 25  1  0  0  0  0
 15 26  1  0  0  0  0
 16 26  1  0  0  0  0
 16 27  2  0  0  0  0
 16 30  1  0  0  0  0
 17 19  2  0  0  0  0
 17 35  1  0  0  0  0
 18 20  2  0  0  0  0
 18 36  1  0  0  0  0
 19 44  1  0  0  0  0
 20 37  1  0  0  0  0
 21 78  1  0  0  0  0
 22 79  1  0  0  0  0
 23 25  2  0  0  0  0
 23 78  1  0  0  0  0
 24 80  1  0  0  0  0
 25 81  1  0  0  0  0
 26 60  2  0  0  0  0
 27 63  1  0  0  0  0
 27 67  1  0  0  0  0
 28 55  1  0  0  0  0
 28 61  2  0  0  0  0
 28 64  1  0  0  0  0
 29 56  1  0  0  0  0
 29 62  2  0  0  0  0
 29 64  1  0  0  0  0
 30 68  1  0  0  0  0
 30 73  2  0  0  0  0
 31 45  1  0  0  0  0
 31 69  1  0  0  0  0
 31 74  2  0  0  0  0
 32 57  1  0  0  0  0
 32 65  1  0  0  0  0
 32 75  2  0  0  0  0
 33 58  1  0  0  0  0
 33 70  1  0  0  0  0
 33 76  2  0  0  0  0
 34 66  1  0  0  0  0
 34 71  1  0  0  0  0
 34 77  2  0  0  0  0
 35 38  1  0  0  0  0
 36 45  1  0  0  0  0
 37 65  1  0  0  0  0
 38 40  1  0  0  0  0
 39 41  1  0  0  0  0
 39 42  1  0  0  0  0
 40 44  1  0  0  0  0
 41 46  1  0  0  0  0
 42 66  1  0  0  0  0
 43 46  1  0  0  0  0
 43 66  1  0  0  0  0
 44 69  1  0  0  0  0
 45 65  1  0  0  0  0
 46 63  1  0  0  0  0
 47 56  1  0  0  0  0
 48 58  1  0  0  0  0
 49 59  1  0  0  0  0
 50 59  1  0  0  0  0
 51 59  1  0  0  0  0
 52 64  1  0  0  0  0
 53 71  1  0  0  0  0
 54 72  1  0  0  0  0
 55 79  1  0  0  0  0
 56 71  1  0  0  0  0
 57 59  1  0  0  0  0
 57 70  1  0  0  0  0
 58 72  1  0  0  0  0
 60 63  1  0  0  0  0
 61 62  1  0  0  0  0
M  CHG  1  72   1
M  ISO  4  34 100  55 101  71 100  79 101
M  END
> <Batch ID>
0052

> <Smiles>
CNC(C)C(=O)NC(C(=O)N1Cc2cc([101O:1][101CH2:1]c3nnc(C(C)[100N:0](C)[100C:0](=O)N4CCCC(n5nc(-c6ccc(Oc7ccc(F)cc7F)cc6)c(C(N)=O)c5N)C4)n3C)ccc2CC1C(=O)NC1CCCc2ccccc21)C(C)(C)C

> <Shape>
0.288

> <Color>
0.087

> <Negative vol penalty>
0.000

$$$$

  -OEChem-04052317363D

 83 91  0     1  0  0  0  0  0999 V2000
  -24.9154  -26.9936   24.4536 C   0  0  0  0  0  0  0  0  0  0  0  0
  -25.2383  -25.6776   24.7685 C   0  0  0  0  0  0  0  0  0  0  0  0
  -21.4050  -19.3298   20.9508 C   0  0  0  0  0  0  0  0  0  0  0  0
  -21.7098  -18.5692   23.2236 C   0  0  0  0  0  0  0  0  0  0  0  0
  -24.8885  -27.4039   23.1214 C   0  0  0  0  0  0  0  0  0  0  0  0
  -25.5334  -24.7707   23.7512 C   0  0  0  0  0  0  0  0  0  0  0  0
  -29.6256  -19.0523   22.3836 C   0  0  0  0  0  0  0  0  0  0  0  0
  -20.6447  -20.4043   21.4123 C   0  0  0  0  0  0  0  0  0  0  0  0
  -20.9495  -19.6438   23.6852 C   0  0  0  0  0  0  0  0  0  0  0  0
  -29.5270  -17.7478   21.9018 C   0  0  0  0  0  0  0  0  0  0  0  0
  -21.2018  -23.4254   22.8248 C   0  0  0  0  0  0  0  0  0  0  0  0
  -21.4636  -24.6843   22.2842 C   0  0  0  0  0  0  0  0  0  0  0  0
  -29.5267  -18.5891   19.6410 C   0  0  0  0  0  0  0  0  0  0  0  0
  -19.1894  -24.8113   21.4786 C   0  0  0  0  0  0  0  0  0  0  0  0
  -30.3773  -13.0722   20.2436 C   0  0  0  0  0  0  0  0  0  0  0  0
  -21.9375  -18.4122   21.8565 C   0  0  0  0  0  0  0  0  0  0  0  0
  -24.1159  -17.2685   21.1825 C   0  0  0  0  0  0  0  0  0  0  0  0
  -25.1929  -26.5041   22.0878 C   0  0  0  0  0  0  0  0  0  0  0  0
  -29.6645  -20.1377   21.4965 C   0  0  0  0  0  0  0  0  0  0  0  0
  -25.5093  -25.1691   22.4038 C   0  0  0  0  0  0  0  0  0  0  0  0
  -29.6283  -19.9063   20.1140 C   0  0  0  0  0  0  0  0  0  0  0  0
  -20.4170  -20.5613   22.7794 C   0  0  0  0  0  0  0  0  0  0  0  0
  -29.4746  -17.5162   20.5304 C   0  0  0  0  0  0  0  0  0  0  0  0
  -19.9338  -22.8594   22.6922 C   0  0  0  0  0  0  0  0  0  0  0  0
  -20.4574  -25.3773   21.6111 C   0  0  0  0  0  0  0  0  0  0  0  0
  -18.9276  -23.5523   22.0192 C   0  0  0  0  0  0  0  0  0  0  0  0
  -22.7225  -17.3017   21.3803 C   0  0  0  0  0  0  0  0  0  0  0  0
  -30.2166  -11.8783   19.5704 C   0  0  0  0  0  0  0  0  0  0  0  0
  -29.2575  -13.8760   20.3092 C   0  0  0  0  0  0  0  0  0  0  0  0
  -24.3675  -15.9983   20.7247 C   0  0  0  0  0  0  0  0  0  0  0  0
  -28.0382  -12.3596   19.1341 C   0  0  0  0  0  0  0  0  0  0  0  0
  -25.0953  -18.2941   21.3939 C   0  0  0  0  0  0  0  0  0  0  0  0
  -27.8131  -22.6656   20.9623 C   0  0  0  0  0  0  0  0  0  0  0  0
  -30.2025  -23.4984   18.9325 C   0  0  0  0  0  0  0  0  0  0  0  0
  -32.8250  -22.5113   16.9844 C   0  0  0  0  0  0  0  0  0  0  0  0
  -23.3707  -10.4560   21.5039 C   0  0  0  0  0  0  0  0  0  0  0  0
  -25.1046  -26.9819   20.6600 C   0  0  0  0  0  0  0  0  0  0  0  0
  -29.7979  -21.5371   22.0314 C   0  0  0  0  0  0  0  0  0  0  0  0
  -29.6873  -21.0357   19.1192 C   0  0  0  0  0  0  0  0  0  0  0  0
  -25.7956  -26.0545   19.6636 C   0  0  0  0  0  0  0  0  0  0  0  0
  -21.2330  -12.3625   19.1593 C   0  0  0  0  0  0  0  0  0  0  0  0
  -25.4118  -24.6026   19.9309 C   0  0  0  0  0  0  0  0  0  0  0  0
  -21.4984  -13.8102   19.5686 C   0  0  0  0  0  0  0  0  0  0  0  0
  -21.4164  -11.3998   20.3286 C   0  0  0  0  0  0  0  0  0  0  0  0
  -23.0074  -12.9563   21.4055 C   0  0  0  0  0  0  0  0  0  0  0  0
  -25.8596  -24.1622   21.3298 C   0  0  1  0  0  0  0  0  0  0  0  0
  -29.3116  -22.6003   21.0513 C   0  0  1  0  0  0  0  0  0  0  0  0
  -22.8766  -13.9470   20.2389 C   0  0  2  0  0  0  0  0  0  0  0  0
  -31.3718  -10.9421   19.4478 C   0  0  0  0  0  0  0  0  0  0  0  0
  -34.5621  -23.4141   15.4145 C   0  0  0  0  0  0  0  0  0  0  0  0
  -28.0853  -23.7752   16.7529 C   0  0  0  0  0  0  0  0  0  0  0  0
  -29.9262  -23.7335   15.0566 C   0  0  0  0  0  0  0  0  0  0  0  0
  -29.8302  -25.5666   16.7457 C   0  0  0  0  0  0  0  0  0  0  0  0
  -25.4970   -9.3266   22.0356 C   0  0  0  0  0  0  0  0  0  0  0  0
  -35.0388  -21.5841   18.7160 C   0  0  0  0  0  0  0  0  0  0  0  0
  -29.3344  -15.1937   21.0227 C   0  0  0  0  0  0  0  0  0  1  0  0
  -26.7379  -11.9628   18.5213 C   0  0  0  0  0  0  0  0  0  0  0  0
  -25.9192  -10.9581   19.3559 C   0  0  0  0  0  0  0  0  0  0  0  0
  -25.5820  -11.4397   20.7654 C   0  0  0  0  0  0  0  0  0  0  0  0
  -30.5059  -23.2424   17.4760 C   0  0  1  0  0  0  0  0  0  0  0  0
  -34.2400  -23.0452   16.8542 C   0  0  2  0  0  0  0  0  0  0  0  0
  -29.5838  -24.0581   16.5263 C   0  0  0  0  0  0  0  0  0  0  0  0
  -22.1304  -16.1446   21.0731 N   0  0  0  0  0  0  0  0  0  0  0  0
  -29.0569  -11.4888   19.0015 N   0  0  0  0  0  0  0  0  0  0  0  0
  -28.0675  -13.5498   19.7635 N   0  0  0  0  0  0  0  0  0  0  0  0
  -23.1567  -15.3724   20.6775 N   0  0  0  0  0  0  0  0  0  0  0  0
  -29.8112  -22.3864   19.6916 N   0  0  0  0  0  0  0  0  0  0  0  0
  -22.7170  -11.5807   20.9742 N   0  0  0  0  0  0  0  0  0  0  0  0
  -25.5042  -15.3669   20.3617 N   0  0  0  0  0  0  0  0  0  0  0  0
  -24.6653  -19.5410   21.8680 N   0  0  0  0  0  0  0  0  0  0  0  0
  -27.2796  -23.8827   21.3412 N   0  0  0  0  0  0  0  0  0  0  0  0
  -31.9294  -23.5103   17.3023 N   0  0  0  0  0  0  0  0  0  0  0  0
  -24.7737  -10.4745   21.5073 N   0  0  0  0  0  0  0  0  0  0  0  0
  -35.2236  -22.0218   17.3084 N   0  3  0  0  0  0  0  0  0  0  0  0
  -26.3134  -18.1155   21.1535 O   0  0  0  0  0  0  0  0  0  0  0  0
  -27.1875  -21.6850   20.5768 O   0  0  0  0  0  0  0  0  0  0  0  0
  -30.3156  -24.6416   19.3819 O   0  0  0  0  0  0  0  0  0  0  0  0
  -32.5418  -21.3271   16.8170 O   0  0  0  0  0  0  0  0  0  0  0  0
  -22.7367   -9.4865   21.9395 O   0  0  0  0  0  0  0  0  0  0  0  0
  -19.6753  -21.6098   23.2301 O   0  0  0  0  0  0  0  0  0  0  0  0
  -29.3777  -16.2438   20.0575 O   0  0  0  0  0  0  0  0  0  1  0  0
  -20.7085  -26.5869   21.0934 F   0  0  0  0  0  0  0  0  0  0  0  0
  -17.7072  -23.0142   21.8897 F   0  0  0  0  0  0  0  0  0  0  0  0
  1  2  1  0  0  0  0
  1  5  2  0  0  0  0
  2  6  2  0  0  0  0
  3  8  2  0  0  0  0
  3 16  1  0  0  0  0
  4  9  1  0  0  0  0
  4 16  2  0  0  0  0
  5 18  1  0  0  0  0
  6 20  1  0  0  0  0
  7 10  2  0  0  0  0
  7 19  1  0  0  0  0
  8 22  1  0  0  0  0
  9 22  2  0  0  0  0
 10 23  1  0  0  0  0
 11 12  2  0  0  0  0
 11 24  1  0  0  0  0
 12 25  1  0  0  0  0
 13 21  1  0  0  0  0
 13 23  2  0  0  0  0
 14 25  2  0  0  0  0
 14 26  1  0  0  0  0
 15 28  2  0  0  0  0
 15 29  1  0  0  0  0
 16 27  1  0  0  0  0
 17 27  1  0  0  0  0
 17 30  2  0  0  0  0
 17 32  1  0  0  0  0
 18 20  2  0  0  0  0
 18 37  1  0  0  0  0
 19 21  2  0  0  0  0
 19 38  1  0  0  0  0
 20 46  1  0  0  0  0
 21 39  1  0  0  0  0
 22 80  1  0  0  0  0
 23 81  1  0  0  0  0
 24 26  2  0  0  0  0
 24 80  1  0  0  0  0
 25 82  1  0  0  0  0
 26 83  1  0  0  0  0
 27 63  2  0  0  0  0
 28 49  1  0  0  0  0
 28 64  1  0  0  0  0
 29 56  1  0  0  0  0
 29 65  2  0  0  0  0
 30 66  1  0  0  0  0
 30 69  1  0  0  0  0
 31 57  1  0  0  0  0
 31 64  2  0  0  0  0
 31 65  1  0  0  0  0
 32 70  1  0  0  0  0
 32 75  2  0  0  0  0
 33 47  1  0  0  0  0
 33 71  1  0  0  0  0
 33 76  2  0  0  0  0
 34 60  1  0  0  0  0
 34 67  1  0  0  0  0
 34 77  2  0  0  0  0
 35 61  1  0  0  0  0
 35 72  1  0  0  0  0
 35 78  2  0  0  0  0
 36 68  1  0  0  0  0
 36 73  1  0  0  0  0
 36 79  2  0  0  0  0
 37 40  1  0  0  0  0
 38 47  1  0  0  0  0
 39 67  1  0  0  0  0
 40 42  1  0  0  0  0
 41 43  1  0  0  0  0
 41 44  1  0  0  0  0
 42 46  1  0  0  0  0
 43 48  1  0  0  0  0
 44 68  1  0  0  0  0
 45 48  1  0  0  0  0
 45 68  1  0  0  0  0
 46 71  1  0  0  0  0
 47 67  1  0  0  0  0
 48 66  1  0  0  0  0
 50 61  1  0  0  0  0
 51 62  1  0  0  0  0
 52 62  1  0  0  0  0
 53 62  1  0  0  0  0
 54 73  1  0  0  0  0
 55 74  1  0  0  0  0
 56 81  1  0  0  0  0
 57 58  1  0  0  0  0
 58 59  1  0  0  0  0
 59 73  1  0  0  0  0
 60 62  1  0  0  0  0
 60 72  1  0  0  0  0
 61 74  1  0  0  0  0
 63 66  1  0  0  0  0
M  CHG  1  74   1
M  ISO  4  36 100  56 101  73 100  81 101
M  END
> <Batch ID>
0052

> <Smiles>
CNC(C)C(=O)NC(C(=O)N1Cc2cc([101O:1][101CH2:1]c3cc(C)nc(CCC[100N:0](C)[100C:0](=O)N4CCCC(n5nc(-c6ccc(Oc7ccc(F)cc7F)cc6)c(C(N)=O)c5N)C4)n3)ccc2CC1C(=O)NC1CCCc2ccccc21)C(C)(C)C

> <Shape>
0.215

> <Color>
0.068

> <Negative vol penalty>
0.000

$$$$

  -OEChem-04052317363D

 83 91  0     1  0  0  0  0  0999 V2000
  -27.7693  -31.7970   25.1651 C   0  0  0  0  0  0  0  0  0  0  0  0
  -28.2087  -30.5450   24.7471 C   0  0  0  0  0  0  0  0  0  0  0  0
  -23.1138   -9.9240   19.9171 C   0  0  0  0  0  0  0  0  0  0  0  0
  -23.9127   -9.8889   22.1969 C   0  0  0  0  0  0  0  0  0  0  0  0
  -26.4271  -32.1467   25.0231 C   0  0  0  0  0  0  0  0  0  0  0  0
  -27.3059  -29.6414   24.1878 C   0  0  0  0  0  0  0  0  0  0  0  0
  -28.4290  -25.6003   19.7253 C   0  0  0  0  0  0  0  0  0  0  0  0
  -22.3919   -8.7539   20.1520 C   0  0  0  0  0  0  0  0  0  0  0  0
  -23.1908   -8.7187   22.4318 C   0  0  0  0  0  0  0  0  0  0  0  0
  -28.7197  -24.2369   19.7459 C   0  0  0  0  0  0  0  0  0  0  0  0
  -19.9859   -7.8567   23.0693 C   0  0  0  0  0  0  0  0  0  0  0  0
  -19.2499   -7.7774   24.2514 C   0  0  0  0  0  0  0  0  0  0  0  0
  -26.3907  -23.7406   19.3605 C   0  0  0  0  0  0  0  0  0  0  0  0
  -20.5330   -5.8428   24.9206 C   0  0  0  0  0  0  0  0  0  0  0  0
  -23.8742  -10.4916   20.9395 C   0  0  0  0  0  0  0  0  0  0  0  0
  -24.1755  -13.0239   20.8739 C   0  0  0  0  0  0  0  0  0  0  0  0
  -25.5092  -31.2506   24.4528 C   0  0  0  0  0  0  0  0  0  0  0  0
  -27.1130  -26.0446   19.5327 C   0  0  0  0  0  0  0  0  0  0  0  0
  -25.9499  -29.9789   24.0392 C   0  0  0  0  0  0  0  0  0  0  0  0
  -26.0863  -25.1102   19.3353 C   0  0  0  0  0  0  0  0  0  0  0  0
  -22.4304   -8.1512   21.4093 C   0  0  0  0  0  0  0  0  0  0  0  0
  -27.7001  -23.3068   19.5663 C   0  0  0  0  0  0  0  0  0  0  0  0
  -20.9955   -6.9290   22.8127 C   0  0  0  0  0  0  0  0  0  0  0  0
  -19.5234   -6.7705   25.1771 C   0  0  0  0  0  0  0  0  0  0  0  0
  -21.2691   -5.9220   23.7384 C   0  0  0  0  0  0  0  0  0  0  0  0
  -24.6206  -11.7000   20.6973 C   0  0  0  0  0  0  0  0  0  0  0  0
  -29.8914  -18.0763   19.0518 C   0  0  0  0  0  0  0  0  0  0  0  0
  -29.3512  -17.7567   20.2799 C   0  0  0  0  0  0  0  0  0  0  0  0
  -25.2497  -13.7986   20.5103 C   0  0  0  0  0  0  0  0  0  0  0  0
  -29.4509  -20.1059   19.7566 C   0  0  0  0  0  0  0  0  0  0  0  0
  -22.9047  -13.5098   21.3262 C   0  0  0  0  0  0  0  0  0  0  0  0
  -25.0376  -27.7244   21.2575 C   0  0  0  0  0  0  0  0  0  0  0  0
  -23.2500  -27.5549   18.5560 C   0  0  0  0  0  0  0  0  0  0  0  0
  -22.5465  -25.9177   15.6454 C   0  0  0  0  0  0  0  0  0  0  0  0
  -30.8540  -14.5841   21.0509 C   0  0  0  0  0  0  0  0  0  0  0  0
  -24.0592  -31.6556   24.3633 C   0  0  0  0  0  0  0  0  0  0  0  0
  -26.8202  -27.5193   19.4865 C   0  0  0  0  0  0  0  0  0  0  0  0
  -24.6602  -25.5360   19.1046 C   0  0  0  0  0  0  0  0  0  0  0  0
  -23.2400  -30.7816   23.4170 C   0  0  0  0  0  0  0  0  0  0  0  0
  -29.5772  -12.5863   18.2084 C   0  0  0  0  0  0  0  0  0  0  0  0
  -23.5303  -29.3053   23.6680 C   0  0  0  0  0  0  0  0  0  0  0  0
  -28.1613  -12.2320   18.6597 C   0  0  0  0  0  0  0  0  0  0  0  0
  -30.5168  -12.7866   19.3936 C   0  0  0  0  0  0  0  0  0  0  0  0
  -28.6149  -13.4294   20.8371 C   0  0  0  0  0  0  0  0  0  0  0  0
  -25.0057  -28.9807   23.4049 C   0  0  1  0  0  0  0  0  0  0  0  0
  -25.3632  -27.8491   19.7959 C   0  0  1  0  0  0  0  0  0  0  0  0
  -27.6318  -13.2665   19.6680 C   0  0  2  0  0  0  0  0  0  0  0  0
  -21.0081  -25.9944   13.6643 C   0  0  0  0  0  0  0  0  0  0  0  0
  -20.9874  -26.4398   20.2728 C   0  0  0  0  0  0  0  0  0  0  0  0
  -19.8692  -25.6636   18.1715 C   0  0  0  0  0  0  0  0  0  0  0  0
  -20.2662  -28.0978   18.5450 C   0  0  0  0  0  0  0  0  0  0  0  0
  -31.2569  -16.7620   22.1345 C   0  0  0  0  0  0  0  0  0  0  0  0
  -24.8027  -26.2551   13.7600 C   0  0  0  0  0  0  0  0  0  0  0  0
  -29.1387  -16.4391   20.9119 C   0  0  0  0  0  0  0  0  0  0  0  0
  -29.3421  -21.6019   19.7966 C   0  0  0  0  0  0  0  0  0  1  0  0
  -22.2244  -26.5902   18.0115 C   0  0  1  0  0  0  0  0  0  0  0  0
  -22.3546  -26.4225   14.2267 C   0  0  2  0  0  0  0  0  0  0  0  0
  -30.4001  -17.1172   18.0500 C   0  0  0  0  0  0  0  0  0  0  0  0
  -20.8633  -26.6895   18.7565 C   0  0  0  0  0  0  0  0  0  0  0  0
  -25.8794  -11.6338   20.2557 N   0  0  0  0  0  0  0  0  0  0  0  0
  -29.9490  -19.4229   18.7498 N   0  0  0  0  0  0  0  0  0  0  0  0
  -26.2345  -12.9258   20.1517 N   0  0  0  0  0  0  0  0  0  0  0  0
  -24.4234  -26.9888   19.0742 N   0  0  0  0  0  0  0  0  0  0  0  0
  -29.9694  -13.7420   20.3574 N   0  0  0  0  0  0  0  0  0  0  0  0
  -25.4386  -15.1346   20.4655 N   0  0  0  0  0  0  0  0  0  0  0  0
  -21.9126  -12.5772   21.6587 N   0  0  0  0  0  0  0  0  0  0  0  0
  -25.2553  -28.8802   21.9829 N   0  0  0  0  0  0  0  0  0  0  0  0
  -22.1412  -26.8489   16.5781 N   0  0  0  0  0  0  0  0  0  0  0  0
  -30.3735  -15.8486   21.4237 N   0  0  0  0  0  0  0  0  0  0  0  0
  -23.4259  -25.8899   13.3381 N   0  3  0  0  0  0  0  0  0  0  0  0
  -22.6508  -14.7349   21.4168 O   0  0  0  0  0  0  0  0  0  0  0  0
  -24.6185  -26.6590   21.6943 O   0  0  0  0  0  0  0  0  0  0  0  0
  -23.0217  -28.7665   18.5162 O   0  0  0  0  0  0  0  0  0  0  0  0
  -23.0061  -24.8068   15.9007 O   0  0  0  0  0  0  0  0  0  0  0  0
  -32.0106  -14.2298   21.3132 O   0  0  0  0  0  0  0  0  0  0  0  0
  -21.7259   -7.0095   21.6390 O   0  0  0  0  0  0  0  0  0  0  0  0
  -27.9810  -21.9754   19.5866 O   0  0  0  0  0  0  0  0  0  1  0  0
  -18.8175   -6.6954   26.3130 F   0  0  0  0  0  0  0  0  0  0  0  0
  -22.2386   -5.0287   23.4981 F   0  0  0  0  0  0  0  0  0  0  0  0
  -30.3009  -15.8029   18.4298 F   0  0  0  0  0  0  0  0  0  0  0  0
  -29.7553  -17.1744   16.8407 F   0  0  0  0  0  0  0  0  0  0  0  0
  -31.7253  -17.2999   17.7529 F   0  0  0  0  0  0  0  0  0  0  0  0
  -28.8953  -19.1928   21.0991 S   0  0  0  0  0  0  0  0  0  0  0  0
  1  2  1  0  0  0  0
  1  5  2  0  0  0  0
  2  6  2  0  0  0  0
  3  8  2  0  0  0  0
  3 15  1  0  0  0  0
  4  9  1  0  0  0  0
  4 15  2  0  0  0  0
  5 17  1  0  0  0  0
  6 19  1  0  0  0  0
  7 10  2  0  0  0  0
  7 18  1  0  0  0  0
  8 21  1  0  0  0  0
  9 21  2  0  0  0  0
 10 22  1  0  0  0  0
 11 12  2  0  0  0  0
 11 23  1  0  0  0  0
 12 24  1  0  0  0  0
 13 20  1  0  0  0  0
 13 22  2  0  0  0  0
 14 24  2  0  0  0  0
 14 25  1  0  0  0  0
 15 26  1  0  0  0  0
 16 26  1  0  0  0  0
 16 29  2  0  0  0  0
 16 31  1  0  0  0  0
 17 19  2  0  0  0  0
 17 36  1  0  0  0  0
 18 20  2  0  0  0  0
 18 37  1  0  0  0  0
 19 45  1  0  0  0  0
 20 38  1  0  0  0  0
 21 76  1  0  0  0  0
 22 77  1  0  0  0  0
 23 25  2  0  0  0  0
 23 76  1  0  0  0  0
 24 78  1  0  0  0  0
 25 79  1  0  0  0  0
 26 60  2  0  0  0  0
 27 28  2  0  0  0  0
 27 58  1  0  0  0  0
 27 61  1  0  0  0  0
 28 54  1  0  0  0  0
 28 83  1  0  0  0  0
 29 62  1  0  0  0  0
 29 65  1  0  0  0  0
 30 55  1  0  0  0  0
 30 61  2  0  0  0  0
 30 83  1  0  0  0  0
 31 66  1  0  0  0  0
 31 71  2  0  0  0  0
 32 46  1  0  0  0  0
 32 67  1  0  0  0  0
 32 72  2  0  0  0  0
 33 56  1  0  0  0  0
 33 63  1  0  0  0  0
 33 73  2  0  0  0  0
 34 57  1  0  0  0  0
 34 68  1  0  0  0  0
 34 74  2  0  0  0  0
 35 64  1  0  0  0  0
 35 69  1  0  0  0  0
 35 75  2  0  0  0  0
 36 39  1  0  0  0  0
 37 46  1  0  0  0  0
 38 63  1  0  0  0  0
 39 41  1  0  0  0  0
 40 42  1  0  0  0  0
 40 43  1  0  0  0  0
 41 45  1  0  0  0  0
 42 47  1  0  0  0  0
 43 64  1  0  0  0  0
 44 47  1  0  0  0  0
 44 64  1  0  0  0  0
 45 67  1  0  0  0  0
 46 63  1  0  0  0  0
 47 62  1  0  0  0  0
 48 57  1  0  0  0  0
 49 59  1  0  0  0  0
 50 59  1  0  0  0  0
 51 59  1  0  0  0  0
 52 69  1  0  0  0  0
 53 70  1  0  0  0  0
 54 69  1  0  0  0  0
 55 77  1  0  0  0  0
 56 59  1  0  0  0  0
 56 68  1  0  0  0  0
 57 70  1  0  0  0  0
 58 80  1  0  0  0  0
 58 81  1  0  0  0  0
 58 82  1  0  0  0  0
 60 62  1  0  0  0  0
M  CHG  1  70   1
M  ISO  4  35 100  55 101  69 100  77 101
M  END
> <Batch ID>
0052

> <Smiles>
CNC(C)C(=O)NC(C(=O)N1Cc2cc([101O:1][101CH2:1]c3nc(C(F)(F)F)c(C[100N:0](C)[100C:0](=O)N4CCCC(n5nc(-c6ccc(Oc7ccc(F)cc7F)cc6)c(C(N)=O)c5N)C4)s3)ccc2CC1C(=O)NC1CCCc2ccccc21)C(C)(C)C

> <Shape>
0.337

> <Color>
0.185

> <Negative vol penalty>
0.000

$$$$

  -OEChem-04052317363D

 91100  0     1  0  0  0  0  0999 V2000
  -24.9584  -30.8783   15.0374 C   0  0  0  0  0  0  0  0  0  0  0  0
  -25.7651  -29.7498   14.9311 C   0  0  0  0  0  0  0  0  0  0  0  0
  -23.0746   -9.9321   19.9169 C   0  0  0  0  0  0  0  0  0  0  0  0
  -24.0596   -9.8124   22.1197 C   0  0  0  0  0  0  0  0  0  0  0  0
  -25.1222  -31.7523   16.1112 C   0  0  0  0  0  0  0  0  0  0  0  0
  -26.7369  -29.4953   15.8982 C   0  0  0  0  0  0  0  0  0  0  0  0
  -26.7916  -24.6500   17.3694 C   0  0  0  0  0  0  0  0  0  0  0  0
  -22.3933   -8.7388   20.1566 C   0  0  0  0  0  0  0  0  0  0  0  0
  -23.3783   -8.6191   22.3595 C   0  0  0  0  0  0  0  0  0  0  0  0
  -27.4081  -23.7333   16.5189 C   0  0  0  0  0  0  0  0  0  0  0  0
  -21.6174   -5.7290   23.6880 C   0  0  0  0  0  0  0  0  0  0  0  0
  -20.9837   -5.5798   24.9215 C   0  0  0  0  0  0  0  0  0  0  0  0
  -27.0732  -16.4831   16.6869 C   0  0  0  0  0  0  0  0  0  0  0  0
  -29.3847  -23.7900   17.9006 C   0  0  0  0  0  0  0  0  0  0  0  0
  -27.6071  -18.5894   17.7178 C   0  0  0  0  0  0  0  0  0  0  0  0
  -19.6164   -7.5159   24.4533 C   0  0  0  0  0  0  0  0  0  0  0  0
  -25.7493  -16.8913   16.6640 C   0  0  0  0  0  0  0  0  0  0  0  0
  -31.5587  -19.4202   18.8827 C   0  0  0  0  0  0  0  0  0  0  0  0
  -23.9078  -10.4689   20.8984 C   0  0  0  0  0  0  0  0  0  0  0  0
  -24.1623  -13.0071   20.9234 C   0  0  0  0  0  0  0  0  0  0  0  0
  -26.0900  -31.5033   17.0971 C   0  0  0  0  0  0  0  0  0  0  0  0
  -27.4721  -25.1527   18.4877 C   0  0  0  0  0  0  0  0  0  0  0  0
  -26.9147  -30.3676   16.9856 C   0  0  0  0  0  0  0  0  0  0  0  0
  -28.7736  -24.7110   18.7651 C   0  0  0  0  0  0  0  0  0  0  0  0
  -28.0136  -17.3542   17.2255 C   0  0  0  0  0  0  0  0  0  0  0  0
  -22.5451   -8.0823   21.3780 C   0  0  0  0  0  0  0  0  0  0  0  0
  -28.7059  -23.3053   16.7829 C   0  0  0  0  0  0  0  0  0  0  0  0
  -21.2507   -6.7717   22.8371 C   0  0  0  0  0  0  0  0  0  0  0  0
  -19.9832   -6.4732   25.3042 C   0  0  0  0  0  0  0  0  0  0  0  0
  -20.2502   -7.6651   23.2197 C   0  0  0  0  0  0  0  0  0  0  0  0
  -24.6123  -11.7012   20.6511 C   0  0  0  0  0  0  0  0  0  0  0  0
  -26.2594  -18.9034   17.6486 C   0  0  0  0  0  0  0  0  0  0  0  0
  -31.0473  -18.8549   17.7488 C   0  0  0  0  0  0  0  0  0  0  0  0
  -25.1904  -13.8180   20.5087 C   0  0  0  0  0  0  0  0  0  0  0  0
  -30.2168  -17.7671   19.4887 C   0  0  0  0  0  0  0  0  0  0  0  0
  -22.9257  -13.4476   21.4998 C   0  0  0  0  0  0  0  0  0  0  0  0
  -28.4206  -28.0377   19.4262 C   0  0  0  0  0  0  0  0  0  0  0  0
  -29.2481  -26.4566   22.1351 C   0  0  0  0  0  0  0  0  0  0  0  0
  -30.1015  -23.5053   23.6211 C   0  0  0  0  0  0  0  0  0  0  0  0
  -30.8070  -14.6885   20.6241 C   0  0  0  0  0  0  0  0  0  0  0  0
  -26.2619  -32.5019   18.2142 C   0  0  0  0  0  0  0  0  0  0  0  0
  -26.7833  -26.1207   19.4101 C   0  0  0  0  0  0  0  0  0  0  0  0
  -29.5400  -25.2050   19.9640 C   0  0  0  0  0  0  0  0  0  0  0  0
  -27.0621  -31.9614   19.3965 C   0  0  0  0  0  0  0  0  0  0  0  0
  -29.3316  -12.7929   17.8078 C   0  0  0  0  0  0  0  0  0  0  0  0
  -28.3190  -31.2477   18.9089 C   0  0  0  0  0  0  0  0  0  0  0  0
  -27.9636  -12.3915   18.3569 C   0  0  0  0  0  0  0  0  0  0  0  0
  -30.3626  -12.9593   18.9200 C   0  0  0  0  0  0  0  0  0  0  0  0
  -28.5765  -13.5006   20.5420 C   0  0  0  0  0  0  0  0  0  0  0  0
  -27.9632  -30.0441   18.0278 C   0  0  1  0  0  0  0  0  0  0  0  0
  -27.7574  -26.9577   20.2334 C   0  0  1  0  0  0  0  0  0  0  0  0
  -27.5029  -13.3701   19.4511 C   0  0  2  0  0  0  0  0  0  0  0  0
  -25.7874  -20.2205   18.1676 C   0  0  0  0  0  0  0  0  0  0  0  0
  -30.2699  -16.0862   23.5450 C   0  0  0  0  0  0  0  0  0  0  0  0
  -28.4663  -17.4975   21.2844 C   0  0  0  0  0  0  0  0  0  0  0  0
  -30.7579  -22.5346   25.8402 C   0  0  0  0  0  0  0  0  0  0  0  0
  -32.0418  -27.6436   21.8253 C   0  0  0  0  0  0  0  0  0  0  0  0
  -32.8725  -25.9360   23.4568 C   0  0  0  0  0  0  0  0  0  0  0  0
  -31.1736  -27.6174   24.1705 C   0  0  0  0  0  0  0  0  0  0  0  0
  -27.7478  -21.7117   23.6635 C   0  0  0  0  0  0  0  0  0  0  0  0
  -29.4652  -16.9606   17.2755 C   0  0  0  0  0  0  0  0  0  0  0  0
  -31.2735  -19.1977   16.2979 C   0  0  0  0  0  0  0  0  0  0  0  0
  -30.2861  -20.2290   15.7475 C   0  0  0  0  0  0  0  0  0  0  0  0
  -30.9592  -16.5205   22.2673 C   0  0  0  0  0  0  0  0  0  0  0  0
  -30.2726  -21.5331   16.5367 C   0  0  0  0  0  0  0  0  0  1  0  0
  -29.4583  -16.8092   20.3309 C   0  0  2  0  0  0  0  0  0  0  0  0
  -30.4864  -25.7423   22.6201 C   0  0  1  0  0  0  0  0  0  0  0  0
  -29.6081  -22.8378   24.8922 C   0  0  2  0  0  0  0  0  0  0  0  0
  -31.6301  -26.7268   22.9944 C   0  0  0  0  0  0  0  0  0  0  0  0
  -25.3166  -18.0832   17.1327 N   0  0  0  0  0  0  0  0  0  0  0  0
  -25.8312  -11.6792   20.1054 N   0  0  0  0  0  0  0  0  0  0  0  0
  -30.2208  -17.8345   18.1534 N   0  0  0  0  0  0  0  0  0  0  0  0
  -26.1559  -12.9812   20.0315 N   0  0  0  0  0  0  0  0  0  0  0  0
  -31.0278  -18.7276   19.9440 N   0  3  0  0  0  0  0  0  0  0  0  0
  -28.8258  -26.1553   20.8325 N   0  0  0  0  0  0  0  0  0  0  0  0
  -29.8816  -13.8605   19.9677 N   0  0  0  0  0  0  0  0  0  0  0  0
  -25.3537  -15.1580   20.5093 N   0  0  0  0  0  0  0  0  0  0  0  0
  -21.9795  -12.4821   21.8697 N   0  0  0  0  0  0  0  0  0  0  0  0
  -27.5380  -28.9278   18.8447 N   0  0  0  0  0  0  0  0  0  0  0  0
  -30.0575  -24.8802   23.7161 N   0  0  0  0  0  0  0  0  0  0  0  0
  -30.3389  -15.9257   21.0920 N   0  0  0  0  0  0  0  0  0  0  0  0
  -28.9148  -21.5586   24.5699 N   0  3  0  0  0  0  0  0  0  0  0  0
  -22.6607  -14.6624   21.6664 O   0  0  0  0  0  0  0  0  0  0  0  0
  -29.6427  -28.0625   19.3388 O   0  0  0  0  0  0  0  0  0  0  0  0
  -28.6724  -27.2472   22.8869 O   0  0  0  0  0  0  0  0  0  0  0  0
  -30.4908  -22.8705   22.6434 O   0  0  0  0  0  0  0  0  0  0  0  0
  -31.9868  -14.3457   20.7745 O   0  0  0  0  0  0  0  0  0  0  0  0
  -21.8803   -6.9180   21.6124 O   0  0  0  0  0  0  0  0  0  0  0  0
  -29.3103  -22.4111   15.9540 O   0  0  0  0  0  0  0  0  0  1  0  0
  -19.3736   -6.3288   26.4882 F   0  0  0  0  0  0  0  0  0  0  0  0
  -19.8927   -8.6680   22.4060 F   0  0  0  0  0  0  0  0  0  0  0  0
  1  2  1  0  0  0  0
  1  5  2  0  0  0  0
  2  6  2  0  0  0  0
  3  8  2  0  0  0  0
  3 19  1  0  0  0  0
  4  9  1  0  0  0  0
  4 19  2  0  0  0  0
  5 21  1  0  0  0  0
  6 23  1  0  0  0  0
  7 10  2  0  0  0  0
  7 22  1  0  0  0  0
  8 26  1  0  0  0  0
  9 26  2  0  0  0  0
 10 27  1  0  0  0  0
 11 12  2  0  0  0  0
 11 28  1  0  0  0  0
 12 29  1  0  0  0  0
 13 17  2  0  0  0  0
 13 25  1  0  0  0  0
 14 24  1  0  0  0  0
 14 27  2  0  0  0  0
 15 25  2  0  0  0  0
 15 32  1  0  0  0  0
 16 29  2  0  0  0  0
 16 30  1  0  0  0  0
 17 70  1  0  0  0  0
 18 33  2  0  0  0  0
 18 74  1  0  0  0  0
 19 31  1  0  0  0  0
 20 31  1  0  0  0  0
 20 34  2  0  0  0  0
 20 36  1  0  0  0  0
 21 23  2  0  0  0  0
 21 41  1  0  0  0  0
 22 24  2  0  0  0  0
 22 42  1  0  0  0  0
 23 50  1  0  0  0  0
 24 43  1  0  0  0  0
 25 61  1  0  0  0  0
 26 88  1  0  0  0  0
 27 89  1  0  0  0  0
 28 30  2  0  0  0  0
 28 88  1  0  0  0  0
 29 90  1  0  0  0  0
 30 91  1  0  0  0  0
 31 71  2  0  0  0  0
 32 53  1  0  0  0  0
 32 70  2  0  0  0  0
 33 62  1  0  0  0  0
 33 72  1  0  0  0  0
 34 73  1  0  0  0  0
 34 77  1  0  0  0  0
 35 66  1  0  0  0  0
 35 72  1  0  0  0  0
 35 74  2  0  0  0  0
 36 78  1  0  0  0  0
 36 83  2  0  0  0  0
 37 51  1  0  0  0  0
 37 79  1  0  0  0  0
 37 84  2  0  0  0  0
 38 67  1  0  0  0  0
 38 75  1  0  0  0  0
 38 85  2  0  0  0  0
 39 68  1  0  0  0  0
 39 80  1  0  0  0  0
 39 86  2  0  0  0  0
 40 76  1  0  0  0  0
 40 81  1  0  0  0  0
 40 87  2  0  0  0  0
 41 44  1  0  0  0  0
 42 51  1  0  0  0  0
 43 75  1  0  0  0  0
 44 46  1  0  0  0  0
 45 47  1  0  0  0  0
 45 48  1  0  0  0  0
 46 50  1  0  0  0  0
 47 52  1  0  0  0  0
 48 76  1  0  0  0  0
 49 52  1  0  0  0  0
 49 76  1  0  0  0  0
 50 79  1  0  0  0  0
 51 75  1  0  0  0  0
 52 73  1  0  0  0  0
 54 64  1  0  0  0  0
 55 66  1  0  0  0  0
 56 68  1  0  0  0  0
 57 69  1  0  0  0  0
 58 69  1  0  0  0  0
 59 69  1  0  0  0  0
 60 82  1  0  0  0  0
 61 72  1  0  0  0  0
 62 63  1  0  0  0  0
 63 65  1  0  0  0  0
 64 81  1  0  0  0  0
 65 89  1  0  0  0  0
 66 81  1  0  0  0  0
 67 69  1  0  0  0  0
 67 80  1  0  0  0  0
 68 82  1  0  0  0  0
 71 73  1  0  0  0  0
M  CHG  2  74   1  82   1
M  ISO  4  40 100  65 101  81 100  89 101
M  END
> <Batch ID>
0052

> <Smiles>
CC[100N:0](C(C)c1ncc(CC[101CH2:1][101O:1]c2ccc3c(c2)CN(C(=O)C(NC(=O)C(C)NC)C(C)(C)C)C(C(=O)NC2CCCc4ccccc42)C3)n1Cc1ccnc(C)c1)[100C:0](=O)N1CCCC(n2nc(-c3ccc(Oc4ccc(F)cc4F)cc3)c(C(N)=O)c2N)C1

> <Shape>
0.249

> <Color>
0.166

> <Negative vol penalty>
0.000

$$$$

  -OEChem-04052317363D

 91 99  0     1  0  0  0  0  0999 V2000
  -26.7773  -30.0960   23.8468 C   0  0  0  0  0  0  0  0  0  0  0  0
  -26.6029  -28.8134   24.3566 C   0  0  0  0  0  0  0  0  0  0  0  0
  -19.9993  -27.2357   22.9710 C   0  0  0  0  0  0  0  0  0  0  0  0
  -21.6482  -26.0378   21.6738 C   0  0  0  0  0  0  0  0  0  0  0  0
  -26.8453  -30.2937   22.4683 C   0  0  0  0  0  0  0  0  0  0  0  0
  -26.4954  -27.7278   23.4880 C   0  0  0  0  0  0  0  0  0  0  0  0
  -28.1110  -20.7639   23.0291 C   0  0  0  0  0  0  0  0  0  0  0  0
  -20.9563  -28.1950   23.3017 C   0  0  0  0  0  0  0  0  0  0  0  0
  -22.6053  -26.9971   22.0044 C   0  0  0  0  0  0  0  0  0  0  0  0
  -27.5145  -19.5363   22.7444 C   0  0  0  0  0  0  0  0  0  0  0  0
  -22.8734  -31.1525   24.1923 C   0  0  0  0  0  0  0  0  0  0  0  0
  -22.5021  -32.4944   24.1095 C   0  0  0  0  0  0  0  0  0  0  0  0
  -27.7256  -19.9880   20.3842 C   0  0  0  0  0  0  0  0  0  0  0  0
  -22.0341  -32.2196   21.7552 C   0  0  0  0  0  0  0  0  0  0  0  0
  -25.8684  -14.6994   22.4702 C   0  0  0  0  0  0  0  0  0  0  0  0
  -20.3452  -26.1570   22.1571 C   0  0  0  0  0  0  0  0  0  0  0  0
  -18.4913  -25.1752   20.7057 C   0  0  0  0  0  0  0  0  0  0  0  0
  -26.7482  -29.2088   21.5828 C   0  0  0  0  0  0  0  0  0  0  0  0
  -28.5100  -21.6190   21.9918 C   0  0  0  0  0  0  0  0  0  0  0  0
  -26.5608  -27.9113   22.0964 C   0  0  0  0  0  0  0  0  0  0  0  0
  -28.3293  -21.2247   20.6584 C   0  0  0  0  0  0  0  0  0  0  0  0
  -22.2593  -28.0758   22.8184 C   0  0  0  0  0  0  0  0  0  0  0  0
  -27.3191  -19.1495   21.4218 C   0  0  0  0  0  0  0  0  0  0  0  0
  -22.8252  -30.3441   23.0566 C   0  0  0  0  0  0  0  0  0  0  0  0
  -22.0824  -33.0280   22.8909 C   0  0  0  0  0  0  0  0  0  0  0  0
  -22.4055  -30.8776   21.8380 C   0  0  0  0  0  0  0  0  0  0  0  0
  -19.3572  -25.1654   21.8156 C   0  0  0  0  0  0  0  0  0  0  0  0
  -25.7584  -15.8615   21.7388 C   0  0  0  0  0  0  0  0  0  0  0  0
  -24.6054  -14.7324   20.1183 C   0  0  0  0  0  0  0  0  0  0  0  0
  -24.7161  -13.5702   20.8495 C   0  0  0  0  0  0  0  0  0  0  0  0
  -17.7558  -24.0223   20.8338 C   0  0  0  0  0  0  0  0  0  0  0  0
  -18.3633  -26.1400   19.6529 C   0  0  0  0  0  0  0  0  0  0  0  0
  -27.7059  -24.5522   21.0680 C   0  0  0  0  0  0  0  0  0  0  0  0
  -18.8909  -18.8293   23.6367 C   0  0  0  0  0  0  0  0  0  0  0  0
  -30.1411  -24.1369   18.9656 C   0  0  0  0  0  0  0  0  0  0  0  0
  -32.1214  -21.9774   17.2158 C   0  0  0  0  0  0  0  0  0  0  0  0
  -26.7799  -29.4778   20.0991 C   0  0  0  0  0  0  0  0  0  0  0  0
  -29.1763  -22.9281   22.3154 C   0  0  0  0  0  0  0  0  0  0  0  0
  -28.7585  -22.0974   19.5083 C   0  0  0  0  0  0  0  0  0  0  0  0
  -27.0329  -28.2286   19.2589 C   0  0  0  0  0  0  0  0  0  0  0  0
  -16.0737  -20.9904   24.1196 C   0  0  0  0  0  0  0  0  0  0  0  0
  -26.1505  -27.0784   19.7334 C   0  0  0  0  0  0  0  0  0  0  0  0
  -16.5284  -22.3150   23.5081 C   0  0  0  0  0  0  0  0  0  0  0  0
  -17.2324  -20.2570   24.7879 C   0  0  0  0  0  0  0  0  0  0  0  0
  -18.8598  -21.3474   23.2765 C   0  0  0  0  0  0  0  0  0  0  0  0
  -26.4648  -26.7054   21.1872 C   0  0  1  0  0  0  0  0  0  0  0  0
  -29.0758  -23.9457   21.1833 C   0  0  1  0  0  0  0  0  0  0  0  0
  -17.7258  -22.1059   22.5642 C   0  0  2  0  0  0  0  0  0  0  0  0
  -23.9015  -14.7601   18.8047 C   0  0  0  0  0  0  0  0  0  0  0  0
  -33.9978  -21.9347   15.5501 C   0  0  0  0  0  0  0  0  0  0  0  0
  -28.1827  -24.8723   16.7443 C   0  0  0  0  0  0  0  0  0  0  0  0
  -29.7997  -23.9070   15.0945 C   0  0  0  0  0  0  0  0  0  0  0  0
  -30.4653  -25.8627   16.4928 C   0  0  0  0  0  0  0  0  0  0  0  0
  -18.9812  -14.8705   23.4294 C   0  0  0  0  0  0  0  0  0  0  0  0
  -18.4814  -14.3717   21.0405 C   0  0  0  0  0  0  0  0  0  0  0  0
  -33.9084  -20.5462   19.0913 C   0  0  0  0  0  0  0  0  0  0  0  0
  -21.9177  -17.2089   22.0874 C   0  0  0  0  0  0  0  0  0  0  0  0
  -22.3913  -10.9391   22.6431 C   0  0  0  0  0  0  0  0  0  0  0  0
  -24.1371  -12.2864   20.3610 C   0  0  0  0  0  0  0  0  0  0  0  0
  -26.3499  -17.1420   22.2504 C   0  0  0  0  0  0  0  0  0  1  0  0
  -20.0465  -18.7449   22.6715 C   0  0  0  0  0  0  0  0  0  0  0  0
  -20.8751  -14.3233   21.8801 C   0  0  0  0  0  0  0  0  0  0  0  0
  -22.6170  -12.1900   20.5018 C   0  0  0  0  0  0  0  0  0  0  0  0
  -20.8402  -12.8184   22.1293 C   0  0  0  0  0  0  0  0  0  0  0  0
  -19.5655  -16.5418   21.6152 C   0  0  0  0  0  0  0  0  0  0  0  0
  -30.2629  -23.5828   17.5666 C   0  0  1  0  0  0  0  0  0  0  0  0
  -33.6263  -21.9204   17.0247 C   0  0  2  0  0  0  0  0  0  0  0  0
  -29.6677  -24.5404   16.4960 C   0  0  0  0  0  0  0  0  0  0  0  0
  -19.5007  -15.0428   21.9852 C   0  0  0  0  0  0  0  0  0  0  0  0
  -25.3493  -13.5329   22.0387 N   0  0  0  0  0  0  0  0  0  0  0  0
  -19.1884  -24.0916   22.5918 N   0  0  0  0  0  0  0  0  0  0  0  0
  -25.1249  -15.8988   20.5497 N   0  0  0  0  0  0  0  0  0  0  0  0
  -18.2080  -23.4159   21.9687 N   0  0  0  0  0  0  0  0  0  0  0  0
  -29.3996  -23.3707   19.8761 N   0  0  0  0  0  0  0  0  0  0  0  0
  -18.3583  -20.0981   23.8658 N   0  0  0  0  0  0  0  0  0  0  0  0
  -16.7728  -23.4783   20.0854 N   0  0  0  0  0  0  0  0  0  0  0  0
  -19.1971  -27.2664   19.6739 N   0  0  0  0  0  0  0  0  0  0  0  0
  -27.6790  -25.9208   21.2565 N   0  0  0  0  0  0  0  0  0  0  0  0
  -31.6751  -23.2726   17.3719 N   0  0  0  0  0  0  0  0  0  0  0  0
  -34.1795  -20.6793   17.6367 N   0  3  0  0  0  0  0  0  0  0  0  0
  -20.4712  -17.3059   22.5071 N   0  3  1  0  0  0  0  0  0  0  0  0
  -22.2282  -12.2601   21.9320 N   0  3  1  0  0  0  0  0  0  0  0  0
  -17.5229  -26.0155   18.7300 O   0  0  0  0  0  0  0  0  0  0  0  0
  -26.7449  -23.8320   20.8244 O   0  0  0  0  0  0  0  0  0  0  0  0
  -18.4736  -17.7969   24.1679 O   0  0  0  0  0  0  0  0  0  0  0  0
  -30.6898  -25.2064   19.2423 O   0  0  0  0  0  0  0  0  0  0  0  0
  -31.4123  -20.9736   17.2220 O   0  0  0  0  0  0  0  0  0  0  0  0
  -23.1934  -29.0118   23.1407 O   0  0  0  0  0  0  0  0  0  0  0  0
  -26.7365  -17.9521   21.1411 O   0  0  0  0  0  0  0  0  0  1  0  0
  -21.7244  -34.3163   22.8118 F   0  0  0  0  0  0  0  0  0  0  0  0
  -22.3560  -30.1056   20.7438 F   0  0  0  0  0  0  0  0  0  0  0  0
  1  2  1  0  0  0  0
  1  5  2  0  0  0  0
  2  6  2  0  0  0  0
  3  8  2  0  0  0  0
  3 16  1  0  0  0  0
  4  9  1  0  0  0  0
  4 16  2  0  0  0  0
  5 18  1  0  0  0  0
  6 20  1  0  0  0  0
  7 10  2  0  0  0  0
  7 19  1  0  0  0  0
  8 22  1  0  0  0  0
  9 22  2  0  0  0  0
 10 23  1  0  0  0  0
 11 12  2  0  0  0  0
 11 24  1  0  0  0  0
 12 25  1  0  0  0  0
 13 21  1  0  0  0  0
 13 23  2  0  0  0  0
 14 25  2  0  0  0  0
 14 26  1  0  0  0  0
 15 28  1  0  0  0  0
 15 70  2  0  0  0  0
 16 27  1  0  0  0  0
 17 27  1  0  0  0  0
 17 31  2  0  0  0  0
 17 32  1  0  0  0  0
 18 20  2  0  0  0  0
 18 37  1  0  0  0  0
 19 21  2  0  0  0  0
 19 38  1  0  0  0  0
 20 46  1  0  0  0  0
 21 39  1  0  0  0  0
 22 88  1  0  0  0  0
 23 89  1  0  0  0  0
 24 26  2  0  0  0  0
 24 88  1  0  0  0  0
 25 90  1  0  0  0  0
 26 91  1  0  0  0  0
 27 71  2  0  0  0  0
 28 60  1  0  0  0  0
 28 72  2  0  0  0  0
 29 30  2  0  0  0  0
 29 49  1  0  0  0  0
 29 72  1  0  0  0  0
 30 59  1  0  0  0  0
 30 70  1  0  0  0  0
 31 73  1  0  0  0  0
 31 76  1  0  0  0  0
 32 77  1  0  0  0  0
 32 83  2  0  0  0  0
 33 47  1  0  0  0  0
 33 78  1  0  0  0  0
 33 84  2  0  0  0  0
 34 61  1  0  0  0  0
 34 75  1  0  0  0  0
 34 85  2  0  0  0  0
 35 66  1  0  0  0  0
 35 74  1  0  0  0  0
 35 86  2  0  0  0  0
 36 67  1  0  0  0  0
 36 79  1  0  0  0  0
 36 87  2  0  0  0  0
 37 40  1  0  0  0  0
 38 47  1  0  0  0  0
 39 74  1  0  0  0  0
 40 42  1  0  0  0  0
 41 43  1  0  0  0  0
 41 44  1  0  0  0  0
 42 46  1  0  0  0  0
 43 48  1  0  0  0  0
 44 75  1  0  0  0  0
 45 48  1  0  0  0  0
 45 75  1  0  0  0  0
 46 78  1  0  0  0  0
 47 74  1  0  0  0  0
 48 73  1  0  0  0  0
 50 67  1  0  0  0  0
 51 68  1  0  0  0  0
 52 68  1  0  0  0  0
 53 68  1  0  0  0  0
 54 69  1  0  0  0  0
 55 69  1  0  0  0  0
 56 80  1  0  0  0  0
 57 81  1  0  0  0  0
 58 82  1  0  0  0  0
 59 63  1  0  0  0  0
 60 89  1  0  0  0  0
 61 81  1  0  0  0  0
 62 64  1  0  0  0  0
 62 69  1  0  0  0  0
 63 82  1  0  0  0  0
 64 82  1  0  0  0  0
 65 69  1  0  0  0  0
 65 81  1  0  0  0  0
 66 68  1  0  0  0  0
 66 79  1  0  0  0  0
 67 80  1  0  0  0  0
 71 73  1  0  0  0  0
M  CHG  3  80   1  81   1  82   1
M  ISO  4  34 100  60 101  61 100  89 101
M  END
> <Batch ID>
0052

> <Smiles>
CNC(C)C(=O)NC(C(=O)N1Cc2cc([101O:1][101CH2:1]c3cnc(CCN(C)CCC(C)(C)CN(C)[100CH2:0][100C:0](=O)N4CCCC(n5nc(-c6ccc(Oc7ccc(F)cc7F)cc6)c(C(N)=O)c5N)C4)c(C)n3)ccc2CC1C(=O)NC1CCCc2ccccc21)C(C)(C)C

> <Shape>
0.216

> <Color>
0.065

> <Negative vol penalty>
0.000

$$$$

  -OEChem-04052317363D

 84 92  0     1  0  0  0  0  0999 V2000
  -16.9658  -28.5926   24.3872 C   0  0  0  0  0  0  0  0  0  0  0  0
  -17.7009  -27.6733   23.6457 C   0  0  0  0  0  0  0  0  0  0  0  0
  -30.8766  -22.7099   20.1560 C   0  0  0  0  0  0  0  0  0  0  0  0
  -29.3235  -22.6691   18.3058 C   0  0  0  0  0  0  0  0  0  0  0  0
  -17.2262  -29.9564   24.2602 C   0  0  0  0  0  0  0  0  0  0  0  0
  -18.6962  -28.1174   22.7759 C   0  0  0  0  0  0  0  0  0  0  0  0
  -22.9527  -25.3986   23.1439 C   0  0  0  0  0  0  0  0  0  0  0  0
  -31.6380  -23.6741   19.4956 C   0  0  0  0  0  0  0  0  0  0  0  0
  -30.0849  -23.6334   17.6454 C   0  0  0  0  0  0  0  0  0  0  0  0
  -22.9694  -24.1539   22.5161 C   0  0  0  0  0  0  0  0  0  0  0  0
  -32.9369  -23.7439   15.8329 C   0  0  0  0  0  0  0  0  0  0  0  0
  -33.2000  -23.5454   14.4776 C   0  0  0  0  0  0  0  0  0  0  0  0
  -23.5116  -16.6976   17.8441 C   0  0  0  0  0  0  0  0  0  0  0  0
  -24.1800  -25.1119   20.6624 C   0  0  0  0  0  0  0  0  0  0  0  0
  -32.0787  -25.6209   13.9559 C   0  0  0  0  0  0  0  0  0  0  0  0
  -22.7459  -17.8080   17.5650 C   0  0  0  0  0  0  0  0  0  0  0  0
  -22.1071  -17.0419   19.5700 C   0  0  0  0  0  0  0  0  0  0  0  0
  -29.7194  -22.2074   19.5611 C   0  0  0  0  0  0  0  0  0  0  0  0
  -27.8655  -21.4333   21.1332 C   0  0  0  0  0  0  0  0  0  0  0  0
  -18.2317  -30.4169   23.3956 C   0  0  0  0  0  0  0  0  0  0  0  0
  -23.5409  -26.5135   22.5297 C   0  0  0  0  0  0  0  0  0  0  0  0
  -18.9694  -29.4887   22.6362 C   0  0  0  0  0  0  0  0  0  0  0  0
  -24.1716  -26.3691   21.2857 C   0  0  0  0  0  0  0  0  0  0  0  0
  -23.1076  -16.2129   19.1125 C   0  0  0  0  0  0  0  0  0  0  0  0
  -31.2422  -24.1359   18.2403 C   0  0  0  0  0  0  0  0  0  0  0  0
  -23.5806  -24.0110   21.2738 C   0  0  0  0  0  0  0  0  0  0  0  0
  -32.2446  -24.8809   16.2498 C   0  0  0  0  0  0  0  0  0  0  0  0
  -32.7709  -24.4839   13.5391 C   0  0  0  0  0  0  0  0  0  0  0  0
  -31.8155  -25.8194   15.3112 C   0  0  0  0  0  0  0  0  0  0  0  0
  -28.9327  -21.2109   20.2425 C   0  0  0  0  0  0  0  0  0  0  0  0
  -27.4580  -20.1745   21.5019 C   0  0  0  0  0  0  0  0  0  0  0  0
  -27.2935  -22.6674   21.5866 C   0  0  0  0  0  0  0  0  0  0  0  0
  -22.4771  -29.3214   21.4867 C   0  0  0  0  0  0  0  0  0  0  0  0
  -25.6312  -29.8918   20.9882 C   0  0  0  0  0  0  0  0  0  0  0  0
  -28.7539  -28.6263   20.4461 C   0  0  0  0  0  0  0  0  0  0  0  0
  -26.1173  -14.9622   19.6711 C   0  0  0  0  0  0  0  0  0  0  0  0
  -18.4449  -31.9035   23.2565 C   0  0  0  0  0  0  0  0  0  0  0  0
  -23.5378  -27.8435   23.2322 C   0  0  0  0  0  0  0  0  0  0  0  0
  -24.8352  -27.5304   20.5934 C   0  0  0  0  0  0  0  0  0  0  0  0
  -19.7701  -32.2693   22.5930 C   0  0  0  0  0  0  0  0  0  0  0  0
  -29.5864  -15.6563   20.7597 C   0  0  0  0  0  0  0  0  0  0  0  0
  -19.9953  -31.4198   21.3463 C   0  0  0  0  0  0  0  0  0  0  0  0
  -29.6480  -17.1824   20.7229 C   0  0  0  0  0  0  0  0  0  0  0  0
  -28.5798  -15.1049   19.7545 C   0  0  0  0  0  0  0  0  0  0  0  0
  -27.2746  -17.2024   19.8587 C   0  0  0  0  0  0  0  0  0  0  0  0
  -20.0740  -29.9300   21.7006 C   0  0  1  0  0  0  0  0  0  0  0  0
  -23.7172  -29.0223   22.2806 C   0  0  1  0  0  0  0  0  0  0  0  0
  -28.2457  -17.7923   20.8924 C   0  0  2  0  0  0  0  0  0  0  0  0
  -24.7699  -14.3670   22.6791 C   0  0  0  0  0  0  0  0  0  0  0  0
  -31.1252  -29.3396   20.0390 C   0  0  0  0  0  0  0  0  0  0  0  0
  -19.4523  -18.5535   18.7710 C   0  0  0  0  0  0  0  0  0  0  0  0
  -24.9178  -30.6124   18.1104 C   0  0  0  0  0  0  0  0  0  0  0  0
  -27.3418  -30.3853   17.5263 C   0  0  0  0  0  0  0  0  0  0  0  0
  -26.6138  -32.1129   19.1718 C   0  0  0  0  0  0  0  0  0  0  0  0
  -29.7044  -27.2745   22.9014 C   0  0  0  0  0  0  0  0  0  0  0  0
  -23.6570  -15.0379   19.8157 C   0  0  0  0  0  0  0  0  0  0  0  0
  -22.2882  -21.0221   19.7133 C   0  0  0  0  0  0  0  0  0  0  0  0
  -21.1153  -20.0617   19.9279 C   0  0  0  0  0  0  0  0  0  0  0  0
  -24.9640  -15.6065   21.8292 C   0  0  0  0  0  0  0  0  0  0  0  0
  -22.5057  -21.9184   20.9252 C   0  0  0  0  0  0  0  0  0  1  0  0
  -26.5886  -29.6750   19.8413 C   0  0  1  0  0  0  0  0  0  0  0  0
  -30.0942  -28.9436   21.0845 C   0  0  2  0  0  0  0  0  0  0  0  0
  -20.8739  -19.1273   18.7232 C   0  0  1  0  0  0  0  0  0  0  0  0
  -26.3514  -30.6747   18.6743 C   0  0  0  0  0  0  0  0  0  0  0  0
  -29.1874  -19.9129   20.0567 N   0  0  0  0  0  0  0  0  0  0  0  0
  -21.8954  -18.0077   18.6210 N   0  0  0  0  0  0  0  0  0  0  0  0
  -28.2744  -19.3084   20.8358 N   0  0  0  0  0  0  0  0  0  0  0  0
  -24.8001  -28.8117   21.3177 N   0  0  0  0  0  0  0  0  0  0  0  0
  -27.2672  -15.7327   19.9095 N   0  0  0  0  0  0  0  0  0  0  0  0
  -26.4847  -19.7351   22.3277 N   0  0  0  0  0  0  0  0  0  0  0  0
  -27.8329  -23.8693   21.1084 N   0  0  0  0  0  0  0  0  0  0  0  0
  -21.3698  -29.6114   22.2609 N   0  0  0  0  0  0  0  0  0  0  0  0
  -27.9297  -29.7312   20.4129 N   0  0  0  0  0  0  0  0  0  0  0  0
  -24.9655  -15.2889   20.4029 N   0  0  0  0  0  0  0  0  0  0  0  0
  -30.6084  -27.7576   21.8260 N   0  3  0  0  0  0  0  0  0  0  0  0
  -26.3433  -22.7034   22.4048 O   0  0  0  0  0  0  0  0  0  0  0  0
  -22.5218  -29.2927   20.2625 O   0  0  0  0  0  0  0  0  0  0  0  0
  -25.6260  -30.9769   21.5749 O   0  0  0  0  0  0  0  0  0  0  0  0
  -28.4683  -27.5108   20.0163 O   0  0  0  0  0  0  0  0  0  0  0  0
  -26.1226  -14.0292   18.8579 O   0  0  0  0  0  0  0  0  0  0  0  0
  -31.9848  -25.0770   17.5958 O   0  0  0  0  0  0  0  0  0  0  0  0
  -23.5978  -22.7973   20.6585 O   0  0  0  0  0  0  0  0  0  1  0  0
  -33.0250  -24.2939   12.2377 F   0  0  0  0  0  0  0  0  0  0  0  0
  -31.1511  -26.9142   15.7058 F   0  0  0  0  0  0  0  0  0  0  0  0
  1  2  1  0  0  0  0
  1  5  2  0  0  0  0
  2  6  2  0  0  0  0
  3  8  2  0  0  0  0
  3 18  1  0  0  0  0
  4  9  1  0  0  0  0
  4 18  2  0  0  0  0
  5 20  1  0  0  0  0
  6 22  1  0  0  0  0
  7 10  2  0  0  0  0
  7 21  1  0  0  0  0
  8 25  1  0  0  0  0
  9 25  2  0  0  0  0
 10 26  1  0  0  0  0
 11 12  2  0  0  0  0
 11 27  1  0  0  0  0
 12 28  1  0  0  0  0
 13 16  2  0  0  0  0
 13 24  1  0  0  0  0
 14 23  1  0  0  0  0
 14 26  2  0  0  0  0
 15 28  2  0  0  0  0
 15 29  1  0  0  0  0
 16 66  1  0  0  0  0
 17 24  2  0  0  0  0
 17 66  1  0  0  0  0
 18 30  1  0  0  0  0
 19 30  1  0  0  0  0
 19 31  2  0  0  0  0
 19 32  1  0  0  0  0
 20 22  2  0  0  0  0
 20 37  1  0  0  0  0
 21 23  2  0  0  0  0
 21 38  1  0  0  0  0
 22 46  1  0  0  0  0
 23 39  1  0  0  0  0
 24 56  1  0  0  0  0
 25 81  1  0  0  0  0
 26 82  1  0  0  0  0
 27 29  2  0  0  0  0
 27 81  1  0  0  0  0
 28 83  1  0  0  0  0
 29 84  1  0  0  0  0
 30 65  2  0  0  0  0
 31 67  1  0  0  0  0
 31 70  1  0  0  0  0
 32 71  1  0  0  0  0
 32 76  2  0  0  0  0
 33 47  1  0  0  0  0
 33 72  1  0  0  0  0
 33 77  2  0  0  0  0
 34 61  1  0  0  0  0
 34 68  1  0  0  0  0
 34 78  2  0  0  0  0
 35 62  1  0  0  0  0
 35 73  1  0  0  0  0
 35 79  2  0  0  0  0
 36 69  1  0  0  0  0
 36 74  1  0  0  0  0
 36 80  2  0  0  0  0
 37 40  1  0  0  0  0
 38 47  1  0  0  0  0
 39 68  1  0  0  0  0
 40 42  1  0  0  0  0
 41 43  1  0  0  0  0
 41 44  1  0  0  0  0
 42 46  1  0  0  0  0
 43 48  1  0  0  0  0
 44 69  1  0  0  0  0
 45 48  1  0  0  0  0
 45 69  1  0  0  0  0
 46 72  1  0  0  0  0
 47 68  1  0  0  0  0
 48 67  1  0  0  0  0
 49 59  1  0  0  0  0
 50 62  1  0  0  0  0
 51 63  1  0  0  0  0
 52 64  1  0  0  0  0
 53 64  1  0  0  0  0
 54 64  1  0  0  0  0
 55 75  1  0  0  0  0
 56 74  1  0  0  0  0
 57 58  1  0  0  0  0
 57 60  1  0  0  0  0
 58 63  1  0  0  0  0
 59 74  1  0  0  0  0
 60 82  1  0  0  0  0
 61 64  1  0  0  0  0
 61 73  1  0  0  0  0
 62 75  1  0  0  0  0
 63 66  1  0  0  0  0
 65 67  1  0  0  0  0
M  CHG  1  75   1
M  ISO  4  36 100  60 101  74 100  82 101
M  END
> <Batch ID>
0052

> <Smiles>
CC[100N:0](Cc1ccn(C(C)CC[101CH2:1][101O:1]c2ccc3c(c2)CN(C(=O)C(NC(=O)C(C)NC)C(C)(C)C)C(C(=O)NC2CCCc4ccccc42)C3)c1)[100C:0](=O)N1CCCC(n2nc(-c3ccc(Oc4ccc(F)cc4F)cc3)c(C(N)=O)c2N)C1

> <Shape>
0.211

> <Color>
0.062

> <Negative vol penalty>
0.000

$$$$

  -OEChem-04052317363D

 85 93  0     1  0  0  0  0  0999 V2000
  -24.3746  -31.9972   20.0524 C   0  0  0  0  0  0  0  0  0  0  0  0
  -25.5959  -31.7359   19.4417 C   0  0  0  0  0  0  0  0  0  0  0  0
  -21.4847  -23.5648   20.8334 C   0  0  0  0  0  0  0  0  0  0  0  0
  -21.0535  -22.1542   22.7469 C   0  0  0  0  0  0  0  0  0  0  0  0
  -23.7778  -31.0254   20.8528 C   0  0  0  0  0  0  0  0  0  0  0  0
  -26.2151  -30.4985   19.6216 C   0  0  0  0  0  0  0  0  0  0  0  0
  -30.5233  -23.4026   18.9219 C   0  0  0  0  0  0  0  0  0  0  0  0
  -20.4405  -24.4058   21.2180 C   0  0  0  0  0  0  0  0  0  0  0  0
  -20.0093  -22.9952   23.1315 C   0  0  0  0  0  0  0  0  0  0  0  0
  -30.3209  -22.0873   19.3378 C   0  0  0  0  0  0  0  0  0  0  0  0
  -18.1211  -27.1220   21.8944 C   0  0  0  0  0  0  0  0  0  0  0  0
  -18.3485  -28.4977   21.8558 C   0  0  0  0  0  0  0  0  0  0  0  0
  -27.9837  -22.2740   18.7705 C   0  0  0  0  0  0  0  0  0  0  0  0
  -29.0054  -17.1704   19.6566 C   0  0  0  0  0  0  0  0  0  0  0  0
  -20.1544  -28.2436   23.4405 C   0  0  0  0  0  0  0  0  0  0  0  0
  -29.6667  -17.5573   21.7739 C   0  0  0  0  0  0  0  0  0  0  0  0
  -21.7912  -22.4390   21.5978 C   0  0  0  0  0  0  0  0  0  0  0  0
  -24.2224  -21.6666   21.5774 C   0  0  0  0  0  0  0  0  0  0  0  0
  -24.3967  -29.7803   21.0521 C   0  0  0  0  0  0  0  0  0  0  0  0
  -29.4534  -24.1683   18.4367 C   0  0  0  0  0  0  0  0  0  0  0  0
  -25.6172  -29.4959   20.4063 C   0  0  0  0  0  0  0  0  0  0  0  0
  -28.1757  -23.5979   18.3467 C   0  0  0  0  0  0  0  0  0  0  0  0
  -29.5697  -18.1351   20.5273 C   0  0  0  0  0  0  0  0  0  0  0  0
  -19.7028  -24.1210   22.3670 C   0  0  0  0  0  0  0  0  0  0  0  0
  -29.0504  -21.5238   19.2648 C   0  0  0  0  0  0  0  0  0  0  0  0
  -18.9103  -26.3072   22.7061 C   0  0  0  0  0  0  0  0  0  0  0  0
  -19.3651  -29.0585   22.6288 C   0  0  0  0  0  0  0  0  0  0  0  0
  -19.9270  -26.8680   23.4791 C   0  0  0  0  0  0  0  0  0  0  0  0
  -22.8695  -21.5696   21.2007 C   0  0  0  0  0  0  0  0  0  0  0  0
  -28.7745  -16.0325   20.3977 C   0  0  0  0  0  0  0  0  0  0  0  0
  -24.8326  -20.6140   20.9400 C   0  0  0  0  0  0  0  0  0  0  0  0
  -24.8697  -22.6227   22.4275 C   0  0  0  0  0  0  0  0  0  0  0  0
  -28.0182  -26.8521   19.3537 C   0  0  0  0  0  0  0  0  0  0  0  0
  -26.4024  -26.4809   16.5655 C   0  0  0  0  0  0  0  0  0  0  0  0
  -24.9018  -23.7586   14.7339 C   0  0  0  0  0  0  0  0  0  0  0  0
  -24.9349  -15.2470   19.4137 C   0  0  0  0  0  0  0  0  0  0  0  0
  -23.7028  -28.7620   21.9220 C   0  0  0  0  0  0  0  0  0  0  0  0
  -29.6936  -25.5769   17.9671 C   0  0  0  0  0  0  0  0  0  0  0  0
  -26.9978  -24.3710   17.8143 C   0  0  0  0  0  0  0  0  0  0  0  0
  -24.6381  -27.6601   22.4091 C   0  0  0  0  0  0  0  0  0  0  0  0
  -23.1145  -17.5000   17.3432 C   0  0  0  0  0  0  0  0  0  0  0  0
  -25.4272  -27.0930   21.2385 C   0  0  0  0  0  0  0  0  0  0  0  0
  -22.9948  -18.7646   18.1955 C   0  0  0  0  0  0  0  0  0  0  0  0
  -23.0188  -16.2352   18.1936 C   0  0  0  0  0  0  0  0  0  0  0  0
  -23.8424  -17.4421   20.1783 C   0  0  0  0  0  0  0  0  0  0  0  0
  -26.3240  -28.1684   20.6122 C   0  0  1  0  0  0  0  0  0  0  0  0
  -28.4300  -26.4317   17.9712 C   0  0  1  0  0  0  0  0  0  0  0  0
  -23.9890  -18.7439   19.3721 C   0  0  2  0  0  0  0  0  0  0  0  0
  -24.4797  -23.4830   12.2756 C   0  0  0  0  0  0  0  0  0  0  0  0
  -31.5042  -14.5203   22.5053 C   0  0  0  0  0  0  0  0  0  0  0  0
  -30.2785  -14.1422   24.6549 C   0  0  0  0  0  0  0  0  0  0  0  0
  -29.1336  -13.4789   20.1812 C   0  0  0  0  0  0  0  0  0  0  0  0
  -27.8645  -14.7302   18.4552 C   0  0  0  0  0  0  0  0  0  0  0  0
  -23.6400  -27.6060   17.2084 C   0  0  0  0  0  0  0  0  0  0  0  0
  -22.6750  -25.9936   15.5540 C   0  0  0  0  0  0  0  0  0  0  0  0
  -24.2859  -27.7409   14.7961 C   0  0  0  0  0  0  0  0  0  0  0  0
  -26.3843  -21.1986   14.6484 C   0  0  0  0  0  0  0  0  0  0  0  0
  -29.9859  -19.5292   20.1604 C   0  0  0  0  0  0  0  0  0  1  0  0
  -29.1129  -15.3467   22.7870 C   0  0  0  0  0  0  0  0  0  0  0  0
  -26.8555  -14.3899   20.7312 C   0  0  0  0  0  0  0  0  0  0  0  0
  -25.1302  -25.7812   16.1521 C   0  0  1  0  0  0  0  0  0  0  0  0
  -25.4037  -23.1503   13.4368 C   0  0  2  0  0  0  0  0  0  0  0  0
  -30.4675  -15.0953   23.4730 C   0  0  0  0  0  0  0  0  0  0  0  0
  -28.2022  -14.7336   19.9871 C   0  0  0  0  0  0  0  0  0  0  0  0
  -23.9485  -26.7711   15.9495 C   0  0  0  0  0  0  0  0  0  0  0  0
  -22.6335  -20.5370   20.3870 N   0  0  0  0  0  0  0  0  0  0  0  0
  -29.1800  -16.2793   21.6833 N   0  0  0  0  0  0  0  0  0  0  0  0
  -23.8465  -19.9756   20.2470 N   0  0  0  0  0  0  0  0  0  0  0  0
  -27.2822  -25.7466   17.3735 N   0  0  0  0  0  0  0  0  0  0  0  0
  -23.9887  -16.2778   19.2906 N   0  0  0  0  0  0  0  0  0  0  0  0
  -26.1111  -20.1816   20.9103 N   0  0  0  0  0  0  0  0  0  0  0  0
  -24.0943  -23.6394   23.0014 N   0  0  0  0  0  0  0  0  0  0  0  0
  -26.8929  -27.6534   19.3863 N   0  0  0  0  0  0  0  0  0  0  0  0
  -25.4622  -24.9965   14.9679 N   0  0  0  0  0  0  0  0  0  0  0  0
  -25.8211  -15.3677   20.4771 N   0  0  0  0  0  0  0  0  0  0  0  0
  -25.4894  -21.6675   13.5592 N   0  3  0  0  0  0  0  0  0  0  0  0
  -26.1022  -22.5863   22.6579 O   0  0  0  0  0  0  0  0  0  0  0  0
  -28.6720  -26.4759   20.3195 O   0  0  0  0  0  0  0  0  0  0  0  0
  -26.6114  -27.6337   16.1797 O   0  0  0  0  0  0  0  0  0  0  0  0
  -24.0908  -23.1939   15.4646 O   0  0  0  0  0  0  0  0  0  0  0  0
  -24.9895  -14.2927   18.6306 O   0  0  0  0  0  0  0  0  0  0  0  0
  -18.6839  -24.9415   22.7427 O   0  0  0  0  0  0  0  0  0  0  0  0
  -28.8499  -20.2404   19.6706 O   0  0  0  0  0  0  0  0  0  1  0  0
  -19.5844  -30.3793   22.5905 F   0  0  0  0  0  0  0  0  0  0  0  0
  -20.6892  -26.0901   24.2599 F   0  0  0  0  0  0  0  0  0  0  0  0
  1  2  1  0  0  0  0
  1  5  2  0  0  0  0
  2  6  2  0  0  0  0
  3  8  2  0  0  0  0
  3 17  1  0  0  0  0
  4  9  1  0  0  0  0
  4 17  2  0  0  0  0
  5 19  1  0  0  0  0
  6 21  1  0  0  0  0
  7 10  2  0  0  0  0
  7 20  1  0  0  0  0
  8 24  1  0  0  0  0
  9 24  2  0  0  0  0
 10 25  1  0  0  0  0
 11 12  2  0  0  0  0
 11 26  1  0  0  0  0
 12 27  1  0  0  0  0
 13 22  1  0  0  0  0
 13 25  2  0  0  0  0
 14 23  1  0  0  0  0
 14 30  2  0  0  0  0
 15 27  2  0  0  0  0
 15 28  1  0  0  0  0
 16 23  2  0  0  0  0
 16 67  1  0  0  0  0
 17 29  1  0  0  0  0
 18 29  1  0  0  0  0
 18 31  2  0  0  0  0
 18 32  1  0  0  0  0
 19 21  2  0  0  0  0
 19 37  1  0  0  0  0
 20 22  2  0  0  0  0
 20 38  1  0  0  0  0
 21 46  1  0  0  0  0
 22 39  1  0  0  0  0
 23 58  1  0  0  0  0
 24 82  1  0  0  0  0
 25 83  1  0  0  0  0
 26 28  2  0  0  0  0
 26 82  1  0  0  0  0
 27 84  1  0  0  0  0
 28 85  1  0  0  0  0
 29 66  2  0  0  0  0
 30 64  1  0  0  0  0
 30 67  1  0  0  0  0
 31 68  1  0  0  0  0
 31 71  1  0  0  0  0
 32 72  1  0  0  0  0
 32 77  2  0  0  0  0
 33 47  1  0  0  0  0
 33 73  1  0  0  0  0
 33 78  2  0  0  0  0
 34 61  1  0  0  0  0
 34 69  1  0  0  0  0
 34 79  2  0  0  0  0
 35 62  1  0  0  0  0
 35 74  1  0  0  0  0
 35 80  2  0  0  0  0
 36 70  1  0  0  0  0
 36 75  1  0  0  0  0
 36 81  2  0  0  0  0
 37 40  1  0  0  0  0
 38 47  1  0  0  0  0
 39 69  1  0  0  0  0
 40 42  1  0  0  0  0
 41 43  1  0  0  0  0
 41 44  1  0  0  0  0
 42 46  1  0  0  0  0
 43 48  1  0  0  0  0
 44 70  1  0  0  0  0
 45 48  1  0  0  0  0
 45 70  1  0  0  0  0
 46 73  1  0  0  0  0
 47 69  1  0  0  0  0
 48 68  1  0  0  0  0
 49 62  1  0  0  0  0
 50 63  1  0  0  0  0
 51 63  1  0  0  0  0
 52 64  1  0  0  0  0
 53 64  1  0  0  0  0
 54 65  1  0  0  0  0
 55 65  1  0  0  0  0
 56 65  1  0  0  0  0
 57 76  1  0  0  0  0
 58 83  1  0  0  0  0
 59 63  1  0  0  0  0
 59 67  1  0  0  0  0
 60 64  1  0  0  0  0
 60 75  1  0  0  0  0
 61 65  1  0  0  0  0
 61 74  1  0  0  0  0
 62 76  1  0  0  0  0
 66 68  1  0  0  0  0
M  CHG  1  76   1
M  ISO  4  36 100  58 101  75 100  83 101
M  END
> <Batch ID>
0052

> <Smiles>
CNC(C)C(=O)NC(C(=O)N1Cc2cc([101O:1][101CH2:1]c3cc(C(C)(C)C[100NH:0][100C:0](=O)N4CCCC(n5nc(-c6ccc(Oc7ccc(F)cc7F)cc6)c(C(N)=O)c5N)C4)n(CC(C)C)c3)ccc2CC1C(=O)NC1CCCc2ccccc21)C(C)(C)C

> <Shape>
0.202

> <Color>
0.072

> <Negative vol penalty>
0.000

$$$$

  -OEChem-04052317363D

 85 93  0     1  0  0  0  0  0999 V2000
  -17.3985  -18.6909   23.1491 C   0  0  0  0  0  0  0  0  0  0  0  0
  -18.7804  -18.8507   23.1623 C   0  0  0  0  0  0  0  0  0  0  0  0
  -23.2858   -9.7990   19.9106 C   0  0  0  0  0  0  0  0  0  0  0  0
  -23.7270   -9.9403   22.2817 C   0  0  0  0  0  0  0  0  0  0  0  0
  -16.7435  -18.2029   24.2791 C   0  0  0  0  0  0  0  0  0  0  0  0
  -19.5081  -18.5238   24.3060 C   0  0  0  0  0  0  0  0  0  0  0  0
  -25.1489  -16.1494   24.5266 C   0  0  0  0  0  0  0  0  0  0  0  0
  -22.5558   -8.6283   20.1161 C   0  0  0  0  0  0  0  0  0  0  0  0
  -22.9969   -8.7697   22.4873 C   0  0  0  0  0  0  0  0  0  0  0  0
  -26.4018  -16.7256   24.7318 C   0  0  0  0  0  0  0  0  0  0  0  0
  -19.4678   -7.7760   21.1981 C   0  0  0  0  0  0  0  0  0  0  0  0
  -18.2412   -7.6539   20.5453 C   0  0  0  0  0  0  0  0  0  0  0  0
  -26.2701  -16.1633   27.0740 C   0  0  0  0  0  0  0  0  0  0  0  0
  -19.0427   -5.6784   19.4087 C   0  0  0  0  0  0  0  0  0  0  0  0
  -31.8655  -16.0742   26.9735 C   0  0  0  0  0  0  0  0  0  0  0  0
  -32.1014  -16.6796   24.8677 C   0  0  0  0  0  0  0  0  0  0  0  0
  -23.8714  -10.4550   20.9933 C   0  0  0  0  0  0  0  0  0  0  0  0
  -24.1376  -12.9842   20.7939 C   0  0  0  0  0  0  0  0  0  0  0  0
  -17.4646  -17.8607   25.4339 C   0  0  0  0  0  0  0  0  0  0  0  0
  -24.4413  -15.5846   25.5974 C   0  0  0  0  0  0  0  0  0  0  0  0
  -18.8620  -18.0321   25.4530 C   0  0  0  0  0  0  0  0  0  0  0  0
  -25.0096  -15.5782   26.8793 C   0  0  0  0  0  0  0  0  0  0  0  0
  -22.4113   -8.1137   21.4045 C   0  0  0  0  0  0  0  0  0  0  0  0
  -26.9613  -16.7352   26.0062 C   0  0  0  0  0  0  0  0  0  0  0  0
  -20.4819   -6.8494   20.9561 C   0  0  0  0  0  0  0  0  0  0  0  0
  -18.0286   -6.6051   19.6506 C   0  0  0  0  0  0  0  0  0  0  0  0
  -20.2694   -5.8005   20.0614 C   0  0  0  0  0  0  0  0  0  0  0  0
  -24.6261  -11.6640   20.7815 C   0  0  0  0  0  0  0  0  0  0  0  0
  -31.0567  -17.1421   26.6636 C   0  0  0  0  0  0  0  0  0  0  0  0
  -25.2420  -13.7613   20.5430 C   0  0  0  0  0  0  0  0  0  0  0  0
  -22.8048  -13.4651   21.0128 C   0  0  0  0  0  0  0  0  0  0  0  0
  -21.6555  -16.1795   27.0077 C   0  0  0  0  0  0  0  0  0  0  0  0
  -22.3550  -13.4744   28.6556 C   0  0  0  0  0  0  0  0  0  0  0  0
  -31.1110  -12.7857   21.3886 C   0  0  0  0  0  0  0  0  0  0  0  0
  -24.7347  -11.3097   29.7951 C   0  0  0  0  0  0  0  0  0  0  0  0
  -16.7075  -17.3817   26.6472 C   0  0  0  0  0  0  0  0  0  0  0  0
  -23.1026  -14.9431   25.3545 C   0  0  0  0  0  0  0  0  0  0  0  0
  -24.2997  -14.9668   28.0585 C   0  0  0  0  0  0  0  0  0  0  0  0
  -17.5934  -16.7050   27.6900 C   0  0  0  0  0  0  0  0  0  0  0  0
  -29.4721  -13.6657   18.3259 C   0  0  0  0  0  0  0  0  0  0  0  0
  -18.8491  -17.5334   27.9423 C   0  0  0  0  0  0  0  0  0  0  0  0
  -28.0033  -13.3453   18.5999 C   0  0  0  0  0  0  0  0  0  0  0  0
  -30.3992  -12.6749   19.0231 C   0  0  0  0  0  0  0  0  0  0  0  0
  -28.7034  -12.2426   20.7722 C   0  0  0  0  0  0  0  0  0  0  0  0
  -19.6889  -17.6650   26.6660 C   0  0  1  0  0  0  0  0  0  0  0  0
  -22.2451  -14.8550   26.6132 C   0  0  1  0  0  0  0  0  0  0  0  0
  -27.7335  -13.2379   20.1112 C   0  0  2  0  0  0  0  0  0  0  0  0
  -25.6875   -9.2586   30.8824 C   0  0  0  0  0  0  0  0  0  0  0  0
  -34.7431  -15.0020   26.4904 C   0  0  0  0  0  0  0  0  0  0  0  0
  -29.6532  -13.7160   23.1786 C   0  0  0  0  0  0  0  0  0  0  0  0
  -30.2558  -11.2646   23.1626 C   0  0  0  0  0  0  0  0  0  0  0  0
  -21.9173  -15.0718   31.2182 C   0  0  0  0  0  0  0  0  0  0  0  0
  -23.0990  -13.2541   32.4704 C   0  0  0  0  0  0  0  0  0  0  0  0
  -20.9760  -12.7551   31.2593 C   0  0  0  0  0  0  0  0  0  0  0  0
  -24.6399   -9.7817   27.2623 C   0  0  0  0  0  0  0  0  0  0  0  0
  -30.0960  -17.8788   27.5650 C   0  0  0  0  0  0  0  0  0  0  0  0
  -32.9446  -13.3315   25.8991 C   0  0  0  0  0  0  0  0  0  0  0  0
  -31.6749  -12.9671   25.1324 C   0  0  0  0  0  0  0  0  0  0  0  0
  -28.6971  -17.2723   27.5406 C   0  0  0  0  0  0  0  0  0  1  0  0
  -23.0914  -13.1629   29.9361 C   0  0  1  0  0  0  0  0  0  0  0  0
  -24.8210   -9.7947   29.7534 C   0  0  2  0  0  0  0  0  0  0  0  0
  -33.5048  -14.7446   25.6215 C   0  0  1  0  0  0  0  0  0  0  0  0
  -30.7215  -12.6809   22.8416 C   0  0  0  0  0  0  0  0  0  0  0  0
  -22.2837  -13.5743   31.1994 C   0  0  0  0  0  0  0  0  0  0  0  0
  -31.2080  -17.5139   25.3512 N   0  0  0  0  0  0  0  0  0  0  0  0
  -25.9386  -11.6020   20.5415 N   0  0  0  0  0  0  0  0  0  0  0  0
  -32.5283  -15.7889   25.8131 N   0  0  0  0  0  0  0  0  0  0  0  0
  -26.2842  -12.8931   20.4007 N   0  0  0  0  0  0  0  0  0  0  0  0
  -22.9905  -14.3575   27.7713 N   0  0  0  0  0  0  0  0  0  0  0  0
  -30.0962  -12.5851   20.4526 N   0  0  0  0  0  0  0  0  0  0  0  0
  -25.4136  -15.0957   20.4322 N   0  0  0  0  0  0  0  0  0  0  0  0
  -21.7890  -12.5308   21.2568 N   0  0  0  0  0  0  0  0  0  0  0  0
  -20.4327  -16.4476   26.4226 N   0  0  0  0  0  0  0  0  0  0  0  0
  -23.4289  -11.7447   29.8783 N   0  0  0  0  0  0  0  0  0  0  0  0
  -25.4051   -9.3446   28.4583 N   0  3  0  0  0  0  0  0  0  0  0  0
  -31.9233  -12.9710   23.6720 N   0  3  0  0  0  0  0  0  0  0  0  0
  -22.5200  -14.6862   20.9764 O   0  0  0  0  0  0  0  0  0  0  0  0
  -22.2641  -16.9039   27.7865 O   0  0  0  0  0  0  0  0  0  0  0  0
  -21.2597  -12.9479   28.4445 O   0  0  0  0  0  0  0  0  0  0  0  0
  -32.2821  -13.0413   21.0962 O   0  0  0  0  0  0  0  0  0  0  0  0
  -25.7266  -12.0346   29.7612 O   0  0  0  0  0  0  0  0  0  0  0  0
  -21.6989   -6.9715   21.6055 O   0  0  0  0  0  0  0  0  0  0  0  0
  -28.1838  -17.2975   26.2093 O   0  0  0  0  0  0  0  0  0  1  0  0
  -16.8501   -6.4870   19.0250 F   0  0  0  0  0  0  0  0  0  0  0  0
  -21.2395   -4.9065   19.8258 F   0  0  0  0  0  0  0  0  0  0  0  0
  1  2  1  0  0  0  0
  1  5  2  0  0  0  0
  2  6  2  0  0  0  0
  3  8  2  0  0  0  0
  3 17  1  0  0  0  0
  4  9  1  0  0  0  0
  4 17  2  0  0  0  0
  5 19  1  0  0  0  0
  6 21  1  0  0  0  0
  7 10  2  0  0  0  0
  7 20  1  0  0  0  0
  8 23  1  0  0  0  0
  9 23  2  0  0  0  0
 10 24  1  0  0  0  0
 11 12  2  0  0  0  0
 11 25  1  0  0  0  0
 12 26  1  0  0  0  0
 13 22  1  0  0  0  0
 13 24  2  0  0  0  0
 14 26  2  0  0  0  0
 14 27  1  0  0  0  0
 15 29  2  0  0  0  0
 15 67  1  0  0  0  0
 16 65  2  0  0  0  0
 16 67  1  0  0  0  0
 17 28  1  0  0  0  0
 18 28  1  0  0  0  0
 18 30  2  0  0  0  0
 18 31  1  0  0  0  0
 19 21  2  0  0  0  0
 19 36  1  0  0  0  0
 20 22  2  0  0  0  0
 20 37  1  0  0  0  0
 21 45  1  0  0  0  0
 22 38  1  0  0  0  0
 23 82  1  0  0  0  0
 24 83  1  0  0  0  0
 25 27  2  0  0  0  0
 25 82  1  0  0  0  0
 26 84  1  0  0  0  0
 27 85  1  0  0  0  0
 28 66  2  0  0  0  0
 29 56  1  0  0  0  0
 29 65  1  0  0  0  0
 30 68  1  0  0  0  0
 30 71  1  0  0  0  0
 31 72  1  0  0  0  0
 31 77  2  0  0  0  0
 32 46  1  0  0  0  0
 32 73  1  0  0  0  0
 32 78  2  0  0  0  0
 33 60  1  0  0  0  0
 33 69  1  0  0  0  0
 33 79  2  0  0  0  0
 34 63  1  0  0  0  0
 34 70  1  0  0  0  0
 34 80  2  0  0  0  0
 35 61  1  0  0  0  0
 35 74  1  0  0  0  0
 35 81  2  0  0  0  0
 36 39  1  0  0  0  0
 37 46  1  0  0  0  0
 38 69  1  0  0  0  0
 39 41  1  0  0  0  0
 40 42  1  0  0  0  0
 40 43  1  0  0  0  0
 41 45  1  0  0  0  0
 42 47  1  0  0  0  0
 43 70  1  0  0  0  0
 44 47  1  0  0  0  0
 44 70  1  0  0  0  0
 45 73  1  0  0  0  0
 46 69  1  0  0  0  0
 47 68  1  0  0  0  0
 48 61  1  0  0  0  0
 49 62  1  0  0  0  0
 50 63  1  0  0  0  0
 51 63  1  0  0  0  0
 52 64  1  0  0  0  0
 53 64  1  0  0  0  0
 54 64  1  0  0  0  0
 55 75  1  0  0  0  0
 56 59  1  0  0  0  0
 57 58  1  0  0  0  0
 57 62  1  0  0  0  0
 58 76  1  0  0  0  0
 59 83  1  0  0  0  0
 60 64  1  0  0  0  0
 60 74  1  0  0  0  0
 61 75  1  0  0  0  0
 62 67  1  0  0  0  0
 63 76  1  0  0  0  0
 66 68  1  0  0  0  0
M  CHG  2  75   1  76   1
M  ISO  4  34 100  59 101  63 100  83 101
M  END
> <Batch ID>
0052

> <Smiles>
CNC(C)C(=O)NC(C(=O)N1Cc2cc([101O:1][101CH2:1]Cc3cn(C(C)CCN[100C:0](C)(C)[100C:0](=O)N4CCCC(n5nc(-c6ccc(Oc7ccc(F)cc7F)cc6)c(C(N)=O)c5N)C4)cn3)ccc2CC1C(=O)NC1CCCc2ccccc21)C(C)(C)C

> <Shape>
0.118

> <Color>
0.167

> <Negative vol penalty>
0.000

$$$$

  -OEChem-04052317363D

 85 93  0     1  0  0  0  0  0999 V2000
  -18.2367  -27.0643   22.9806 C   0  0  0  0  0  0  0  0  0  0  0  0
  -18.9603  -26.4977   21.9362 C   0  0  0  0  0  0  0  0  0  0  0  0
  -25.7719  -13.8406   21.1762 C   0  0  0  0  0  0  0  0  0  0  0  0
  -26.0506  -13.8962   18.7770 C   0  0  0  0  0  0  0  0  0  0  0  0
  -18.7372  -28.1813   23.6484 C   0  0  0  0  0  0  0  0  0  0  0  0
  -20.1843  -27.0484   21.5583 C   0  0  0  0  0  0  0  0  0  0  0  0
  -23.7488  -23.5303   20.8087 C   0  0  0  0  0  0  0  0  0  0  0  0
  -24.7357  -12.9176   21.0345 C   0  0  0  0  0  0  0  0  0  0  0  0
  -25.0144  -12.9732   18.6353 C   0  0  0  0  0  0  0  0  0  0  0  0
  -23.7038  -22.8241   19.6074 C   0  0  0  0  0  0  0  0  0  0  0  0
  -24.4155   -9.5994   20.4692 C   0  0  0  0  0  0  0  0  0  0  0  0
  -24.4103   -8.4948   21.3209 C   0  0  0  0  0  0  0  0  0  0  0  0
  -25.4395  -24.2423   18.7156 C   0  0  0  0  0  0  0  0  0  0  0  0
  -22.2536   -9.1660   22.1783 C   0  0  0  0  0  0  0  0  0  0  0  0
  -25.2203  -21.5848   13.9865 C   0  0  0  0  0  0  0  0  0  0  0  0
  -24.5821  -19.7728   15.0662 C   0  0  0  0  0  0  0  0  0  0  0  0
  -26.4293  -14.3299   20.0475 C   0  0  0  0  0  0  0  0  0  0  0  0
  -28.8710  -15.0058   20.3458 C   0  0  0  0  0  0  0  0  0  0  0  0
  -19.9725  -28.7401   23.2848 C   0  0  0  0  0  0  0  0  0  0  0  0
  -24.6334  -24.6065   20.9689 C   0  0  0  0  0  0  0  0  0  0  0  0
  -20.7012  -28.1747   22.2209 C   0  0  0  0  0  0  0  0  0  0  0  0
  -25.4956  -24.9589   19.9208 C   0  0  0  0  0  0  0  0  0  0  0  0
  -24.3570  -12.4839   19.7641 C   0  0  0  0  0  0  0  0  0  0  0  0
  -24.5472  -23.1819   18.5596 C   0  0  0  0  0  0  0  0  0  0  0  0
  -23.3398  -10.4874   20.4721 C   0  0  0  0  0  0  0  0  0  0  0  0
  -23.3294   -8.2780   22.1754 C   0  0  0  0  0  0  0  0  0  0  0  0
  -22.2588  -10.2706   21.3266 C   0  0  0  0  0  0  0  0  0  0  0  0
  -27.4994  -15.2837   20.1932 C   0  0  0  0  0  0  0  0  0  0  0  0
  -26.0423  -20.5182   13.7087 C   0  0  0  0  0  0  0  0  0  0  0  0
  -29.4630  -16.2414   20.4424 C   0  0  0  0  0  0  0  0  0  0  0  0
  -29.5493  -13.7437   20.3958 C   0  0  0  0  0  0  0  0  0  0  0  0
  -24.3024  -27.7174   21.5318 C   0  0  0  0  0  0  0  0  0  0  0  0
  -27.5375  -27.6251   21.7512 C   0  0  0  0  0  0  0  0  0  0  0  0
  -30.4537  -26.0563   20.9260 C   0  0  0  0  0  0  0  0  0  0  0  0
  -28.9764  -21.6081   18.3265 C   0  0  0  0  0  0  0  0  0  0  0  0
  -20.4502  -29.9762   24.0049 C   0  0  0  0  0  0  0  0  0  0  0  0
  -24.6885  -25.3411   22.2803 C   0  0  0  0  0  0  0  0  0  0  0  0
  -26.4777  -26.0936   20.0493 C   0  0  0  0  0  0  0  0  0  0  0  0
  -21.9321  -30.2724   23.7891 C   0  0  0  0  0  0  0  0  0  0  0  0
  -27.8860  -20.7786   21.6128 C   0  0  0  0  0  0  0  0  0  0  0  0
  -22.2909  -30.1521   22.3114 C   0  0  0  0  0  0  0  0  0  0  0  0
  -27.8027  -19.2513   21.5959 C   0  0  0  0  0  0  0  0  0  0  0  0
  -27.4636  -21.3817   20.2750 C   0  0  0  0  0  0  0  0  0  0  0  0
  -28.0940  -19.3181   19.0841 C   0  0  0  0  0  0  0  0  0  0  0  0
  -22.0445  -28.7283   21.7980 C   0  0  1  0  0  0  0  0  0  0  0  0
  -25.2666  -26.7472   22.1537 C   0  0  1  0  0  0  0  0  0  0  0  0
  -28.5638  -18.6614   20.3934 C   0  0  2  0  0  0  0  0  0  0  0  0
  -32.9394  -26.2370   21.2200 C   0  0  0  0  0  0  0  0  0  0  0  0
  -21.7896  -21.2935   15.0582 C   0  0  0  0  0  0  0  0  0  0  0  0
  -27.6167  -29.8670   19.6830 C   0  0  0  0  0  0  0  0  0  0  0  0
  -30.0398  -29.3523   19.3203 C   0  0  0  0  0  0  0  0  0  0  0  0
  -29.2511  -30.1200   21.5589 C   0  0  0  0  0  0  0  0  0  0  0  0
  -30.5948  -23.4504   22.3219 C   0  0  0  0  0  0  0  0  0  0  0  0
  -29.1994  -21.7774   12.0581 C   0  0  0  0  0  0  0  0  0  0  0  0
  -27.2166  -20.4802   12.8240 C   0  0  0  0  0  0  0  0  0  0  0  0
  -29.7151  -22.1012   15.1275 C   0  0  0  0  0  0  0  0  0  0  0  0
  -30.4956  -21.6718   16.3651 C   0  0  0  0  0  0  0  0  0  0  0  0
  -29.1004  -20.9166   14.3929 C   0  0  0  0  0  0  0  0  0  0  0  0
  -23.2528  -21.9194   17.0148 C   0  0  0  0  0  0  0  0  0  1  0  0
  -28.6800  -27.7844   20.7775 C   0  0  1  0  0  0  0  0  0  0  0  0
  -31.6493  -25.6455   21.7665 C   0  0  2  0  0  0  0  0  0  0  0  0
  -23.1430  -21.8687   15.4848 C   0  0  1  0  0  0  0  0  0  0  0  0
  -28.8772  -29.2608   20.3315 C   0  0  0  0  0  0  0  0  0  0  0  0
  -25.6395  -19.3931   14.3836 N   0  0  0  0  0  0  0  0  0  0  0  0
  -27.2355  -16.5931   20.1924 N   0  0  0  0  0  0  0  0  0  0  0  0
  -24.2896  -21.0918   14.8571 N   0  0  0  0  0  0  0  0  0  0  0  0
  -28.4494  -17.1490   20.3458 N   0  0  0  0  0  0  0  0  0  0  0  0
  -26.4893  -26.7853   21.3489 N   0  0  0  0  0  0  0  0  0  0  0  0
  -28.2238  -20.7808   19.1764 N   0  0  0  0  0  0  0  0  0  0  0  0
  -30.7464  -16.6293   20.5997 N   0  0  0  0  0  0  0  0  0  0  0  0
  -28.7892  -12.5717   20.2811 N   0  0  0  0  0  0  0  0  0  0  0  0
  -23.1116  -27.8469   22.2208 N   0  0  0  0  0  0  0  0  0  0  0  0
  -29.8490  -27.1930   21.4195 N   0  0  0  0  0  0  0  0  0  0  0  0
  -29.6722  -20.9573   17.3150 N   0  0  0  0  0  0  0  0  0  0  0  0
  -31.7838  -24.1614   21.7853 N   0  3  0  0  0  0  0  0  0  0  0  0
  -28.3102  -21.4240   13.2183 N   0  3  1  0  0  0  0  0  0  0  0  0
  -30.7906  -13.6573   20.5544 O   0  0  0  0  0  0  0  0  0  0  0  0
  -24.6161  -28.3060   20.5038 O   0  0  0  0  0  0  0  0  0  0  0  0
  -27.5769  -28.2182   22.8321 O   0  0  0  0  0  0  0  0  0  0  0  0
  -30.0947  -25.4335   19.9292 O   0  0  0  0  0  0  0  0  0  0  0  0
  -29.0289  -22.8351   18.4626 O   0  0  0  0  0  0  0  0  0  0  0  0
  -23.3461  -11.5831   19.6254 O   0  0  0  0  0  0  0  0  0  0  0  0
  -24.5048  -22.4947   17.3858 O   0  0  0  0  0  0  0  0  0  1  0  0
  -23.3238   -7.2164   22.9922 F   0  0  0  0  0  0  0  0  0  0  0  0
  -21.2220  -11.1196   21.3330 F   0  0  0  0  0  0  0  0  0  0  0  0
  1  2  1  0  0  0  0
  1  5  2  0  0  0  0
  2  6  2  0  0  0  0
  3  8  2  0  0  0  0
  3 17  1  0  0  0  0
  4  9  1  0  0  0  0
  4 17  2  0  0  0  0
  5 19  1  0  0  0  0
  6 21  1  0  0  0  0
  7 10  2  0  0  0  0
  7 20  1  0  0  0  0
  8 23  1  0  0  0  0
  9 23  2  0  0  0  0
 10 24  1  0  0  0  0
 11 12  2  0  0  0  0
 11 25  1  0  0  0  0
 12 26  1  0  0  0  0
 13 22  1  0  0  0  0
 13 24  2  0  0  0  0
 14 26  2  0  0  0  0
 14 27  1  0  0  0  0
 15 29  2  0  0  0  0
 15 66  1  0  0  0  0
 16 64  2  0  0  0  0
 16 66  1  0  0  0  0
 17 28  1  0  0  0  0
 18 28  1  0  0  0  0
 18 30  2  0  0  0  0
 18 31  1  0  0  0  0
 19 21  2  0  0  0  0
 19 36  1  0  0  0  0
 20 22  2  0  0  0  0
 20 37  1  0  0  0  0
 21 45  1  0  0  0  0
 22 38  1  0  0  0  0
 23 82  1  0  0  0  0
 24 83  1  0  0  0  0
 25 27  2  0  0  0  0
 25 82  1  0  0  0  0
 26 84  1  0  0  0  0
 27 85  1  0  0  0  0
 28 65  2  0  0  0  0
 29 55  1  0  0  0  0
 29 64  1  0  0  0  0
 30 67  1  0  0  0  0
 30 70  1  0  0  0  0
 31 71  1  0  0  0  0
 31 77  2  0  0  0  0
 32 46  1  0  0  0  0
 32 72  1  0  0  0  0
 32 78  2  0  0  0  0
 33 60  1  0  0  0  0
 33 68  1  0  0  0  0
 33 79  2  0  0  0  0
 34 61  1  0  0  0  0
 34 73  1  0  0  0  0
 34 80  2  0  0  0  0
 35 69  1  0  0  0  0
 35 74  1  0  0  0  0
 35 81  2  0  0  0  0
 36 39  1  0  0  0  0
 37 46  1  0  0  0  0
 38 68  1  0  0  0  0
 39 41  1  0  0  0  0
 40 42  1  0  0  0  0
 40 43  1  0  0  0  0
 41 45  1  0  0  0  0
 42 47  1  0  0  0  0
 43 69  1  0  0  0  0
 44 47  1  0  0  0  0
 44 69  1  0  0  0  0
 45 72  1  0  0  0  0
 46 68  1  0  0  0  0
 47 67  1  0  0  0  0
 48 61  1  0  0  0  0
 49 62  1  0  0  0  0
 50 63  1  0  0  0  0
 51 63  1  0  0  0  0
 52 63  1  0  0  0  0
 53 75  1  0  0  0  0
 54 76  1  0  0  0  0
 55 76  1  0  0  0  0
 56 57  1  0  0  0  0
 56 58  1  0  0  0  0
 57 74  1  0  0  0  0
 58 76  1  0  0  0  0
 59 62  1  0  0  0  0
 59 83  1  0  0  0  0
 60 63  1  0  0  0  0
 60 73  1  0  0  0  0
 61 75  1  0  0  0  0
 62 66  1  0  0  0  0
 65 67  1  0  0  0  0
M  CHG  2  75   1  76   1
M  ISO  4  35 100  59 101  74 100  83 101
M  END
> <Batch ID>
0052

> <Smiles>
CNC(C)C(=O)NC(C(=O)N1Cc2cc([101O:1][101CH2:1]C(C)n3cnc(CN(C)CCC[100NH:0][100C:0](=O)N4CCCC(n5nc(-c6ccc(Oc7ccc(F)cc7F)cc6)c(C(N)=O)c5N)C4)c3)ccc2CC1C(=O)NC1CCCc2ccccc21)C(C)(C)C

> <Shape>
0.251

> <Color>
0.071

> <Negative vol penalty>
0.000

$$$$
