
  -OEChem-04052317383D

 84 92  0     1  0  0  0  0  0999 V2000
  -27.0228  -38.0772   20.4936 C   0  0  0  0  0  0  0  0  0  0  0  0
  -27.5681  -36.9504   19.8867 C   0  0  0  0  0  0  0  0  0  0  0  0
  -25.1063   -9.6626   22.7064 C   0  0  0  0  0  0  0  0  0  0  0  0
  -26.1245  -11.6255   23.6799 C   0  0  0  0  0  0  0  0  0  0  0  0
  -26.3562  -37.9574   21.7123 C   0  0  0  0  0  0  0  0  0  0  0  0
  -27.4481  -35.7032   20.4987 C   0  0  0  0  0  0  0  0  0  0  0  0
  -26.7553  -28.7512   18.9158 C   0  0  0  0  0  0  0  0  0  0  0  0
  -25.3621   -8.9492   23.8773 C   0  0  0  0  0  0  0  0  0  0  0  0
  -26.3803  -10.9120   24.8509 C   0  0  0  0  0  0  0  0  0  0  0  0
  -27.3384  -27.5178   19.2031 C   0  0  0  0  0  0  0  0  0  0  0  0
  -24.0165   -8.6666   26.9664 C   0  0  0  0  0  0  0  0  0  0  0  0
  -22.9910   -7.8716   27.4782 C   0  0  0  0  0  0  0  0  0  0  0  0
  -26.0966  -27.4188   21.2689 C   0  0  0  0  0  0  0  0  0  0  0  0
  -24.3950   -5.9179   27.2568 C   0  0  0  0  0  0  0  0  0  0  0  0
  -25.4875  -11.0008   22.6076 C   0  0  0  0  0  0  0  0  0  0  0  0
  -23.9690  -11.9896   20.8121 C   0  0  0  0  0  0  0  0  0  0  0  0
  -26.2195  -36.7067   22.3348 C   0  0  0  0  0  0  0  0  0  0  0  0
  -25.8452  -29.3337   19.8095 C   0  0  0  0  0  0  0  0  0  0  0  0
  -26.7802  -35.5668   21.7275 C   0  0  0  0  0  0  0  0  0  0  0  0
  -25.5014  -28.6584   20.9893 C   0  0  0  0  0  0  0  0  0  0  0  0
  -25.9991   -9.5738   24.9496 C   0  0  0  0  0  0  0  0  0  0  0  0
  -27.0113  -26.8528   20.3812 C   0  0  0  0  0  0  0  0  0  0  0  0
  -25.2312   -8.0873   26.5997 C   0  0  0  0  0  0  0  0  0  0  0  0
  -23.1803   -6.4973   27.6234 C   0  0  0  0  0  0  0  0  0  0  0  0
  -25.4205   -6.7130   26.7449 C   0  0  0  0  0  0  0  0  0  0  0  0
  -25.2241  -11.7382   21.3981 C   0  0  0  0  0  0  0  0  0  0  0  0
  -24.2560  -12.7249   19.6881 C   0  0  0  0  0  0  0  0  0  0  0  0
  -30.4090  -19.8210   20.5843 C   0  0  0  0  0  0  0  0  0  0  0  0
  -28.9694  -18.4626   19.4000 C   0  0  0  0  0  0  0  0  0  0  0  0
  -22.6607  -11.5938   21.2450 C   0  0  0  0  0  0  0  0  0  0  0  0
  -25.7789  -32.0165   21.5130 C   0  0  0  0  0  0  0  0  0  0  0  0
  -28.9219  -16.2385   18.2750 C   0  0  0  0  0  0  0  0  0  0  0  0
  -22.7680  -31.0358   22.2161 C   0  0  0  0  0  0  0  0  0  0  0  0
  -20.5509  -28.4557   22.4891 C   0  0  0  0  0  0  0  0  0  0  0  0
  -25.5315  -36.6341   23.6750 C   0  0  0  0  0  0  0  0  0  0  0  0
  -25.2046  -30.6522   19.4722 C   0  0  0  0  0  0  0  0  0  0  0  0
  -24.5145  -29.2315   21.9722 C   0  0  0  0  0  0  0  0  0  0  0  0
  -25.1222  -35.2186   24.0737 C   0  0  0  0  0  0  0  0  0  0  0  0
  -27.6838  -13.4237   16.4354 C   0  0  0  0  0  0  0  0  0  0  0  0
  -26.2700  -34.2432   23.8331 C   0  0  0  0  0  0  0  0  0  0  0  0
  -26.8216  -12.6799   17.4544 C   0  0  0  0  0  0  0  0  0  0  0  0
  -28.9002  -14.0653   17.0955 C   0  0  0  0  0  0  0  0  0  0  0  0
  -27.7030  -14.2319   19.2544 C   0  0  0  0  0  0  0  0  0  0  0  0
  -26.6491  -34.1928   22.3481 C   0  0  1  0  0  0  0  0  0  0  0  0
  -24.6808  -31.3931   20.6986 C   0  0  1  0  0  0  0  0  0  0  0  0
  -26.4470  -13.5947   18.6340 C   0  0  2  0  0  0  0  0  0  0  0  0
  -29.3592  -20.9110   20.6587 C   0  0  1  0  0  0  0  0  0  0  0  0
  -31.7680  -20.0225   21.2041 C   0  0  0  0  0  0  0  0  0  0  0  0
  -18.1737  -27.9597   23.1219 C   0  0  0  0  0  0  0  0  0  0  0  0
  -23.4925  -31.3373   25.1646 C   0  0  0  0  0  0  0  0  0  0  0  0
  -21.4806  -29.9579   25.7283 C   0  0  0  0  0  0  0  0  0  0  0  0
  -21.2037  -32.1470   24.5648 C   0  0  0  0  0  0  0  0  0  0  0  0
  -19.9298  -27.4065   19.7924 C   0  0  0  0  0  0  0  0  0  0  0  0
  -28.4710  -17.0447   19.4670 C   0  0  0  0  0  0  0  0  0  0  0  0
  -29.7744  -22.1455   21.4450 C   0  0  0  0  0  0  0  0  0  0  0  0
  -28.9370  -24.3780   22.1889 C   0  0  0  0  0  0  0  0  0  0  0  0
  -27.7626  -25.3254   22.0421 C   0  0  0  0  0  0  0  0  0  1  0  0
  -22.1470  -30.1771   23.2913 C   0  0  1  0  0  0  0  0  0  0  0  0
  -19.1281  -28.2927   21.9857 C   0  0  2  0  0  0  0  0  0  0  0  0
  -22.1010  -30.8947   24.6699 C   0  0  0  0  0  0  0  0  0  0  0  0
  -26.2333  -12.2705   20.7038 N   0  0  0  0  0  0  0  0  0  0  0  0
  -30.1872  -18.6993   19.9750 N   0  0  0  0  0  0  0  0  0  0  0  0
  -29.1190  -21.3289   19.2728 N   0  0  0  0  0  0  0  0  0  0  0  0
  -28.4897  -20.6094   18.4679 N   0  0  0  0  0  0  0  0  0  0  0  0
  -25.6127  -12.8636   19.6698 N   0  0  0  0  0  0  0  0  0  0  0  0
  -23.9200  -30.5260   21.6006 N   0  0  0  0  0  0  0  0  0  0  0  0
  -28.5042  -14.9084   18.2249 N   0  0  0  0  0  0  0  0  0  0  0  0
  -28.2084  -19.2631   18.7419 N   0  3  0  0  0  0  0  0  0  0  0  0
  -23.4777  -13.2599   18.7235 N   0  0  0  0  0  0  0  0  0  0  0  0
  -21.9534  -12.4485   22.1016 N   0  0  0  0  0  0  0  0  0  0  0  0
  -25.6957  -33.3925   21.6100 N   0  0  0  0  0  0  0  0  0  0  0  0
  -20.8403  -29.7709   22.7853 N   0  0  0  0  0  0  0  0  0  0  0  0
  -19.0578  -27.1980   20.9769 N   0  3  0  0  0  0  0  0  0  0  0  0
  -28.6740  -23.1461   21.4031 N   0  3  0  0  0  0  0  0  0  0  0  0
  -22.1412  -10.5067   20.8962 O   0  0  0  0  0  0  0  0  0  0  0  0
  -26.6373  -31.3020   22.0173 O   0  0  0  0  0  0  0  0  0  0  0  0
  -29.6219  -16.7773   17.4137 O   0  0  0  0  0  0  0  0  0  0  0  0
  -22.2459  -32.1156   21.9278 O   0  0  0  0  0  0  0  0  0  0  0  0
  -21.3267  -27.5103   22.6112 O   0  0  0  0  0  0  0  0  0  0  0  0
  -26.2486   -8.8780   26.0924 O   0  0  0  0  0  0  0  0  0  0  0  0
  -27.5795  -25.6491   20.6644 O   0  0  0  0  0  0  0  0  0  1  0  0
  -22.1960   -5.7342   28.1164 F   0  0  0  0  0  0  0  0  0  0  0  0
  -26.5857   -6.1509   26.3955 F   0  0  0  0  0  0  0  0  0  0  0  0
  -28.2071  -20.4547   21.2328 F   0  0  0  0  0  0  0  0  0  0  0  0
  1  2  1  0  0  0  0
  1  5  2  0  0  0  0
  2  6  2  0  0  0  0
  3  8  2  0  0  0  0
  3 15  1  0  0  0  0
  4  9  1  0  0  0  0
  4 15  2  0  0  0  0
  5 17  1  0  0  0  0
  6 19  1  0  0  0  0
  7 10  2  0  0  0  0
  7 18  1  0  0  0  0
  8 21  1  0  0  0  0
  9 21  2  0  0  0  0
 10 22  1  0  0  0  0
 11 12  2  0  0  0  0
 11 23  1  0  0  0  0
 12 24  1  0  0  0  0
 13 20  1  0  0  0  0
 13 22  2  0  0  0  0
 14 24  2  0  0  0  0
 14 25  1  0  0  0  0
 15 26  1  0  0  0  0
 16 26  1  0  0  0  0
 16 27  2  0  0  0  0
 16 30  1  0  0  0  0
 17 19  2  0  0  0  0
 17 35  1  0  0  0  0
 18 20  2  0  0  0  0
 18 36  1  0  0  0  0
 19 44  1  0  0  0  0
 20 37  1  0  0  0  0
 21 80  1  0  0  0  0
 22 81  1  0  0  0  0
 23 25  2  0  0  0  0
 23 80  1  0  0  0  0
 24 82  1  0  0  0  0
 25 83  1  0  0  0  0
 26 61  2  0  0  0  0
 27 65  1  0  0  0  0
 27 69  1  0  0  0  0
 28 47  1  0  0  0  0
 28 48  1  0  0  0  0
 28 62  2  0  0  0  0
 29 54  1  0  0  0  0
 29 62  1  0  0  0  0
 29 68  2  0  0  0  0
 30 70  1  0  0  0  0
 30 75  2  0  0  0  0
 31 45  1  0  0  0  0
 31 71  1  0  0  0  0
 31 76  2  0  0  0  0
 32 54  1  0  0  0  0
 32 67  1  0  0  0  0
 32 77  2  0  0  0  0
 33 58  1  0  0  0  0
 33 66  1  0  0  0  0
 33 78  2  0  0  0  0
 34 59  1  0  0  0  0
 34 72  1  0  0  0  0
 34 79  2  0  0  0  0
 35 38  1  0  0  0  0
 36 45  1  0  0  0  0
 37 66  1  0  0  0  0
 38 40  1  0  0  0  0
 39 41  1  0  0  0  0
 39 42  1  0  0  0  0
 40 44  1  0  0  0  0
 41 46  1  0  0  0  0
 42 67  1  0  0  0  0
 43 46  1  0  0  0  0
 43 67  1  0  0  0  0
 44 71  1  0  0  0  0
 45 66  1  0  0  0  0
 46 65  1  0  0  0  0
 47 55  1  0  0  0  0
 47 63  1  0  0  0  0
 47 84  1  0  0  0  0
 49 59  1  0  0  0  0
 50 60  1  0  0  0  0
 51 60  1  0  0  0  0
 52 60  1  0  0  0  0
 53 73  1  0  0  0  0
 55 74  1  0  0  0  0
 56 57  1  0  0  0  0
 56 74  1  0  0  0  0
 57 81  1  0  0  0  0
 58 60  1  0  0  0  0
 58 72  1  0  0  0  0
 59 73  1  0  0  0  0
 61 65  1  0  0  0  0
 63 64  2  0  0  0  0
 64 68  1  0  0  0  0
M  CHG  3  68   1  73   1  74   1
M  ISO  4  32 100  54 100  57 101  81 101
M  END
> <Batch ID>
0053

> <Smiles>
CNC(C)C(=O)NC(C(=O)N1Cc2cc([101O:1][101CH2:1]CNCC3(F)N=NN=C([100CH2:0][100C:0](=O)N4CCCC(n5nc(-c6ccc(Oc7ccc(F)cc7F)cc6)c(C(N)=O)c5N)C4)N=C3C)ccc2CC1C(=O)NC1CCCc2ccccc21)C(C)(C)C

> <Shape>
0.270

> <Color>
0.095

> <Negative vol penalty>
0.000

$$$$

  -OEChem-04052317383D

 82 90  0     1  0  0  0  0  0999 V2000
  -29.5480  -10.7381   16.0628 C   0  0  0  0  0  0  0  0  0  0  0  0
  -28.5762  -11.6638   15.6966 C   0  0  0  0  0  0  0  0  0  0  0  0
  -25.2523  -30.5705   20.2261 C   0  0  0  0  0  0  0  0  0  0  0  0
  -24.0558  -28.9359   21.5428 C   0  0  0  0  0  0  0  0  0  0  0  0
  -30.0598  -10.7425   17.3597 C   0  0  0  0  0  0  0  0  0  0  0  0
  -28.1148  -12.5938   16.6275 C   0  0  0  0  0  0  0  0  0  0  0  0
  -26.3971  -18.3674   15.5224 C   0  0  0  0  0  0  0  0  0  0  0  0
  -25.0049  -31.5369   21.2010 C   0  0  0  0  0  0  0  0  0  0  0  0
  -23.8084  -29.9023   22.5177 C   0  0  0  0  0  0  0  0  0  0  0  0
  -25.1459  -18.9558   15.3435 C   0  0  0  0  0  0  0  0  0  0  0  0
  -26.2481  -32.4002   24.2246 C   0  0  0  0  0  0  0  0  0  0  0  0
  -27.3088  -33.2209   24.6077 C   0  0  0  0  0  0  0  0  0  0  0  0
  -25.1153  -19.5846   17.6722 C   0  0  0  0  0  0  0  0  0  0  0  0
  -26.0620  -35.1644   23.8969 C   0  0  0  0  0  0  0  0  0  0  0  0
  -20.1742  -20.4168   15.4388 C   0  0  0  0  0  0  0  0  0  0  0  0
  -24.7777  -29.2700   20.3970 C   0  0  0  0  0  0  0  0  0  0  0  0
  -26.1372  -27.4020   19.3152 C   0  0  0  0  0  0  0  0  0  0  0  0
  -29.6115  -11.6793   18.3042 C   0  0  0  0  0  0  0  0  0  0  0  0
  -27.0130  -18.3736   16.7822 C   0  0  0  0  0  0  0  0  0  0  0  0
  -28.6202  -12.6100   17.9386 C   0  0  0  0  0  0  0  0  0  0  0  0
  -26.3755  -18.9978   17.8639 C   0  0  0  0  0  0  0  0  0  0  0  0
  -24.2830  -31.2028   22.3468 C   0  0  0  0  0  0  0  0  0  0  0  0
  -24.5035  -19.5620   16.4191 C   0  0  0  0  0  0  0  0  0  0  0  0
  -25.0942  -32.9616   23.6776 C   0  0  0  0  0  0  0  0  0  0  0  0
  -27.2158  -34.6030   24.4439 C   0  0  0  0  0  0  0  0  0  0  0  0
  -25.0012  -34.3437   23.5138 C   0  0  0  0  0  0  0  0  0  0  0  0
  -25.0324  -28.2713   19.3900 C   0  0  0  0  0  0  0  0  0  0  0  0
  -21.3933  -20.7888   14.9465 C   0  0  0  0  0  0  0  0  0  0  0  0
  -25.9109  -26.6557   18.1846 C   0  0  0  0  0  0  0  0  0  0  0  0
  -19.9632  -22.4291   14.5406 C   0  0  0  0  0  0  0  0  0  0  0  0
  -27.2669  -27.2800   20.1896 C   0  0  0  0  0  0  0  0  0  0  0  0
  -27.9499  -16.1321   18.8320 C   0  0  0  0  0  0  0  0  0  0  0  0
  -29.1874  -18.6661   20.4351 C   0  0  0  0  0  0  0  0  0  0  0  0
  -29.1021  -22.0195   21.0627 C   0  0  0  0  0  0  0  0  0  0  0  0
  -20.9310  -25.1751   15.3804 C   0  0  0  0  0  0  0  0  0  0  0  0
  -30.1602  -11.6148   19.7076 C   0  0  0  0  0  0  0  0  0  0  0  0
  -28.3747  -17.7579   16.9526 C   0  0  0  0  0  0  0  0  0  0  0  0
  -27.0032  -19.0493   19.2320 C   0  0  0  0  0  0  0  0  0  0  0  0
  -29.8891  -12.8746   20.5260 C   0  0  0  0  0  0  0  0  0  0  0  0
  -23.7630  -26.8854   13.9136 C   0  0  0  0  0  0  0  0  0  0  0  0
  -28.4348  -13.3083   20.3725 C   0  0  0  0  0  0  0  0  0  0  0  0
  -24.5156  -27.3525   15.1609 C   0  0  0  0  0  0  0  0  0  0  0  0
  -22.2530  -26.9749   14.1133 C   0  0  0  0  0  0  0  0  0  0  0  0
  -22.4947  -26.7010   16.5505 C   0  0  0  0  0  0  0  0  0  0  0  0
  -28.1123  -13.6506   18.9129 C   0  0  1  0  0  0  0  0  0  0  0  0
  -28.6793  -17.3715   18.3966 C   0  0  1  0  0  0  0  0  0  0  0  0
  -24.0261  -26.6133   16.4203 C   0  0  2  0  0  0  0  0  0  0  0  0
  -18.8396  -23.6546   12.6439 C   0  0  0  0  0  0  0  0  0  0  0  0
  -30.2117  -23.7931   22.4485 C   0  0  0  0  0  0  0  0  0  0  0  0
  -17.6954  -21.4262   17.0447 C   0  0  0  0  0  0  0  0  0  0  0  0
  -17.1157  -20.3710   14.8183 C   0  0  0  0  0  0  0  0  0  0  0  0
  -27.6622  -17.6962   22.8933 C   0  0  0  0  0  0  0  0  0  0  0  0
  -28.0238  -19.9504   23.9210 C   0  0  0  0  0  0  0  0  0  0  0  0
  -29.9809  -18.5096   23.3582 C   0  0  0  0  0  0  0  0  0  0  0  0
  -30.0118  -23.4904   18.6611 C   0  0  0  0  0  0  0  0  0  0  0  0
  -22.7167  -20.0818   14.9382 C   0  0  0  0  0  0  0  0  0  1  0  0
  -19.4018  -23.7215   14.0743 C   0  0  2  0  0  0  0  0  0  0  0  0
  -28.6777  -19.6136   21.4941 C   0  0  1  0  0  0  0  0  0  0  0  0
  -30.2035  -23.0630   21.1145 C   0  0  2  0  0  0  0  0  0  0  0  0
  -17.9034  -21.4728   15.5296 C   0  0  0  0  0  0  0  0  0  0  0  0
  -28.5732  -18.9400   22.8914 C   0  0  0  0  0  0  0  0  0  0  0  0
  -24.1686  -28.0948   18.3867 N   0  0  0  0  0  0  0  0  0  0  0  0
  -19.3085  -21.4506   15.1743 N   0  0  0  0  0  0  0  0  0  0  0  0
  -24.7305  -27.1061   17.6708 N   0  0  0  0  0  0  0  0  0  0  0  0
  -21.2334  -22.0376   14.3962 N   0  3  0  0  0  0  0  0  0  0  0  0
  -28.3327  -18.4279   19.3496 N   0  0  0  0  0  0  0  0  0  0  0  0
  -21.8504  -26.2354   15.3179 N   0  0  0  0  0  0  0  0  0  0  0  0
  -26.6085  -25.6648   17.5897 N   0  0  0  0  0  0  0  0  0  0  0  0
  -27.3425  -28.1247   21.3054 N   0  0  0  0  0  0  0  0  0  0  0  0
  -28.6316  -14.9582   18.5738 N   0  0  0  0  0  0  0  0  0  0  0  0
  -29.5556  -20.7783   21.4564 N   0  0  0  0  0  0  0  0  0  0  0  0
  -20.3605  -24.7998   14.1703 N   0  0  0  0  0  0  0  0  0  0  0  0
  -30.0165  -24.0677   20.0299 N   0  3  0  0  0  0  0  0  0  0  0  0
  -28.1905  -26.4579   19.9783 O   0  0  0  0  0  0  0  0  0  0  0  0
  -26.8507  -16.2335   19.3642 O   0  0  0  0  0  0  0  0  0  0  0  0
  -30.3058  -18.1615   20.5628 O   0  0  0  0  0  0  0  0  0  0  0  0
  -27.9534  -22.2803   20.7120 O   0  0  0  0  0  0  0  0  0  0  0  0
  -20.6435  -24.6012   16.4364 O   0  0  0  0  0  0  0  0  0  0  0  0
  -24.0416  -32.1456   23.2984 O   0  0  0  0  0  0  0  0  0  0  0  0
  -23.2820  -20.1366   16.2473 O   0  0  0  0  0  0  0  0  0  1  0  0
  -28.2340  -35.3911   24.8133 F   0  0  0  0  0  0  0  0  0  0  0  0
  -23.8948  -34.8889   22.9899 F   0  0  0  0  0  0  0  0  0  0  0  0
  1  2  1  0  0  0  0
  1  5  2  0  0  0  0
  2  6  2  0  0  0  0
  3  8  2  0  0  0  0
  3 16  1  0  0  0  0
  4  9  1  0  0  0  0
  4 16  2  0  0  0  0
  5 18  1  0  0  0  0
  6 20  1  0  0  0  0
  7 10  2  0  0  0  0
  7 19  1  0  0  0  0
  8 22  1  0  0  0  0
  9 22  2  0  0  0  0
 10 23  1  0  0  0  0
 11 12  2  0  0  0  0
 11 24  1  0  0  0  0
 12 25  1  0  0  0  0
 13 21  1  0  0  0  0
 13 23  2  0  0  0  0
 14 25  2  0  0  0  0
 14 26  1  0  0  0  0
 15 28  2  0  0  0  0
 15 63  1  0  0  0  0
 16 27  1  0  0  0  0
 17 27  1  0  0  0  0
 17 29  2  0  0  0  0
 17 31  1  0  0  0  0
 18 20  2  0  0  0  0
 18 36  1  0  0  0  0
 19 21  2  0  0  0  0
 19 37  1  0  0  0  0
 20 45  1  0  0  0  0
 21 38  1  0  0  0  0
 22 79  1  0  0  0  0
 23 80  1  0  0  0  0
 24 26  2  0  0  0  0
 24 79  1  0  0  0  0
 25 81  1  0  0  0  0
 26 82  1  0  0  0  0
 27 62  2  0  0  0  0
 28 56  1  0  0  0  0
 28 65  1  0  0  0  0
 29 64  1  0  0  0  0
 29 68  1  0  0  0  0
 30 57  1  0  0  0  0
 30 63  1  0  0  0  0
 30 65  2  0  0  0  0
 31 69  1  0  0  0  0
 31 74  2  0  0  0  0
 32 46  1  0  0  0  0
 32 70  1  0  0  0  0
 32 75  2  0  0  0  0
 33 58  1  0  0  0  0
 33 66  1  0  0  0  0
 33 76  2  0  0  0  0
 34 59  1  0  0  0  0
 34 71  1  0  0  0  0
 34 77  2  0  0  0  0
 35 67  1  0  0  0  0
 35 72  1  0  0  0  0
 35 78  2  0  0  0  0
 36 39  1  0  0  0  0
 37 46  1  0  0  0  0
 38 66  1  0  0  0  0
 39 41  1  0  0  0  0
 40 42  1  0  0  0  0
 40 43  1  0  0  0  0
 41 45  1  0  0  0  0
 42 47  1  0  0  0  0
 43 67  1  0  0  0  0
 44 47  1  0  0  0  0
 44 67  1  0  0  0  0
 45 70  1  0  0  0  0
 46 66  1  0  0  0  0
 47 64  1  0  0  0  0
 48 57  1  0  0  0  0
 49 59  1  0  0  0  0
 50 60  1  0  0  0  0
 51 60  1  0  0  0  0
 52 61  1  0  0  0  0
 53 61  1  0  0  0  0
 54 61  1  0  0  0  0
 55 73  1  0  0  0  0
 56 80  1  0  0  0  0
 57 72  1  0  0  0  0
 58 61  1  0  0  0  0
 58 71  1  0  0  0  0
 59 73  1  0  0  0  0
 60 63  1  0  0  0  0
 62 64  1  0  0  0  0
M  CHG  2  65   1  73   1
M  ISO  4  35 100  56 101  72 100  80 101
M  END
> <Batch ID>
0053

> <Smiles>
CNC(C)C(=O)NC(C(=O)N1Cc2cc([101O:1][101CH2:1]c3cn(C(C)C)c(C(C)[100NH:0][100C:0](=O)N4CCCC(n5nc(-c6ccc(Oc7ccc(F)cc7F)cc6)c(C(N)=O)c5N)C4)n3)ccc2CC1C(=O)NC1CCCc2ccccc21)C(C)(C)C

> <Shape>
0.226

> <Color>
0.072

> <Negative vol penalty>
0.000

$$$$

  -OEChem-04052317383D

 82 90  0     1  0  0  0  0  0999 V2000
  -28.5465  -29.4367   25.0673 C   0  0  0  0  0  0  0  0  0  0  0  0
  -28.0439  -28.2142   25.5012 C   0  0  0  0  0  0  0  0  0  0  0  0
  -23.2348   -9.7559   19.9363 C   0  0  0  0  0  0  0  0  0  0  0  0
  -23.6967   -9.9168   22.3023 C   0  0  0  0  0  0  0  0  0  0  0  0
  -28.8466  -29.6268   23.7191 C   0  0  0  0  0  0  0  0  0  0  0  0
  -27.8401  -27.1813   24.5868 C   0  0  0  0  0  0  0  0  0  0  0  0
  -28.5428  -21.1814   25.5930 C   0  0  0  0  0  0  0  0  0  0  0  0
  -22.5015   -8.5904   20.1587 C   0  0  0  0  0  0  0  0  0  0  0  0
  -22.9634   -8.7513   22.5247 C   0  0  0  0  0  0  0  0  0  0  0  0
  -27.6336  -20.1678   25.8929 C   0  0  0  0  0  0  0  0  0  0  0  0
  -23.1354   -5.3171   20.7135 C   0  0  0  0  0  0  0  0  0  0  0  0
  -23.3529   -4.2413   19.8528 C   0  0  0  0  0  0  0  0  0  0  0  0
  -27.5288  -19.5787   23.5559 C   0  0  0  0  0  0  0  0  0  0  0  0
  -21.0284   -4.2962   19.1967 C   0  0  0  0  0  0  0  0  0  0  0  0
  -27.7001  -14.7075   25.6474 C   0  0  0  0  0  0  0  0  0  0  0  0
  -23.8324  -10.4191   21.0081 C   0  0  0  0  0  0  0  0  0  0  0  0
  -24.1079  -12.9453   20.7835 C   0  0  0  0  0  0  0  0  0  0  0  0
  -28.6554  -28.5927   22.7893 C   0  0  0  0  0  0  0  0  0  0  0  0
  -28.9441  -21.4087   24.2687 C   0  0  0  0  0  0  0  0  0  0  0  0
  -28.1366  -27.3583   23.2246 C   0  0  0  0  0  0  0  0  0  0  0  0
  -28.4451  -20.5942   23.2422 C   0  0  0  0  0  0  0  0  0  0  0  0
  -22.3658   -8.0881   21.4529 C   0  0  0  0  0  0  0  0  0  0  0  0
  -27.1243  -19.3681   24.8739 C   0  0  0  0  0  0  0  0  0  0  0  0
  -21.8643   -5.8824   20.8159 C   0  0  0  0  0  0  0  0  0  0  0  0
  -22.2995   -3.7308   19.0943 C   0  0  0  0  0  0  0  0  0  0  0  0
  -20.8108   -5.3720   20.0575 C   0  0  0  0  0  0  0  0  0  0  0  0
  -24.5905  -11.6228   20.7789 C   0  0  0  0  0  0  0  0  0  0  0  0
  -26.5890  -15.4791   25.4168 C   0  0  0  0  0  0  0  0  0  0  0  0
  -25.2134  -13.7152   20.5161 C   0  0  0  0  0  0  0  0  0  0  0  0
  -22.7790  -13.4340   21.0092 C   0  0  0  0  0  0  0  0  0  0  0  0
  -28.7043  -23.8428   22.2386 C   0  0  0  0  0  0  0  0  0  0  0  0
  -30.5666  -21.9583   20.3670 C   0  0  0  0  0  0  0  0  0  0  0  0
  -31.6451  -18.8171   19.5816 C   0  0  0  0  0  0  0  0  0  0  0  0
  -31.1213  -12.3007   21.3125 C   0  0  0  0  0  0  0  0  0  0  0  0
  -28.9497  -28.8608   21.3346 C   0  0  0  0  0  0  0  0  0  0  0  0
  -29.9459  -22.4888   23.9652 C   0  0  0  0  0  0  0  0  0  0  0  0
  -28.8596  -20.7841   21.8068 C   0  0  0  0  0  0  0  0  0  0  0  0
  -29.0577  -27.5930   20.4912 C   0  0  0  0  0  0  0  0  0  0  0  0
  -29.4328  -13.5800   18.2771 C   0  0  0  0  0  0  0  0  0  0  0  0
  -27.9012  -26.6471   20.7988 C   0  0  0  0  0  0  0  0  0  0  0  0
  -27.9640  -13.2648   18.5551 C   0  0  0  0  0  0  0  0  0  0  0  0
  -30.3663  -12.6005   18.9819 C   0  0  0  0  0  0  0  0  0  0  0  0
  -28.6647  -12.1804   20.7261 C   0  0  0  0  0  0  0  0  0  0  0  0
  -27.9251  -26.2056   22.2671 C   0  0  1  0  0  0  0  0  0  0  0  0
  -29.8913  -22.9645   22.5167 C   0  0  1  0  0  0  0  0  0  0  0  0
  -27.6987  -13.1769   20.0681 C   0  0  2  0  0  0  0  0  0  0  0  0
  -33.1374  -17.5896   17.9805 C   0  0  0  0  0  0  0  0  0  0  0  0
  -30.6066  -15.1158   23.4036 C   0  0  0  0  0  0  0  0  0  0  0  0
  -28.4788  -22.2943   18.1674 C   0  0  0  0  0  0  0  0  0  0  0  0
  -29.5087  -20.3407   16.9878 C   0  0  0  0  0  0  0  0  0  0  0  0
  -30.8502  -22.4068   17.3809 C   0  0  0  0  0  0  0  0  0  0  0  0
  -32.0506  -12.6658   23.5670 C   0  0  0  0  0  0  0  0  0  0  0  0
  -33.3446  -17.7866   21.7745 C   0  0  0  0  0  0  0  0  0  0  0  0
  -25.8112  -16.3383   26.3839 C   0  0  0  0  0  0  0  0  0  0  0  0
  -29.0403  -13.2638   24.0838 C   0  0  0  0  0  0  0  0  0  0  0  0
  -26.3429  -17.7659   26.4482 C   0  0  0  0  0  0  0  0  0  1  0  0
  -30.3077  -20.8915   19.3307 C   0  0  1  0  0  0  0  0  0  0  0  0
  -33.0369  -18.2606   19.3415 C   0  0  2  0  0  0  0  0  0  0  0  0
  -29.9480  -13.8098   22.9704 C   0  0  2  0  0  0  0  0  0  0  0  0
  -29.7769  -21.4807   17.9934 C   0  0  0  0  0  0  0  0  0  0  0  0
  -25.9006  -11.5529   20.5284 N   0  0  0  0  0  0  0  0  0  0  0  0
  -26.2283  -15.3838   24.1014 N   0  0  0  0  0  0  0  0  0  0  0  0
  -27.0880  -14.5684   23.5005 N   0  0  0  0  0  0  0  0  0  0  0  0
  -27.9695  -14.1638   24.4292 N   0  0  0  0  0  0  0  0  0  0  0  0
  -26.2506  -12.8411   20.3729 N   0  0  0  0  0  0  0  0  0  0  0  0
  -29.8367  -21.8573   21.5599 N   0  0  0  0  0  0  0  0  0  0  0  0
  -30.0641  -12.5040   20.4104 N   0  0  0  0  0  0  0  0  0  0  0  0
  -25.3898  -15.0478   20.3918 N   0  0  0  0  0  0  0  0  0  0  0  0
  -21.7613  -12.5064   21.2702 N   0  0  0  0  0  0  0  0  0  0  0  0
  -28.9313  -25.1858   22.4719 N   0  0  0  0  0  0  0  0  0  0  0  0
  -31.5507  -20.1388   19.2004 N   0  0  0  0  0  0  0  0  0  0  0  0
  -30.9765  -12.8402   22.5996 N   0  0  0  0  0  0  0  0  0  0  0  0
  -33.3806  -17.2561   20.3873 N   0  3  0  0  0  0  0  0  0  0  0  0
  -22.4991  -14.6560   20.9641 O   0  0  0  0  0  0  0  0  0  0  0  0
  -27.6604  -23.3396   21.8404 O   0  0  0  0  0  0  0  0  0  0  0  0
  -31.3914  -22.8443   20.1299 O   0  0  0  0  0  0  0  0  0  0  0  0
  -30.7319  -18.1453   20.0562 O   0  0  0  0  0  0  0  0  0  0  0  0
  -32.1408  -11.6809   20.9831 O   0  0  0  0  0  0  0  0  0  0  0  0
  -21.6501   -6.9510   21.6703 O   0  0  0  0  0  0  0  0  0  0  0  0
  -26.2363  -18.3785   25.1638 O   0  0  0  0  0  0  0  0  0  1  0  0
  -22.5089   -2.6987   18.2667 F   0  0  0  0  0  0  0  0  0  0  0  0
  -19.5878   -5.9117   20.1507 F   0  0  0  0  0  0  0  0  0  0  0  0
  1  2  1  0  0  0  0
  1  5  2  0  0  0  0
  2  6  2  0  0  0  0
  3  8  2  0  0  0  0
  3 16  1  0  0  0  0
  4  9  1  0  0  0  0
  4 16  2  0  0  0  0
  5 18  1  0  0  0  0
  6 20  1  0  0  0  0
  7 10  2  0  0  0  0
  7 19  1  0  0  0  0
  8 22  1  0  0  0  0
  9 22  2  0  0  0  0
 10 23  1  0  0  0  0
 11 12  2  0  0  0  0
 11 24  1  0  0  0  0
 12 25  1  0  0  0  0
 13 21  1  0  0  0  0
 13 23  2  0  0  0  0
 14 25  2  0  0  0  0
 14 26  1  0  0  0  0
 15 28  2  0  0  0  0
 15 64  1  0  0  0  0
 16 27  1  0  0  0  0
 17 27  1  0  0  0  0
 17 29  2  0  0  0  0
 17 30  1  0  0  0  0
 18 20  2  0  0  0  0
 18 35  1  0  0  0  0
 19 21  2  0  0  0  0
 19 36  1  0  0  0  0
 20 44  1  0  0  0  0
 21 37  1  0  0  0  0
 22 79  1  0  0  0  0
 23 80  1  0  0  0  0
 24 26  2  0  0  0  0
 24 79  1  0  0  0  0
 25 81  1  0  0  0  0
 26 82  1  0  0  0  0
 27 61  2  0  0  0  0
 28 54  1  0  0  0  0
 28 62  1  0  0  0  0
 29 65  1  0  0  0  0
 29 68  1  0  0  0  0
 30 69  1  0  0  0  0
 30 74  2  0  0  0  0
 31 45  1  0  0  0  0
 31 70  1  0  0  0  0
 31 75  2  0  0  0  0
 32 57  1  0  0  0  0
 32 66  1  0  0  0  0
 32 76  2  0  0  0  0
 33 58  1  0  0  0  0
 33 71  1  0  0  0  0
 33 77  2  0  0  0  0
 34 67  1  0  0  0  0
 34 72  1  0  0  0  0
 34 78  2  0  0  0  0
 35 38  1  0  0  0  0
 36 45  1  0  0  0  0
 37 66  1  0  0  0  0
 38 40  1  0  0  0  0
 39 41  1  0  0  0  0
 39 42  1  0  0  0  0
 40 44  1  0  0  0  0
 41 46  1  0  0  0  0
 42 67  1  0  0  0  0
 43 46  1  0  0  0  0
 43 67  1  0  0  0  0
 44 70  1  0  0  0  0
 45 66  1  0  0  0  0
 46 65  1  0  0  0  0
 47 58  1  0  0  0  0
 48 59  1  0  0  0  0
 49 60  1  0  0  0  0
 50 60  1  0  0  0  0
 51 60  1  0  0  0  0
 52 72  1  0  0  0  0
 53 73  1  0  0  0  0
 54 56  1  0  0  0  0
 55 59  1  0  0  0  0
 55 64  1  0  0  0  0
 56 80  1  0  0  0  0
 57 60  1  0  0  0  0
 57 71  1  0  0  0  0
 58 73  1  0  0  0  0
 59 72  1  0  0  0  0
 61 65  1  0  0  0  0
 62 63  2  0  0  0  0
 63 64  1  0  0  0  0
M  CHG  1  73   1
M  ISO  4  34 100  56 101  72 100  80 101
M  END
> <Batch ID>
0053

> <Smiles>
CNC(C)C(=O)NC(C(=O)N1Cc2cc([101O:1][101CH2:1]Cc3cn(CC(C)[100N:0](C)[100C:0](=O)N4CCCC(n5nc(-c6ccc(Oc7ccc(F)cc7F)cc6)c(C(N)=O)c5N)C4)nn3)ccc2CC1C(=O)NC1CCCc2ccccc21)C(C)(C)C

> <Shape>
0.192

> <Color>
0.192

> <Negative vol penalty>
0.000

$$$$

  -OEChem-04052317383D

 83 91  0     1  0  0  0  0  0999 V2000
  -22.9592   -8.5618   20.5004 C   0  0  0  0  0  0  0  0  0  0  0  0
  -22.1718   -9.5529   19.9230 C   0  0  0  0  0  0  0  0  0  0  0  0
  -26.7529  -28.2517   22.3451 C   0  0  0  0  0  0  0  0  0  0  0  0
  -25.2882  -28.1829   20.4249 C   0  0  0  0  0  0  0  0  0  0  0  0
  -23.7677   -8.8650   21.5951 C   0  0  0  0  0  0  0  0  0  0  0  0
  -22.1918  -10.8475   20.4407 C   0  0  0  0  0  0  0  0  0  0  0  0
  -21.6131  -17.6880   18.3941 C   0  0  0  0  0  0  0  0  0  0  0  0
  -27.7236  -27.5505   21.6298 C   0  0  0  0  0  0  0  0  0  0  0  0
  -26.2590  -27.4817   19.7096 C   0  0  0  0  0  0  0  0  0  0  0  0
  -20.9006  -18.8469   18.6991 C   0  0  0  0  0  0  0  0  0  0  0  0
  -27.4009  -24.3054   19.5149 C   0  0  0  0  0  0  0  0  0  0  0  0
  -26.9865  -23.1992   18.7732 C   0  0  0  0  0  0  0  0  0  0  0  0
  -22.3959  -19.2736   20.5433 C   0  0  0  0  0  0  0  0  0  0  0  0
  -27.7947  -24.2504   16.7536 C   0  0  0  0  0  0  0  0  0  0  0  0
  -19.6455  -26.6131   21.2474 C   0  0  0  0  0  0  0  0  0  0  0  0
  -19.6692  -25.2753   22.9985 C   0  0  0  0  0  0  0  0  0  0  0  0
  -25.5352  -28.5679   21.7426 C   0  0  0  0  0  0  0  0  0  0  0  0
  -24.3717  -30.6885   22.5531 C   0  0  0  0  0  0  0  0  0  0  0  0
  -23.8049  -10.1663   22.1204 C   0  0  0  0  0  0  0  0  0  0  0  0
  -22.7176  -17.3067   19.1693 C   0  0  0  0  0  0  0  0  0  0  0  0
  -23.0005  -11.1680   21.5443 C   0  0  0  0  0  0  0  0  0  0  0  0
  -23.1223  -18.1108   20.2445 C   0  0  0  0  0  0  0  0  0  0  0  0
  -27.4767  -27.1655   20.3120 C   0  0  0  0  0  0  0  0  0  0  0  0
  -21.2902  -19.6384   19.7756 C   0  0  0  0  0  0  0  0  0  0  0  0
  -28.0122  -25.3842   18.8759 C   0  0  0  0  0  0  0  0  0  0  0  0
  -27.1834  -23.1716   17.3926 C   0  0  0  0  0  0  0  0  0  0  0  0
  -28.2091  -25.3567   17.4953 C   0  0  0  0  0  0  0  0  0  0  0  0
  -24.5319  -29.2917   22.4812 C   0  0  0  0  0  0  0  0  0  0  0  0
  -20.3971  -25.4867   21.0095 C   0  0  0  0  0  0  0  0  0  0  0  0
  -23.2854  -30.8677   23.3743 C   0  0  0  0  0  0  0  0  0  0  0  0
  -25.1364  -31.7308   21.9330 C   0  0  0  0  0  0  0  0  0  0  0  0
  -23.4233  -14.7961   20.9866 C   0  0  0  0  0  0  0  0  0  0  0  0
  -26.3248  -16.2351   21.1687 C   0  0  0  0  0  0  0  0  0  0  0  0
  -18.6426  -27.2986   24.7226 C   0  0  0  0  0  0  0  0  0  0  0  0
  -28.1508  -19.1106   20.9601 C   0  0  0  0  0  0  0  0  0  0  0  0
  -24.6586  -10.4349   23.3343 C   0  0  0  0  0  0  0  0  0  0  0  0
  -23.4918  -16.0679   18.8109 C   0  0  0  0  0  0  0  0  0  0  0  0
  -24.3133  -17.7562   21.0955 C   0  0  0  0  0  0  0  0  0  0  0  0
  -24.9062  -11.9197   23.5883 C   0  0  0  0  0  0  0  0  0  0  0  0
  -20.9474  -28.8232   27.0037 C   0  0  0  0  0  0  0  0  0  0  0  0
  -23.6040  -12.7055   23.4724 C   0  0  0  0  0  0  0  0  0  0  0  0
  -22.1255  -29.2174   26.1137 C   0  0  0  0  0  0  0  0  0  0  0  0
  -20.3074  -27.5193   26.5376 C   0  0  0  0  0  0  0  0  0  0  0  0
  -21.0552  -27.9246   24.2142 C   0  0  0  0  0  0  0  0  0  0  0  0
  -23.0136  -12.5900   22.0618 C   0  0  1  0  0  0  0  0  0  0  0  0
  -24.2893  -15.5020   19.9819 C   0  0  1  0  0  0  0  0  0  0  0  0
  -21.7114  -29.2525   24.6319 C   0  0  2  0  0  0  0  0  0  0  0  0
  -22.5590  -25.7216   19.7613 C   0  0  0  0  0  0  0  0  0  0  0  0
  -30.1859  -20.5780   20.9087 C   0  0  0  0  0  0  0  0  0  0  0  0
  -16.8672  -27.0411   23.0184 C   0  0  0  0  0  0  0  0  0  0  0  0
  -18.5572  -28.8706   22.8711 C   0  0  0  0  0  0  0  0  0  0  0  0
  -26.0813  -16.0608   24.2052 C   0  0  0  0  0  0  0  0  0  0  0  0
  -27.9260  -17.7444   24.3801 C   0  0  0  0  0  0  0  0  0  0  0  0
  -28.3556  -15.5328   23.3091 C   0  0  0  0  0  0  0  0  0  0  0  0
  -28.4691  -18.7648   18.0381 C   0  0  0  0  0  0  0  0  0  0  0  0
  -19.8570  -22.9388   19.3066 C   0  0  0  0  0  0  0  0  0  0  0  0
  -21.2337  -23.5851   19.5189 C   0  0  0  0  0  0  0  0  0  0  0  0
  -19.9642  -21.4508   18.9929 C   0  0  0  0  0  0  0  0  0  1  0  0
  -21.1526  -25.1101   19.7467 C   0  0  1  0  0  0  0  0  0  0  0  0
  -26.9587  -17.2506   22.0885 C   0  0  1  0  0  0  0  0  0  0  0  0
  -29.4472  -19.4305   20.2378 C   0  0  2  0  0  0  0  0  0  0  0  0
  -18.3486  -27.3910   23.2465 C   0  0  0  0  0  0  0  0  0  0  0  0
  -27.3067  -16.6531   23.4811 C   0  0  0  0  0  0  0  0  0  0  0  0
  -20.4077  -24.6577   22.1033 N   0  0  0  0  0  0  0  0  0  0  0  0
  -23.6204  -28.6305   23.1995 N   0  0  0  0  0  0  0  0  0  0  0  0
  -19.1853  -26.4632   22.5253 N   0  0  0  0  0  0  0  0  0  0  0  0
  -22.8770  -29.6161   23.7307 N   0  0  0  0  0  0  0  0  0  0  0  0
  -25.0340  -16.5321   20.7089 N   0  0  0  0  0  0  0  0  0  0  0  0
  -19.9488  -27.5849   25.1197 N   0  0  0  0  0  0  0  0  0  0  0  0
  -22.6492  -31.9722   23.8191 N   0  0  0  0  0  0  0  0  0  0  0  0
  -26.2201  -31.3712   21.1202 N   0  0  0  0  0  0  0  0  0  0  0  0
  -23.7226  -13.4564   21.1447 N   0  0  0  0  0  0  0  0  0  0  0  0
  -28.1049  -17.7943   21.3682 N   0  0  0  0  0  0  0  0  0  0  0  0
  -29.1718  -19.8117   18.8237 N   0  3  0  0  0  0  0  0  0  0  0  0
  -24.8768  -32.9455   22.1081 O   0  0  0  0  0  0  0  0  0  0  0  0
  -22.5493  -15.4210   21.5760 O   0  0  0  0  0  0  0  0  0  0  0  0
  -26.9546  -15.2192   20.8637 O   0  0  0  0  0  0  0  0  0  0  0  0
  -17.7362  -26.9841   25.4984 O   0  0  0  0  0  0  0  0  0  0  0  0
  -27.2689  -19.9459   21.1470 O   0  0  0  0  0  0  0  0  0  0  0  0
  -28.4237  -26.4815   19.6137 O   0  0  0  0  0  0  0  0  0  0  0  0
  -20.5961  -20.7697   20.0760 O   0  0  0  0  0  0  0  0  0  1  0  0
  -26.7868  -22.1085   16.6808 F   0  0  0  0  0  0  0  0  0  0  0  0
  -28.7968  -26.3896   16.8760 F   0  0  0  0  0  0  0  0  0  0  0  0
  1  2  1  0  0  0  0
  1  5  2  0  0  0  0
  2  6  2  0  0  0  0
  3  8  2  0  0  0  0
  3 17  1  0  0  0  0
  4  9  1  0  0  0  0
  4 17  2  0  0  0  0
  5 19  1  0  0  0  0
  6 21  1  0  0  0  0
  7 10  2  0  0  0  0
  7 20  1  0  0  0  0
  8 23  1  0  0  0  0
  9 23  2  0  0  0  0
 10 24  1  0  0  0  0
 11 12  2  0  0  0  0
 11 25  1  0  0  0  0
 12 26  1  0  0  0  0
 13 22  1  0  0  0  0
 13 24  2  0  0  0  0
 14 26  2  0  0  0  0
 14 27  1  0  0  0  0
 15 29  2  0  0  0  0
 15 66  1  0  0  0  0
 16 64  2  0  0  0  0
 16 66  1  0  0  0  0
 17 28  1  0  0  0  0
 18 28  1  0  0  0  0
 18 30  2  0  0  0  0
 18 31  1  0  0  0  0
 19 21  2  0  0  0  0
 19 36  1  0  0  0  0
 20 22  2  0  0  0  0
 20 37  1  0  0  0  0
 21 45  1  0  0  0  0
 22 38  1  0  0  0  0
 23 80  1  0  0  0  0
 24 81  1  0  0  0  0
 25 27  2  0  0  0  0
 25 80  1  0  0  0  0
 26 82  1  0  0  0  0
 27 83  1  0  0  0  0
 28 65  2  0  0  0  0
 29 59  1  0  0  0  0
 29 64  1  0  0  0  0
 30 67  1  0  0  0  0
 30 70  1  0  0  0  0
 31 71  1  0  0  0  0
 31 75  2  0  0  0  0
 32 46  1  0  0  0  0
 32 72  1  0  0  0  0
 32 76  2  0  0  0  0
 33 60  1  0  0  0  0
 33 68  1  0  0  0  0
 33 77  2  0  0  0  0
 34 62  1  0  0  0  0
 34 69  1  0  0  0  0
 34 78  2  0  0  0  0
 35 61  1  0  0  0  0
 35 73  1  0  0  0  0
 35 79  2  0  0  0  0
 36 39  1  0  0  0  0
 37 46  1  0  0  0  0
 38 68  1  0  0  0  0
 39 41  1  0  0  0  0
 40 42  1  0  0  0  0
 40 43  1  0  0  0  0
 41 45  1  0  0  0  0
 42 47  1  0  0  0  0
 43 69  1  0  0  0  0
 44 47  1  0  0  0  0
 44 69  1  0  0  0  0
 45 72  1  0  0  0  0
 46 68  1  0  0  0  0
 47 67  1  0  0  0  0
 48 59  1  0  0  0  0
 49 61  1  0  0  0  0
 50 62  1  0  0  0  0
 51 62  1  0  0  0  0
 52 63  1  0  0  0  0
 53 63  1  0  0  0  0
 54 63  1  0  0  0  0
 55 74  1  0  0  0  0
 56 57  1  0  0  0  0
 56 58  1  0  0  0  0
 57 59  1  0  0  0  0
 58 81  1  0  0  0  0
 60 63  1  0  0  0  0
 60 73  1  0  0  0  0
 61 74  1  0  0  0  0
 62 66  1  0  0  0  0
 65 67  1  0  0  0  0
M  CHG  1  74   1
M  ISO  4  34 100  58 101  62 100  81 101
M  END
> <Batch ID>
0053

> <Smiles>
CNC(C)C(=O)NC(C(=O)N1Cc2cc([101O:1][101CH2:1]CCC(C)c3cn([100C:0](C)(C)[100C:0](=O)N4CCCC(n5nc(-c6ccc(Oc7ccc(F)cc7F)cc6)c(C(N)=O)c5N)C4)cn3)ccc2CC1C(=O)NC1CCCc2ccccc21)C(C)(C)C

> <Shape>
0.217

> <Color>
0.064

> <Negative vol penalty>
0.000

$$$$

  -OEChem-04052317383D

 82 90  0     1  0  0  0  0  0999 V2000
  -24.2325   -8.1259   22.4017 C   0  0  0  0  0  0  0  0  0  0  0  0
  -24.8232   -9.2000   21.7437 C   0  0  0  0  0  0  0  0  0  0  0  0
  -26.5800  -25.4886   20.9156 C   0  0  0  0  0  0  0  0  0  0  0  0
  -26.0771  -25.0920   18.5860 C   0  0  0  0  0  0  0  0  0  0  0  0
  -22.8512   -8.0989   22.5891 C   0  0  0  0  0  0  0  0  0  0  0  0
  -24.0326  -10.2472   21.2718 C   0  0  0  0  0  0  0  0  0  0  0  0
  -26.0016  -14.7933   22.3209 C   0  0  0  0  0  0  0  0  0  0  0  0
  -25.6932  -26.5653   20.9237 C   0  0  0  0  0  0  0  0  0  0  0  0
  -25.1903  -26.1686   18.5941 C   0  0  0  0  0  0  0  0  0  0  0  0
  -27.0519  -15.2333   21.5165 C   0  0  0  0  0  0  0  0  0  0  0  0
  -25.6830  -29.7908   19.9135 C   0  0  0  0  0  0  0  0  0  0  0  0
  -26.1031  -30.9708   20.5272 C   0  0  0  0  0  0  0  0  0  0  0  0
  -25.5105  -16.6008   20.2622 C   0  0  0  0  0  0  0  0  0  0  0  0
  -24.2537  -30.8243   22.0750 C   0  0  0  0  0  0  0  0  0  0  0  0
  -31.8043  -18.1642   18.6723 C   0  0  0  0  0  0  0  0  0  0  0  0
  -26.7720  -24.7520   19.7467 C   0  0  0  0  0  0  0  0  0  0  0  0
  -27.3951  -22.2945   20.0297 C   0  0  0  0  0  0  0  0  0  0  0  0
  -22.0444   -9.1509   22.1278 C   0  0  0  0  0  0  0  0  0  0  0  0
  -24.6939  -15.2462   22.0947 C   0  0  0  0  0  0  0  0  0  0  0  0
  -22.6390  -10.2336   21.4520 C   0  0  0  0  0  0  0  0  0  0  0  0
  -24.4458  -16.1670   21.0668 C   0  0  0  0  0  0  0  0  0  0  0  0
  -24.9984  -26.9053   19.7630 C   0  0  0  0  0  0  0  0  0  0  0  0
  -26.8060  -16.1349   20.4851 C   0  0  0  0  0  0  0  0  0  0  0  0
  -24.5482  -29.1275   20.3805 C   0  0  0  0  0  0  0  0  0  0  0  0
  -25.3885  -31.4875   21.6080 C   0  0  0  0  0  0  0  0  0  0  0  0
  -23.8336  -29.6442   21.4612 C   0  0  0  0  0  0  0  0  0  0  0  0
  -27.6883  -23.6401   19.7375 C   0  0  0  0  0  0  0  0  0  0  0  0
  -31.8804  -17.7609   17.3574 C   0  0  0  0  0  0  0  0  0  0  0  0
  -30.1928  -16.2607   17.7200 C   0  0  0  0  0  0  0  0  0  0  0  0
  -30.1174  -16.6635   19.0351 C   0  0  0  0  0  0  0  0  0  0  0  0
  -28.5944  -21.6417   19.8811 C   0  0  0  0  0  0  0  0  0  0  0  0
  -26.1500  -21.6888   20.4021 C   0  0  0  0  0  0  0  0  0  0  0  0
  -21.9458  -13.8598   21.3012 C   0  0  0  0  0  0  0  0  0  0  0  0
  -20.7512  -16.8347   21.7964 C   0  0  0  0  0  0  0  0  0  0  0  0
  -21.3135  -20.1984   21.9241 C   0  0  0  0  0  0  0  0  0  0  0  0
  -33.3069  -20.6749   17.2229 C   0  0  0  0  0  0  0  0  0  0  0  0
  -20.5506   -9.0547   22.3120 C   0  0  0  0  0  0  0  0  0  0  0  0
  -23.5763  -14.7826   22.9882 C   0  0  0  0  0  0  0  0  0  0  0  0
  -23.0632  -16.6992   20.7955 C   0  0  0  0  0  0  0  0  0  0  0  0
  -19.8254  -10.3831   22.1124 C   0  0  0  0  0  0  0  0  0  0  0  0
  -33.2831  -23.4318   19.3265 C   0  0  0  0  0  0  0  0  0  0  0  0
  -20.3219  -11.0777   20.8484 C   0  0  0  0  0  0  0  0  0  0  0  0
  -31.8036  -23.6342   19.6504 C   0  0  0  0  0  0  0  0  0  0  0  0
  -33.4737  -23.0607   17.8606 C   0  0  0  0  0  0  0  0  0  0  0  0
  -31.2275  -22.0281   17.7621 C   0  0  0  0  0  0  0  0  0  0  0  0
  -21.8178  -11.4003   20.9475 C   0  0  1  0  0  0  0  0  0  0  0  0
  -22.2008  -14.9136   22.3416 C   0  0  1  0  0  0  0  0  0  0  0  0
  -30.9756  -22.4050   19.2365 C   0  0  2  0  0  0  0  0  0  0  0  0
  -29.2967  -15.1992   17.1797 C   0  0  0  0  0  0  0  0  0  0  0  0
  -33.0829  -20.2417   13.9088 C   0  0  0  0  0  0  0  0  0  0  0  0
  -20.1351  -22.3792   22.3151 C   0  0  0  0  0  0  0  0  0  0  0  0
  -19.5337  -16.6748   19.0031 C   0  0  0  0  0  0  0  0  0  0  0  0
  -19.2089  -19.1561   19.0784 C   0  0  0  0  0  0  0  0  0  0  0  0
  -18.0448  -17.6969   20.7331 C   0  0  0  0  0  0  0  0  0  0  0  0
  -23.0013  -20.8222   24.2738 C   0  0  0  0  0  0  0  0  0  0  0  0
  -32.8689  -18.3809   16.4332 C   0  0  0  0  0  0  0  0  0  0  0  0
  -29.1296  -16.0526   19.9851 C   0  0  0  0  0  0  0  0  0  1  0  0
  -32.0823  -20.2638   15.0466 C   0  0  0  0  0  0  0  0  0  0  0  0
  -20.5387  -18.0581   20.9377 C   0  0  1  0  0  0  0  0  0  0  0  0
  -20.9252  -21.2463   22.9515 C   0  0  2  0  0  0  0  0  0  0  0  0
  -19.3574  -17.8851   19.9417 C   0  0  0  0  0  0  0  0  0  0  0  0
  -30.9215  -17.6227   19.5348 N   0  0  0  0  0  0  0  0  0  0  0  0
  -28.9731  -23.8322   19.4270 N   0  0  0  0  0  0  0  0  0  0  0  0
  -31.0759  -16.8019   16.8576 N   0  0  0  0  0  0  0  0  0  0  0  0
  -29.4979  -22.5987   19.5233 N   0  0  0  0  0  0  0  0  0  0  0  0
  -22.0026  -16.2111   21.6925 N   0  0  0  0  0  0  0  0  0  0  0  0
  -32.6689  -21.8928   17.5011 N   0  0  0  0  0  0  0  0  0  0  0  0
  -28.9537  -20.3482   20.0231 N   0  0  0  0  0  0  0  0  0  0  0  0
  -25.0156  -22.5049   20.5088 N   0  0  0  0  0  0  0  0  0  0  0  0
  -22.0295  -12.5658   21.7788 N   0  0  0  0  0  0  0  0  0  0  0  0
  -20.3858  -19.1805   21.8570 N   0  0  0  0  0  0  0  0  0  0  0  0
  -32.6825  -19.8190   16.3030 N   0  0  0  0  0  0  0  0  0  0  0  0
  -22.1426  -21.8226   23.5892 N   0  3  0  0  0  0  0  0  0  0  0  0
  -26.0500  -20.4631   20.6493 O   0  0  0  0  0  0  0  0  0  0  0  0
  -21.6904  -14.1959   20.1508 O   0  0  0  0  0  0  0  0  0  0  0  0
  -19.8428  -16.4509   22.5374 O   0  0  0  0  0  0  0  0  0  0  0  0
  -22.3356  -20.2770   21.2461 O   0  0  0  0  0  0  0  0  0  0  0  0
  -34.3796  -20.3709   17.7604 O   0  0  0  0  0  0  0  0  0  0  0  0
  -24.1328  -27.9557   19.7706 O   0  0  0  0  0  0  0  0  0  0  0  0
  -27.8292  -16.5655   19.6981 O   0  0  0  0  0  0  0  0  0  1  0  0
  -25.7929  -32.6199   22.1982 F   0  0  0  0  0  0  0  0  0  0  0  0
  -22.7433  -29.0108   21.9150 F   0  0  0  0  0  0  0  0  0  0  0  0
  1  2  1  0  0  0  0
  1  5  2  0  0  0  0
  2  6  2  0  0  0  0
  3  8  2  0  0  0  0
  3 16  1  0  0  0  0
  4  9  1  0  0  0  0
  4 16  2  0  0  0  0
  5 18  1  0  0  0  0
  6 20  1  0  0  0  0
  7 10  2  0  0  0  0
  7 19  1  0  0  0  0
  8 22  1  0  0  0  0
  9 22  2  0  0  0  0
 10 23  1  0  0  0  0
 11 12  2  0  0  0  0
 11 24  1  0  0  0  0
 12 25  1  0  0  0  0
 13 21  1  0  0  0  0
 13 23  2  0  0  0  0
 14 25  2  0  0  0  0
 14 26  1  0  0  0  0
 15 28  1  0  0  0  0
 15 62  2  0  0  0  0
 16 27  1  0  0  0  0
 17 27  1  0  0  0  0
 17 31  2  0  0  0  0
 17 32  1  0  0  0  0
 18 20  2  0  0  0  0
 18 37  1  0  0  0  0
 19 21  2  0  0  0  0
 19 38  1  0  0  0  0
 20 46  1  0  0  0  0
 21 39  1  0  0  0  0
 22 79  1  0  0  0  0
 23 80  1  0  0  0  0
 24 26  2  0  0  0  0
 24 79  1  0  0  0  0
 25 81  1  0  0  0  0
 26 82  1  0  0  0  0
 27 63  2  0  0  0  0
 28 56  1  0  0  0  0
 28 64  2  0  0  0  0
 29 30  2  0  0  0  0
 29 49  1  0  0  0  0
 29 64  1  0  0  0  0
 30 57  1  0  0  0  0
 30 62  1  0  0  0  0
 31 65  1  0  0  0  0
 31 68  1  0  0  0  0
 32 69  1  0  0  0  0
 32 74  2  0  0  0  0
 33 47  1  0  0  0  0
 33 70  1  0  0  0  0
 33 75  2  0  0  0  0
 34 59  1  0  0  0  0
 34 66  1  0  0  0  0
 34 76  2  0  0  0  0
 35 60  1  0  0  0  0
 35 71  1  0  0  0  0
 35 77  2  0  0  0  0
 36 67  1  0  0  0  0
 36 72  1  0  0  0  0
 36 78  2  0  0  0  0
 37 40  1  0  0  0  0
 38 47  1  0  0  0  0
 39 66  1  0  0  0  0
 40 42  1  0  0  0  0
 41 43  1  0  0  0  0
 41 44  1  0  0  0  0
 42 46  1  0  0  0  0
 43 48  1  0  0  0  0
 44 67  1  0  0  0  0
 45 48  1  0  0  0  0
 45 67  1  0  0  0  0
 46 70  1  0  0  0  0
 47 66  1  0  0  0  0
 48 65  1  0  0  0  0
 50 58  1  0  0  0  0
 51 60  1  0  0  0  0
 52 61  1  0  0  0  0
 53 61  1  0  0  0  0
 54 61  1  0  0  0  0
 55 73  1  0  0  0  0
 56 72  1  0  0  0  0
 57 80  1  0  0  0  0
 58 72  1  0  0  0  0
 59 61  1  0  0  0  0
 59 71  1  0  0  0  0
 60 73  1  0  0  0  0
 63 65  1  0  0  0  0
M  CHG  1  73   1
M  ISO  4  36 100  57 101  72 100  80 101
M  END
> <Batch ID>
0053

> <Smiles>
CC[100N:0](Cc1cnc([101CH2:1][101O:1]c2ccc3c(c2)CN(C(=O)C(NC(=O)C(C)NC)C(C)(C)C)C(C(=O)NC2CCCc4ccccc42)C3)c(C)n1)[100C:0](=O)N1CCCC(n2nc(-c3ccc(Oc4ccc(F)cc4F)cc3)c(C(N)=O)c2N)C1

> <Shape>
0.177

> <Color>
0.091

> <Negative vol penalty>
0.000

$$$$

  -OEChem-04052317383D

 80 88  0     1  0  0  0  0  0999 V2000
  -16.9725  -30.5054   23.3045 C   0  0  0  0  0  0  0  0  0  0  0  0
  -18.2208  -30.8805   22.8182 C   0  0  0  0  0  0  0  0  0  0  0  0
  -26.1096  -13.9917   21.7838 C   0  0  0  0  0  0  0  0  0  0  0  0
  -24.8840  -15.3852   20.2368 C   0  0  0  0  0  0  0  0  0  0  0  0
  -16.7744  -29.2139   23.7909 C   0  0  0  0  0  0  0  0  0  0  0  0
  -19.2721  -29.9645   22.8189 C   0  0  0  0  0  0  0  0  0  0  0  0
  -25.0979  -28.1493   19.0665 C   0  0  0  0  0  0  0  0  0  0  0  0
  -25.0685  -13.0635   21.7724 C   0  0  0  0  0  0  0  0  0  0  0  0
  -23.8430  -14.4569   20.2254 C   0  0  0  0  0  0  0  0  0  0  0  0
  -26.4623  -27.9206   19.2393 C   0  0  0  0  0  0  0  0  0  0  0  0
  -22.8909  -10.1543   21.8707 C   0  0  0  0  0  0  0  0  0  0  0  0
  -23.2261   -8.8053   21.7554 C   0  0  0  0  0  0  0  0  0  0  0  0
  -25.9825  -25.6928   20.0306 C   0  0  0  0  0  0  0  0  0  0  0  0
  -24.2842   -9.2499   19.6294 C   0  0  0  0  0  0  0  0  0  0  0  0
  -29.7773  -23.5315   16.8515 C   0  0  0  0  0  0  0  0  0  0  0  0
  -26.0173  -15.1526   21.0161 C   0  0  0  0  0  0  0  0  0  0  0  0
  -28.2102  -16.1469   20.1732 C   0  0  0  0  0  0  0  0  0  0  0  0
  -17.8212  -28.2786   23.7887 C   0  0  0  0  0  0  0  0  0  0  0  0
  -24.1634  -27.1536   19.3853 C   0  0  0  0  0  0  0  0  0  0  0  0
  -19.0882  -28.6596   23.3070 C   0  0  0  0  0  0  0  0  0  0  0  0
  -24.6070  -25.9105   19.8586 C   0  0  0  0  0  0  0  0  0  0  0  0
  -23.9353  -13.2960   20.9932 C   0  0  0  0  0  0  0  0  0  0  0  0
  -26.9047  -26.6932   19.7241 C   0  0  0  0  0  0  0  0  0  0  0  0
  -23.2522  -11.0512   20.8653 C   0  0  0  0  0  0  0  0  0  0  0  0
  -23.9228   -8.3531   20.6348 C   0  0  0  0  0  0  0  0  0  0  0  0
  -23.9489  -10.5990   19.7447 C   0  0  0  0  0  0  0  0  0  0  0  0
  -27.0921  -16.1122   21.0279 C   0  0  0  0  0  0  0  0  0  0  0  0
  -28.9272  -17.2417   20.5900 C   0  0  0  0  0  0  0  0  0  0  0  0
  -30.1468  -23.7808   18.8907 C   0  0  0  0  0  0  0  0  0  0  0  0
  -28.5685  -15.2681   19.0984 C   0  0  0  0  0  0  0  0  0  0  0  0
  -21.7652  -26.9089   21.4572 C   0  0  0  0  0  0  0  0  0  0  0  0
  -21.2374  -24.1022   19.9190 C   0  0  0  0  0  0  0  0  0  0  0  0
  -22.4925  -21.5554   18.0255 C   0  0  0  0  0  0  0  0  0  0  0  0
  -29.1590  -22.5712   22.2296 C   0  0  0  0  0  0  0  0  0  0  0  0
  -17.5720  -26.9087   24.3683 C   0  0  0  0  0  0  0  0  0  0  0  0
  -22.6967  -27.4066   19.1680 C   0  0  0  0  0  0  0  0  0  0  0  0
  -23.6455  -24.8015   20.1964 C   0  0  0  0  0  0  0  0  0  0  0  0
  -18.6369  -25.8833   23.9877 C   0  0  0  0  0  0  0  0  0  0  0  0
  -28.4295  -20.1277   24.7143 C   0  0  0  0  0  0  0  0  0  0  0  0
  -20.0329  -26.4688   24.1752 C   0  0  0  0  0  0  0  0  0  0  0  0
  -28.1029  -18.8706   23.9063 C   0  0  0  0  0  0  0  0  0  0  0  0
  -27.9222  -21.3910   24.0223 C   0  0  0  0  0  0  0  0  0  0  0  0
  -28.0407  -20.2961   21.8175 C   0  0  0  0  0  0  0  0  0  0  0  0
  -20.2467  -27.6867   23.2683 C   0  0  1  0  0  0  0  0  0  0  0  0
  -21.8030  -26.5024   20.0112 C   0  0  1  0  0  0  0  0  0  0  0  0
  -28.5816  -19.0013   22.4478 C   0  0  2  0  0  0  0  0  0  0  0  0
  -31.8582  -23.4216   20.7083 C   0  0  0  0  0  0  0  0  0  0  0  0
  -21.8297  -19.3843   16.9559 C   0  0  0  0  0  0  0  0  0  0  0  0
  -21.3210  -22.7360   22.6460 C   0  0  0  0  0  0  0  0  0  0  0  0
  -21.6098  -20.5482   21.4635 C   0  0  0  0  0  0  0  0  0  0  0  0
  -19.5374  -21.8909   21.1102 C   0  0  0  0  0  0  0  0  0  0  0  0
  -23.1201  -22.5653   15.3153 C   0  0  0  0  0  0  0  0  0  0  0  0
  -30.4145  -26.3509   18.8591 C   0  0  0  0  0  0  0  0  0  0  0  0
  -29.1283  -27.1544   19.0179 C   0  0  0  0  0  0  0  0  0  1  0  0
  -30.3743  -23.6228   20.3384 C   0  0  2  0  0  0  0  0  0  0  0  0
  -21.7140  -22.6806   20.0949 C   0  0  1  0  0  0  0  0  0  0  0  0
  -21.9731  -20.8863   16.7658 C   0  0  2  0  0  0  0  0  0  0  0  0
  -21.0638  -21.9853   21.3242 C   0  0  0  0  0  0  0  0  0  0  0  0
  -29.8993  -22.8320   18.0179 N   0  0  0  0  0  0  0  0  0  0  0  0
  -29.9337  -24.8535   16.9478 N   0  0  0  0  0  0  0  0  0  0  0  0
  -27.0944  -17.1059   21.9204 N   0  0  0  0  0  0  0  0  0  0  0  0
  -28.2227  -17.7752   21.6288 N   0  0  0  0  0  0  0  0  0  0  0  0
  -30.1689  -24.9866   18.2620 N   0  0  0  0  0  0  0  0  0  0  0  0
  -22.2212  -25.0996   19.9728 N   0  0  0  0  0  0  0  0  0  0  0  0
  -28.4132  -21.4552   22.6436 N   0  0  0  0  0  0  0  0  0  0  0  0
  -30.0853  -17.7904   20.1656 N   0  0  0  0  0  0  0  0  0  0  0  0
  -27.7195  -14.1927   18.8034 N   0  0  0  0  0  0  0  0  0  0  0  0
  -20.5087  -27.2648   21.9089 N   0  0  0  0  0  0  0  0  0  0  0  0
  -21.4640  -22.0063   18.8255 N   0  0  0  0  0  0  0  0  0  0  0  0
  -29.5914  -22.5494   20.9092 N   0  0  0  0  0  0  0  0  0  0  0  0
  -22.9050  -21.1291   15.6284 N   0  3  0  0  0  0  0  0  0  0  0  0
  -29.6190  -15.4222   18.4305 O   0  0  0  0  0  0  0  0  0  0  0  0
  -22.7992  -26.8989   22.1148 O   0  0  0  0  0  0  0  0  0  0  0  0
  -20.0373  -24.3190   19.7335 O   0  0  0  0  0  0  0  0  0  0  0  0
  -23.6908  -21.6638   18.2766 O   0  0  0  0  0  0  0  0  0  0  0  0
  -29.4247  -23.5144   22.9824 O   0  0  0  0  0  0  0  0  0  0  0  0
  -22.9193  -12.3903   20.9816 O   0  0  0  0  0  0  0  0  0  0  0  0
  -28.2358  -26.4676   19.8944 O   0  0  0  0  0  0  0  0  0  1  0  0
  -24.2460   -7.0578   20.5249 F   0  0  0  0  0  0  0  0  0  0  0  0
  -24.2998  -11.4561   18.7761 F   0  0  0  0  0  0  0  0  0  0  0  0
  1  2  1  0  0  0  0
  1  5  2  0  0  0  0
  2  6  2  0  0  0  0
  3  8  2  0  0  0  0
  3 16  1  0  0  0  0
  4  9  1  0  0  0  0
  4 16  2  0  0  0  0
  5 18  1  0  0  0  0
  6 20  1  0  0  0  0
  7 10  2  0  0  0  0
  7 19  1  0  0  0  0
  8 22  1  0  0  0  0
  9 22  2  0  0  0  0
 10 23  1  0  0  0  0
 11 12  2  0  0  0  0
 11 24  1  0  0  0  0
 12 25  1  0  0  0  0
 13 21  1  0  0  0  0
 13 23  2  0  0  0  0
 14 25  2  0  0  0  0
 14 26  1  0  0  0  0
 15 59  1  0  0  0  0
 15 60  2  0  0  0  0
 16 27  1  0  0  0  0
 17 27  1  0  0  0  0
 17 28  2  0  0  0  0
 17 30  1  0  0  0  0
 18 20  2  0  0  0  0
 18 35  1  0  0  0  0
 19 21  2  0  0  0  0
 19 36  1  0  0  0  0
 20 44  1  0  0  0  0
 21 37  1  0  0  0  0
 22 77  1  0  0  0  0
 23 78  1  0  0  0  0
 24 26  2  0  0  0  0
 24 77  1  0  0  0  0
 25 79  1  0  0  0  0
 26 80  1  0  0  0  0
 27 61  2  0  0  0  0
 28 62  1  0  0  0  0
 28 66  1  0  0  0  0
 29 55  1  0  0  0  0
 29 59  2  0  0  0  0
 29 63  1  0  0  0  0
 30 67  1  0  0  0  0
 30 72  2  0  0  0  0
 31 45  1  0  0  0  0
 31 68  1  0  0  0  0
 31 73  2  0  0  0  0
 32 56  1  0  0  0  0
 32 64  1  0  0  0  0
 32 74  2  0  0  0  0
 33 57  1  0  0  0  0
 33 69  1  0  0  0  0
 33 75  2  0  0  0  0
 34 65  1  0  0  0  0
 34 70  1  0  0  0  0
 34 76  2  0  0  0  0
 35 38  1  0  0  0  0
 36 45  1  0  0  0  0
 37 64  1  0  0  0  0
 38 40  1  0  0  0  0
 39 41  1  0  0  0  0
 39 42  1  0  0  0  0
 40 44  1  0  0  0  0
 41 46  1  0  0  0  0
 42 65  1  0  0  0  0
 43 46  1  0  0  0  0
 43 65  1  0  0  0  0
 44 68  1  0  0  0  0
 45 64  1  0  0  0  0
 46 62  1  0  0  0  0
 47 55  1  0  0  0  0
 48 57  1  0  0  0  0
 49 58  1  0  0  0  0
 50 58  1  0  0  0  0
 51 58  1  0  0  0  0
 52 71  1  0  0  0  0
 53 54  1  0  0  0  0
 53 63  1  0  0  0  0
 54 78  1  0  0  0  0
 55 70  1  0  0  0  0
 56 58  1  0  0  0  0
 56 69  1  0  0  0  0
 57 71  1  0  0  0  0
 60 63  1  0  0  0  0
 61 62  1  0  0  0  0
M  CHG  1  71   1
M  ISO  4  34 100  54 101  70 100  78 101
M  END
> <Batch ID>
0053

> <Smiles>
CNC(C)C(=O)NC(C(=O)N1Cc2cc([101O:1][101CH2:1]Cn3ncnc3C(C)[100NH:0][100C:0](=O)N3CCCC(n4nc(-c5ccc(Oc6ccc(F)cc6F)cc5)c(C(N)=O)c4N)C3)ccc2CC1C(=O)NC1CCCc2ccccc21)C(C)(C)C

> <Shape>
0.237

> <Color>
0.073

> <Negative vol penalty>
0.000

$$$$

  -OEChem-04052317383D

 81 89  0     1  0  0  0  0  0999 V2000
  -16.7976  -25.8595   24.8787 C   0  0  0  0  0  0  0  0  0  0  0  0
  -18.0235  -25.4625   24.3544 C   0  0  0  0  0  0  0  0  0  0  0  0
  -24.1699  -10.2416   22.7766 C   0  0  0  0  0  0  0  0  0  0  0  0
  -24.1006  -11.8139   24.6097 C   0  0  0  0  0  0  0  0  0  0  0  0
  -16.3772  -27.1817   24.7412 C   0  0  0  0  0  0  0  0  0  0  0  0
  -18.8293  -26.3873   23.6913 C   0  0  0  0  0  0  0  0  0  0  0  0
  -23.6899  -26.0758   25.0778 C   0  0  0  0  0  0  0  0  0  0  0  0
  -27.2998  -20.6665   20.9123 C   0  0  0  0  0  0  0  0  0  0  0  0
  -23.6067   -9.2626   23.5950 C   0  0  0  0  0  0  0  0  0  0  0  0
  -23.5373  -10.8348   25.4281 C   0  0  0  0  0  0  0  0  0  0  0  0
  -24.4429  -25.0379   24.5303 C   0  0  0  0  0  0  0  0  0  0  0  0
  -20.5377   -8.4550   24.7622 C   0  0  0  0  0  0  0  0  0  0  0  0
  -19.5010   -7.6860   24.2336 C   0  0  0  0  0  0  0  0  0  0  0  0
  -26.4393  -21.5606   21.5396 C   0  0  0  0  0  0  0  0  0  0  0  0
  -25.3830  -26.5745   22.9258 C   0  0  0  0  0  0  0  0  0  0  0  0
  -20.8137   -5.6856   24.5693 C   0  0  0  0  0  0  0  0  0  0  0  0
  -24.4169  -11.5173   23.2839 C   0  0  0  0  0  0  0  0  0  0  0  0
  -24.3170  -13.4508   21.6229 C   0  0  0  0  0  0  0  0  0  0  0  0
  -17.1826  -28.1255   24.0844 C   0  0  0  0  0  0  0  0  0  0  0  0
  -23.7697  -27.3706   24.5455 C   0  0  0  0  0  0  0  0  0  0  0  0
  -18.4187  -27.7231   23.5436 C   0  0  0  0  0  0  0  0  0  0  0  0
  -24.6319  -27.6275   23.4700 C   0  0  0  0  0  0  0  0  0  0  0  0
  -28.4653  -20.2646   21.5552 C   0  0  0  0  0  0  0  0  0  0  0  0
  -23.2903   -9.5592   24.9208 C   0  0  0  0  0  0  0  0  0  0  0  0
  -25.2875  -25.2866   23.4524 C   0  0  0  0  0  0  0  0  0  0  0  0
  -21.7125   -7.8394   25.1943 C   0  0  0  0  0  0  0  0  0  0  0  0
  -19.6390   -6.3013   24.1372 C   0  0  0  0  0  0  0  0  0  0  0  0
  -21.8504   -6.4547   25.0979 C   0  0  0  0  0  0  0  0  0  0  0  0
  -24.9993  -12.5289   22.4392 C   0  0  0  0  0  0  0  0  0  0  0  0
  -26.7871  -22.0198   22.7997 C   0  0  0  0  0  0  0  0  0  0  0  0
  -28.7225  -20.7820   22.8146 C   0  0  0  0  0  0  0  0  0  0  0  0
  -25.3132  -14.1873   21.0299 C   0  0  0  0  0  0  0  0  0  0  0  0
  -22.9086  -13.6259   21.4190 C   0  0  0  0  0  0  0  0  0  0  0  0
  -21.7101  -29.3589   23.1640 C   0  0  0  0  0  0  0  0  0  0  0  0
  -24.2064  -31.4251   23.3093 C   0  0  0  0  0  0  0  0  0  0  0  0
  -27.5835  -31.8802   23.4970 C   0  0  0  0  0  0  0  0  0  0  0  0
  -30.1349  -16.9815   21.3283 C   0  0  0  0  0  0  0  0  0  0  0  0
  -16.6645  -29.5322   23.9190 C   0  0  0  0  0  0  0  0  0  0  0  0
  -22.9711  -28.4848   25.1645 C   0  0  0  0  0  0  0  0  0  0  0  0
  -24.7690  -29.0043   22.8749 C   0  0  0  0  0  0  0  0  0  0  0  0
  -17.7454  -30.5376   23.5303 C   0  0  0  0  0  0  0  0  0  0  0  0
  -30.3160  -13.4521   20.8956 C   0  0  0  0  0  0  0  0  0  0  0  0
  -18.6097  -29.9829   22.4024 C   0  0  0  0  0  0  0  0  0  0  0  0
  -28.8948  -12.9732   21.1973 C   0  0  0  0  0  0  0  0  0  0  0  0
  -30.7204  -14.6198   21.7928 C   0  0  0  0  0  0  0  0  0  0  0  0
  -28.3645  -15.2817   22.0853 C   0  0  0  0  0  0  0  0  0  0  0  0
  -19.3321  -28.7028   22.8393 C   0  0  1  0  0  0  0  0  0  0  0  0
  -22.7430  -29.6561   24.2139 C   0  0  1  0  0  0  0  0  0  0  0  0
  -27.8912  -14.1416   21.1674 C   0  0  2  0  0  0  0  0  0  0  0  0
  -29.9576  -20.3834   23.5538 C   0  0  0  0  0  0  0  0  0  0  0  0
  -29.3742  -19.4281   19.3562 C   0  0  0  0  0  0  0  0  0  0  0  0
  -29.3277  -33.6833   23.5605 C   0  0  0  0  0  0  0  0  0  0  0  0
  -23.8443  -31.8775   20.3136 C   0  0  0  0  0  0  0  0  0  0  0  0
  -26.1299  -32.8981   20.2621 C   0  0  0  0  0  0  0  0  0  0  0  0
  -24.3276  -33.9480   21.6304 C   0  0  0  0  0  0  0  0  0  0  0  0
  -28.5426  -31.0195   26.1612 C   0  0  0  0  0  0  0  0  0  0  0  0
  -25.8808  -22.9842   23.5066 C   0  0  0  0  0  0  0  0  0  1  0  0
  -29.3916  -19.3080   20.8877 C   0  0  2  0  0  0  0  0  0  0  0  0
  -25.3607  -31.7728   22.4006 C   0  0  1  0  0  0  0  0  0  0  0  0
  -28.4318  -32.7723   24.3853 C   0  0  2  0  0  0  0  0  0  0  0  0
  -24.9118  -32.5976   21.1614 C   0  0  0  0  0  0  0  0  0  0  0  0
  -26.3263  -12.6652   22.3731 N   0  0  0  0  0  0  0  0  0  0  0  0
  -27.9105  -21.6522   23.4557 N   0  0  0  0  0  0  0  0  0  0  0  0
  -26.4859  -13.6813   21.5082 N   0  0  0  0  0  0  0  0  0  0  0  0
  -23.9627  -30.0592   23.5109 N   0  0  0  0  0  0  0  0  0  0  0  0
  -29.7280  -15.6947   21.7175 N   0  0  0  0  0  0  0  0  0  0  0  0
  -25.2916  -15.2120   20.1512 N   0  0  0  0  0  0  0  0  0  0  0  0
  -22.0242  -12.7838   22.1068 N   0  0  0  0  0  0  0  0  0  0  0  0
  -20.4700  -29.0243   23.6737 N   0  0  0  0  0  0  0  0  0  0  0  0
  -26.3514  -32.4419   23.2368 N   0  0  0  0  0  0  0  0  0  0  0  0
  -29.1303  -17.9402   21.2767 N   0  0  0  0  0  0  0  0  0  0  0  0
  -29.2945  -31.9461   25.2763 N   0  3  0  0  0  0  0  0  0  0  0  0
  -22.4486  -14.4922   20.6370 O   0  0  0  0  0  0  0  0  0  0  0  0
  -22.0151  -29.4294   21.9793 O   0  0  0  0  0  0  0  0  0  0  0  0
  -23.5499  -32.3321   23.8269 O   0  0  0  0  0  0  0  0  0  0  0  0
  -27.9761  -30.7955   23.0731 O   0  0  0  0  0  0  0  0  0  0  0  0
  -31.3056  -17.2546   21.0424 O   0  0  0  0  0  0  0  0  0  0  0  0
  -22.7405   -8.6041   25.7196 O   0  0  0  0  0  0  0  0  0  0  0  0
  -26.0231  -24.2753   22.9157 O   0  0  0  0  0  0  0  0  0  1  0  0
  -18.6427   -5.5628   23.6309 F   0  0  0  0  0  0  0  0  0  0  0  0
  -22.9762   -5.8575   25.5124 F   0  0  0  0  0  0  0  0  0  0  0  0
  1  2  1  0  0  0  0
  1  5  2  0  0  0  0
  2  6  2  0  0  0  0
  3  9  2  0  0  0  0
  3 17  1  0  0  0  0
  4 10  1  0  0  0  0
  4 17  2  0  0  0  0
  5 19  1  0  0  0  0
  6 21  1  0  0  0  0
  7 11  2  0  0  0  0
  7 20  1  0  0  0  0
  8 14  2  0  0  0  0
  8 23  1  0  0  0  0
  9 24  1  0  0  0  0
 10 24  2  0  0  0  0
 11 25  1  0  0  0  0
 12 13  2  0  0  0  0
 12 26  1  0  0  0  0
 13 27  1  0  0  0  0
 14 30  1  0  0  0  0
 15 22  1  0  0  0  0
 15 25  2  0  0  0  0
 16 27  2  0  0  0  0
 16 28  1  0  0  0  0
 17 29  1  0  0  0  0
 18 29  1  0  0  0  0
 18 32  2  0  0  0  0
 18 33  1  0  0  0  0
 19 21  2  0  0  0  0
 19 38  1  0  0  0  0
 20 22  2  0  0  0  0
 20 39  1  0  0  0  0
 21 47  1  0  0  0  0
 22 40  1  0  0  0  0
 23 31  2  0  0  0  0
 23 58  1  0  0  0  0
 24 78  1  0  0  0  0
 25 79  1  0  0  0  0
 26 28  2  0  0  0  0
 26 78  1  0  0  0  0
 27 80  1  0  0  0  0
 28 81  1  0  0  0  0
 29 62  2  0  0  0  0
 30 57  1  0  0  0  0
 30 63  2  0  0  0  0
 31 50  1  0  0  0  0
 31 63  1  0  0  0  0
 32 64  1  0  0  0  0
 32 67  1  0  0  0  0
 33 68  1  0  0  0  0
 33 73  2  0  0  0  0
 34 48  1  0  0  0  0
 34 69  1  0  0  0  0
 34 74  2  0  0  0  0
 35 59  1  0  0  0  0
 35 65  1  0  0  0  0
 35 75  2  0  0  0  0
 36 60  1  0  0  0  0
 36 70  1  0  0  0  0
 36 76  2  0  0  0  0
 37 66  1  0  0  0  0
 37 71  1  0  0  0  0
 37 77  2  0  0  0  0
 38 41  1  0  0  0  0
 39 48  1  0  0  0  0
 40 65  1  0  0  0  0
 41 43  1  0  0  0  0
 42 44  1  0  0  0  0
 42 45  1  0  0  0  0
 43 47  1  0  0  0  0
 44 49  1  0  0  0  0
 45 66  1  0  0  0  0
 46 49  1  0  0  0  0
 46 66  1  0  0  0  0
 47 69  1  0  0  0  0
 48 65  1  0  0  0  0
 49 64  1  0  0  0  0
 51 58  1  0  0  0  0
 52 60  1  0  0  0  0
 53 61  1  0  0  0  0
 54 61  1  0  0  0  0
 55 61  1  0  0  0  0
 56 72  1  0  0  0  0
 57 79  1  0  0  0  0
 58 71  1  0  0  0  0
 59 61  1  0  0  0  0
 59 70  1  0  0  0  0
 60 72  1  0  0  0  0
 62 64  1  0  0  0  0
M  CHG  1  72   1
M  ISO  4  37 100  57 101  71 100  79 101
M  END
> <Batch ID>
0053

> <Smiles>
CNC(C)C(=O)NC(C(=O)N1Cc2cc([101O:1][101CH2:1]c3ccc(C(C)[100NH:0][100C:0](=O)N4CCCC(n5nc(-c6ccc(Oc7ccc(F)cc7F)cc6)c(C(N)=O)c5N)C4)c(C)n3)ccc2CC1C(=O)NC1CCCc2ccccc21)C(C)(C)C

> <Shape>
0.245

> <Color>
0.124

> <Negative vol penalty>
0.000

$$$$

  -OEChem-04052317383D

 79 87  0     1  0  0  0  0  0999 V2000
  -29.9648  -34.1134   24.3956 C   0  0  0  0  0  0  0  0  0  0  0  0
  -29.7971  -32.8127   23.9315 C   0  0  0  0  0  0  0  0  0  0  0  0
  -24.4523  -13.6746   21.2245 C   0  0  0  0  0  0  0  0  0  0  0  0
  -26.4908  -12.9470   20.1510 C   0  0  0  0  0  0  0  0  0  0  0  0
  -28.8966  -34.7831   24.9909 C   0  0  0  0  0  0  0  0  0  0  0  0
  -28.5612  -32.1805   24.0634 C   0  0  0  0  0  0  0  0  0  0  0  0
  -27.1639  -29.7477   19.8475 C   0  0  0  0  0  0  0  0  0  0  0  0
  -24.0317  -12.3485   21.3248 C   0  0  0  0  0  0  0  0  0  0  0  0
  -26.0702  -11.6208   20.2513 C   0  0  0  0  0  0  0  0  0  0  0  0
  -27.7607  -28.5128   19.5974 C   0  0  0  0  0  0  0  0  0  0  0  0
  -24.6544   -9.6809   23.3070 C   0  0  0  0  0  0  0  0  0  0  0  0
  -24.1119   -9.2630   24.5222 C   0  0  0  0  0  0  0  0  0  0  0  0
  -25.7978  -27.3984   20.4485 C   0  0  0  0  0  0  0  0  0  0  0  0
  -22.0414   -8.7090   23.4073 C   0  0  0  0  0  0  0  0  0  0  0  0
  -29.4992  -24.0309   17.6542 C   0  0  0  0  0  0  0  0  0  0  0  0
  -25.6818  -13.9739   20.6375 C   0  0  0  0  0  0  0  0  0  0  0  0
  -26.8714  -16.0699   21.4736 C   0  0  0  0  0  0  0  0  0  0  0  0
  -27.6443  -34.1623   25.1214 C   0  0  0  0  0  0  0  0  0  0  0  0
  -25.8817  -29.8174   20.4110 C   0  0  0  0  0  0  0  0  0  0  0  0
  -27.4756  -32.8421   24.6621 C   0  0  0  0  0  0  0  0  0  0  0  0
  -25.1858  -28.6354   20.7023 C   0  0  0  0  0  0  0  0  0  0  0  0
  -24.8407  -11.3216   20.8382 C   0  0  0  0  0  0  0  0  0  0  0  0
  -27.0789  -27.3379   19.9006 C   0  0  0  0  0  0  0  0  0  0  0  0
  -23.8904   -9.6129   22.1419 C   0  0  0  0  0  0  0  0  0  0  0  0
  -22.8054   -8.7771   24.5723 C   0  0  0  0  0  0  0  0  0  0  0  0
  -22.5839   -9.1269   22.1921 C   0  0  0  0  0  0  0  0  0  0  0  0
  -26.1166  -15.3436   20.5331 C   0  0  0  0  0  0  0  0  0  0  0  0
  -29.4208  -24.7285   18.8745 C   0  0  0  0  0  0  0  0  0  0  0  0
  -29.9691  -22.7872   17.9992 C   0  0  0  0  0  0  0  0  0  0  0  0
  -27.0189  -17.3133   20.9089 C   0  0  0  0  0  0  0  0  0  0  0  0
  -27.3927  -15.6576   22.7440 C   0  0  0  0  0  0  0  0  0  0  0  0
  -24.6756  -31.0040   23.1019 C   0  0  0  0  0  0  0  0  0  0  0  0
  -21.8484  -30.1932   21.7337 C   0  0  0  0  0  0  0  0  0  0  0  0
  -20.1671  -28.2400   19.4964 C   0  0  0  0  0  0  0  0  0  0  0  0
  -28.1169  -20.5585   16.5034 C   0  0  0  0  0  0  0  0  0  0  0  0
  -26.5325  -34.9093   25.8145 C   0  0  0  0  0  0  0  0  0  0  0  0
  -25.2410  -31.1571   20.6498 C   0  0  0  0  0  0  0  0  0  0  0  0
  -23.7990  -28.6559   21.2896 C   0  0  0  0  0  0  0  0  0  0  0  0
  -25.1515  -34.3033   25.5778 C   0  0  0  0  0  0  0  0  0  0  0  0
  -24.7762  -19.3844   16.8756 C   0  0  0  0  0  0  0  0  0  0  0  0
  -25.1922  -32.7907   25.7708 C   0  0  0  0  0  0  0  0  0  0  0  0
  -24.8907  -18.2848   17.9328 C   0  0  0  0  0  0  0  0  0  0  0  0
  -25.9928  -19.4089   15.9529 C   0  0  0  0  0  0  0  0  0  0  0  0
  -27.4069  -18.4002   17.7011 C   0  0  0  0  0  0  0  0  0  0  0  0
  -26.1434  -32.1315   24.7647 C   0  0  1  0  0  0  0  0  0  0  0  0
  -24.1381  -31.1128   21.7030 C   0  0  1  0  0  0  0  0  0  0  0  0
  -26.2292  -18.3723   18.6903 C   0  0  2  0  0  0  0  0  0  0  0  0
  -17.8578  -27.7793   18.6292 C   0  0  0  0  0  0  0  0  0  0  0  0
  -21.2048  -28.6396   24.2797 C   0  0  0  0  0  0  0  0  0  0  0  0
  -19.3921  -27.4600   23.0184 C   0  0  0  0  0  0  0  0  0  0  0  0
  -19.2847  -29.9323   23.3329 C   0  0  0  0  0  0  0  0  0  0  0  0
  -30.6131  -21.7380   20.1898 C   0  0  0  0  0  0  0  0  0  0  0  0
  -20.9167  -29.0322   16.7452 C   0  0  0  0  0  0  0  0  0  0  0  0
  -28.9692  -26.1427   19.0918 C   0  0  0  0  0  0  0  0  0  1  0  0
  -30.2664  -21.6014   17.1751 C   0  0  0  0  0  0  0  0  0  0  0  0
  -20.9785  -28.9594   21.7277 C   0  0  1  0  0  0  0  0  0  0  0  0
  -19.1351  -28.5819   18.4369 C   0  0  2  0  0  0  0  0  0  0  0  0
  -20.2419  -28.7471   23.0804 C   0  0  0  0  0  0  0  0  0  0  0  0
  -25.8061  -16.0654   19.4530 N   0  0  0  0  0  0  0  0  0  0  0  0
  -29.8095  -23.9893   19.9169 N   0  0  0  0  0  0  0  0  0  0  0  0
  -30.1367  -22.8143   19.3525 N   0  0  0  0  0  0  0  0  0  0  0  0
  -26.3685  -17.2583   19.7114 N   0  0  0  0  0  0  0  0  0  0  0  0
  -23.2177  -29.9903   21.5107 N   0  0  0  0  0  0  0  0  0  0  0  0
  -27.2294  -19.4943   16.7335 N   0  0  0  0  0  0  0  0  0  0  0  0
  -27.6400  -18.4373   21.3250 N   0  0  0  0  0  0  0  0  0  0  0  0
  -27.1490  -14.3455   23.1722 N   0  0  0  0  0  0  0  0  0  0  0  0
  -25.5173  -32.0386   23.4633 N   0  0  0  0  0  0  0  0  0  0  0  0
  -20.0902  -29.0918   20.5780 N   0  0  0  0  0  0  0  0  0  0  0  0
  -29.2619  -20.5677   17.2906 N   0  0  0  0  0  0  0  0  0  0  0  0
  -19.6726  -28.2915   17.0776 N   0  3  0  0  0  0  0  0  0  0  0  0
  -28.0410  -16.4348   23.4850 O   0  0  0  0  0  0  0  0  0  0  0  0
  -24.3495  -30.0527   23.8021 O   0  0  0  0  0  0  0  0  0  0  0  0
  -21.3310  -31.2970   21.9219 O   0  0  0  0  0  0  0  0  0  0  0  0
  -20.9596  -27.3080   19.3782 O   0  0  0  0  0  0  0  0  0  0  0  0
  -27.9020  -21.4384   15.6628 O   0  0  0  0  0  0  0  0  0  0  0  0
  -24.4307  -10.0274   20.9361 O   0  0  0  0  0  0  0  0  0  0  0  0
  -27.6594  -26.1312   19.6582 O   0  0  0  0  0  0  0  0  0  1  0  0
  -22.2851   -8.3744   25.7391 F   0  0  0  0  0  0  0  0  0  0  0  0
  -21.8454   -9.0581   21.0759 F   0  0  0  0  0  0  0  0  0  0  0  0
  1  2  1  0  0  0  0
  1  5  2  0  0  0  0
  2  6  2  0  0  0  0
  3  8  2  0  0  0  0
  3 16  1  0  0  0  0
  4  9  1  0  0  0  0
  4 16  2  0  0  0  0
  5 18  1  0  0  0  0
  6 20  1  0  0  0  0
  7 10  2  0  0  0  0
  7 19  1  0  0  0  0
  8 22  1  0  0  0  0
  9 22  2  0  0  0  0
 10 23  1  0  0  0  0
 11 12  2  0  0  0  0
 11 24  1  0  0  0  0
 12 25  1  0  0  0  0
 13 21  1  0  0  0  0
 13 23  2  0  0  0  0
 14 25  2  0  0  0  0
 14 26  1  0  0  0  0
 15 28  1  0  0  0  0
 15 29  2  0  0  0  0
 16 27  1  0  0  0  0
 17 27  1  0  0  0  0
 17 30  2  0  0  0  0
 17 31  1  0  0  0  0
 18 20  2  0  0  0  0
 18 36  1  0  0  0  0
 19 21  2  0  0  0  0
 19 37  1  0  0  0  0
 20 45  1  0  0  0  0
 21 38  1  0  0  0  0
 22 76  1  0  0  0  0
 23 77  1  0  0  0  0
 24 26  2  0  0  0  0
 24 76  1  0  0  0  0
 25 78  1  0  0  0  0
 26 79  1  0  0  0  0
 27 59  2  0  0  0  0
 28 54  1  0  0  0  0
 28 60  2  0  0  0  0
 29 55  1  0  0  0  0
 29 61  1  0  0  0  0
 30 62  1  0  0  0  0
 30 65  1  0  0  0  0
 31 66  1  0  0  0  0
 31 71  2  0  0  0  0
 32 46  1  0  0  0  0
 32 67  1  0  0  0  0
 32 72  2  0  0  0  0
 33 56  1  0  0  0  0
 33 63  1  0  0  0  0
 33 73  2  0  0  0  0
 34 57  1  0  0  0  0
 34 68  1  0  0  0  0
 34 74  2  0  0  0  0
 35 64  1  0  0  0  0
 35 69  1  0  0  0  0
 35 75  2  0  0  0  0
 36 39  1  0  0  0  0
 37 46  1  0  0  0  0
 38 63  1  0  0  0  0
 39 41  1  0  0  0  0
 40 42  1  0  0  0  0
 40 43  1  0  0  0  0
 41 45  1  0  0  0  0
 42 47  1  0  0  0  0
 43 64  1  0  0  0  0
 44 47  1  0  0  0  0
 44 64  1  0  0  0  0
 45 67  1  0  0  0  0
 46 63  1  0  0  0  0
 47 62  1  0  0  0  0
 48 57  1  0  0  0  0
 49 58  1  0  0  0  0
 50 58  1  0  0  0  0
 51 58  1  0  0  0  0
 52 61  1  0  0  0  0
 53 70  1  0  0  0  0
 54 77  1  0  0  0  0
 55 69  1  0  0  0  0
 56 58  1  0  0  0  0
 56 68  1  0  0  0  0
 57 70  1  0  0  0  0
 59 62  1  0  0  0  0
 60 61  1  0  0  0  0
M  CHG  1  70   1
M  ISO  4  35 100  54 101  69 100  77 101
M  END
> <Batch ID>
0053

> <Smiles>
CNC(C)C(=O)NC(C(=O)N1Cc2cc([101O:1][101CH2:1]c3cc(C[100NH:0][100C:0](=O)N4CCCC(n5nc(-c6ccc(Oc7ccc(F)cc7F)cc6)c(C(N)=O)c5N)C4)n(C)n3)ccc2CC1C(=O)NC1CCCc2ccccc21)C(C)(C)C

> <Shape>
0.275

> <Color>
0.066

> <Negative vol penalty>
0.000

$$$$

  -OEChem-04052317383D

 83 91  0     1  0  0  0  0  0999 V2000
  -27.5963  -17.9958   26.8876 C   0  0  0  0  0  0  0  0  0  0  0  0
  -28.2177  -18.9714   26.1145 C   0  0  0  0  0  0  0  0  0  0  0  0
  -24.0025  -13.5791   19.6835 C   0  0  0  0  0  0  0  0  0  0  0  0
  -23.7201  -14.6354   21.8379 C   0  0  0  0  0  0  0  0  0  0  0  0
  -26.2890  -17.6069   26.5983 C   0  0  0  0  0  0  0  0  0  0  0  0
  -27.5324  -19.5578   25.0511 C   0  0  0  0  0  0  0  0  0  0  0  0
  -27.9806  -25.3565   23.1326 C   0  0  0  0  0  0  0  0  0  0  0  0
  -23.2383  -12.4949   20.1149 C   0  0  0  0  0  0  0  0  0  0  0  0
  -22.9559  -13.5512   22.2693 C   0  0  0  0  0  0  0  0  0  0  0  0
  -28.6995  -25.9482   22.0949 C   0  0  0  0  0  0  0  0  0  0  0  0
  -21.6618   -9.2842   20.7703 C   0  0  0  0  0  0  0  0  0  0  0  0
  -22.1300   -8.0026   20.4806 C   0  0  0  0  0  0  0  0  0  0  0  0
  -26.7496  -25.8222   20.6803 C   0  0  0  0  0  0  0  0  0  0  0  0
  -24.1455   -8.4556   21.7335 C   0  0  0  0  0  0  0  0  0  0  0  0
  -29.2171  -23.3488   18.7240 C   0  0  0  0  0  0  0  0  0  0  0  0
  -24.2435  -14.6493   20.5450 C   0  0  0  0  0  0  0  0  0  0  0  0
  -24.5701  -16.9380   19.4666 C   0  0  0  0  0  0  0  0  0  0  0  0
  -25.5840  -18.1957   25.5368 C   0  0  0  0  0  0  0  0  0  0  0  0
  -26.6417  -24.9826   22.9481 C   0  0  0  0  0  0  0  0  0  0  0  0
  -26.2149  -19.1754   24.7465 C   0  0  0  0  0  0  0  0  0  0  0  0
  -26.0152  -25.2282   21.7180 C   0  0  0  0  0  0  0  0  0  0  0  0
  -22.7150  -12.4810   21.4078 C   0  0  0  0  0  0  0  0  0  0  0  0
  -28.0849  -26.1786   20.8676 C   0  0  0  0  0  0  0  0  0  0  0  0
  -22.4355  -10.1515   21.5416 C   0  0  0  0  0  0  0  0  0  0  0  0
  -23.3718   -7.5883   20.9622 C   0  0  0  0  0  0  0  0  0  0  0  0
  -23.6773   -9.7372   22.0232 C   0  0  0  0  0  0  0  0  0  0  0  0
  -25.0333  -15.7693   20.1002 C   0  0  0  0  0  0  0  0  0  0  0  0
  -29.7727  -22.1358   19.0190 C   0  0  0  0  0  0  0  0  0  0  0  0
  -25.7032  -17.6836   19.2505 C   0  0  0  0  0  0  0  0  0  0  0  0
  -31.2694  -23.3175   17.8948 C   0  0  0  0  0  0  0  0  0  0  0  0
  -23.2349  -17.3159   19.1058 C   0  0  0  0  0  0  0  0  0  0  0  0
  -25.0488  -22.2331   23.0309 C   0  0  0  0  0  0  0  0  0  0  0  0
  -22.4682  -24.1665   22.6773 C   0  0  0  0  0  0  0  0  0  0  0  0
  -21.2124  -27.1572   21.6164 C   0  0  0  0  0  0  0  0  0  0  0  0
  -30.4194  -19.6844   21.5655 C   0  0  0  0  0  0  0  0  0  0  0  0
  -24.1893  -17.7088   25.2330 C   0  0  0  0  0  0  0  0  0  0  0  0
  -25.8723  -24.3697   24.0860 C   0  0  0  0  0  0  0  0  0  0  0  0
  -24.5740  -24.8640   21.4754 C   0  0  0  0  0  0  0  0  0  0  0  0
  -23.4015  -18.6470   24.3222 C   0  0  0  0  0  0  0  0  0  0  0  0
  -30.5862  -16.4700   19.6598 C   0  0  0  0  0  0  0  0  0  0  0  0
  -24.2555  -19.0800   23.1349 C   0  0  0  0  0  0  0  0  0  0  0  0
  -29.1100  -16.0775   19.6204 C   0  0  0  0  0  0  0  0  0  0  0  0
  -30.9046  -17.2964   20.9000 C   0  0  0  0  0  0  0  0  0  0  0  0
  -28.5802  -18.1345   21.0071 C   0  0  0  0  0  0  0  0  0  0  0  0
  -25.4958  -19.8526   23.6000 C   0  0  1  0  0  0  0  0  0  0  0  0
  -24.6651  -23.5597   23.6232 C   0  0  1  0  0  0  0  0  0  0  0  0
  -28.2077  -17.3153   19.7601 C   0  0  2  0  0  0  0  0  0  0  0  0
  -32.5279  -23.7062   17.2106 C   0  0  0  0  0  0  0  0  0  0  0  0
  -30.4406  -22.8901   22.2700 C   0  0  0  0  0  0  0  0  0  0  0  0
  -19.0600  -28.4330   21.4240 C   0  0  0  0  0  0  0  0  0  0  0  0
  -21.6697  -22.4533   20.2820 C   0  0  0  0  0  0  0  0  0  0  0  0
  -20.1115  -24.2833   19.5810 C   0  0  0  0  0  0  0  0  0  0  0  0
  -19.7703  -23.1249   21.7638 C   0  0  0  0  0  0  0  0  0  0  0  0
  -22.2004  -29.3175   23.3815 C   0  0  0  0  0  0  0  0  0  0  0  0
  -29.2394  -20.9761   19.7383 C   0  0  0  0  0  0  0  0  0  0  0  0
  -30.6514  -26.5346   18.3622 C   0  0  0  0  0  0  0  0  0  0  0  0
  -29.9843  -25.4603   17.5004 C   0  0  0  0  0  0  0  0  0  0  0  0
  -29.3556  -21.8576   22.0395 C   0  0  0  0  0  0  0  0  0  0  0  0
  -30.1906  -26.5157   19.8150 C   0  0  0  0  0  0  0  0  0  1  0  0
  -21.7069  -24.7289   21.5013 C   0  0  1  0  0  0  0  0  0  0  0  0
  -20.2819  -28.1531   22.2850 C   0  0  2  0  0  0  0  0  0  0  0  0
  -20.8423  -23.6528   20.7856 C   0  0  0  0  0  0  0  0  0  0  0  0
  -26.3575  -15.7678   20.2750 N   0  0  0  0  0  0  0  0  0  0  0  0
  -30.1654  -24.0597   18.0286 N   0  0  0  0  0  0  0  0  0  0  0  0
  -26.7361  -16.9447   19.7481 N   0  0  0  0  0  0  0  0  0  0  0  0
  -31.0424  -22.1441   18.4938 N   0  3  0  0  0  0  0  0  0  0  0  0
  -23.8658  -24.2614   22.6168 N   0  0  0  0  0  0  0  0  0  0  0  0
  -30.0095  -18.4545   21.0247 N   0  0  0  0  0  0  0  0  0  0  0  0
  -25.9069  -18.8925   18.6853 N   0  0  0  0  0  0  0  0  0  0  0  0
  -22.1877  -16.4324   19.4009 N   0  0  0  0  0  0  0  0  0  0  0  0
  -25.1419  -21.2101   23.9552 N   0  0  0  0  0  0  0  0  0  0  0  0
  -20.9458  -25.8636   22.0126 N   0  0  0  0  0  0  0  0  0  0  0  0
  -29.7765  -20.8372   21.0900 N   0  0  0  0  0  0  0  0  0  0  0  0
  -20.9906  -29.4413   22.5282 N   0  3  0  0  0  0  0  0  0  0  0  0
  -22.9801  -18.3975   18.5238 O   0  0  0  0  0  0  0  0  0  0  0  0
  -25.2443  -22.1440   21.8245 O   0  0  0  0  0  0  0  0  0  0  0  0
  -21.8456  -23.6679   23.6183 O   0  0  0  0  0  0  0  0  0  0  0  0
  -22.0856  -27.4928   20.8194 O   0  0  0  0  0  0  0  0  0  0  0  0
  -31.3017  -19.7471   22.4312 O   0  0  0  0  0  0  0  0  0  0  0  0
  -21.9690  -11.4233   21.8290 O   0  0  0  0  0  0  0  0  0  0  0  0
  -28.7844  -26.7554   19.8528 O   0  0  0  0  0  0  0  0  0  1  0  0
  -23.8205   -6.3570   20.6852 F   0  0  0  0  0  0  0  0  0  0  0  0
  -24.4246  -10.5656   22.7656 F   0  0  0  0  0  0  0  0  0  0  0  0
  1  2  1  0  0  0  0
  1  5  2  0  0  0  0
  2  6  2  0  0  0  0
  3  8  2  0  0  0  0
  3 16  1  0  0  0  0
  4  9  1  0  0  0  0
  4 16  2  0  0  0  0
  5 18  1  0  0  0  0
  6 20  1  0  0  0  0
  7 10  2  0  0  0  0
  7 19  1  0  0  0  0
  8 22  1  0  0  0  0
  9 22  2  0  0  0  0
 10 23  1  0  0  0  0
 11 12  2  0  0  0  0
 11 24  1  0  0  0  0
 12 25  1  0  0  0  0
 13 21  1  0  0  0  0
 13 23  2  0  0  0  0
 14 25  2  0  0  0  0
 14 26  1  0  0  0  0
 15 28  2  0  0  0  0
 15 64  1  0  0  0  0
 16 27  1  0  0  0  0
 17 27  1  0  0  0  0
 17 29  2  0  0  0  0
 17 31  1  0  0  0  0
 18 20  2  0  0  0  0
 18 36  1  0  0  0  0
 19 21  2  0  0  0  0
 19 37  1  0  0  0  0
 20 45  1  0  0  0  0
 21 38  1  0  0  0  0
 22 80  1  0  0  0  0
 23 81  1  0  0  0  0
 24 26  2  0  0  0  0
 24 80  1  0  0  0  0
 25 82  1  0  0  0  0
 26 83  1  0  0  0  0
 27 63  2  0  0  0  0
 28 55  1  0  0  0  0
 28 66  1  0  0  0  0
 29 65  1  0  0  0  0
 29 69  1  0  0  0  0
 30 48  1  0  0  0  0
 30 64  1  0  0  0  0
 30 66  2  0  0  0  0
 31 70  1  0  0  0  0
 31 75  2  0  0  0  0
 32 46  1  0  0  0  0
 32 71  1  0  0  0  0
 32 76  2  0  0  0  0
 33 60  1  0  0  0  0
 33 67  1  0  0  0  0
 33 77  2  0  0  0  0
 34 61  1  0  0  0  0
 34 72  1  0  0  0  0
 34 78  2  0  0  0  0
 35 68  1  0  0  0  0
 35 73  1  0  0  0  0
 35 79  2  0  0  0  0
 36 39  1  0  0  0  0
 37 46  1  0  0  0  0
 38 67  1  0  0  0  0
 39 41  1  0  0  0  0
 40 42  1  0  0  0  0
 40 43  1  0  0  0  0
 41 45  1  0  0  0  0
 42 47  1  0  0  0  0
 43 68  1  0  0  0  0
 44 47  1  0  0  0  0
 44 68  1  0  0  0  0
 45 71  1  0  0  0  0
 46 67  1  0  0  0  0
 47 65  1  0  0  0  0
 49 58  1  0  0  0  0
 50 61  1  0  0  0  0
 51 62  1  0  0  0  0
 52 62  1  0  0  0  0
 53 62  1  0  0  0  0
 54 74  1  0  0  0  0
 55 73  1  0  0  0  0
 56 57  1  0  0  0  0
 56 59  1  0  0  0  0
 57 64  1  0  0  0  0
 58 73  1  0  0  0  0
 59 81  1  0  0  0  0
 60 62  1  0  0  0  0
 60 72  1  0  0  0  0
 61 74  1  0  0  0  0
 63 65  1  0  0  0  0
M  CHG  2  66   1  74   1
M  ISO  4  35 100  59 101  73 100  81 101
M  END
> <Batch ID>
0053

> <Smiles>
CC[100N:0](Cc1cn(CC[101CH2:1][101O:1]c2ccc3c(c2)CN(C(=O)C(NC(=O)C(C)NC)C(C)(C)C)C(C(=O)NC2CCCc4ccccc42)C3)c(C)n1)[100C:0](=O)N1CCCC(n2nc(-c3ccc(Oc4ccc(F)cc4F)cc3)c(C(N)=O)c2N)C1

> <Shape>
0.206

> <Color>
0.053

> <Negative vol penalty>
0.000

$$$$

  -OEChem-04052317383D

 81 89  0     1  0  0  0  0  0999 V2000
  -27.4171  -38.0989   21.4802 C   0  0  0  0  0  0  0  0  0  0  0  0
  -27.9732  -36.8856   21.0875 C   0  0  0  0  0  0  0  0  0  0  0  0
  -21.4541  -10.1366   21.8104 C   0  0  0  0  0  0  0  0  0  0  0  0
  -23.7394   -9.6959   21.1621 C   0  0  0  0  0  0  0  0  0  0  0  0
  -26.4500  -38.1287   22.4841 C   0  0  0  0  0  0  0  0  0  0  0  0
  -27.5632  -35.7015   21.6993 C   0  0  0  0  0  0  0  0  0  0  0  0
  -27.0332  -30.1935   19.0749 C   0  0  0  0  0  0  0  0  0  0  0  0
  -21.1735   -8.7717   21.7490 C   0  0  0  0  0  0  0  0  0  0  0  0
  -23.4588   -8.3309   21.1008 C   0  0  0  0  0  0  0  0  0  0  0  0
  -27.8734  -29.0812   19.0509 C   0  0  0  0  0  0  0  0  0  0  0  0
  -23.4372   -4.6954   21.1239 C   0  0  0  0  0  0  0  0  0  0  0  0
  -24.3551   -3.8173   21.7001 C   0  0  0  0  0  0  0  0  0  0  0  0
  -26.6448  -28.1210   20.8915 C   0  0  0  0  0  0  0  0  0  0  0  0
  -27.2255  -19.9963   19.0248 C   0  0  0  0  0  0  0  0  0  0  0  0
  -24.0264   -4.8809   23.8444 C   0  0  0  0  0  0  0  0  0  0  0  0
  -27.9326  -18.7790   20.7820 C   0  0  0  0  0  0  0  0  0  0  0  0
  -22.7371  -10.5988   21.5169 C   0  0  0  0  0  0  0  0  0  0  0  0
  -23.4844  -12.7337   22.6964 C   0  0  0  0  0  0  0  0  0  0  0  0
  -26.0210  -36.9434   23.1017 C   0  0  0  0  0  0  0  0  0  0  0  0
  -25.9976  -30.2831   20.0161 C   0  0  0  0  0  0  0  0  0  0  0  0
  -26.5904  -35.7157   22.7133 C   0  0  0  0  0  0  0  0  0  0  0  0
  -25.7912  -29.2344   20.9237 C   0  0  0  0  0  0  0  0  0  0  0  0
  -27.0446  -18.7805   19.7291 C   0  0  0  0  0  0  0  0  0  0  0  0
  -22.1758   -7.8688   21.3942 C   0  0  0  0  0  0  0  0  0  0  0  0
  -27.6811  -28.0461   19.9612 C   0  0  0  0  0  0  0  0  0  0  0  0
  -22.8140   -5.6663   21.9079 C   0  0  0  0  0  0  0  0  0  0  0  0
  -24.6497   -3.9100   23.0604 C   0  0  0  0  0  0  0  0  0  0  0  0
  -23.1085   -5.7590   23.2681 C   0  0  0  0  0  0  0  0  0  0  0  0
  -23.0275  -12.0087   21.5795 C   0  0  0  0  0  0  0  0  0  0  0  0
  -28.2188  -20.7008   19.6687 C   0  0  0  0  0  0  0  0  0  0  0  0
  -23.6052  -14.0242   22.2420 C   0  0  0  0  0  0  0  0  0  0  0  0
  -23.7737  -12.2811   24.0257 C   0  0  0  0  0  0  0  0  0  0  0  0
  -25.2944  -32.2701   22.3954 C   0  0  0  0  0  0  0  0  0  0  0  0
  -22.5684  -30.5174   22.5347 C   0  0  0  0  0  0  0  0  0  0  0  0
  -20.9847  -27.5663   21.8791 C   0  0  0  0  0  0  0  0  0  0  0  0
  -25.2138  -17.6976   18.3792 C   0  0  0  0  0  0  0  0  0  0  0  0
  -25.0073  -37.0308   24.2151 C   0  0  0  0  0  0  0  0  0  0  0  0
  -25.0833  -31.4775   20.0114 C   0  0  0  0  0  0  0  0  0  0  0  0
  -24.6811  -29.2728   21.9408 C   0  0  0  0  0  0  0  0  0  0  0  0
  -24.3560  -35.6919   24.5523 C   0  0  0  0  0  0  0  0  0  0  0  0
  -22.0350  -16.1584   17.9290 C   0  0  0  0  0  0  0  0  0  0  0  0
  -25.4127  -34.5976   24.6649 C   0  0  0  0  0  0  0  0  0  0  0  0
  -22.0474  -15.0012   18.9305 C   0  0  0  0  0  0  0  0  0  0  0  0
  -23.4087  -16.3764   17.2972 C   0  0  0  0  0  0  0  0  0  0  0  0
  -24.5253  -15.3787   19.2535 C   0  0  0  0  0  0  0  0  0  0  0  0
  -26.1537  -34.4073   23.3359 C   0  0  1  0  0  0  0  0  0  0  0  0
  -24.3815  -31.6979   21.3480 C   0  0  1  0  0  0  0  0  0  0  0  0
  -23.1793  -15.1626   19.9641 C   0  0  2  0  0  0  0  0  0  0  0  0
  -18.7683  -26.4193   22.1420 C   0  0  0  0  0  0  0  0  0  0  0  0
  -23.1472  -30.0836   25.4989 C   0  0  0  0  0  0  0  0  0  0  0  0
  -21.4870  -28.2097   25.4774 C   0  0  0  0  0  0  0  0  0  0  0  0
  -20.7472  -30.5351   24.9598 C   0  0  0  0  0  0  0  0  0  0  0  0
  -29.6739  -20.3223   21.6773 C   0  0  0  0  0  0  0  0  0  0  0  0
  -20.6702  -27.2507   18.9533 C   0  0  0  0  0  0  0  0  0  0  0  0
  -28.8098  -22.0508   19.3495 C   0  0  0  0  0  0  0  0  0  0  0  0
  -28.0893  -23.2191   20.0316 C   0  0  0  0  0  0  0  0  0  0  0  0
  -28.6539  -24.5841   19.6355 C   0  0  0  0  0  0  0  0  0  0  0  0
  -27.9407  -25.7163   20.3620 C   0  0  0  0  0  0  0  0  0  1  0  0
  -22.1354  -29.2704   23.2671 C   0  0  1  0  0  0  0  0  0  0  0  0
  -19.6456  -27.2640   21.2312 C   0  0  2  0  0  0  0  0  0  0  0  0
  -21.9014  -29.5245   24.7830 C   0  0  0  0  0  0  0  0  0  0  0  0
  -22.8688  -12.7749   20.4971 N   0  0  0  0  0  0  0  0  0  0  0  0
  -28.6414  -19.9510   20.7352 N   0  0  0  0  0  0  0  0  0  0  0  0
  -23.2278  -13.9949   20.9317 N   0  0  0  0  0  0  0  0  0  0  0  0
  -23.8177  -30.4646   21.9005 N   0  0  0  0  0  0  0  0  0  0  0  0
  -24.4298  -16.5253   18.3364 N   0  0  0  0  0  0  0  0  0  0  0  0
  -23.9964  -15.1698   22.8395 N   0  0  0  0  0  0  0  0  0  0  0  0
  -23.5953  -10.9231   24.3228 N   0  0  0  0  0  0  0  0  0  0  0  0
  -26.1292  -17.7410   19.4304 N   0  0  0  0  0  0  0  0  0  0  0  0
  -25.3407  -33.6511   22.4077 N   0  0  0  0  0  0  0  0  0  0  0  0
  -20.9643  -28.7663   22.5579 N   0  0  0  0  0  0  0  0  0  0  0  0
  -19.8440  -26.5251   19.9523 N   0  3  0  0  0  0  0  0  0  0  0  0
  -24.1627  -13.0610   24.9279 O   0  0  0  0  0  0  0  0  0  0  0  0
  -25.9099  -31.5146   23.1383 O   0  0  0  0  0  0  0  0  0  0  0  0
  -21.8223  -31.4996   22.5196 O   0  0  0  0  0  0  0  0  0  0  0  0
  -21.9510  -26.8115   21.7948 O   0  0  0  0  0  0  0  0  0  0  0  0
  -25.0641  -18.6087   17.5610 O   0  0  0  0  0  0  0  0  0  0  0  0
  -21.9024   -6.5368   21.3345 O   0  0  0  0  0  0  0  0  0  0  0  0
  -28.5001  -26.9595   19.9404 O   0  0  0  0  0  0  0  0  0  1  0  0
  -25.5299   -3.0657   23.6139 F   0  0  0  0  0  0  0  0  0  0  0  0
  -22.5121   -6.6889   24.0267 F   0  0  0  0  0  0  0  0  0  0  0  0
  1  2  1  0  0  0  0
  1  5  2  0  0  0  0
  2  6  2  0  0  0  0
  3  8  2  0  0  0  0
  3 17  1  0  0  0  0
  4  9  1  0  0  0  0
  4 17  2  0  0  0  0
  5 19  1  0  0  0  0
  6 21  1  0  0  0  0
  7 10  2  0  0  0  0
  7 20  1  0  0  0  0
  8 24  1  0  0  0  0
  9 24  2  0  0  0  0
 10 25  1  0  0  0  0
 11 12  2  0  0  0  0
 11 26  1  0  0  0  0
 12 27  1  0  0  0  0
 13 22  1  0  0  0  0
 13 25  2  0  0  0  0
 14 23  1  0  0  0  0
 14 30  2  0  0  0  0
 15 27  2  0  0  0  0
 15 28  1  0  0  0  0
 16 23  2  0  0  0  0
 16 63  1  0  0  0  0
 17 29  1  0  0  0  0
 18 29  1  0  0  0  0
 18 31  2  0  0  0  0
 18 32  1  0  0  0  0
 19 21  2  0  0  0  0
 19 37  1  0  0  0  0
 20 22  2  0  0  0  0
 20 38  1  0  0  0  0
 21 46  1  0  0  0  0
 22 39  1  0  0  0  0
 23 69  1  0  0  0  0
 24 78  1  0  0  0  0
 25 79  1  0  0  0  0
 26 28  2  0  0  0  0
 26 78  1  0  0  0  0
 27 80  1  0  0  0  0
 28 81  1  0  0  0  0
 29 62  2  0  0  0  0
 30 55  1  0  0  0  0
 30 63  1  0  0  0  0
 31 64  1  0  0  0  0
 31 67  1  0  0  0  0
 32 68  1  0  0  0  0
 32 73  2  0  0  0  0
 33 47  1  0  0  0  0
 33 70  1  0  0  0  0
 33 74  2  0  0  0  0
 34 59  1  0  0  0  0
 34 65  1  0  0  0  0
 34 75  2  0  0  0  0
 35 60  1  0  0  0  0
 35 71  1  0  0  0  0
 35 76  2  0  0  0  0
 36 66  1  0  0  0  0
 36 69  1  0  0  0  0
 36 77  2  0  0  0  0
 37 40  1  0  0  0  0
 38 47  1  0  0  0  0
 39 65  1  0  0  0  0
 40 42  1  0  0  0  0
 41 43  1  0  0  0  0
 41 44  1  0  0  0  0
 42 46  1  0  0  0  0
 43 48  1  0  0  0  0
 44 66  1  0  0  0  0
 45 48  1  0  0  0  0
 45 66  1  0  0  0  0
 46 70  1  0  0  0  0
 47 65  1  0  0  0  0
 48 64  1  0  0  0  0
 49 60  1  0  0  0  0
 50 61  1  0  0  0  0
 51 61  1  0  0  0  0
 52 61  1  0  0  0  0
 53 63  1  0  0  0  0
 54 72  1  0  0  0  0
 55 56  1  0  0  0  0
 56 57  1  0  0  0  0
 57 58  1  0  0  0  0
 58 79  1  0  0  0  0
 59 61  1  0  0  0  0
 59 71  1  0  0  0  0
 60 72  1  0  0  0  0
 62 64  1  0  0  0  0
M  CHG  1  72   1
M  ISO  4  36 100  58 101  69 100  79 101
M  END
> <Batch ID>
0053

> <Smiles>
CNC(C)C(=O)NC(C(=O)N1Cc2cc([101O:1][101CH2:1]CCCc3cc([100NH:0][100C:0](=O)N4CCCC(n5nc(-c6ccc(Oc7ccc(F)cc7F)cc6)c(C(N)=O)c5N)C4)cn3C)ccc2CC1C(=O)NC1CCCc2ccccc21)C(C)(C)C

> <Shape>
0.279

> <Color>
0.081

> <Negative vol penalty>
0.000

$$$$

  -OEChem-04052317383D

 84 92  0     1  0  0  0  0  0999 V2000
  -27.0780  -37.4825   22.8942 C   0  0  0  0  0  0  0  0  0  0  0  0
  -27.6298  -36.3702   22.2666 C   0  0  0  0  0  0  0  0  0  0  0  0
  -22.0803  -10.3459   21.3719 C   0  0  0  0  0  0  0  0  0  0  0  0
  -24.4598  -10.0803   21.6952 C   0  0  0  0  0  0  0  0  0  0  0  0
  -26.1834  -37.3134   23.9501 C   0  0  0  0  0  0  0  0  0  0  0  0
  -27.2880  -35.0881   22.6954 C   0  0  0  0  0  0  0  0  0  0  0  0
  -26.6876  -30.0818   19.2195 C   0  0  0  0  0  0  0  0  0  0  0  0
  -22.0326   -9.1171   20.7136 C   0  0  0  0  0  0  0  0  0  0  0  0
  -24.4121   -8.8514   21.0369 C   0  0  0  0  0  0  0  0  0  0  0  0
  -27.5465  -29.0164   18.9529 C   0  0  0  0  0  0  0  0  0  0  0  0
  -22.0079   -5.8415   21.5517 C   0  0  0  0  0  0  0  0  0  0  0  0
  -20.9786   -4.9636   21.8914 C   0  0  0  0  0  0  0  0  0  0  0  0
  -26.4700  -27.7236   20.6818 C   0  0  0  0  0  0  0  0  0  0  0  0
  -20.1919   -5.0022   19.6074 C   0  0  0  0  0  0  0  0  0  0  0  0
  -28.9332  -23.3420   19.3052 C   0  0  0  0  0  0  0  0  0  0  0  0
  -31.0816  -23.8054   19.4674 C   0  0  0  0  0  0  0  0  0  0  0  0
  -23.2939  -10.8275   21.8627 C   0  0  0  0  0  0  0  0  0  0  0  0
  -23.1828  -12.3300   23.9213 C   0  0  0  0  0  0  0  0  0  0  0  0
  -25.8231  -36.0285   24.3857 C   0  0  0  0  0  0  0  0  0  0  0  0
  -25.7189  -29.9798   20.2284 C   0  0  0  0  0  0  0  0  0  0  0  0
  -26.3887  -34.9017   23.7590 C   0  0  0  0  0  0  0  0  0  0  0  0
  -25.5983  -28.7882   20.9575 C   0  0  0  0  0  0  0  0  0  0  0  0
  -23.1984   -8.3699   20.5461 C   0  0  0  0  0  0  0  0  0  0  0  0
  -27.4397  -27.8382   19.6860 C   0  0  0  0  0  0  0  0  0  0  0  0
  -22.1292   -6.2998   20.2398 C   0  0  0  0  0  0  0  0  0  0  0  0
  -20.0706   -4.5439   20.9193 C   0  0  0  0  0  0  0  0  0  0  0  0
  -21.2212   -5.8801   19.2677 C   0  0  0  0  0  0  0  0  0  0  0  0
  -23.3440  -12.0970   22.5423 C   0  0  0  0  0  0  0  0  0  0  0  0
  -29.1386  -24.6061   19.8055 C   0  0  0  0  0  0  0  0  0  0  0  0
  -23.3170  -13.6901   24.0578 C   0  0  0  0  0  0  0  0  0  0  0  0
  -22.9342  -11.4001   24.9839 C   0  0  0  0  0  0  0  0  0  0  0  0
  -25.1441  -31.5180   22.9500 C   0  0  0  0  0  0  0  0  0  0  0  0
  -22.4710  -29.6806   22.9705 C   0  0  0  0  0  0  0  0  0  0  0  0
  -20.9058  -26.8314   21.9318 C   0  0  0  0  0  0  0  0  0  0  0  0
  -26.1433  -17.7485   21.0332 C   0  0  0  0  0  0  0  0  0  0  0  0
  -24.8885  -35.8963   25.5620 C   0  0  0  0  0  0  0  0  0  0  0  0
  -24.7824  -31.1283   20.4856 C   0  0  0  0  0  0  0  0  0  0  0  0
  -24.5618  -28.6207   22.0374 C   0  0  0  0  0  0  0  0  0  0  0  0
  -24.2899  -34.4999   25.7105 C   0  0  0  0  0  0  0  0  0  0  0  0
  -22.6721  -17.7829   21.6820 C   0  0  0  0  0  0  0  0  0  0  0  0
  -25.3740  -33.4364   25.5670 C   0  0  0  0  0  0  0  0  0  0  0  0
  -22.4292  -16.3353   22.1067 C   0  0  0  0  0  0  0  0  0  0  0  0
  -23.6615  -17.8823   20.5194 C   0  0  0  0  0  0  0  0  0  0  0  0
  -24.7027  -15.7405   21.1907 C   0  0  0  0  0  0  0  0  0  0  0  0
  -26.0236  -33.4945   24.1792 C   0  0  1  0  0  0  0  0  0  0  0  0
  -24.1719  -31.1000   21.8834 C   0  0  1  0  0  0  0  0  0  0  0  0
  -23.7584  -15.6166   22.3964 C   0  0  2  0  0  0  0  0  0  0  0  0
  -18.7371  -25.5864   22.1425 C   0  0  0  0  0  0  0  0  0  0  0  0
  -23.2652  -28.7765   25.7744 C   0  0  0  0  0  0  0  0  0  0  0  0
  -21.6462  -26.8805   25.5461 C   0  0  0  0  0  0  0  0  0  0  0  0
  -20.8246  -29.2348   25.4783 C   0  0  0  0  0  0  0  0  0  0  0  0
  -25.8179  -19.3095   19.0679 C   0  0  0  0  0  0  0  0  0  0  0  0
  -20.3931  -26.9989   19.0218 C   0  0  0  0  0  0  0  0  0  0  0  0
  -30.4455  -19.7756   21.9433 C   0  0  0  0  0  0  0  0  0  0  0  0
  -28.1120  -25.6198   20.2176 C   0  0  0  0  0  0  0  0  0  1  0  0
  -30.5088  -21.5340   18.5760 C   0  0  0  0  0  0  0  0  0  0  0  0
  -27.5007  -19.7940   20.8055 C   0  0  0  0  0  0  0  0  0  0  0  0
  -30.9861  -20.5556   19.6412 C   0  0  0  0  0  0  0  0  0  0  0  0
  -28.8009  -19.4539   20.1011 C   0  0  0  0  0  0  0  0  0  0  0  0
  -22.1161  -28.3156   23.5088 C   0  0  1  0  0  0  0  0  0  0  0  0
  -19.5309  -26.5989   21.3317 C   0  0  2  0  0  0  0  0  0  0  0  0
  -21.9839  -28.3054   25.0579 C   0  0  0  0  0  0  0  0  0  0  0  0
  -30.4781  -24.8886   19.9037 N   0  0  0  0  0  0  0  0  0  0  0  0
  -23.5636  -13.2192   21.8520 N   0  0  0  0  0  0  0  0  0  0  0  0
  -30.1869  -22.8416   19.0931 N   0  0  0  0  0  0  0  0  0  0  0  0
  -23.5412  -14.1704   22.8011 N   0  0  0  0  0  0  0  0  0  0  0  0
  -23.6735  -29.7744   22.2557 N   0  0  0  0  0  0  0  0  0  0  0  0
  -24.8961  -17.1439   20.8179 N   0  0  0  0  0  0  0  0  0  0  0  0
  -23.2637  -14.5100   25.1288 N   0  0  0  0  0  0  0  0  0  0  0  0
  -22.8243  -10.0389   24.6685 N   0  0  0  0  0  0  0  0  0  0  0  0
  -25.1630  -32.8783   23.1922 N   0  0  0  0  0  0  0  0  0  0  0  0
  -20.9086  -27.8999   22.8033 N   0  0  0  0  0  0  0  0  0  0  0  0
  -26.3970  -18.9541   20.3619 N   0  0  0  0  0  0  0  0  0  0  0  0
  -19.6541  -26.0907   19.9361 N   0  3  0  0  0  0  0  0  0  0  0  0
  -29.9145  -20.3187   20.6393 N   0  3  1  0  0  0  0  0  0  0  0  0
  -22.7967  -11.7672   26.1755 O   0  0  0  0  0  0  0  0  0  0  0  0
  -25.8256  -30.6691   23.5126 O   0  0  0  0  0  0  0  0  0  0  0  0
  -21.7058  -30.6272   23.1706 O   0  0  0  0  0  0  0  0  0  0  0  0
  -21.8789  -26.1325   21.6579 O   0  0  0  0  0  0  0  0  0  0  0  0
  -26.9886  -17.2359   21.7781 O   0  0  0  0  0  0  0  0  0  0  0  0
  -23.1522   -7.1707   19.9040 O   0  0  0  0  0  0  0  0  0  0  0  0
  -28.2772  -26.7971   19.4283 O   0  0  0  0  0  0  0  0  0  1  0  0
  -19.0831   -3.6997   21.2453 F   0  0  0  0  0  0  0  0  0  0  0  0
  -21.3334   -6.3160   18.0055 F   0  0  0  0  0  0  0  0  0  0  0  0
  1  2  1  0  0  0  0
  1  5  2  0  0  0  0
  2  6  2  0  0  0  0
  3  8  2  0  0  0  0
  3 17  1  0  0  0  0
  4  9  1  0  0  0  0
  4 17  2  0  0  0  0
  5 19  1  0  0  0  0
  6 21  1  0  0  0  0
  7 10  2  0  0  0  0
  7 20  1  0  0  0  0
  8 23  1  0  0  0  0
  9 23  2  0  0  0  0
 10 24  1  0  0  0  0
 11 12  2  0  0  0  0
 11 25  1  0  0  0  0
 12 26  1  0  0  0  0
 13 22  1  0  0  0  0
 13 24  2  0  0  0  0
 14 26  2  0  0  0  0
 14 27  1  0  0  0  0
 15 29  2  0  0  0  0
 15 65  1  0  0  0  0
 16 63  2  0  0  0  0
 16 65  1  0  0  0  0
 17 28  1  0  0  0  0
 18 28  1  0  0  0  0
 18 30  2  0  0  0  0
 18 31  1  0  0  0  0
 19 21  2  0  0  0  0
 19 36  1  0  0  0  0
 20 22  2  0  0  0  0
 20 37  1  0  0  0  0
 21 45  1  0  0  0  0
 22 38  1  0  0  0  0
 23 81  1  0  0  0  0
 24 82  1  0  0  0  0
 25 27  2  0  0  0  0
 25 81  1  0  0  0  0
 26 83  1  0  0  0  0
 27 84  1  0  0  0  0
 28 64  2  0  0  0  0
 29 55  1  0  0  0  0
 29 63  1  0  0  0  0
 30 66  1  0  0  0  0
 30 69  1  0  0  0  0
 31 70  1  0  0  0  0
 31 76  2  0  0  0  0
 32 46  1  0  0  0  0
 32 71  1  0  0  0  0
 32 77  2  0  0  0  0
 33 60  1  0  0  0  0
 33 67  1  0  0  0  0
 33 78  2  0  0  0  0
 34 61  1  0  0  0  0
 34 72  1  0  0  0  0
 34 79  2  0  0  0  0
 35 68  1  0  0  0  0
 35 73  1  0  0  0  0
 35 80  2  0  0  0  0
 36 39  1  0  0  0  0
 37 46  1  0  0  0  0
 38 67  1  0  0  0  0
 39 41  1  0  0  0  0
 40 42  1  0  0  0  0
 40 43  1  0  0  0  0
 41 45  1  0  0  0  0
 42 47  1  0  0  0  0
 43 68  1  0  0  0  0
 44 47  1  0  0  0  0
 44 68  1  0  0  0  0
 45 71  1  0  0  0  0
 46 67  1  0  0  0  0
 47 66  1  0  0  0  0
 48 61  1  0  0  0  0
 49 62  1  0  0  0  0
 50 62  1  0  0  0  0
 51 62  1  0  0  0  0
 52 73  1  0  0  0  0
 53 74  1  0  0  0  0
 54 75  1  0  0  0  0
 55 82  1  0  0  0  0
 56 58  1  0  0  0  0
 56 65  1  0  0  0  0
 57 59  1  0  0  0  0
 57 73  1  0  0  0  0
 58 75  1  0  0  0  0
 59 75  1  0  0  0  0
 60 62  1  0  0  0  0
 60 72  1  0  0  0  0
 61 74  1  0  0  0  0
 64 66  1  0  0  0  0
M  CHG  2  74   1  75   1
M  ISO  4  35 100  55 101  73 100  82 101
M  END
> <Batch ID>
0053

> <Smiles>
CNC(C)C(=O)NC(C(=O)N1Cc2cc([101O:1][101CH2:1]c3cn(CCN(C)CC[100N:0](C)[100C:0](=O)N4CCCC(n5nc(-c6ccc(Oc7ccc(F)cc7F)cc6)c(C(N)=O)c5N)C4)cn3)ccc2CC1C(=O)NC1CCCc2ccccc21)C(C)(C)C

> <Shape>
0.279

> <Color>
0.070

> <Negative vol penalty>
0.000

$$$$

  -OEChem-04052317383D

 81 89  0     1  0  0  0  0  0999 V2000
  -21.7611  -11.1390   19.7109 C   0  0  0  0  0  0  0  0  0  0  0  0
  -21.5175  -12.3694   20.3128 C   0  0  0  0  0  0  0  0  0  0  0  0
  -27.3648  -32.3065   20.3067 C   0  0  0  0  0  0  0  0  0  0  0  0
  -26.2385  -31.5210   22.2945 C   0  0  0  0  0  0  0  0  0  0  0  0
  -23.0670  -10.6618   19.6064 C   0  0  0  0  0  0  0  0  0  0  0  0
  -22.5795  -13.1228   20.8116 C   0  0  0  0  0  0  0  0  0  0  0  0
  -23.0628  -19.2277   20.8532 C   0  0  0  0  0  0  0  0  0  0  0  0
  -27.3037  -33.6140   20.7887 C   0  0  0  0  0  0  0  0  0  0  0  0
  -26.1775  -32.8285   22.7766 C   0  0  0  0  0  0  0  0  0  0  0  0
  -22.8241  -20.1808   21.8423 C   0  0  0  0  0  0  0  0  0  0  0  0
  -24.2962  -35.5895   22.2582 C   0  0  0  0  0  0  0  0  0  0  0  0
  -23.0885  -36.0228   22.8051 C   0  0  0  0  0  0  0  0  0  0  0  0
  -25.4067  -24.3639   24.0589 C   0  0  0  0  0  0  0  0  0  0  0  0
  -25.1693  -20.1730   22.4072 C   0  0  0  0  0  0  0  0  0  0  0  0
  -24.1923  -36.4381   24.9137 C   0  0  0  0  0  0  0  0  0  0  0  0
  -26.1262  -25.2446   23.2291 C   0  0  0  0  0  0  0  0  0  0  0  0
  -26.8322  -31.2600   21.0596 C   0  0  0  0  0  0  0  0  0  0  0  0
  -27.9229  -28.9716   20.7744 C   0  0  0  0  0  0  0  0  0  0  0  0
  -24.1465  -11.4142   20.0955 C   0  0  0  0  0  0  0  0  0  0  0  0
  -24.3569  -18.7313   20.6406 C   0  0  0  0  0  0  0  0  0  0  0  0
  -23.9009  -12.6546   20.7147 C   0  0  0  0  0  0  0  0  0  0  0  0
  -25.4222  -19.2156   21.4130 C   0  0  0  0  0  0  0  0  0  0  0  0
  -26.7101  -33.8750   22.0236 C   0  0  0  0  0  0  0  0  0  0  0  0
  -23.8769  -20.6515   22.6215 C   0  0  0  0  0  0  0  0  0  0  0  0
  -25.4520  -35.5804   23.0390 C   0  0  0  0  0  0  0  0  0  0  0  0
  -23.0365  -36.4471   24.1328 C   0  0  0  0  0  0  0  0  0  0  0  0
  -25.4001  -36.0048   24.3668 C   0  0  0  0  0  0  0  0  0  0  0  0
  -26.8945  -29.9092   20.5619 C   0  0  0  0  0  0  0  0  0  0  0  0
  -24.1058  -24.4765   23.6328 C   0  0  0  0  0  0  0  0  0  0  0  0
  -27.5098  -27.8498   20.0980 C   0  0  0  0  0  0  0  0  0  0  0  0
  -29.1424  -29.1029   21.5167 C   0  0  0  0  0  0  0  0  0  0  0  0
  -25.7216  -15.8674   20.8399 C   0  0  0  0  0  0  0  0  0  0  0  0
  -28.2799  -17.4314   19.6024 C   0  0  0  0  0  0  0  0  0  0  0  0
  -29.9242  -20.3862   19.1415 C   0  0  0  0  0  0  0  0  0  0  0  0
  -21.8214  -26.2717   18.4579 C   0  0  0  0  0  0  0  0  0  0  0  0
  -25.5361  -10.8354   20.0022 C   0  0  0  0  0  0  0  0  0  0  0  0
  -24.6022  -17.7231   19.5516 C   0  0  0  0  0  0  0  0  0  0  0  0
  -26.8334  -18.7297   21.2109 C   0  0  0  0  0  0  0  0  0  0  0  0
  -26.6410  -11.8659   20.2201 C   0  0  0  0  0  0  0  0  0  0  0  0
  -24.8655  -26.4768   16.3620 C   0  0  0  0  0  0  0  0  0  0  0  0
  -26.3330  -12.7291   21.4394 C   0  0  0  0  0  0  0  0  0  0  0  0
  -25.7866  -27.3635   17.1983 C   0  0  0  0  0  0  0  0  0  0  0  0
  -23.3937  -26.7806   16.6248 C   0  0  0  0  0  0  0  0  0  0  0  0
  -23.9315  -27.5935   18.8972 C   0  0  0  0  0  0  0  0  0  0  0  0
  -25.0290  -13.5123   21.2457 C   0  0  1  0  0  0  0  0  0  0  0  0
  -25.8739  -16.9084   19.7671 C   0  0  1  0  0  0  0  0  0  0  0  0
  -25.4211  -27.2808   18.6906 C   0  0  2  0  0  0  0  0  0  0  0  0
  -32.0094  -21.3423   18.1243 C   0  0  0  0  0  0  0  0  0  0  0  0
  -29.9133  -16.3531   21.9432 C   0  0  0  0  0  0  0  0  0  0  0  0
  -31.6658  -18.0620   21.4171 C   0  0  0  0  0  0  0  0  0  0  0  0
  -31.0935  -16.3074   19.7388 C   0  0  0  0  0  0  0  0  0  0  0  0
  -20.4608  -25.1175   20.1598 C   0  0  0  0  0  0  0  0  0  0  0  0
  -28.3751  -22.0913   17.2835 C   0  0  0  0  0  0  0  0  0  0  0  0
  -22.8441  -23.7986   24.1092 C   0  0  0  0  0  0  0  0  0  0  0  0
  -22.9952  -25.8391   21.8370 C   0  0  0  0  0  0  0  0  0  0  0  0
  -22.9082  -25.1777   20.4640 C   0  0  0  0  0  0  0  0  0  0  0  0
  -22.5718  -22.4939   23.3685 C   0  0  0  0  0  0  0  0  0  1  0  0
  -29.4556  -18.1822   20.1795 C   0  0  1  0  0  0  0  0  0  0  0  0
  -30.5411  -21.0133   17.9043 C   0  0  2  0  0  0  0  0  0  0  0  0
  -30.5053  -17.2341   20.8250 C   0  0  0  0  0  0  0  0  0  0  0  0
  -25.3472  -25.8703   22.3428 N   0  0  0  0  0  0  0  0  0  0  0  0
  -25.9028  -29.4252   19.8094 N   0  0  0  0  0  0  0  0  0  0  0  0
  -24.1246  -25.3822   22.6132 N   0  0  0  0  0  0  0  0  0  0  0  0
  -26.3061  -28.1713   19.5430 N   0  0  0  0  0  0  0  0  0  0  0  0
  -27.0213  -17.7391   20.1381 N   0  0  0  0  0  0  0  0  0  0  0  0
  -23.0833  -26.7377   18.0541 N   0  0  0  0  0  0  0  0  0  0  0  0
  -28.0624  -26.6296   19.9299 N   0  0  0  0  0  0  0  0  0  0  0  0
  -29.4108  -30.3239   22.1503 N   0  0  0  0  0  0  0  0  0  0  0  0
  -25.2479  -14.6528   20.3820 N   0  0  0  0  0  0  0  0  0  0  0  0
  -29.9820  -19.0092   19.0990 N   0  0  0  0  0  0  0  0  0  0  0  0
  -21.7453  -25.6284   19.7026 N   0  0  0  0  0  0  0  0  0  0  0  0
  -29.8255  -22.2715   17.5497 N   0  3  0  0  0  0  0  0  0  0  0  0
  -29.9774  -28.1706   21.6016 O   0  0  0  0  0  0  0  0  0  0  0  0
  -26.0137  -16.1452   21.9971 O   0  0  0  0  0  0  0  0  0  0  0  0
  -28.4704  -16.6075   18.7043 O   0  0  0  0  0  0  0  0  0  0  0  0
  -29.4427  -21.0514   20.0560 O   0  0  0  0  0  0  0  0  0  0  0  0
  -20.8216  -26.4135   17.7422 O   0  0  0  0  0  0  0  0  0  0  0  0
  -26.6505  -35.1507   22.4944 O   0  0  0  0  0  0  0  0  0  0  0  0
  -23.6466  -21.5813   23.5880 O   0  0  0  0  0  0  0  0  0  1  0  0
  -21.8769  -36.8647   24.6574 F   0  0  0  0  0  0  0  0  0  0  0  0
  -26.5074  -35.9995   25.1215 F   0  0  0  0  0  0  0  0  0  0  0  0
  1  2  1  0  0  0  0
  1  5  2  0  0  0  0
  2  6  2  0  0  0  0
  3  8  2  0  0  0  0
  3 17  1  0  0  0  0
  4  9  1  0  0  0  0
  4 17  2  0  0  0  0
  5 19  1  0  0  0  0
  6 21  1  0  0  0  0
  7 10  2  0  0  0  0
  7 20  1  0  0  0  0
  8 23  1  0  0  0  0
  9 23  2  0  0  0  0
 10 24  1  0  0  0  0
 11 12  2  0  0  0  0
 11 25  1  0  0  0  0
 12 26  1  0  0  0  0
 13 16  1  0  0  0  0
 13 29  2  0  0  0  0
 14 22  1  0  0  0  0
 14 24  2  0  0  0  0
 15 26  2  0  0  0  0
 15 27  1  0  0  0  0
 16 61  2  0  0  0  0
 17 28  1  0  0  0  0
 18 28  1  0  0  0  0
 18 30  2  0  0  0  0
 18 31  1  0  0  0  0
 19 21  2  0  0  0  0
 19 36  1  0  0  0  0
 20 22  2  0  0  0  0
 20 37  1  0  0  0  0
 21 45  1  0  0  0  0
 22 38  1  0  0  0  0
 23 78  1  0  0  0  0
 24 79  1  0  0  0  0
 25 27  2  0  0  0  0
 25 78  1  0  0  0  0
 26 80  1  0  0  0  0
 27 81  1  0  0  0  0
 28 62  2  0  0  0  0
 29 54  1  0  0  0  0
 29 63  1  0  0  0  0
 30 64  1  0  0  0  0
 30 67  1  0  0  0  0
 31 68  1  0  0  0  0
 31 73  2  0  0  0  0
 32 46  1  0  0  0  0
 32 69  1  0  0  0  0
 32 74  2  0  0  0  0
 33 58  1  0  0  0  0
 33 65  1  0  0  0  0
 33 75  2  0  0  0  0
 34 59  1  0  0  0  0
 34 70  1  0  0  0  0
 34 76  2  0  0  0  0
 35 66  1  0  0  0  0
 35 71  1  0  0  0  0
 35 77  2  0  0  0  0
 36 39  1  0  0  0  0
 37 46  1  0  0  0  0
 38 65  1  0  0  0  0
 39 41  1  0  0  0  0
 40 42  1  0  0  0  0
 40 43  1  0  0  0  0
 41 45  1  0  0  0  0
 42 47  1  0  0  0  0
 43 66  1  0  0  0  0
 44 47  1  0  0  0  0
 44 66  1  0  0  0  0
 45 69  1  0  0  0  0
 46 65  1  0  0  0  0
 47 64  1  0  0  0  0
 48 59  1  0  0  0  0
 49 60  1  0  0  0  0
 50 60  1  0  0  0  0
 51 60  1  0  0  0  0
 52 71  1  0  0  0  0
 53 72  1  0  0  0  0
 54 57  1  0  0  0  0
 55 56  1  0  0  0  0
 55 63  1  0  0  0  0
 56 71  1  0  0  0  0
 57 79  1  0  0  0  0
 58 60  1  0  0  0  0
 58 70  1  0  0  0  0
 59 72  1  0  0  0  0
 61 63  1  0  0  0  0
 62 64  1  0  0  0  0
M  CHG  1  72   1
M  ISO  4  35 100  57 101  71 100  79 101
M  END
> <Batch ID>
0053

> <Smiles>
CNC(C)C(=O)NC(C(=O)N1Cc2cc([101O:1][101CH2:1]Cc3ccnn3CC[100N:0](C)[100C:0](=O)N3CCCC(n4nc(-c5ccc(Oc6ccc(F)cc6F)cc5)c(C(N)=O)c4N)C3)ccc2CC1C(=O)NC1CCCc2ccccc21)C(C)(C)C

> <Shape>
0.222

> <Color>
0.088

> <Negative vol penalty>
0.000

$$$$

  -OEChem-04052317383D

 84 92  0     1  0  0  0  0  0999 V2000
  -20.5625  -20.4633   23.8170 C   0  0  0  0  0  0  0  0  0  0  0  0
  -21.8167  -20.8290   23.3387 C   0  0  0  0  0  0  0  0  0  0  0  0
  -25.5692  -14.1612   21.1730 C   0  0  0  0  0  0  0  0  0  0  0  0
  -25.4503  -14.3523   18.7676 C   0  0  0  0  0  0  0  0  0  0  0  0
  -19.4603  -21.2830   23.5779 C   0  0  0  0  0  0  0  0  0  0  0  0
  -21.9691  -22.0142   22.6200 C   0  0  0  0  0  0  0  0  0  0  0  0
  -26.8152  -25.7582   22.6795 C   0  0  0  0  0  0  0  0  0  0  0  0
  -24.5759  -13.1824   21.1444 C   0  0  0  0  0  0  0  0  0  0  0  0
  -24.4570  -13.3734   18.7389 C   0  0  0  0  0  0  0  0  0  0  0  0
  -27.8995  -25.9028   21.8150 C   0  0  0  0  0  0  0  0  0  0  0  0
  -22.3267  -10.3755   21.6716 C   0  0  0  0  0  0  0  0  0  0  0  0
  -22.5186   -9.2338   22.4496 C   0  0  0  0  0  0  0  0  0  0  0  0
  -26.7530  -27.7010   20.6875 C   0  0  0  0  0  0  0  0  0  0  0  0
  -24.5414   -8.7391   21.2245 C   0  0  0  0  0  0  0  0  0  0  0  0
  -30.5635  -24.7672   18.4881 C   0  0  0  0  0  0  0  0  0  0  0  0
  -26.0064  -14.7462   19.9846 C   0  0  0  0  0  0  0  0  0  0  0  0
  -28.4234  -15.5602   19.9289 C   0  0  0  0  0  0  0  0  0  0  0  0
  -19.6011  -22.4836   22.8642 C   0  0  0  0  0  0  0  0  0  0  0  0
  -25.6852  -26.5780   22.5473 C   0  0  0  0  0  0  0  0  0  0  0  0
  -20.8675  -22.8501   22.3700 C   0  0  0  0  0  0  0  0  0  0  0  0
  -25.6568  -27.5665   21.5532 C   0  0  0  0  0  0  0  0  0  0  0  0
  -24.0198  -12.7885   19.9274 C   0  0  0  0  0  0  0  0  0  0  0  0
  -27.8673  -26.8724   20.8170 C   0  0  0  0  0  0  0  0  0  0  0  0
  -23.2421  -10.6990   20.6700 C   0  0  0  0  0  0  0  0  0  0  0  0
  -23.6260   -8.4156   22.2261 C   0  0  0  0  0  0  0  0  0  0  0  0
  -24.3494   -9.8808   20.4465 C   0  0  0  0  0  0  0  0  0  0  0  0
  -27.0321  -15.7577   20.0136 C   0  0  0  0  0  0  0  0  0  0  0  0
  -30.5354  -23.3933   18.3623 C   0  0  0  0  0  0  0  0  0  0  0  0
  -29.7433  -25.4628   17.6234 C   0  0  0  0  0  0  0  0  0  0  0  0
  -28.9547  -16.8247   20.0023 C   0  0  0  0  0  0  0  0  0  0  0  0
  -29.0137  -23.5281   16.6790 C   0  0  0  0  0  0  0  0  0  0  0  0
  -29.1688  -14.3427   19.7958 C   0  0  0  0  0  0  0  0  0  0  0  0
  -22.6112  -26.0756   21.9137 C   0  0  0  0  0  0  0  0  0  0  0  0
  -22.3658  -29.2499   22.5351 C   0  0  0  0  0  0  0  0  0  0  0  0
  -23.8900  -32.2999   22.6807 C   0  0  0  0  0  0  0  0  0  0  0  0
  -26.7791  -22.2445   18.6821 C   0  0  0  0  0  0  0  0  0  0  0  0
  -18.3720  -23.3135   22.5899 C   0  0  0  0  0  0  0  0  0  0  0  0
  -24.5350  -26.4272   23.5047 C   0  0  0  0  0  0  0  0  0  0  0  0
  -24.4758  -28.4854   21.3822 C   0  0  0  0  0  0  0  0  0  0  0  0
  -18.6866  -24.7387   22.1426 C   0  0  0  0  0  0  0  0  0  0  0  0
  -28.0657  -21.1602   21.8199 C   0  0  0  0  0  0  0  0  0  0  0  0
  -19.7705  -24.7343   21.0692 C   0  0  0  0  0  0  0  0  0  0  0  0
  -28.0722  -19.6348   21.7051 C   0  0  0  0  0  0  0  0  0  0  0  0
  -26.8594  -21.7742   21.1129 C   0  0  0  0  0  0  0  0  0  0  0  0
  -26.7008  -19.8432   19.5898 C   0  0  0  0  0  0  0  0  0  0  0  0
  -21.0777  -24.1403   21.6076 C   0  0  1  0  0  0  0  0  0  0  0  0
  -23.2221  -26.9735   22.9522 C   0  0  1  0  0  0  0  0  0  0  0  0
  -27.9285  -19.1822   20.2396 C   0  0  2  0  0  0  0  0  0  0  0  0
  -31.3885  -22.5556   19.2548 C   0  0  0  0  0  0  0  0  0  0  0  0
  -23.4228  -34.7136   23.1840 C   0  0  0  0  0  0  0  0  0  0  0  0
  -28.6992  -21.4733   15.1378 C   0  0  0  0  0  0  0  0  0  0  0  0
  -27.9782  -23.7304   14.4021 C   0  0  0  0  0  0  0  0  0  0  0  0
  -20.9942  -29.5469   19.8258 C   0  0  0  0  0  0  0  0  0  0  0  0
  -21.4113  -32.0117   19.9629 C   0  0  0  0  0  0  0  0  0  0  0  0
  -19.9709  -30.8956   21.6665 C   0  0  0  0  0  0  0  0  0  0  0  0
  -25.8201  -32.3259   24.9242 C   0  0  0  0  0  0  0  0  0  0  0  0
  -29.7043  -26.9704   17.6865 C   0  0  0  0  0  0  0  0  0  0  0  0
  -26.7042  -22.5545   16.2209 C   0  0  0  0  0  0  0  0  0  0  0  0
  -28.6422  -27.4829   18.6531 C   0  0  0  0  0  0  0  0  0  1  0  0
  -22.4694  -30.5115   21.7124 C   0  0  1  0  0  0  0  0  0  0  0  0
  -23.8842  -33.3789   23.7484 C   0  0  2  0  0  0  0  0  0  0  0  0
  -28.1500  -22.8404   15.6765 C   0  0  0  0  0  0  0  0  0  0  0  0
  -21.2330  -30.7230   20.7936 C   0  0  0  0  0  0  0  0  0  0  0  0
  -26.7004  -17.0461   20.1318 N   0  0  0  0  0  0  0  0  0  0  0  0
  -29.7695  -22.7382   17.4653 N   0  0  0  0  0  0  0  0  0  0  0  0
  -28.9525  -24.8732   16.7029 N   0  0  0  0  0  0  0  0  0  0  0  0
  -27.8909  -17.6697   20.1221 N   0  0  0  0  0  0  0  0  0  0  0  0
  -23.3731  -28.2946   22.3389 N   0  0  0  0  0  0  0  0  0  0  0  0
  -26.7815  -21.3059   19.7271 N   0  0  0  0  0  0  0  0  0  0  0  0
  -30.2235  -17.2850   19.9754 N   0  0  0  0  0  0  0  0  0  0  0  0
  -28.4655  -13.1320   19.7352 N   0  0  0  0  0  0  0  0  0  0  0  0
  -21.7712  -25.1078   22.4307 N   0  0  0  0  0  0  0  0  0  0  0  0
  -22.7038  -31.5974   22.6581 N   0  0  0  0  0  0  0  0  0  0  0  0
  -26.7093  -21.7160   17.3989 N   0  0  0  0  0  0  0  0  0  0  0  0
  -25.2517  -33.5554   24.3140 N   0  3  0  0  0  0  0  0  0  0  0  0
  -30.4223  -14.3277   19.7491 O   0  0  0  0  0  0  0  0  0  0  0  0
  -22.8806  -26.2491   20.7310 O   0  0  0  0  0  0  0  0  0  0  0  0
  -21.4298  -29.1201   23.3279 O   0  0  0  0  0  0  0  0  0  0  0  0
  -24.8494  -32.1026   21.9383 O   0  0  0  0  0  0  0  0  0  0  0  0
  -26.8403  -23.4631   18.8780 O   0  0  0  0  0  0  0  0  0  0  0  0
  -23.0506  -11.8333   19.8990 O   0  0  0  0  0  0  0  0  0  0  0  0
  -28.9239  -27.0152   19.9715 O   0  0  0  0  0  0  0  0  0  1  0  0
  -23.8110   -7.3201   22.9743 F   0  0  0  0  0  0  0  0  0  0  0  0
  -25.2329  -10.1870   19.4866 F   0  0  0  0  0  0  0  0  0  0  0  0
  1  2  1  0  0  0  0
  1  5  2  0  0  0  0
  2  6  2  0  0  0  0
  3  8  2  0  0  0  0
  3 16  1  0  0  0  0
  4  9  1  0  0  0  0
  4 16  2  0  0  0  0
  5 18  1  0  0  0  0
  6 20  1  0  0  0  0
  7 10  2  0  0  0  0
  7 19  1  0  0  0  0
  8 22  1  0  0  0  0
  9 22  2  0  0  0  0
 10 23  1  0  0  0  0
 11 12  2  0  0  0  0
 11 24  1  0  0  0  0
 12 25  1  0  0  0  0
 13 21  1  0  0  0  0
 13 23  2  0  0  0  0
 14 25  2  0  0  0  0
 14 26  1  0  0  0  0
 15 28  2  0  0  0  0
 15 29  1  0  0  0  0
 16 27  1  0  0  0  0
 17 27  1  0  0  0  0
 17 30  2  0  0  0  0
 17 32  1  0  0  0  0
 18 20  2  0  0  0  0
 18 37  1  0  0  0  0
 19 21  2  0  0  0  0
 19 38  1  0  0  0  0
 20 46  1  0  0  0  0
 21 39  1  0  0  0  0
 22 81  1  0  0  0  0
 23 82  1  0  0  0  0
 24 26  2  0  0  0  0
 24 81  1  0  0  0  0
 25 83  1  0  0  0  0
 26 84  1  0  0  0  0
 27 64  2  0  0  0  0
 28 49  1  0  0  0  0
 28 65  1  0  0  0  0
 29 57  1  0  0  0  0
 29 66  2  0  0  0  0
 30 67  1  0  0  0  0
 30 70  1  0  0  0  0
 31 62  1  0  0  0  0
 31 65  2  0  0  0  0
 31 66  1  0  0  0  0
 32 71  1  0  0  0  0
 32 76  2  0  0  0  0
 33 47  1  0  0  0  0
 33 72  1  0  0  0  0
 33 77  2  0  0  0  0
 34 60  1  0  0  0  0
 34 68  1  0  0  0  0
 34 78  2  0  0  0  0
 35 61  1  0  0  0  0
 35 73  1  0  0  0  0
 35 79  2  0  0  0  0
 36 69  1  0  0  0  0
 36 74  1  0  0  0  0
 36 80  2  0  0  0  0
 37 40  1  0  0  0  0
 38 47  1  0  0  0  0
 39 68  1  0  0  0  0
 40 42  1  0  0  0  0
 41 43  1  0  0  0  0
 41 44  1  0  0  0  0
 42 46  1  0  0  0  0
 43 48  1  0  0  0  0
 44 69  1  0  0  0  0
 45 48  1  0  0  0  0
 45 69  1  0  0  0  0
 46 72  1  0  0  0  0
 47 68  1  0  0  0  0
 48 67  1  0  0  0  0
 50 61  1  0  0  0  0
 51 62  1  0  0  0  0
 52 62  1  0  0  0  0
 53 63  1  0  0  0  0
 54 63  1  0  0  0  0
 55 63  1  0  0  0  0
 56 75  1  0  0  0  0
 57 59  1  0  0  0  0
 58 62  1  0  0  0  0
 58 74  1  0  0  0  0
 59 82  1  0  0  0  0
 60 63  1  0  0  0  0
 60 73  1  0  0  0  0
 61 75  1  0  0  0  0
 64 67  1  0  0  0  0
M  CHG  1  75   1
M  ISO  4  36 100  59 101  74 100  82 101
M  END
> <Batch ID>
0053

> <Smiles>
CNC(C)C(=O)NC(C(=O)N1Cc2cc([101O:1][101CH2:1]Cc3cc(C)nc(C(C)(C)C[100NH:0][100C:0](=O)N4CCCC(n5nc(-c6ccc(Oc7ccc(F)cc7F)cc6)c(C(N)=O)c5N)C4)n3)ccc2CC1C(=O)NC1CCCc2ccccc21)C(C)(C)C

> <Shape>
0.247

> <Color>
0.066

> <Negative vol penalty>
0.000

$$$$

  -OEChem-04052317383D

 84 93  0     1  0  0  0  0  0999 V2000
  -30.6176  -31.9771   15.5427 C   0  0  0  0  0  0  0  0  0  0  0  0
  -30.5846  -30.5883   15.4672 C   0  0  0  0  0  0  0  0  0  0  0  0
  -23.1931  -15.7982   22.4409 C   0  0  0  0  0  0  0  0  0  0  0  0
  -22.3722  -15.5396   20.1834 C   0  0  0  0  0  0  0  0  0  0  0  0
  -30.2930  -32.6169   16.7382 C   0  0  0  0  0  0  0  0  0  0  0  0
  -30.2280  -29.8385   16.5875 C   0  0  0  0  0  0  0  0  0  0  0  0
  -26.9084  -23.7578   18.4100 C   0  0  0  0  0  0  0  0  0  0  0  0
  -22.2165  -16.7637   22.6854 C   0  0  0  0  0  0  0  0  0  0  0  0
  -21.3956  -16.5050   20.4279 C   0  0  0  0  0  0  0  0  0  0  0  0
  -27.1095  -22.6075   19.1716 C   0  0  0  0  0  0  0  0  0  0  0  0
  -21.7286  -20.0393   22.0097 C   0  0  0  0  0  0  0  0  0  0  0  0
  -22.1211  -21.2049   22.6676 C   0  0  0  0  0  0  0  0  0  0  0  0
  -26.4917  -23.8240   21.1610 C   0  0  0  0  0  0  0  0  0  0  0  0
  -20.5615  -20.7243   24.4492 C   0  0  0  0  0  0  0  0  0  0  0  0
  -26.7773  -18.1290   21.7731 C   0  0  0  0  0  0  0  0  0  0  0  0
  -31.2660  -13.9763   22.7990 C   0  0  0  0  0  0  0  0  0  0  0  0
  -28.6521  -19.0181   22.5009 C   0  0  0  0  0  0  0  0  0  0  0  0
  -23.2710  -15.1862   21.1899 C   0  0  0  0  0  0  0  0  0  0  0  0
  -24.1709  -12.7998   21.1351 C   0  0  0  0  0  0  0  0  0  0  0  0
  -29.9229  -31.8750   17.8710 C   0  0  0  0  0  0  0  0  0  0  0  0
  -26.5074  -24.9547   19.0207 C   0  0  0  0  0  0  0  0  0  0  0  0
  -29.8994  -30.4690   17.7996 C   0  0  0  0  0  0  0  0  0  0  0  0
  -26.2838  -24.9874   20.4045 C   0  0  0  0  0  0  0  0  0  0  0  0
  -27.6491  -19.2181   21.5841 C   0  0  0  0  0  0  0  0  0  0  0  0
  -21.3177  -17.1170   21.6790 C   0  0  0  0  0  0  0  0  0  0  0  0
  -26.9039  -22.6412   20.5477 C   0  0  0  0  0  0  0  0  0  0  0  0
  -20.7525  -19.2162   22.5714 C   0  0  0  0  0  0  0  0  0  0  0  0
  -21.5376  -21.5474   23.8874 C   0  0  0  0  0  0  0  0  0  0  0  0
  -20.1690  -19.5587   23.7912 C   0  0  0  0  0  0  0  0  0  0  0  0
  -24.2799  -14.1892   20.9365 C   0  0  0  0  0  0  0  0  0  0  0  0
  -30.7037  -14.8888   21.9336 C   0  0  0  0  0  0  0  0  0  0  0  0
  -30.4391  -15.1533   24.5772 C   0  0  0  0  0  0  0  0  0  0  0  0
  -29.8767  -16.0657   23.7118 C   0  0  0  0  0  0  0  0  0  0  0  0
  -25.3906  -12.3009   20.7479 C   0  0  0  0  0  0  0  0  0  0  0  0
  -23.0659  -12.0291   21.6257 C   0  0  0  0  0  0  0  0  0  0  0  0
  -30.8431  -14.7503   20.4782 C   0  0  0  0  0  0  0  0  0  0  0  0
  -27.7723  -27.8559   19.3160 C   0  0  0  0  0  0  0  0  0  0  0  0
  -24.9024  -28.5447   20.6621 C   0  0  0  0  0  0  0  0  0  0  0  0
  -22.1170  -27.4192   22.2812 C   0  0  0  0  0  0  0  0  0  0  0  0
  -29.6262  -32.6092   19.1546 C   0  0  0  0  0  0  0  0  0  0  0  0
  -26.2690  -26.1799   18.1814 C   0  0  0  0  0  0  0  0  0  0  0  0
  -25.8334  -26.2420   21.1056 C   0  0  0  0  0  0  0  0  0  0  0  0
  -28.8959  -31.7567   20.1891 C   0  0  0  0  0  0  0  0  0  0  0  0
  -29.0537  -13.2058   17.8035 C   0  0  0  0  0  0  0  0  0  0  0  0
  -29.5555  -30.3870   20.3137 C   0  0  0  0  0  0  0  0  0  0  0  0
  -27.6116  -13.1693   18.3126 C   0  0  0  0  0  0  0  0  0  0  0  0
  -29.7821  -14.4659   18.2639 C   0  0  0  0  0  0  0  0  0  0  0  0
  -28.3073  -14.6570   20.2370 C   0  0  0  0  0  0  0  0  0  0  0  0
  -29.4936  -29.6220   18.9862 C   0  0  1  0  0  0  0  0  0  0  0  0
  -26.3577  -27.4773   18.9792 C   0  0  1  0  0  0  0  0  0  0  0  0
  -27.5530  -13.3781   19.8375 C   0  0  1  0  0  0  0  0  0  0  0  0
  -30.2963  -15.2934   26.0543 C   0  0  0  0  0  0  0  0  0  0  0  0
  -19.9628  -28.2234   23.2863 C   0  0  0  0  0  0  0  0  0  0  0  0
  -26.4325  -29.6260   23.0703 C   0  0  0  0  0  0  0  0  0  0  0  0
  -24.3025  -29.5225   24.3821 C   0  0  0  0  0  0  0  0  0  0  0  0
  -24.4623  -31.0039   22.3815 C   0  0  0  0  0  0  0  0  0  0  0  0
  -20.5023  -25.7725   20.4265 C   0  0  0  0  0  0  0  0  0  0  0  0
  -27.5164  -20.3438   20.6010 C   0  0  0  0  0  0  0  0  0  1  0  0
  -29.0915  -17.2459   24.2169 C   0  0  0  0  0  0  0  0  0  0  0  0
  -24.3398  -28.4989   22.0622 C   0  0  1  0  0  0  0  0  0  0  0  0
  -20.6400  -27.6739   22.0404 C   0  0  2  0  0  0  0  0  0  0  0  0
  -24.8946  -29.6396   22.9614 C   0  0  0  0  0  0  0  0  0  0  0  0
  -31.1439  -14.0922   24.1364 N   0  0  0  0  0  0  0  0  0  0  0  0
  -27.1903  -17.2987   22.7344 N   0  0  0  0  0  0  0  0  0  0  0  0
  -25.4746  -14.5499   20.4603 N   0  0  0  0  0  0  0  0  0  0  0  0
  -29.9988  -15.9499   22.3745 N   0  0  0  0  0  0  0  0  0  0  0  0
  -28.3327  -17.8661   23.1575 N   0  0  0  0  0  0  0  0  0  0  0  0
  -26.1274  -13.3798   20.3565 N   0  0  0  0  0  0  0  0  0  0  0  0
  -29.6805  -14.6215   19.7144 N   0  0  0  0  0  0  0  0  0  0  0  0
  -25.6199  -27.4155   20.2425 N   0  0  0  0  0  0  0  0  0  0  0  0
  -25.8939  -11.0489   20.7075 N   0  0  0  0  0  0  0  0  0  0  0  0
  -21.8872  -12.7005   21.9782 N   0  0  0  0  0  0  0  0  0  0  0  0
  -28.1725  -29.0667   18.7840 N   0  0  0  0  0  0  0  0  0  0  0  0
  -22.8879  -28.5036   21.9190 N   0  0  0  0  0  0  0  0  0  0  0  0
  -19.9532  -26.4099   21.6509 N   0  3  0  0  0  0  0  0  0  0  0  0
  -23.1278  -10.7838   21.7633 O   0  0  0  0  0  0  0  0  0  0  0  0
  -31.9926  -14.7465   20.0403 O   0  0  0  0  0  0  0  0  0  0  0  0
  -28.4499  -27.1057   20.0086 O   0  0  0  0  0  0  0  0  0  0  0  0
  -24.7063  -29.5425   19.9638 O   0  0  0  0  0  0  0  0  0  0  0  0
  -22.5438  -26.3654   22.7478 O   0  0  0  0  0  0  0  0  0  0  0  0
  -20.3645  -18.0589   21.9173 O   0  0  0  0  0  0  0  0  0  0  0  0
  -27.1000  -21.5200   21.2936 O   0  0  0  0  0  0  0  0  0  1  0  0
  -21.9157  -22.6659   24.5199 F   0  0  0  0  0  0  0  0  0  0  0  0
  -19.2317  -18.7713   24.3364 F   0  0  0  0  0  0  0  0  0  0  0  0
  1  2  1  0  0  0  0
  1  5  2  0  0  0  0
  2  6  2  0  0  0  0
  3  8  2  0  0  0  0
  3 18  1  0  0  0  0
  4  9  1  0  0  0  0
  4 18  2  0  0  0  0
  5 20  1  0  0  0  0
  6 22  1  0  0  0  0
  7 10  2  0  0  0  0
  7 21  1  0  0  0  0
  8 25  1  0  0  0  0
  9 25  2  0  0  0  0
 10 26  1  0  0  0  0
 11 12  2  0  0  0  0
 11 27  1  0  0  0  0
 12 28  1  0  0  0  0
 13 23  1  0  0  0  0
 13 26  2  0  0  0  0
 14 28  2  0  0  0  0
 14 29  1  0  0  0  0
 15 24  1  0  0  0  0
 15 64  2  0  0  0  0
 16 31  1  0  0  0  0
 16 63  2  0  0  0  0
 17 24  2  0  0  0  0
 17 67  1  0  0  0  0
 18 30  1  0  0  0  0
 19 30  1  0  0  0  0
 19 34  2  0  0  0  0
 19 35  1  0  0  0  0
 20 22  2  0  0  0  0
 20 40  1  0  0  0  0
 21 23  2  0  0  0  0
 21 41  1  0  0  0  0
 22 49  1  0  0  0  0
 23 42  1  0  0  0  0
 24 58  1  0  0  0  0
 25 81  1  0  0  0  0
 26 82  1  0  0  0  0
 27 29  2  0  0  0  0
 27 81  1  0  0  0  0
 28 83  1  0  0  0  0
 29 84  1  0  0  0  0
 30 65  2  0  0  0  0
 31 36  1  0  0  0  0
 31 66  2  0  0  0  0
 32 33  2  0  0  0  0
 32 52  1  0  0  0  0
 32 63  1  0  0  0  0
 33 59  1  0  0  0  0
 33 66  1  0  0  0  0
 34 68  1  0  0  0  0
 34 71  1  0  0  0  0
 35 72  1  0  0  0  0
 35 76  2  0  0  0  0
 36 69  1  0  0  0  0
 36 77  2  0  0  0  0
 37 50  1  0  0  0  0
 37 73  1  0  0  0  0
 37 78  2  0  0  0  0
 38 60  1  0  0  0  0
 38 70  1  0  0  0  0
 38 79  2  0  0  0  0
 39 61  1  0  0  0  0
 39 74  1  0  0  0  0
 39 80  2  0  0  0  0
 40 43  1  0  0  0  0
 41 50  1  0  0  0  0
 42 70  1  0  0  0  0
 43 45  1  0  0  0  0
 44 46  1  0  0  0  0
 44 47  1  0  0  0  0
 45 49  1  0  0  0  0
 46 51  1  0  0  0  0
 47 69  1  0  0  0  0
 48 51  1  0  0  0  0
 48 69  1  0  0  0  0
 49 73  1  0  0  0  0
 50 70  1  0  0  0  0
 51 68  1  0  0  0  0
 53 61  1  0  0  0  0
 54 62  1  0  0  0  0
 55 62  1  0  0  0  0
 56 62  1  0  0  0  0
 57 75  1  0  0  0  0
 58 82  1  0  0  0  0
 59 67  1  0  0  0  0
 60 62  1  0  0  0  0
 60 74  1  0  0  0  0
 61 75  1  0  0  0  0
 64 67  1  0  0  0  0
 65 68  1  0  0  0  0
M  CHG  1  75   1
M  ISO  4  31 100  36 100  58 101  82 101
M  END
> <Batch ID>
0053

> <Smiles>
CNC(C)C(=O)NC(C(=O)N1Cc2cc([101O:1][101CH2:1]c3cnn(Cc4n[100c:0]([100C:0](=O)N5CCCC(n6nc(-c7ccc(Oc8ccc(F)cc8F)cc7)c(C(N)=O)c6N)C5)cnc4C)c3)ccc2CC1C(=O)NC1CCCc2ccccc21)C(C)(C)C

> <Shape>
0.209

> <Color>
0.093

> <Negative vol penalty>
0.000

$$$$

  -OEChem-04052317383D

 80 88  0     1  0  0  0  0  0999 V2000
  -28.2668  -11.3513   21.0099 C   0  0  0  0  0  0  0  0  0  0  0  0
  -28.8286  -12.5801   20.6781 C   0  0  0  0  0  0  0  0  0  0  0  0
  -22.3630  -28.5990   23.2129 C   0  0  0  0  0  0  0  0  0  0  0  0
  -22.6818  -29.8258   21.1561 C   0  0  0  0  0  0  0  0  0  0  0  0
  -26.8876  -11.1691   20.9181 C   0  0  0  0  0  0  0  0  0  0  0  0
  -28.0114  -13.6270   20.2532 C   0  0  0  0  0  0  0  0  0  0  0  0
  -28.8071  -19.5985   21.3553 C   0  0  0  0  0  0  0  0  0  0  0  0
  -21.1692  -29.2848   23.4370 C   0  0  0  0  0  0  0  0  0  0  0  0
  -21.4879  -30.5116   21.3801 C   0  0  0  0  0  0  0  0  0  0  0  0
  -29.3526  -20.6289   20.5908 C   0  0  0  0  0  0  0  0  0  0  0  0
  -17.9751  -29.1508   22.3357 C   0  0  0  0  0  0  0  0  0  0  0  0
  -16.8678  -28.4079   22.7450 C   0  0  0  0  0  0  0  0  0  0  0  0
  -27.1398  -21.2455   19.8541 C   0  0  0  0  0  0  0  0  0  0  0  0
  -16.7455  -29.7096   24.7767 C   0  0  0  0  0  0  0  0  0  0  0  0
  -31.5370  -25.8738   16.7539 C   0  0  0  0  0  0  0  0  0  0  0  0
  -23.1193  -28.8696   22.0725 C   0  0  0  0  0  0  0  0  0  0  0  0
  -24.5199  -26.9503   21.1438 C   0  0  0  0  0  0  0  0  0  0  0  0
  -26.0521  -12.2174   20.5011 C   0  0  0  0  0  0  0  0  0  0  0  0
  -27.4225  -19.3766   21.3664 C   0  0  0  0  0  0  0  0  0  0  0  0
  -26.6199  -13.4583   20.1544 C   0  0  0  0  0  0  0  0  0  0  0  0
  -26.5791  -20.2132   20.6216 C   0  0  0  0  0  0  0  0  0  0  0  0
  -20.7316  -30.2410   22.5206 C   0  0  0  0  0  0  0  0  0  0  0  0
  -28.5192  -21.4508   19.8377 C   0  0  0  0  0  0  0  0  0  0  0  0
  -18.4677  -30.1731   23.1469 C   0  0  0  0  0  0  0  0  0  0  0  0
  -16.2530  -28.6873   23.9655 C   0  0  0  0  0  0  0  0  0  0  0  0
  -17.8529  -30.4525   24.3674 C   0  0  0  0  0  0  0  0  0  0  0  0
  -24.3529  -28.1620   21.8408 C   0  0  0  0  0  0  0  0  0  0  0  0
  -31.5458  -25.9578   18.1288 C   0  0  0  0  0  0  0  0  0  0  0  0
  -30.8412  -23.6997   16.8912 C   0  0  0  0  0  0  0  0  0  0  0  0
  -30.8506  -23.7834   18.2661 C   0  0  0  0  0  0  0  0  0  0  0  0
  -25.8695  -26.7026   21.2042 C   0  0  0  0  0  0  0  0  0  0  0  0
  -23.5424  -26.1228   20.4992 C   0  0  0  0  0  0  0  0  0  0  0  0
  -25.5294  -16.9706   20.5114 C   0  0  0  0  0  0  0  0  0  0  0  0
  -23.2211  -18.8331   21.8248 C   0  0  0  0  0  0  0  0  0  0  0  0
  -21.6290  -22.0059   22.4697 C   0  0  0  0  0  0  0  0  0  0  0  0
  -31.1586  -28.4417   20.8218 C   0  0  0  0  0  0  0  0  0  0  0  0
  -24.5719  -11.9585   20.3721 C   0  0  0  0  0  0  0  0  0  0  0  0
  -26.8475  -18.2777   22.2174 C   0  0  0  0  0  0  0  0  0  0  0  0
  -25.0842  -20.0296   20.6153 C   0  0  0  0  0  0  0  0  0  0  0  0
  -23.7372  -13.2327   20.2722 C   0  0  0  0  0  0  0  0  0  0  0  0
  -29.5039  -28.9167   23.9384 C   0  0  0  0  0  0  0  0  0  0  0  0
  -24.3586  -14.2008   19.2706 C   0  0  0  0  0  0  0  0  0  0  0  0
  -28.0302  -28.6690   23.6116 C   0  0  0  0  0  0  0  0  0  0  0  0
  -30.2259  -29.6199   22.7911 C   0  0  0  0  0  0  0  0  0  0  0  0
  -28.6257  -28.7083   21.1534 C   0  0  0  0  0  0  0  0  0  0  0  0
  -25.7640  -14.6257   19.7131 C   0  0  1  0  0  0  0  0  0  0  0  0
  -25.4695  -17.8191   21.7500 C   0  0  1  0  0  0  0  0  0  0  0  0
  -27.8690  -27.9511   22.2581 C   0  0  2  0  0  0  0  0  0  0  0  0
  -30.4494  -22.4431   16.1916 C   0  0  0  0  0  0  0  0  0  0  0  0
  -19.6188  -22.5695   23.8622 C   0  0  0  0  0  0  0  0  0  0  0  0
  -21.6887  -18.5679   19.1996 C   0  0  0  0  0  0  0  0  0  0  0  0
  -20.2770  -20.5105   19.9080 C   0  0  0  0  0  0  0  0  0  0  0  0
  -20.2723  -18.4107   21.2548 C   0  0  0  0  0  0  0  0  0  0  0  0
  -23.1440  -23.9869   24.0634 C   0  0  0  0  0  0  0  0  0  0  0  0
  -31.9400  -27.2237   18.8056 C   0  0  0  0  0  0  0  0  0  0  0  0
  -30.4670  -22.6135   19.1237 C   0  0  0  0  0  0  0  0  0  1  0  0
  -22.3023  -19.9166   21.3139 C   0  0  1  0  0  0  0  0  0  0  0  0
  -21.1379  -22.5203   23.8109 C   0  0  2  0  0  0  0  0  0  0  0  0
  -21.1634  -19.3539   20.4175 C   0  0  0  0  0  0  0  0  0  0  0  0
  -31.1845  -24.7432   16.1104 N   0  0  0  0  0  0  0  0  0  0  0  0
  -25.5044  -28.6500   22.3098 N   0  0  0  0  0  0  0  0  0  0  0  0
  -31.2028  -24.9141   18.9096 N   0  0  0  0  0  0  0  0  0  0  0  0
  -26.4078  -27.7403   21.9068 N   0  0  0  0  0  0  0  0  0  0  0  0
  -24.5704  -18.9375   21.4584 N   0  0  0  0  0  0  0  0  0  0  0  0
  -30.0348  -28.8877   21.5368 N   0  0  0  0  0  0  0  0  0  0  0  0
  -26.6364  -25.7005   20.7245 N   0  0  0  0  0  0  0  0  0  0  0  0
  -22.2002  -26.5250   20.5320 N   0  0  0  0  0  0  0  0  0  0  0  0
  -25.6847  -15.6205   20.7613 N   0  0  0  0  0  0  0  0  0  0  0  0
  -21.8341  -20.6426   22.4896 N   0  0  0  0  0  0  0  0  0  0  0  0
  -30.8887  -27.7505   19.6470 N   0  0  0  0  0  0  0  0  0  0  0  0
  -21.6613  -23.8928   24.0624 N   0  3  0  0  0  0  0  0  0  0  0  0
  -23.8479  -25.0498   19.9258 O   0  0  0  0  0  0  0  0  0  0  0  0
  -25.4398  -17.5014   19.4105 O   0  0  0  0  0  0  0  0  0  0  0  0
  -22.7598  -17.9315   22.5290 O   0  0  0  0  0  0  0  0  0  0  0  0
  -21.8089  -22.7396   21.5002 O   0  0  0  0  0  0  0  0  0  0  0  0
  -32.3166  -28.6397   21.2050 O   0  0  0  0  0  0  0  0  0  0  0  0
  -19.5667  -30.9102   22.7387 O   0  0  0  0  0  0  0  0  0  0  0  0
  -29.0490  -22.4568   19.0901 O   0  0  0  0  0  0  0  0  0  1  0  0
  -15.1887  -27.9749   24.3578 F   0  0  0  0  0  0  0  0  0  0  0  0
  -18.3209  -31.4342   25.1504 F   0  0  0  0  0  0  0  0  0  0  0  0
  1  2  1  0  0  0  0
  1  5  2  0  0  0  0
  2  6  2  0  0  0  0
  3  8  2  0  0  0  0
  3 16  1  0  0  0  0
  4  9  1  0  0  0  0
  4 16  2  0  0  0  0
  5 18  1  0  0  0  0
  6 20  1  0  0  0  0
  7 10  2  0  0  0  0
  7 19  1  0  0  0  0
  8 22  1  0  0  0  0
  9 22  2  0  0  0  0
 10 23  1  0  0  0  0
 11 12  2  0  0  0  0
 11 24  1  0  0  0  0
 12 25  1  0  0  0  0
 13 21  1  0  0  0  0
 13 23  2  0  0  0  0
 14 25  2  0  0  0  0
 14 26  1  0  0  0  0
 15 28  1  0  0  0  0
 15 60  2  0  0  0  0
 16 27  1  0  0  0  0
 17 27  1  0  0  0  0
 17 31  2  0  0  0  0
 17 32  1  0  0  0  0
 18 20  2  0  0  0  0
 18 37  1  0  0  0  0
 19 21  2  0  0  0  0
 19 38  1  0  0  0  0
 20 46  1  0  0  0  0
 21 39  1  0  0  0  0
 22 77  1  0  0  0  0
 23 78  1  0  0  0  0
 24 26  2  0  0  0  0
 24 77  1  0  0  0  0
 25 79  1  0  0  0  0
 26 80  1  0  0  0  0
 27 61  2  0  0  0  0
 28 55  1  0  0  0  0
 28 62  2  0  0  0  0
 29 30  2  0  0  0  0
 29 49  1  0  0  0  0
 29 60  1  0  0  0  0
 30 56  1  0  0  0  0
 30 62  1  0  0  0  0
 31 63  1  0  0  0  0
 31 66  1  0  0  0  0
 32 67  1  0  0  0  0
 32 72  2  0  0  0  0
 33 47  1  0  0  0  0
 33 68  1  0  0  0  0
 33 73  2  0  0  0  0
 34 57  1  0  0  0  0
 34 64  1  0  0  0  0
 34 74  2  0  0  0  0
 35 58  1  0  0  0  0
 35 69  1  0  0  0  0
 35 75  2  0  0  0  0
 36 65  1  0  0  0  0
 36 70  1  0  0  0  0
 36 76  2  0  0  0  0
 37 40  1  0  0  0  0
 38 47  1  0  0  0  0
 39 64  1  0  0  0  0
 40 42  1  0  0  0  0
 41 43  1  0  0  0  0
 41 44  1  0  0  0  0
 42 46  1  0  0  0  0
 43 48  1  0  0  0  0
 44 65  1  0  0  0  0
 45 48  1  0  0  0  0
 45 65  1  0  0  0  0
 46 68  1  0  0  0  0
 47 64  1  0  0  0  0
 48 63  1  0  0  0  0
 50 58  1  0  0  0  0
 51 59  1  0  0  0  0
 52 59  1  0  0  0  0
 53 59  1  0  0  0  0
 54 71  1  0  0  0  0
 55 70  1  0  0  0  0
 56 78  1  0  0  0  0
 57 59  1  0  0  0  0
 57 69  1  0  0  0  0
 58 71  1  0  0  0  0
 61 63  1  0  0  0  0
M  CHG  1  71   1
M  ISO  4  36 100  56 101  70 100  78 101
M  END
> <Batch ID>
0053

> <Smiles>
CNC(C)C(=O)NC(C(=O)N1Cc2cc([101O:1][101CH2:1]c3nc(C[100NH:0][100C:0](=O)N4CCCC(n5nc(-c6ccc(Oc7ccc(F)cc7F)cc6)c(C(N)=O)c5N)C4)cnc3C)ccc2CC1C(=O)NC1CCCc2ccccc21)C(C)(C)C

> <Shape>
0.217

> <Color>
0.062

> <Negative vol penalty>
0.000

$$$$

  -OEChem-04052317383D

 82 90  0     1  0  0  0  0  0999 V2000
  -22.3418  -29.4321   24.5926 C   0  0  0  0  0  0  0  0  0  0  0  0
  -22.5664  -28.1458   25.0724 C   0  0  0  0  0  0  0  0  0  0  0  0
  -29.7985  -23.7732   19.3933 C   0  0  0  0  0  0  0  0  0  0  0  0
  -28.3866  -23.7690   21.3537 C   0  0  0  0  0  0  0  0  0  0  0  0
  -21.4512  -29.6365   23.5395 C   0  0  0  0  0  0  0  0  0  0  0  0
  -21.8996  -27.0630   24.5001 C   0  0  0  0  0  0  0  0  0  0  0  0
  -22.7944  -20.1161   22.9980 C   0  0  0  0  0  0  0  0  0  0  0  0
  -29.5643  -25.1382   19.2275 C   0  0  0  0  0  0  0  0  0  0  0  0
  -28.1524  -25.1340   21.1880 C   0  0  0  0  0  0  0  0  0  0  0  0
  -22.1684  -18.8845   23.1848 C   0  0  0  0  0  0  0  0  0  0  0  0
  -26.2160  -27.1118   19.2465 C   0  0  0  0  0  0  0  0  0  0  0  0
  -24.9031  -27.5646   19.3768 C   0  0  0  0  0  0  0  0  0  0  0  0
  -20.7124  -19.3483   21.3182 C   0  0  0  0  0  0  0  0  0  0  0  0
  -25.5777  -28.9952   21.2032 C   0  0  0  0  0  0  0  0  0  0  0  0
  -22.4511  -14.6894   20.9064 C   0  0  0  0  0  0  0  0  0  0  0  0
  -29.2096  -23.0885   20.4564 C   0  0  0  0  0  0  0  0  0  0  0  0
  -30.4839  -21.0767   21.3709 C   0  0  0  0  0  0  0  0  0  0  0  0
  -20.7805  -28.5546   22.9476 C   0  0  0  0  0  0  0  0  0  0  0  0
  -22.3762  -20.9793   21.9750 C   0  0  0  0  0  0  0  0  0  0  0  0
  -20.9982  -27.2532   23.4390 C   0  0  0  0  0  0  0  0  0  0  0  0
  -21.3365  -20.5892   21.1189 C   0  0  0  0  0  0  0  0  0  0  0  0
  -28.7413  -25.8186   20.1249 C   0  0  0  0  0  0  0  0  0  0  0  0
  -21.1253  -18.5016   22.3466 C   0  0  0  0  0  0  0  0  0  0  0  0
  -27.2097  -27.6006   20.0947 C   0  0  0  0  0  0  0  0  0  0  0  0
  -24.5840  -28.5063   20.3551 C   0  0  0  0  0  0  0  0  0  0  0  0
  -26.8906  -28.5423   21.0729 C   0  0  0  0  0  0  0  0  0  0  0  0
  -29.4506  -21.6783   20.6278 C   0  0  0  0  0  0  0  0  0  0  0  0
  -21.3458  -14.5743   21.7706 C   0  0  0  0  0  0  0  0  0  0  0  0
  -23.4663  -14.0330   21.5581 C   0  0  0  0  0  0  0  0  0  0  0  0
  -30.2755  -19.7276   21.2190 C   0  0  0  0  0  0  0  0  0  0  0  0
  -31.5378  -21.6831   22.1307 C   0  0  0  0  0  0  0  0  0  0  0  0
  -21.1474  -23.9091   21.8746 C   0  0  0  0  0  0  0  0  0  0  0  0
  -21.4976  -23.5249   18.6727 C   0  0  0  0  0  0  0  0  0  0  0  0
  -21.7618  -21.3911   16.0224 C   0  0  0  0  0  0  0  0  0  0  0  0
  -25.9796  -16.0049   20.9045 C   0  0  0  0  0  0  0  0  0  0  0  0
  -19.7914  -28.8302   21.8429 C   0  0  0  0  0  0  0  0  0  0  0  0
  -23.0795  -22.2929   21.7700 C   0  0  0  0  0  0  0  0  0  0  0  0
  -20.8633  -21.4707   19.9931 C   0  0  0  0  0  0  0  0  0  0  0  0
  -19.4084  -27.5871   21.0440 C   0  0  0  0  0  0  0  0  0  0  0  0
  -27.8520  -16.9221   17.9464 C   0  0  0  0  0  0  0  0  0  0  0  0
  -19.0904  -26.4269   21.9819 C   0  0  0  0  0  0  0  0  0  0  0  0
  -28.5603  -18.1938   18.4169 C   0  0  0  0  0  0  0  0  0  0  0  0
  -26.4401  -16.8321   18.5178 C   0  0  0  0  0  0  0  0  0  0  0  0
  -27.0777  -18.1852   20.4765 C   0  0  0  0  0  0  0  0  0  0  0  0
  -20.3127  -26.0504   22.8279 C   0  0  1  0  0  0  0  0  0  0  0  0
  -22.2305  -23.3145   21.0196 C   0  0  1  0  0  0  0  0  0  0  0  0
  -28.5181  -18.3237   19.9511 C   0  0  2  0  0  0  0  0  0  0  0  0
  -21.9994  -21.3727   13.5243 C   0  0  0  0  0  0  0  0  0  0  0  0
  -18.9536  -14.8133   22.7190 C   0  0  0  0  0  0  0  0  0  0  0  0
  -19.3217  -14.4932   20.2819 C   0  0  0  0  0  0  0  0  0  0  0  0
  -18.5479  -24.2522   18.3891 C   0  0  0  0  0  0  0  0  0  0  0  0
  -18.6100  -23.3089   16.0708 C   0  0  0  0  0  0  0  0  0  0  0  0
  -20.0430  -25.2643   16.6585 C   0  0  0  0  0  0  0  0  0  0  0  0
  -23.6025  -12.8289   23.7595 C   0  0  0  0  0  0  0  0  0  0  0  0
  -24.3529  -19.9680   16.1634 C   0  0  0  0  0  0  0  0  0  0  0  0
  -24.8716  -13.8014   21.1768 C   0  0  0  0  0  0  0  0  0  0  0  0
  -19.9705  -16.6669   21.3687 C   0  0  0  0  0  0  0  0  0  1  0  0
  -20.6352  -22.9781   17.5609 C   0  0  1  0  0  0  0  0  0  0  0  0
  -22.7328  -21.3486   14.8564 C   0  0  2  0  0  0  0  0  0  0  0  0
  -19.9248  -15.1284   21.5559 C   0  0  0  0  0  0  0  0  0  0  0  0
  -19.4664  -23.9349   17.1922 C   0  0  0  0  0  0  0  0  0  0  0  0
  -28.6457  -20.7848   20.0468 N   0  0  0  0  0  0  0  0  0  0  0  0
  -21.6318  -13.8977   22.8862 N   0  0  0  0  0  0  0  0  0  0  0  0
  -22.9283  -13.5817   22.7274 N   0  0  0  0  0  0  0  0  0  0  0  0
  -29.1732  -19.6079   20.4247 N   0  0  0  0  0  0  0  0  0  0  0  0
  -21.5785  -22.7481   19.8371 N   0  0  0  0  0  0  0  0  0  0  0  0
  -26.4718  -16.9440   19.9829 N   0  0  0  0  0  0  0  0  0  0  0  0
  -30.9294  -18.6440   21.6885 N   0  0  0  0  0  0  0  0  0  0  0  0
  -31.6053  -23.0821   22.1814 N   0  0  0  0  0  0  0  0  0  0  0  0
  -21.2512  -25.2766   22.0437 N   0  0  0  0  0  0  0  0  0  0  0  0
  -21.5369  -22.6816   16.4530 N   0  0  0  0  0  0  0  0  0  0  0  0
  -25.4151  -14.8601   20.3553 N   0  0  0  0  0  0  0  0  0  0  0  0
  -23.5593  -20.1099   14.9155 N   0  3  0  0  0  0  0  0  0  0  0  0
  -32.4040  -21.0045   22.7330 O   0  0  0  0  0  0  0  0  0  0  0  0
  -20.2808  -23.1813   22.3447 O   0  0  0  0  0  0  0  0  0  0  0  0
  -22.0838  -24.5982   18.5112 O   0  0  0  0  0  0  0  0  0  0  0  0
  -21.2507  -20.3809   16.5009 O   0  0  0  0  0  0  0  0  0  0  0  0
  -26.0433  -16.1718   22.1273 O   0  0  0  0  0  0  0  0  0  0  0  0
  -28.5128  -27.1506   19.9636 O   0  0  0  0  0  0  0  0  0  0  0  0
  -20.5121  -17.3002   22.5271 O   0  0  0  0  0  0  0  0  0  1  0  0
  -23.3235  -28.9422   20.4790 F   0  0  0  0  0  0  0  0  0  0  0  0
  -27.8412  -29.0164   21.8898 F   0  0  0  0  0  0  0  0  0  0  0  0
  1  2  1  0  0  0  0
  1  5  2  0  0  0  0
  2  6  2  0  0  0  0
  3  8  2  0  0  0  0
  3 16  1  0  0  0  0
  4  9  1  0  0  0  0
  4 16  2  0  0  0  0
  5 18  1  0  0  0  0
  6 20  1  0  0  0  0
  7 10  2  0  0  0  0
  7 19  1  0  0  0  0
  8 22  1  0  0  0  0
  9 22  2  0  0  0  0
 10 23  1  0  0  0  0
 11 12  2  0  0  0  0
 11 24  1  0  0  0  0
 12 25  1  0  0  0  0
 13 21  1  0  0  0  0
 13 23  2  0  0  0  0
 14 25  2  0  0  0  0
 14 26  1  0  0  0  0
 15 28  1  0  0  0  0
 15 29  2  0  0  0  0
 16 27  1  0  0  0  0
 17 27  1  0  0  0  0
 17 30  2  0  0  0  0
 17 31  1  0  0  0  0
 18 20  2  0  0  0  0
 18 36  1  0  0  0  0
 19 21  2  0  0  0  0
 19 37  1  0  0  0  0
 20 45  1  0  0  0  0
 21 38  1  0  0  0  0
 22 79  1  0  0  0  0
 23 80  1  0  0  0  0
 24 26  2  0  0  0  0
 24 79  1  0  0  0  0
 25 81  1  0  0  0  0
 26 82  1  0  0  0  0
 27 62  2  0  0  0  0
 28 60  1  0  0  0  0
 28 63  2  0  0  0  0
 29 56  1  0  0  0  0
 29 64  1  0  0  0  0
 30 65  1  0  0  0  0
 30 68  1  0  0  0  0
 31 69  1  0  0  0  0
 31 74  2  0  0  0  0
 32 46  1  0  0  0  0
 32 70  1  0  0  0  0
 32 75  2  0  0  0  0
 33 58  1  0  0  0  0
 33 66  1  0  0  0  0
 33 76  2  0  0  0  0
 34 59  1  0  0  0  0
 34 71  1  0  0  0  0
 34 77  2  0  0  0  0
 35 67  1  0  0  0  0
 35 72  1  0  0  0  0
 35 78  2  0  0  0  0
 36 39  1  0  0  0  0
 37 46  1  0  0  0  0
 38 66  1  0  0  0  0
 39 41  1  0  0  0  0
 40 42  1  0  0  0  0
 40 43  1  0  0  0  0
 41 45  1  0  0  0  0
 42 47  1  0  0  0  0
 43 67  1  0  0  0  0
 44 47  1  0  0  0  0
 44 67  1  0  0  0  0
 45 70  1  0  0  0  0
 46 66  1  0  0  0  0
 47 65  1  0  0  0  0
 48 59  1  0  0  0  0
 49 60  1  0  0  0  0
 50 60  1  0  0  0  0
 51 61  1  0  0  0  0
 52 61  1  0  0  0  0
 53 61  1  0  0  0  0
 54 64  1  0  0  0  0
 55 73  1  0  0  0  0
 56 72  1  0  0  0  0
 57 60  1  0  0  0  0
 57 80  1  0  0  0  0
 58 61  1  0  0  0  0
 58 71  1  0  0  0  0
 59 73  1  0  0  0  0
 62 65  1  0  0  0  0
 63 64  1  0  0  0  0
M  CHG  1  73   1
M  ISO  4  35 100  57 101  72 100  80 101
M  END
> <Batch ID>
0053

> <Smiles>
CNC(C)C(=O)NC(C(=O)N1Cc2cc([101O:1][101CH2:1]C(C)(C)c3cc(C[100NH:0][100C:0](=O)N4CCCC(n5nc(-c6ccc(Oc7ccc(F)cc7F)cc6)c(C(N)=O)c5N)C4)n(C)n3)ccc2CC1C(=O)NC1CCCc2ccccc21)C(C)(C)C

> <Shape>
0.195

> <Color>
0.072

> <Negative vol penalty>
0.000

$$$$

  -OEChem-04052317383D

 82 90  0     1  0  0  0  0  0999 V2000
  -34.8117  -26.1632   13.3527 C   0  0  0  0  0  0  0  0  0  0  0  0
  -34.2983  -25.0652   14.0355 C   0  0  0  0  0  0  0  0  0  0  0  0
  -23.6775   -9.6347   21.2322 C   0  0  0  0  0  0  0  0  0  0  0  0
  -24.2867  -10.5398   23.3879 C   0  0  0  0  0  0  0  0  0  0  0  0
  -34.8037  -27.4218   13.9526 C   0  0  0  0  0  0  0  0  0  0  0  0
  -33.7775  -25.2250   15.3191 C   0  0  0  0  0  0  0  0  0  0  0  0
  -29.0481  -22.2074   17.7753 C   0  0  0  0  0  0  0  0  0  0  0  0
  -23.1157   -8.5220   21.8581 C   0  0  0  0  0  0  0  0  0  0  0  0
  -23.7248   -9.4270   24.0138 C   0  0  0  0  0  0  0  0  0  0  0  0
  -28.9788  -21.1083   18.6303 C   0  0  0  0  0  0  0  0  0  0  0  0
  -20.2525   -7.7621   23.4883 C   0  0  0  0  0  0  0  0  0  0  0  0
  -19.0019   -7.3318   23.0453 C   0  0  0  0  0  0  0  0  0  0  0  0
  -28.7746  -22.5969   20.5175 C   0  0  0  0  0  0  0  0  0  0  0  0
  -19.9464   -5.1854   22.4638 C   0  0  0  0  0  0  0  0  0  0  0  0
  -28.1701  -17.9647   22.6270 C   0  0  0  0  0  0  0  0  0  0  0  0
  -24.2630  -10.6436   21.9971 C   0  0  0  0  0  0  0  0  0  0  0  0
  -24.1996  -13.0017   21.0260 C   0  0  0  0  0  0  0  0  0  0  0  0
  -34.2738  -27.5988   15.2404 C   0  0  0  0  0  0  0  0  0  0  0  0
  -28.9921  -23.5118   18.2870 C   0  0  0  0  0  0  0  0  0  0  0  0
  -33.7637  -26.4868   15.9374 C   0  0  0  0  0  0  0  0  0  0  0  0
  -28.8409  -23.7108   19.6667 C   0  0  0  0  0  0  0  0  0  0  0  0
  -23.1393   -8.4181   23.2489 C   0  0  0  0  0  0  0  0  0  0  0  0
  -28.8449  -21.3030   20.0019 C   0  0  0  0  0  0  0  0  0  0  0  0
  -21.3502   -6.9041   23.4190 C   0  0  0  0  0  0  0  0  0  0  0  0
  -18.8488   -6.0434   22.5331 C   0  0  0  0  0  0  0  0  0  0  0  0
  -21.1971   -5.6158   22.9068 C   0  0  0  0  0  0  0  0  0  0  0  0
  -24.8441  -11.7931   21.3511 C   0  0  0  0  0  0  0  0  0  0  0  0
  -28.6139  -19.2064   22.9848 C   0  0  0  0  0  0  0  0  0  0  0  0
  -25.1765  -13.7625   20.4315 C   0  0  0  0  0  0  0  0  0  0  0  0
  -28.9441  -17.8431   24.6974 C   0  0  0  0  0  0  0  0  0  0  0  0
  -22.8397  -13.4010   21.2421 C   0  0  0  0  0  0  0  0  0  0  0  0
  -30.9685  -26.0012   18.3046 C   0  0  0  0  0  0  0  0  0  0  0  0
  -28.4279  -27.5130   19.6396 C   0  0  0  0  0  0  0  0  0  0  0  0
  -25.5155  -27.2780   21.4030 C   0  0  0  0  0  0  0  0  0  0  0  0
  -31.2580  -13.2447   20.9651 C   0  0  0  0  0  0  0  0  0  0  0  0
  -34.3301  -28.9698   15.8664 C   0  0  0  0  0  0  0  0  0  0  0  0
  -29.0413  -24.6865   17.3488 C   0  0  0  0  0  0  0  0  0  0  0  0
  -28.7556  -25.0907   20.2643 C   0  0  0  0  0  0  0  0  0  0  0  0
  -33.4185  -29.1226   17.0813 C   0  0  0  0  0  0  0  0  0  0  0  0
  -29.2046  -13.3849   17.8885 C   0  0  0  0  0  0  0  0  0  0  0  0
  -33.5732  -27.9288   18.0183 C   0  0  0  0  0  0  0  0  0  0  0  0
  -27.8116  -13.0228   18.4010 C   0  0  0  0  0  0  0  0  0  0  0  0
  -30.3033  -12.7584   18.7417 C   0  0  0  0  0  0  0  0  0  0  0  0
  -28.8003  -12.7113   20.7045 C   0  0  0  0  0  0  0  0  0  0  0  0
  -33.1676  -26.6244   17.3215 C   0  0  1  0  0  0  0  0  0  0  0  0
  -29.4917  -25.9758   18.0288 C   0  0  1  0  0  0  0  0  0  0  0  0
  -27.6705  -13.3648   19.8945 C   0  0  2  0  0  0  0  0  0  0  0  0
  -29.3395  -17.3369   26.0354 C   0  0  0  0  0  0  0  0  0  0  0  0
  -23.6817  -28.6888   22.3748 C   0  0  0  0  0  0  0  0  0  0  0  0
  -30.2805  -28.3494   21.9152 C   0  0  0  0  0  0  0  0  0  0  0  0
  -28.2503  -28.9043   23.2711 C   0  0  0  0  0  0  0  0  0  0  0  0
  -28.7025  -30.1308   21.1465 C   0  0  0  0  0  0  0  0  0  0  0  0
  -32.2955  -14.3567   22.9059 C   0  0  0  0  0  0  0  0  0  0  0  0
  -23.4590  -25.9631   19.7295 C   0  0  0  0  0  0  0  0  0  0  0  0
  -28.6407  -20.5044   22.2327 C   0  0  0  0  0  0  0  0  0  1  0  0
  -29.2660  -14.8053   23.5334 C   0  0  0  0  0  0  0  0  0  0  0  0
  -28.0610  -15.7295   23.7547 C   0  0  0  0  0  0  0  0  0  0  0  0
  -30.0273  -15.0555   22.2334 C   0  0  0  0  0  0  0  0  0  0  0  0
  -27.9298  -27.7255   21.0488 C   0  0  1  0  0  0  0  0  0  0  0  0
  -24.1444  -27.8859   21.1689 C   0  0  2  0  0  0  0  0  0  0  0  0
  -28.7943  -28.7514   21.8346 C   0  0  0  0  0  0  0  0  0  0  0  0
  -26.1307  -11.7821   20.9927 N   0  0  0  0  0  0  0  0  0  0  0  0
  -28.3870  -17.1410   23.7052 N   0  0  0  0  0  0  0  0  0  0  0  0
  -26.3026  -12.9932   20.4362 N   0  0  0  0  0  0  0  0  0  0  0  0
  -29.0872  -19.1019   24.2706 N   0  3  0  0  0  0  0  0  0  0  0  0
  -28.8147  -26.2072   19.3065 N   0  0  0  0  0  0  0  0  0  0  0  0
  -30.1207  -13.0633   20.1611 N   0  0  0  0  0  0  0  0  0  0  0  0
  -25.1733  -15.0079   19.9104 N   0  0  0  0  0  0  0  0  0  0  0  0
  -21.9692  -12.4974   21.8667 N   0  0  0  0  0  0  0  0  0  0  0  0
  -31.7261  -26.5081   17.2661 N   0  0  0  0  0  0  0  0  0  0  0  0
  -26.5229  -28.0939   20.9332 N   0  0  0  0  0  0  0  0  0  0  0  0
  -31.1404  -14.1267   22.0499 N   0  0  0  0  0  0  0  0  0  0  0  0
  -23.1416  -26.8158   20.9040 N   0  3  0  0  0  0  0  0  0  0  0  0
  -22.4050  -14.5196   20.8771 O   0  0  0  0  0  0  0  0  0  0  0  0
  -31.3893  -25.5927   19.3806 O   0  0  0  0  0  0  0  0  0  0  0  0
  -28.4655  -28.4690   18.8610 O   0  0  0  0  0  0  0  0  0  0  0  0
  -25.6770  -26.1900   21.9514 O   0  0  0  0  0  0  0  0  0  0  0  0
  -32.3210  -12.6593   20.7212 O   0  0  0  0  0  0  0  0  0  0  0  0
  -22.5910   -7.3326   23.8600 O   0  0  0  0  0  0  0  0  0  0  0  0
  -28.7777  -20.2319   20.8387 O   0  0  0  0  0  0  0  0  0  1  0  0
  -17.6474   -5.6298   22.1091 F   0  0  0  0  0  0  0  0  0  0  0  0
  -22.2477   -4.7866   22.8388 F   0  0  0  0  0  0  0  0  0  0  0  0
  1  2  1  0  0  0  0
  1  5  2  0  0  0  0
  2  6  2  0  0  0  0
  3  8  2  0  0  0  0
  3 16  1  0  0  0  0
  4  9  1  0  0  0  0
  4 16  2  0  0  0  0
  5 18  1  0  0  0  0
  6 20  1  0  0  0  0
  7 10  2  0  0  0  0
  7 19  1  0  0  0  0
  8 22  1  0  0  0  0
  9 22  2  0  0  0  0
 10 23  1  0  0  0  0
 11 12  2  0  0  0  0
 11 24  1  0  0  0  0
 12 25  1  0  0  0  0
 13 21  1  0  0  0  0
 13 23  2  0  0  0  0
 14 25  2  0  0  0  0
 14 26  1  0  0  0  0
 15 28  2  0  0  0  0
 15 63  1  0  0  0  0
 16 27  1  0  0  0  0
 17 27  1  0  0  0  0
 17 29  2  0  0  0  0
 17 31  1  0  0  0  0
 18 20  2  0  0  0  0
 18 36  1  0  0  0  0
 19 21  2  0  0  0  0
 19 37  1  0  0  0  0
 20 45  1  0  0  0  0
 21 38  1  0  0  0  0
 22 79  1  0  0  0  0
 23 80  1  0  0  0  0
 24 26  2  0  0  0  0
 24 79  1  0  0  0  0
 25 81  1  0  0  0  0
 26 82  1  0  0  0  0
 27 62  2  0  0  0  0
 28 55  1  0  0  0  0
 28 65  1  0  0  0  0
 29 64  1  0  0  0  0
 29 68  1  0  0  0  0
 30 48  1  0  0  0  0
 30 63  1  0  0  0  0
 30 65  2  0  0  0  0
 31 69  1  0  0  0  0
 31 74  2  0  0  0  0
 32 46  1  0  0  0  0
 32 70  1  0  0  0  0
 32 75  2  0  0  0  0
 33 59  1  0  0  0  0
 33 66  1  0  0  0  0
 33 76  2  0  0  0  0
 34 60  1  0  0  0  0
 34 71  1  0  0  0  0
 34 77  2  0  0  0  0
 35 67  1  0  0  0  0
 35 72  1  0  0  0  0
 35 78  2  0  0  0  0
 36 39  1  0  0  0  0
 37 46  1  0  0  0  0
 38 66  1  0  0  0  0
 39 41  1  0  0  0  0
 40 42  1  0  0  0  0
 40 43  1  0  0  0  0
 41 45  1  0  0  0  0
 42 47  1  0  0  0  0
 43 67  1  0  0  0  0
 44 47  1  0  0  0  0
 44 67  1  0  0  0  0
 45 70  1  0  0  0  0
 46 66  1  0  0  0  0
 47 64  1  0  0  0  0
 49 60  1  0  0  0  0
 50 61  1  0  0  0  0
 51 61  1  0  0  0  0
 52 61  1  0  0  0  0
 53 72  1  0  0  0  0
 54 73  1  0  0  0  0
 55 80  1  0  0  0  0
 56 57  1  0  0  0  0
 56 58  1  0  0  0  0
 57 63  1  0  0  0  0
 58 72  1  0  0  0  0
 59 61  1  0  0  0  0
 59 71  1  0  0  0  0
 60 73  1  0  0  0  0
 62 64  1  0  0  0  0
M  CHG  2  65   1  73   1
M  ISO  4  35 100  55 101  72 100  80 101
M  END
> <Batch ID>
0053

> <Smiles>
CNC(C)C(=O)NC(C(=O)N1Cc2cc([101O:1][101CH2:1]c3cn(CCC[100N:0](C)[100C:0](=O)N4CCCC(n5nc(-c6ccc(Oc7ccc(F)cc7F)cc6)c(C(N)=O)c5N)C4)c(C)n3)ccc2CC1C(=O)NC1CCCc2ccccc21)C(C)(C)C

> <Shape>
0.261

> <Color>
0.144

> <Negative vol penalty>
0.000

$$$$

  -OEChem-04052317383D

 83 91  0     1  0  0  0  0  0999 V2000
  -20.2018  -20.9664   19.8884 C   0  0  0  0  0  0  0  0  0  0  0  0
  -21.5704  -21.1076   20.0944 C   0  0  0  0  0  0  0  0  0  0  0  0
  -24.4115   -9.5355   21.4460 C   0  0  0  0  0  0  0  0  0  0  0  0
  -24.8436  -10.6363   23.5528 C   0  0  0  0  0  0  0  0  0  0  0  0
  -19.4100  -22.0941   19.6758 C   0  0  0  0  0  0  0  0  0  0  0  0
  -22.1482  -22.3767   20.0868 C   0  0  0  0  0  0  0  0  0  0  0  0
  -25.4194  -23.0450   23.8943 C   0  0  0  0  0  0  0  0  0  0  0  0
  -24.0748   -8.3654   22.1264 C   0  0  0  0  0  0  0  0  0  0  0  0
  -24.5068   -9.4662   24.2333 C   0  0  0  0  0  0  0  0  0  0  0  0
  -26.6845  -22.4761   23.7541 C   0  0  0  0  0  0  0  0  0  0  0  0
  -21.4150   -7.1475   23.8221 C   0  0  0  0  0  0  0  0  0  0  0  0
  -20.2682   -6.4670   23.4131 C   0  0  0  0  0  0  0  0  0  0  0  0
  -27.5716  -24.6234   23.1052 C   0  0  0  0  0  0  0  0  0  0  0  0
  -21.6035   -4.5162   22.9146 C   0  0  0  0  0  0  0  0  0  0  0  0
  -29.9691  -19.8433   21.6430 C   0  0  0  0  0  0  0  0  0  0  0  0
  -24.7960  -10.6710   22.1592 C   0  0  0  0  0  0  0  0  0  0  0  0
  -24.2799  -12.9275   21.0870 C   0  0  0  0  0  0  0  0  0  0  0  0
  -19.9768  -23.3783   19.6752 C   0  0  0  0  0  0  0  0  0  0  0  0
  -25.2183  -24.4074   23.6300 C   0  0  0  0  0  0  0  0  0  0  0  0
  -21.3634  -23.5225   19.8726 C   0  0  0  0  0  0  0  0  0  0  0  0
  -26.3035  -25.2077   23.2452 C   0  0  0  0  0  0  0  0  0  0  0  0
  -24.1224   -8.3307   23.5200 C   0  0  0  0  0  0  0  0  0  0  0  0
  -27.7602  -23.2647   23.3567 C   0  0  0  0  0  0  0  0  0  0  0  0
  -22.6561   -6.5124   23.7772 C   0  0  0  0  0  0  0  0  0  0  0  0
  -20.3624   -5.1514   22.9594 C   0  0  0  0  0  0  0  0  0  0  0  0
  -22.7503   -5.1968   23.3235 C   0  0  0  0  0  0  0  0  0  0  0  0
  -25.1445  -11.8798   21.4568 C   0  0  0  0  0  0  0  0  0  0  0  0
  -29.3068  -19.0828   20.7211 C   0  0  0  0  0  0  0  0  0  0  0  0
  -25.0914  -13.8331   20.4484 C   0  0  0  0  0  0  0  0  0  0  0  0
  -29.6268  -21.0913   19.8469 C   0  0  0  0  0  0  0  0  0  0  0  0
  -22.8694  -13.0694   21.3017 C   0  0  0  0  0  0  0  0  0  0  0  0
  -23.4691  -26.0542   21.5487 C   0  0  0  0  0  0  0  0  0  0  0  0
  -29.8779  -16.7214   20.2567 C   0  0  0  0  0  0  0  0  0  0  0  0
  -24.5301  -28.5964   23.2615 C   0  0  0  0  0  0  0  0  0  0  0  0
  -26.9042  -29.9059   25.3342 C   0  0  0  0  0  0  0  0  0  0  0  0
  -19.0880  -24.5640   19.3940 C   0  0  0  0  0  0  0  0  0  0  0  0
  -23.8529  -25.0115   23.8118 C   0  0  0  0  0  0  0  0  0  0  0  0
  -26.1445  -26.6798   22.9691 C   0  0  0  0  0  0  0  0  0  0  0  0
  -19.7184  -25.9014   19.7738 C   0  0  0  0  0  0  0  0  0  0  0  0
  -29.8619  -13.4303   18.8394 C   0  0  0  0  0  0  0  0  0  0  0  0
  -21.1542  -25.9786   19.2645 C   0  0  0  0  0  0  0  0  0  0  0  0
  -28.5778  -12.8095   19.3879 C   0  0  0  0  0  0  0  0  0  0  0  0
  -30.5094  -14.3643   19.8569 C   0  0  0  0  0  0  0  0  0  0  0  0
  -28.3165  -14.8214   20.9074 C   0  0  0  0  0  0  0  0  0  0  0  0
  -22.0231  -24.8843   19.8961 C   0  0  1  0  0  0  0  0  0  0  0  0
  -23.6594  -26.3003   23.0187 C   0  0  1  0  0  0  0  0  0  0  0  0
  -27.6139  -13.8946   19.8996 C   0  0  2  0  0  0  0  0  0  0  0  0
  -27.5200  -32.0211   26.5360 C   0  0  0  0  0  0  0  0  0  0  0  0
  -26.7607  -24.7219   17.8836 C   0  0  0  0  0  0  0  0  0  0  0  0
  -29.1913  -25.2013   18.2334 C   0  0  0  0  0  0  0  0  0  0  0  0
  -25.4929  -29.8075   20.6316 C   0  0  0  0  0  0  0  0  0  0  0  0
  -26.9002  -31.3967   21.9591 C   0  0  0  0  0  0  0  0  0  0  0  0
  -24.4173  -31.4342   22.1973 C   0  0  0  0  0  0  0  0  0  0  0  0
  -26.7300  -28.5907   27.9798 C   0  0  0  0  0  0  0  0  0  0  0  0
  -28.8435  -17.6936   20.7654 C   0  0  0  0  0  0  0  0  0  0  0  0
  -29.6100  -22.2282   18.8930 C   0  0  0  0  0  0  0  0  0  0  0  0
  -28.2294  -22.9136   18.8249 C   0  0  0  0  0  0  0  0  0  0  0  0
  -30.8475  -22.2455   21.7398 C   0  0  0  0  0  0  0  0  0  0  0  0
  -29.8630  -23.2941   22.2460 C   0  0  0  0  0  0  0  0  0  1  0  0
  -25.7283  -29.5116   23.1857 C   0  0  1  0  0  0  0  0  0  0  0  0
  -26.7892  -30.6906   26.6287 C   0  0  2  0  0  0  0  0  0  0  0  0
  -28.1692  -24.1225   17.8727 C   0  0  0  0  0  0  0  0  0  0  0  0
  -25.6376  -30.5094   21.9967 C   0  0  0  0  0  0  0  0  0  0  0  0
  -26.4084  -12.0983   21.0840 N   0  0  0  0  0  0  0  0  0  0  0  0
  -30.1544  -21.0809   21.0754 N   0  0  0  0  0  0  0  0  0  0  0  0
  -26.3439  -13.2937   20.4732 N   0  0  0  0  0  0  0  0  0  0  0  0
  -29.1079  -19.8802   19.6200 N   0  3  0  0  0  0  0  0  0  0  0  0
  -24.7886  -27.2226   23.1547 N   0  0  0  0  0  0  0  0  0  0  0  0
  -29.5554  -15.3664   20.3352 N   0  0  0  0  0  0  0  0  0  0  0  0
  -24.8486  -15.0301   19.8735 N   0  0  0  0  0  0  0  0  0  0  0  0
  -22.1898  -12.0453   21.9753 N   0  0  0  0  0  0  0  0  0  0  0  0
  -22.3886  -25.2468   21.2487 N   0  0  0  0  0  0  0  0  0  0  0  0
  -25.8387  -30.1489   24.4934 N   0  0  0  0  0  0  0  0  0  0  0  0
  -27.3705  -29.9129   27.7592 N   0  3  0  0  0  0  0  0  0  0  0  0
  -22.2278  -14.0669   20.8933 O   0  0  0  0  0  0  0  0  0  0  0  0
  -24.2443  -26.5607   20.7461 O   0  0  0  0  0  0  0  0  0  0  0  0
  -30.9391  -17.1553   19.8008 O   0  0  0  0  0  0  0  0  0  0  0  0
  -23.4070  -29.0823   23.4173 O   0  0  0  0  0  0  0  0  0  0  0  0
  -27.8468  -29.1556   25.0916 O   0  0  0  0  0  0  0  0  0  0  0  0
  -23.7937   -7.1891   24.1843 O   0  0  0  0  0  0  0  0  0  0  0  0
  -28.9960  -22.7118   23.2185 O   0  0  0  0  0  0  0  0  0  1  0  0
  -19.2608   -4.4975   22.5681 F   0  0  0  0  0  0  0  0  0  0  0  0
  -23.9398   -4.5810   23.2793 F   0  0  0  0  0  0  0  0  0  0  0  0
  1  2  1  0  0  0  0
  1  5  2  0  0  0  0
  2  6  2  0  0  0  0
  3  8  2  0  0  0  0
  3 16  1  0  0  0  0
  4  9  1  0  0  0  0
  4 16  2  0  0  0  0
  5 18  1  0  0  0  0
  6 20  1  0  0  0  0
  7 10  2  0  0  0  0
  7 19  1  0  0  0  0
  8 22  1  0  0  0  0
  9 22  2  0  0  0  0
 10 23  1  0  0  0  0
 11 12  2  0  0  0  0
 11 24  1  0  0  0  0
 12 25  1  0  0  0  0
 13 21  1  0  0  0  0
 13 23  2  0  0  0  0
 14 25  2  0  0  0  0
 14 26  1  0  0  0  0
 15 28  2  0  0  0  0
 15 65  1  0  0  0  0
 16 27  1  0  0  0  0
 17 27  1  0  0  0  0
 17 29  2  0  0  0  0
 17 31  1  0  0  0  0
 18 20  2  0  0  0  0
 18 36  1  0  0  0  0
 19 21  2  0  0  0  0
 19 37  1  0  0  0  0
 20 45  1  0  0  0  0
 21 38  1  0  0  0  0
 22 80  1  0  0  0  0
 23 81  1  0  0  0  0
 24 26  2  0  0  0  0
 24 80  1  0  0  0  0
 25 82  1  0  0  0  0
 26 83  1  0  0  0  0
 27 64  2  0  0  0  0
 28 55  1  0  0  0  0
 28 67  1  0  0  0  0
 29 66  1  0  0  0  0
 29 70  1  0  0  0  0
 30 56  1  0  0  0  0
 30 65  1  0  0  0  0
 30 67  2  0  0  0  0
 31 71  1  0  0  0  0
 31 75  2  0  0  0  0
 32 46  1  0  0  0  0
 32 72  1  0  0  0  0
 32 76  2  0  0  0  0
 33 55  1  0  0  0  0
 33 69  1  0  0  0  0
 33 77  2  0  0  0  0
 34 60  1  0  0  0  0
 34 68  1  0  0  0  0
 34 78  2  0  0  0  0
 35 61  1  0  0  0  0
 35 73  1  0  0  0  0
 35 79  2  0  0  0  0
 36 39  1  0  0  0  0
 37 46  1  0  0  0  0
 38 68  1  0  0  0  0
 39 41  1  0  0  0  0
 40 42  1  0  0  0  0
 40 43  1  0  0  0  0
 41 45  1  0  0  0  0
 42 47  1  0  0  0  0
 43 69  1  0  0  0  0
 44 47  1  0  0  0  0
 44 69  1  0  0  0  0
 45 72  1  0  0  0  0
 46 68  1  0  0  0  0
 47 66  1  0  0  0  0
 48 61  1  0  0  0  0
 49 62  1  0  0  0  0
 50 62  1  0  0  0  0
 51 63  1  0  0  0  0
 52 63  1  0  0  0  0
 53 63  1  0  0  0  0
 54 74  1  0  0  0  0
 56 57  1  0  0  0  0
 57 62  1  0  0  0  0
 58 59  1  0  0  0  0
 58 65  1  0  0  0  0
 59 81  1  0  0  0  0
 60 63  1  0  0  0  0
 60 73  1  0  0  0  0
 61 74  1  0  0  0  0
 64 66  1  0  0  0  0
M  CHG  2  67   1  74   1
M  ISO  4  33 100  55 100  59 101  81 101
M  END
> <Batch ID>
0053

> <Smiles>
CNC(C)C(=O)NC(C(=O)N1Cc2cc([101O:1][101CH2:1]Cn3cc([100CH2:0][100C:0](=O)N4CCCC(n5nc(-c6ccc(Oc7ccc(F)cc7F)cc6)c(C(N)=O)c5N)C4)nc3CCC(C)C)ccc2CC1C(=O)NC1CCCc2ccccc21)C(C)(C)C

> <Shape>
0.254

> <Color>
0.119

> <Negative vol penalty>
0.000

$$$$

  -OEChem-04052317383D

 85 93  0     1  0  0  0  0  0999 V2000
  -17.8048  -25.8009   22.9889 C   0  0  0  0  0  0  0  0  0  0  0  0
  -19.0780  -25.4904   22.5222 C   0  0  0  0  0  0  0  0  0  0  0  0
  -26.6455  -14.3230   18.5263 C   0  0  0  0  0  0  0  0  0  0  0  0
  -24.5090  -14.6947   19.5912 C   0  0  0  0  0  0  0  0  0  0  0  0
  -17.3582  -27.1215   22.9667 C   0  0  0  0  0  0  0  0  0  0  0  0
  -19.9051  -26.5004   22.0318 C   0  0  0  0  0  0  0  0  0  0  0  0
  -25.9991  -26.8381   22.5368 C   0  0  0  0  0  0  0  0  0  0  0  0
  -26.7398  -13.0788   19.1497 C   0  0  0  0  0  0  0  0  0  0  0  0
  -24.6032  -13.4505   20.2146 C   0  0  0  0  0  0  0  0  0  0  0  0
  -27.0324  -26.5141   21.6587 C   0  0  0  0  0  0  0  0  0  0  0  0
  -26.2024  -12.1120   22.8758 C   0  0  0  0  0  0  0  0  0  0  0  0
  -25.8789  -12.0399   24.2307 C   0  0  0  0  0  0  0  0  0  0  0  0
  -27.1454  -28.8175   20.9513 C   0  0  0  0  0  0  0  0  0  0  0  0
  -24.1253  -10.4558   23.7276 C   0  0  0  0  0  0  0  0  0  0  0  0
  -25.8160  -26.9635   17.0880 C   0  0  0  0  0  0  0  0  0  0  0  0
  -26.6587  -25.1031   16.2732 C   0  0  0  0  0  0  0  0  0  0  0  0
  -25.5301  -15.1310   18.7471 C   0  0  0  0  0  0  0  0  0  0  0  0
  -24.8566  -16.6986   16.8506 C   0  0  0  0  0  0  0  0  0  0  0  0
  -18.1838  -28.1495   22.4848 C   0  0  0  0  0  0  0  0  0  0  0  0
  -25.5230  -28.1544   22.6209 C   0  0  0  0  0  0  0  0  0  0  0  0
  -19.4686  -27.8358   22.0018 C   0  0  0  0  0  0  0  0  0  0  0  0
  -26.1077  -29.1561   21.8330 C   0  0  0  0  0  0  0  0  0  0  0  0
  -27.0318  -26.3044   16.8248 C   0  0  0  0  0  0  0  0  0  0  0  0
  -25.7186  -12.6425   19.9938 C   0  0  0  0  0  0  0  0  0  0  0  0
  -27.6038  -27.5033   20.8637 C   0  0  0  0  0  0  0  0  0  0  0  0
  -25.4873  -11.3562   21.9468 C   0  0  0  0  0  0  0  0  0  0  0  0
  -24.8404  -11.2117   24.6566 C   0  0  0  0  0  0  0  0  0  0  0  0
  -24.4488  -10.5280   22.3727 C   0  0  0  0  0  0  0  0  0  0  0  0
  -25.4324  -16.4166   18.1039 C   0  0  0  0  0  0  0  0  0  0  0  0
  -25.0150  -18.0542   16.6971 C   0  0  0  0  0  0  0  0  0  0  0  0
  -24.2341  -15.8141   15.9093 C   0  0  0  0  0  0  0  0  0  0  0  0
  -22.7310  -29.5695   22.0678 C   0  0  0  0  0  0  0  0  0  0  0  0
  -24.2473  -32.1653   23.2863 C   0  0  0  0  0  0  0  0  0  0  0  0
  -27.1933  -33.7668   23.9212 C   0  0  0  0  0  0  0  0  0  0  0  0
  -24.4753  -23.1425   19.1741 C   0  0  0  0  0  0  0  0  0  0  0  0
  -17.6396  -29.5553   22.4366 C   0  0  0  0  0  0  0  0  0  0  0  0
  -24.4257  -28.4928   23.5924 C   0  0  0  0  0  0  0  0  0  0  0  0
  -25.6465  -30.5883   21.9004 C   0  0  0  0  0  0  0  0  0  0  0  0
  -18.7177  -30.6196   22.2489 C   0  0  0  0  0  0  0  0  0  0  0  0
  -27.7313  -21.3898   19.3411 C   0  0  0  0  0  0  0  0  0  0  0  0
  -19.6810  -30.2137   21.1380 C   0  0  0  0  0  0  0  0  0  0  0  0
  -27.3524  -19.9498   18.9991 C   0  0  0  0  0  0  0  0  0  0  0  0
  -26.5756  -22.1401   19.9960 C   0  0  0  0  0  0  0  0  0  0  0  0
  -24.9370  -20.6763   18.8618 C   0  0  0  0  0  0  0  0  0  0  0  0
  -20.4045  -28.9070   21.4853 C   0  0  1  0  0  0  0  0  0  0  0  0
  -23.6719  -29.7665   23.2226 C   0  0  1  0  0  0  0  0  0  0  0  0
  -26.0647  -19.9064   18.1581 C   0  0  2  0  0  0  0  0  0  0  0  0
  -29.2105  -26.9618   15.7708 C   0  0  0  0  0  0  0  0  0  0  0  0
  -28.1113  -35.8906   24.8929 C   0  0  0  0  0  0  0  0  0  0  0  0
  -21.4788  -22.5970   18.6415 C   0  0  0  0  0  0  0  0  0  0  0  0
  -22.0907  -25.0360   18.6669 C   0  0  0  0  0  0  0  0  0  0  0  0
  -23.4388  -33.6689   20.7574 C   0  0  0  0  0  0  0  0  0  0  0  0
  -25.1419  -35.4115   21.3327 C   0  0  0  0  0  0  0  0  0  0  0  0
  -23.2233  -34.9896   22.8702 C   0  0  0  0  0  0  0  0  0  0  0  0
  -28.6728  -32.3017   26.0244 C   0  0  0  0  0  0  0  0  0  0  0  0
  -29.2280  -25.9151   18.0669 C   0  0  0  0  0  0  0  0  0  0  0  0
  -24.4413  -24.0637   15.7427 C   0  0  0  0  0  0  0  0  0  0  0  0
  -24.2826  -22.9080   16.7272 C   0  0  0  0  0  0  0  0  0  0  0  0
  -28.6174  -25.8691   19.4644 C   0  0  0  0  0  0  0  0  0  1  0  0
  -28.4406  -26.8075   17.0880 C   0  0  2  0  0  0  0  0  0  0  0  0
  -25.0824  -33.2836   22.7109 C   0  0  1  0  0  0  0  0  0  0  0  0
  -27.7207  -34.4475   25.1714 C   0  0  2  0  0  0  0  0  0  0  0  0
  -22.3104  -23.6918   17.9849 C   0  0  0  0  0  0  0  0  0  0  0  0
  -24.2292  -34.3112   21.9149 C   0  0  0  0  0  0  0  0  0  0  0  0
  -24.7503  -26.2409   16.7326 N   0  0  0  0  0  0  0  0  0  0  0  0
  -25.9204  -17.5056   18.7038 N   0  0  0  0  0  0  0  0  0  0  0  0
  -25.2953  -25.1154   16.2405 N   0  0  0  0  0  0  0  0  0  0  0  0
  -25.6516  -18.4851   17.8237 N   0  0  0  0  0  0  0  0  0  0  0  0
  -24.5666  -30.8680   22.8612 N   0  0  0  0  0  0  0  0  0  0  0  0
  -25.3531  -22.0463   19.1972 N   0  0  0  0  0  0  0  0  0  0  0  0
  -24.6706  -18.9079   15.7096 N   0  0  0  0  0  0  0  0  0  0  0  0
  -24.1551  -14.4509   16.2248 N   0  0  0  0  0  0  0  0  0  0  0  0
  -21.4658  -29.1546   22.4375 N   0  0  0  0  0  0  0  0  0  0  0  0
  -25.8206  -33.8592   23.8299 N   0  0  0  0  0  0  0  0  0  0  0  0
  -23.7284  -23.3391   18.0027 N   0  0  0  0  0  0  0  0  0  0  0  0
  -28.9192  -33.7273   25.6869 N   0  3  0  0  0  0  0  0  0  0  0  0
  -23.7767  -16.2182   14.8134 O   0  0  0  0  0  0  0  0  0  0  0  0
  -23.1233  -29.7798   20.9261 O   0  0  0  0  0  0  0  0  0  0  0  0
  -23.3496  -32.4324   24.0891 O   0  0  0  0  0  0  0  0  0  0  0  0
  -27.9261  -33.2121   23.1053 O   0  0  0  0  0  0  0  0  0  0  0  0
  -24.3724  -23.9077   20.1415 O   0  0  0  0  0  0  0  0  0  0  0  0
  -25.8102  -11.4283   20.6021 O   0  0  0  0  0  0  0  0  0  0  0  0
  -28.6121  -27.1896   20.0054 O   0  0  0  0  0  0  0  0  0  1  0  0
  -24.5309  -11.1413   25.9579 F   0  0  0  0  0  0  0  0  0  0  0  0
  -23.7591   -9.7986   21.4850 F   0  0  0  0  0  0  0  0  0  0  0  0
  1  2  1  0  0  0  0
  1  5  2  0  0  0  0
  2  6  2  0  0  0  0
  3  8  2  0  0  0  0
  3 17  1  0  0  0  0
  4  9  1  0  0  0  0
  4 17  2  0  0  0  0
  5 19  1  0  0  0  0
  6 21  1  0  0  0  0
  7 10  2  0  0  0  0
  7 20  1  0  0  0  0
  8 24  1  0  0  0  0
  9 24  2  0  0  0  0
 10 25  1  0  0  0  0
 11 12  2  0  0  0  0
 11 26  1  0  0  0  0
 12 27  1  0  0  0  0
 13 22  1  0  0  0  0
 13 25  2  0  0  0  0
 14 27  2  0  0  0  0
 14 28  1  0  0  0  0
 15 23  1  0  0  0  0
 15 65  2  0  0  0  0
 16 23  2  0  0  0  0
 16 67  1  0  0  0  0
 17 29  1  0  0  0  0
 18 29  1  0  0  0  0
 18 30  2  0  0  0  0
 18 31  1  0  0  0  0
 19 21  2  0  0  0  0
 19 36  1  0  0  0  0
 20 22  2  0  0  0  0
 20 37  1  0  0  0  0
 21 45  1  0  0  0  0
 22 38  1  0  0  0  0
 23 60  1  0  0  0  0
 24 82  1  0  0  0  0
 25 83  1  0  0  0  0
 26 28  2  0  0  0  0
 26 82  1  0  0  0  0
 27 84  1  0  0  0  0
 28 85  1  0  0  0  0
 29 66  2  0  0  0  0
 30 68  1  0  0  0  0
 30 71  1  0  0  0  0
 31 72  1  0  0  0  0
 31 77  2  0  0  0  0
 32 46  1  0  0  0  0
 32 73  1  0  0  0  0
 32 78  2  0  0  0  0
 33 61  1  0  0  0  0
 33 69  1  0  0  0  0
 33 79  2  0  0  0  0
 34 62  1  0  0  0  0
 34 74  1  0  0  0  0
 34 80  2  0  0  0  0
 35 70  1  0  0  0  0
 35 75  1  0  0  0  0
 35 81  2  0  0  0  0
 36 39  1  0  0  0  0
 37 46  1  0  0  0  0
 38 69  1  0  0  0  0
 39 41  1  0  0  0  0
 40 42  1  0  0  0  0
 40 43  1  0  0  0  0
 41 45  1  0  0  0  0
 42 47  1  0  0  0  0
 43 70  1  0  0  0  0
 44 47  1  0  0  0  0
 44 70  1  0  0  0  0
 45 73  1  0  0  0  0
 46 69  1  0  0  0  0
 47 68  1  0  0  0  0
 48 60  1  0  0  0  0
 49 62  1  0  0  0  0
 50 63  1  0  0  0  0
 51 63  1  0  0  0  0
 52 64  1  0  0  0  0
 53 64  1  0  0  0  0
 54 64  1  0  0  0  0
 55 76  1  0  0  0  0
 56 59  1  0  0  0  0
 56 60  1  0  0  0  0
 57 58  1  0  0  0  0
 57 67  1  0  0  0  0
 58 75  1  0  0  0  0
 59 83  1  0  0  0  0
 61 64  1  0  0  0  0
 61 74  1  0  0  0  0
 62 76  1  0  0  0  0
 63 75  1  0  0  0  0
 65 67  1  0  0  0  0
 66 68  1  0  0  0  0
M  CHG  1  76   1
M  ISO  4  35 100  59 101  75 100  83 101
M  END
> <Batch ID>
0053

> <Smiles>
CNC(C)C(=O)NC(C(=O)N1Cc2cc([101O:1][101CH2:1]CC(C)c3cnn(CC[100N:0](C(C)C)[100C:0](=O)N4CCCC(n5nc(-c6ccc(Oc7ccc(F)cc7F)cc6)c(C(N)=O)c5N)C4)c3)ccc2CC1C(=O)NC1CCCc2ccccc21)C(C)(C)C

> <Shape>
0.209

> <Color>
0.093

> <Negative vol penalty>
0.000

$$$$

  -OEChem-04052317383D

 84 93  0     1  0  0  0  0  0999 V2000
  -16.5729  -28.8525   23.9701 C   0  0  0  0  0  0  0  0  0  0  0  0
  -17.4718  -27.8290   23.6876 C   0  0  0  0  0  0  0  0  0  0  0  0
  -27.0989  -10.6875   21.4805 C   0  0  0  0  0  0  0  0  0  0  0  0
  -25.6728  -12.4168   20.5791 C   0  0  0  0  0  0  0  0  0  0  0  0
  -16.8373  -30.1506   23.5353 C   0  0  0  0  0  0  0  0  0  0  0  0
  -18.6352  -28.1028   22.9692 C   0  0  0  0  0  0  0  0  0  0  0  0
  -24.1158  -25.4680   23.6943 C   0  0  0  0  0  0  0  0  0  0  0  0
  -26.0033  -10.1255   22.1357 C   0  0  0  0  0  0  0  0  0  0  0  0
  -24.5771  -11.8548   21.2342 C   0  0  0  0  0  0  0  0  0  0  0  0
  -24.7592  -24.4377   23.0100 C   0  0  0  0  0  0  0  0  0  0  0  0
  -23.3654   -8.1637   21.3446 C   0  0  0  0  0  0  0  0  0  0  0  0
  -23.2082   -6.7795   21.2744 C   0  0  0  0  0  0  0  0  0  0  0  0
  -27.4132  -20.0250   19.3215 C   0  0  0  0  0  0  0  0  0  0  0  0
  -25.9227  -26.0665   21.6638 C   0  0  0  0  0  0  0  0  0  0  0  0
  -23.3557   -6.6407   23.6819 C   0  0  0  0  0  0  0  0  0  0  0  0
  -26.3274  -20.7150   19.8028 C   0  0  0  0  0  0  0  0  0  0  0  0
  -31.3317  -20.3538   16.7988 C   0  0  0  0  0  0  0  0  0  0  0  0
  -26.9337  -11.8332   20.7023 C   0  0  0  0  0  0  0  0  0  0  0  0
  -28.5247  -12.1177   18.7286 C   0  0  0  0  0  0  0  0  0  0  0  0
  -18.0092  -30.4423   22.8195 C   0  0  0  0  0  0  0  0  0  0  0  0
  -24.3633  -26.8073   23.3606 C   0  0  0  0  0  0  0  0  0  0  0  0
  -18.9148  -29.4057   22.5233 C   0  0  0  0  0  0  0  0  0  0  0  0
  -25.2832  -27.1120   22.3471 C   0  0  0  0  0  0  0  0  0  0  0  0
  -24.7424  -10.7091   22.0126 C   0  0  0  0  0  0  0  0  0  0  0  0
  -25.6606  -24.7367   21.9926 C   0  0  0  0  0  0  0  0  0  0  0  0
  -23.5178   -8.7864   22.5835 C   0  0  0  0  0  0  0  0  0  0  0  0
  -23.2033   -6.0180   22.4430 C   0  0  0  0  0  0  0  0  0  0  0  0
  -23.5129   -8.0249   23.7521 C   0  0  0  0  0  0  0  0  0  0  0  0
  -28.0652  -12.4146   20.0257 C   0  0  0  0  0  0  0  0  0  0  0  0
  -28.4796  -20.4257   20.1486 C   0  0  0  0  0  0  0  0  0  0  0  0
  -29.6181  -12.9311   18.5570 C   0  0  0  0  0  0  0  0  0  0  0  0
  -30.5717  -20.3227   18.7426 C   0  0  0  0  0  0  0  0  0  0  0  0
  -28.0093  -11.1896   17.7649 C   0  0  0  0  0  0  0  0  0  0  0  0
  -22.5951  -29.2084   22.2597 C   0  0  0  0  0  0  0  0  0  0  0  0
  -25.3102  -30.9160   22.7440 C   0  0  0  0  0  0  0  0  0  0  0  0
  -28.7097  -30.9292   23.0444 C   0  0  0  0  0  0  0  0  0  0  0  0
  -31.2492  -18.1418   21.0144 C   0  0  0  0  0  0  0  0  0  0  0  0
  -18.2287  -31.8517   22.3295 C   0  0  0  0  0  0  0  0  0  0  0  0
  -23.6814  -27.9077   24.1264 C   0  0  0  0  0  0  0  0  0  0  0  0
  -25.5991  -28.5340   21.9642 C   0  0  0  0  0  0  0  0  0  0  0  0
  -19.6663  -32.1295   21.8980 C   0  0  0  0  0  0  0  0  0  0  0  0
  -33.0968  -15.0983   21.0253 C   0  0  0  0  0  0  0  0  0  0  0  0
  -20.1851  -31.0017   21.0116 C   0  0  0  0  0  0  0  0  0  0  0  0
  -32.0583  -14.0386   20.6533 C   0  0  0  0  0  0  0  0  0  0  0  0
  -32.4957  -16.1941   21.9028 C   0  0  0  0  0  0  0  0  0  0  0  0
  -30.2492  -15.7764   20.9793 C   0  0  0  0  0  0  0  0  0  0  0  0
  -20.1997  -29.6678   21.7680 C   0  0  1  0  0  0  0  0  0  0  0  0
  -23.6221  -29.2234   23.3564 C   0  0  1  0  0  0  0  0  0  0  0  0
  -30.7947  -14.6798   20.0486 C   0  0  2  0  0  0  0  0  0  0  0  0
  -30.6499  -32.4808   23.3984 C   0  0  0  0  0  0  0  0  0  0  0  0
  -25.0983  -31.8388   19.8434 C   0  0  0  0  0  0  0  0  0  0  0  0
  -27.4880  -32.5735   19.9756 C   0  0  0  0  0  0  0  0  0  0  0  0
  -25.7787  -33.6228   21.4587 C   0  0  0  0  0  0  0  0  0  0  0  0
  -31.5008  -22.5587   19.4511 C   0  0  0  0  0  0  0  0  0  0  0  0
  -29.4770  -29.5816   25.5651 C   0  0  0  0  0  0  0  0  0  0  0  0
  -25.9824  -22.3906   21.7098 C   0  0  0  0  0  0  0  0  0  1  0  0
  -29.8843  -19.9894   20.0749 C   0  0  2  0  0  0  0  0  0  0  0  0
  -26.5254  -31.2504   21.9130 C   0  0  1  0  0  0  0  0  0  0  0  0
  -29.6281  -31.5742   24.0666 C   0  0  2  0  0  0  0  0  0  0  0  0
  -26.2154  -32.2944   20.8034 C   0  0  0  0  0  0  0  0  0  0  0  0
  -30.5935  -19.5879   17.6550 N   0  0  0  0  0  0  0  0  0  0  0  0
  -31.7681  -21.5163   17.2883 N   0  0  0  0  0  0  0  0  0  0  0  0
  -28.8062  -13.3440   20.6350 N   0  0  0  0  0  0  0  0  0  0  0  0
  -28.1053  -21.3023   21.0842 N   0  0  0  0  0  0  0  0  0  0  0  0
  -26.7916  -21.4583   20.8480 N   0  0  0  0  0  0  0  0  0  0  0  0
  -29.7424  -13.6380   19.7168 N   0  0  0  0  0  0  0  0  0  0  0  0
  -31.2684  -21.4718   18.5327 N   0  0  0  0  0  0  0  0  0  0  0  0
  -24.9021  -29.5746   22.7380 N   0  0  0  0  0  0  0  0  0  0  0  0
  -31.3019  -16.7619   21.2717 N   0  0  0  0  0  0  0  0  0  0  0  0
  -30.4757  -13.1034   17.5289 N   0  0  0  0  0  0  0  0  0  0  0  0
  -26.8791  -10.4332   18.1038 N   0  0  0  0  0  0  0  0  0  0  0  0
  -21.3351  -29.6070   22.6633 N   0  0  0  0  0  0  0  0  0  0  0  0
  -27.5606  -31.6668   22.8529 N   0  0  0  0  0  0  0  0  0  0  0  0
  -30.0845  -18.5967   20.4083 N   0  0  0  0  0  0  0  0  0  0  0  0
  -30.3596  -30.5296   24.8377 N   0  3  0  0  0  0  0  0  0  0  0  0
  -28.5451  -11.0238   16.6429 O   0  0  0  0  0  0  0  0  0  0  0  0
  -22.9220  -28.8622   21.1306 O   0  0  0  0  0  0  0  0  0  0  0  0
  -24.7482  -31.8105   23.3809 O   0  0  0  0  0  0  0  0  0  0  0  0
  -28.9859  -29.8782   22.4702 O   0  0  0  0  0  0  0  0  0  0  0  0
  -32.1740  -18.9106   21.2986 O   0  0  0  0  0  0  0  0  0  0  0  0
  -23.6730  -10.1608   22.6515 O   0  0  0  0  0  0  0  0  0  0  0  0
  -26.2894  -23.7330   21.3226 O   0  0  0  0  0  0  0  0  0  1  0  0
  -23.0508   -4.6889   22.3756 F   0  0  0  0  0  0  0  0  0  0  0  0
  -23.6577   -8.6176   24.9452 F   0  0  0  0  0  0  0  0  0  0  0  0
  1  2  1  0  0  0  0
  1  5  2  0  0  0  0
  2  6  2  0  0  0  0
  3  8  2  0  0  0  0
  3 18  1  0  0  0  0
  4  9  1  0  0  0  0
  4 18  2  0  0  0  0
  5 20  1  0  0  0  0
  6 22  1  0  0  0  0
  7 10  2  0  0  0  0
  7 21  1  0  0  0  0
  8 24  1  0  0  0  0
  9 24  2  0  0  0  0
 10 25  1  0  0  0  0
 11 12  2  0  0  0  0
 11 26  1  0  0  0  0
 12 27  1  0  0  0  0
 13 16  2  0  0  0  0
 13 30  1  0  0  0  0
 14 23  1  0  0  0  0
 14 25  2  0  0  0  0
 15 27  2  0  0  0  0
 15 28  1  0  0  0  0
 16 65  1  0  0  0  0
 17 61  1  0  0  0  0
 17 62  2  0  0  0  0
 18 29  1  0  0  0  0
 19 29  1  0  0  0  0
 19 31  2  0  0  0  0
 19 33  1  0  0  0  0
 20 22  2  0  0  0  0
 20 38  1  0  0  0  0
 21 23  2  0  0  0  0
 21 39  1  0  0  0  0
 22 47  1  0  0  0  0
 23 40  1  0  0  0  0
 24 81  1  0  0  0  0
 25 82  1  0  0  0  0
 26 28  2  0  0  0  0
 26 81  1  0  0  0  0
 27 83  1  0  0  0  0
 28 84  1  0  0  0  0
 29 63  2  0  0  0  0
 30 57  1  0  0  0  0
 30 64  2  0  0  0  0
 31 66  1  0  0  0  0
 31 70  1  0  0  0  0
 32 57  1  0  0  0  0
 32 61  2  0  0  0  0
 32 67  1  0  0  0  0
 33 71  1  0  0  0  0
 33 76  2  0  0  0  0
 34 48  1  0  0  0  0
 34 72  1  0  0  0  0
 34 77  2  0  0  0  0
 35 58  1  0  0  0  0
 35 68  1  0  0  0  0
 35 78  2  0  0  0  0
 36 59  1  0  0  0  0
 36 73  1  0  0  0  0
 36 79  2  0  0  0  0
 37 69  1  0  0  0  0
 37 74  1  0  0  0  0
 37 80  2  0  0  0  0
 38 41  1  0  0  0  0
 39 48  1  0  0  0  0
 40 68  1  0  0  0  0
 41 43  1  0  0  0  0
 42 44  1  0  0  0  0
 42 45  1  0  0  0  0
 43 47  1  0  0  0  0
 44 49  1  0  0  0  0
 45 69  1  0  0  0  0
 46 49  1  0  0  0  0
 46 69  1  0  0  0  0
 47 72  1  0  0  0  0
 48 68  1  0  0  0  0
 49 66  1  0  0  0  0
 50 59  1  0  0  0  0
 51 60  1  0  0  0  0
 52 60  1  0  0  0  0
 53 60  1  0  0  0  0
 54 67  1  0  0  0  0
 55 75  1  0  0  0  0
 56 65  1  0  0  0  0
 56 82  1  0  0  0  0
 57 74  1  0  0  0  0
 58 60  1  0  0  0  0
 58 73  1  0  0  0  0
 59 75  1  0  0  0  0
 62 67  1  0  0  0  0
 63 66  1  0  0  0  0
 64 65  1  0  0  0  0
M  CHG  1  75   1
M  ISO  4  37 100  56 101  74 100  82 101
M  END
> <Batch ID>
0053

> <Smiles>
CNC(C)C(=O)NC(C(=O)N1Cc2cc([101O:1][101CH2:1]n3ccc(C([100NH:0][100C:0](=O)N4CCCC(n5nc(-c6ccc(Oc7ccc(F)cc7F)cc6)c(C(N)=O)c5N)C4)c4ncnn4C)n3)ccc2CC1C(=O)NC1CCCc2ccccc21)C(C)(C)C

> <Shape>
0.269

> <Color>
0.055

> <Negative vol penalty>
0.000

$$$$

  -OEChem-04052317383D

 80 88  0     1  0  0  0  0  0999 V2000
  -23.1853  -11.1319   18.6512 C   0  0  0  0  0  0  0  0  0  0  0  0
  -22.4951  -12.3322   18.7854 C   0  0  0  0  0  0  0  0  0  0  0  0
  -26.0246  -28.9386   20.9983 C   0  0  0  0  0  0  0  0  0  0  0  0
  -25.2600  -26.6571   21.2149 C   0  0  0  0  0  0  0  0  0  0  0  0
  -24.4021  -10.9516   19.3075 C   0  0  0  0  0  0  0  0  0  0  0  0
  -23.0207  -13.3528   19.5770 C   0  0  0  0  0  0  0  0  0  0  0  0
  -22.5644  -19.3804   18.5942 C   0  0  0  0  0  0  0  0  0  0  0  0
  -27.2193  -28.4852   20.4392 C   0  0  0  0  0  0  0  0  0  0  0  0
  -26.4547  -26.2036   20.6557 C   0  0  0  0  0  0  0  0  0  0  0  0
  -21.7129  -20.3538   19.1148 C   0  0  0  0  0  0  0  0  0  0  0  0
  -30.1247  -27.1416   21.5244 C   0  0  0  0  0  0  0  0  0  0  0  0
  -31.3119  -27.7118   21.9838 C   0  0  0  0  0  0  0  0  0  0  0  0
  -23.3858  -20.9317   20.7540 C   0  0  0  0  0  0  0  0  0  0  0  0
  -31.8082  -28.4804   19.7477 C   0  0  0  0  0  0  0  0  0  0  0  0
  -19.7308  -24.4370   21.5456 C   0  0  0  0  0  0  0  0  0  0  0  0
  -25.0449  -28.0246   21.3862 C   0  0  0  0  0  0  0  0  0  0  0  0
  -22.8636  -29.3472   21.3695 C   0  0  0  0  0  0  0  0  0  0  0  0
  -24.9477  -11.9740   20.0998 C   0  0  0  0  0  0  0  0  0  0  0  0
  -23.8309  -19.1675   19.1574 C   0  0  0  0  0  0  0  0  0  0  0  0
  -24.2454  -13.1856   20.2456 C   0  0  0  0  0  0  0  0  0  0  0  0
  -24.2524  -19.9567   20.2370 C   0  0  0  0  0  0  0  0  0  0  0  0
  -27.4343  -27.1177   20.2679 C   0  0  0  0  0  0  0  0  0  0  0  0
  -22.1224  -21.1277   20.1967 C   0  0  0  0  0  0  0  0  0  0  0  0
  -29.7793  -27.2408   20.1765 C   0  0  0  0  0  0  0  0  0  0  0  0
  -32.1536  -28.3812   21.0955 C   0  0  0  0  0  0  0  0  0  0  0  0
  -30.6210  -27.9102   19.2883 C   0  0  0  0  0  0  0  0  0  0  0  0
  -23.8108  -28.4923   21.9644 C   0  0  0  0  0  0  0  0  0  0  0  0
  -20.7150  -23.8022   22.2494 C   0  0  0  0  0  0  0  0  0  0  0  0
  -21.8814  -29.4854   22.3196 C   0  0  0  0  0  0  0  0  0  0  0  0
  -19.5726  -25.0674   23.6618 C   0  0  0  0  0  0  0  0  0  0  0  0
  -22.8709  -29.9613   20.0740 C   0  0  0  0  0  0  0  0  0  0  0  0
  -25.2658  -16.7200   20.5908 C   0  0  0  0  0  0  0  0  0  0  0  0
  -27.8488  -18.6798   20.4902 C   0  0  0  0  0  0  0  0  0  0  0  0
  -29.0648  -21.8632   20.3064 C   0  0  0  0  0  0  0  0  0  0  0  0
  -20.5605  -25.7592   27.0004 C   0  0  0  0  0  0  0  0  0  0  0  0
  -26.2429  -11.7154   20.8279 C   0  0  0  0  0  0  0  0  0  0  0  0
  -24.7480  -18.1317   18.5671 C   0  0  0  0  0  0  0  0  0  0  0  0
  -25.6102  -19.7815   20.8649 C   0  0  0  0  0  0  0  0  0  0  0  0
  -26.9141  -12.9846   21.3465 C   0  0  0  0  0  0  0  0  0  0  0  0
  -21.1906  -29.4065   27.0474 C   0  0  0  0  0  0  0  0  0  0  0  0
  -25.8958  -13.8795   22.0457 C   0  0  0  0  0  0  0  0  0  0  0  0
  -21.9188  -29.6358   25.7240 C   0  0  0  0  0  0  0  0  0  0  0  0
  -21.4211  -27.9974   27.5849 C   0  0  0  0  0  0  0  0  0  0  0  0
  -21.8054  -27.1492   25.2942 C   0  0  0  0  0  0  0  0  0  0  0  0
  -24.7951  -14.3254   21.0755 C   0  0  1  0  0  0  0  0  0  0  0  0
  -25.8144  -17.6504   19.5462 C   0  0  1  0  0  0  0  0  0  0  0  0
  -21.5560  -28.5444   24.7020 C   0  0  2  0  0  0  0  0  0  0  0  0
  -31.2185  -23.1510   20.2828 C   0  0  0  0  0  0  0  0  0  0  0  0
  -28.1378  -18.2468   23.4967 C   0  0  0  0  0  0  0  0  0  0  0  0
  -29.6503  -20.2406   23.5680 C   0  0  0  0  0  0  0  0  0  0  0  0
  -30.2937  -18.2365   22.2292 C   0  0  0  0  0  0  0  0  0  0  0  0
  -17.9064  -26.0564   22.1187 C   0  0  0  0  0  0  0  0  0  0  0  0
  -19.0930  -23.8407   26.5052 C   0  0  0  0  0  0  0  0  0  0  0  0
  -28.5065  -22.9730   17.6202 C   0  0  0  0  0  0  0  0  0  0  0  0
  -21.7769  -22.8346   21.8163 C   0  0  0  0  0  0  0  0  0  1  0  0
  -19.1277  -25.7264   24.9150 C   0  0  0  0  0  0  0  0  0  0  0  0
  -28.4290  -19.7315   21.4046 C   0  0  1  0  0  0  0  0  0  0  0  0
  -30.1467  -22.4797   19.4382 C   0  0  2  0  0  0  0  0  0  0  0  0
  -29.1013  -19.1161   22.6643 C   0  0  0  0  0  0  0  0  0  0  0  0
  -23.4618  -28.1142   23.1970 N   0  0  0  0  0  0  0  0  0  0  0  0
  -19.0391  -25.2127   22.4445 N   0  0  0  0  0  0  0  0  0  0  0  0
  -22.2844  -28.7344   23.3844 N   0  0  0  0  0  0  0  0  0  0  0  0
  -20.5937  -24.2109   23.5556 N   0  3  0  0  0  0  0  0  0  0  0  0
  -26.4682  -18.7516   20.2561 N   0  0  0  0  0  0  0  0  0  0  0  0
  -21.1098  -26.9813   26.5789 N   0  0  0  0  0  0  0  0  0  0  0  0
  -20.7209  -30.1748   22.3397 N   0  0  0  0  0  0  0  0  0  0  0  0
  -22.2857  -29.2708   19.0039 N   0  0  0  0  0  0  0  0  0  0  0  0
  -25.2760  -15.3889   20.2199 N   0  0  0  0  0  0  0  0  0  0  0  0
  -29.3251  -20.5376   20.5827 N   0  0  0  0  0  0  0  0  0  0  0  0
  -19.6966  -25.1050   26.1090 N   0  0  0  0  0  0  0  0  0  0  0  0
  -29.5593  -23.5010   18.5256 N   0  3  0  0  0  0  0  0  0  0  0  0
  -23.3958  -31.0818   19.8679 O   0  0  0  0  0  0  0  0  0  0  0  0
  -24.8644  -17.1759   21.6551 O   0  0  0  0  0  0  0  0  0  0  0  0
  -28.5942  -17.8302   19.9960 O   0  0  0  0  0  0  0  0  0  0  0  0
  -28.0884  -22.4955   20.7032 O   0  0  0  0  0  0  0  0  0  0  0  0
  -20.8195  -25.2849   28.1139 O   0  0  0  0  0  0  0  0  0  0  0  0
  -28.5999  -26.6749   19.7221 O   0  0  0  0  0  0  0  0  0  0  0  0
  -21.2930  -22.0781   20.7073 O   0  0  0  0  0  0  0  0  0  1  0  0
  -33.2929  -28.9300   21.5372 F   0  0  0  0  0  0  0  0  0  0  0  0
  -30.2939  -28.0097   17.9925 F   0  0  0  0  0  0  0  0  0  0  0  0
  1  2  1  0  0  0  0
  1  5  2  0  0  0  0
  2  6  2  0  0  0  0
  3  8  2  0  0  0  0
  3 16  1  0  0  0  0
  4  9  1  0  0  0  0
  4 16  2  0  0  0  0
  5 18  1  0  0  0  0
  6 20  1  0  0  0  0
  7 10  2  0  0  0  0
  7 19  1  0  0  0  0
  8 22  1  0  0  0  0
  9 22  2  0  0  0  0
 10 23  1  0  0  0  0
 11 12  2  0  0  0  0
 11 24  1  0  0  0  0
 12 25  1  0  0  0  0
 13 21  1  0  0  0  0
 13 23  2  0  0  0  0
 14 25  2  0  0  0  0
 14 26  1  0  0  0  0
 15 28  2  0  0  0  0
 15 61  1  0  0  0  0
 16 27  1  0  0  0  0
 17 27  1  0  0  0  0
 17 29  2  0  0  0  0
 17 31  1  0  0  0  0
 18 20  2  0  0  0  0
 18 36  1  0  0  0  0
 19 21  2  0  0  0  0
 19 37  1  0  0  0  0
 20 45  1  0  0  0  0
 21 38  1  0  0  0  0
 22 77  1  0  0  0  0
 23 78  1  0  0  0  0
 24 26  2  0  0  0  0
 24 77  1  0  0  0  0
 25 79  1  0  0  0  0
 26 80  1  0  0  0  0
 27 60  2  0  0  0  0
 28 55  1  0  0  0  0
 28 63  1  0  0  0  0
 29 62  1  0  0  0  0
 29 66  1  0  0  0  0
 30 56  1  0  0  0  0
 30 61  1  0  0  0  0
 30 63  2  0  0  0  0
 31 67  1  0  0  0  0
 31 72  2  0  0  0  0
 32 46  1  0  0  0  0
 32 68  1  0  0  0  0
 32 73  2  0  0  0  0
 33 57  1  0  0  0  0
 33 64  1  0  0  0  0
 33 74  2  0  0  0  0
 34 58  1  0  0  0  0
 34 69  1  0  0  0  0
 34 75  2  0  0  0  0
 35 65  1  0  0  0  0
 35 70  1  0  0  0  0
 35 76  2  0  0  0  0
 36 39  1  0  0  0  0
 37 46  1  0  0  0  0
 38 64  1  0  0  0  0
 39 41  1  0  0  0  0
 40 42  1  0  0  0  0
 40 43  1  0  0  0  0
 41 45  1  0  0  0  0
 42 47  1  0  0  0  0
 43 65  1  0  0  0  0
 44 47  1  0  0  0  0
 44 65  1  0  0  0  0
 45 68  1  0  0  0  0
 46 64  1  0  0  0  0
 47 62  1  0  0  0  0
 48 58  1  0  0  0  0
 49 59  1  0  0  0  0
 50 59  1  0  0  0  0
 51 59  1  0  0  0  0
 52 61  1  0  0  0  0
 53 70  1  0  0  0  0
 54 71  1  0  0  0  0
 55 78  1  0  0  0  0
 56 70  1  0  0  0  0
 57 59  1  0  0  0  0
 57 69  1  0  0  0  0
 58 71  1  0  0  0  0
 60 62  1  0  0  0  0
M  CHG  2  63   1  71   1
M  ISO  4  35 100  55 101  70 100  78 101
M  END
> <Batch ID>
0053

> <Smiles>
CNC(C)C(=O)NC(C(=O)N1Cc2cc([101O:1][101CH2:1]c3cn(C)c(C[100N:0](C)[100C:0](=O)N4CCCC(n5nc(-c6ccc(Oc7ccc(F)cc7F)cc6)c(C(N)=O)c5N)C4)n3)ccc2CC1C(=O)NC1CCCc2ccccc21)C(C)(C)C

> <Shape>
0.210

> <Color>
0.077

> <Negative vol penalty>
0.000

$$$$

  -OEChem-04052317383D

 90 98  0     1  0  0  0  0  0999 V2000
  -33.6357  -21.2544   20.7915 C   0  0  0  0  0  0  0  0  0  0  0  0
  -32.2854  -21.3195   21.1200 C   0  0  0  0  0  0  0  0  0  0  0  0
  -23.3101   -9.7791   21.5003 C   0  0  0  0  0  0  0  0  0  0  0  0
  -24.1739  -10.7976   23.5137 C   0  0  0  0  0  0  0  0  0  0  0  0
  -34.3020  -22.3993   20.3565 C   0  0  0  0  0  0  0  0  0  0  0  0
  -31.6009  -22.5298   21.0148 C   0  0  0  0  0  0  0  0  0  0  0  0
  -27.0727  -22.0153   18.8068 C   0  0  0  0  0  0  0  0  0  0  0  0
  -22.7158   -8.7742   22.2636 C   0  0  0  0  0  0  0  0  0  0  0  0
  -23.5796   -9.7927   24.2770 C   0  0  0  0  0  0  0  0  0  0  0  0
  -26.0371  -21.5060   19.5890 C   0  0  0  0  0  0  0  0  0  0  0  0
  -21.2729   -5.7403   23.6554 C   0  0  0  0  0  0  0  0  0  0  0  0
  -21.4081   -4.4237   23.2153 C   0  0  0  0  0  0  0  0  0  0  0  0
  -25.2036  -23.7436   19.9320 C   0  0  0  0  0  0  0  0  0  0  0  0
  -23.8107   -4.6143   23.3836 C   0  0  0  0  0  0  0  0  0  0  0  0
  -28.1183  -16.6567   23.5660 C   0  0  0  0  0  0  0  0  0  0  0  0
  -28.9894  -18.8830   22.3777 C   0  0  0  0  0  0  0  0  0  0  0  0
  -24.0392  -10.7908   22.1253 C   0  0  0  0  0  0  0  0  0  0  0  0
  -24.0841  -13.0594   20.9595 C   0  0  0  0  0  0  0  0  0  0  0  0
  -33.6231  -23.6221   20.2367 C   0  0  0  0  0  0  0  0  0  0  0  0
  -27.1880  -23.3959   18.5899 C   0  0  0  0  0  0  0  0  0  0  0  0
  -32.2592  -23.6924   20.5791 C   0  0  0  0  0  0  0  0  0  0  0  0
  -26.2401  -24.2677   19.1445 C   0  0  0  0  0  0  0  0  0  0  0  0
  -22.8505   -8.7810   23.6520 C   0  0  0  0  0  0  0  0  0  0  0  0
  -25.1040  -22.3703   20.1541 C   0  0  0  0  0  0  0  0  0  0  0  0
  -22.4065   -6.4940   23.9596 C   0  0  0  0  0  0  0  0  0  0  0  0
  -22.6771   -3.8606   23.0794 C   0  0  0  0  0  0  0  0  0  0  0  0
  -23.6754   -5.9310   23.8237 C   0  0  0  0  0  0  0  0  0  0  0  0
  -24.6538  -11.8287   21.3374 C   0  0  0  0  0  0  0  0  0  0  0  0
  -27.7929  -17.9005   24.0607 C   0  0  0  0  0  0  0  0  0  0  0  0
  -29.3155  -17.6394   21.8834 C   0  0  0  0  0  0  0  0  0  0  0  0
  -25.0646  -13.6807   20.2255 C   0  0  0  0  0  0  0  0  0  0  0  0
  -22.7847  -13.5931   21.2465 C   0  0  0  0  0  0  0  0  0  0  0  0
  -29.3774  -25.5980   19.2687 C   0  0  0  0  0  0  0  0  0  0  0  0
  -27.4380  -27.5093   17.5058 C   0  0  0  0  0  0  0  0  0  0  0  0
  -24.3116  -28.1284   16.2856 C   0  0  0  0  0  0  0  0  0  0  0  0
  -30.5068  -15.0792   20.0483 C   0  0  0  0  0  0  0  0  0  0  0  0
  -34.3972  -24.8432   19.8074 C   0  0  0  0  0  0  0  0  0  0  0  0
  -28.2954  -23.9272   17.7217 C   0  0  0  0  0  0  0  0  0  0  0  0
  -26.3077  -25.7563   18.9252 C   0  0  0  0  0  0  0  0  0  0  0  0
  -33.5088  -26.0033   19.3654 C   0  0  0  0  0  0  0  0  0  0  0  0
  -29.4153  -11.9224   18.3644 C   0  0  0  0  0  0  0  0  0  0  0  0
  -32.3766  -26.2195   20.3645 C   0  0  0  0  0  0  0  0  0  0  0  0
  -28.0543  -11.6972   19.0213 C   0  0  0  0  0  0  0  0  0  0  0  0
  -30.3602  -12.6724   19.2956 C   0  0  0  0  0  0  0  0  0  0  0  0
  -28.4576  -13.7593   20.4425 C   0  0  0  0  0  0  0  0  0  0  0  0
  -31.4762  -24.9814   20.4544 C   0  0  1  0  0  0  0  0  0  0  0  0
  -28.6139  -25.3947   17.9907 C   0  0  1  0  0  0  0  0  0  0  0  0
  -27.4628  -13.0228   19.5301 C   0  0  2  0  0  0  0  0  0  0  0  0
  -23.0274  -29.7867   14.9077 C   0  0  0  0  0  0  0  0  0  0  0  0
  -27.8077  -17.3824   19.1366 C   0  0  0  0  0  0  0  0  0  0  0  0
  -27.4042  -29.4415   19.8671 C   0  0  0  0  0  0  0  0  0  0  0  0
  -25.4123  -30.5553   18.8375 C   0  0  0  0  0  0  0  0  0  0  0  0
  -27.5930  -30.5358   17.6263 C   0  0  0  0  0  0  0  0  0  0  0  0
  -29.2795  -16.5201   16.1672 C   0  0  0  0  0  0  0  0  0  0  0  0
  -29.7501  -18.6025   17.4726 C   0  0  0  0  0  0  0  0  0  0  0  0
  -31.3022  -16.6611   17.6312 C   0  0  0  0  0  0  0  0  0  0  0  0
  -23.6295  -26.0872   14.2541 C   0  0  0  0  0  0  0  0  0  0  0  0
  -26.9355  -18.0331   25.2860 C   0  0  0  0  0  0  0  0  0  0  0  0
  -30.1653  -17.5079   20.6682 C   0  0  0  0  0  0  0  0  0  0  0  0
  -23.5048  -20.6717   22.9080 C   0  0  0  0  0  0  0  0  0  0  0  0
  -25.4414  -18.1064   24.9882 C   0  0  0  0  0  0  0  0  0  0  0  0
  -23.7108  -19.4429   23.7808 C   0  0  0  0  0  0  0  0  0  0  0  0
  -24.3534  -20.6740   21.6424 C   0  0  0  0  0  0  0  0  0  1  0  0
  -26.2548  -28.3982   17.8040 C   0  0  1  0  0  0  0  0  0  0  0  0
  -23.8275  -28.4935   14.8938 C   0  0  2  0  0  0  0  0  0  0  0  0
  -29.0041  -16.5208   18.7281 C   0  0  1  0  0  0  0  0  0  0  0  0
  -26.6656  -29.7049   18.5396 C   0  0  0  0  0  0  0  0  0  0  0  0
  -29.8174  -17.0594   17.5062 C   0  0  0  0  0  0  0  0  0  0  0  0
  -28.2223  -19.0360   23.4753 N   0  0  0  0  0  0  0  0  0  0  0  0
  -28.8857  -16.5039   22.4686 N   0  0  0  0  0  0  0  0  0  0  0  0
  -25.8997  -11.6756   20.8809 N   0  0  0  0  0  0  0  0  0  0  0  0
  -26.1208  -12.8180   20.2086 N   0  0  0  0  0  0  0  0  0  0  0  0
  -27.4125  -26.2278   18.0739 N   0  0  0  0  0  0  0  0  0  0  0  0
  -29.7592  -13.9184   19.7898 N   0  0  0  0  0  0  0  0  0  0  0  0
  -25.1177  -14.8755   19.5992 N   0  0  0  0  0  0  0  0  0  0  0  0
  -21.9007  -12.8229   22.0145 N   0  0  0  0  0  0  0  0  0  0  0  0
  -30.5822  -24.9231   19.3178 N   0  0  0  0  0  0  0  0  0  0  0  0
  -25.5775  -28.6171   16.5305 N   0  0  0  0  0  0  0  0  0  0  0  0
  -29.8501  -16.3094   19.8941 N   0  0  0  0  0  0  0  0  0  0  0  0
  -22.9619  -27.4111   14.3460 N   0  3  0  0  0  0  0  0  0  0  0  0
  -25.1331  -19.3162   24.1764 N   0  3  0  0  0  0  0  0  0  0  0  0
  -22.4124  -14.7126   20.8204 O   0  0  0  0  0  0  0  0  0  0  0  0
  -28.9089  -26.3154   20.1449 O   0  0  0  0  0  0  0  0  0  0  0  0
  -28.3478  -27.9339   16.7892 O   0  0  0  0  0  0  0  0  0  0  0  0
  -23.6330  -27.4783   17.0776 O   0  0  0  0  0  0  0  0  0  0  0  0
  -31.6899  -15.0188   20.4068 O   0  0  0  0  0  0  0  0  0  0  0  0
  -22.2705   -7.8008   24.3971 O   0  0  0  0  0  0  0  0  0  0  0  0
  -24.0926  -21.8758   20.9186 O   0  0  0  0  0  0  0  0  0  1  0  0
  -22.8068   -2.5957   22.6582 F   0  0  0  0  0  0  0  0  0  0  0  0
  -24.7682   -6.6497   24.1155 F   0  0  0  0  0  0  0  0  0  0  0  0
  1  2  1  0  0  0  0
  1  5  2  0  0  0  0
  2  6  2  0  0  0  0
  3  8  2  0  0  0  0
  3 17  1  0  0  0  0
  4  9  1  0  0  0  0
  4 17  2  0  0  0  0
  5 19  1  0  0  0  0
  6 21  1  0  0  0  0
  7 10  2  0  0  0  0
  7 20  1  0  0  0  0
  8 23  1  0  0  0  0
  9 23  2  0  0  0  0
 10 24  1  0  0  0  0
 11 12  2  0  0  0  0
 11 25  1  0  0  0  0
 12 26  1  0  0  0  0
 13 22  1  0  0  0  0
 13 24  2  0  0  0  0
 14 26  2  0  0  0  0
 14 27  1  0  0  0  0
 15 29  1  0  0  0  0
 15 70  2  0  0  0  0
 16 30  2  0  0  0  0
 16 69  1  0  0  0  0
 17 28  1  0  0  0  0
 18 28  1  0  0  0  0
 18 31  2  0  0  0  0
 18 32  1  0  0  0  0
 19 21  2  0  0  0  0
 19 37  1  0  0  0  0
 20 22  2  0  0  0  0
 20 38  1  0  0  0  0
 21 46  1  0  0  0  0
 22 39  1  0  0  0  0
 23 87  1  0  0  0  0
 24 88  1  0  0  0  0
 25 27  2  0  0  0  0
 25 87  1  0  0  0  0
 26 89  1  0  0  0  0
 27 90  1  0  0  0  0
 28 71  2  0  0  0  0
 29 58  1  0  0  0  0
 29 69  2  0  0  0  0
 30 59  1  0  0  0  0
 30 70  1  0  0  0  0
 31 72  1  0  0  0  0
 31 75  1  0  0  0  0
 32 76  1  0  0  0  0
 32 82  2  0  0  0  0
 33 47  1  0  0  0  0
 33 77  1  0  0  0  0
 33 83  2  0  0  0  0
 34 64  1  0  0  0  0
 34 73  1  0  0  0  0
 34 84  2  0  0  0  0
 35 65  1  0  0  0  0
 35 78  1  0  0  0  0
 35 85  2  0  0  0  0
 36 74  1  0  0  0  0
 36 79  1  0  0  0  0
 36 86  2  0  0  0  0
 37 40  1  0  0  0  0
 38 47  1  0  0  0  0
 39 73  1  0  0  0  0
 40 42  1  0  0  0  0
 41 43  1  0  0  0  0
 41 44  1  0  0  0  0
 42 46  1  0  0  0  0
 43 48  1  0  0  0  0
 44 74  1  0  0  0  0
 45 48  1  0  0  0  0
 45 74  1  0  0  0  0
 46 77  1  0  0  0  0
 47 73  1  0  0  0  0
 48 72  1  0  0  0  0
 49 65  1  0  0  0  0
 50 66  1  0  0  0  0
 51 67  1  0  0  0  0
 52 67  1  0  0  0  0
 53 67  1  0  0  0  0
 54 68  1  0  0  0  0
 55 68  1  0  0  0  0
 56 68  1  0  0  0  0
 57 80  1  0  0  0  0
 58 61  1  0  0  0  0
 59 79  1  0  0  0  0
 60 62  1  0  0  0  0
 60 63  1  0  0  0  0
 61 81  1  0  0  0  0
 62 81  1  0  0  0  0
 63 88  1  0  0  0  0
 64 67  1  0  0  0  0
 64 78  1  0  0  0  0
 65 80  1  0  0  0  0
 66 68  1  0  0  0  0
 66 79  1  0  0  0  0
 71 72  1  0  0  0  0
M  CHG  2  80   1  81   1
M  ISO  4  36 100  63 101  79 100  88 101
M  END
> <Batch ID>
0053

> <Smiles>
CNC(C)C(=O)NC(C(=O)N1Cc2cc([101O:1][101CH2:1]CCNCCc3cnc(C[100N:0](C(C)C(C)(C)C)[100C:0](=O)N4CCCC(n5nc(-c6ccc(Oc7ccc(F)cc7F)cc6)c(C(N)=O)c5N)C4)cn3)ccc2CC1C(=O)NC1CCCc2ccccc21)C(C)(C)C

> <Shape>
0.211

> <Color>
0.149

> <Negative vol penalty>
0.000

$$$$

  -OEChem-04052317383D

 85 93  0     1  0  0  0  0  0999 V2000
  -23.9119  -25.2861   22.6440 C   0  0  0  0  0  0  0  0  0  0  0  0
  -23.7099  -23.9461   22.3297 C   0  0  0  0  0  0  0  0  0  0  0  0
  -27.4178  -23.4751   20.3617 C   0  0  0  0  0  0  0  0  0  0  0  0
  -29.2369  -23.6052   18.7772 C   0  0  0  0  0  0  0  0  0  0  0  0
  -22.9216  -26.2250   22.3582 C   0  0  0  0  0  0  0  0  0  0  0  0
  -22.5169  -23.5439   21.7302 C   0  0  0  0  0  0  0  0  0  0  0  0
  -23.2610  -20.3382   17.8811 C   0  0  0  0  0  0  0  0  0  0  0  0
  -27.4769  -24.8568   20.5432 C   0  0  0  0  0  0  0  0  0  0  0  0
  -29.2961  -24.9870   18.9586 C   0  0  0  0  0  0  0  0  0  0  0  0
  -23.5385  -19.0104   18.2029 C   0  0  0  0  0  0  0  0  0  0  0  0
  -26.4475  -27.6304   18.9061 C   0  0  0  0  0  0  0  0  0  0  0  0
  -25.2441  -28.3356   18.9117 C   0  0  0  0  0  0  0  0  0  0  0  0
  -21.2400  -18.4286   17.7584 C   0  0  0  0  0  0  0  0  0  0  0  0
  -25.7037  -29.1023   21.1563 C   0  0  0  0  0  0  0  0  0  0  0  0
  -27.8011  -13.7379   18.0814 C   0  0  0  0  0  0  0  0  0  0  0  0
  -28.2978  -22.8493   19.4788 C   0  0  0  0  0  0  0  0  0  0  0  0
  -27.4650  -20.7205   18.3464 C   0  0  0  0  0  0  0  0  0  0  0  0
  -21.7197  -25.8356   21.7461 C   0  0  0  0  0  0  0  0  0  0  0  0
  -21.9661  -20.7239   17.5054 C   0  0  0  0  0  0  0  0  0  0  0  0
  -21.5090  -24.4782   21.4371 C   0  0  0  0  0  0  0  0  0  0  0  0
  -20.9492  -19.7615   17.4299 C   0  0  0  0  0  0  0  0  0  0  0  0
  -28.4160  -25.6128   19.8416 C   0  0  0  0  0  0  0  0  0  0  0  0
  -22.5273  -18.0559   18.1444 C   0  0  0  0  0  0  0  0  0  0  0  0
  -27.2791  -27.6611   20.0257 C   0  0  0  0  0  0  0  0  0  0  0  0
  -24.8722  -29.0716   20.0367 C   0  0  0  0  0  0  0  0  0  0  0  0
  -26.9072  -28.3970   21.1507 C   0  0  0  0  0  0  0  0  0  0  0  0
  -28.2376  -21.4219   19.2913 C   0  0  0  0  0  0  0  0  0  0  0  0
  -27.3019  -13.1510   19.2169 C   0  0  0  0  0  0  0  0  0  0  0  0
  -27.7598  -19.3986   18.5750 C   0  0  0  0  0  0  0  0  0  0  0  0
  -26.5616  -21.2192   17.3509 C   0  0  0  0  0  0  0  0  0  0  0  0
  -19.7836  -22.7075   18.6911 C   0  0  0  0  0  0  0  0  0  0  0  0
  -18.1971  -21.9728   15.9588 C   0  0  0  0  0  0  0  0  0  0  0  0
  -17.6953  -19.7667   13.4038 C   0  0  0  0  0  0  0  0  0  0  0  0
  -31.4564  -15.3399   19.5787 C   0  0  0  0  0  0  0  0  0  0  0  0
  -20.6592  -26.8792   21.4996 C   0  0  0  0  0  0  0  0  0  0  0  0
  -21.6893  -22.1553   17.1355 C   0  0  0  0  0  0  0  0  0  0  0  0
  -19.5472  -20.1203   17.0127 C   0  0  0  0  0  0  0  0  0  0  0  0
  -19.5768  -26.4286   20.5220 C   0  0  0  0  0  0  0  0  0  0  0  0
  -30.2666  -17.1942   22.3755 C   0  0  0  0  0  0  0  0  0  0  0  0
  -19.0953  -25.0235   20.8693 C   0  0  0  0  0  0  0  0  0  0  0  0
  -29.5748  -18.4040   21.7447 C   0  0  0  0  0  0  0  0  0  0  0  0
  -31.5107  -16.7832   21.5912 C   0  0  0  0  0  0  0  0  0  0  0  0
  -30.5948  -17.7587   19.5217 C   0  0  0  0  0  0  0  0  0  0  0  0
  -20.2384  -24.0068   20.7637 C   0  0  1  0  0  0  0  0  0  0  0  0
  -20.2162  -22.5311   17.2630 C   0  0  1  0  0  0  0  0  0  0  0  0
  -29.3032  -18.1761   20.2456 C   0  0  2  0  0  0  0  0  0  0  0  0
  -16.3065  -19.4231   11.3420 C   0  0  0  0  0  0  0  0  0  0  0  0
  -30.2931  -12.1692   16.1098 C   0  0  0  0  0  0  0  0  0  0  0  0
  -15.8062  -21.2184   17.6979 C   0  0  0  0  0  0  0  0  0  0  0  0
  -14.8385  -20.0184   15.7252 C   0  0  0  0  0  0  0  0  0  0  0  0
  -15.2265  -22.4802   15.6180 C   0  0  0  0  0  0  0  0  0  0  0  0
  -20.0859  -19.7254   11.6597 C   0  0  0  0  0  0  0  0  0  0  0  0
  -26.9964  -14.8027   21.6241 C   0  0  0  0  0  0  0  0  0  0  0  0
  -25.9704  -13.3539   19.8780 C   0  0  0  0  0  0  0  0  0  0  0  0
  -23.5156  -15.2299   20.1603 C   0  0  0  0  0  0  0  0  0  0  0  0
  -31.3227  -14.0141   17.4850 C   0  0  0  0  0  0  0  0  0  0  0  0
  -24.5386  -14.8780   21.2299 C   0  0  0  0  0  0  0  0  0  0  0  0
  -23.8266  -16.5228   19.4163 C   0  0  0  0  0  0  0  0  0  1  0  0
  -17.2063  -20.9093   15.5508 C   0  0  1  0  0  0  0  0  0  0  0  0
  -17.6117  -19.9675   11.9014 C   0  0  2  0  0  0  0  0  0  0  0  0
  -30.0134  -13.4372   16.9236 C   0  0  2  0  0  0  0  0  0  0  0  0
  -15.7952  -21.1499   16.1577 C   0  0  0  0  0  0  0  0  0  0  0  0
  -28.9682  -20.6126   20.0629 N   0  0  0  0  0  0  0  0  0  0  0  0
  -28.2247  -12.2813   19.7283 N   0  0  0  0  0  0  0  0  0  0  0  0
  -29.2933  -12.3095   18.9394 N   0  0  0  0  0  0  0  0  0  0  0  0
  -29.0373  -13.1836   17.9526 N   0  0  0  0  0  0  0  0  0  0  0  0
  -28.6559  -19.3890   19.6032 N   0  0  0  0  0  0  0  0  0  0  0  0
  -19.3248  -21.5340   16.6669 N   0  0  0  0  0  0  0  0  0  0  0  0
  -31.1847  -16.5811   20.1774 N   0  0  0  0  0  0  0  0  0  0  0  0
  -27.3373  -18.2552   17.9950 N   0  0  0  0  0  0  0  0  0  0  0  0
  -26.3752  -22.6047   17.2519 N   0  0  0  0  0  0  0  0  0  0  0  0
  -20.4926  -23.6741   19.3784 N   0  0  0  0  0  0  0  0  0  0  0  0
  -17.2303  -20.8669   14.0927 N   0  0  0  0  0  0  0  0  0  0  0  0
  -31.1107  -15.2306   18.2373 N   0  0  0  0  0  0  0  0  0  0  0  0
  -18.7408  -19.2712   11.2222 N   0  3  0  0  0  0  0  0  0  0  0  0
  -25.8737  -14.6628   20.6243 N   0  3  1  0  0  0  0  0  0  0  0  0
  -25.9257  -20.4577   16.5832 O   0  0  0  0  0  0  0  0  0  0  0  0
  -18.8730  -22.0186   19.1360 O   0  0  0  0  0  0  0  0  0  0  0  0
  -17.9820  -23.1486   15.6540 O   0  0  0  0  0  0  0  0  0  0  0  0
  -18.1261  -18.7355   13.9150 O   0  0  0  0  0  0  0  0  0  0  0  0
  -31.9643  -14.3971   20.1953 O   0  0  0  0  0  0  0  0  0  0  0  0
  -28.4739  -26.9611   20.0183 O   0  0  0  0  0  0  0  0  0  0  0  0
  -22.7953  -16.7592   18.4587 O   0  0  0  0  0  0  0  0  0  1  0  0
  -23.7173  -29.7500   20.0414 F   0  0  0  0  0  0  0  0  0  0  0  0
  -27.7025  -28.4312   22.2287 F   0  0  0  0  0  0  0  0  0  0  0  0
  1  2  1  0  0  0  0
  1  5  2  0  0  0  0
  2  6  2  0  0  0  0
  3  8  2  0  0  0  0
  3 16  1  0  0  0  0
  4  9  1  0  0  0  0
  4 16  2  0  0  0  0
  5 18  1  0  0  0  0
  6 20  1  0  0  0  0
  7 10  2  0  0  0  0
  7 19  1  0  0  0  0
  8 22  1  0  0  0  0
  9 22  2  0  0  0  0
 10 23  1  0  0  0  0
 11 12  2  0  0  0  0
 11 24  1  0  0  0  0
 12 25  1  0  0  0  0
 13 21  1  0  0  0  0
 13 23  2  0  0  0  0
 14 25  2  0  0  0  0
 14 26  1  0  0  0  0
 15 28  2  0  0  0  0
 15 66  1  0  0  0  0
 16 27  1  0  0  0  0
 17 27  1  0  0  0  0
 17 29  2  0  0  0  0
 17 30  1  0  0  0  0
 18 20  2  0  0  0  0
 18 35  1  0  0  0  0
 19 21  2  0  0  0  0
 19 36  1  0  0  0  0
 20 44  1  0  0  0  0
 21 37  1  0  0  0  0
 22 82  1  0  0  0  0
 23 83  1  0  0  0  0
 24 26  2  0  0  0  0
 24 82  1  0  0  0  0
 25 84  1  0  0  0  0
 26 85  1  0  0  0  0
 27 63  2  0  0  0  0
 28 54  1  0  0  0  0
 28 64  1  0  0  0  0
 29 67  1  0  0  0  0
 29 70  1  0  0  0  0
 30 71  1  0  0  0  0
 30 77  2  0  0  0  0
 31 45  1  0  0  0  0
 31 72  1  0  0  0  0
 31 78  2  0  0  0  0
 32 59  1  0  0  0  0
 32 68  1  0  0  0  0
 32 79  2  0  0  0  0
 33 60  1  0  0  0  0
 33 73  1  0  0  0  0
 33 80  2  0  0  0  0
 34 69  1  0  0  0  0
 34 74  1  0  0  0  0
 34 81  2  0  0  0  0
 35 38  1  0  0  0  0
 36 45  1  0  0  0  0
 37 68  1  0  0  0  0
 38 40  1  0  0  0  0
 39 41  1  0  0  0  0
 39 42  1  0  0  0  0
 40 44  1  0  0  0  0
 41 46  1  0  0  0  0
 42 69  1  0  0  0  0
 43 46  1  0  0  0  0
 43 69  1  0  0  0  0
 44 72  1  0  0  0  0
 45 68  1  0  0  0  0
 46 67  1  0  0  0  0
 47 60  1  0  0  0  0
 48 61  1  0  0  0  0
 49 62  1  0  0  0  0
 50 62  1  0  0  0  0
 51 62  1  0  0  0  0
 52 75  1  0  0  0  0
 53 76  1  0  0  0  0
 54 76  1  0  0  0  0
 55 57  1  0  0  0  0
 55 58  1  0  0  0  0
 56 61  1  0  0  0  0
 56 74  1  0  0  0  0
 57 76  1  0  0  0  0
 58 83  1  0  0  0  0
 59 62  1  0  0  0  0
 59 73  1  0  0  0  0
 60 75  1  0  0  0  0
 61 66  1  0  0  0  0
 63 67  1  0  0  0  0
 64 65  2  0  0  0  0
 65 66  1  0  0  0  0
M  CHG  2  75   1  76   1
M  ISO  4  34 100  58 101  74 100  83 101
M  END
> <Batch ID>
0053

> <Smiles>
CNC(C)C(=O)NC(C(=O)N1Cc2cc([101O:1][101CH2:1]CCN(C)Cc3cn(C(C)C[100NH:0][100C:0](=O)N4CCCC(n5nc(-c6ccc(Oc7ccc(F)cc7F)cc6)c(C(N)=O)c5N)C4)nn3)ccc2CC1C(=O)NC1CCCc2ccccc21)C(C)(C)C

> <Shape>
0.204

> <Color>
0.084

> <Negative vol penalty>
0.000

$$$$

  -OEChem-04052317383D

 84 92  0     1  0  0  0  0  0999 V2000
  -17.9354  -32.1140   20.8073 C   0  0  0  0  0  0  0  0  0  0  0  0
  -19.2371  -32.0421   20.3218 C   0  0  0  0  0  0  0  0  0  0  0  0
  -29.6436  -17.7486   21.3287 C   0  0  0  0  0  0  0  0  0  0  0  0
  -31.7409  -18.2200   20.2258 C   0  0  0  0  0  0  0  0  0  0  0  0
  -17.6270  -31.5731   22.0547 C   0  0  0  0  0  0  0  0  0  0  0  0
  -20.2315  -31.4301   21.0841 C   0  0  0  0  0  0  0  0  0  0  0  0
  -24.9749  -28.1607   19.0061 C   0  0  0  0  0  0  0  0  0  0  0  0
  -29.8518  -16.3823   21.1408 C   0  0  0  0  0  0  0  0  0  0  0  0
  -31.9491  -16.8536   20.0378 C   0  0  0  0  0  0  0  0  0  0  0  0
  -26.3116  -28.4864   18.7806 C   0  0  0  0  0  0  0  0  0  0  0  0
  -29.6603  -12.7868   20.6312 C   0  0  0  0  0  0  0  0  0  0  0  0
  -28.5864  -12.0223   20.1756 C   0  0  0  0  0  0  0  0  0  0  0  0
  -26.8868  -27.6027   20.9502 C   0  0  0  0  0  0  0  0  0  0  0  0
  -28.4746  -13.3716   18.1747 C   0  0  0  0  0  0  0  0  0  0  0  0
  -31.4105  -29.8032   20.7253 C   0  0  0  0  0  0  0  0  0  0  0  0
  -30.5881  -18.6675   20.8712 C   0  0  0  0  0  0  0  0  0  0  0  0
  -30.7777  -20.8575   22.1656 C   0  0  0  0  0  0  0  0  0  0  0  0
  -18.6160  -30.9456   22.8285 C   0  0  0  0  0  0  0  0  0  0  0  0
  -24.5817  -27.5625   20.2119 C   0  0  0  0  0  0  0  0  0  0  0  0
  -19.9363  -30.8815   22.3437 C   0  0  0  0  0  0  0  0  0  0  0  0
  -25.5448  -27.2680   21.1876 C   0  0  0  0  0  0  0  0  0  0  0  0
  -31.0046  -15.9348   20.4954 C   0  0  0  0  0  0  0  0  0  0  0  0
  -27.2673  -28.2100   19.7538 C   0  0  0  0  0  0  0  0  0  0  0  0
  -30.1414  -13.8439   19.8586 C   0  0  0  0  0  0  0  0  0  0  0  0
  -27.9935  -12.3146   18.9473 C   0  0  0  0  0  0  0  0  0  0  0  0
  -29.5485  -14.1363   18.6303 C   0  0  0  0  0  0  0  0  0  0  0  0
  -30.3733  -20.0791   21.0645 C   0  0  0  0  0  0  0  0  0  0  0  0
  -32.6742  -30.1428   20.2869 C   0  0  0  0  0  0  0  0  0  0  0  0
  -30.8691  -28.6655   20.1626 C   0  0  0  0  0  0  0  0  0  0  0  0
  -30.3383  -22.1248   21.8700 C   0  0  0  0  0  0  0  0  0  0  0  0
  -32.7298  -28.3451   18.8968 C   0  0  0  0  0  0  0  0  0  0  0  0
  -31.4870  -20.4697   23.3497 C   0  0  0  0  0  0  0  0  0  0  0  0
  -22.6462  -28.3824   22.5963 C   0  0  0  0  0  0  0  0  0  0  0  0
  -23.2962  -25.3801   23.6387 C   0  0  0  0  0  0  0  0  0  0  0  0
  -25.4187  -22.7077   23.6341 C   0  0  0  0  0  0  0  0  0  0  0  0
  -29.1303  -24.9228   16.7160 C   0  0  0  0  0  0  0  0  0  0  0  0
  -18.2449  -30.4174   24.1916 C   0  0  0  0  0  0  0  0  0  0  0  0
  -23.1399  -27.1930   20.4289 C   0  0  0  0  0  0  0  0  0  0  0  0
  -25.1776  -26.6082   22.4907 C   0  0  0  0  0  0  0  0  0  0  0  0
  -19.2765  -29.4540   24.7730 C   0  0  0  0  0  0  0  0  0  0  0  0
  -26.9113  -24.4320   19.4568 C   0  0  0  0  0  0  0  0  0  0  0  0
  -20.6845  -30.0180   24.6109 C   0  0  0  0  0  0  0  0  0  0  0  0
  -27.5835  -23.3310   20.2790 C   0  0  0  0  0  0  0  0  0  0  0  0
  -27.1067  -24.2160   17.9577 C   0  0  0  0  0  0  0  0  0  0  0  0
  -29.1815  -22.9469   18.3561 C   0  0  0  0  0  0  0  0  0  0  0  0
  -21.0373  -30.2037   23.1302 C   0  0  1  0  0  0  0  0  0  0  0  0
  -22.7738  -27.0552   21.9035 C   0  0  1  0  0  0  0  0  0  0  0  0
  -29.0595  -23.1519   19.8757 C   0  0  2  0  0  0  0  0  0  0  0  0
  -33.3418  -31.3577   20.8383 C   0  0  0  0  0  0  0  0  0  0  0  0
  -26.2417  -20.3870   24.1182 C   0  0  0  0  0  0  0  0  0  0  0  0
  -24.1161  -26.6178   26.3044 C   0  0  0  0  0  0  0  0  0  0  0  0
  -25.2541  -24.4622   26.8758 C   0  0  0  0  0  0  0  0  0  0  0  0
  -22.7886  -24.5073   26.4985 C   0  0  0  0  0  0  0  0  0  0  0  0
  -34.7493  -27.9709   17.5034 C   0  0  0  0  0  0  0  0  0  0  0  0
  -24.1365  -21.6200   21.1986 C   0  0  0  0  0  0  0  0  0  0  0  0
  -29.4987  -28.2161   20.5766 C   0  0  0  0  0  0  0  0  0  1  0  0
  -31.8772  -26.7337   16.2332 C   0  0  0  0  0  0  0  0  0  0  0  0
  -31.2422  -25.5200   15.5573 C   0  0  0  0  0  0  0  0  0  0  0  0
  -32.8232  -26.3823   17.3806 C   0  0  0  0  0  0  0  0  0  0  0  0
  -24.3492  -24.7609   24.5257 C   0  0  1  0  0  0  0  0  0  0  0  0
  -25.1689  -21.2233   23.4382 C   0  0  2  0  0  0  0  0  0  0  0  0
  -24.1340  -25.1013   26.0274 C   0  0  0  0  0  0  0  0  0  0  0  0
  -29.7267  -20.7922   20.1386 N   0  0  0  0  0  0  0  0  0  0  0  0
  -33.3653  -29.4338   19.3705 N   0  0  0  0  0  0  0  0  0  0  0  0
  -31.5031  -27.9098   19.2421 N   0  0  0  0  0  0  0  0  0  0  0  0
  -29.7213  -22.0320   20.6572 N   0  0  0  0  0  0  0  0  0  0  0  0
  -23.7541  -26.2719   22.6584 N   0  0  0  0  0  0  0  0  0  0  0  0
  -28.5281  -24.0549   17.6418 N   0  0  0  0  0  0  0  0  0  0  0  0
  -30.4234  -23.2984   22.5317 N   0  0  0  0  0  0  0  0  0  0  0  0
  -31.8635  -19.1274   23.4936 N   0  0  0  0  0  0  0  0  0  0  0  0
  -21.3805  -28.9327   22.5291 N   0  0  0  0  0  0  0  0  0  0  0  0
  -24.3435  -23.3323   24.2299 N   0  0  0  0  0  0  0  0  0  0  0  0
  -30.4820  -24.7052   16.4788 N   0  0  0  0  0  0  0  0  0  0  0  0
  -33.4236  -27.5783   17.9355 N   0  0  3  0  0  0  0  0  0  0  0  0
  -25.1604  -20.8866   21.9864 N   0  3  0  0  0  0  0  0  0  0  0  0
  -31.7640  -21.2861   24.2610 O   0  0  0  0  0  0  0  0  0  0  0  0
  -23.6234  -28.8702   23.1521 O   0  0  0  0  0  0  0  0  0  0  0  0
  -22.1118  -25.0780   23.8046 O   0  0  0  0  0  0  0  0  0  0  0  0
  -26.4647  -23.2575   23.2961 O   0  0  0  0  0  0  0  0  0  0  0  0
  -28.5107  -25.8281   16.1473 O   0  0  0  0  0  0  0  0  0  0  0  0
  -31.2082  -14.6016   20.3120 O   0  0  0  0  0  0  0  0  0  0  0  0
  -28.5727  -28.5275   19.5365 O   0  0  0  0  0  0  0  0  0  1  0  0
  -26.9632  -11.5793   18.5092 F   0  0  0  0  0  0  0  0  0  0  0  0
  -30.0071  -15.1498   17.8831 F   0  0  0  0  0  0  0  0  0  0  0  0
  1  2  1  0  0  0  0
  1  5  2  0  0  0  0
  2  6  2  0  0  0  0
  3  8  2  0  0  0  0
  3 16  1  0  0  0  0
  4  9  1  0  0  0  0
  4 16  2  0  0  0  0
  5 18  1  0  0  0  0
  6 20  1  0  0  0  0
  7 10  2  0  0  0  0
  7 19  1  0  0  0  0
  8 22  1  0  0  0  0
  9 22  2  0  0  0  0
 10 23  1  0  0  0  0
 11 12  2  0  0  0  0
 11 24  1  0  0  0  0
 12 25  1  0  0  0  0
 13 21  1  0  0  0  0
 13 23  2  0  0  0  0
 14 25  2  0  0  0  0
 14 26  1  0  0  0  0
 15 28  2  0  0  0  0
 15 29  1  0  0  0  0
 16 27  1  0  0  0  0
 17 27  1  0  0  0  0
 17 30  2  0  0  0  0
 17 32  1  0  0  0  0
 18 20  2  0  0  0  0
 18 37  1  0  0  0  0
 19 21  2  0  0  0  0
 19 38  1  0  0  0  0
 20 46  1  0  0  0  0
 21 39  1  0  0  0  0
 22 81  1  0  0  0  0
 23 82  1  0  0  0  0
 24 26  2  0  0  0  0
 24 81  1  0  0  0  0
 25 83  1  0  0  0  0
 26 84  1  0  0  0  0
 27 63  2  0  0  0  0
 28 49  1  0  0  0  0
 28 64  1  0  0  0  0
 29 56  1  0  0  0  0
 29 65  2  0  0  0  0
 30 66  1  0  0  0  0
 30 69  1  0  0  0  0
 31 64  2  0  0  0  0
 31 65  1  0  0  0  0
 31 74  1  0  0  0  0
 32 70  1  0  0  0  0
 32 76  2  0  0  0  0
 33 47  1  0  0  0  0
 33 71  1  0  0  0  0
 33 77  2  0  0  0  0
 34 60  1  0  0  0  0
 34 67  1  0  0  0  0
 34 78  2  0  0  0  0
 35 61  1  0  0  0  0
 35 72  1  0  0  0  0
 35 79  2  0  0  0  0
 36 68  1  0  0  0  0
 36 73  1  0  0  0  0
 36 80  2  0  0  0  0
 37 40  1  0  0  0  0
 38 47  1  0  0  0  0
 39 67  1  0  0  0  0
 40 42  1  0  0  0  0
 41 43  1  0  0  0  0
 41 44  1  0  0  0  0
 42 46  1  0  0  0  0
 43 48  1  0  0  0  0
 44 68  1  0  0  0  0
 45 48  1  0  0  0  0
 45 68  1  0  0  0  0
 46 71  1  0  0  0  0
 47 67  1  0  0  0  0
 48 66  1  0  0  0  0
 50 61  1  0  0  0  0
 51 62  1  0  0  0  0
 52 62  1  0  0  0  0
 53 62  1  0  0  0  0
 54 74  1  0  0  0  0
 55 75  1  0  0  0  0
 56 82  1  0  0  0  0
 57 58  1  0  0  0  0
 57 59  1  0  0  0  0
 58 73  1  0  0  0  0
 59 74  1  0  0  0  0
 60 62  1  0  0  0  0
 60 72  1  0  0  0  0
 61 75  1  0  0  0  0
 63 66  1  0  0  0  0
M  CHG  1  75   1
M  ISO  4  36 100  56 101  73 100  82 101
M  END
> <Batch ID>
0053

> <Smiles>
CNC(C)C(=O)NC(C(=O)N1Cc2cc([101O:1][101CH2:1]c3cc(C)nc(N(C)CCC[100NH:0][100C:0](=O)N4CCCC(n5nc(-c6ccc(Oc7ccc(F)cc7F)cc6)c(C(N)=O)c5N)C4)n3)ccc2CC1C(=O)NC1CCCc2ccccc21)C(C)(C)C

> <Shape>
0.191

> <Color>
0.097

> <Negative vol penalty>
0.000

$$$$

  -OEChem-04052317383D

 78 86  0     1  0  0  0  0  0999 V2000
  -25.3537  -35.4862   22.7169 C   0  0  0  0  0  0  0  0  0  0  0  0
  -26.0394  -34.2980   22.4858 C   0  0  0  0  0  0  0  0  0  0  0  0
  -26.6919  -12.6991   21.1191 C   0  0  0  0  0  0  0  0  0  0  0  0
  -26.6645  -13.0865   18.7346 C   0  0  0  0  0  0  0  0  0  0  0  0
  -24.1183  -35.4625   23.3629 C   0  0  0  0  0  0  0  0  0  0  0  0
  -25.4906  -33.0854   22.9015 C   0  0  0  0  0  0  0  0  0  0  0  0
  -25.8547  -29.4755   19.3686 C   0  0  0  0  0  0  0  0  0  0  0  0
  -26.1701  -11.4213   20.9175 C   0  0  0  0  0  0  0  0  0  0  0  0
  -26.1428  -11.8087   18.5329 C   0  0  0  0  0  0  0  0  0  0  0  0
  -27.0939  -28.8547   19.2180 C   0  0  0  0  0  0  0  0  0  0  0  0
  -23.1552  -10.0352   20.2744 C   0  0  0  0  0  0  0  0  0  0  0  0
  -22.1121   -9.6236   21.1039 C   0  0  0  0  0  0  0  0  0  0  0  0
  -26.3081  -26.9831   20.5213 C   0  0  0  0  0  0  0  0  0  0  0  0
  -23.4623   -7.7791   21.8864 C   0  0  0  0  0  0  0  0  0  0  0  0
  -29.2827  -23.7826   18.7564 C   0  0  0  0  0  0  0  0  0  0  0  0
  -28.6897  -24.5124   16.7633 C   0  0  0  0  0  0  0  0  0  0  0  0
  -26.9390  -13.5317   20.0276 C   0  0  0  0  0  0  0  0  0  0  0  0
  -28.8358  -15.2189   20.2792 C   0  0  0  0  0  0  0  0  0  0  0  0
  -23.5496  -34.2481   23.7781 C   0  0  0  0  0  0  0  0  0  0  0  0
  -24.8347  -28.8586   20.1072 C   0  0  0  0  0  0  0  0  0  0  0  0
  -24.2471  -33.0456   23.5548 C   0  0  0  0  0  0  0  0  0  0  0  0
  -25.0559  -27.5970   20.6777 C   0  0  0  0  0  0  0  0  0  0  0  0
  -25.8956  -10.9761   19.6244 C   0  0  0  0  0  0  0  0  0  0  0  0
  -27.3217  -27.6097   19.7968 C   0  0  0  0  0  0  0  0  0  0  0  0
  -24.3518   -9.3188   20.2508 C   0  0  0  0  0  0  0  0  0  0  0  0
  -22.2656   -8.4956   21.9099 C   0  0  0  0  0  0  0  0  0  0  0  0
  -24.5054   -8.1908   21.0568 C   0  0  0  0  0  0  0  0  0  0  0  0
  -27.4774  -14.8520   20.2353 C   0  0  0  0  0  0  0  0  0  0  0  0
  -28.4903  -22.8693   18.1016 C   0  0  0  0  0  0  0  0  0  0  0  0
  -28.8184  -16.5746   20.4988 C   0  0  0  0  0  0  0  0  0  0  0  0
  -30.0085  -14.4069   20.1342 C   0  0  0  0  0  0  0  0  0  0  0  0
  -23.2159  -29.5915   22.7427 C   0  0  0  0  0  0  0  0  0  0  0  0
  -26.7259  -21.6246   19.3119 C   0  0  0  0  0  0  0  0  0  0  0  0
  -21.5158  -26.9399   21.9676 C   0  0  0  0  0  0  0  0  0  0  0  0
  -21.4045  -23.9433   20.3384 C   0  0  0  0  0  0  0  0  0  0  0  0
  -22.2338  -34.2770   24.5147 C   0  0  0  0  0  0  0  0  0  0  0  0
  -23.4947  -29.5293   20.2379 C   0  0  0  0  0  0  0  0  0  0  0  0
  -23.9871  -26.8834   21.4631 C   0  0  0  0  0  0  0  0  0  0  0  0
  -21.5474  -32.9155   24.5891 C   0  0  0  0  0  0  0  0  0  0  0  0
  -25.0342  -19.6616   21.7867 C   0  0  0  0  0  0  0  0  0  0  0  0
  -22.5447  -31.8366   24.9992 C   0  0  0  0  0  0  0  0  0  0  0  0
  -25.6085  -18.2596   21.5870 C   0  0  0  0  0  0  0  0  0  0  0  0
  -24.9068  -20.4068   20.4618 C   0  0  0  0  0  0  0  0  0  0  0  0
  -26.7572  -19.0868   19.4843 C   0  0  0  0  0  0  0  0  0  0  0  0
  -23.6730  -31.7079   23.9687 C   0  0  1  0  0  0  0  0  0  0  0  0
  -22.6977  -29.0419   21.4439 C   0  0  1  0  0  0  0  0  0  0  0  0
  -26.9311  -18.3107   20.8018 C   0  0  2  0  0  0  0  0  0  0  0  0
  -19.8938  -21.9838   19.9193 C   0  0  0  0  0  0  0  0  0  0  0  0
  -22.0689  -25.9135   24.7873 C   0  0  0  0  0  0  0  0  0  0  0  0
  -21.3886  -23.6313   24.0148 C   0  0  0  0  0  0  0  0  0  0  0  0
  -19.7423  -25.5048   23.9660 C   0  0  0  0  0  0  0  0  0  0  0  0
  -21.4120  -24.4143   17.4166 C   0  0  0  0  0  0  0  0  0  0  0  0
  -28.0391  -21.5516   18.5742 C   0  0  0  0  0  0  0  0  0  0  0  0
  -30.1719  -26.1059   18.1237 C   0  0  0  0  0  0  0  0  0  0  0  0
  -29.2587  -27.2807   18.4566 C   0  0  0  0  0  0  0  0  0  1  0  0
  -21.6283  -25.4678   22.2826 C   0  0  1  0  0  0  0  0  0  0  0  0
  -20.3648  -23.3381   19.4126 C   0  0  2  0  0  0  0  0  0  0  0  0
  -21.2280  -25.1434   23.7496 C   0  0  0  0  0  0  0  0  0  0  0  0
  -28.1248  -23.3294   16.8614 N   0  0  0  0  0  0  0  0  0  0  0  0
  -26.6567  -15.8907   20.4130 N   0  0  0  0  0  0  0  0  0  0  0  0
  -29.4019  -24.8296   17.8864 N   0  0  0  0  0  0  0  0  0  0  0  0
  -27.5019  -16.9237   20.5707 N   0  0  0  0  0  0  0  0  0  0  0  0
  -22.6959  -27.5829   21.5680 N   0  0  0  0  0  0  0  0  0  0  0  0
  -26.1783  -20.4138   19.7361 N   0  0  0  0  0  0  0  0  0  0  0  0
  -29.8009  -17.4902   20.6356 N   0  0  0  0  0  0  0  0  0  0  0  0
  -29.8464  -13.0324   19.9135 N   0  0  0  0  0  0  0  0  0  0  0  0
  -23.2169  -30.9718   22.8091 N   0  0  0  0  0  0  0  0  0  0  0  0
  -20.8304  -24.7733   21.2780 N   0  0  0  0  0  0  0  0  0  0  0  0
  -20.9307  -23.1575   18.0458 N   0  3  0  0  0  0  0  0  0  0  0  0
  -31.1661  -14.8833   20.2149 O   0  0  0  0  0  0  0  0  0  0  0  0
  -23.5860  -28.8204   23.6203 O   0  0  0  0  0  0  0  0  0  0  0  0
  -26.2055  -22.7261   19.5071 O   0  0  0  0  0  0  0  0  0  0  0  0
  -20.4196  -27.4972   22.0654 O   0  0  0  0  0  0  0  0  0  0  0  0
  -22.6054  -23.7008   20.2405 O   0  0  0  0  0  0  0  0  0  0  0  0
  -25.3868   -9.7292   19.4273 O   0  0  0  0  0  0  0  0  0  0  0  0
  -28.5306  -27.0018   19.6519 O   0  0  0  0  0  0  0  0  0  1  0  0
  -21.2644   -8.1013   22.7076 F   0  0  0  0  0  0  0  0  0  0  0  0
  -25.6530   -7.4991   21.0393 F   0  0  0  0  0  0  0  0  0  0  0  0
  1  2  1  0  0  0  0
  1  5  2  0  0  0  0
  2  6  2  0  0  0  0
  3  8  2  0  0  0  0
  3 17  1  0  0  0  0
  4  9  1  0  0  0  0
  4 17  2  0  0  0  0
  5 19  1  0  0  0  0
  6 21  1  0  0  0  0
  7 10  2  0  0  0  0
  7 20  1  0  0  0  0
  8 23  1  0  0  0  0
  9 23  2  0  0  0  0
 10 24  1  0  0  0  0
 11 12  2  0  0  0  0
 11 25  1  0  0  0  0
 12 26  1  0  0  0  0
 13 22  1  0  0  0  0
 13 24  2  0  0  0  0
 14 26  2  0  0  0  0
 14 27  1  0  0  0  0
 15 29  2  0  0  0  0
 15 61  1  0  0  0  0
 16 59  2  0  0  0  0
 16 61  1  0  0  0  0
 17 28  1  0  0  0  0
 18 28  1  0  0  0  0
 18 30  2  0  0  0  0
 18 31  1  0  0  0  0
 19 21  2  0  0  0  0
 19 36  1  0  0  0  0
 20 22  2  0  0  0  0
 20 37  1  0  0  0  0
 21 45  1  0  0  0  0
 22 38  1  0  0  0  0
 23 75  1  0  0  0  0
 24 76  1  0  0  0  0
 25 27  2  0  0  0  0
 25 75  1  0  0  0  0
 26 77  1  0  0  0  0
 27 78  1  0  0  0  0
 28 60  2  0  0  0  0
 29 53  1  0  0  0  0
 29 59  1  0  0  0  0
 30 62  1  0  0  0  0
 30 65  1  0  0  0  0
 31 66  1  0  0  0  0
 31 70  2  0  0  0  0
 32 46  1  0  0  0  0
 32 67  1  0  0  0  0
 32 71  2  0  0  0  0
 33 53  1  0  0  0  0
 33 64  1  0  0  0  0
 33 72  2  0  0  0  0
 34 56  1  0  0  0  0
 34 63  1  0  0  0  0
 34 73  2  0  0  0  0
 35 57  1  0  0  0  0
 35 68  1  0  0  0  0
 35 74  2  0  0  0  0
 36 39  1  0  0  0  0
 37 46  1  0  0  0  0
 38 63  1  0  0  0  0
 39 41  1  0  0  0  0
 40 42  1  0  0  0  0
 40 43  1  0  0  0  0
 41 45  1  0  0  0  0
 42 47  1  0  0  0  0
 43 64  1  0  0  0  0
 44 47  1  0  0  0  0
 44 64  1  0  0  0  0
 45 67  1  0  0  0  0
 46 63  1  0  0  0  0
 47 62  1  0  0  0  0
 48 57  1  0  0  0  0
 49 58  1  0  0  0  0
 50 58  1  0  0  0  0
 51 58  1  0  0  0  0
 52 69  1  0  0  0  0
 54 55  1  0  0  0  0
 54 61  1  0  0  0  0
 55 76  1  0  0  0  0
 56 58  1  0  0  0  0
 56 68  1  0  0  0  0
 57 69  1  0  0  0  0
 60 62  1  0  0  0  0
M  CHG  1  69   1
M  ISO  4  33 100  53 100  55 101  76 101
M  END
> <Batch ID>
0053

> <Smiles>
CNC(C)C(=O)NC(C(=O)N1Cc2cc([101O:1][101CH2:1]Cn3cnc([100CH2:0][100C:0](=O)N4CCCC(n5nc(-c6ccc(Oc7ccc(F)cc7F)cc6)c(C(N)=O)c5N)C4)c3)ccc2CC1C(=O)NC1CCCc2ccccc21)C(C)(C)C

> <Shape>
0.254

> <Color>
0.097

> <Negative vol penalty>
0.000

$$$$

  -OEChem-04052317383D

 84 92  0     1  0  0  0  0  0999 V2000
  -18.9888  -28.9056   22.8364 C   0  0  0  0  0  0  0  0  0  0  0  0
  -20.0873  -28.0791   22.6229 C   0  0  0  0  0  0  0  0  0  0  0  0
  -23.1573   -9.8889   20.0506 C   0  0  0  0  0  0  0  0  0  0  0  0
  -23.6113  -10.1760   22.4061 C   0  0  0  0  0  0  0  0  0  0  0  0
  -17.7527  -28.3496   23.1631 C   0  0  0  0  0  0  0  0  0  0  0  0
  -19.9506  -26.6961   22.7371 C   0  0  0  0  0  0  0  0  0  0  0  0
  -22.8503  -22.4254   19.4419 C   0  0  0  0  0  0  0  0  0  0  0  0
  -22.3427   -8.7945   20.3410 C   0  0  0  0  0  0  0  0  0  0  0  0
  -22.7967   -9.0816   22.6965 C   0  0  0  0  0  0  0  0  0  0  0  0
  -23.9746  -21.6430   19.7020 C   0  0  0  0  0  0  0  0  0  0  0  0
  -20.5489   -6.5851   24.0869 C   0  0  0  0  0  0  0  0  0  0  0  0
  -19.6453   -6.7102   25.1420 C   0  0  0  0  0  0  0  0  0  0  0  0
  -22.5453  -19.8446   20.4383 C   0  0  0  0  0  0  0  0  0  0  0  0
  -18.5834   -8.5634   24.0128 C   0  0  0  0  0  0  0  0  0  0  0  0
  -23.7917  -10.5797   21.0832 C   0  0  0  0  0  0  0  0  0  0  0  0
  -24.2446  -13.0599   20.6945 C   0  0  0  0  0  0  0  0  0  0  0  0
  -17.5984  -26.9585   23.2718 C   0  0  0  0  0  0  0  0  0  0  0  0
  -21.5633  -21.9264   19.6887 C   0  0  0  0  0  0  0  0  0  0  0  0
  -18.7115  -26.1211   23.0669 C   0  0  0  0  0  0  0  0  0  0  0  0
  -21.4062  -20.6218   20.1781 C   0  0  0  0  0  0  0  0  0  0  0  0
  -27.2643  -19.1667   20.5054 C   0  0  0  0  0  0  0  0  0  0  0  0
  -22.1624   -8.3909   21.6639 C   0  0  0  0  0  0  0  0  0  0  0  0
  -23.8223  -20.3535   20.2030 C   0  0  0  0  0  0  0  0  0  0  0  0
  -20.4699   -7.4492   22.9947 C   0  0  0  0  0  0  0  0  0  0  0  0
  -18.6625   -7.6993   25.1050 C   0  0  0  0  0  0  0  0  0  0  0  0
  -19.4871   -8.4383   22.9577 C   0  0  0  0  0  0  0  0  0  0  0  0
  -24.6337  -11.7099   20.7838 C   0  0  0  0  0  0  0  0  0  0  0  0
  -27.6268  -18.8627   21.8017 C   0  0  0  0  0  0  0  0  0  0  0  0
  -27.9497  -18.4876   19.5189 C   0  0  0  0  0  0  0  0  0  0  0  0
  -25.4033  -13.7317   20.3902 C   0  0  0  0  0  0  0  0  0  0  0  0
  -29.1784  -17.3707   21.0713 C   0  0  0  0  0  0  0  0  0  0  0  0
  -22.9515  -13.6535   20.8709 C   0  0  0  0  0  0  0  0  0  0  0  0
  -19.1612  -22.7616   21.5957 C   0  0  0  0  0  0  0  0  0  0  0  0
  -17.5913  -20.4146   19.9988 C   0  0  0  0  0  0  0  0  0  0  0  0
  -17.7649  -17.5402   18.1675 C   0  0  0  0  0  0  0  0  0  0  0  0
  -31.1199  -13.1492   21.8269 C   0  0  0  0  0  0  0  0  0  0  0  0
  -16.2536  -26.4065   23.6736 C   0  0  0  0  0  0  0  0  0  0  0  0
  -20.3598  -22.7733   19.3777 C   0  0  0  0  0  0  0  0  0  0  0  0
  -20.0456  -20.0319   20.4411 C   0  0  0  0  0  0  0  0  0  0  0  0
  -16.1050  -24.9107   23.4073 C   0  0  0  0  0  0  0  0  0  0  0  0
  -29.7654  -12.4846   18.4467 C   0  0  0  0  0  0  0  0  0  0  0  0
  -17.3360  -24.1561   23.8991 C   0  0  0  0  0  0  0  0  0  0  0  0
  -28.2773  -12.2728   18.7199 C   0  0  0  0  0  0  0  0  0  0  0  0
  -30.6231  -12.1005   19.6486 C   0  0  0  0  0  0  0  0  0  0  0  0
  -28.7435  -12.5723   21.1844 C   0  0  0  0  0  0  0  0  0  0  0  0
  -18.5972  -24.6148   23.1572 C   0  0  1  0  0  0  0  0  0  0  0  0
  -19.1150  -22.3498   20.1514 C   0  0  1  0  0  0  0  0  0  0  0  0
  -27.8482  -12.9939   20.0096 C   0  0  2  0  0  0  0  0  0  0  0  0
  -26.9532  -19.5350   22.9527 C   0  0  0  0  0  0  0  0  0  0  0  0
  -28.2654  -17.6806   17.1661 C   0  0  0  0  0  0  0  0  0  0  0  0
  -16.3130  -15.8349   17.0355 C   0  0  0  0  0  0  0  0  0  0  0  0
  -16.9131  -19.1945   22.7120 C   0  0  0  0  0  0  0  0  0  0  0  0
  -16.3209  -17.0685   21.5299 C   0  0  0  0  0  0  0  0  0  0  0  0
  -15.0414  -19.1563   21.0538 C   0  0  0  0  0  0  0  0  0  0  0  0
  -31.7935  -14.7277   23.5972 C   0  0  0  0  0  0  0  0  0  0  0  0
  -18.9332  -18.1364   15.5144 C   0  0  0  0  0  0  0  0  0  0  0  0
  -26.1933  -20.1691   20.1897 C   0  0  0  0  0  0  0  0  0  1  0  0
  -27.6445  -18.7345   18.0781 C   0  0  0  0  0  0  0  0  0  0  0  0
  -30.2394  -16.3712   21.3855 C   0  0  0  0  0  0  0  0  0  0  0  0
  -29.7608  -15.2319   22.2936 C   0  0  0  0  0  0  0  0  0  0  0  0
  -17.4073  -18.9288   20.1919 C   0  0  1  0  0  0  0  0  0  0  0  0
  -17.0921  -17.1304   16.8698 C   0  0  2  0  0  0  0  0  0  0  0  0
  -16.4465  -18.5986   21.3689 C   0  0  0  0  0  0  0  0  0  0  0  0
  -25.9376  -11.5328   20.5546 N   0  0  0  0  0  0  0  0  0  0  0  0
  -28.5831  -17.9665   22.1220 N   0  0  0  0  0  0  0  0  0  0  0  0
  -28.9164  -17.5797   19.7669 N   0  0  0  0  0  0  0  0  0  0  0  0
  -26.3779  -12.7804   20.3182 N   0  0  0  0  0  0  0  0  0  0  0  0
  -18.8999  -20.9015   20.1270 N   0  0  0  0  0  0  0  0  0  0  0  0
  -30.1667  -12.7666   20.8689 N   0  0  0  0  0  0  0  0  0  0  0  0
  -25.6733  -15.0376   20.1797 N   0  0  0  0  0  0  0  0  0  0  0  0
  -21.8695  -12.8182   21.1805 N   0  0  0  0  0  0  0  0  0  0  0  0
  -18.6508  -24.0227   21.8377 N   0  0  0  0  0  0  0  0  0  0  0  0
  -16.9762  -18.3999   18.9023 N   0  0  0  0  0  0  0  0  0  0  0  0
  -30.8308  -14.2847   22.5988 N   0  0  0  0  0  0  0  0  0  0  0  0
  -18.1094  -16.9333   15.7987 N   0  3  0  0  0  0  0  0  0  0  0  0
  -22.7580  -14.8861   20.7412 O   0  0  0  0  0  0  0  0  0  0  0  0
  -19.6242  -21.9915   22.4290 O   0  0  0  0  0  0  0  0  0  0  0  0
  -16.6113  -21.1164   19.7368 O   0  0  0  0  0  0  0  0  0  0  0  0
  -18.8772  -17.1350   18.4980 O   0  0  0  0  0  0  0  0  0  0  0  0
  -32.1739  -12.5178   21.9767 O   0  0  0  0  0  0  0  0  0  0  0  0
  -21.3673   -7.3232   21.9476 O   0  0  0  0  0  0  0  0  0  0  0  0
  -24.9180  -19.5879   20.4583 O   0  0  0  0  0  0  0  0  0  1  0  0
  -17.7938   -7.8184   26.1176 F   0  0  0  0  0  0  0  0  0  0  0  0
  -19.4055   -9.2706   21.9106 F   0  0  0  0  0  0  0  0  0  0  0  0
  1  2  1  0  0  0  0
  1  5  2  0  0  0  0
  2  6  2  0  0  0  0
  3  8  2  0  0  0  0
  3 15  1  0  0  0  0
  4  9  1  0  0  0  0
  4 15  2  0  0  0  0
  5 17  1  0  0  0  0
  6 19  1  0  0  0  0
  7 10  2  0  0  0  0
  7 18  1  0  0  0  0
  8 22  1  0  0  0  0
  9 22  2  0  0  0  0
 10 23  1  0  0  0  0
 11 12  2  0  0  0  0
 11 24  1  0  0  0  0
 12 25  1  0  0  0  0
 13 20  1  0  0  0  0
 13 23  2  0  0  0  0
 14 25  2  0  0  0  0
 14 26  1  0  0  0  0
 15 27  1  0  0  0  0
 16 27  1  0  0  0  0
 16 30  2  0  0  0  0
 16 32  1  0  0  0  0
 17 19  2  0  0  0  0
 17 37  1  0  0  0  0
 18 20  2  0  0  0  0
 18 38  1  0  0  0  0
 19 46  1  0  0  0  0
 20 39  1  0  0  0  0
 21 28  1  0  0  0  0
 21 29  2  0  0  0  0
 21 57  1  0  0  0  0
 22 81  1  0  0  0  0
 23 82  1  0  0  0  0
 24 26  2  0  0  0  0
 24 81  1  0  0  0  0
 25 83  1  0  0  0  0
 26 84  1  0  0  0  0
 27 64  2  0  0  0  0
 28 49  1  0  0  0  0
 28 65  2  0  0  0  0
 29 58  1  0  0  0  0
 29 66  1  0  0  0  0
 30 67  1  0  0  0  0
 30 70  1  0  0  0  0
 31 59  1  0  0  0  0
 31 65  1  0  0  0  0
 31 66  2  0  0  0  0
 32 71  1  0  0  0  0
 32 76  2  0  0  0  0
 33 47  1  0  0  0  0
 33 72  1  0  0  0  0
 33 77  2  0  0  0  0
 34 61  1  0  0  0  0
 34 68  1  0  0  0  0
 34 78  2  0  0  0  0
 35 62  1  0  0  0  0
 35 73  1  0  0  0  0
 35 79  2  0  0  0  0
 36 69  1  0  0  0  0
 36 74  1  0  0  0  0
 36 80  2  0  0  0  0
 37 40  1  0  0  0  0
 38 47  1  0  0  0  0
 39 68  1  0  0  0  0
 40 42  1  0  0  0  0
 41 43  1  0  0  0  0
 41 44  1  0  0  0  0
 42 46  1  0  0  0  0
 43 48  1  0  0  0  0
 44 69  1  0  0  0  0
 45 48  1  0  0  0  0
 45 69  1  0  0  0  0
 46 72  1  0  0  0  0
 47 68  1  0  0  0  0
 48 67  1  0  0  0  0
 50 58  1  0  0  0  0
 51 62  1  0  0  0  0
 52 63  1  0  0  0  0
 53 63  1  0  0  0  0
 54 63  1  0  0  0  0
 55 74  1  0  0  0  0
 56 75  1  0  0  0  0
 57 82  1  0  0  0  0
 59 60  1  0  0  0  0
 60 74  1  0  0  0  0
 61 63  1  0  0  0  0
 61 73  1  0  0  0  0
 62 75  1  0  0  0  0
 64 67  1  0  0  0  0
M  CHG  1  75   1
M  ISO  4  36 100  57 101  74 100  82 101
M  END
> <Batch ID>
0053

> <Smiles>
CCc1nc(CC[100N:0](C)[100C:0](=O)N2CCCC(n3nc(-c4ccc(Oc5ccc(F)cc5F)cc4)c(C(N)=O)c3N)C2)nc(C)c1[101CH2:1][101O:1]c1ccc2c(c1)CN(C(=O)C(NC(=O)C(C)NC)C(C)(C)C)C(C(=O)NC1CCCc3ccccc31)C2

> <Shape>
0.211

> <Color>
0.169

> <Negative vol penalty>
0.000

$$$$

  -OEChem-04052317383D

 87 95  0     1  0  0  0  0  0999 V2000
  -26.1900  -35.4165   23.3845 C   0  0  0  0  0  0  0  0  0  0  0  0
  -26.7111  -34.1515   23.1324 C   0  0  0  0  0  0  0  0  0  0  0  0
  -24.1560  -11.4464   21.5868 C   0  0  0  0  0  0  0  0  0  0  0  0
  -22.6912  -12.5072   19.9849 C   0  0  0  0  0  0  0  0  0  0  0  0
  -24.8881  -35.5497   23.8655 C   0  0  0  0  0  0  0  0  0  0  0  0
  -25.9310  -33.0188   23.3622 C   0  0  0  0  0  0  0  0  0  0  0  0
  -26.2242  -29.6588   19.5848 C   0  0  0  0  0  0  0  0  0  0  0  0
  -23.0783  -10.7176   22.0897 C   0  0  0  0  0  0  0  0  0  0  0  0
  -21.6134  -11.7783   20.4877 C   0  0  0  0  0  0  0  0  0  0  0  0
  -27.3626  -28.8556   19.5340 C   0  0  0  0  0  0  0  0  0  0  0  0
  -21.3039   -7.9739   21.2196 C   0  0  0  0  0  0  0  0  0  0  0  0
  -21.4963   -6.6131   21.4574 C   0  0  0  0  0  0  0  0  0  0  0  0
  -26.1269  -27.0501   20.5501 C   0  0  0  0  0  0  0  0  0  0  0  0
  -20.9737   -6.9472   23.7924 C   0  0  0  0  0  0  0  0  0  0  0  0
  -29.9539  -27.0530   23.1738 C   0  0  0  0  0  0  0  0  0  0  0  0
  -23.9624  -12.3413   20.5345 C   0  0  0  0  0  0  0  0  0  0  0  0
  -25.9434  -12.7196   18.9723 C   0  0  0  0  0  0  0  0  0  0  0  0
  -24.0884  -34.4185   24.0922 C   0  0  0  0  0  0  0  0  0  0  0  0
  -25.0295  -29.1664   20.1295 C   0  0  0  0  0  0  0  0  0  0  0  0
  -24.6177  -33.1369   23.8480 C   0  0  0  0  0  0  0  0  0  0  0  0
  -24.9740  -27.8482   20.6043 C   0  0  0  0  0  0  0  0  0  0  0  0
  -21.8070  -10.8835   21.5401 C   0  0  0  0  0  0  0  0  0  0  0  0
  -27.3149  -27.5520   20.0193 C   0  0  0  0  0  0  0  0  0  0  0  0
  -20.9466   -8.8215   22.2682 C   0  0  0  0  0  0  0  0  0  0  0  0
  -21.3312   -6.0997   22.7438 C   0  0  0  0  0  0  0  0  0  0  0  0
  -20.7814   -8.3081   23.5546 C   0  0  0  0  0  0  0  0  0  0  0  0
  -25.0752  -13.0950   20.0150 C   0  0  0  0  0  0  0  0  0  0  0  0
  -29.6284  -25.1071   23.9727 C   0  0  0  0  0  0  0  0  0  0  0  0
  -30.0293  -24.9083   22.6726 C   0  0  0  0  0  0  0  0  0  0  0  0
  -26.8222  -13.7694   18.8625 C   0  0  0  0  0  0  0  0  0  0  0  0
  -25.9543  -11.5286   18.1742 C   0  0  0  0  0  0  0  0  0  0  0  0
  -23.1928  -29.9653   22.5977 C   0  0  0  0  0  0  0  0  0  0  0  0
  -21.2308  -27.6902   21.3740 C   0  0  0  0  0  0  0  0  0  0  0  0
  -20.8891  -24.8760   19.4740 C   0  0  0  0  0  0  0  0  0  0  0  0
  -26.4468  -19.4330   20.0414 C   0  0  0  0  0  0  0  0  0  0  0  0
  -22.7033  -34.6102   24.6576 C   0  0  0  0  0  0  0  0  0  0  0  0
  -23.8029  -30.0367   20.1526 C   0  0  0  0  0  0  0  0  0  0  0  0
  -23.7102  -27.2654   21.1802 C   0  0  0  0  0  0  0  0  0  0  0  0
  -21.8131  -33.3778   24.5194 C   0  0  0  0  0  0  0  0  0  0  0  0
  -28.8518  -17.2498   21.4275 C   0  0  0  0  0  0  0  0  0  0  0  0
  -22.5671  -32.1236   24.9498 C   0  0  0  0  0  0  0  0  0  0  0  0
  -28.2318  -15.8861   21.1263 C   0  0  0  0  0  0  0  0  0  0  0  0
  -27.8010  -18.2779   21.8506 C   0  0  0  0  0  0  0  0  0  0  0  0
  -26.0587  -17.0504   20.5935 C   0  0  0  0  0  0  0  0  0  0  0  0
  -23.7941  -31.8854   24.0614 C   0  0  1  0  0  0  0  0  0  0  0  0
  -22.7814  -29.6019   21.1990 C   0  0  1  0  0  0  0  0  0  0  0  0
  -27.0856  -16.0156   20.1082 C   0  0  2  0  0  0  0  0  0  0  0  0
  -29.2722  -24.1003   24.9850 C   0  0  0  0  0  0  0  0  0  0  0  0
  -19.1691  -23.2255   18.6897 C   0  0  0  0  0  0  0  0  0  0  0  0
  -21.2246  -26.3890   24.1339 C   0  0  0  0  0  0  0  0  0  0  0  0
  -20.3167  -24.3100   23.0748 C   0  0  0  0  0  0  0  0  0  0  0  0
  -18.9993  -26.4267   22.9932 C   0  0  0  0  0  0  0  0  0  0  0  0
  -28.2340  -23.2175   18.0253 C   0  0  0  0  0  0  0  0  0  0  0  0
  -28.6609  -20.7642   18.1496 C   0  0  0  0  0  0  0  0  0  0  0  0
  -26.7948  -21.0659   21.9434 C   0  0  0  0  0  0  0  0  0  0  0  0
  -21.3731  -25.5462   16.6323 C   0  0  0  0  0  0  0  0  0  0  0  0
  -30.2320  -23.6805   21.8831 C   0  0  0  0  0  0  0  0  0  0  0  0
  -30.6875  -26.5229   20.7796 C   0  0  0  0  0  0  0  0  0  0  0  0
  -26.8784  -21.8191   19.5957 C   0  0  0  0  0  0  0  0  0  0  0  0
  -29.3859  -22.2103   20.0496 C   0  0  0  0  0  0  0  0  0  0  0  0
  -29.6892  -27.4219   20.0583 C   0  0  0  0  0  0  0  0  0  1  0  0
  -21.0721  -26.2010   21.5634 C   0  0  1  0  0  0  0  0  0  0  0  0
  -19.9074  -24.5169   18.3732 C   0  0  2  0  0  0  0  0  0  0  0  0
  -20.4277  -25.8430   22.9323 C   0  0  0  0  0  0  0  0  0  0  0  0
  -28.2860  -22.0086   18.9821 C   0  0  0  0  0  0  0  0  0  0  0  0
  -29.5832  -26.4443   24.2784 N   0  0  0  0  0  0  0  0  0  0  0  0
  -25.3754  -14.2898   20.5310 N   0  0  0  0  0  0  0  0  0  0  0  0
  -30.2337  -26.1638   22.1736 N   0  0  0  0  0  0  0  0  0  0  0  0
  -26.4421  -14.6743   19.8095 N   0  0  0  0  0  0  0  0  0  0  0  0
  -22.5393  -28.1578   21.1866 N   0  0  0  0  0  0  0  0  0  0  0  0
  -26.7026  -18.3355   20.8765 N   0  0  0  0  0  0  0  0  0  0  0  0
  -27.8754  -13.9975   18.0494 N   0  0  0  0  0  0  0  0  0  0  0  0
  -24.9800  -10.5512   18.4190 N   0  0  0  0  0  0  0  0  0  0  0  0
  -23.3957  -31.3184   22.7908 N   0  0  0  0  0  0  0  0  0  0  0  0
  -20.3242  -25.7199   20.4068 N   0  0  0  0  0  0  0  0  0  0  0  0
  -26.7901  -20.7036   20.5274 N   0  0  0  0  0  0  0  0  0  0  0  0
  -20.6228  -24.3438   17.0774 N   0  3  0  0  0  0  0  0  0  0  0  0
  -29.1519  -23.4153   20.8823 N   0  3  0  0  0  0  0  0  0  0  0  0
  -26.8130  -11.3294   17.2817 O   0  0  0  0  0  0  0  0  0  0  0  0
  -23.3154  -29.0835   23.4397 O   0  0  0  0  0  0  0  0  0  0  0  0
  -20.2300  -28.4113   21.3846 O   0  0  0  0  0  0  0  0  0  0  0  0
  -22.0406  -24.4476   19.5054 O   0  0  0  0  0  0  0  0  0  0  0  0
  -25.9321  -19.2880   18.9251 O   0  0  0  0  0  0  0  0  0  0  0  0
  -20.7552  -10.1722   22.0304 O   0  0  0  0  0  0  0  0  0  0  0  0
  -28.4248  -26.7661   19.9715 O   0  0  0  0  0  0  0  0  0  1  0  0
  -21.5144   -4.7925   22.9717 F   0  0  0  0  0  0  0  0  0  0  0  0
  -20.4370   -9.1172   24.5658 F   0  0  0  0  0  0  0  0  0  0  0  0
  1  2  1  0  0  0  0
  1  5  2  0  0  0  0
  2  6  2  0  0  0  0
  3  8  2  0  0  0  0
  3 16  1  0  0  0  0
  4  9  1  0  0  0  0
  4 16  2  0  0  0  0
  5 18  1  0  0  0  0
  6 20  1  0  0  0  0
  7 10  2  0  0  0  0
  7 19  1  0  0  0  0
  8 22  1  0  0  0  0
  9 22  2  0  0  0  0
 10 23  1  0  0  0  0
 11 12  2  0  0  0  0
 11 24  1  0  0  0  0
 12 25  1  0  0  0  0
 13 21  1  0  0  0  0
 13 23  2  0  0  0  0
 14 25  2  0  0  0  0
 14 26  1  0  0  0  0
 15 66  2  0  0  0  0
 15 68  1  0  0  0  0
 16 27  1  0  0  0  0
 17 27  1  0  0  0  0
 17 30  2  0  0  0  0
 17 31  1  0  0  0  0
 18 20  2  0  0  0  0
 18 36  1  0  0  0  0
 19 21  2  0  0  0  0
 19 37  1  0  0  0  0
 20 45  1  0  0  0  0
 21 38  1  0  0  0  0
 22 84  1  0  0  0  0
 23 85  1  0  0  0  0
 24 26  2  0  0  0  0
 24 84  1  0  0  0  0
 25 86  1  0  0  0  0
 26 87  1  0  0  0  0
 27 67  2  0  0  0  0
 28 29  2  0  0  0  0
 28 48  1  0  0  0  0
 28 66  1  0  0  0  0
 29 57  1  0  0  0  0
 29 68  1  0  0  0  0
 30 69  1  0  0  0  0
 30 72  1  0  0  0  0
 31 73  1  0  0  0  0
 31 79  2  0  0  0  0
 32 46  1  0  0  0  0
 32 74  1  0  0  0  0
 32 80  2  0  0  0  0
 33 62  1  0  0  0  0
 33 70  1  0  0  0  0
 33 81  2  0  0  0  0
 34 63  1  0  0  0  0
 34 75  1  0  0  0  0
 34 82  2  0  0  0  0
 35 71  1  0  0  0  0
 35 76  1  0  0  0  0
 35 83  2  0  0  0  0
 36 39  1  0  0  0  0
 37 46  1  0  0  0  0
 38 70  1  0  0  0  0
 39 41  1  0  0  0  0
 40 42  1  0  0  0  0
 40 43  1  0  0  0  0
 41 45  1  0  0  0  0
 42 47  1  0  0  0  0
 43 71  1  0  0  0  0
 44 47  1  0  0  0  0
 44 71  1  0  0  0  0
 45 74  1  0  0  0  0
 46 70  1  0  0  0  0
 47 69  1  0  0  0  0
 49 63  1  0  0  0  0
 50 64  1  0  0  0  0
 51 64  1  0  0  0  0
 52 64  1  0  0  0  0
 53 65  1  0  0  0  0
 54 65  1  0  0  0  0
 55 76  1  0  0  0  0
 56 77  1  0  0  0  0
 57 78  1  0  0  0  0
 58 61  1  0  0  0  0
 58 68  1  0  0  0  0
 59 65  1  0  0  0  0
 59 76  1  0  0  0  0
 60 65  1  0  0  0  0
 60 78  1  0  0  0  0
 61 85  1  0  0  0  0
 62 64  1  0  0  0  0
 62 75  1  0  0  0  0
 63 77  1  0  0  0  0
 67 69  1  0  0  0  0
M  CHG  2  77   1  78   1
M  ISO  4  35 100  61 101  76 100  85 101
M  END
> <Batch ID>
0053

> <Smiles>
CNC(C)C(=O)NC(C(=O)N1Cc2cc([101O:1][101CH2:1]Cn3cnc(C)c3CNCC(C)(C)C[100N:0](C)[100C:0](=O)N3CCCC(n4nc(-c5ccc(Oc6ccc(F)cc6F)cc5)c(C(N)=O)c4N)C3)ccc2CC1C(=O)NC1CCCc2ccccc21)C(C)(C)C

> <Shape>
0.289

> <Color>
0.063

> <Negative vol penalty>
0.000

$$$$

  -OEChem-04052317383D

 85 93  0     1  0  0  0  0  0999 V2000
  -27.1920  -35.3240   23.9250 C   0  0  0  0  0  0  0  0  0  0  0  0
  -27.5078  -33.9930   23.6719 C   0  0  0  0  0  0  0  0  0  0  0  0
  -25.4694  -13.1534   19.7171 C   0  0  0  0  0  0  0  0  0  0  0  0
  -25.4019  -14.0315   21.9669 C   0  0  0  0  0  0  0  0  0  0  0  0
  -25.8846  -35.6784   24.2550 C   0  0  0  0  0  0  0  0  0  0  0  0
  -26.5165  -33.0154   23.7498 C   0  0  0  0  0  0  0  0  0  0  0  0
  -26.6802  -29.7689   19.8667 C   0  0  0  0  0  0  0  0  0  0  0  0
  -25.2829  -11.8638   20.2148 C   0  0  0  0  0  0  0  0  0  0  0  0
  -25.2154  -12.7418   22.4646 C   0  0  0  0  0  0  0  0  0  0  0  0
  -27.6552  -28.7733   19.9097 C   0  0  0  0  0  0  0  0  0  0  0  0
  -24.4636   -8.3824   20.8658 C   0  0  0  0  0  0  0  0  0  0  0  0
  -23.5374   -7.5650   20.2181 C   0  0  0  0  0  0  0  0  0  0  0  0
  -26.0011  -27.1950   20.6791 C   0  0  0  0  0  0  0  0  0  0  0  0
  -21.7895   -9.1606   20.7038 C   0  0  0  0  0  0  0  0  0  0  0  0
  -30.8891  -25.2198   21.2989 C   0  0  0  0  0  0  0  0  0  0  0  0
  -25.5290  -14.2373   20.5932 C   0  0  0  0  0  0  0  0  0  0  0  0
  -24.7247  -16.4845   19.6929 C   0  0  0  0  0  0  0  0  0  0  0  0
  -24.8747  -34.7060   24.3276 C   0  0  0  0  0  0  0  0  0  0  0  0
  -25.3583  -29.4872   20.2406 C   0  0  0  0  0  0  0  0  0  0  0  0
  -25.1947  -33.3569   24.0824 C   0  0  0  0  0  0  0  0  0  0  0  0
  -25.0106  -28.1881   20.6375 C   0  0  0  0  0  0  0  0  0  0  0  0
  -25.1559  -11.6580   21.5886 C   0  0  0  0  0  0  0  0  0  0  0  0
  -27.3164  -27.4869   20.3188 C   0  0  0  0  0  0  0  0  0  0  0  0
  -24.0528   -9.5890   21.4326 C   0  0  0  0  0  0  0  0  0  0  0  0
  -22.2003   -7.9541   20.1371 C   0  0  0  0  0  0  0  0  0  0  0  0
  -22.7157   -9.9780   21.3516 C   0  0  0  0  0  0  0  0  0  0  0  0
  -25.7222  -15.5696   20.0797 C   0  0  0  0  0  0  0  0  0  0  0  0
  -31.7010  -24.1040   21.2858 C   0  0  0  0  0  0  0  0  0  0  0  0
  -30.4773  -25.6729   20.0623 C   0  0  0  0  0  0  0  0  0  0  0  0
  -25.4190  -17.5957   19.2810 C   0  0  0  0  0  0  0  0  0  0  0  0
  -31.6195  -24.0093   19.0161 C   0  0  0  0  0  0  0  0  0  0  0  0
  -23.2980  -16.3427   19.7050 C   0  0  0  0  0  0  0  0  0  0  0  0
  -23.3977  -30.5360   22.5121 C   0  0  0  0  0  0  0  0  0  0  0  0
  -21.2324  -28.6933   20.9505 C   0  0  0  0  0  0  0  0  0  0  0  0
  -20.6376  -26.0448   18.8821 C   0  0  0  0  0  0  0  0  0  0  0  0
  -30.8571  -19.7264   20.5994 C   0  0  0  0  0  0  0  0  0  0  0  0
  -23.4859  -35.1307   24.7344 C   0  0  0  0  0  0  0  0  0  0  0  0
  -24.3126  -30.5656   20.1630 C   0  0  0  0  0  0  0  0  0  0  0  0
  -23.6014  -27.8291   21.0295 C   0  0  0  0  0  0  0  0  0  0  0  0
  -22.4156  -34.0859   24.4292 C   0  0  0  0  0  0  0  0  0  0  0  0
  -29.6072  -18.8986   17.3700 C   0  0  0  0  0  0  0  0  0  0  0  0
  -22.8750  -32.7033   24.8810 C   0  0  0  0  0  0  0  0  0  0  0  0
  -28.3798  -18.0341   17.6633 C   0  0  0  0  0  0  0  0  0  0  0  0
  -30.7292  -18.6450   18.3744 C   0  0  0  0  0  0  0  0  0  0  0  0
  -29.1089  -17.9172   20.0827 C   0  0  0  0  0  0  0  0  0  0  0  0
  -24.1418  -32.2711   24.1327 C   0  0  1  0  0  0  0  0  0  0  0  0
  -23.1071  -30.2944   21.0578 C   0  0  1  0  0  0  0  0  0  0  0  0
  -27.9300  -18.1782   19.1297 C   0  0  2  0  0  0  0  0  0  0  0  0
  -32.0218  -23.3352   17.7482 C   0  0  0  0  0  0  0  0  0  0  0  0
  -18.7642  -24.7591   17.8168 C   0  0  0  0  0  0  0  0  0  0  0  0
  -28.8455  -22.1400   23.5774 C   0  0  0  0  0  0  0  0  0  0  0  0
  -20.6492  -27.3358   23.6202 C   0  0  0  0  0  0  0  0  0  0  0  0
  -19.5268  -25.4888   22.3564 C   0  0  0  0  0  0  0  0  0  0  0  0
  -18.6268  -27.8117   22.2280 C   0  0  0  0  0  0  0  0  0  0  0  0
  -21.5854  -26.6974   16.1555 C   0  0  0  0  0  0  0  0  0  0  0  0
  -31.6234  -22.6186   24.8166 C   0  0  0  0  0  0  0  0  0  0  0  0
  -32.1964  -23.5400   22.5753 C   0  0  0  0  0  0  0  0  0  0  0  0
  -29.5901  -26.8799   19.9753 C   0  0  0  0  0  0  0  0  0  1  0  0
  -30.8509  -20.7267   22.8706 C   0  0  0  0  0  0  0  0  0  0  0  0
  -20.7894  -27.2532   21.0434 C   0  0  1  0  0  0  0  0  0  0  0  0
  -19.7537  -25.9028   17.6562 C   0  0  2  0  0  0  0  0  0  0  0  0
  -30.1836  -22.1002   22.8519 C   0  0  2  0  0  0  0  0  0  0  0  0
  -19.9251  -26.9793   22.3065 C   0  0  0  0  0  0  0  0  0  0  0  0
  -26.9563  -16.0572   19.9270 N   0  0  0  0  0  0  0  0  0  0  0  0
  -32.0872  -23.4712   20.1586 N   0  0  0  0  0  0  0  0  0  0  0  0
  -30.8249  -25.0899   18.8963 N   0  0  0  0  0  0  0  0  0  0  0  0
  -26.7388  -17.2905   19.4396 N   0  0  0  0  0  0  0  0  0  0  0  0
  -22.6160  -28.9196   20.9432 N   0  0  0  0  0  0  0  0  0  0  0  0
  -30.2372  -18.7992   19.7456 N   0  0  0  0  0  0  0  0  0  0  0  0
  -25.0232  -18.7942   18.8021 N   0  0  0  0  0  0  0  0  0  0  0  0
  -22.7504  -15.1351   20.1591 N   0  0  0  0  0  0  0  0  0  0  0  0
  -23.8117  -31.8232   22.7967 N   0  0  0  0  0  0  0  0  0  0  0  0
  -20.1191  -26.9502   19.7836 N   0  0  0  0  0  0  0  0  0  0  0  0
  -30.3249  -19.8142   21.8799 N   0  0  0  0  0  0  0  0  0  0  0  0
  -20.5838  -25.6396   16.4468 N   0  3  0  0  0  0  0  0  0  0  0  0
  -31.1034  -23.1094   23.4899 N   0  3  1  0  0  0  0  0  0  0  0  0
  -22.5319  -17.2536   19.3089 O   0  0  0  0  0  0  0  0  0  0  0  0
  -23.2553  -29.6226   23.3165 O   0  0  0  0  0  0  0  0  0  0  0  0
  -20.3821  -29.5842   20.8797 O   0  0  0  0  0  0  0  0  0  0  0  0
  -21.6817  -25.4128   19.0274 O   0  0  0  0  0  0  0  0  0  0  0  0
  -31.8105  -20.4281   20.2450 O   0  0  0  0  0  0  0  0  0  0  0  0
  -24.9737  -10.3998   22.0746 O   0  0  0  0  0  0  0  0  0  0  0  0
  -28.2663  -26.5134   20.3623 O   0  0  0  0  0  0  0  0  0  1  0  0
  -21.3113   -7.1697   19.5137 F   0  0  0  0  0  0  0  0  0  0  0  0
  -22.3153  -11.1366   21.8931 F   0  0  0  0  0  0  0  0  0  0  0  0
  1  2  1  0  0  0  0
  1  5  2  0  0  0  0
  2  6  2  0  0  0  0
  3  8  2  0  0  0  0
  3 16  1  0  0  0  0
  4  9  1  0  0  0  0
  4 16  2  0  0  0  0
  5 18  1  0  0  0  0
  6 20  1  0  0  0  0
  7 10  2  0  0  0  0
  7 19  1  0  0  0  0
  8 22  1  0  0  0  0
  9 22  2  0  0  0  0
 10 23  1  0  0  0  0
 11 12  2  0  0  0  0
 11 24  1  0  0  0  0
 12 25  1  0  0  0  0
 13 21  1  0  0  0  0
 13 23  2  0  0  0  0
 14 25  2  0  0  0  0
 14 26  1  0  0  0  0
 15 28  2  0  0  0  0
 15 29  1  0  0  0  0
 16 27  1  0  0  0  0
 17 27  1  0  0  0  0
 17 30  2  0  0  0  0
 17 32  1  0  0  0  0
 18 20  2  0  0  0  0
 18 37  1  0  0  0  0
 19 21  2  0  0  0  0
 19 38  1  0  0  0  0
 20 46  1  0  0  0  0
 21 39  1  0  0  0  0
 22 82  1  0  0  0  0
 23 83  1  0  0  0  0
 24 26  2  0  0  0  0
 24 82  1  0  0  0  0
 25 84  1  0  0  0  0
 26 85  1  0  0  0  0
 27 64  2  0  0  0  0
 28 57  1  0  0  0  0
 28 65  1  0  0  0  0
 29 58  1  0  0  0  0
 29 66  2  0  0  0  0
 30 67  1  0  0  0  0
 30 70  1  0  0  0  0
 31 49  1  0  0  0  0
 31 65  2  0  0  0  0
 31 66  1  0  0  0  0
 32 71  1  0  0  0  0
 32 77  2  0  0  0  0
 33 47  1  0  0  0  0
 33 72  1  0  0  0  0
 33 78  2  0  0  0  0
 34 60  1  0  0  0  0
 34 68  1  0  0  0  0
 34 79  2  0  0  0  0
 35 61  1  0  0  0  0
 35 73  1  0  0  0  0
 35 80  2  0  0  0  0
 36 69  1  0  0  0  0
 36 74  1  0  0  0  0
 36 81  2  0  0  0  0
 37 40  1  0  0  0  0
 38 47  1  0  0  0  0
 39 68  1  0  0  0  0
 40 42  1  0  0  0  0
 41 43  1  0  0  0  0
 41 44  1  0  0  0  0
 42 46  1  0  0  0  0
 43 48  1  0  0  0  0
 44 69  1  0  0  0  0
 45 48  1  0  0  0  0
 45 69  1  0  0  0  0
 46 72  1  0  0  0  0
 47 68  1  0  0  0  0
 48 67  1  0  0  0  0
 50 61  1  0  0  0  0
 51 62  1  0  0  0  0
 52 63  1  0  0  0  0
 53 63  1  0  0  0  0
 54 63  1  0  0  0  0
 55 75  1  0  0  0  0
 56 76  1  0  0  0  0
 57 76  1  0  0  0  0
 58 83  1  0  0  0  0
 59 62  1  0  0  0  0
 59 74  1  0  0  0  0
 60 63  1  0  0  0  0
 60 73  1  0  0  0  0
 61 75  1  0  0  0  0
 62 76  1  0  0  0  0
 64 67  1  0  0  0  0
M  CHG  2  75   1  76   1
M  ISO  4  36 100  58 101  74 100  83 101
M  END
> <Batch ID>
0053

> <Smiles>
CNC(C)C(=O)NC(C(=O)N1Cc2cc([101O:1][101CH2:1]c3cc(CN(C)C(C)C[100NH:0][100C:0](=O)N4CCCC(n5nc(-c6ccc(Oc7ccc(F)cc7F)cc6)c(C(N)=O)c5N)C4)nc(C)n3)ccc2CC1C(=O)NC1CCCc2ccccc21)C(C)(C)C

> <Shape>
0.290

> <Color>
0.086

> <Negative vol penalty>
0.000

$$$$

  -OEChem-04052317383D

 82 90  0     1  0  0  0  0  0999 V2000
  -27.4553  -25.2554    7.9730 C   0  0  0  0  0  0  0  0  0  0  0  0
  -27.7149  -24.3351    8.9835 C   0  0  0  0  0  0  0  0  0  0  0  0
  -23.1580   -9.7091   20.0879 C   0  0  0  0  0  0  0  0  0  0  0  0
  -23.8927   -9.9271   22.3791 C   0  0  0  0  0  0  0  0  0  0  0  0
  -28.2102  -26.4243    7.8855 C   0  0  0  0  0  0  0  0  0  0  0  0
  -28.7304  -24.5828    9.9065 C   0  0  0  0  0  0  0  0  0  0  0  0
  -27.3142  -23.5899   14.6661 C   0  0  0  0  0  0  0  0  0  0  0  0
  -22.4657   -8.5447   20.4206 C   0  0  0  0  0  0  0  0  0  0  0  0
  -23.2004   -8.7627   22.7119 C   0  0  0  0  0  0  0  0  0  0  0  0
  -27.2938  -22.2523   15.0584 C   0  0  0  0  0  0  0  0  0  0  0  0
  -20.0065   -7.8625   23.3517 C   0  0  0  0  0  0  0  0  0  0  0  0
  -19.2400   -7.8767   24.5170 C   0  0  0  0  0  0  0  0  0  0  0  0
  -29.4269  -22.5449   16.1462 C   0  0  0  0  0  0  0  0  0  0  0  0
  -20.5621   -6.0617   25.4087 C   0  0  0  0  0  0  0  0  0  0  0  0
  -27.9673  -19.8381   21.8784 C   0  0  0  0  0  0  0  0  0  0  0  0
  -29.7869  -19.1518   22.7435 C   0  0  0  0  0  0  0  0  0  0  0  0
  -23.8715  -10.4002   21.0672 C   0  0  0  0  0  0  0  0  0  0  0  0
  -24.0972  -12.9221   20.7558 C   0  0  0  0  0  0  0  0  0  0  0  0
  -29.2290  -26.6910    8.8137 C   0  0  0  0  0  0  0  0  0  0  0  0
  -28.3982  -24.4137   15.0021 C   0  0  0  0  0  0  0  0  0  0  0  0
  -29.5005  -25.7558    9.8305 C   0  0  0  0  0  0  0  0  0  0  0  0
  -29.4575  -23.8934   15.7591 C   0  0  0  0  0  0  0  0  0  0  0  0
  -22.4869   -8.0715   21.7326 C   0  0  0  0  0  0  0  0  0  0  0  0
  -28.3515  -21.7288   15.7961 C   0  0  0  0  0  0  0  0  0  0  0  0
  -21.0508   -6.9478   23.2149 C   0  0  0  0  0  0  0  0  0  0  0  0
  -19.5178   -6.9763   25.5455 C   0  0  0  0  0  0  0  0  0  0  0  0
  -21.3286   -6.0475   24.2434 C   0  0  0  0  0  0  0  0  0  0  0  0
  -24.5872  -11.6027   20.7240 C   0  0  0  0  0  0  0  0  0  0  0  0
  -28.4136  -18.8363   21.0491 C   0  0  0  0  0  0  0  0  0  0  0  0
  -25.1572  -13.6921   20.3435 C   0  0  0  0  0  0  0  0  0  0  0  0
  -22.7999  -13.4081   21.1251 C   0  0  0  0  0  0  0  0  0  0  0  0
  -30.5804  -26.0333   13.3533 C   0  0  0  0  0  0  0  0  0  0  0  0
  -30.6085  -14.9214   20.5927 C   0  0  0  0  0  0  0  0  0  0  0  0
  -31.4117  -27.1384   16.2875 C   0  0  0  0  0  0  0  0  0  0  0  0
  -31.4296  -26.6580   19.6663 C   0  0  0  0  0  0  0  0  0  0  0  0
  -30.0497  -27.9458    8.6503 C   0  0  0  0  0  0  0  0  0  0  0  0
  -28.3925  -25.8615   14.5942 C   0  0  0  0  0  0  0  0  0  0  0  0
  -30.6351  -24.7412   16.1628 C   0  0  0  0  0  0  0  0  0  0  0  0
  -30.8594  -28.3101    9.8920 C   0  0  0  0  0  0  0  0  0  0  0  0
  -29.5774  -12.3888   18.2769 C   0  0  0  0  0  0  0  0  0  0  0  0
  -31.5783  -27.0813   10.4399 C   0  0  0  0  0  0  0  0  0  0  0  0
  -28.1585  -12.0456   18.7284 C   0  0  0  0  0  0  0  0  0  0  0  0
  -30.4750  -12.7256   19.4635 C   0  0  0  0  0  0  0  0  0  0  0  0
  -28.5251  -13.4749   20.7894 C   0  0  0  0  0  0  0  0  0  0  0  0
  -30.5773  -26.0004   10.8653 C   0  0  1  0  0  0  0  0  0  0  0  0
  -29.7884  -26.4755   14.5512 C   0  0  1  0  0  0  0  0  0  0  0  0
  -27.5775  -13.1582   19.6189 C   0  0  2  0  0  0  0  0  0  0  0  0
  -30.1851  -15.6002   22.9141 C   0  0  0  0  0  0  0  0  0  0  0  0
  -32.2151  -27.7154   21.8022 C   0  0  0  0  0  0  0  0  0  0  0  0
  -34.2648  -26.2448   15.6779 C   0  0  0  0  0  0  0  0  0  0  0  0
  -34.7732  -26.4379   18.1218 C   0  0  0  0  0  0  0  0  0  0  0  0
  -34.0882  -28.4581   16.8287 C   0  0  0  0  0  0  0  0  0  0  0  0
  -28.6675  -26.8873   20.7043 C   0  0  0  0  0  0  0  0  0  0  0  0
  -27.8434  -18.2583   19.7875 C   0  0  0  0  0  0  0  0  0  0  0  0
  -30.4470  -17.3600   21.1283 C   0  0  0  0  0  0  0  0  0  0  0  0
  -27.1906  -18.7090   17.4190 C   0  0  0  0  0  0  0  0  0  0  0  0
  -27.0567  -19.8298   16.4071 C   0  0  0  0  0  0  0  0  0  1  0  0
  -29.9252  -15.9541   21.4533 C   0  0  1  0  0  0  0  0  0  0  0  0
  -32.3647  -26.6889   17.3687 C   0  0  1  0  0  0  0  0  0  0  0  0
  -31.0650  -27.5790   20.8166 C   0  0  2  0  0  0  0  0  0  0  0  0
  -33.8516  -26.9407   16.9902 C   0  0  0  0  0  0  0  0  0  0  0  0
  -28.8268  -20.0299   22.9311 N   0  0  0  0  0  0  0  0  0  0  0  0
  -25.8595  -11.5347   20.3230 N   0  0  0  0  0  0  0  0  0  0  0  0
  -29.5803  -18.4067   21.6160 N   0  0  0  0  0  0  0  0  0  0  0  0
  -26.1778  -12.8210   20.0990 N   0  0  0  0  0  0  0  0  0  0  0  0
  -30.5863  -26.1490   15.7348 N   0  0  0  0  0  0  0  0  0  0  0  0
  -29.8776  -13.7705   20.2969 N   0  0  0  0  0  0  0  0  0  0  0  0
  -25.3064  -15.0225   20.1698 N   0  0  0  0  0  0  0  0  0  0  0  0
  -21.8277  -12.4809   21.5242 N   0  0  0  0  0  0  0  0  0  0  0  0
  -29.9853  -26.3345   12.1430 N   0  0  0  0  0  0  0  0  0  0  0  0
  -31.9382  -27.3582   18.5928 N   0  0  0  0  0  0  0  0  0  0  0  0
  -29.8794  -27.0497   21.5481 N   0  3  0  0  0  0  0  0  0  0  0  0
  -27.6968  -19.2632   18.7000 N   0  3  0  0  0  0  0  0  0  0  0  0
  -22.5062  -14.6271   21.0860 O   0  0  0  0  0  0  0  0  0  0  0  0
  -31.6526  -25.4625   13.5150 O   0  0  0  0  0  0  0  0  0  0  0  0
  -31.7564  -15.1343   20.1937 O   0  0  0  0  0  0  0  0  0  0  0  0
  -31.3951  -28.3250   15.9511 O   0  0  0  0  0  0  0  0  0  0  0  0
  -31.2817  -25.4389   19.7164 O   0  0  0  0  0  0  0  0  0  0  0  0
  -21.8114   -6.9355   22.0577 O   0  0  0  0  0  0  0  0  0  0  0  0
  -28.3344  -20.4233   16.1797 O   0  0  0  0  0  0  0  0  0  1  0  0
  -18.7826   -6.9910   26.6650 F   0  0  0  0  0  0  0  0  0  0  0  0
  -22.3312   -5.1673   24.1182 F   0  0  0  0  0  0  0  0  0  0  0  0
  1  2  1  0  0  0  0
  1  5  2  0  0  0  0
  2  6  2  0  0  0  0
  3  8  2  0  0  0  0
  3 17  1  0  0  0  0
  4  9  1  0  0  0  0
  4 17  2  0  0  0  0
  5 19  1  0  0  0  0
  6 21  1  0  0  0  0
  7 10  2  0  0  0  0
  7 20  1  0  0  0  0
  8 23  1  0  0  0  0
  9 23  2  0  0  0  0
 10 24  1  0  0  0  0
 11 12  2  0  0  0  0
 11 25  1  0  0  0  0
 12 26  1  0  0  0  0
 13 22  1  0  0  0  0
 13 24  2  0  0  0  0
 14 26  2  0  0  0  0
 14 27  1  0  0  0  0
 15 29  2  0  0  0  0
 15 62  1  0  0  0  0
 16 62  2  0  0  0  0
 16 64  1  0  0  0  0
 17 28  1  0  0  0  0
 18 28  1  0  0  0  0
 18 30  2  0  0  0  0
 18 31  1  0  0  0  0
 19 21  2  0  0  0  0
 19 36  1  0  0  0  0
 20 22  2  0  0  0  0
 20 37  1  0  0  0  0
 21 45  1  0  0  0  0
 22 38  1  0  0  0  0
 23 79  1  0  0  0  0
 24 80  1  0  0  0  0
 25 27  2  0  0  0  0
 25 79  1  0  0  0  0
 26 81  1  0  0  0  0
 27 82  1  0  0  0  0
 28 63  2  0  0  0  0
 29 54  1  0  0  0  0
 29 64  1  0  0  0  0
 30 65  1  0  0  0  0
 30 68  1  0  0  0  0
 31 69  1  0  0  0  0
 31 74  2  0  0  0  0
 32 46  1  0  0  0  0
 32 70  1  0  0  0  0
 32 75  2  0  0  0  0
 33 58  1  0  0  0  0
 33 67  1  0  0  0  0
 33 76  2  0  0  0  0
 34 59  1  0  0  0  0
 34 66  1  0  0  0  0
 34 77  2  0  0  0  0
 35 60  1  0  0  0  0
 35 71  1  0  0  0  0
 35 78  2  0  0  0  0
 36 39  1  0  0  0  0
 37 46  1  0  0  0  0
 38 66  1  0  0  0  0
 39 41  1  0  0  0  0
 40 42  1  0  0  0  0
 40 43  1  0  0  0  0
 41 45  1  0  0  0  0
 42 47  1  0  0  0  0
 43 67  1  0  0  0  0
 44 47  1  0  0  0  0
 44 67  1  0  0  0  0
 45 70  1  0  0  0  0
 46 66  1  0  0  0  0
 47 65  1  0  0  0  0
 48 58  1  0  0  0  0
 49 60  1  0  0  0  0
 50 61  1  0  0  0  0
 51 61  1  0  0  0  0
 52 61  1  0  0  0  0
 53 72  1  0  0  0  0
 54 73  1  0  0  0  0
 55 58  1  0  0  0  0
 55 64  1  0  0  0  0
 56 57  1  0  0  0  0
 56 73  1  0  0  0  0
 57 80  1  0  0  0  0
 59 61  1  0  0  0  0
 59 71  1  0  0  0  0
 60 72  1  0  0  0  0
 63 65  1  0  0  0  0
M  CHG  2  72   1  73   1
M  ISO  4  33 100  57 101  58 100  80 101
M  END
> <Batch ID>
0053

> <Smiles>
CNC(C)C(=O)NC(C(=O)N1Cc2cc([101O:1][101CH2:1]CNCc3cncn3C[100CH:0](C)[100C:0](=O)N3CCCC(n4nc(-c5ccc(Oc6ccc(F)cc6F)cc5)c(C(N)=O)c4N)C3)ccc2CC1C(=O)NC1CCCc2ccccc21)C(C)(C)C

> <Shape>
0.235

> <Color>
0.190

> <Negative vol penalty>
0.000

$$$$

  -OEChem-04052317383D

 85 93  0     1  0  0  0  0  0999 V2000
  -29.6117  -28.8277   32.5216 C   0  0  0  0  0  0  0  0  0  0  0  0
  -28.9639  -28.0991   31.5292 C   0  0  0  0  0  0  0  0  0  0  0  0
  -23.0726   -9.8698   19.9432 C   0  0  0  0  0  0  0  0  0  0  0  0
  -23.8347   -9.8784   22.2358 C   0  0  0  0  0  0  0  0  0  0  0  0
  -30.9305  -29.2395   32.3341 C   0  0  0  0  0  0  0  0  0  0  0  0
  -29.6343  -27.7828   30.3480 C   0  0  0  0  0  0  0  0  0  0  0  0
  -28.9318  -22.9680   28.9450 C   0  0  0  0  0  0  0  0  0  0  0  0
  -22.3292   -8.7167   20.1946 C   0  0  0  0  0  0  0  0  0  0  0  0
  -23.0913   -8.7252   22.4873 C   0  0  0  0  0  0  0  0  0  0  0  0
  -27.7194  -22.6537   28.3325 C   0  0  0  0  0  0  0  0  0  0  0  0
  -19.3825   -7.9205   21.6493 C   0  0  0  0  0  0  0  0  0  0  0  0
  -18.0752   -7.8737   21.1653 C   0  0  0  0  0  0  0  0  0  0  0  0
  -28.7944  -22.7381   26.1747 C   0  0  0  0  0  0  0  0  0  0  0  0
  -18.6340   -5.9299   19.8437 C   0  0  0  0  0  0  0  0  0  0  0  0
  -25.7502  -19.9424   23.9208 C   0  0  0  0  0  0  0  0  0  0  0  0
  -23.8254  -10.4507   20.9638 C   0  0  0  0  0  0  0  0  0  0  0  0
  -24.1667  -12.9758   20.8419 C   0  0  0  0  0  0  0  0  0  0  0  0
  -31.6205  -28.9198   31.1541 C   0  0  0  0  0  0  0  0  0  0  0  0
  -30.0841  -23.1808   28.1748 C   0  0  0  0  0  0  0  0  0  0  0  0
  -30.9631  -28.1919   30.1440 C   0  0  0  0  0  0  0  0  0  0  0  0
  -30.0208  -23.0525   26.7799 C   0  0  0  0  0  0  0  0  0  0  0  0
  -22.3385   -8.1444   21.4666 C   0  0  0  0  0  0  0  0  0  0  0  0
  -27.6499  -22.5415   26.9470 C   0  0  0  0  0  0  0  0  0  0  0  0
  -20.3157   -6.9720   21.2304 C   0  0  0  0  0  0  0  0  0  0  0  0
  -17.7009   -6.8784   20.2626 C   0  0  0  0  0  0  0  0  0  0  0  0
  -19.9414   -5.9767   20.3277 C   0  0  0  0  0  0  0  0  0  0  0  0
  -24.5940  -11.6415   20.7046 C   0  0  0  0  0  0  0  0  0  0  0  0
  -26.4765  -18.8688   23.4886 C   0  0  0  0  0  0  0  0  0  0  0  0
  -25.2583  -13.7252   20.4771 C   0  0  0  0  0  0  0  0  0  0  0  0
  -25.9801  -18.5439   25.6213 C   0  0  0  0  0  0  0  0  0  0  0  0
  -22.8965  -13.4916   21.2617 C   0  0  0  0  0  0  0  0  0  0  0  0
  -32.0435  -25.6386   27.7014 C   0  0  0  0  0  0  0  0  0  0  0  0
  -33.7463  -23.4538   26.0134 C   0  0  0  0  0  0  0  0  0  0  0  0
  -33.7698  -20.5291   24.2549 C   0  0  0  0  0  0  0  0  0  0  0  0
  -30.7421  -14.7454   20.6595 C   0  0  0  0  0  0  0  0  0  0  0  0
  -33.0296  -29.4275   30.9770 C   0  0  0  0  0  0  0  0  0  0  0  0
  -31.3902  -23.4928   28.8525 C   0  0  0  0  0  0  0  0  0  0  0  0
  -31.2337  -23.2513   25.9094 C   0  0  0  0  0  0  0  0  0  0  0  0
  -33.7918  -28.7294   29.8536 C   0  0  0  0  0  0  0  0  0  0  0  0
  -29.6026  -12.3592   18.2753 C   0  0  0  0  0  0  0  0  0  0  0  0
  -32.9283  -28.6374   28.5995 C   0  0  0  0  0  0  0  0  0  0  0  0
  -28.1656  -12.0655   18.7098 C   0  0  0  0  0  0  0  0  0  0  0  0
  -30.5209  -12.5810   19.4752 C   0  0  0  0  0  0  0  0  0  0  0  0
  -28.6203  -13.3126   20.8631 C   0  0  0  0  0  0  0  0  0  0  0  0
  -31.6648  -27.8081   28.8593 C   0  0  1  0  0  0  0  0  0  0  0  0
  -32.3868  -24.1946   27.9349 C   0  0  1  0  0  0  0  0  0  0  0  0
  -27.6450  -13.1370   19.6866 C   0  0  2  0  0  0  0  0  0  0  0  0
  -25.8960  -17.9216   26.9661 C   0  0  0  0  0  0  0  0  0  0  0  0
  -35.3026  -19.0196   22.9629 C   0  0  0  0  0  0  0  0  0  0  0  0
  -33.6853  -25.4039   23.6674 C   0  0  0  0  0  0  0  0  0  0  0  0
  -34.3622  -23.5150   22.1700 C   0  0  0  0  0  0  0  0  0  0  0  0
  -35.8783  -24.2513   24.0091 C   0  0  0  0  0  0  0  0  0  0  0  0
  -28.8530  -20.1375   22.4371 C   0  0  0  0  0  0  0  0  0  0  0  0
  -33.2920  -18.2686   26.1045 C   0  0  0  0  0  0  0  0  0  0  0  0
  -27.0605  -18.5583   22.1813 C   0  0  0  0  0  0  0  0  0  0  0  0
  -30.5267  -18.0485   20.9348 C   0  0  0  0  0  0  0  0  0  0  0  0
  -24.6636  -20.6450   26.1292 C   0  0  0  0  0  0  0  0  0  0  0  0
  -30.8087  -16.8968   21.8949 C   0  0  0  0  0  0  0  0  0  0  0  0
  -29.0343  -18.3654   20.8248 C   0  0  0  0  0  0  0  0  0  0  0  0
  -25.5521  -21.4301   27.0879 C   0  0  0  0  0  0  0  0  0  1  0  0
  -33.7627  -22.9889   24.5772 C   0  0  1  0  0  0  0  0  0  0  0  0
  -34.6875  -19.3216   24.3205 C   0  0  2  0  0  0  0  0  0  0  0  0
  -34.3987  -24.0379   23.6219 C   0  0  0  0  0  0  0  0  0  0  0  0
  -25.8585  -11.5456   20.2851 N   0  0  0  0  0  0  0  0  0  0  0  0
  -25.4562  -19.7146   25.2436 N   0  0  0  0  0  0  0  0  0  0  0  0
  -26.2351  -12.8292   20.1556 N   0  0  0  0  0  0  0  0  0  0  0  0
  -26.6037  -18.0196   24.5613 N   0  3  0  0  0  0  0  0  0  0  0  0
  -32.4861  -23.5610   26.6185 N   0  0  0  0  0  0  0  0  0  0  0  0
  -29.9710  -13.6099   20.3610 N   0  0  0  0  0  0  0  0  0  0  0  0
  -25.4684  -15.0567   20.4030 N   0  0  0  0  0  0  0  0  0  0  0  0
  -21.8851  -12.5825   21.6005 N   0  0  0  0  0  0  0  0  0  0  0  0
  -31.9781  -26.3952   28.8559 N   0  0  0  0  0  0  0  0  0  0  0  0
  -34.4346  -21.6939   24.5751 N   0  0  0  0  0  0  0  0  0  0  0  0
  -30.1436  -15.6747   21.5015 N   0  0  0  0  0  0  0  0  0  0  0  0
  -28.4986  -18.7469   22.1356 N   0  0  1  0  0  0  0  0  0  0  0  0
  -33.9306  -18.1197   24.7714 N   0  3  0  0  0  0  0  0  0  0  0  0
  -22.6601  -14.7222   21.3185 O   0  0  0  0  0  0  0  0  0  0  0  0
  -31.8535  -26.0372   26.5583 O   0  0  0  0  0  0  0  0  0  0  0  0
  -34.8129  -23.7056   26.5797 O   0  0  0  0  0  0  0  0  0  0  0  0
  -32.5828  -20.4477   23.9466 O   0  0  0  0  0  0  0  0  0  0  0  0
  -31.8775  -14.9208   20.2046 O   0  0  0  0  0  0  0  0  0  0  0  0
  -21.6130   -7.0193   21.7124 O   0  0  0  0  0  0  0  0  0  0  0  0
  -26.4676  -22.2355   26.3466 O   0  0  0  0  0  0  0  0  0  1  0  0
  -16.4450   -6.8326   19.7991 F   0  0  0  0  0  0  0  0  0  0  0  0
  -20.8331   -5.0621   19.9226 F   0  0  0  0  0  0  0  0  0  0  0  0
  1  2  1  0  0  0  0
  1  5  2  0  0  0  0
  2  6  2  0  0  0  0
  3  8  2  0  0  0  0
  3 16  1  0  0  0  0
  4  9  1  0  0  0  0
  4 16  2  0  0  0  0
  5 18  1  0  0  0  0
  6 20  1  0  0  0  0
  7 10  2  0  0  0  0
  7 19  1  0  0  0  0
  8 22  1  0  0  0  0
  9 22  2  0  0  0  0
 10 23  1  0  0  0  0
 11 12  2  0  0  0  0
 11 24  1  0  0  0  0
 12 25  1  0  0  0  0
 13 21  1  0  0  0  0
 13 23  2  0  0  0  0
 14 25  2  0  0  0  0
 14 26  1  0  0  0  0
 15 28  2  0  0  0  0
 15 65  1  0  0  0  0
 16 27  1  0  0  0  0
 17 27  1  0  0  0  0
 17 29  2  0  0  0  0
 17 31  1  0  0  0  0
 18 20  2  0  0  0  0
 18 36  1  0  0  0  0
 19 21  2  0  0  0  0
 19 37  1  0  0  0  0
 20 45  1  0  0  0  0
 21 38  1  0  0  0  0
 22 82  1  0  0  0  0
 23 83  1  0  0  0  0
 24 26  2  0  0  0  0
 24 82  1  0  0  0  0
 25 84  1  0  0  0  0
 26 85  1  0  0  0  0
 27 64  2  0  0  0  0
 28 55  1  0  0  0  0
 28 67  1  0  0  0  0
 29 66  1  0  0  0  0
 29 70  1  0  0  0  0
 30 48  1  0  0  0  0
 30 65  1  0  0  0  0
 30 67  2  0  0  0  0
 31 71  1  0  0  0  0
 31 77  2  0  0  0  0
 32 46  1  0  0  0  0
 32 72  1  0  0  0  0
 32 78  2  0  0  0  0
 33 61  1  0  0  0  0
 33 68  1  0  0  0  0
 33 79  2  0  0  0  0
 34 62  1  0  0  0  0
 34 73  1  0  0  0  0
 34 80  2  0  0  0  0
 35 69  1  0  0  0  0
 35 74  1  0  0  0  0
 35 81  2  0  0  0  0
 36 39  1  0  0  0  0
 37 46  1  0  0  0  0
 38 68  1  0  0  0  0
 39 41  1  0  0  0  0
 40 42  1  0  0  0  0
 40 43  1  0  0  0  0
 41 45  1  0  0  0  0
 42 47  1  0  0  0  0
 43 69  1  0  0  0  0
 44 47  1  0  0  0  0
 44 69  1  0  0  0  0
 45 72  1  0  0  0  0
 46 68  1  0  0  0  0
 47 66  1  0  0  0  0
 49 62  1  0  0  0  0
 50 63  1  0  0  0  0
 51 63  1  0  0  0  0
 52 63  1  0  0  0  0
 53 75  1  0  0  0  0
 54 76  1  0  0  0  0
 55 75  1  0  0  0  0
 56 58  1  0  0  0  0
 56 59  1  0  0  0  0
 57 60  1  0  0  0  0
 57 65  1  0  0  0  0
 58 74  1  0  0  0  0
 59 75  1  0  0  0  0
 60 83  1  0  0  0  0
 61 63  1  0  0  0  0
 61 73  1  0  0  0  0
 62 76  1  0  0  0  0
 64 66  1  0  0  0  0
M  CHG  2  67   1  76   1
M  ISO  4  35 100  60 101  74 100  83 101
M  END
> <Batch ID>
0053

> <Smiles>
CNC(C)C(=O)NC(C(=O)N1Cc2cc([101O:1][101CH2:1]Cn3cc(CN(C)CCC[100NH:0][100C:0](=O)N4CCCC(n5nc(-c6ccc(Oc7ccc(F)cc7F)cc6)c(C(N)=O)c5N)C4)nc3C)ccc2CC1C(=O)NC1CCCc2ccccc21)C(C)(C)C

> <Shape>
0.155

> <Color>
0.187

> <Negative vol penalty>
0.000

$$$$

  -OEChem-04052317383D

 80 88  0     1  0  0  0  0  0999 V2000
  -20.1408  -24.3163   12.0638 C   0  0  0  0  0  0  0  0  0  0  0  0
  -21.1995  -23.8023   12.8056 C   0  0  0  0  0  0  0  0  0  0  0  0
  -22.9910   -9.9090   19.9939 C   0  0  0  0  0  0  0  0  0  0  0  0
  -23.6958   -9.9735   22.3039 C   0  0  0  0  0  0  0  0  0  0  0  0
  -18.8537  -24.3222   12.5997 C   0  0  0  0  0  0  0  0  0  0  0  0
  -20.9719  -23.2950   14.0844 C   0  0  0  0  0  0  0  0  0  0  0  0
  -23.8294  -18.5700   16.7329 C   0  0  0  0  0  0  0  0  0  0  0  0
  -22.2044   -8.7896   20.2651 C   0  0  0  0  0  0  0  0  0  0  0  0
  -22.9091   -8.8540   22.5752 C   0  0  0  0  0  0  0  0  0  0  0  0
  -24.8837  -18.5018   17.6427 C   0  0  0  0  0  0  0  0  0  0  0  0
  -23.1052   -5.5068   22.1411 C   0  0  0  0  0  0  0  0  0  0  0  0
  -23.6698   -4.4887   22.9094 C   0  0  0  0  0  0  0  0  0  0  0  0
  -23.3008  -18.3253   19.4545 C   0  0  0  0  0  0  0  0  0  0  0  0
  -21.9347   -4.7766   24.5658 C   0  0  0  0  0  0  0  0  0  0  0  0
  -28.6164  -17.9510   20.8864 C   0  0  0  0  0  0  0  0  0  0  0  0
  -28.6614  -16.4763   23.1114 C   0  0  0  0  0  0  0  0  0  0  0  0
  -23.7368  -10.5009   21.0133 C   0  0  0  0  0  0  0  0  0  0  0  0
  -24.1632  -13.0082   20.8141 C   0  0  0  0  0  0  0  0  0  0  0  0
  -18.6085  -23.8058   13.8818 C   0  0  0  0  0  0  0  0  0  0  0  0
  -22.5006  -18.5273   17.1788 C   0  0  0  0  0  0  0  0  0  0  0  0
  -19.6805  -23.2952   14.6385 C   0  0  0  0  0  0  0  0  0  0  0  0
  -22.2316  -18.3906   18.5482 C   0  0  0  0  0  0  0  0  0  0  0  0
  -22.1634   -8.2621   21.5558 C   0  0  0  0  0  0  0  0  0  0  0  0
  -24.6195  -18.3823   19.0039 C   0  0  0  0  0  0  0  0  0  0  0  0
  -21.9554   -6.1599   22.5852 C   0  0  0  0  0  0  0  0  0  0  0  0
  -23.0845   -4.1236   24.1218 C   0  0  0  0  0  0  0  0  0  0  0  0
  -21.3701   -5.7947   23.7975 C   0  0  0  0  0  0  0  0  0  0  0  0
  -24.5501  -11.6570   20.7336 C   0  0  0  0  0  0  0  0  0  0  0  0
  -27.7374  -18.1947   21.9186 C   0  0  0  0  0  0  0  0  0  0  0  0
  -29.5400  -16.2320   22.0790 C   0  0  0  0  0  0  0  0  0  0  0  0
  -25.2875  -13.7094   20.4524 C   0  0  0  0  0  0  0  0  0  0  0  0
  -22.9005  -13.5785   21.1830 C   0  0  0  0  0  0  0  0  0  0  0  0
  -20.0272  -20.5198   17.0530 C   0  0  0  0  0  0  0  0  0  0  0  0
  -30.8117  -14.4971   20.8419 C   0  0  0  0  0  0  0  0  0  0  0  0
  -18.4327  -18.0020   18.3338 C   0  0  0  0  0  0  0  0  0  0  0  0
  -18.5587  -15.1052   20.1336 C   0  0  0  0  0  0  0  0  0  0  0  0
  -17.2082  -23.8770   14.4376 C   0  0  0  0  0  0  0  0  0  0  0  0
  -21.3749  -18.5751   16.1824 C   0  0  0  0  0  0  0  0  0  0  0  0
  -20.8228  -18.3200   19.0764 C   0  0  0  0  0  0  0  0  0  0  0  0
  -16.9883  -22.9781   15.6516 C   0  0  0  0  0  0  0  0  0  0  0  0
  -29.6327  -12.1513   18.4032 C   0  0  0  0  0  0  0  0  0  0  0  0
  -18.1345  -23.1341   16.6459 C   0  0  0  0  0  0  0  0  0  0  0  0
  -28.1829  -11.9017   18.8167 C   0  0  0  0  0  0  0  0  0  0  0  0
  -30.5305  -12.3673   19.6175 C   0  0  0  0  0  0  0  0  0  0  0  0
  -28.6191  -13.2111   20.9428 C   0  0  0  0  0  0  0  0  0  0  0  0
  -19.4695  -22.7133   16.0194 C   0  0  1  0  0  0  0  0  0  0  0  0
  -20.0562  -19.0403   16.7925 C   0  0  1  0  0  0  0  0  0  0  0  0
  -27.6727  -13.0184   19.7447 C   0  0  2  0  0  0  0  0  0  0  0  0
  -31.8734  -15.5797   22.8012 C   0  0  0  0  0  0  0  0  0  0  0  0
  -17.0882  -13.2900   21.0502 C   0  0  0  0  0  0  0  0  0  0  0  0
  -17.4960  -19.8817   20.5472 C   0  0  0  0  0  0  0  0  0  0  0  0
  -16.8596  -17.8682   21.8922 C   0  0  0  0  0  0  0  0  0  0  0  0
  -15.7446  -18.3079   19.7045 C   0  0  0  0  0  0  0  0  0  0  0  0
  -19.9416  -13.0242   18.5475 C   0  0  0  0  0  0  0  0  0  0  0  0
  -26.7233  -19.3079   21.8149 C   0  0  0  0  0  0  0  0  0  0  0  0
  -25.4089  -18.8395   21.2003 C   0  0  0  0  0  0  0  0  0  1  0  0
  -30.5404  -15.1343   22.1814 C   0  0  1  0  0  0  0  0  0  0  0  0
  -18.1463  -17.5188   19.7350 C   0  0  1  0  0  0  0  0  0  0  0  0
  -17.9538  -13.7358   19.8820 C   0  0  2  0  0  0  0  0  0  0  0  0
  -17.0882  -18.3974   20.4603 C   0  0  0  0  0  0  0  0  0  0  0  0
  -27.7443  -17.4620   23.0497 N   0  0  0  0  0  0  0  0  0  0  0  0
  -29.5333  -16.9650   20.9479 N   0  0  0  0  0  0  0  0  0  0  0  0
  -25.8208  -11.5064   20.3507 N   0  0  0  0  0  0  0  0  0  0  0  0
  -26.2421  -12.7721   20.1872 N   0  0  0  0  0  0  0  0  0  0  0  0
  -19.7563  -18.3771   18.0631 N   0  0  0  0  0  0  0  0  0  0  0  0
  -29.9998  -13.4202   20.4853 N   0  0  0  0  0  0  0  0  0  0  0  0
  -25.5427  -15.0301   20.3385 N   0  0  0  0  0  0  0  0  0  0  0  0
  -21.8519  -12.7143   21.5263 N   0  0  0  0  0  0  0  0  0  0  0  0
  -19.5784  -21.2707   15.9833 N   0  0  0  0  0  0  0  0  0  0  0  0
  -17.7744  -16.1133   19.6141 N   0  0  0  0  0  0  0  0  0  0  0  0
  -19.0289  -12.7237   19.6805 N   0  3  0  0  0  0  0  0  0  0  0  0
  -22.7030  -14.8172   21.1916 O   0  0  0  0  0  0  0  0  0  0  0  0
  -20.3841  -20.9483   18.1442 O   0  0  0  0  0  0  0  0  0  0  0  0
  -31.7168  -14.9462   20.1338 O   0  0  0  0  0  0  0  0  0  0  0  0
  -17.5173  -18.0383   17.5077 O   0  0  0  0  0  0  0  0  0  0  0  0
  -19.6189  -15.2649   20.7345 O   0  0  0  0  0  0  0  0  0  0  0  0
  -21.3957   -7.1699   21.8208 O   0  0  0  0  0  0  0  0  0  0  0  0
  -25.6467  -18.3162   19.8941 O   0  0  0  0  0  0  0  0  0  1  0  0
  -23.6259   -3.1448   24.8587 F   0  0  0  0  0  0  0  0  0  0  0  0
  -20.2648   -6.4176   24.2287 F   0  0  0  0  0  0  0  0  0  0  0  0
  1  2  1  0  0  0  0
  1  5  2  0  0  0  0
  2  6  2  0  0  0  0
  3  8  2  0  0  0  0
  3 17  1  0  0  0  0
  4  9  1  0  0  0  0
  4 17  2  0  0  0  0
  5 19  1  0  0  0  0
  6 21  1  0  0  0  0
  7 10  2  0  0  0  0
  7 20  1  0  0  0  0
  8 23  1  0  0  0  0
  9 23  2  0  0  0  0
 10 24  1  0  0  0  0
 11 12  2  0  0  0  0
 11 25  1  0  0  0  0
 12 26  1  0  0  0  0
 13 22  1  0  0  0  0
 13 24  2  0  0  0  0
 14 26  2  0  0  0  0
 14 27  1  0  0  0  0
 15 29  1  0  0  0  0
 15 62  2  0  0  0  0
 16 30  2  0  0  0  0
 16 61  1  0  0  0  0
 17 28  1  0  0  0  0
 18 28  1  0  0  0  0
 18 31  2  0  0  0  0
 18 32  1  0  0  0  0
 19 21  2  0  0  0  0
 19 37  1  0  0  0  0
 20 22  2  0  0  0  0
 20 38  1  0  0  0  0
 21 46  1  0  0  0  0
 22 39  1  0  0  0  0
 23 77  1  0  0  0  0
 24 78  1  0  0  0  0
 25 27  2  0  0  0  0
 25 77  1  0  0  0  0
 26 79  1  0  0  0  0
 27 80  1  0  0  0  0
 28 63  2  0  0  0  0
 29 55  1  0  0  0  0
 29 61  2  0  0  0  0
 30 57  1  0  0  0  0
 30 62  1  0  0  0  0
 31 64  1  0  0  0  0
 31 67  1  0  0  0  0
 32 68  1  0  0  0  0
 32 72  2  0  0  0  0
 33 47  1  0  0  0  0
 33 69  1  0  0  0  0
 33 73  2  0  0  0  0
 34 57  1  0  0  0  0
 34 66  1  0  0  0  0
 34 74  2  0  0  0  0
 35 58  1  0  0  0  0
 35 65  1  0  0  0  0
 35 75  2  0  0  0  0
 36 59  1  0  0  0  0
 36 70  1  0  0  0  0
 36 76  2  0  0  0  0
 37 40  1  0  0  0  0
 38 47  1  0  0  0  0
 39 65  1  0  0  0  0
 40 42  1  0  0  0  0
 41 43  1  0  0  0  0
 41 44  1  0  0  0  0
 42 46  1  0  0  0  0
 43 48  1  0  0  0  0
 44 66  1  0  0  0  0
 45 48  1  0  0  0  0
 45 66  1  0  0  0  0
 46 69  1  0  0  0  0
 47 65  1  0  0  0  0
 48 64  1  0  0  0  0
 49 57  1  0  0  0  0
 50 59  1  0  0  0  0
 51 60  1  0  0  0  0
 52 60  1  0  0  0  0
 53 60  1  0  0  0  0
 54 71  1  0  0  0  0
 55 56  1  0  0  0  0
 56 78  1  0  0  0  0
 58 60  1  0  0  0  0
 58 70  1  0  0  0  0
 59 71  1  0  0  0  0
 63 64  1  0  0  0  0
M  CHG  1  71   1
M  ISO  4  34 100  56 101  57 100  78 101
M  END
> <Batch ID>
0053

> <Smiles>
CNC(C)C(=O)NC(C(=O)N1Cc2cc([101O:1][101CH2:1]Cc3cnc([100CH:0](C)[100C:0](=O)N4CCCC(n5nc(-c6ccc(Oc7ccc(F)cc7F)cc6)c(C(N)=O)c5N)C4)cn3)ccc2CC1C(=O)NC1CCCc2ccccc21)C(C)(C)C

> <Shape>
0.185

> <Color>
0.199

> <Negative vol penalty>
0.000

$$$$

  -OEChem-04052317383D

 85 93  0     1  0  0  0  0  0999 V2000
  -32.8314  -16.7332   20.7684 C   0  0  0  0  0  0  0  0  0  0  0  0
  -31.7980  -17.2718   21.5283 C   0  0  0  0  0  0  0  0  0  0  0  0
  -26.9409  -29.4565   19.4875 C   0  0  0  0  0  0  0  0  0  0  0  0
  -25.9015  -28.4662   21.4306 C   0  0  0  0  0  0  0  0  0  0  0  0
  -32.5398  -15.9750   19.6352 C   0  0  0  0  0  0  0  0  0  0  0  0
  -30.4724  -17.0533   21.1548 C   0  0  0  0  0  0  0  0  0  0  0  0
  -27.5279  -15.8066   25.0817 C   0  0  0  0  0  0  0  0  0  0  0  0
  -25.8622  -30.3309   19.3560 C   0  0  0  0  0  0  0  0  0  0  0  0
  -24.8227  -29.3407   21.2992 C   0  0  0  0  0  0  0  0  0  0  0  0
  -27.1136  -16.8404   25.9204 C   0  0  0  0  0  0  0  0  0  0  0  0
  -21.6262  -31.0701   21.2634 C   0  0  0  0  0  0  0  0  0  0  0  0
  -20.3425  -30.5404   21.3942 C   0  0  0  0  0  0  0  0  0  0  0  0
  -24.9752  -16.8806   24.8048 C   0  0  0  0  0  0  0  0  0  0  0  0
  -20.7584  -29.0702   19.5227 C   0  0  0  0  0  0  0  0  0  0  0  0
  -27.9202  -21.9924   23.5918 C   0  0  0  0  0  0  0  0  0  0  0  0
  -26.9605  -28.5241   20.5248 C   0  0  0  0  0  0  0  0  0  0  0  0
  -29.2543  -27.8301   21.3992 C   0  0  0  0  0  0  0  0  0  0  0  0
  -31.2098  -15.7391   19.2531 C   0  0  0  0  0  0  0  0  0  0  0  0
  -26.6713  -15.3086   24.0894 C   0  0  0  0  0  0  0  0  0  0  0  0
  -30.1628  -16.2924   20.0147 C   0  0  0  0  0  0  0  0  0  0  0  0
  -25.3800  -15.8387   23.9565 C   0  0  0  0  0  0  0  0  0  0  0  0
  -24.8031  -30.2731   20.2619 C   0  0  0  0  0  0  0  0  0  0  0  0
  -25.8382  -17.3795   25.7801 C   0  0  0  0  0  0  0  0  0  0  0  0
  -22.4760  -30.6000   20.2621 C   0  0  0  0  0  0  0  0  0  0  0  0
  -19.9086  -29.5405   20.5239 C   0  0  0  0  0  0  0  0  0  0  0  0
  -22.0422  -29.6000   19.3918 C   0  0  0  0  0  0  0  0  0  0  0  0
  -28.0743  -27.6201   20.6607 C   0  0  0  0  0  0  0  0  0  0  0  0
  -27.2667  -20.8425   23.1097 C   0  0  0  0  0  0  0  0  0  0  0  0
  -27.2505  -22.3084   24.7486 C   0  0  0  0  0  0  0  0  0  0  0  0
  -29.9872  -26.6842   21.2084 C   0  0  0  0  0  0  0  0  0  0  0  0
  -29.6523  -28.9598   22.1873 C   0  0  0  0  0  0  0  0  0  0  0  0
  -26.7644  -15.1560   20.9158 C   0  0  0  0  0  0  0  0  0  0  0  0
  -24.0536  -13.4182   21.3087 C   0  0  0  0  0  0  0  0  0  0  0  0
  -21.3538  -12.6615   23.2543 C   0  0  0  0  0  0  0  0  0  0  0  0
  -28.6304  -21.1033   19.9089 C   0  0  0  0  0  0  0  0  0  0  0  0
  -30.9449  -14.9528   17.9936 C   0  0  0  0  0  0  0  0  0  0  0  0
  -27.1236  -14.1750   23.2103 C   0  0  0  0  0  0  0  0  0  0  0  0
  -24.4149  -15.3255   22.9202 C   0  0  0  0  0  0  0  0  0  0  0  0
  -29.5067  -14.4544   17.8779 C   0  0  0  0  0  0  0  0  0  0  0  0
  -30.7083  -23.1704   18.0554 C   0  0  0  0  0  0  0  0  0  0  0  0
  -28.5254  -15.5731   18.2127 C   0  0  0  0  0  0  0  0  0  0  0  0
  -30.3899  -24.5721   18.5741 C   0  0  0  0  0  0  0  0  0  0  0  0
  -29.4387  -22.3380   17.9218 C   0  0  0  0  0  0  0  0  0  0  0  0
  -28.3312  -23.6178   19.7265 C   0  0  0  0  0  0  0  0  0  0  0  0
  -28.7116  -16.0568   19.6559 C   0  0  1  0  0  0  0  0  0  0  0  0
  -26.3532  -14.0940   21.8960 C   0  0  1  0  0  0  0  0  0  0  0  0
  -29.5831  -24.5054   19.8826 C   0  0  2  0  0  0  0  0  0  0  0  0
  -25.5109  -19.9454   19.5232 C   0  0  0  0  0  0  0  0  0  0  0  0
  -27.2463  -24.8052   25.0944 C   0  0  0  0  0  0  0  0  0  0  0  0
  -28.8326  -23.3531   26.4098 C   0  0  0  0  0  0  0  0  0  0  0  0
  -19.2922  -11.2312   23.2926 C   0  0  0  0  0  0  0  0  0  0  0  0
  -22.6953  -15.3278   19.3546 C   0  0  0  0  0  0  0  0  0  0  0  0
  -20.4859  -14.4623   20.1530 C   0  0  0  0  0  0  0  0  0  0  0  0
  -22.1006  -12.9187   19.0428 C   0  0  0  0  0  0  0  0  0  0  0  0
  -22.2612  -11.2156   25.6719 C   0  0  0  0  0  0  0  0  0  0  0  0
  -27.5765  -20.0798   21.8887 C   0  0  0  0  0  0  0  0  0  0  0  0
  -25.8190  -20.6550   27.2841 C   0  0  0  0  0  0  0  0  0  0  0  0
  -25.2611  -21.2631   25.9955 C   0  0  0  0  0  0  0  0  0  0  0  0
  -26.1182  -21.1510   20.2116 C   0  0  0  0  0  0  0  0  0  0  0  0
  -26.4378  -19.2766   27.0831 C   0  0  0  0  0  0  0  0  0  1  0  0
  -27.4510  -23.4032   25.7155 C   0  0  0  0  0  0  0  0  0  0  0  0
  -22.5803  -13.7382   21.3859 C   0  0  1  0  0  0  0  0  0  0  0  0
  -20.7597  -11.3308   23.6792 C   0  0  2  0  0  0  0  0  0  0  0  0
  -21.9842  -14.1230   20.0024 C   0  0  0  0  0  0  0  0  0  0  0  0
  -28.0546  -26.4343   20.0465 N   0  0  0  0  0  0  0  0  0  0  0  0
  -26.2593  -20.4541   23.8961 N   0  0  0  0  0  0  0  0  0  0  0  0
  -26.2748  -21.3650   24.8840 N   0  0  0  0  0  0  0  0  0  0  0  0
  -29.2313  -25.8888   20.3985 N   0  0  0  0  0  0  0  0  0  0  0  0
  -24.9060  -14.2205   22.0805 N   0  0  0  0  0  0  0  0  0  0  0  0
  -28.6948  -22.3008   19.1812 N   0  0  0  0  0  0  0  0  0  0  0  0
  -31.1982  -26.2897   21.6560 N   0  0  0  0  0  0  0  0  0  0  0  0
  -28.7796  -30.0529   22.2766 N   0  0  0  0  0  0  0  0  0  0  0  0
  -28.1052  -15.1258   20.5832 N   0  0  0  0  0  0  0  0  0  0  0  0
  -21.9440  -12.5836   22.0106 N   0  0  0  0  0  0  0  0  0  0  0  0
  -27.4774  -20.8802   20.6765 N   0  0  0  0  0  0  0  0  0  0  0  0
  -20.8691  -11.1625   25.1559 N   0  3  0  0  0  0  0  0  0  0  0  0
  -30.7563  -29.0056   22.7809 O   0  0  0  0  0  0  0  0  0  0  0  0
  -25.9268  -15.9434   20.4914 O   0  0  0  0  0  0  0  0  0  0  0  0
  -24.4334  -12.4860   20.5957 O   0  0  0  0  0  0  0  0  0  0  0  0
  -21.2965  -13.6704   23.9539 O   0  0  0  0  0  0  0  0  0  0  0  0
  -29.5488  -20.2743   19.8698 O   0  0  0  0  0  0  0  0  0  0  0  0
  -23.7505  -31.1264   20.1340 O   0  0  0  0  0  0  0  0  0  0  0  0
  -25.4316  -18.3891   26.5970 O   0  0  0  0  0  0  0  0  0  1  0  0
  -18.6764  -29.0308   20.6507 F   0  0  0  0  0  0  0  0  0  0  0  0
  -22.8545  -29.1435   18.4287 F   0  0  0  0  0  0  0  0  0  0  0  0
  1  2  1  0  0  0  0
  1  5  2  0  0  0  0
  2  6  2  0  0  0  0
  3  8  2  0  0  0  0
  3 16  1  0  0  0  0
  4  9  1  0  0  0  0
  4 16  2  0  0  0  0
  5 18  1  0  0  0  0
  6 20  1  0  0  0  0
  7 10  2  0  0  0  0
  7 19  1  0  0  0  0
  8 22  1  0  0  0  0
  9 22  2  0  0  0  0
 10 23  1  0  0  0  0
 11 12  2  0  0  0  0
 11 24  1  0  0  0  0
 12 25  1  0  0  0  0
 13 21  1  0  0  0  0
 13 23  2  0  0  0  0
 14 25  2  0  0  0  0
 14 26  1  0  0  0  0
 15 28  1  0  0  0  0
 15 29  2  0  0  0  0
 16 27  1  0  0  0  0
 17 27  1  0  0  0  0
 17 30  2  0  0  0  0
 17 31  1  0  0  0  0
 18 20  2  0  0  0  0
 18 36  1  0  0  0  0
 19 21  2  0  0  0  0
 19 37  1  0  0  0  0
 20 45  1  0  0  0  0
 21 38  1  0  0  0  0
 22 82  1  0  0  0  0
 23 83  1  0  0  0  0
 24 26  2  0  0  0  0
 24 82  1  0  0  0  0
 25 84  1  0  0  0  0
 26 85  1  0  0  0  0
 27 65  2  0  0  0  0
 28 56  1  0  0  0  0
 28 66  2  0  0  0  0
 29 61  1  0  0  0  0
 29 67  1  0  0  0  0
 30 68  1  0  0  0  0
 30 71  1  0  0  0  0
 31 72  1  0  0  0  0
 31 77  2  0  0  0  0
 32 46  1  0  0  0  0
 32 73  1  0  0  0  0
 32 78  2  0  0  0  0
 33 62  1  0  0  0  0
 33 69  1  0  0  0  0
 33 79  2  0  0  0  0
 34 63  1  0  0  0  0
 34 74  1  0  0  0  0
 34 80  2  0  0  0  0
 35 70  1  0  0  0  0
 35 75  1  0  0  0  0
 35 81  2  0  0  0  0
 36 39  1  0  0  0  0
 37 46  1  0  0  0  0
 38 69  1  0  0  0  0
 39 41  1  0  0  0  0
 40 42  1  0  0  0  0
 40 43  1  0  0  0  0
 41 45  1  0  0  0  0
 42 47  1  0  0  0  0
 43 70  1  0  0  0  0
 44 47  1  0  0  0  0
 44 70  1  0  0  0  0
 45 73  1  0  0  0  0
 46 69  1  0  0  0  0
 47 68  1  0  0  0  0
 48 59  1  0  0  0  0
 49 61  1  0  0  0  0
 50 61  1  0  0  0  0
 51 63  1  0  0  0  0
 52 64  1  0  0  0  0
 53 64  1  0  0  0  0
 54 64  1  0  0  0  0
 55 76  1  0  0  0  0
 56 75  1  0  0  0  0
 57 58  1  0  0  0  0
 57 60  1  0  0  0  0
 58 67  1  0  0  0  0
 59 75  1  0  0  0  0
 60 83  1  0  0  0  0
 62 64  1  0  0  0  0
 62 74  1  0  0  0  0
 63 76  1  0  0  0  0
 65 68  1  0  0  0  0
 66 67  1  0  0  0  0
M  CHG  1  76   1
M  ISO  4  35 100  60 101  75 100  83 101
M  END
> <Batch ID>
0053

> <Smiles>
CC[100N:0](Cc1cc(C(C)C)n(CC[101CH2:1][101O:1]c2ccc3c(c2)CN(C(=O)C(NC(=O)C(C)NC)C(C)(C)C)C(C(=O)NC2CCCc4ccccc42)C3)n1)[100C:0](=O)N1CCCC(n2nc(-c3ccc(Oc4ccc(F)cc4F)cc3)c(C(N)=O)c2N)C1

> <Shape>
0.201

> <Color>
0.068

> <Negative vol penalty>
0.000

$$$$

  -OEChem-04052317383D

 85 93  0     1  0  0  0  0  0999 V2000
  -20.1371  -14.4462   16.1548 C   0  0  0  0  0  0  0  0  0  0  0  0
  -20.9524  -15.5418   16.4200 C   0  0  0  0  0  0  0  0  0  0  0  0
  -20.3790  -25.3282   20.6311 C   0  0  0  0  0  0  0  0  0  0  0  0
  -20.7132  -27.6411   20.0181 C   0  0  0  0  0  0  0  0  0  0  0  0
  -20.3049  -13.2636   16.8738 C   0  0  0  0  0  0  0  0  0  0  0  0
  -21.9354  -15.4557   17.4053 C   0  0  0  0  0  0  0  0  0  0  0  0
  -27.4385  -18.1426   17.3601 C   0  0  0  0  0  0  0  0  0  0  0  0
  -19.2076  -25.6758   21.3038 C   0  0  0  0  0  0  0  0  0  0  0  0
  -19.5417  -27.9887   20.6908 C   0  0  0  0  0  0  0  0  0  0  0  0
  -27.9181  -19.3084   17.9558 C   0  0  0  0  0  0  0  0  0  0  0  0
  -18.5642  -28.5095   23.8852 C   0  0  0  0  0  0  0  0  0  0  0  0
  -18.5997  -29.6339   24.7098 C   0  0  0  0  0  0  0  0  0  0  0  0
  -28.7696  -18.0082   19.8007 C   0  0  0  0  0  0  0  0  0  0  0  0
  -16.8674  -30.6650   23.3783 C   0  0  0  0  0  0  0  0  0  0  0  0
  -31.4273  -24.8820   21.3790 C   0  0  0  0  0  0  0  0  0  0  0  0
  -21.1318  -26.3109   19.9882 C   0  0  0  0  0  0  0  0  0  0  0  0
  -22.4678  -25.5767   17.9428 C   0  0  0  0  0  0  0  0  0  0  0  0
  -21.2968  -13.1598   17.8618 C   0  0  0  0  0  0  0  0  0  0  0  0
  -27.6116  -16.9001   17.9866 C   0  0  0  0  0  0  0  0  0  0  0  0
  -22.1157  -14.2710   18.1392 C   0  0  0  0  0  0  0  0  0  0  0  0
  -28.2936  -16.8278   19.2096 C   0  0  0  0  0  0  0  0  0  0  0  0
  -18.7889  -27.0060   21.3336 C   0  0  0  0  0  0  0  0  0  0  0  0
  -28.5812  -19.2416   19.1777 C   0  0  0  0  0  0  0  0  0  0  0  0
  -17.6804  -28.4628   22.8071 C   0  0  0  0  0  0  0  0  0  0  0  0
  -17.7513  -30.7117   24.4564 C   0  0  0  0  0  0  0  0  0  0  0  0
  -16.8319  -29.5406   22.5537 C   0  0  0  0  0  0  0  0  0  0  0  0
  -22.3423  -25.9526   19.2936 C   0  0  0  0  0  0  0  0  0  0  0  0
  -32.2817  -23.9674   22.0234 C   0  0  0  0  0  0  0  0  0  0  0  0
  -30.9978  -25.7161   22.3821 C   0  0  0  0  0  0  0  0  0  0  0  0
  -23.8102  -25.3393   17.7757 C   0  0  0  0  0  0  0  0  0  0  0  0
  -21.4609  -25.4532   16.9296 C   0  0  0  0  0  0  0  0  0  0  0  0
  -25.6536  -14.6709   19.1272 C   0  0  0  0  0  0  0  0  0  0  0  0
  -28.4131  -13.0208   19.5572 C   0  0  0  0  0  0  0  0  0  0  0  0
  -31.7980  -13.0976   19.9855 C   0  0  0  0  0  0  0  0  0  0  0  0
  -28.5785  -27.3597   20.3813 C   0  0  0  0  0  0  0  0  0  0  0  0
  -21.4093  -11.8761   18.6456 C   0  0  0  0  0  0  0  0  0  0  0  0
  -27.1119  -15.6488   17.3180 C   0  0  0  0  0  0  0  0  0  0  0  0
  -28.5232  -15.5161   19.9133 C   0  0  0  0  0  0  0  0  0  0  0  0
  -22.7216  -11.7447   19.4141 C   0  0  0  0  0  0  0  0  0  0  0  0
  -27.7021  -23.9453   20.1677 C   0  0  0  0  0  0  0  0  0  0  0  0
  -23.0360  -13.0383   20.1589 C   0  0  0  0  0  0  0  0  0  0  0  0
  -26.2236  -24.0353   19.7924 C   0  0  0  0  0  0  0  0  0  0  0  0
  -28.0990  -25.0048   21.1974 C   0  0  0  0  0  0  0  0  0  0  0  0
  -26.2655  -26.4763   20.4258 C   0  0  0  0  0  0  0  0  0  0  0  0
  -23.2095  -14.2084   19.1831 C   0  0  1  0  0  0  0  0  0  0  0  0
  -26.8918  -14.4970   18.2939 C   0  0  1  0  0  0  0  0  0  0  0  0
  -25.8546  -25.4613   19.3481 C   0  0  2  0  0  0  0  0  0  0  0  0
  -32.0466  -30.4276   20.3317 C   0  0  0  0  0  0  0  0  0  0  0  0
  -33.7724  -11.5917   20.3482 C   0  0  0  0  0  0  0  0  0  0  0  0
  -27.5865  -12.6427   22.4699 C   0  0  0  0  0  0  0  0  0  0  0  0
  -29.9507  -11.9991   22.9846 C   0  0  0  0  0  0  0  0  0  0  0  0
  -28.6010  -10.6213   21.4025 C   0  0  0  0  0  0  0  0  0  0  0  0
  -31.4607  -25.8199   24.8498 C   0  0  0  0  0  0  0  0  0  0  0  0
  -33.0847  -13.9868   17.4730 C   0  0  0  0  0  0  0  0  0  0  0  0
  -33.0360  -22.8194   21.4012 C   0  0  0  0  0  0  0  0  0  0  0  0
  -30.0877  -26.8757   22.3543 C   0  0  0  0  0  0  0  0  0  0  0  0
  -30.9437  -29.5857   20.9582 C   0  0  0  0  0  0  0  0  0  0  0  0
  -32.2544  -21.5011   21.3852 C   0  0  0  0  0  0  0  0  0  0  0  0
  -30.9824  -21.5695   20.5389 C   0  0  0  0  0  0  0  0  0  0  0  0
  -30.9095  -28.1618   20.4161 C   0  0  0  0  0  0  0  0  0  0  0  0
  -30.2130  -20.2561   20.5790 C   0  0  0  0  0  0  0  0  0  1  0  0
  -29.4227  -12.8983   20.6729 C   0  0  1  0  0  0  0  0  0  0  0  0
  -32.9155  -12.3144   19.3205 C   0  0  2  0  0  0  0  0  0  0  0  0
  -28.8844  -12.0654   21.8704 C   0  0  0  0  0  0  0  0  0  0  0  0
  -23.5118  -25.9552   19.9389 N   0  0  0  0  0  0  0  0  0  0  0  0
  -32.3899  -24.1985   23.3344 N   0  0  0  0  0  0  0  0  0  0  0  0
  -31.5980  -25.2680   23.5220 N   0  0  0  0  0  0  0  0  0  0  0  0
  -24.3848  -25.5778   18.9894 N   0  0  0  0  0  0  0  0  0  0  0  0
  -28.0103  -14.3214   19.2225 N   0  0  0  0  0  0  0  0  0  0  0  0
  -27.6866  -26.3442   20.7562 N   0  0  0  0  0  0  0  0  0  0  0  0
  -24.5434  -24.9518   16.7105 N   0  0  0  0  0  0  0  0  0  0  0  0
  -20.1311  -25.7351   17.2712 N   0  0  0  0  0  0  0  0  0  0  0  0
  -24.5102  -14.1510   18.5513 N   0  0  0  0  0  0  0  0  0  0  0  0
  -30.6361  -12.3597   20.0680 N   0  0  0  0  0  0  0  0  0  0  0  0
  -29.8364  -27.3712   21.0024 N   0  0  0  0  0  0  0  0  0  0  0  0
  -33.7931  -13.2285   18.5362 N   0  3  0  0  0  0  0  0  0  0  0  0
  -21.7300  -25.0873   15.7603 O   0  0  0  0  0  0  0  0  0  0  0  0
  -25.7303  -15.2338   20.2130 O   0  0  0  0  0  0  0  0  0  0  0  0
  -28.0026  -12.0007   18.9984 O   0  0  0  0  0  0  0  0  0  0  0  0
  -31.9425  -14.2475   20.3945 O   0  0  0  0  0  0  0  0  0  0  0  0
  -28.2663  -28.2152   19.5430 O   0  0  0  0  0  0  0  0  0  0  0  0
  -17.6458  -27.3455   21.9898 O   0  0  0  0  0  0  0  0  0  0  0  0
  -29.0497  -20.3780   19.7616 O   0  0  0  0  0  0  0  0  0  1  0  0
  -17.7844  -31.7908   25.2492 F   0  0  0  0  0  0  0  0  0  0  0  0
  -15.9798  -29.5011   21.5201 F   0  0  0  0  0  0  0  0  0  0  0  0
  1  2  1  0  0  0  0
  1  5  2  0  0  0  0
  2  6  2  0  0  0  0
  3  8  2  0  0  0  0
  3 16  1  0  0  0  0
  4  9  1  0  0  0  0
  4 16  2  0  0  0  0
  5 18  1  0  0  0  0
  6 20  1  0  0  0  0
  7 10  2  0  0  0  0
  7 19  1  0  0  0  0
  8 22  1  0  0  0  0
  9 22  2  0  0  0  0
 10 23  1  0  0  0  0
 11 12  2  0  0  0  0
 11 24  1  0  0  0  0
 12 25  1  0  0  0  0
 13 21  1  0  0  0  0
 13 23  2  0  0  0  0
 14 25  2  0  0  0  0
 14 26  1  0  0  0  0
 15 28  1  0  0  0  0
 15 29  2  0  0  0  0
 16 27  1  0  0  0  0
 17 27  1  0  0  0  0
 17 30  2  0  0  0  0
 17 31  1  0  0  0  0
 18 20  2  0  0  0  0
 18 36  1  0  0  0  0
 19 21  2  0  0  0  0
 19 37  1  0  0  0  0
 20 45  1  0  0  0  0
 21 38  1  0  0  0  0
 22 82  1  0  0  0  0
 23 83  1  0  0  0  0
 24 26  2  0  0  0  0
 24 82  1  0  0  0  0
 25 84  1  0  0  0  0
 26 85  1  0  0  0  0
 27 65  2  0  0  0  0
 28 55  1  0  0  0  0
 28 66  2  0  0  0  0
 29 56  1  0  0  0  0
 29 67  1  0  0  0  0
 30 68  1  0  0  0  0
 30 71  1  0  0  0  0
 31 72  1  0  0  0  0
 31 77  2  0  0  0  0
 32 46  1  0  0  0  0
 32 73  1  0  0  0  0
 32 78  2  0  0  0  0
 33 62  1  0  0  0  0
 33 69  1  0  0  0  0
 33 79  2  0  0  0  0
 34 63  1  0  0  0  0
 34 74  1  0  0  0  0
 34 80  2  0  0  0  0
 35 70  1  0  0  0  0
 35 75  1  0  0  0  0
 35 81  2  0  0  0  0
 36 39  1  0  0  0  0
 37 46  1  0  0  0  0
 38 69  1  0  0  0  0
 39 41  1  0  0  0  0
 40 42  1  0  0  0  0
 40 43  1  0  0  0  0
 41 45  1  0  0  0  0
 42 47  1  0  0  0  0
 43 70  1  0  0  0  0
 44 47  1  0  0  0  0
 44 70  1  0  0  0  0
 45 73  1  0  0  0  0
 46 69  1  0  0  0  0
 47 68  1  0  0  0  0
 48 57  1  0  0  0  0
 49 63  1  0  0  0  0
 50 64  1  0  0  0  0
 51 64  1  0  0  0  0
 52 64  1  0  0  0  0
 53 67  1  0  0  0  0
 54 76  1  0  0  0  0
 55 58  1  0  0  0  0
 56 75  1  0  0  0  0
 57 60  1  0  0  0  0
 58 59  1  0  0  0  0
 59 61  1  0  0  0  0
 60 75  1  0  0  0  0
 61 83  1  0  0  0  0
 62 64  1  0  0  0  0
 62 74  1  0  0  0  0
 63 76  1  0  0  0  0
 65 68  1  0  0  0  0
 66 67  1  0  0  0  0
M  CHG  1  76   1
M  ISO  4  35 100  61 101  75 100  83 101
M  END
> <Batch ID>
0053

> <Smiles>
CCC[100N:0](Cc1cc(CCC[101CH2:1][101O:1]c2ccc3c(c2)CN(C(=O)C(NC(=O)C(C)NC)C(C)(C)C)C(C(=O)NC2CCCc4ccccc42)C3)nn1C)[100C:0](=O)N1CCCC(n2nc(-c3ccc(Oc4ccc(F)cc4F)cc3)c(C(N)=O)c2N)C1

> <Shape>
0.203

> <Color>
0.068

> <Negative vol penalty>
0.000

$$$$

  -OEChem-04052317383D

 81 89  0     1  0  0  0  0  0999 V2000
  -28.5493  -11.0806   20.7132 C   0  0  0  0  0  0  0  0  0  0  0  0
  -28.8187  -12.3246   20.1516 C   0  0  0  0  0  0  0  0  0  0  0  0
  -25.6815  -27.3229   21.0918 C   0  0  0  0  0  0  0  0  0  0  0  0
  -26.0384  -28.1464   18.8487 C   0  0  0  0  0  0  0  0  0  0  0  0
  -27.2356  -10.7216   21.0118 C   0  0  0  0  0  0  0  0  0  0  0  0
  -27.7742  -13.2099   19.8872 C   0  0  0  0  0  0  0  0  0  0  0  0
  -28.8254  -17.9448   21.3431 C   0  0  0  0  0  0  0  0  0  0  0  0
  -24.6143  -28.2075   21.2468 C   0  0  0  0  0  0  0  0  0  0  0  0
  -24.9711  -29.0310   19.0036 C   0  0  0  0  0  0  0  0  0  0  0  0
  -29.6607  -18.6947   20.5162 C   0  0  0  0  0  0  0  0  0  0  0  0
  -21.3694  -28.3840   20.3127 C   0  0  0  0  0  0  0  0  0  0  0  0
  -20.1964  -27.8908   20.8840 C   0  0  0  0  0  0  0  0  0  0  0  0
  -27.7320  -19.8036   19.5837 C   0  0  0  0  0  0  0  0  0  0  0  0
  -20.3914  -29.5011   22.6745 C   0  0  0  0  0  0  0  0  0  0  0  0
  -32.1499  -20.9255   16.5897 C   0  0  0  0  0  0  0  0  0  0  0  0
  -26.3937  -27.2924   19.8928 C   0  0  0  0  0  0  0  0  0  0  0  0
  -27.4444  -25.0614   19.2400 C   0  0  0  0  0  0  0  0  0  0  0  0
  -26.1755  -11.6067   20.7598 C   0  0  0  0  0  0  0  0  0  0  0  0
  -27.4341  -18.1113   21.2887 C   0  0  0  0  0  0  0  0  0  0  0  0
  -26.4450  -12.8618   20.1814 C   0  0  0  0  0  0  0  0  0  0  0  0
  -26.8814  -19.0565   20.4128 C   0  0  0  0  0  0  0  0  0  0  0  0
  -24.2591  -29.0616   20.2027 C   0  0  0  0  0  0  0  0  0  0  0  0
  -29.1139  -19.6221   19.6342 C   0  0  0  0  0  0  0  0  0  0  0  0
  -22.0535  -29.4357   20.9223 C   0  0  0  0  0  0  0  0  0  0  0  0
  -19.7074  -28.4494   22.0649 C   0  0  0  0  0  0  0  0  0  0  0  0
  -21.5645  -29.9943   22.1032 C   0  0  0  0  0  0  0  0  0  0  0  0
  -27.4966  -26.3792   19.7323 C   0  0  0  0  0  0  0  0  0  0  0  0
  -32.0524  -21.0388   17.9895 C   0  0  0  0  0  0  0  0  0  0  0  0
  -32.9073  -22.0064   16.2096 C   0  0  0  0  0  0  0  0  0  0  0  0
  -28.7462  -24.6258   19.2863 C   0  0  0  0  0  0  0  0  0  0  0  0
  -26.3198  -24.2992   18.7817 C   0  0  0  0  0  0  0  0  0  0  0  0
  -24.9770  -16.2316   20.5585 C   0  0  0  0  0  0  0  0  0  0  0  0
  -23.2341  -18.7883   21.5323 C   0  0  0  0  0  0  0  0  0  0  0  0
  -23.0718  -22.1584   22.0445 C   0  0  0  0  0  0  0  0  0  0  0  0
  -34.0585  -27.1091   18.4521 C   0  0  0  0  0  0  0  0  0  0  0  0
  -24.7671  -11.1556   21.0558 C   0  0  0  0  0  0  0  0  0  0  0  0
  -26.5484  -17.3138   22.2063 C   0  0  0  0  0  0  0  0  0  0  0  0
  -25.3954  -19.2876   20.3303 C   0  0  0  0  0  0  0  0  0  0  0  0
  -23.7561  -12.2987   21.0912 C   0  0  0  0  0  0  0  0  0  0  0  0
  -32.8050  -25.9796   21.7467 C   0  0  0  0  0  0  0  0  0  0  0  0
  -23.9483  -13.2188   19.8899 C   0  0  0  0  0  0  0  0  0  0  0  0
  -31.2946  -25.9183   21.5253 C   0  0  0  0  0  0  0  0  0  0  0  0
  -33.4685  -27.0178   20.8469 C   0  0  0  0  0  0  0  0  0  0  0  0
  -31.6593  -26.7785   19.1784 C   0  0  0  0  0  0  0  0  0  0  0  0
  -25.3416  -13.8593   19.9028 C   0  0  1  0  0  0  0  0  0  0  0  0
  -25.1137  -17.1983   21.7007 C   0  0  1  0  0  0  0  0  0  0  0  0
  -30.9664  -25.7094   20.0367 C   0  0  2  0  0  0  0  0  0  0  0  0
  -33.3623  -22.4504   14.8794 C   0  0  0  0  0  0  0  0  0  0  0  0
  -21.5035  -23.9611   22.8116 C   0  0  0  0  0  0  0  0  0  0  0  0
  -21.7767  -18.6564   18.8548 C   0  0  0  0  0  0  0  0  0  0  0  0
  -20.9372  -20.9770   19.2765 C   0  0  0  0  0  0  0  0  0  0  0  0
  -20.3047  -19.1238   20.8218 C   0  0  0  0  0  0  0  0  0  0  0  0
  -34.9713  -26.6100   16.2166 C   0  0  0  0  0  0  0  0  0  0  0  0
  -24.8366  -22.8934   24.3037 C   0  0  0  0  0  0  0  0  0  0  0  0
  -31.3307  -20.1221   18.9330 C   0  0  0  0  0  0  0  0  0  1  0  0
  -33.9868  -23.8842   17.4835 C   0  0  0  0  0  0  0  0  0  0  0  0
  -33.2035  -25.1406   17.1118 C   0  0  0  0  0  0  0  0  0  0  0  0
  -22.6699  -20.0163   20.8595 C   0  0  1  0  0  0  0  0  0  0  0  0
  -22.5841  -22.9751   23.2275 C   0  0  2  0  0  0  0  0  0  0  0  0
  -21.4500  -19.6879   19.9531 C   0  0  0  0  0  0  0  0  0  0  0  0
  -28.7335  -26.7561   20.0669 N   0  0  0  0  0  0  0  0  0  0  0  0
  -32.6966  -22.1072   18.4664 N   0  0  0  0  0  0  0  0  0  0  0  0
  -33.2061  -22.6752   17.3601 N   0  0  0  0  0  0  0  0  0  0  0  0
  -29.4707  -25.6684   19.7844 N   0  0  0  0  0  0  0  0  0  0  0  0
  -24.5708  -18.4790   21.2434 N   0  0  0  0  0  0  0  0  0  0  0  0
  -33.1053  -26.8222   19.4430 N   0  0  0  0  0  0  0  0  0  0  0  0
  -29.3303  -23.4564   18.9492 N   0  0  0  0  0  0  0  0  0  0  0  0
  -25.0534  -24.8992   18.8013 N   0  0  0  0  0  0  0  0  0  0  0  0
  -25.3891  -14.9468   20.8565 N   0  0  0  0  0  0  0  0  0  0  0  0
  -22.3826  -20.9701   21.9254 N   0  0  0  0  0  0  0  0  0  0  0  0
  -33.9973  -26.3574   17.2689 N   0  0  0  0  0  0  0  0  0  0  0  0
  -23.7125  -23.7407   23.8289 N   0  3  0  0  0  0  0  0  0  0  0  0
  -26.4322  -23.1153   18.3826 O   0  0  0  0  0  0  0  0  0  0  0  0
  -24.5292  -16.6222   19.4867 O   0  0  0  0  0  0  0  0  0  0  0  0
  -22.5174  -18.1317   22.2918 O   0  0  0  0  0  0  0  0  0  0  0  0
  -23.9713  -22.5385   21.2982 O   0  0  0  0  0  0  0  0  0  0  0  0
  -34.9213  -27.9806   18.6195 O   0  0  0  0  0  0  0  0  0  0  0  0
  -23.2175  -29.9247   20.3535 O   0  0  0  0  0  0  0  0  0  0  0  0
  -29.9269  -20.3548   18.8255 O   0  0  0  0  0  0  0  0  0  1  0  0
  -18.5801  -27.9767   22.6126 F   0  0  0  0  0  0  0  0  0  0  0  0
  -22.2167  -31.0056   22.6929 F   0  0  0  0  0  0  0  0  0  0  0  0
  1  2  1  0  0  0  0
  1  5  2  0  0  0  0
  2  6  2  0  0  0  0
  3  8  2  0  0  0  0
  3 16  1  0  0  0  0
  4  9  1  0  0  0  0
  4 16  2  0  0  0  0
  5 18  1  0  0  0  0
  6 20  1  0  0  0  0
  7 10  2  0  0  0  0
  7 19  1  0  0  0  0
  8 22  1  0  0  0  0
  9 22  2  0  0  0  0
 10 23  1  0  0  0  0
 11 12  2  0  0  0  0
 11 24  1  0  0  0  0
 12 25  1  0  0  0  0
 13 21  1  0  0  0  0
 13 23  2  0  0  0  0
 14 25  2  0  0  0  0
 14 26  1  0  0  0  0
 15 28  1  0  0  0  0
 15 29  2  0  0  0  0
 16 27  1  0  0  0  0
 17 27  1  0  0  0  0
 17 30  2  0  0  0  0
 17 31  1  0  0  0  0
 18 20  2  0  0  0  0
 18 36  1  0  0  0  0
 19 21  2  0  0  0  0
 19 37  1  0  0  0  0
 20 45  1  0  0  0  0
 21 38  1  0  0  0  0
 22 78  1  0  0  0  0
 23 79  1  0  0  0  0
 24 26  2  0  0  0  0
 24 78  1  0  0  0  0
 25 80  1  0  0  0  0
 26 81  1  0  0  0  0
 27 61  2  0  0  0  0
 28 55  1  0  0  0  0
 28 62  2  0  0  0  0
 29 48  1  0  0  0  0
 29 63  1  0  0  0  0
 30 64  1  0  0  0  0
 30 67  1  0  0  0  0
 31 68  1  0  0  0  0
 31 73  2  0  0  0  0
 32 46  1  0  0  0  0
 32 69  1  0  0  0  0
 32 74  2  0  0  0  0
 33 58  1  0  0  0  0
 33 65  1  0  0  0  0
 33 75  2  0  0  0  0
 34 59  1  0  0  0  0
 34 70  1  0  0  0  0
 34 76  2  0  0  0  0
 35 66  1  0  0  0  0
 35 71  1  0  0  0  0
 35 77  2  0  0  0  0
 36 39  1  0  0  0  0
 37 46  1  0  0  0  0
 38 65  1  0  0  0  0
 39 41  1  0  0  0  0
 40 42  1  0  0  0  0
 40 43  1  0  0  0  0
 41 45  1  0  0  0  0
 42 47  1  0  0  0  0
 43 66  1  0  0  0  0
 44 47  1  0  0  0  0
 44 66  1  0  0  0  0
 45 69  1  0  0  0  0
 46 65  1  0  0  0  0
 47 64  1  0  0  0  0
 49 59  1  0  0  0  0
 50 60  1  0  0  0  0
 51 60  1  0  0  0  0
 52 60  1  0  0  0  0
 53 71  1  0  0  0  0
 54 72  1  0  0  0  0
 55 79  1  0  0  0  0
 56 57  1  0  0  0  0
 56 63  1  0  0  0  0
 57 71  1  0  0  0  0
 58 60  1  0  0  0  0
 58 70  1  0  0  0  0
 59 72  1  0  0  0  0
 61 64  1  0  0  0  0
 62 63  1  0  0  0  0
M  CHG  1  72   1
M  ISO  4  35 100  55 101  71 100  79 101
M  END
> <Batch ID>
0053

> <Smiles>
CNC(C)C(=O)NC(C(=O)N1Cc2cc([101O:1][101CH2:1]c3cc(C)n(CC[100N:0](C)[100C:0](=O)N4CCCC(n5nc(-c6ccc(Oc7ccc(F)cc7F)cc6)c(C(N)=O)c5N)C4)n3)ccc2CC1C(=O)NC1CCCc2ccccc21)C(C)(C)C

> <Shape>
0.206

> <Color>
0.083

> <Negative vol penalty>
0.000

$$$$

  -OEChem-04052317383D

 84 92  0     1  0  0  0  0  0999 V2000
  -25.1970  -31.3452   16.1212 C   0  0  0  0  0  0  0  0  0  0  0  0
  -25.5035  -29.9944   15.9913 C   0  0  0  0  0  0  0  0  0  0  0  0
  -23.1541   -9.7174   20.0415 C   0  0  0  0  0  0  0  0  0  0  0  0
  -23.8684   -9.9105   22.3414 C   0  0  0  0  0  0  0  0  0  0  0  0
  -25.7534  -32.0881   17.1616 C   0  0  0  0  0  0  0  0  0  0  0  0
  -26.3674  -29.3860   16.9011 C   0  0  0  0  0  0  0  0  0  0  0  0
  -24.6695  -24.8840   18.4804 C   0  0  0  0  0  0  0  0  0  0  0  0
  -22.4514   -8.5546   20.3574 C   0  0  0  0  0  0  0  0  0  0  0  0
  -23.1657   -8.7477   22.6573 C   0  0  0  0  0  0  0  0  0  0  0  0
  -24.8314  -23.8031   17.6148 C   0  0  0  0  0  0  0  0  0  0  0  0
  -21.2643   -6.0292   24.1448 C   0  0  0  0  0  0  0  0  0  0  0  0
  -20.4877   -6.0345   25.3034 C   0  0  0  0  0  0  0  0  0  0  0  0
  -26.7683  -23.0977   18.8678 C   0  0  0  0  0  0  0  0  0  0  0  0
  -19.1824   -7.8657   24.4203 C   0  0  0  0  0  0  0  0  0  0  0  0
  -29.5438  -17.2842   19.4710 C   0  0  0  0  0  0  0  0  0  0  0  0
  -28.0275  -17.4493   21.0617 C   0  0  0  0  0  0  0  0  0  0  0  0
  -23.8627  -10.3953   21.0336 C   0  0  0  0  0  0  0  0  0  0  0  0
  -24.1073  -12.9183   20.7467 C   0  0  0  0  0  0  0  0  0  0  0  0
  -26.6170  -31.4862   18.0903 C   0  0  0  0  0  0  0  0  0  0  0  0
  -25.5637  -25.0864   19.5414 C   0  0  0  0  0  0  0  0  0  0  0  0
  -26.9369  -30.1219   17.9541 C   0  0  0  0  0  0  0  0  0  0  0  0
  -26.6140  -24.1805   19.7469 C   0  0  0  0  0  0  0  0  0  0  0  0
  -22.4572   -8.0698   21.6653 C   0  0  0  0  0  0  0  0  0  0  0  0
  -25.8826  -22.9114   17.8067 C   0  0  0  0  0  0  0  0  0  0  0  0
  -21.0000   -6.9423   23.1239 C   0  0  0  0  0  0  0  0  0  0  0  0
  -19.4467   -6.9527   25.4412 C   0  0  0  0  0  0  0  0  0  0  0  0
  -19.9590   -7.8605   23.2616 C   0  0  0  0  0  0  0  0  0  0  0  0
  -24.5892  -11.5962   20.7078 C   0  0  0  0  0  0  0  0  0  0  0  0
  -28.5357  -18.1498   19.1171 C   0  0  0  0  0  0  0  0  0  0  0  0
  -25.1760  -13.6851   20.3512 C   0  0  0  0  0  0  0  0  0  0  0  0
  -22.8096  -13.4094   21.1080 C   0  0  0  0  0  0  0  0  0  0  0  0
  -27.6011  -27.3883   20.3498 C   0  0  0  0  0  0  0  0  0  0  0  0
  -30.6323  -14.8772   20.6626 C   0  0  0  0  0  0  0  0  0  0  0  0
  -27.9433  -25.6053   23.0380 C   0  0  0  0  0  0  0  0  0  0  0  0
  -27.7049  -22.5487   24.5371 C   0  0  0  0  0  0  0  0  0  0  0  0
  -27.2312  -32.3411   19.1704 C   0  0  0  0  0  0  0  0  0  0  0  0
  -25.3596  -26.2421   20.4822 C   0  0  0  0  0  0  0  0  0  0  0  0
  -27.5895  -24.3417   20.8831 C   0  0  0  0  0  0  0  0  0  0  0  0
  -27.8424  -31.5335   20.3126 C   0  0  0  0  0  0  0  0  0  0  0  0
  -29.6073  -12.3717   18.3148 C   0  0  0  0  0  0  0  0  0  0  0  0
  -28.6964  -30.3948   19.7639 C   0  0  0  0  0  0  0  0  0  0  0  0
  -28.1819  -12.0337   18.7500 C   0  0  0  0  0  0  0  0  0  0  0  0
  -30.4956  -12.6923   19.5128 C   0  0  0  0  0  0  0  0  0  0  0  0
  -28.5381  -13.4424   20.8269 C   0  0  0  0  0  0  0  0  0  0  0  0
  -27.8504  -29.4203   18.9357 C   0  0  1  0  0  0  0  0  0  0  0  0
  -26.6321  -26.6419   21.2225 C   0  0  1  0  0  0  0  0  0  0  0  0
  -27.5996  -13.1421   19.6447 C   0  0  2  0  0  0  0  0  0  0  0  0
  -30.9699  -16.5931   22.4281 C   0  0  0  0  0  0  0  0  0  0  0  0
  -28.0890  -21.3963   26.7329 C   0  0  0  0  0  0  0  0  0  0  0  0
  -30.9509  -25.6360   22.5251 C   0  0  0  0  0  0  0  0  0  0  0  0
  -31.1754  -23.7370   24.1412 C   0  0  0  0  0  0  0  0  0  0  0  0
  -30.2980  -25.9384   24.9202 C   0  0  0  0  0  0  0  0  0  0  0  0
  -24.8537  -21.7901   24.7698 C   0  0  0  0  0  0  0  0  0  0  0  0
  -24.1076  -18.8268   18.1006 C   0  0  0  0  0  0  0  0  0  0  0  0
  -28.3866  -18.9357   17.8389 C   0  0  0  0  0  0  0  0  0  0  0  0
  -27.6101  -18.1956   16.7418 C   0  0  0  0  0  0  0  0  0  0  0  0
  -26.1614  -17.8571   17.0796 C   0  0  0  0  0  0  0  0  0  0  0  0
  -25.0811  -19.8502   16.0495 C   0  0  0  0  0  0  0  0  0  0  0  0
  -24.8650  -21.3172   16.3648 C   0  0  0  0  0  0  0  0  0  1  0  0
  -29.9475  -15.9066   21.5258 C   0  0  1  0  0  0  0  0  0  0  0  0
  -28.8454  -24.4712   23.4610 C   0  0  1  0  0  0  0  0  0  0  0  0
  -27.0808  -22.1177   25.8521 C   0  0  2  0  0  0  0  0  0  0  0  0
  -30.3004  -24.9434   23.7392 C   0  0  0  0  0  0  0  0  0  0  0  0
  -27.5952  -18.2484   20.1117 N   0  0  0  0  0  0  0  0  0  0  0  0
  -25.8648  -11.5236   20.3182 N   0  0  0  0  0  0  0  0  0  0  0  0
  -29.2046  -16.8439   20.7193 N   0  0  0  0  0  0  0  0  0  0  0  0
  -26.1934  -12.8097   20.1086 N   0  0  0  0  0  0  0  0  0  0  0  0
  -27.3516  -25.4910   21.7721 N   0  0  0  0  0  0  0  0  0  0  0  0
  -29.8971  -13.7337   20.3498 N   0  0  0  0  0  0  0  0  0  0  0  0
  -25.3353  -15.0160   20.1908 N   0  0  0  0  0  0  0  0  0  0  0  0
  -21.8278  -12.4849   21.4898 N   0  0  0  0  0  0  0  0  0  0  0  0
  -27.0876  -28.5493   19.8040 N   0  0  0  0  0  0  0  0  0  0  0  0
  -28.1948  -23.8360   24.6019 N   0  0  0  0  0  0  0  0  0  0  0  0
  -25.9323  -21.2009   25.6045 N   0  3  0  0  0  0  0  0  0  0  0  0
  -25.3591  -19.1142   17.3086 N   0  3  1  0  0  0  0  0  0  0  0  0
  -22.5241  -14.6305   21.0770 O   0  0  0  0  0  0  0  0  0  0  0  0
  -28.7315  -26.9446   20.1852 O   0  0  0  0  0  0  0  0  0  0  0  0
  -31.7853  -15.0862   20.2764 O   0  0  0  0  0  0  0  0  0  0  0  0
  -27.7644  -26.5543   23.8056 O   0  0  0  0  0  0  0  0  0  0  0  0
  -27.7561  -21.8155   23.5521 O   0  0  0  0  0  0  0  0  0  0  0  0
  -21.7714   -6.9353   21.9739 O   0  0  0  0  0  0  0  0  0  0  0  0
  -26.0433  -21.8558   16.9630 O   0  0  0  0  0  0  0  0  0  1  0  0
  -18.7001   -6.9566   26.5532 F   0  0  0  0  0  0  0  0  0  0  0  0
  -19.6996   -8.7393   22.2838 F   0  0  0  0  0  0  0  0  0  0  0  0
  1  2  1  0  0  0  0
  1  5  2  0  0  0  0
  2  6  2  0  0  0  0
  3  8  2  0  0  0  0
  3 17  1  0  0  0  0
  4  9  1  0  0  0  0
  4 17  2  0  0  0  0
  5 19  1  0  0  0  0
  6 21  1  0  0  0  0
  7 10  2  0  0  0  0
  7 20  1  0  0  0  0
  8 23  1  0  0  0  0
  9 23  2  0  0  0  0
 10 24  1  0  0  0  0
 11 12  2  0  0  0  0
 11 25  1  0  0  0  0
 12 26  1  0  0  0  0
 13 22  1  0  0  0  0
 13 24  2  0  0  0  0
 14 26  2  0  0  0  0
 14 27  1  0  0  0  0
 15 29  2  0  0  0  0
 15 66  1  0  0  0  0
 16 64  2  0  0  0  0
 16 66  1  0  0  0  0
 17 28  1  0  0  0  0
 18 28  1  0  0  0  0
 18 30  2  0  0  0  0
 18 31  1  0  0  0  0
 19 21  2  0  0  0  0
 19 36  1  0  0  0  0
 20 22  2  0  0  0  0
 20 37  1  0  0  0  0
 21 45  1  0  0  0  0
 22 38  1  0  0  0  0
 23 81  1  0  0  0  0
 24 82  1  0  0  0  0
 25 27  2  0  0  0  0
 25 81  1  0  0  0  0
 26 83  1  0  0  0  0
 27 84  1  0  0  0  0
 28 65  2  0  0  0  0
 29 55  1  0  0  0  0
 29 64  1  0  0  0  0
 30 67  1  0  0  0  0
 30 70  1  0  0  0  0
 31 71  1  0  0  0  0
 31 76  2  0  0  0  0
 32 46  1  0  0  0  0
 32 72  1  0  0  0  0
 32 77  2  0  0  0  0
 33 60  1  0  0  0  0
 33 69  1  0  0  0  0
 33 78  2  0  0  0  0
 34 61  1  0  0  0  0
 34 68  1  0  0  0  0
 34 79  2  0  0  0  0
 35 62  1  0  0  0  0
 35 73  1  0  0  0  0
 35 80  2  0  0  0  0
 36 39  1  0  0  0  0
 37 46  1  0  0  0  0
 38 68  1  0  0  0  0
 39 41  1  0  0  0  0
 40 42  1  0  0  0  0
 40 43  1  0  0  0  0
 41 45  1  0  0  0  0
 42 47  1  0  0  0  0
 43 69  1  0  0  0  0
 44 47  1  0  0  0  0
 44 69  1  0  0  0  0
 45 72  1  0  0  0  0
 46 68  1  0  0  0  0
 47 67  1  0  0  0  0
 48 60  1  0  0  0  0
 49 62  1  0  0  0  0
 50 63  1  0  0  0  0
 51 63  1  0  0  0  0
 52 63  1  0  0  0  0
 53 74  1  0  0  0  0
 54 75  1  0  0  0  0
 55 56  1  0  0  0  0
 56 57  1  0  0  0  0
 57 75  1  0  0  0  0
 58 59  1  0  0  0  0
 58 75  1  0  0  0  0
 59 82  1  0  0  0  0
 60 66  1  0  0  0  0
 61 63  1  0  0  0  0
 61 73  1  0  0  0  0
 62 74  1  0  0  0  0
 65 67  1  0  0  0  0
M  CHG  2  74   1  75   1
M  ISO  4  33 100  59 101  60 100  82 101
M  END
> <Batch ID>
0053

> <Smiles>
CNC(C)C(=O)NC(C(=O)N1Cc2cc([101O:1][101CH2:1]CN(C)CCCc3cn([100CH:0](C)[100C:0](=O)N4CCCC(n5nc(-c6ccc(Oc7ccc(F)cc7F)cc6)c(C(N)=O)c5N)C4)cn3)ccc2CC1C(=O)NC1CCCc2ccccc21)C(C)(C)C

> <Shape>
0.222

> <Color>
0.200

> <Negative vol penalty>
0.000

$$$$

  -OEChem-04052317383D

 84 92  0     1  0  0  0  0  0999 V2000
  -27.4863  -32.6588   27.4081 C   0  0  0  0  0  0  0  0  0  0  0  0
  -27.7253  -31.6022   26.5352 C   0  0  0  0  0  0  0  0  0  0  0  0
  -25.6182  -14.9636   21.8463 C   0  0  0  0  0  0  0  0  0  0  0  0
  -27.8765  -14.5216   21.1102 C   0  0  0  0  0  0  0  0  0  0  0  0
  -26.1771  -33.0496   27.6859 C   0  0  0  0  0  0  0  0  0  0  0  0
  -26.6550  -30.9350   25.9404 C   0  0  0  0  0  0  0  0  0  0  0  0
  -27.3827  -30.1152   20.9964 C   0  0  0  0  0  0  0  0  0  0  0  0
  -25.2405  -13.6778   21.4595 C   0  0  0  0  0  0  0  0  0  0  0  0
  -27.4988  -13.2358   20.7234 C   0  0  0  0  0  0  0  0  0  0  0  0
  -28.2259  -29.0628   20.6428 C   0  0  0  0  0  0  0  0  0  0  0  0
  -25.5007  -10.5334   22.6752 C   0  0  0  0  0  0  0  0  0  0  0  0
  -24.7116   -9.7964   23.5582 C   0  0  0  0  0  0  0  0  0  0  0  0
  -26.3014  -27.6734   20.2126 C   0  0  0  0  0  0  0  0  0  0  0  0
  -22.9763   -9.6481   21.8837 C   0  0  0  0  0  0  0  0  0  0  0  0
  -30.8163  -24.6565   20.2377 C   0  0  0  0  0  0  0  0  0  0  0  0
  -26.9362  -15.3855   21.6716 C   0  0  0  0  0  0  0  0  0  0  0  0
  -27.8156  -17.1145   23.3284 C   0  0  0  0  0  0  0  0  0  0  0  0
  -25.0905  -32.3931   27.0867 C   0  0  0  0  0  0  0  0  0  0  0  0
  -25.9903  -29.9510   20.9711 C   0  0  0  0  0  0  0  0  0  0  0  0
  -25.3300  -31.3165   26.2115 C   0  0  0  0  0  0  0  0  0  0  0  0
  -25.4427  -28.7261   20.5638 C   0  0  0  0  0  0  0  0  0  0  0  0
  -30.6397  -25.8182   19.5266 C   0  0  0  0  0  0  0  0  0  0  0  0
  -26.1807  -12.8139   20.8981 C   0  0  0  0  0  0  0  0  0  0  0  0
  -27.6854  -27.8407   20.2536 C   0  0  0  0  0  0  0  0  0  0  0  0
  -25.0276  -10.8279   21.3964 C   0  0  0  0  0  0  0  0  0  0  0  0
  -23.4494   -9.3537   23.1624 C   0  0  0  0  0  0  0  0  0  0  0  0
  -23.7654  -10.3852   21.0007 C   0  0  0  0  0  0  0  0  0  0  0  0
  -27.3269  -16.7138   22.0705 C   0  0  0  0  0  0  0  0  0  0  0  0
  -31.2933  -25.5840   18.3020 C   0  0  0  0  0  0  0  0  0  0  0  0
  -28.0376  -18.4635   23.1968 C   0  0  0  0  0  0  0  0  0  0  0  0
  -28.0481  -16.3368   24.5103 C   0  0  0  0  0  0  0  0  0  0  0  0
  -23.6763  -30.0818   23.1465 C   0  0  0  0  0  0  0  0  0  0  0  0
  -21.7547  -29.7394   20.5557 C   0  0  0  0  0  0  0  0  0  0  0  0
  -21.3950  -28.6628   17.3373 C   0  0  0  0  0  0  0  0  0  0  0  0
  -28.9394  -21.6910   18.0676 C   0  0  0  0  0  0  0  0  0  0  0  0
  -23.6917  -32.8205   27.4543 C   0  0  0  0  0  0  0  0  0  0  0  0
  -25.0940  -31.1044   21.3298 C   0  0  0  0  0  0  0  0  0  0  0  0
  -23.9542  -28.5049   20.5003 C   0  0  0  0  0  0  0  0  0  0  0  0
  -22.6245  -32.3045   26.4925 C   0  0  0  0  0  0  0  0  0  0  0  0
  -26.5143  -22.3043   20.7960 C   0  0  0  0  0  0  0  0  0  0  0  0
  -22.8397  -30.8226   26.2016 C   0  0  0  0  0  0  0  0  0  0  0  0
  -26.4429  -20.9451   21.4900 C   0  0  0  0  0  0  0  0  0  0  0  0
  -26.8655  -22.1685   19.3176 C   0  0  0  0  0  0  0  0  0  0  0  0
  -28.0412  -20.0380   19.7569 C   0  0  0  0  0  0  0  0  0  0  0  0
  -24.1961  -30.5840   25.5274 C   0  0  1  0  0  0  0  0  0  0  0  0
  -23.6985  -30.6648   21.7619 C   0  0  1  0  0  0  0  0  0  0  0  0
  -27.7350  -20.1424   21.2586 C   0  0  2  0  0  0  0  0  0  0  0  0
  -30.1358  -26.5935   16.3201 C   0  0  0  0  0  0  0  0  0  0  0  0
  -19.6971  -28.4833   15.4982 C   0  0  0  0  0  0  0  0  0  0  0  0
  -30.6720  -19.4345   16.8567 C   0  0  0  0  0  0  0  0  0  0  0  0
  -31.2399  -21.7331   16.0097 C   0  0  0  0  0  0  0  0  0  0  0  0
  -20.4629  -27.3720   21.9828 C   0  0  0  0  0  0  0  0  0  0  0  0
  -19.4856  -26.6710   19.7869 C   0  0  0  0  0  0  0  0  0  0  0  0
  -18.8582  -28.8697   20.7843 C   0  0  0  0  0  0  0  0  0  0  0  0
  -22.9875  -30.3931   15.5403 C   0  0  0  0  0  0  0  0  0  0  0  0
  -29.9113  -27.0534   19.9682 C   0  0  0  0  0  0  0  0  0  1  0  0
  -31.4185  -26.5008   17.1553 C   0  0  0  0  0  0  0  0  0  0  0  0
  -31.9709  -22.4888   19.7402 C   0  0  0  0  0  0  0  0  0  0  0  0
  -30.8584  -21.4534   19.5974 C   0  0  0  0  0  0  0  0  0  0  0  0
  -21.1697  -28.5670   19.8060 C   0  0  1  0  0  0  0  0  0  0  0  0
  -20.7996  -29.3322   16.1118 C   0  0  2  0  0  0  0  0  0  0  0  0
  -31.1656  -20.8263   17.2314 C   0  0  0  0  0  0  0  0  0  0  0  0
  -20.0222  -27.8732   20.5930 C   0  0  0  0  0  0  0  0  0  0  0  0
  -27.2430  -17.7264   21.2035 N   0  0  0  0  0  0  0  0  0  0  0  0
  -31.8442  -24.3691   18.2355 N   0  0  0  0  0  0  0  0  0  0  0  0
  -31.5372  -23.8294   19.4275 N   0  0  0  0  0  0  0  0  0  0  0  0
  -27.6819  -18.7768   21.9179 N   0  0  0  0  0  0  0  0  0  0  0  0
  -23.1196  -29.6610   20.8666 N   0  0  0  0  0  0  0  0  0  0  0  0
  -28.0731  -21.3651   19.1240 N   0  0  0  0  0  0  0  0  0  0  0  0
  -28.5003  -19.4005   24.0514 N   0  0  0  0  0  0  0  0  0  0  0  0
  -27.7666  -14.9643   24.4731 N   0  0  0  0  0  0  0  0  0  0  0  0
  -24.1341  -30.9418   24.1264 N   0  0  0  0  0  0  0  0  0  0  0  0
  -20.7741  -29.0757   18.4971 N   0  0  0  0  0  0  0  0  0  0  0  0
  -30.3035  -21.4187   18.2518 N   0  0  0  0  0  0  0  0  0  0  0  0
  -21.8518  -29.5534   15.0798 N   0  3  0  0  0  0  0  0  0  0  0  0
  -28.4769  -16.8469   25.5730 O   0  0  0  0  0  0  0  0  0  0  0  0
  -23.2724  -28.9370   23.3137 O   0  0  0  0  0  0  0  0  0  0  0  0
  -21.0289  -30.6931   20.8483 O   0  0  0  0  0  0  0  0  0  0  0  0
  -22.3161  -27.8517   17.2719 O   0  0  0  0  0  0  0  0  0  0  0  0
  -28.5189  -22.2053   17.0232 O   0  0  0  0  0  0  0  0  0  0  0  0
  -25.8125  -11.5591   20.5207 O   0  0  0  0  0  0  0  0  0  0  0  0
  -28.5062  -26.8116   19.9086 O   0  0  0  0  0  0  0  0  0  1  0  0
  -22.6924   -8.6446   24.0099 F   0  0  0  0  0  0  0  0  0  0  0  0
  -23.3060  -10.6640   19.7731 F   0  0  0  0  0  0  0  0  0  0  0  0
  1  2  1  0  0  0  0
  1  5  2  0  0  0  0
  2  6  2  0  0  0  0
  3  8  2  0  0  0  0
  3 16  1  0  0  0  0
  4  9  1  0  0  0  0
  4 16  2  0  0  0  0
  5 18  1  0  0  0  0
  6 20  1  0  0  0  0
  7 10  2  0  0  0  0
  7 19  1  0  0  0  0
  8 23  1  0  0  0  0
  9 23  2  0  0  0  0
 10 24  1  0  0  0  0
 11 12  2  0  0  0  0
 11 25  1  0  0  0  0
 12 26  1  0  0  0  0
 13 21  1  0  0  0  0
 13 24  2  0  0  0  0
 14 26  2  0  0  0  0
 14 27  1  0  0  0  0
 15 22  2  0  0  0  0
 15 66  1  0  0  0  0
 16 28  1  0  0  0  0
 17 28  1  0  0  0  0
 17 30  2  0  0  0  0
 17 31  1  0  0  0  0
 18 20  2  0  0  0  0
 18 36  1  0  0  0  0
 19 21  2  0  0  0  0
 19 37  1  0  0  0  0
 20 45  1  0  0  0  0
 21 38  1  0  0  0  0
 22 29  1  0  0  0  0
 22 56  1  0  0  0  0
 23 81  1  0  0  0  0
 24 82  1  0  0  0  0
 25 27  2  0  0  0  0
 25 81  1  0  0  0  0
 26 83  1  0  0  0  0
 27 84  1  0  0  0  0
 28 64  2  0  0  0  0
 29 57  1  0  0  0  0
 29 65  2  0  0  0  0
 30 67  1  0  0  0  0
 30 70  1  0  0  0  0
 31 71  1  0  0  0  0
 31 76  2  0  0  0  0
 32 46  1  0  0  0  0
 32 72  1  0  0  0  0
 32 77  2  0  0  0  0
 33 60  1  0  0  0  0
 33 68  1  0  0  0  0
 33 78  2  0  0  0  0
 34 61  1  0  0  0  0
 34 73  1  0  0  0  0
 34 79  2  0  0  0  0
 35 69  1  0  0  0  0
 35 74  1  0  0  0  0
 35 80  2  0  0  0  0
 36 39  1  0  0  0  0
 37 46  1  0  0  0  0
 38 68  1  0  0  0  0
 39 41  1  0  0  0  0
 40 42  1  0  0  0  0
 40 43  1  0  0  0  0
 41 45  1  0  0  0  0
 42 47  1  0  0  0  0
 43 69  1  0  0  0  0
 44 47  1  0  0  0  0
 44 69  1  0  0  0  0
 45 72  1  0  0  0  0
 46 68  1  0  0  0  0
 47 67  1  0  0  0  0
 48 57  1  0  0  0  0
 49 61  1  0  0  0  0
 50 62  1  0  0  0  0
 51 62  1  0  0  0  0
 52 63  1  0  0  0  0
 53 63  1  0  0  0  0
 54 63  1  0  0  0  0
 55 75  1  0  0  0  0
 56 82  1  0  0  0  0
 58 59  1  0  0  0  0
 58 66  1  0  0  0  0
 59 74  1  0  0  0  0
 60 63  1  0  0  0  0
 60 73  1  0  0  0  0
 61 75  1  0  0  0  0
 62 74  1  0  0  0  0
 64 67  1  0  0  0  0
 65 66  1  0  0  0  0
M  CHG  1  75   1
M  ISO  4  35 100  56 101  74 100  82 101
M  END
> <Batch ID>
0053

> <Smiles>
CCc1nn(CC[100N:0](C(C)C)[100C:0](=O)N2CCCC(n3nc(-c4ccc(Oc5ccc(F)cc5F)cc4)c(C(N)=O)c3N)C2)cc1[101CH2:1][101O:1]c1ccc2c(c1)CN(C(=O)C(NC(=O)C(C)NC)C(C)(C)C)C(C(=O)NC1CCCc3ccccc31)C2

> <Shape>
0.259

> <Color>
0.080

> <Negative vol penalty>
0.000

$$$$

  -OEChem-04052317383D

 81 89  0     1  0  0  0  0  0999 V2000
  -29.2361  -21.4539   35.5570 C   0  0  0  0  0  0  0  0  0  0  0  0
  -29.0931  -20.1402   35.1221 C   0  0  0  0  0  0  0  0  0  0  0  0
  -23.1882   -9.8186   19.9319 C   0  0  0  0  0  0  0  0  0  0  0  0
  -23.5650   -9.9994   22.3115 C   0  0  0  0  0  0  0  0  0  0  0  0
  -28.7582  -22.5027   34.7725 C   0  0  0  0  0  0  0  0  0  0  0  0
  -28.4710  -19.8745   33.9027 C   0  0  0  0  0  0  0  0  0  0  0  0
  -29.8379  -15.3791   29.9748 C   0  0  0  0  0  0  0  0  0  0  0  0
  -22.4207   -8.6728   20.1405 C   0  0  0  0  0  0  0  0  0  0  0  0
  -22.7975   -8.8536   22.5201 C   0  0  0  0  0  0  0  0  0  0  0  0
  -29.2721  -14.1246   29.7511 C   0  0  0  0  0  0  0  0  0  0  0  0
  -23.1956   -5.5064   22.2574 C   0  0  0  0  0  0  0  0  0  0  0  0
  -23.6924   -4.5449   23.1372 C   0  0  0  0  0  0  0  0  0  0  0  0
  -27.9527  -15.0467   27.9544 C   0  0  0  0  0  0  0  0  0  0  0  0
  -21.7351   -4.8072   24.5291 C   0  0  0  0  0  0  0  0  0  0  0  0
  -29.4961  -10.7027   25.7846 C   0  0  0  0  0  0  0  0  0  0  0  0
  -27.3221  -11.0094   25.5942 C   0  0  0  0  0  0  0  0  0  0  0  0
  -23.7604  -10.4820   21.0174 C   0  0  0  0  0  0  0  0  0  0  0  0
  -24.1017  -12.9982   20.7731 C   0  0  0  0  0  0  0  0  0  0  0  0
  -28.1385  -22.2503   33.5384 C   0  0  0  0  0  0  0  0  0  0  0  0
  -29.4566  -16.4810   29.1957 C   0  0  0  0  0  0  0  0  0  0  0  0
  -27.9831  -20.9208   33.1016 C   0  0  0  0  0  0  0  0  0  0  0  0
  -28.5170  -16.3135   28.1684 C   0  0  0  0  0  0  0  0  0  0  0  0
  -22.2253   -8.1902   21.4345 C   0  0  0  0  0  0  0  0  0  0  0  0
  -28.3273  -13.9589   28.7427 C   0  0  0  0  0  0  0  0  0  0  0  0
  -21.9685   -6.1184   22.5134 C   0  0  0  0  0  0  0  0  0  0  0  0
  -22.9622   -4.1953   24.2731 C   0  0  0  0  0  0  0  0  0  0  0  0
  -21.2383   -5.7688   23.6492 C   0  0  0  0  0  0  0  0  0  0  0  0
  -24.5538  -11.6654   20.8025 C   0  0  0  0  0  0  0  0  0  0  0  0
  -29.1430  -11.0108   24.4920 C   0  0  0  0  0  0  0  0  0  0  0  0
  -25.2337  -13.7397   20.5383 C   0  0  0  0  0  0  0  0  0  0  0  0
  -22.7768  -13.5194   20.9428 C   0  0  0  0  0  0  0  0  0  0  0  0
  -28.0700  -19.2782   29.7930 C   0  0  0  0  0  0  0  0  0  0  0  0
  -28.7091  -19.8228   26.6597 C   0  0  0  0  0  0  0  0  0  0  0  0
  -31.0470  -12.6253   21.5754 C   0  0  0  0  0  0  0  0  0  0  0  0
  -29.3196  -18.5313   23.5603 C   0  0  0  0  0  0  0  0  0  0  0  0
  -27.5955  -23.4139   32.7473 C   0  0  0  0  0  0  0  0  0  0  0  0
  -30.0960  -17.8218   29.4320 C   0  0  0  0  0  0  0  0  0  0  0  0
  -28.0887  -17.4601   27.2908 C   0  0  0  0  0  0  0  0  0  0  0  0
  -27.2836  -23.0693   31.2933 C   0  0  0  0  0  0  0  0  0  0  0  0
  -29.5214  -13.4824   18.4484 C   0  0  0  0  0  0  0  0  0  0  0  0
  -26.5108  -21.7568   31.2097 C   0  0  0  0  0  0  0  0  0  0  0  0
  -28.0371  -13.2076   18.6859 C   0  0  0  0  0  0  0  0  0  0  0  0
  -30.4005  -12.4824   19.1929 C   0  0  0  0  0  0  0  0  0  0  0  0
  -28.6441  -12.1338   20.9003 C   0  0  0  0  0  0  0  0  0  0  0  0
  -27.3361  -20.5937   31.7732 C   0  0  1  0  0  0  0  0  0  0  0  0
  -29.2541  -18.9846   28.9158 C   0  0  1  0  0  0  0  0  0  0  0  0
  -27.7212  -13.1403   20.1906 C   0  0  2  0  0  0  0  0  0  0  0  0
  -29.7663  -19.2248   21.1903 C   0  0  0  0  0  0  0  0  0  0  0  0
  -31.8631  -12.8061   23.8797 C   0  0  0  0  0  0  0  0  0  0  0  0
  -29.5981  -13.6804   23.2847 C   0  0  0  0  0  0  0  0  0  0  0  0
  -25.7558  -20.5024   26.3045 C   0  0  0  0  0  0  0  0  0  0  0  0
  -26.0673  -20.2524   23.8329 C   0  0  0  0  0  0  0  0  0  0  0  0
  -27.3283  -22.0097   25.0757 C   0  0  0  0  0  0  0  0  0  0  0  0
  -31.9692  -17.2128   23.5515 C   0  0  0  0  0  0  0  0  0  0  0  0
  -30.0174  -11.1448   23.3169 C   0  0  0  0  0  0  0  0  0  0  0  0
  -28.1490  -10.4197   27.9512 C   0  0  0  0  0  0  0  0  0  0  0  0
  -28.5760  -11.5951   28.8237 C   0  0  0  0  0  0  0  0  0  1  0  0
  -27.9766  -19.5828   25.3617 C   0  0  1  0  0  0  0  0  0  0  0  0
  -30.3857  -18.8510   22.5280 C   0  0  2  0  0  0  0  0  0  0  0  0
  -30.6133  -12.5625   23.0182 C   0  0  0  0  0  0  0  0  0  0  0  0
  -26.7884  -20.5654   25.1613 C   0  0  0  0  0  0  0  0  0  0  0  0
  -27.7884  -11.2008   24.3801 N   0  0  0  0  0  0  0  0  0  0  0  0
  -25.8704  -11.5630   20.6023 N   0  0  0  0  0  0  0  0  0  0  0  0
  -28.3192  -10.7060   26.4790 N   0  0  0  0  0  0  0  0  0  0  0  0
  -26.2553  -12.8409   20.4448 N   0  0  0  0  0  0  0  0  0  0  0  0
  -28.7379  -18.7527   27.5652 N   0  0  0  0  0  0  0  0  0  0  0  0
  -30.0544  -12.4318   20.6145 N   0  0  0  0  0  0  0  0  0  0  0  0
  -25.4450  -15.0663   20.4048 N   0  0  0  0  0  0  0  0  0  0  0  0
  -21.7291  -12.6182   21.1764 N   0  0  0  0  0  0  0  0  0  0  0  0
  -28.3340  -20.1708   30.8142 N   0  0  0  0  0  0  0  0  0  0  0  0
  -28.9838  -19.6402   24.3079 N   0  0  0  0  0  0  0  0  0  0  0  0
  -31.2759  -17.6739   22.3211 N   0  3  0  0  0  0  0  0  0  0  0  0
  -22.5268  -14.7466   20.8726 O   0  0  0  0  0  0  0  0  0  0  0  0
  -26.9960  -18.7362   29.5596 O   0  0  0  0  0  0  0  0  0  0  0  0
  -29.2425  -20.9170   26.8597 O   0  0  0  0  0  0  0  0  0  0  0  0
  -32.2326  -12.8429   21.3120 O   0  0  0  0  0  0  0  0  0  0  0  0
  -28.8308  -17.4110   23.6881 O   0  0  0  0  0  0  0  0  0  0  0  0
  -21.4762   -7.0723   21.6385 O   0  0  0  0  0  0  0  0  0  0  0  0
  -27.7730  -12.7357   28.5227 O   0  0  0  0  0  0  0  0  0  1  0  0
  -23.4388   -3.2708   25.1171 F   0  0  0  0  0  0  0  0  0  0  0  0
  -20.0583   -6.3524   23.8999 F   0  0  0  0  0  0  0  0  0  0  0  0
  1  2  1  0  0  0  0
  1  5  2  0  0  0  0
  2  6  2  0  0  0  0
  3  8  2  0  0  0  0
  3 17  1  0  0  0  0
  4  9  1  0  0  0  0
  4 17  2  0  0  0  0
  5 19  1  0  0  0  0
  6 21  1  0  0  0  0
  7 10  2  0  0  0  0
  7 20  1  0  0  0  0
  8 23  1  0  0  0  0
  9 23  2  0  0  0  0
 10 24  1  0  0  0  0
 11 12  2  0  0  0  0
 11 25  1  0  0  0  0
 12 26  1  0  0  0  0
 13 22  1  0  0  0  0
 13 24  2  0  0  0  0
 14 26  2  0  0  0  0
 14 27  1  0  0  0  0
 15 29  2  0  0  0  0
 15 64  1  0  0  0  0
 16 62  2  0  0  0  0
 16 64  1  0  0  0  0
 17 28  1  0  0  0  0
 18 28  1  0  0  0  0
 18 30  2  0  0  0  0
 18 31  1  0  0  0  0
 19 21  2  0  0  0  0
 19 36  1  0  0  0  0
 20 22  2  0  0  0  0
 20 37  1  0  0  0  0
 21 45  1  0  0  0  0
 22 38  1  0  0  0  0
 23 78  1  0  0  0  0
 24 79  1  0  0  0  0
 25 27  2  0  0  0  0
 25 78  1  0  0  0  0
 26 80  1  0  0  0  0
 27 81  1  0  0  0  0
 28 63  2  0  0  0  0
 29 55  1  0  0  0  0
 29 62  1  0  0  0  0
 30 65  1  0  0  0  0
 30 68  1  0  0  0  0
 31 69  1  0  0  0  0
 31 73  2  0  0  0  0
 32 46  1  0  0  0  0
 32 70  1  0  0  0  0
 32 74  2  0  0  0  0
 33 58  1  0  0  0  0
 33 66  1  0  0  0  0
 33 75  2  0  0  0  0
 34 60  1  0  0  0  0
 34 67  1  0  0  0  0
 34 76  2  0  0  0  0
 35 59  1  0  0  0  0
 35 71  1  0  0  0  0
 35 77  2  0  0  0  0
 36 39  1  0  0  0  0
 37 46  1  0  0  0  0
 38 66  1  0  0  0  0
 39 41  1  0  0  0  0
 40 42  1  0  0  0  0
 40 43  1  0  0  0  0
 41 45  1  0  0  0  0
 42 47  1  0  0  0  0
 43 67  1  0  0  0  0
 44 47  1  0  0  0  0
 44 67  1  0  0  0  0
 45 70  1  0  0  0  0
 46 66  1  0  0  0  0
 47 65  1  0  0  0  0
 48 59  1  0  0  0  0
 49 60  1  0  0  0  0
 50 60  1  0  0  0  0
 51 61  1  0  0  0  0
 52 61  1  0  0  0  0
 53 61  1  0  0  0  0
 54 72  1  0  0  0  0
 55 60  1  0  0  0  0
 56 57  1  0  0  0  0
 56 64  1  0  0  0  0
 57 79  1  0  0  0  0
 58 61  1  0  0  0  0
 58 71  1  0  0  0  0
 59 72  1  0  0  0  0
 63 65  1  0  0  0  0
M  CHG  1  72   1
M  ISO  4  34 100  57 101  60 100  79 101
M  END
> <Batch ID>
0053

> <Smiles>
CNC(C)C(=O)NC(C(=O)N1Cc2cc([101O:1][101CH2:1]Cn3cnc(C[100C:0](C)(C)[100C:0](=O)N4CCCC(n5nc(-c6ccc(Oc7ccc(F)cc7F)cc6)c(C(N)=O)c5N)C4)c3)ccc2CC1C(=O)NC1CCCc2ccccc21)C(C)(C)C

> <Shape>
0.158

> <Color>
0.182

> <Negative vol penalty>
0.000

$$$$

  -OEChem-04052317383D

 84 92  0     1  0  0  0  0  0999 V2000
  -28.8930  -25.0212   16.5050 C   0  0  0  0  0  0  0  0  0  0  0  0
  -27.7565  -25.0014   17.3071 C   0  0  0  0  0  0  0  0  0  0  0  0
  -25.1867  -13.4578   22.9861 C   0  0  0  0  0  0  0  0  0  0  0  0
  -25.0467  -14.7487   20.9487 C   0  0  0  0  0  0  0  0  0  0  0  0
  -30.0090  -25.7591   16.8974 C   0  0  0  0  0  0  0  0  0  0  0  0
  -27.7357  -25.7187   18.5027 C   0  0  0  0  0  0  0  0  0  0  0  0
  -23.4293  -28.3055   19.1415 C   0  0  0  0  0  0  0  0  0  0  0  0
  -24.2175  -12.5817   22.4976 C   0  0  0  0  0  0  0  0  0  0  0  0
  -24.0775  -13.8725   20.4601 C   0  0  0  0  0  0  0  0  0  0  0  0
  -22.3111  -27.5866   19.5618 C   0  0  0  0  0  0  0  0  0  0  0  0
  -24.0680   -9.9881   20.3333 C   0  0  0  0  0  0  0  0  0  0  0  0
  -24.2952   -8.6203   20.4849 C   0  0  0  0  0  0  0  0  0  0  0  0
  -22.6738  -28.3541   21.8198 C   0  0  0  0  0  0  0  0  0  0  0  0
  -22.2702   -8.4284   21.7887 C   0  0  0  0  0  0  0  0  0  0  0  0
  -22.0926  -24.9565   25.3822 C   0  0  0  0  0  0  0  0  0  0  0  0
  -22.9227  -22.4664   24.8945 C   0  0  0  0  0  0  0  0  0  0  0  0
  -25.6013  -14.5414   22.2116 C   0  0  0  0  0  0  0  0  0  0  0  0
  -27.9972  -15.3468   22.5563 C   0  0  0  0  0  0  0  0  0  0  0  0
  -29.9984  -26.4937   18.0937 C   0  0  0  0  0  0  0  0  0  0  0  0
  -24.1857  -29.0465   20.0607 C   0  0  0  0  0  0  0  0  0  0  0  0
  -28.8530  -26.4661   18.9121 C   0  0  0  0  0  0  0  0  0  0  0  0
  -23.7996  -29.0836   21.4082 C   0  0  0  0  0  0  0  0  0  0  0  0
  -23.6630  -12.7890   21.2346 C   0  0  0  0  0  0  0  0  0  0  0  0
  -21.9348  -27.6085   20.9016 C   0  0  0  0  0  0  0  0  0  0  0  0
  -22.9419  -10.5761   20.9095 C   0  0  0  0  0  0  0  0  0  0  0  0
  -23.3963   -7.8404   21.2125 C   0  0  0  0  0  0  0  0  0  0  0  0
  -22.0431   -9.7963   21.6372 C   0  0  0  0  0  0  0  0  0  0  0  0
  -26.6021  -15.4471   22.7159 C   0  0  0  0  0  0  0  0  0  0  0  0
  -21.3207  -24.0801   24.6516 C   0  0  0  0  0  0  0  0  0  0  0  0
  -23.6950  -23.3429   25.6244 C   0  0  0  0  0  0  0  0  0  0  0  0
  -28.4978  -16.4430   23.2154 C   0  0  0  0  0  0  0  0  0  0  0  0
  -28.7713  -14.3519   21.8733 C   0  0  0  0  0  0  0  0  0  0  0  0
  -27.1919  -28.9472   21.0888 C   0  0  0  0  0  0  0  0  0  0  0  0
  -26.3389  -31.6625   22.6451 C   0  0  0  0  0  0  0  0  0  0  0  0
  -23.8479  -33.5780   23.9763 C   0  0  0  0  0  0  0  0  0  0  0  0
  -26.3731  -21.7044   24.4032 C   0  0  0  0  0  0  0  0  0  0  0  0
  -31.2456  -27.2383   18.4994 C   0  0  0  0  0  0  0  0  0  0  0  0
  -25.3737  -29.8381   19.5867 C   0  0  0  0  0  0  0  0  0  0  0  0
  -24.5662  -29.8800   22.4312 C   0  0  0  0  0  0  0  0  0  0  0  0
  -31.0076  -28.2729   19.5963 C   0  0  0  0  0  0  0  0  0  0  0  0
  -27.5341  -19.4146   26.8282 C   0  0  0  0  0  0  0  0  0  0  0  0
  -30.1636  -27.6768   20.7184 C   0  0  0  0  0  0  0  0  0  0  0  0
  -27.5553  -18.1123   26.0291 C   0  0  0  0  0  0  0  0  0  0  0  0
  -26.3110  -20.2719   26.4974 C   0  0  0  0  0  0  0  0  0  0  0  0
  -26.1658  -19.2413   24.2525 C   0  0  0  0  0  0  0  0  0  0  0  0
  -28.7831  -27.2513   20.2039 C   0  0  1  0  0  0  0  0  0  0  0  0
  -26.3707  -30.1440   20.7002 C   0  0  1  0  0  0  0  0  0  0  0  0
  -27.4156  -18.3892   24.5222 C   0  0  2  0  0  0  0  0  0  0  0  0
  -23.4632  -35.7256   25.2162 C   0  0  0  0  0  0  0  0  0  0  0  0
  -25.5614  -24.7662   23.6650 C   0  0  0  0  0  0  0  0  0  0  0  0
  -26.7844  -25.0823   25.8393 C   0  0  0  0  0  0  0  0  0  0  0  0
  -27.3412  -30.3561   25.2139 C   0  0  0  0  0  0  0  0  0  0  0  0
  -26.0898  -32.0978   26.5055 C   0  0  0  0  0  0  0  0  0  0  0  0
  -27.9372  -32.7728   24.9712 C   0  0  0  0  0  0  0  0  0  0  0  0
  -22.1806  -34.6759   21.7915 C   0  0  0  0  0  0  0  0  0  0  0  0
  -19.9813  -24.5094   24.1082 C   0  0  0  0  0  0  0  0  0  0  0  0
  -25.0172  -22.9189   26.1614 C   0  0  0  0  0  0  0  0  0  0  0  0
  -20.0524  -25.1214   22.7075 C   0  0  0  0  0  0  0  0  0  0  0  0
  -20.8577  -26.4144   22.6537 C   0  0  0  0  0  0  0  0  0  1  0  0
  -25.7440  -31.9784   23.9961 C   0  0  1  0  0  0  0  0  0  0  0  0
  -23.5402  -35.0593   23.8514 C   0  0  2  0  0  0  0  0  0  0  0  0
  -26.5379  -24.1509   24.6595 C   0  0  0  0  0  0  0  0  0  0  0  0
  -26.7645  -31.7846   25.1530 C   0  0  0  0  0  0  0  0  0  0  0  0
  -21.7217  -22.8193   24.3949 N   0  0  0  0  0  0  0  0  0  0  0  0
  -23.2937  -24.6037   25.8815 N   0  0  0  0  0  0  0  0  0  0  0  0
  -26.2396  -16.5219   23.4212 N   0  0  0  0  0  0  0  0  0  0  0  0
  -27.4143  -17.1070   23.7108 N   0  0  0  0  0  0  0  0  0  0  0  0
  -25.7238  -30.6322   21.9197 N   0  0  0  0  0  0  0  0  0  0  0  0
  -26.1886  -20.4719   25.0469 N   0  0  0  0  0  0  0  0  0  0  0  0
  -29.7546  -16.8938   23.4139 N   0  0  0  0  0  0  0  0  0  0  0  0
  -28.0976  -13.2930   21.2496 N   0  0  0  0  0  0  0  0  0  0  0  0
  -27.9236  -28.4054   20.0493 N   0  0  0  0  0  0  0  0  0  0  0  0
  -25.2018  -33.3292   23.8976 N   0  0  0  0  0  0  0  0  0  0  0  0
  -26.0475  -22.8617   25.1263 N   0  0  0  0  0  0  0  0  0  0  0  0
  -22.2377  -35.2609   23.1558 N   0  3  0  0  0  0  0  0  0  0  0  0
  -30.0244  -14.3917   21.8317 O   0  0  0  0  0  0  0  0  0  0  0  0
  -27.1649  -28.5460   22.2464 O   0  0  0  0  0  0  0  0  0  0  0  0
  -27.3090  -32.3108   22.2449 O   0  0  0  0  0  0  0  0  0  0  0  0
  -22.9748  -32.7272   24.1323 O   0  0  0  0  0  0  0  0  0  0  0  0
  -26.7980  -21.7685   23.2424 O   0  0  0  0  0  0  0  0  0  0  0  0
  -22.7174  -11.9341   20.7575 O   0  0  0  0  0  0  0  0  0  0  0  0
  -20.8442  -26.9072   21.3145 O   0  0  0  0  0  0  0  0  0  1  0  0
  -23.6138   -6.5266   21.3566 F   0  0  0  0  0  0  0  0  0  0  0  0
  -20.9589  -10.3553   22.1920 F   0  0  0  0  0  0  0  0  0  0  0  0
  1  2  1  0  0  0  0
  1  5  2  0  0  0  0
  2  6  2  0  0  0  0
  3  8  2  0  0  0  0
  3 17  1  0  0  0  0
  4  9  1  0  0  0  0
  4 17  2  0  0  0  0
  5 19  1  0  0  0  0
  6 21  1  0  0  0  0
  7 10  2  0  0  0  0
  7 20  1  0  0  0  0
  8 23  1  0  0  0  0
  9 23  2  0  0  0  0
 10 24  1  0  0  0  0
 11 12  2  0  0  0  0
 11 25  1  0  0  0  0
 12 26  1  0  0  0  0
 13 22  1  0  0  0  0
 13 24  2  0  0  0  0
 14 26  2  0  0  0  0
 14 27  1  0  0  0  0
 15 29  1  0  0  0  0
 15 65  2  0  0  0  0
 16 30  2  0  0  0  0
 16 64  1  0  0  0  0
 17 28  1  0  0  0  0
 18 28  1  0  0  0  0
 18 31  2  0  0  0  0
 18 32  1  0  0  0  0
 19 21  2  0  0  0  0
 19 37  1  0  0  0  0
 20 22  2  0  0  0  0
 20 38  1  0  0  0  0
 21 46  1  0  0  0  0
 22 39  1  0  0  0  0
 23 81  1  0  0  0  0
 24 82  1  0  0  0  0
 25 27  2  0  0  0  0
 25 81  1  0  0  0  0
 26 83  1  0  0  0  0
 27 84  1  0  0  0  0
 28 66  2  0  0  0  0
 29 56  1  0  0  0  0
 29 64  2  0  0  0  0
 30 57  1  0  0  0  0
 30 65  1  0  0  0  0
 31 67  1  0  0  0  0
 31 70  1  0  0  0  0
 32 71  1  0  0  0  0
 32 76  2  0  0  0  0
 33 47  1  0  0  0  0
 33 72  1  0  0  0  0
 33 77  2  0  0  0  0
 34 60  1  0  0  0  0
 34 68  1  0  0  0  0
 34 78  2  0  0  0  0
 35 61  1  0  0  0  0
 35 73  1  0  0  0  0
 35 79  2  0  0  0  0
 36 69  1  0  0  0  0
 36 74  1  0  0  0  0
 36 80  2  0  0  0  0
 37 40  1  0  0  0  0
 38 47  1  0  0  0  0
 39 68  1  0  0  0  0
 40 42  1  0  0  0  0
 41 43  1  0  0  0  0
 41 44  1  0  0  0  0
 42 46  1  0  0  0  0
 43 48  1  0  0  0  0
 44 69  1  0  0  0  0
 45 48  1  0  0  0  0
 45 69  1  0  0  0  0
 46 72  1  0  0  0  0
 47 68  1  0  0  0  0
 48 67  1  0  0  0  0
 49 61  1  0  0  0  0
 50 62  1  0  0  0  0
 51 62  1  0  0  0  0
 52 63  1  0  0  0  0
 53 63  1  0  0  0  0
 54 63  1  0  0  0  0
 55 75  1  0  0  0  0
 56 58  1  0  0  0  0
 57 74  1  0  0  0  0
 58 59  1  0  0  0  0
 59 82  1  0  0  0  0
 60 63  1  0  0  0  0
 60 73  1  0  0  0  0
 61 75  1  0  0  0  0
 62 74  1  0  0  0  0
 66 67  1  0  0  0  0
M  CHG  1  75   1
M  ISO  4  36 100  59 101  74 100  82 101
M  END
> <Batch ID>
0053

> <Smiles>
CNC(C)C(=O)NC(C(=O)N1Cc2cc([101O:1][101CH2:1]CCc3cnc(C[100N:0](C(C)C)[100C:0](=O)N4CCCC(n5nc(-c6ccc(Oc7ccc(F)cc7F)cc6)c(C(N)=O)c5N)C4)cn3)ccc2CC1C(=O)NC1CCCc2ccccc21)C(C)(C)C

> <Shape>
0.247

> <Color>
0.070

> <Negative vol penalty>
0.000

$$$$

  -OEChem-04052317383D

 88 96  0     1  0  0  0  0  0999 V2000
  -28.2657  -26.1275   31.6719 C   0  0  0  0  0  0  0  0  0  0  0  0
  -29.4079  -25.3396   31.5721 C   0  0  0  0  0  0  0  0  0  0  0  0
  -23.1774   -9.7977   19.9703 C   0  0  0  0  0  0  0  0  0  0  0  0
  -23.8578   -9.9312   22.2847 C   0  0  0  0  0  0  0  0  0  0  0  0
  -27.1360  -25.8143   30.9171 C   0  0  0  0  0  0  0  0  0  0  0  0
  -29.4207  -24.2373   30.7181 C   0  0  0  0  0  0  0  0  0  0  0  0
  -33.8383  -20.4937   26.5006 C   0  0  0  0  0  0  0  0  0  0  0  0
  -22.4693   -8.6280   20.2459 C   0  0  0  0  0  0  0  0  0  0  0  0
  -23.1495   -8.7616   22.5603 C   0  0  0  0  0  0  0  0  0  0  0  0
  -34.2570  -19.1836   26.2728 C   0  0  0  0  0  0  0  0  0  0  0  0
  -19.9349   -7.8648   23.0918 C   0  0  0  0  0  0  0  0  0  0  0  0
  -19.1405   -7.8449   24.2381 C   0  0  0  0  0  0  0  0  0  0  0  0
  -32.2743  -18.7848   24.9580 C   0  0  0  0  0  0  0  0  0  0  0  0
  -20.4278   -5.9902   25.0982 C   0  0  0  0  0  0  0  0  0  0  0  0
  -35.5430  -14.2724   26.4695 C   0  0  0  0  0  0  0  0  0  0  0  0
  -23.8718  -10.4493   20.9897 C   0  0  0  0  0  0  0  0  0  0  0  0
  -24.1225  -12.9785   20.7709 C   0  0  0  0  0  0  0  0  0  0  0  0
  -27.1383  -24.7133   30.0462 C   0  0  0  0  0  0  0  0  0  0  0  0
  -32.6269  -20.9567   25.9670 C   0  0  0  0  0  0  0  0  0  0  0  0
  -28.2896  -23.9083   29.9519 C   0  0  0  0  0  0  0  0  0  0  0  0
  -31.8436  -20.1020   25.1783 C   0  0  0  0  0  0  0  0  0  0  0  0
  -22.4553   -8.1100   21.5409 C   0  0  0  0  0  0  0  0  0  0  0  0
  -33.4736  -18.3280   25.5038 C   0  0  0  0  0  0  0  0  0  0  0  0
  -20.9758   -6.9473   22.9486 C   0  0  0  0  0  0  0  0  0  0  0  0
  -19.3869   -6.9077   25.2413 C   0  0  0  0  0  0  0  0  0  0  0  0
  -21.2222   -6.0100   23.9518 C   0  0  0  0  0  0  0  0  0  0  0  0
  -24.6040  -11.6572   20.7054 C   0  0  0  0  0  0  0  0  0  0  0  0
  -35.8021  -12.9906   26.0288 C   0  0  0  0  0  0  0  0  0  0  0  0
  -35.4042  -15.2265   25.4822 C   0  0  0  0  0  0  0  0  0  0  0  0
  -25.1975  -13.7539   20.4111 C   0  0  0  0  0  0  0  0  0  0  0  0
  -35.7623  -13.6738   23.8611 C   0  0  0  0  0  0  0  0  0  0  0  0
  -22.8200  -13.4617   21.1255 C   0  0  0  0  0  0  0  0  0  0  0  0
  -29.9091  -22.0558   27.1954 C   0  0  0  0  0  0  0  0  0  0  0  0
  -29.1892  -22.6292   24.0850 C   0  0  0  0  0  0  0  0  0  0  0  0
  -29.7184  -21.8675   20.8007 C   0  0  0  0  0  0  0  0  0  0  0  0
  -30.3985  -15.1138   20.6583 C   0  0  0  0  0  0  0  0  0  0  0  0
  -25.8774  -24.3864   29.2861 C   0  0  0  0  0  0  0  0  0  0  0  0
  -32.2024  -22.3808   26.1997 C   0  0  0  0  0  0  0  0  0  0  0  0
  -30.5448  -20.5565   24.5659 C   0  0  0  0  0  0  0  0  0  0  0  0
  -26.0994  -23.4217   28.1241 C   0  0  0  0  0  0  0  0  0  0  0  0
  -29.6580  -12.4938   18.4091 C   0  0  0  0  0  0  0  0  0  0  0  0
  -26.9645  -22.2452   28.5649 C   0  0  0  0  0  0  0  0  0  0  0  0
  -28.2291  -12.1388   18.8179 C   0  0  0  0  0  0  0  0  0  0  0  0
  -30.5419  -12.8029   19.6189 C   0  0  0  0  0  0  0  0  0  0  0  0
  -28.5548  -13.4827   20.9274 C   0  0  0  0  0  0  0  0  0  0  0  0
  -28.3507  -22.7190   29.0182 C   0  0  1  0  0  0  0  0  0  0  0  0
  -30.7003  -22.5909   26.0355 C   0  0  1  0  0  0  0  0  0  0  0  0
  -27.6307  -13.2263   19.7269 C   0  0  2  0  0  0  0  0  0  0  0  0
  -35.9674  -11.8905   27.0231 C   0  0  0  0  0  0  0  0  0  0  0  0
  -33.2922  -17.8348   18.0940 C   0  0  0  0  0  0  0  0  0  0  0  0
  -36.8046  -12.1482   22.1351 C   0  0  0  0  0  0  0  0  0  0  0  0
  -28.9555  -22.4780   18.4892 C   0  0  0  0  0  0  0  0  0  0  0  0
  -26.6169  -21.0463   24.5185 C   0  0  0  0  0  0  0  0  0  0  0  0
  -26.3839  -20.8776   22.0315 C   0  0  0  0  0  0  0  0  0  0  0  0
  -26.3493  -23.1136   23.1368 C   0  0  0  0  0  0  0  0  0  0  0  0
  -32.4308  -22.7516   20.0134 C   0  0  0  0  0  0  0  0  0  0  0  0
  -33.9038  -11.8279   22.3445 C   0  0  0  0  0  0  0  0  0  0  0  0
  -35.1191  -16.6492   25.8642 C   0  0  0  0  0  0  0  0  0  1  0  0
  -32.6176  -16.5593   18.5794 C   0  0  0  0  0  0  0  0  0  0  0  0
  -32.4097  -16.5407   20.0891 C   0  0  0  0  0  0  0  0  0  0  0  0
  -32.6651  -14.1446   20.6181 C   0  0  0  0  0  0  0  0  0  0  0  0
  -33.6473  -14.2374   21.7708 C   0  0  0  0  0  0  0  0  0  0  0  0
  -35.8803  -13.3413   22.4122 C   0  0  1  0  0  0  0  0  0  0  0  0
  -28.5294  -21.8431   22.9778 C   0  0  1  0  0  0  0  0  0  0  0  0
  -29.9692  -22.7485   19.5901 C   0  0  2  0  0  0  0  0  0  0  0  0
  -26.9933  -21.7107   23.1792 C   0  0  0  0  0  0  0  0  0  0  0  0
  -25.8851  -11.5931   20.3331 N   0  0  0  0  0  0  0  0  0  0  0  0
  -35.9185  -12.6546   24.7273 N   0  0  0  0  0  0  0  0  0  0  0  0
  -35.5082  -14.9612   24.1634 N   0  0  0  0  0  0  0  0  0  0  0  0
  -26.2177  -12.8838   20.1613 N   0  0  0  0  0  0  0  0  0  0  0  0
  -30.1695  -21.9559   24.8275 N   0  0  0  0  0  0  0  0  0  0  0  0
  -29.9121  -13.8098   20.4839 N   0  0  0  0  0  0  0  0  0  0  0  0
  -25.3602  -15.0883   20.2870 N   0  0  0  0  0  0  0  0  0  0  0  0
  -21.8320  -12.5288   21.4690 N   0  0  0  0  0  0  0  0  0  0  0  0
  -29.1827  -23.0170   27.8721 N   0  0  0  0  0  0  0  0  0  0  0  0
  -28.9146  -22.4933   21.7300 N   0  0  0  0  0  0  0  0  0  0  0  0
  -31.7845  -15.3023   20.5492 N   0  0  0  0  0  0  0  0  0  0  0  0
  -31.3335  -22.5016   19.0436 N   0  3  0  0  0  0  0  0  0  0  0  0
  -34.5597  -13.0447   21.7581 N   0  3  1  0  0  0  0  0  0  0  0  0
  -22.5359  -14.6835   21.1215 O   0  0  0  0  0  0  0  0  0  0  0  0
  -29.9533  -20.8593   27.4563 O   0  0  0  0  0  0  0  0  0  0  0  0
  -28.8524  -23.7999   24.2790 O   0  0  0  0  0  0  0  0  0  0  0  0
  -30.1854  -20.7359   20.9092 O   0  0  0  0  0  0  0  0  0  0  0  0
  -29.6377  -16.0582   20.9062 O   0  0  0  0  0  0  0  0  0  0  0  0
  -21.7641   -6.9688   21.8103 O   0  0  0  0  0  0  0  0  0  0  0  0
  -33.8797  -17.0485   25.2804 O   0  0  0  0  0  0  0  0  0  1  0  0
  -18.6249   -6.8897   26.3427 F   0  0  0  0  0  0  0  0  0  0  0  0
  -22.2215   -5.1268   23.8205 F   0  0  0  0  0  0  0  0  0  0  0  0
  1  2  1  0  0  0  0
  1  5  2  0  0  0  0
  2  6  2  0  0  0  0
  3  8  2  0  0  0  0
  3 16  1  0  0  0  0
  4  9  1  0  0  0  0
  4 16  2  0  0  0  0
  5 18  1  0  0  0  0
  6 20  1  0  0  0  0
  7 10  2  0  0  0  0
  7 19  1  0  0  0  0
  8 22  1  0  0  0  0
  9 22  2  0  0  0  0
 10 23  1  0  0  0  0
 11 12  2  0  0  0  0
 11 24  1  0  0  0  0
 12 25  1  0  0  0  0
 13 21  1  0  0  0  0
 13 23  2  0  0  0  0
 14 25  2  0  0  0  0
 14 26  1  0  0  0  0
 15 28  1  0  0  0  0
 15 29  2  0  0  0  0
 16 27  1  0  0  0  0
 17 27  1  0  0  0  0
 17 30  2  0  0  0  0
 17 32  1  0  0  0  0
 18 20  2  0  0  0  0
 18 37  1  0  0  0  0
 19 21  2  0  0  0  0
 19 38  1  0  0  0  0
 20 46  1  0  0  0  0
 21 39  1  0  0  0  0
 22 85  1  0  0  0  0
 23 86  1  0  0  0  0
 24 26  2  0  0  0  0
 24 85  1  0  0  0  0
 25 87  1  0  0  0  0
 26 88  1  0  0  0  0
 27 67  2  0  0  0  0
 28 49  1  0  0  0  0
 28 68  2  0  0  0  0
 29 58  1  0  0  0  0
 29 69  1  0  0  0  0
 30 70  1  0  0  0  0
 30 73  1  0  0  0  0
 31 63  1  0  0  0  0
 31 68  1  0  0  0  0
 31 69  2  0  0  0  0
 32 74  1  0  0  0  0
 32 80  2  0  0  0  0
 33 47  1  0  0  0  0
 33 75  1  0  0  0  0
 33 81  2  0  0  0  0
 34 64  1  0  0  0  0
 34 71  1  0  0  0  0
 34 82  2  0  0  0  0
 35 65  1  0  0  0  0
 35 76  1  0  0  0  0
 35 83  2  0  0  0  0
 36 72  1  0  0  0  0
 36 77  1  0  0  0  0
 36 84  2  0  0  0  0
 37 40  1  0  0  0  0
 38 47  1  0  0  0  0
 39 71  1  0  0  0  0
 40 42  1  0  0  0  0
 41 43  1  0  0  0  0
 41 44  1  0  0  0  0
 42 46  1  0  0  0  0
 43 48  1  0  0  0  0
 44 72  1  0  0  0  0
 45 48  1  0  0  0  0
 45 72  1  0  0  0  0
 46 75  1  0  0  0  0
 47 71  1  0  0  0  0
 48 70  1  0  0  0  0
 50 59  1  0  0  0  0
 51 63  1  0  0  0  0
 52 65  1  0  0  0  0
 53 66  1  0  0  0  0
 54 66  1  0  0  0  0
 55 66  1  0  0  0  0
 56 78  1  0  0  0  0
 57 79  1  0  0  0  0
 58 86  1  0  0  0  0
 59 60  1  0  0  0  0
 60 77  1  0  0  0  0
 61 62  1  0  0  0  0
 61 77  1  0  0  0  0
 62 79  1  0  0  0  0
 63 79  1  0  0  0  0
 64 66  1  0  0  0  0
 64 76  1  0  0  0  0
 65 78  1  0  0  0  0
 67 70  1  0  0  0  0
M  CHG  2  78   1  79   1
M  ISO  4  36 100  58 101  77 100  86 101
M  END
> <Batch ID>
0053

> <Smiles>
CCC[100N:0](CCN(C)C(C)c1nc(C)cc([101CH2:1][101O:1]c2ccc3c(c2)CN(C(=O)C(NC(=O)C(C)NC)C(C)(C)C)C(C(=O)NC2CCCc4ccccc42)C3)n1)[100C:0](=O)N1CCCC(n2nc(-c3ccc(Oc4ccc(F)cc4F)cc3)c(C(N)=O)c2N)C1

> <Shape>
0.183

> <Color>
0.166

> <Negative vol penalty>
0.000

$$$$

  -OEChem-04052317383D

 85 94  0     1  0  0  0  0  0999 V2000
  -28.5469  -32.9826   24.9509 C   0  0  0  0  0  0  0  0  0  0  0  0
  -28.4334  -31.5966   24.9885 C   0  0  0  0  0  0  0  0  0  0  0  0
  -23.0757   -9.8316   20.2392 C   0  0  0  0  0  0  0  0  0  0  0  0
  -23.7495  -10.1580   22.5363 C   0  0  0  0  0  0  0  0  0  0  0  0
  -27.4170  -33.7676   24.7250 C   0  0  0  0  0  0  0  0  0  0  0  0
  -27.1895  -30.9947   24.8013 C   0  0  0  0  0  0  0  0  0  0  0  0
  -26.0636  -25.6590   22.0142 C   0  0  0  0  0  0  0  0  0  0  0  0
  -22.3110   -8.7291   20.6202 C   0  0  0  0  0  0  0  0  0  0  0  0
  -22.9847   -9.0554   22.9173 C   0  0  0  0  0  0  0  0  0  0  0  0
  -25.8420  -24.3729   22.5047 C   0  0  0  0  0  0  0  0  0  0  0  0
  -19.7281   -8.3672   23.5015 C   0  0  0  0  0  0  0  0  0  0  0  0
  -18.9276   -8.4967   24.6364 C   0  0  0  0  0  0  0  0  0  0  0  0
  -23.4613  -24.7381   22.3693 C   0  0  0  0  0  0  0  0  0  0  0  0
  -20.1202   -6.6760   25.6853 C   0  0  0  0  0  0  0  0  0  0  0  0
  -29.5080  -19.3549   23.9519 C   0  0  0  0  0  0  0  0  0  0  0  0
  -23.7951  -10.5461   21.1973 C   0  0  0  0  0  0  0  0  0  0  0  0
  -24.1677  -13.0273   20.7364 C   0  0  0  0  0  0  0  0  0  0  0  0
  -26.1603  -33.1746   24.5254 C   0  0  0  0  0  0  0  0  0  0  0  0
  -24.9840  -26.4996   21.7073 C   0  0  0  0  0  0  0  0  0  0  0  0
  -26.0415  -31.7725   24.5739 C   0  0  0  0  0  0  0  0  0  0  0  0
  -23.6719  -26.0335   21.8726 C   0  0  0  0  0  0  0  0  0  0  0  0
  -28.3159  -19.7912   23.3947 C   0  0  0  0  0  0  0  0  0  0  0  0
  -22.2654   -8.3410   21.9592 C   0  0  0  0  0  0  0  0  0  0  0  0
  -24.5407  -23.9133   22.6851 C   0  0  0  0  0  0  0  0  0  0  0  0
  -20.7246   -7.3921   23.4584 C   0  0  0  0  0  0  0  0  0  0  0  0
  -19.1236   -7.6511   25.7283 C   0  0  0  0  0  0  0  0  0  0  0  0
  -20.9207   -6.5466   24.5503 C   0  0  0  0  0  0  0  0  0  0  0  0
  -24.5858  -11.6847   20.8043 C   0  0  0  0  0  0  0  0  0  0  0  0
  -27.9861  -19.2307   22.1649 C   0  0  0  0  0  0  0  0  0  0  0  0
  -25.2805  -13.7124   20.3136 C   0  0  0  0  0  0  0  0  0  0  0  0
  -29.9182  -18.0065   22.1744 C   0  0  0  0  0  0  0  0  0  0  0  0
  -22.8880  -13.6035   21.0295 C   0  0  0  0  0  0  0  0  0  0  0  0
  -23.9529  -29.3087   22.7795 C   0  0  0  0  0  0  0  0  0  0  0  0
  -21.8247  -29.0159   20.3490 C   0  0  0  0  0  0  0  0  0  0  0  0
  -20.1306  -26.9630   18.2130 C   0  0  0  0  0  0  0  0  0  0  0  0
  -30.7638  -14.7195   20.5673 C   0  0  0  0  0  0  0  0  0  0  0  0
  -24.9594  -34.0663   24.3317 C   0  0  0  0  0  0  0  0  0  0  0  0
  -25.2398  -27.8746   21.1537 C   0  0  0  0  0  0  0  0  0  0  0  0
  -27.4210  -20.7511   24.1211 C   0  0  0  0  0  0  0  0  0  0  0  0
  -22.4784  -26.8893   21.5389 C   0  0  0  0  0  0  0  0  0  0  0  0
  -26.7334  -19.6396   21.4382 C   0  0  0  0  0  0  0  0  0  0  0  0
  -23.7425  -33.3356   23.7701 C   0  0  0  0  0  0  0  0  0  0  0  0
  -25.6961  -20.2944   22.3498 C   0  0  0  0  0  0  0  0  0  0  0  0
  -29.6911  -12.0282   18.4978 C   0  0  0  0  0  0  0  0  0  0  0  0
  -23.5158  -32.0245   24.5160 C   0  0  0  0  0  0  0  0  0  0  0  0
  -28.2355  -11.8059   18.9122 C   0  0  0  0  0  0  0  0  0  0  0  0
  -30.5650  -12.4114   19.6901 C   0  0  0  0  0  0  0  0  0  0  0  0
  -28.6206  -13.3405   20.8859 C   0  0  0  0  0  0  0  0  0  0  0  0
  -24.7138  -31.0815   24.3508 C   0  0  1  0  0  0  0  0  0  0  0  0
  -24.0680  -28.8293   21.3601 C   0  0  1  0  0  0  0  0  0  0  0  0
  -26.3500  -21.3790   23.2142 C   0  0  1  0  0  0  0  0  0  0  0  0
  -27.6893  -13.0066   19.7080 C   0  0  2  0  0  0  0  0  0  0  0  0
  -18.4334  -27.0115   16.3652 C   0  0  0  0  0  0  0  0  0  0  0  0
  -24.5943  -21.1570   24.9953 C   0  0  0  0  0  0  0  0  0  0  0  0
  -25.9433  -23.2689   24.8248 C   0  0  0  0  0  0  0  0  0  0  0  0
  -19.6114  -29.4806   22.3973 C   0  0  0  0  0  0  0  0  0  0  0  0
  -17.9737  -28.5890   20.7266 C   0  0  0  0  0  0  0  0  0  0  0  0
  -19.2759  -30.6541   20.2145 C   0  0  0  0  0  0  0  0  0  0  0  0
  -22.0309  -25.7759   16.2795 C   0  0  0  0  0  0  0  0  0  0  0  0
  -30.8061  -17.0226   21.4910 C   0  0  0  0  0  0  0  0  0  0  0  0
  -20.4482  -28.4141   20.1999 C   0  0  1  0  0  0  0  0  0  0  0  0
  -19.9140  -27.0290   16.7119 C   0  0  2  0  0  0  0  0  0  0  0  0
  -25.3053  -22.1192   24.0462 C   0  0  0  0  0  0  0  0  0  1  0  0
  -19.3496  -29.2688   20.8928 C   0  0  0  0  0  0  0  0  0  0  0  0
  -30.3353  -18.4659   23.3665 N   0  0  0  0  0  0  0  0  0  0  0  0
  -25.8643  -11.5243   20.4526 N   0  0  0  0  0  0  0  0  0  0  0  0
  -28.7838  -18.3395   21.5306 N   0  0  0  0  0  0  0  0  0  0  0  0
  -26.2592  -12.7750   20.1596 N   0  0  0  0  0  0  0  0  0  0  0  0
  -22.7803  -28.2284   21.0066 N   0  0  0  0  0  0  0  0  0  0  0  0
  -29.9926  -13.5574   20.4007 N   0  0  0  0  0  0  0  0  0  0  0  0
  -25.5075  -15.0192   20.0621 N   0  0  0  0  0  0  0  0  0  0  0  0
  -21.8547  -12.7562   21.4522 N   0  0  0  0  0  0  0  0  0  0  0  0
  -24.6839  -30.4499   23.0490 N   0  0  0  0  0  0  0  0  0  0  0  0
  -20.2404  -28.2200   18.7690 N   0  0  0  0  0  0  0  0  0  0  0  0
  -30.1435  -15.7608   21.2467 N   0  0  0  0  0  0  0  0  0  0  0  0
  -20.5672  -25.8687   16.0428 N   0  3  0  0  0  0  0  0  0  0  0  0
  -22.6627  -14.8312   20.9040 O   0  0  0  0  0  0  0  0  0  0  0  0
  -23.2515  -28.6898   23.5712 O   0  0  0  0  0  0  0  0  0  0  0  0
  -22.0459  -30.1402   19.8923 O   0  0  0  0  0  0  0  0  0  0  0  0
  -20.1922  -25.9025   18.8311 O   0  0  0  0  0  0  0  0  0  0  0  0
  -31.9177  -14.8234   20.1375 O   0  0  0  0  0  0  0  0  0  0  0  0
  -21.5191   -7.2654   22.3313 O   0  0  0  0  0  0  0  0  0  0  0  0
  -24.3215  -22.6587   23.1644 O   0  0  0  0  0  0  0  0  0  1  0  0
  -18.3559   -7.7766   26.8187 F   0  0  0  0  0  0  0  0  0  0  0  0
  -21.8772   -5.6087   24.5153 F   0  0  0  0  0  0  0  0  0  0  0  0
  1  2  1  0  0  0  0
  1  5  2  0  0  0  0
  2  6  2  0  0  0  0
  3  8  2  0  0  0  0
  3 16  1  0  0  0  0
  4  9  1  0  0  0  0
  4 16  2  0  0  0  0
  5 18  1  0  0  0  0
  6 20  1  0  0  0  0
  7 10  2  0  0  0  0
  7 19  1  0  0  0  0
  8 23  1  0  0  0  0
  9 23  2  0  0  0  0
 10 24  1  0  0  0  0
 11 12  2  0  0  0  0
 11 25  1  0  0  0  0
 12 26  1  0  0  0  0
 13 21  1  0  0  0  0
 13 24  2  0  0  0  0
 14 26  2  0  0  0  0
 14 27  1  0  0  0  0
 15 22  1  0  0  0  0
 15 65  2  0  0  0  0
 16 28  1  0  0  0  0
 17 28  1  0  0  0  0
 17 30  2  0  0  0  0
 17 32  1  0  0  0  0
 18 20  2  0  0  0  0
 18 37  1  0  0  0  0
 19 21  2  0  0  0  0
 19 38  1  0  0  0  0
 20 49  1  0  0  0  0
 21 40  1  0  0  0  0
 22 29  2  0  0  0  0
 22 39  1  0  0  0  0
 23 82  1  0  0  0  0
 24 83  1  0  0  0  0
 25 27  2  0  0  0  0
 25 82  1  0  0  0  0
 26 84  1  0  0  0  0
 27 85  1  0  0  0  0
 28 66  2  0  0  0  0
 29 41  1  0  0  0  0
 29 67  1  0  0  0  0
 30 68  1  0  0  0  0
 30 71  1  0  0  0  0
 31 60  1  0  0  0  0
 31 65  1  0  0  0  0
 31 67  2  0  0  0  0
 32 72  1  0  0  0  0
 32 77  2  0  0  0  0
 33 50  1  0  0  0  0
 33 73  1  0  0  0  0
 33 78  2  0  0  0  0
 34 61  1  0  0  0  0
 34 69  1  0  0  0  0
 34 79  2  0  0  0  0
 35 62  1  0  0  0  0
 35 74  1  0  0  0  0
 35 80  2  0  0  0  0
 36 70  1  0  0  0  0
 36 75  1  0  0  0  0
 36 81  2  0  0  0  0
 37 42  1  0  0  0  0
 38 50  1  0  0  0  0
 39 51  1  0  0  0  0
 40 69  1  0  0  0  0
 41 43  1  0  0  0  0
 42 45  1  0  0  0  0
 43 51  1  0  0  0  0
 44 46  1  0  0  0  0
 44 47  1  0  0  0  0
 45 49  1  0  0  0  0
 46 52  1  0  0  0  0
 47 70  1  0  0  0  0
 48 52  1  0  0  0  0
 48 70  1  0  0  0  0
 49 73  1  0  0  0  0
 50 69  1  0  0  0  0
 51 63  1  0  0  0  0
 52 68  1  0  0  0  0
 53 62  1  0  0  0  0
 54 63  1  0  0  0  0
 55 63  1  0  0  0  0
 56 64  1  0  0  0  0
 57 64  1  0  0  0  0
 58 64  1  0  0  0  0
 59 76  1  0  0  0  0
 60 75  1  0  0  0  0
 61 64  1  0  0  0  0
 61 74  1  0  0  0  0
 62 76  1  0  0  0  0
 63 83  1  0  0  0  0
 66 68  1  0  0  0  0
M  CHG  1  76   1
M  ISO  4  36 100  63 101  75 100  83 101
M  END
> <Batch ID>
0053

> <Smiles>
CNC(C)C(=O)NC(C(=O)N1Cc2cc([101O:1][101C:1](C)(C)C3CCc4nc(C[100NH:0][100C:0](=O)N5CCCC(n6nc(-c7ccc(Oc8ccc(F)cc8F)cc7)c(C(N)=O)c6N)C5)ncc4C3)ccc2CC1C(=O)NC1CCCc2ccccc21)C(C)(C)C

> <Shape>
0.278

> <Color>
0.188

> <Negative vol penalty>
0.000

$$$$

  -OEChem-04052317383D

 85 93  0     1  0  0  0  0  0999 V2000
  -22.2294  -12.2603   18.7063 C   0  0  0  0  0  0  0  0  0  0  0  0
  -21.9421  -13.5308   19.1949 C   0  0  0  0  0  0  0  0  0  0  0  0
  -27.4347  -30.3696   22.4022 C   0  0  0  0  0  0  0  0  0  0  0  0
  -25.9205  -28.8336   23.4908 C   0  0  0  0  0  0  0  0  0  0  0  0
  -23.4457  -11.6538   19.0171 C   0  0  0  0  0  0  0  0  0  0  0  0
  -22.8706  -14.1952   19.9954 C   0  0  0  0  0  0  0  0  0  0  0  0
  -23.9556  -20.2205   20.1489 C   0  0  0  0  0  0  0  0  0  0  0  0
  -27.7487  -30.9357   23.6377 C   0  0  0  0  0  0  0  0  0  0  0  0
  -26.2345  -29.3997   24.7263 C   0  0  0  0  0  0  0  0  0  0  0  0
  -23.5241  -21.2297   21.0085 C   0  0  0  0  0  0  0  0  0  0  0  0
  -26.3576  -33.1340   25.7957 C   0  0  0  0  0  0  0  0  0  0  0  0
  -26.3982  -34.5257   25.8785 C   0  0  0  0  0  0  0  0  0  0  0  0
  -25.5649  -21.0140   22.2765 C   0  0  0  0  0  0  0  0  0  0  0  0
  -28.7171  -34.4183   26.5481 C   0  0  0  0  0  0  0  0  0  0  0  0
  -21.6947  -25.2176   20.2709 C   0  0  0  0  0  0  0  0  0  0  0  0
  -26.5205  -29.3186   22.3287 C   0  0  0  0  0  0  0  0  0  0  0  0
  -26.8405  -27.6520   20.4241 C   0  0  0  0  0  0  0  0  0  0  0  0
  -24.3937  -12.3151   19.8139 C   0  0  0  0  0  0  0  0  0  0  0  0
  -25.1924  -19.5919   20.3533 C   0  0  0  0  0  0  0  0  0  0  0  0
  -24.1002  -13.5964   20.3182 C   0  0  0  0  0  0  0  0  0  0  0  0
  -26.0110  -19.9989   21.4165 C   0  0  0  0  0  0  0  0  0  0  0  0
  -27.1487  -30.4507   24.7998 C   0  0  0  0  0  0  0  0  0  0  0  0
  -24.3274  -21.6246   22.0743 C   0  0  0  0  0  0  0  0  0  0  0  0
  -27.4967  -32.3843   26.0891 C   0  0  0  0  0  0  0  0  0  0  0  0
  -27.5779  -35.1679   26.2547 C   0  0  0  0  0  0  0  0  0  0  0  0
  -28.6764  -33.0265   26.4653 C   0  0  0  0  0  0  0  0  0  0  0  0
  -26.1952  -28.7338   21.0526 C   0  0  0  0  0  0  0  0  0  0  0  0
  -21.1744  -26.3834   19.7839 C   0  0  0  0  0  0  0  0  0  0  0  0
  -26.1594  -27.4852   19.2431 C   0  0  0  0  0  0  0  0  0  0  0  0
  -21.1952  -26.5149   21.9936 C   0  0  0  0  0  0  0  0  0  0  0  0
  -27.9557  -26.8679   20.8681 C   0  0  0  0  0  0  0  0  0  0  0  0
  -26.1197  -16.6180   20.9854 C   0  0  0  0  0  0  0  0  0  0  0  0
  -29.0847  -17.8751   20.5979 C   0  0  0  0  0  0  0  0  0  0  0  0
  -31.0917  -20.6348   20.6548 C   0  0  0  0  0  0  0  0  0  0  0  0
  -20.4626  -29.2585   17.8500 C   0  0  0  0  0  0  0  0  0  0  0  0
  -25.6750  -11.5998   20.1619 C   0  0  0  0  0  0  0  0  0  0  0  0
  -25.6553  -18.5234   19.4012 C   0  0  0  0  0  0  0  0  0  0  0  0
  -27.3562  -19.3697   21.6674 C   0  0  0  0  0  0  0  0  0  0  0  0
  -26.7601  -12.5248   20.7072 C   0  0  0  0  0  0  0  0  0  0  0  0
  -23.6068  -29.9011   16.0054 C   0  0  0  0  0  0  0  0  0  0  0  0
  -26.1824  -13.4603   21.7645 C   0  0  0  0  0  0  0  0  0  0  0  0
  -24.6744  -29.6487   17.0687 C   0  0  0  0  0  0  0  0  0  0  0  0
  -22.2922  -30.3698   16.6216 C   0  0  0  0  0  0  0  0  0  0  0  0
  -22.8297  -29.2083   18.7372 C   0  0  0  0  0  0  0  0  0  0  0  0
  -25.0921  -14.3594   21.1692 C   0  0  1  0  0  0  0  0  0  0  0  0
  -26.7049  -17.5970   20.0074 C   0  0  1  0  0  0  0  0  0  0  0  0
  -24.1526  -28.6901   18.1532 C   0  0  2  0  0  0  0  0  0  0  0  0
  -33.4777  -21.3423   20.3327 C   0  0  0  0  0  0  0  0  0  0  0  0
  -24.5960  -24.9023   22.9769 C   0  0  0  0  0  0  0  0  0  0  0  0
  -22.3831  -27.1177   24.1317 C   0  0  0  0  0  0  0  0  0  0  0  0
  -20.0745  -26.1178   24.2147 C   0  0  0  0  0  0  0  0  0  0  0  0
  -20.4011  -28.4713   23.4828 C   0  0  0  0  0  0  0  0  0  0  0  0
  -29.7908  -16.7328   23.3377 C   0  0  0  0  0  0  0  0  0  0  0  0
  -31.7893  -18.2404   23.3739 C   0  0  0  0  0  0  0  0  0  0  0  0
  -31.5836  -16.4871   21.6114 C   0  0  0  0  0  0  0  0  0  0  0  0
  -18.6383  -27.7406   18.5190 C   0  0  0  0  0  0  0  0  0  0  0  0
  -30.3817  -22.4107   18.3963 C   0  0  0  0  0  0  0  0  0  0  0  0
  -20.9309  -26.8362   18.4119 C   0  0  0  0  0  0  0  0  0  0  0  0
  -22.1892  -24.2655   22.5959 C   0  0  0  0  0  0  0  0  0  0  0  0
  -30.0961  -18.5289   21.5082 C   0  0  1  0  0  0  0  0  0  0  0  0
  -32.1234  -21.1505   19.6679 C   0  0  2  0  0  0  0  0  0  0  0  0
  -23.6526  -23.8896   22.3399 C   0  0  2  0  0  0  0  0  0  1  0  0
  -21.0194  -27.0347   23.3727 C   0  0  0  0  0  0  0  0  0  0  0  0
  -30.7888  -17.5080   22.4545 C   0  0  0  0  0  0  0  0  0  0  0  0
  -25.1822  -29.2201   20.3306 N   0  0  0  0  0  0  0  0  0  0  0  0
  -21.6962  -25.3267   21.6406 N   0  0  0  0  0  0  0  0  0  0  0  0
  -25.1857  -28.4402   19.2362 N   0  0  0  0  0  0  0  0  0  0  0  0
  -20.8739  -27.1673   20.8717 N   0  3  0  0  0  0  0  0  0  0  0  0
  -27.7618  -18.3250   20.7126 N   0  0  0  0  0  0  0  0  0  0  0  0
  -21.8415  -29.4640   17.6787 N   0  0  0  0  0  0  0  0  0  0  0  0
  -26.3044  -26.6162   18.2202 N   0  0  0  0  0  0  0  0  0  0  0  0
  -28.5368  -27.1738   22.1063 N   0  0  0  0  0  0  0  0  0  0  0  0
  -25.6861  -15.4389   20.4100 N   0  0  0  0  0  0  0  0  0  0  0  0
  -31.0148  -19.2582   20.6407 N   0  0  0  0  0  0  0  0  0  0  0  0
  -20.0581  -28.0057   18.3354 N   0  0  0  0  0  0  0  0  0  0  0  0
  -31.6890  -22.4582   19.1003 N   0  3  0  0  0  0  0  0  0  0  0  0
  -28.4335  -25.9346   20.1795 O   0  0  0  0  0  0  0  0  0  0  0  0
  -26.0668  -16.9101   22.1744 O   0  0  0  0  0  0  0  0  0  0  0  0
  -29.4562  -17.0026   19.8089 O   0  0  0  0  0  0  0  0  0  0  0  0
  -30.4236  -21.3786   21.3696 O   0  0  0  0  0  0  0  0  0  0  0  0
  -19.6394  -30.1410   17.5752 O   0  0  0  0  0  0  0  0  0  0  0  0
  -27.4551  -31.0026   26.0056 O   0  0  0  0  0  0  0  0  0  0  0  0
  -23.9083  -22.6090   22.9153 O   0  0  0  0  0  0  0  0  0  1  0  0
  -27.6171  -36.5045   26.3327 F   0  0  0  0  0  0  0  0  0  0  0  0
  -29.7744  -32.3117   26.7472 F   0  0  0  0  0  0  0  0  0  0  0  0
  1  2  1  0  0  0  0
  1  5  2  0  0  0  0
  2  6  2  0  0  0  0
  3  8  2  0  0  0  0
  3 16  1  0  0  0  0
  4  9  1  0  0  0  0
  4 16  2  0  0  0  0
  5 18  1  0  0  0  0
  6 20  1  0  0  0  0
  7 10  2  0  0  0  0
  7 19  1  0  0  0  0
  8 22  1  0  0  0  0
  9 22  2  0  0  0  0
 10 23  1  0  0  0  0
 11 12  2  0  0  0  0
 11 24  1  0  0  0  0
 12 25  1  0  0  0  0
 13 21  1  0  0  0  0
 13 23  2  0  0  0  0
 14 25  2  0  0  0  0
 14 26  1  0  0  0  0
 15 28  2  0  0  0  0
 15 66  1  0  0  0  0
 16 27  1  0  0  0  0
 17 27  1  0  0  0  0
 17 29  2  0  0  0  0
 17 31  1  0  0  0  0
 18 20  2  0  0  0  0
 18 36  1  0  0  0  0
 19 21  2  0  0  0  0
 19 37  1  0  0  0  0
 20 45  1  0  0  0  0
 21 38  1  0  0  0  0
 22 82  1  0  0  0  0
 23 83  1  0  0  0  0
 24 26  2  0  0  0  0
 24 82  1  0  0  0  0
 25 84  1  0  0  0  0
 26 85  1  0  0  0  0
 27 65  2  0  0  0  0
 28 58  1  0  0  0  0
 28 68  1  0  0  0  0
 29 67  1  0  0  0  0
 29 71  1  0  0  0  0
 30 63  1  0  0  0  0
 30 66  1  0  0  0  0
 30 68  2  0  0  0  0
 31 72  1  0  0  0  0
 31 77  2  0  0  0  0
 32 46  1  0  0  0  0
 32 73  1  0  0  0  0
 32 78  2  0  0  0  0
 33 60  1  0  0  0  0
 33 69  1  0  0  0  0
 33 79  2  0  0  0  0
 34 61  1  0  0  0  0
 34 74  1  0  0  0  0
 34 80  2  0  0  0  0
 35 70  1  0  0  0  0
 35 75  1  0  0  0  0
 35 81  2  0  0  0  0
 36 39  1  0  0  0  0
 37 46  1  0  0  0  0
 38 69  1  0  0  0  0
 39 41  1  0  0  0  0
 40 42  1  0  0  0  0
 40 43  1  0  0  0  0
 41 45  1  0  0  0  0
 42 47  1  0  0  0  0
 43 70  1  0  0  0  0
 44 47  1  0  0  0  0
 44 70  1  0  0  0  0
 45 73  1  0  0  0  0
 46 69  1  0  0  0  0
 47 67  1  0  0  0  0
 48 61  1  0  0  0  0
 49 62  1  0  0  0  0
 50 63  1  0  0  0  0
 51 63  1  0  0  0  0
 52 63  1  0  0  0  0
 53 64  1  0  0  0  0
 54 64  1  0  0  0  0
 55 64  1  0  0  0  0
 56 75  1  0  0  0  0
 57 76  1  0  0  0  0
 58 75  1  0  0  0  0
 59 62  1  0  0  0  0
 59 66  1  0  0  0  0
 60 64  1  0  0  0  0
 60 74  1  0  0  0  0
 61 76  1  0  0  0  0
 62 83  1  0  0  0  0
 65 67  1  0  0  0  0
M  CHG  2  68   1  76   1
M  ISO  4  35 100  62 101  75 100  83 101
M  END
> <Batch ID>
0053

> <Smiles>
CNC(C)C(=O)NC(C(=O)N1Cc2cc([101O:1][101CH:1](C)Cn3cc(C[100N:0](C)[100C:0](=O)N4CCCC(n5nc(-c6ccc(Oc7ccc(F)cc7F)cc6)c(C(N)=O)c5N)C4)nc3C(C)(C)C)ccc2CC1C(=O)NC1CCCc2ccccc21)C(C)(C)C

> <Shape>
0.228

> <Color>
0.067

> <Negative vol penalty>
0.000

$$$$

  -OEChem-04052317383D

 83 91  0     1  0  0  0  0  0999 V2000
  -20.4482  -27.8659   22.1846 C   0  0  0  0  0  0  0  0  0  0  0  0
  -21.0765  -26.6247   22.1798 C   0  0  0  0  0  0  0  0  0  0  0  0
  -23.2407   -9.8199   19.9160 C   0  0  0  0  0  0  0  0  0  0  0  0
  -23.7908   -9.9331   22.2658 C   0  0  0  0  0  0  0  0  0  0  0  0
  -20.7019  -28.7705   23.2148 C   0  0  0  0  0  0  0  0  0  0  0  0
  -21.9598  -26.2878   23.2048 C   0  0  0  0  0  0  0  0  0  0  0  0
  -22.8213  -20.7376   25.6461 C   0  0  0  0  0  0  0  0  0  0  0  0
  -22.5189   -8.6478   20.1415 C   0  0  0  0  0  0  0  0  0  0  0  0
  -23.0689   -8.7611   22.4913 C   0  0  0  0  0  0  0  0  0  0  0  0
  -23.7864  -19.7557   25.4262 C   0  0  0  0  0  0  0  0  0  0  0  0
  -19.8300   -7.8597   22.8347 C   0  0  0  0  0  0  0  0  0  0  0  0
  -18.9729   -7.8299   23.9347 C   0  0  0  0  0  0  0  0  0  0  0  0
  -25.0461  -20.5804   27.3110 C   0  0  0  0  0  0  0  0  0  0  0  0
  -20.2111   -5.9677   24.8491 C   0  0  0  0  0  0  0  0  0  0  0  0
  -28.1829  -19.7139   23.3661 C   0  0  0  0  0  0  0  0  0  0  0  0
  -27.6111  -18.2555   21.9250 C   0  0  0  0  0  0  0  0  0  0  0  0
  -23.8768  -10.4625   20.9782 C   0  0  0  0  0  0  0  0  0  0  0  0
  -24.1381  -12.9935   20.7959 C   0  0  0  0  0  0  0  0  0  0  0  0
  -21.5813  -28.4407   24.2581 C   0  0  0  0  0  0  0  0  0  0  0  0
  -22.9671  -21.6567   26.6951 C   0  0  0  0  0  0  0  0  0  0  0  0
  -22.2265  -27.1893   24.2493 C   0  0  0  0  0  0  0  0  0  0  0  0
  -24.0802  -21.5714   27.5436 C   0  0  0  0  0  0  0  0  0  0  0  0
  -22.4329   -8.1185   21.4291 C   0  0  0  0  0  0  0  0  0  0  0  0
  -24.9004  -19.6788   26.2570 C   0  0  0  0  0  0  0  0  0  0  0  0
  -20.8777   -6.9435   22.7418 C   0  0  0  0  0  0  0  0  0  0  0  0
  -19.1634   -6.8839   24.9419 C   0  0  0  0  0  0  0  0  0  0  0  0
  -21.0683   -5.9975   23.7490 C   0  0  0  0  0  0  0  0  0  0  0  0
  -24.6231  -11.6729   20.7458 C   0  0  0  0  0  0  0  0  0  0  0  0
  -28.0112  -18.5468   24.0725 C   0  0  0  0  0  0  0  0  0  0  0  0
  -25.2312  -13.7721   20.5034 C   0  0  0  0  0  0  0  0  0  0  0  0
  -22.8176  -13.4736   21.0814 C   0  0  0  0  0  0  0  0  0  0  0  0
  -23.2631  -24.8158   26.8847 C   0  0  0  0  0  0  0  0  0  0  0  0
  -23.0600  -24.2529   30.0728 C   0  0  0  0  0  0  0  0  0  0  0  0
  -23.4599  -22.0628   32.6594 C   0  0  0  0  0  0  0  0  0  0  0  0
  -31.0389  -13.4852   21.6311 C   0  0  0  0  0  0  0  0  0  0  0  0
  -21.8603  -29.4696   25.3250 C   0  0  0  0  0  0  0  0  0  0  0  0
  -21.9039  -22.6931   26.9353 C   0  0  0  0  0  0  0  0  0  0  0  0
  -24.2734  -22.5215   28.6962 C   0  0  0  0  0  0  0  0  0  0  0  0
  -22.5221  -28.8896   26.5723 C   0  0  0  0  0  0  0  0  0  0  0  0
  -29.5664  -13.0205   18.2670 C   0  0  0  0  0  0  0  0  0  0  0  0
  -23.6732  -27.9663   26.1856 C   0  0  0  0  0  0  0  0  0  0  0  0
  -28.1119  -12.6776   18.5845 C   0  0  0  0  0  0  0  0  0  0  0  0
  -30.5073  -12.5967   19.3907 C   0  0  0  0  0  0  0  0  0  0  0  0
  -28.6787  -12.7947   21.0432 C   0  0  0  0  0  0  0  0  0  0  0  0
  -23.1721  -26.7774   25.3567 C   0  0  1  0  0  0  0  0  0  0  0  0
  -22.4119  -23.9000   27.7181 C   0  0  1  0  0  0  0  0  0  0  0  0
  -27.6990  -13.2505   19.9515 C   0  0  2  0  0  0  0  0  0  0  0  0
  -29.6049  -18.4486   26.0172 C   0  0  0  0  0  0  0  0  0  0  0  0
  -23.2512  -21.9024   35.1550 C   0  0  0  0  0  0  0  0  0  0  0  0
  -25.6581  -25.8214   30.3885 C   0  0  0  0  0  0  0  0  0  0  0  0
  -25.8929  -24.8366   32.6784 C   0  0  0  0  0  0  0  0  0  0  0  0
  -23.9373  -26.2895   32.1419 C   0  0  0  0  0  0  0  0  0  0  0  0
  -31.6898  -14.9485   23.5058 C   0  0  0  0  0  0  0  0  0  0  0  0
  -21.4129  -19.9339   32.4677 C   0  0  0  0  0  0  0  0  0  0  0  0
  -28.5884  -15.3416   23.5150 C   0  0  0  0  0  0  0  0  0  0  0  0
  -27.3448  -16.2282   23.3652 C   0  0  0  0  0  0  0  0  0  0  0  0
  -29.5647  -15.4146   22.3429 C   0  0  0  0  0  0  0  0  0  0  0  0
  -27.1852  -19.0380   26.4159 C   0  0  0  0  0  0  0  0  0  1  0  0
  -28.1626  -18.2295   25.5519 C   0  0  1  0  0  0  0  0  0  0  0  0
  -24.0521  -23.9576   31.1717 C   0  0  1  0  0  0  0  0  0  0  0  0
  -22.5520  -21.6981   33.8201 C   0  0  2  0  0  0  0  0  0  0  0  0
  -24.8827  -25.2094   31.5723 C   0  0  0  0  0  0  0  0  0  0  0  0
  -27.9321  -19.5259   22.0299 N   0  0  0  0  0  0  0  0  0  0  0  0
  -25.9230  -11.6121   20.4450 N   0  0  0  0  0  0  0  0  0  0  0  0
  -27.6445  -17.6218   23.1360 N   0  0  0  0  0  0  0  0  0  0  0  0
  -26.2641  -12.9042   20.3033 N   0  0  0  0  0  0  0  0  0  0  0  0
  -23.2095  -23.5212   28.8862 N   0  0  0  0  0  0  0  0  0  0  0  0
  -30.0676  -13.1189   20.6849 N   0  0  0  0  0  0  0  0  0  0  0  0
  -25.3999  -15.1075   20.4002 N   0  0  0  0  0  0  0  0  0  0  0  0
  -21.8124  -12.5378   21.3611 N   0  0  0  0  0  0  0  0  0  0  0  0
  -22.5500  -25.7905   26.2131 N   0  0  0  0  0  0  0  0  0  0  0  0
  -23.2861  -23.3732   32.2671 N   0  0  0  0  0  0  0  0  0  0  0  0
  -30.7112  -14.5250   22.5143 N   0  0  0  0  0  0  0  0  0  0  0  0
  -22.1339  -20.2710   33.7221 N   0  3  0  0  0  0  0  0  0  0  0  0
  -22.5336  -14.6954   21.0722 O   0  0  0  0  0  0  0  0  0  0  0  0
  -24.4770  -24.6513   26.8545 O   0  0  0  0  0  0  0  0  0  0  0  0
  -22.1802  -25.0964   30.2630 O   0  0  0  0  0  0  0  0  0  0  0  0
  -24.2475  -21.2660   32.1539 O   0  0  0  0  0  0  0  0  0  0  0  0
  -32.1399  -12.9218   21.6771 O   0  0  0  0  0  0  0  0  0  0  0  0
  -21.7283   -6.9750   21.6495 O   0  0  0  0  0  0  0  0  0  0  0  0
  -25.8442  -18.7218   26.0442 O   0  0  0  0  0  0  0  0  0  1  0  0
  -18.3411   -6.8563   25.9989 F   0  0  0  0  0  0  0  0  0  0  0  0
  -22.0738   -5.1155   23.6659 F   0  0  0  0  0  0  0  0  0  0  0  0
  1  2  1  0  0  0  0
  1  5  2  0  0  0  0
  2  6  2  0  0  0  0
  3  8  2  0  0  0  0
  3 17  1  0  0  0  0
  4  9  1  0  0  0  0
  4 17  2  0  0  0  0
  5 19  1  0  0  0  0
  6 21  1  0  0  0  0
  7 10  2  0  0  0  0
  7 20  1  0  0  0  0
  8 23  1  0  0  0  0
  9 23  2  0  0  0  0
 10 24  1  0  0  0  0
 11 12  2  0  0  0  0
 11 25  1  0  0  0  0
 12 26  1  0  0  0  0
 13 22  1  0  0  0  0
 13 24  2  0  0  0  0
 14 26  2  0  0  0  0
 14 27  1  0  0  0  0
 15 29  2  0  0  0  0
 15 63  1  0  0  0  0
 16 63  2  0  0  0  0
 16 65  1  0  0  0  0
 17 28  1  0  0  0  0
 18 28  1  0  0  0  0
 18 30  2  0  0  0  0
 18 31  1  0  0  0  0
 19 21  2  0  0  0  0
 19 36  1  0  0  0  0
 20 22  2  0  0  0  0
 20 37  1  0  0  0  0
 21 45  1  0  0  0  0
 22 38  1  0  0  0  0
 23 80  1  0  0  0  0
 24 81  1  0  0  0  0
 25 27  2  0  0  0  0
 25 80  1  0  0  0  0
 26 82  1  0  0  0  0
 27 83  1  0  0  0  0
 28 64  2  0  0  0  0
 29 59  1  0  0  0  0
 29 65  1  0  0  0  0
 30 66  1  0  0  0  0
 30 69  1  0  0  0  0
 31 70  1  0  0  0  0
 31 75  2  0  0  0  0
 32 46  1  0  0  0  0
 32 71  1  0  0  0  0
 32 76  2  0  0  0  0
 33 60  1  0  0  0  0
 33 67  1  0  0  0  0
 33 77  2  0  0  0  0
 34 61  1  0  0  0  0
 34 72  1  0  0  0  0
 34 78  2  0  0  0  0
 35 68  1  0  0  0  0
 35 73  1  0  0  0  0
 35 79  2  0  0  0  0
 36 39  1  0  0  0  0
 37 46  1  0  0  0  0
 38 67  1  0  0  0  0
 39 41  1  0  0  0  0
 40 42  1  0  0  0  0
 40 43  1  0  0  0  0
 41 45  1  0  0  0  0
 42 47  1  0  0  0  0
 43 68  1  0  0  0  0
 44 47  1  0  0  0  0
 44 68  1  0  0  0  0
 45 71  1  0  0  0  0
 46 67  1  0  0  0  0
 47 66  1  0  0  0  0
 48 59  1  0  0  0  0
 49 61  1  0  0  0  0
 50 62  1  0  0  0  0
 51 62  1  0  0  0  0
 52 62  1  0  0  0  0
 53 73  1  0  0  0  0
 54 74  1  0  0  0  0
 55 56  1  0  0  0  0
 55 57  1  0  0  0  0
 56 65  1  0  0  0  0
 57 73  1  0  0  0  0
 58 59  1  0  0  0  0
 58 81  1  0  0  0  0
 60 62  1  0  0  0  0
 60 72  1  0  0  0  0
 61 74  1  0  0  0  0
 64 66  1  0  0  0  0
M  CHG  1  74   1
M  ISO  4  35 100  58 101  73 100  81 101
M  END
> <Batch ID>
0053

> <Smiles>
CNC(C)C(=O)NC(C(=O)N1Cc2cc([101O:1][101CH2:1]C(C)c3cncn3CCC[100N:0](C)[100C:0](=O)N3CCCC(n4nc(-c5ccc(Oc6ccc(F)cc6F)cc5)c(C(N)=O)c4N)C3)ccc2CC1C(=O)NC1CCCc2ccccc21)C(C)(C)C

> <Shape>
0.183

> <Color>
0.173

> <Negative vol penalty>
0.000

$$$$

  -OEChem-04052317383D

 82 90  0     1  0  0  0  0  0999 V2000
  -24.3523  -11.6805   20.3206 C   0  0  0  0  0  0  0  0  0  0  0  0
  -23.8167  -12.9611   20.4131 C   0  0  0  0  0  0  0  0  0  0  0  0
  -25.5426  -28.9647   20.3367 C   0  0  0  0  0  0  0  0  0  0  0  0
  -25.6433  -26.5913   19.8963 C   0  0  0  0  0  0  0  0  0  0  0  0
  -25.6885  -11.4593   20.6516 C   0  0  0  0  0  0  0  0  0  0  0  0
  -24.6169  -14.0212   20.8377 C   0  0  0  0  0  0  0  0  0  0  0  0
  -24.0289  -18.1634   17.9843 C   0  0  0  0  0  0  0  0  0  0  0  0
  -26.9231  -28.9865   20.5351 C   0  0  0  0  0  0  0  0  0  0  0  0
  -27.0239  -26.6131   20.0946 C   0  0  0  0  0  0  0  0  0  0  0  0
  -22.8929  -18.9385   18.2136 C   0  0  0  0  0  0  0  0  0  0  0  0
  -29.7140  -29.0031   18.6263 C   0  0  0  0  0  0  0  0  0  0  0  0
  -30.4389  -30.0327   18.0263 C   0  0  0  0  0  0  0  0  0  0  0  0
  -24.2136  -20.4768   19.5206 C   0  0  0  0  0  0  0  0  0  0  0  0
  -31.1970  -30.7657   20.2001 C   0  0  0  0  0  0  0  0  0  0  0  0
  -19.1103  -22.2517   17.9943 C   0  0  0  0  0  0  0  0  0  0  0  0
  -24.9027  -27.7671   20.0173 C   0  0  0  0  0  0  0  0  0  0  0  0
  -22.7884  -27.9394   18.6005 C   0  0  0  0  0  0  0  0  0  0  0  0
  -26.5080  -12.5190   21.0712 C   0  0  0  0  0  0  0  0  0  0  0  0
  -25.2657  -18.5340   18.5315 C   0  0  0  0  0  0  0  0  0  0  0  0
  -25.9650  -13.8138   21.1759 C   0  0  0  0  0  0  0  0  0  0  0  0
  -25.3643  -19.7061   19.2947 C   0  0  0  0  0  0  0  0  0  0  0  0
  -27.6637  -27.8107   20.4141 C   0  0  0  0  0  0  0  0  0  0  0  0
  -22.9846  -20.0938   18.9842 C   0  0  0  0  0  0  0  0  0  0  0  0
  -29.7305  -28.8548   20.0132 C   0  0  0  0  0  0  0  0  0  0  0  0
  -31.1805  -30.9139   18.8132 C   0  0  0  0  0  0  0  0  0  0  0  0
  -30.4720  -29.7361   20.8001 C   0  0  0  0  0  0  0  0  0  0  0  0
  -23.4766  -27.7438   19.8128 C   0  0  0  0  0  0  0  0  0  0  0  0
  -18.1075  -23.1134   18.3894 C   0  0  0  0  0  0  0  0  0  0  0  0
  -19.5655  -21.3810   18.9633 C   0  0  0  0  0  0  0  0  0  0  0  0
  -21.4617  -27.8200   18.9356 C   0  0  0  0  0  0  0  0  0  0  0  0
  -18.1098  -22.2350   20.4860 C   0  0  0  0  0  0  0  0  0  0  0  0
  -23.3023  -28.2051   17.2886 C   0  0  0  0  0  0  0  0  0  0  0  0
  -27.2945  -17.2112   20.5901 C   0  0  0  0  0  0  0  0  0  0  0  0
  -29.1582  -19.7390   19.7782 C   0  0  0  0  0  0  0  0  0  0  0  0
  -29.3540  -22.9232   18.5661 C   0  0  0  0  0  0  0  0  0  0  0  0
  -18.6178  -24.9910   23.3808 C   0  0  0  0  0  0  0  0  0  0  0  0
  -27.9338  -12.2226   21.4636 C   0  0  0  0  0  0  0  0  0  0  0  0
  -26.4870  -17.7015   18.2527 C   0  0  0  0  0  0  0  0  0  0  0  0
  -26.6728  -20.1585   19.8878 C   0  0  0  0  0  0  0  0  0  0  0  0
  -28.8141  -13.4670   21.5460 C   0  0  0  0  0  0  0  0  0  0  0  0
  -18.4531  -28.4609   22.6001 C   0  0  0  0  0  0  0  0  0  0  0  0
  -28.1021  -14.5746   22.3160 C   0  0  0  0  0  0  0  0  0  0  0  0
  -19.6598  -28.6882   21.6878 C   0  0  0  0  0  0  0  0  0  0  0  0
  -18.7589  -27.4439   23.6974 C   0  0  0  0  0  0  0  0  0  0  0  0
  -20.4907  -26.3798   22.3037 C   0  0  0  0  0  0  0  0  0  0  0  0
  -26.8077  -14.9939   21.6088 C   0  0  1  0  0  0  0  0  0  0  0  0
  -27.5919  -17.8966   19.2865 C   0  0  1  0  0  0  0  0  0  0  0  0
  -20.2133  -27.3559   21.1476 C   0  0  2  0  0  0  0  0  0  0  0  0
  -17.5504  -24.0916   17.4102 C   0  0  0  0  0  0  0  0  0  0  0  0
  -16.8671  -20.8808   22.2023 C   0  0  0  0  0  0  0  0  0  0  0  0
  -31.0101  -24.7375   18.0535 C   0  0  0  0  0  0  0  0  0  0  0  0
  -29.3937  -20.3619   22.7558 C   0  0  0  0  0  0  0  0  0  0  0  0
  -30.2196  -22.6442   22.1419 C   0  0  0  0  0  0  0  0  0  0  0  0
  -31.5186  -20.6255   21.4636 C   0  0  0  0  0  0  0  0  0  0  0  0
  -28.6378  -22.9255   15.6945 C   0  0  0  0  0  0  0  0  0  0  0  0
  -20.6539  -20.4045   18.6270 C   0  0  0  0  0  0  0  0  0  1  0  0
  -18.6021  -22.5453   22.9598 C   0  0  0  0  0  0  0  0  0  0  0  0
  -17.5521  -22.2227   21.8690 C   0  0  1  0  0  0  0  0  0  0  0  0
  -29.3370  -21.1455   20.2964 C   0  0  1  0  0  0  0  0  0  0  0  0
  -30.2440  -23.5440   17.5046 C   0  0  2  0  0  0  0  0  0  0  0  0
  -30.0921  -21.1850   21.6550 C   0  0  0  0  0  0  0  0  0  0  0  0
  -22.6551  -27.5176   20.8414 N   0  0  0  0  0  0  0  0  0  0  0  0
  -17.5819  -23.1323   19.6319 N   0  0  0  0  0  0  0  0  0  0  0  0
  -19.0862  -21.3453   20.2239 N   0  0  0  0  0  0  0  0  0  0  0  0
  -21.4370  -27.5703   20.2762 N   0  0  0  0  0  0  0  0  0  0  0  0
  -27.8372  -19.3075   19.5921 N   0  0  0  0  0  0  0  0  0  0  0  0
  -19.2785  -26.2025   23.1185 N   0  0  0  0  0  0  0  0  0  0  0  0
  -20.3257  -27.9055   18.2114 N   0  0  0  0  0  0  0  0  0  0  0  0
  -24.6908  -28.2959   17.1207 N   0  0  0  0  0  0  0  0  0  0  0  0
  -27.1032  -15.8473   20.4779 N   0  0  0  0  0  0  0  0  0  0  0  0
  -29.9899  -21.8943   19.2280 N   0  0  0  0  0  0  0  0  0  0  0  0
  -19.1722  -23.8630   22.7885 N   0  0  0  0  0  0  0  0  0  0  0  0
  -29.4261  -24.0028   16.3464 N   0  3  0  0  0  0  0  0  0  0  0  0
  -22.5518  -28.3737   16.2978 O   0  0  0  0  0  0  0  0  0  0  0  0
  -27.2439  -17.8707   21.6217 O   0  0  0  0  0  0  0  0  0  0  0  0
  -30.1540  -19.0510   19.5402 O   0  0  0  0  0  0  0  0  0  0  0  0
  -28.2103  -23.3145   18.7886 O   0  0  0  0  0  0  0  0  0  0  0  0
  -17.6055  -24.9207   24.0859 O   0  0  0  0  0  0  0  0  0  0  0  0
  -29.0108  -27.8317   20.6074 O   0  0  0  0  0  0  0  0  0  0  0  0
  -21.8772  -20.8518   19.2100 O   0  0  0  0  0  0  0  0  0  1  0  0
  -31.8778  -31.9016   18.2368 F   0  0  0  0  0  0  0  0  0  0  0  0
  -30.4927  -29.5979   22.1329 F   0  0  0  0  0  0  0  0  0  0  0  0
  1  2  1  0  0  0  0
  1  5  2  0  0  0  0
  2  6  2  0  0  0  0
  3  8  2  0  0  0  0
  3 16  1  0  0  0  0
  4  9  1  0  0  0  0
  4 16  2  0  0  0  0
  5 18  1  0  0  0  0
  6 20  1  0  0  0  0
  7 10  2  0  0  0  0
  7 19  1  0  0  0  0
  8 22  1  0  0  0  0
  9 22  2  0  0  0  0
 10 23  1  0  0  0  0
 11 12  2  0  0  0  0
 11 24  1  0  0  0  0
 12 25  1  0  0  0  0
 13 21  1  0  0  0  0
 13 23  2  0  0  0  0
 14 25  2  0  0  0  0
 14 26  1  0  0  0  0
 15 28  2  0  0  0  0
 15 29  1  0  0  0  0
 16 27  1  0  0  0  0
 17 27  1  0  0  0  0
 17 30  2  0  0  0  0
 17 32  1  0  0  0  0
 18 20  2  0  0  0  0
 18 37  1  0  0  0  0
 19 21  2  0  0  0  0
 19 38  1  0  0  0  0
 20 46  1  0  0  0  0
 21 39  1  0  0  0  0
 22 79  1  0  0  0  0
 23 80  1  0  0  0  0
 24 26  2  0  0  0  0
 24 79  1  0  0  0  0
 25 81  1  0  0  0  0
 26 82  1  0  0  0  0
 27 62  2  0  0  0  0
 28 49  1  0  0  0  0
 28 63  1  0  0  0  0
 29 56  1  0  0  0  0
 29 64  2  0  0  0  0
 30 65  1  0  0  0  0
 30 68  1  0  0  0  0
 31 58  1  0  0  0  0
 31 63  2  0  0  0  0
 31 64  1  0  0  0  0
 32 69  1  0  0  0  0
 32 74  2  0  0  0  0
 33 47  1  0  0  0  0
 33 70  1  0  0  0  0
 33 75  2  0  0  0  0
 34 59  1  0  0  0  0
 34 66  1  0  0  0  0
 34 76  2  0  0  0  0
 35 60  1  0  0  0  0
 35 71  1  0  0  0  0
 35 77  2  0  0  0  0
 36 67  1  0  0  0  0
 36 72  1  0  0  0  0
 36 78  2  0  0  0  0
 37 40  1  0  0  0  0
 38 47  1  0  0  0  0
 39 66  1  0  0  0  0
 40 42  1  0  0  0  0
 41 43  1  0  0  0  0
 41 44  1  0  0  0  0
 42 46  1  0  0  0  0
 43 48  1  0  0  0  0
 44 67  1  0  0  0  0
 45 48  1  0  0  0  0
 45 67  1  0  0  0  0
 46 70  1  0  0  0  0
 47 66  1  0  0  0  0
 48 65  1  0  0  0  0
 50 58  1  0  0  0  0
 51 60  1  0  0  0  0
 52 61  1  0  0  0  0
 53 61  1  0  0  0  0
 54 61  1  0  0  0  0
 55 73  1  0  0  0  0
 56 80  1  0  0  0  0
 57 58  1  0  0  0  0
 57 72  1  0  0  0  0
 59 61  1  0  0  0  0
 59 71  1  0  0  0  0
 60 73  1  0  0  0  0
 62 65  1  0  0  0  0
M  CHG  1  73   1
M  ISO  4  36 100  56 101  72 100  80 101
M  END
> <Batch ID>
0053

> <Smiles>
CNC(C)C(=O)NC(C(=O)N1Cc2cc([101O:1][101CH2:1]c3cc(C)nc(C(C)C[100NH:0][100C:0](=O)N4CCCC(n5nc(-c6ccc(Oc7ccc(F)cc7F)cc6)c(C(N)=O)c5N)C4)n3)ccc2CC1C(=O)NC1CCCc2ccccc21)C(C)(C)C

> <Shape>
0.202

> <Color>
0.066

> <Negative vol penalty>
0.000

$$$$

  -OEChem-04052317383D

 83 91  0     1  0  0  0  0  0999 V2000
  -20.1642   -8.6119   23.1354 C   0  0  0  0  0  0  0  0  0  0  0  0
  -20.9354   -9.6451   23.6582 C   0  0  0  0  0  0  0  0  0  0  0  0
  -27.3116  -29.9164   20.3979 C   0  0  0  0  0  0  0  0  0  0  0  0
  -28.4448  -29.2264   22.4171 C   0  0  0  0  0  0  0  0  0  0  0  0
  -20.6219   -7.8909   22.0333 C   0  0  0  0  0  0  0  0  0  0  0  0
  -22.1652   -9.9571   23.0798 C   0  0  0  0  0  0  0  0  0  0  0  0
  -22.8271  -14.9435   22.4936 C   0  0  0  0  0  0  0  0  0  0  0  0
  -26.5203  -30.7921   21.1413 C   0  0  0  0  0  0  0  0  0  0  0  0
  -27.6535  -30.1022   23.1604 C   0  0  0  0  0  0  0  0  0  0  0  0
  -23.1817  -15.6761   23.6255 C   0  0  0  0  0  0  0  0  0  0  0  0
  -23.8000  -30.6054   23.1385 C   0  0  0  0  0  0  0  0  0  0  0  0
  -22.4315  -30.6280   22.8698 C   0  0  0  0  0  0  0  0  0  0  0  0
  -25.4844  -15.6602   22.9069 C   0  0  0  0  0  0  0  0  0  0  0  0
  -22.5846  -32.9677   22.2871 C   0  0  0  0  0  0  0  0  0  0  0  0
  -26.0334  -20.9520   23.8394 C   0  0  0  0  0  0  0  0  0  0  0  0
  -28.2738  -29.1334   21.0358 C   0  0  0  0  0  0  0  0  0  0  0  0
  -30.3330  -28.5064   19.6669 C   0  0  0  0  0  0  0  0  0  0  0  0
  -21.8535   -8.2006   21.4351 C   0  0  0  0  0  0  0  0  0  0  0  0
  -23.8018  -14.5536   21.5638 C   0  0  0  0  0  0  0  0  0  0  0  0
  -22.6404   -9.2387   21.9694 C   0  0  0  0  0  0  0  0  0  0  0  0
  -25.1392  -14.9248   21.7628 C   0  0  0  0  0  0  0  0  0  0  0  0
  -26.6913  -30.8851   22.5225 C   0  0  0  0  0  0  0  0  0  0  0  0
  -24.5109  -16.0321   23.8338 C   0  0  0  0  0  0  0  0  0  0  0  0
  -24.5608  -31.7640   22.9816 C   0  0  0  0  0  0  0  0  0  0  0  0
  -21.8238  -31.8092   22.4441 C   0  0  0  0  0  0  0  0  0  0  0  0
  -23.9531  -32.9451   22.5559 C   0  0  0  0  0  0  0  0  0  0  0  0
  -29.0911  -28.2282   20.2686 C   0  0  0  0  0  0  0  0  0  0  0  0
  -27.1646  -20.3270   24.3825 C   0  0  0  0  0  0  0  0  0  0  0  0
  -30.6936  -27.3269   19.0625 C   0  0  0  0  0  0  0  0  0  0  0  0
  -31.0929  -29.7222   19.6554 C   0  0  0  0  0  0  0  0  0  0  0  0
  -24.8987  -11.7668   20.4990 C   0  0  0  0  0  0  0  0  0  0  0  0
  -29.1727  -21.6203   20.1732 C   0  0  0  0  0  0  0  0  0  0  0  0
  -26.5700  -13.6491   18.4531 C   0  0  0  0  0  0  0  0  0  0  0  0
  -27.9344  -16.7053   17.7860 C   0  0  0  0  0  0  0  0  0  0  0  0
  -22.3281   -7.3623   20.2746 C   0  0  0  0  0  0  0  0  0  0  0  0
  -23.3989  -13.7866   20.3343 C   0  0  0  0  0  0  0  0  0  0  0  0
  -26.2206  -14.5484   20.7843 C   0  0  0  0  0  0  0  0  0  0  0  0
  -23.4702   -8.0011   19.4886 C   0  0  0  0  0  0  0  0  0  0  0  0
  -28.8262  -23.4010   17.0830 C   0  0  0  0  0  0  0  0  0  0  0  0
  -24.5387   -8.5343   20.4377 C   0  0  0  0  0  0  0  0  0  0  0  0
  -28.9392  -24.8671   17.4989 C   0  0  0  0  0  0  0  0  0  0  0  0
  -28.1176  -22.5712   18.1491 C   0  0  0  0  0  0  0  0  0  0  0  0
  -28.8525  -24.1315   19.9231 C   0  0  0  0  0  0  0  0  0  0  0  0
  -23.9685   -9.6234   21.3544 C   0  0  1  0  0  0  0  0  0  0  0  0
  -24.5513  -13.0011   19.7158 C   0  0  1  0  0  0  0  0  0  0  0  0
  -29.5895  -24.9992   18.8875 C   0  0  2  0  0  0  0  0  0  0  0  0
  -29.2726  -17.9289   16.0512 C   0  0  0  0  0  0  0  0  0  0  0  0
  -31.2110  -20.7937   23.3187 C   0  0  0  0  0  0  0  0  0  0  0  0
  -29.0929  -12.2098   19.3875 C   0  0  0  0  0  0  0  0  0  0  0  0
  -30.4401  -14.0620   18.3762 C   0  0  0  0  0  0  0  0  0  0  0  0
  -28.9894  -12.6421   16.9264 C   0  0  0  0  0  0  0  0  0  0  0  0
  -25.7674  -18.6692   17.3325 C   0  0  0  0  0  0  0  0  0  0  0  0
  -29.1730  -18.4158   22.8683 C   0  0  0  0  0  0  0  0  0  0  0  0
  -28.5820  -20.5253   24.0521 C   0  0  0  0  0  0  0  0  0  0  0  0
  -29.8200  -21.8755   21.5110 C   0  0  0  0  0  0  0  0  0  0  0  0
  -24.5712  -18.7846   26.2011 C   0  0  0  0  0  0  0  0  0  0  0  0
  -23.8809  -17.6374   25.4715 C   0  0  0  0  0  0  0  0  0  1  0  0
  -27.9200  -14.3241   18.4819 C   0  0  1  0  0  0  0  0  0  0  0  0
  -27.8778  -17.5857   16.5507 C   0  0  2  0  0  0  0  0  0  0  0  0
  -30.2253  -20.5659   22.1816 C   0  0  2  0  0  0  0  0  0  0  0  0
  -29.0908  -13.3151   18.3126 C   0  0  0  0  0  0  0  0  0  0  0  0
  -24.9295  -20.4783   24.4241 N   0  0  0  0  0  0  0  0  0  0  0  0
  -28.6896  -26.9707   20.0649 N   0  0  0  0  0  0  0  0  0  0  0  0
  -26.7919  -19.4504   25.3191 N   0  0  0  0  0  0  0  0  0  0  0  0
  -29.6848  -26.4483   19.3283 N   0  0  0  0  0  0  0  0  0  0  0  0
  -25.4575  -19.5955   25.2871 N   0  0  0  0  0  0  0  0  0  0  0  0
  -25.7776  -13.7930   19.6008 N   0  0  0  0  0  0  0  0  0  0  0  0
  -28.7515  -22.7413   19.4577 N   0  0  0  0  0  0  0  0  0  0  0  0
  -31.7719  -26.9660   18.3349 N   0  0  0  0  0  0  0  0  0  0  0  0
  -30.5764  -30.8392   20.3261 N   0  0  0  0  0  0  0  0  0  0  0  0
  -23.8516  -10.8760   20.6390 N   0  0  0  0  0  0  0  0  0  0  0  0
  -27.8771  -15.3663   17.4619 N   0  0  0  0  0  0  0  0  0  0  0  0
  -27.1609  -18.8568   16.8530 N   0  3  0  0  0  0  0  0  0  0  0  0
  -29.0022  -19.9053   22.7546 N   0  3  1  0  0  0  0  0  0  0  0  0
  -32.1893  -29.8200   19.0539 O   0  0  0  0  0  0  0  0  0  0  0  0
  -26.0332  -11.6318   20.9423 O   0  0  0  0  0  0  0  0  0  0  0  0
  -29.0487  -20.4587   19.7763 O   0  0  0  0  0  0  0  0  0  0  0  0
  -26.2280  -13.0234   17.4465 O   0  0  0  0  0  0  0  0  0  0  0  0
  -28.0246  -17.1597   18.9244 O   0  0  0  0  0  0  0  0  0  0  0  0
  -25.9195  -31.7397   23.2481 O   0  0  0  0  0  0  0  0  0  0  0  0
  -24.8599  -16.7466   24.9381 O   0  0  0  0  0  0  0  0  0  1  0  0
  -20.5098  -31.8304   22.1845 F   0  0  0  0  0  0  0  0  0  0  0  0
  -24.6791  -34.0610   22.4022 F   0  0  0  0  0  0  0  0  0  0  0  0
  1  2  1  0  0  0  0
  1  5  2  0  0  0  0
  2  6  2  0  0  0  0
  3  8  2  0  0  0  0
  3 16  1  0  0  0  0
  4  9  1  0  0  0  0
  4 16  2  0  0  0  0
  5 18  1  0  0  0  0
  6 20  1  0  0  0  0
  7 10  2  0  0  0  0
  7 19  1  0  0  0  0
  8 22  1  0  0  0  0
  9 22  2  0  0  0  0
 10 23  1  0  0  0  0
 11 12  2  0  0  0  0
 11 24  1  0  0  0  0
 12 25  1  0  0  0  0
 13 21  1  0  0  0  0
 13 23  2  0  0  0  0
 14 25  2  0  0  0  0
 14 26  1  0  0  0  0
 15 28  1  0  0  0  0
 15 62  2  0  0  0  0
 16 27  1  0  0  0  0
 17 27  1  0  0  0  0
 17 29  2  0  0  0  0
 17 30  1  0  0  0  0
 18 20  2  0  0  0  0
 18 35  1  0  0  0  0
 19 21  2  0  0  0  0
 19 36  1  0  0  0  0
 20 44  1  0  0  0  0
 21 37  1  0  0  0  0
 22 80  1  0  0  0  0
 23 81  1  0  0  0  0
 24 26  2  0  0  0  0
 24 80  1  0  0  0  0
 25 82  1  0  0  0  0
 26 83  1  0  0  0  0
 27 63  2  0  0  0  0
 28 54  1  0  0  0  0
 28 64  2  0  0  0  0
 29 65  1  0  0  0  0
 29 69  1  0  0  0  0
 30 70  1  0  0  0  0
 30 75  2  0  0  0  0
 31 45  1  0  0  0  0
 31 71  1  0  0  0  0
 31 76  2  0  0  0  0
 32 55  1  0  0  0  0
 32 68  1  0  0  0  0
 32 77  2  0  0  0  0
 33 58  1  0  0  0  0
 33 67  1  0  0  0  0
 33 78  2  0  0  0  0
 34 59  1  0  0  0  0
 34 72  1  0  0  0  0
 34 79  2  0  0  0  0
 35 38  1  0  0  0  0
 36 45  1  0  0  0  0
 37 67  1  0  0  0  0
 38 40  1  0  0  0  0
 39 41  1  0  0  0  0
 39 42  1  0  0  0  0
 40 44  1  0  0  0  0
 41 46  1  0  0  0  0
 42 68  1  0  0  0  0
 43 46  1  0  0  0  0
 43 68  1  0  0  0  0
 44 71  1  0  0  0  0
 45 67  1  0  0  0  0
 46 65  1  0  0  0  0
 47 59  1  0  0  0  0
 48 60  1  0  0  0  0
 49 61  1  0  0  0  0
 50 61  1  0  0  0  0
 51 61  1  0  0  0  0
 52 73  1  0  0  0  0
 53 74  1  0  0  0  0
 54 74  1  0  0  0  0
 55 60  1  0  0  0  0
 56 57  1  0  0  0  0
 56 66  1  0  0  0  0
 57 81  1  0  0  0  0
 58 61  1  0  0  0  0
 58 72  1  0  0  0  0
 59 73  1  0  0  0  0
 60 74  1  0  0  0  0
 62 66  1  0  0  0  0
 63 65  1  0  0  0  0
 64 66  1  0  0  0  0
M  CHG  2  73   1  74   1
M  ISO  4  32 100  55 100  57 101  81 101
M  END
> <Batch ID>
0053

> <Smiles>
CNC(C)C(=O)NC(C(=O)N1Cc2cc([101O:1][101CH2:1]Cn3ncc(CN(C)C(C)[100CH2:0][100C:0](=O)N4CCCC(n5nc(-c6ccc(Oc7ccc(F)cc7F)cc6)c(C(N)=O)c5N)C4)n3)ccc2CC1C(=O)NC1CCCc2ccccc21)C(C)(C)C

> <Shape>
0.240

> <Color>
0.060

> <Negative vol penalty>
0.000

$$$$

  -OEChem-04052317383D

 80 88  0     1  0  0  0  0  0999 V2000
  -25.2631  -37.4980   23.3104 C   0  0  0  0  0  0  0  0  0  0  0  0
  -25.7790  -36.7271   22.2737 C   0  0  0  0  0  0  0  0  0  0  0  0
  -22.0567  -18.7175   23.6913 C   0  0  0  0  0  0  0  0  0  0  0  0
  -22.5393  -20.0617   21.7426 C   0  0  0  0  0  0  0  0  0  0  0  0
  -25.0227  -36.9184   24.5555 C   0  0  0  0  0  0  0  0  0  0  0  0
  -26.0559  -35.3763   22.4817 C   0  0  0  0  0  0  0  0  0  0  0  0
  -26.0767  -29.0886   19.0495 C   0  0  0  0  0  0  0  0  0  0  0  0
  -21.0724  -19.6281   24.0757 C   0  0  0  0  0  0  0  0  0  0  0  0
  -21.5550  -20.9722   22.1269 C   0  0  0  0  0  0  0  0  0  0  0  0
  -26.9143  -28.0037   18.7940 C   0  0  0  0  0  0  0  0  0  0  0  0
  -17.8799  -20.3507   23.2280 C   0  0  0  0  0  0  0  0  0  0  0  0
  -16.6536  -19.8391   23.6522 C   0  0  0  0  0  0  0  0  0  0  0  0
  -26.3844  -27.0915   20.9635 C   0  0  0  0  0  0  0  0  0  0  0  0
  -16.9556  -20.8984   25.8025 C   0  0  0  0  0  0  0  0  0  0  0  0
  -29.7888  -23.1195   20.8601 C   0  0  0  0  0  0  0  0  0  0  0  0
  -30.0027  -22.6411   18.7196 C   0  0  0  0  0  0  0  0  0  0  0  0
  -22.7902  -18.9343   22.5248 C   0  0  0  0  0  0  0  0  0  0  0  0
  -23.6450  -16.8626   21.3064 C   0  0  0  0  0  0  0  0  0  0  0  0
  -25.2876  -35.5577   24.7762 C   0  0  0  0  0  0  0  0  0  0  0  0
  -25.3940  -29.1887   20.2703 C   0  0  0  0  0  0  0  0  0  0  0  0
  -25.8200  -34.7784   23.7313 C   0  0  0  0  0  0  0  0  0  0  0  0
  -25.5368  -28.1773   21.2309 C   0  0  0  0  0  0  0  0  0  0  0  0
  -20.8216  -20.7554   23.2935 C   0  0  0  0  0  0  0  0  0  0  0  0
  -27.0705  -27.0064   19.7522 C   0  0  0  0  0  0  0  0  0  0  0  0
  -18.6441  -21.1362   24.0910 C   0  0  0  0  0  0  0  0  0  0  0  0
  -16.1914  -20.1130   24.9394 C   0  0  0  0  0  0  0  0  0  0  0  0
  -18.1819  -21.4100   25.3783 C   0  0  0  0  0  0  0  0  0  0  0  0
  -23.8074  -17.9944   22.1276 C   0  0  0  0  0  0  0  0  0  0  0  0
  -28.9621  -23.8987   20.0856 C   0  0  0  0  0  0  0  0  0  0  0  0
  -24.8996  -16.3082   21.2337 C   0  0  0  0  0  0  0  0  0  0  0  0
  -22.4656  -16.3575   20.6665 C   0  0  0  0  0  0  0  0  0  0  0  0
  -25.4007  -31.2608   22.6807 C   0  0  0  0  0  0  0  0  0  0  0  0
  -22.9451  -29.4303   23.7492 C   0  0  0  0  0  0  0  0  0  0  0  0
  -21.3700  -26.4028   23.7383 C   0  0  0  0  0  0  0  0  0  0  0  0
  -30.4035  -18.5786   21.8691 C   0  0  0  0  0  0  0  0  0  0  0  0
  -25.0558  -34.9868   26.1528 C   0  0  0  0  0  0  0  0  0  0  0  0
  -24.4734  -30.3517   20.5198 C   0  0  0  0  0  0  0  0  0  0  0  0
  -24.8103  -28.2275   22.5494 C   0  0  0  0  0  0  0  0  0  0  0  0
  -25.0246  -33.4609   26.1821 C   0  0  0  0  0  0  0  0  0  0  0  0
  -28.9641  -15.9026   23.7250 C   0  0  0  0  0  0  0  0  0  0  0  0
  -26.1916  -32.8876   25.3845 C   0  0  0  0  0  0  0  0  0  0  0  0
  -27.4647  -16.0332   23.4519 C   0  0  0  0  0  0  0  0  0  0  0  0
  -29.6400  -17.2682   23.8278 C   0  0  0  0  0  0  0  0  0  0  0  0
  -27.9080  -18.2929   22.4051 C   0  0  0  0  0  0  0  0  0  0  0  0
  -26.1100  -33.3040   23.9109 C   0  0  1  0  0  0  0  0  0  0  0  0
  -24.2274  -30.6116   22.0028 C   0  0  1  0  0  0  0  0  0  0  0  0
  -27.1928  -16.9414   22.2376 C   0  0  2  0  0  0  0  0  0  0  0  0
  -19.4086  -25.1991   24.7391 C   0  0  0  0  0  0  0  0  0  0  0  0
  -32.7965  -21.6786   19.6764 C   0  0  0  0  0  0  0  0  0  0  0  0
  -24.4617  -29.1536   26.3823 C   0  0  0  0  0  0  0  0  0  0  0  0
  -22.9685  -27.2286   26.9596 C   0  0  0  0  0  0  0  0  0  0  0  0
  -21.9976  -29.5026   26.6293 C   0  0  0  0  0  0  0  0  0  0  0  0
  -20.1497  -25.9415   21.0818 C   0  0  0  0  0  0  0  0  0  0  0  0
  -28.0015  -24.9615   20.5317 C   0  0  0  0  0  0  0  0  0  1  0  0
  -31.0117  -19.9083   19.8638 C   0  0  0  0  0  0  0  0  0  0  0  0
  -22.8263  -28.2055   24.6236 C   0  0  1  0  0  0  0  0  0  0  0  0
  -19.9090  -26.0281   23.5664 C   0  0  2  0  0  0  0  0  0  0  0  0
  -31.4397  -21.3209   20.2924 C   0  0  2  0  0  0  0  0  0  0  0  0
  -23.0788  -28.5223   26.1247 C   0  0  0  0  0  0  0  0  0  0  0  0
  -29.0998  -23.5958   18.7541 N   0  0  0  0  0  0  0  0  0  0  0  0
  -25.0659  -18.1511   22.5467 N   0  0  0  0  0  0  0  0  0  0  0  0
  -30.4487  -22.3186   19.9711 N   0  0  0  0  0  0  0  0  0  0  0  0
  -25.7057  -17.1103   21.9868 N   0  0  0  0  0  0  0  0  0  0  0  0
  -23.9266  -29.3880   22.7488 N   0  0  0  0  0  0  0  0  0  0  0  0
  -29.3439  -18.0795   22.6445 N   0  0  0  0  0  0  0  0  0  0  0  0
  -25.3808  -15.2178   20.5999 N   0  0  0  0  0  0  0  0  0  0  0  0
  -21.2599  -17.0491   20.8458 N   0  0  0  0  0  0  0  0  0  0  0  0
  -25.1246  -32.5054   23.2138 N   0  0  0  0  0  0  0  0  0  0  0  0
  -21.5138  -27.6319   24.3466 N   0  0  0  0  0  0  0  0  0  0  0  0
  -30.0353  -19.3326   20.7616 N   0  0  0  0  0  0  0  0  0  0  0  0
  -19.7206  -25.2372   22.3175 N   0  3  0  0  0  0  0  0  0  0  0  0
  -22.4772  -15.3142   19.9700 O   0  0  0  0  0  0  0  0  0  0  0  0
  -26.4765  -30.6752   22.7187 O   0  0  0  0  0  0  0  0  0  0  0  0
  -22.1899  -30.3865   23.9418 O   0  0  0  0  0  0  0  0  0  0  0  0
  -22.2914  -25.6762   23.3731 O   0  0  0  0  0  0  0  0  0  0  0  0
  -31.5897  -18.3634   22.1405 O   0  0  0  0  0  0  0  0  0  0  0  0
  -19.8610  -21.6440   23.6681 O   0  0  0  0  0  0  0  0  0  0  0  0
  -27.8880  -25.9468   19.5057 O   0  0  0  0  0  0  0  0  0  1  0  0
  -15.0130  -19.6229   25.3462 F   0  0  0  0  0  0  0  0  0  0  0  0
  -18.9111  -22.1649   26.2115 F   0  0  0  0  0  0  0  0  0  0  0  0
  1  2  1  0  0  0  0
  1  5  2  0  0  0  0
  2  6  2  0  0  0  0
  3  8  2  0  0  0  0
  3 17  1  0  0  0  0
  4  9  1  0  0  0  0
  4 17  2  0  0  0  0
  5 19  1  0  0  0  0
  6 21  1  0  0  0  0
  7 10  2  0  0  0  0
  7 20  1  0  0  0  0
  8 23  1  0  0  0  0
  9 23  2  0  0  0  0
 10 24  1  0  0  0  0
 11 12  2  0  0  0  0
 11 25  1  0  0  0  0
 12 26  1  0  0  0  0
 13 22  1  0  0  0  0
 13 24  2  0  0  0  0
 14 26  2  0  0  0  0
 14 27  1  0  0  0  0
 15 29  2  0  0  0  0
 15 62  1  0  0  0  0
 16 60  2  0  0  0  0
 16 62  1  0  0  0  0
 17 28  1  0  0  0  0
 18 28  1  0  0  0  0
 18 30  2  0  0  0  0
 18 31  1  0  0  0  0
 19 21  2  0  0  0  0
 19 36  1  0  0  0  0
 20 22  2  0  0  0  0
 20 37  1  0  0  0  0
 21 45  1  0  0  0  0
 22 38  1  0  0  0  0
 23 77  1  0  0  0  0
 24 78  1  0  0  0  0
 25 27  2  0  0  0  0
 25 77  1  0  0  0  0
 26 79  1  0  0  0  0
 27 80  1  0  0  0  0
 28 61  2  0  0  0  0
 29 54  1  0  0  0  0
 29 60  1  0  0  0  0
 30 63  1  0  0  0  0
 30 66  1  0  0  0  0
 31 67  1  0  0  0  0
 31 72  2  0  0  0  0
 32 46  1  0  0  0  0
 32 68  1  0  0  0  0
 32 73  2  0  0  0  0
 33 56  1  0  0  0  0
 33 64  1  0  0  0  0
 33 74  2  0  0  0  0
 34 57  1  0  0  0  0
 34 69  1  0  0  0  0
 34 75  2  0  0  0  0
 35 65  1  0  0  0  0
 35 70  1  0  0  0  0
 35 76  2  0  0  0  0
 36 39  1  0  0  0  0
 37 46  1  0  0  0  0
 38 64  1  0  0  0  0
 39 41  1  0  0  0  0
 40 42  1  0  0  0  0
 40 43  1  0  0  0  0
 41 45  1  0  0  0  0
 42 47  1  0  0  0  0
 43 65  1  0  0  0  0
 44 47  1  0  0  0  0
 44 65  1  0  0  0  0
 45 68  1  0  0  0  0
 46 64  1  0  0  0  0
 47 63  1  0  0  0  0
 48 57  1  0  0  0  0
 49 58  1  0  0  0  0
 50 59  1  0  0  0  0
 51 59  1  0  0  0  0
 52 59  1  0  0  0  0
 53 71  1  0  0  0  0
 54 78  1  0  0  0  0
 55 58  1  0  0  0  0
 55 70  1  0  0  0  0
 56 59  1  0  0  0  0
 56 69  1  0  0  0  0
 57 71  1  0  0  0  0
 58 62  1  0  0  0  0
 61 63  1  0  0  0  0
M  CHG  1  71   1
M  ISO  4  35 100  54 101  70 100  78 101
M  END
> <Batch ID>
0053

> <Smiles>
CNC(C)C(=O)NC(C(=O)N1Cc2cc([101O:1][101CH2:1]c3cn(C(C)C[100NH:0][100C:0](=O)N4CCCC(n5nc(-c6ccc(Oc7ccc(F)cc7F)cc6)c(C(N)=O)c5N)C4)cn3)ccc2CC1C(=O)NC1CCCc2ccccc21)C(C)(C)C

> <Shape>
0.204

> <Color>
0.091

> <Negative vol penalty>
0.000

$$$$

  -OEChem-04052317383D

 84 92  0     1  0  0  0  0  0999 V2000
  -19.3373  -33.6156   21.1978 C   0  0  0  0  0  0  0  0  0  0  0  0
  -20.6693  -33.3138   20.9331 C   0  0  0  0  0  0  0  0  0  0  0  0
  -25.3214  -16.3640   21.7301 C   0  0  0  0  0  0  0  0  0  0  0  0
  -24.8410  -16.7424   19.3928 C   0  0  0  0  0  0  0  0  0  0  0  0
  -18.6180  -32.8471   22.1120 C   0  0  0  0  0  0  0  0  0  0  0  0
  -21.2832  -32.2439   21.5834 C   0  0  0  0  0  0  0  0  0  0  0  0
  -25.5469  -28.4957   19.2862 C   0  0  0  0  0  0  0  0  0  0  0  0
  -24.1233  -15.6621   21.8627 C   0  0  0  0  0  0  0  0  0  0  0  0
  -23.6429  -16.0405   19.5254 C   0  0  0  0  0  0  0  0  0  0  0  0
  -26.9358  -28.4698   19.4057 C   0  0  0  0  0  0  0  0  0  0  0  0
  -20.6297  -14.0388   19.1626 C   0  0  0  0  0  0  0  0  0  0  0  0
  -20.3098  -13.1078   18.1744 C   0  0  0  0  0  0  0  0  0  0  0  0
  -26.7458  -26.8618   21.1939 C   0  0  0  0  0  0  0  0  0  0  0  0
  -22.3291  -11.8803   18.6773 C   0  0  0  0  0  0  0  0  0  0  0  0
  -32.0624  -25.5731   19.3348 C   0  0  0  0  0  0  0  0  0  0  0  0
  -25.6802  -16.9042   20.4951 C   0  0  0  0  0  0  0  0  0  0  0  0
  -28.1773  -17.1044   20.0134 C   0  0  0  0  0  0  0  0  0  0  0  0
  -19.2205  -31.7612   22.7667 C   0  0  0  0  0  0  0  0  0  0  0  0
  -24.7453  -27.7118   20.1284 C   0  0  0  0  0  0  0  0  0  0  0  0
  -20.5716  -31.4609   22.5083 C   0  0  0  0  0  0  0  0  0  0  0  0
  -25.3472  -26.8777   21.0813 C   0  0  0  0  0  0  0  0  0  0  0  0
  -23.2841  -15.5004   20.7604 C   0  0  0  0  0  0  0  0  0  0  0  0
  -27.5353  -27.6549   20.3616 C   0  0  0  0  0  0  0  0  0  0  0  0
  -21.7993  -13.8906   19.9081 C   0  0  0  0  0  0  0  0  0  0  0  0
  -21.1595  -12.0285   17.9318 C   0  0  0  0  0  0  0  0  0  0  0  0
  -22.6490  -12.8113   19.6655 C   0  0  0  0  0  0  0  0  0  0  0  0
  -26.9174  -17.6298   20.3576 C   0  0  0  0  0  0  0  0  0  0  0  0
  -32.4667  -24.3963   19.9315 C   0  0  0  0  0  0  0  0  0  0  0  0
  -31.6018  -26.5503   20.1934 C   0  0  0  0  0  0  0  0  0  0  0  0
  -29.0155  -18.1925   20.0165 C   0  0  0  0  0  0  0  0  0  0  0  0
  -31.9598  -25.2086   21.9931 C   0  0  0  0  0  0  0  0  0  0  0  0
  -28.5561  -15.7537   19.7174 C   0  0  0  0  0  0  0  0  0  0  0  0
  -22.5115  -28.3227   22.3057 C   0  0  0  0  0  0  0  0  0  0  0  0
  -22.2016  -25.0938   22.3269 C   0  0  0  0  0  0  0  0  0  0  0  0
  -23.6127  -22.0439   21.7322 C   0  0  0  0  0  0  0  0  0  0  0  0
  -29.7141  -23.5708   18.3125 C   0  0  0  0  0  0  0  0  0  0  0  0
  -18.4163  -30.9886   23.7820 C   0  0  0  0  0  0  0  0  0  0  0  0
  -23.2498  -27.7309   19.9689 C   0  0  0  0  0  0  0  0  0  0  0  0
  -24.5322  -26.0016   21.9961 C   0  0  0  0  0  0  0  0  0  0  0  0
  -19.0320  -29.6408   24.1489 C   0  0  0  0  0  0  0  0  0  0  0  0
  -28.3100  -22.9098   21.6731 C   0  0  0  0  0  0  0  0  0  0  0  0
  -20.5252  -29.7925   24.4214 C   0  0  0  0  0  0  0  0  0  0  0  0
  -27.8644  -21.4523   21.5671 C   0  0  0  0  0  0  0  0  0  0  0  0
  -28.2778  -23.6125   20.3193 C   0  0  0  0  0  0  0  0  0  0  0  0
  -28.6103  -21.4573   19.1538 C   0  0  0  0  0  0  0  0  0  0  0  0
  -21.2654  -30.2930   23.1751 C   0  0  1  0  0  0  0  0  0  0  0  0
  -22.5092  -27.2798   21.2241 C   0  0  1  0  0  0  0  0  0  0  0  0
  -28.6757  -20.7074   20.4928 C   0  0  2  0  0  0  0  0  0  0  0  0
  -31.9059  -25.0081   23.4698 C   0  0  0  0  0  0  0  0  0  0  0  0
  -30.6619  -22.2694   15.4522 C   0  0  0  0  0  0  0  0  0  0  0  0
  -23.1274  -19.5862   21.8801 C   0  0  0  0  0  0  0  0  0  0  0  0
  -22.5899  -25.2016   25.3514 C   0  0  0  0  0  0  0  0  0  0  0  0
  -23.0443  -22.7398   25.3108 C   0  0  0  0  0  0  0  0  0  0  0  0
  -20.8221  -23.6084   24.5827 C   0  0  0  0  0  0  0  0  0  0  0  0
  -23.9698  -21.6799   18.8169 C   0  0  0  0  0  0  0  0  0  0  0  0
  -32.9808  -23.2811   19.0840 C   0  0  0  0  0  0  0  0  0  0  0  0
  -31.1390  -27.8736   19.6340 C   0  0  0  0  0  0  0  0  0  0  0  0
  -31.2687  -23.2612   16.4240 C   0  0  0  0  0  0  0  0  0  0  0  0
  -31.8885  -22.3127   18.6153 C   0  0  0  0  0  0  0  0  0  0  0  0
  -29.6515  -27.8729   19.2986 C   0  0  0  0  0  0  0  0  0  1  0  0
  -22.8383  -23.9637   23.0993 C   0  0  1  0  0  0  0  0  0  0  0  0
  -23.0966  -20.8219   20.9941 C   0  0  2  0  0  0  0  0  0  0  0  0
  -22.3392  -23.8962   24.5702 C   0  0  0  0  0  0  0  0  0  0  0  0
  -26.9479  -18.9490   20.5644 N   0  0  0  0  0  0  0  0  0  0  0  0
  -32.4288  -24.1791   21.2625 N   0  0  0  0  0  0  0  0  0  0  0  0
  -31.5364  -26.4012   21.5328 N   0  0  0  0  0  0  0  0  0  0  0  0
  -28.2371  -19.2617   20.3496 N   0  0  0  0  0  0  0  0  0  0  0  0
  -23.0735  -26.0602   21.8056 N   0  0  0  0  0  0  0  0  0  0  0  0
  -29.0202  -22.8613   19.3065 N   0  0  0  0  0  0  0  0  0  0  0  0
  -30.3351  -18.3294   19.7667 N   0  0  0  0  0  0  0  0  0  0  0  0
  -27.5700  -14.7587   19.7597 N   0  0  0  0  0  0  0  0  0  0  0  0
  -21.4562  -29.2117   22.2324 N   0  0  0  0  0  0  0  0  0  0  0  0
  -22.5895  -22.7508   22.3276 N   0  0  0  0  0  0  0  0  0  0  0  0
  -30.8767  -22.9780   17.7973 N   0  0  0  0  0  0  0  0  0  0  0  0
  -23.9294  -20.5557   19.7872 N   0  3  0  0  0  0  0  0  0  0  0  0
  -29.7374  -15.4358   19.4400 O   0  0  0  0  0  0  0  0  0  0  0  0
  -23.4039  -28.3201   23.1456 O   0  0  0  0  0  0  0  0  0  0  0  0
  -20.9764  -25.1144   22.1850 O   0  0  0  0  0  0  0  0  0  0  0  0
  -24.8047  -22.3395   21.7792 O   0  0  0  0  0  0  0  0  0  0  0  0
  -29.3222  -24.6756   17.9155 O   0  0  0  0  0  0  0  0  0  0  0  0
  -22.1150  -14.8153   20.8893 O   0  0  0  0  0  0  0  0  0  0  0  0
  -28.8906  -27.6282   20.4807 O   0  0  0  0  0  0  0  0  0  1  0  0
  -20.8515  -11.1337   16.9839 F   0  0  0  0  0  0  0  0  0  0  0  0
  -23.7734  -12.6630   20.3793 F   0  0  0  0  0  0  0  0  0  0  0  0
  1  2  1  0  0  0  0
  1  5  2  0  0  0  0
  2  6  2  0  0  0  0
  3  8  2  0  0  0  0
  3 16  1  0  0  0  0
  4  9  1  0  0  0  0
  4 16  2  0  0  0  0
  5 18  1  0  0  0  0
  6 20  1  0  0  0  0
  7 10  2  0  0  0  0
  7 19  1  0  0  0  0
  8 22  1  0  0  0  0
  9 22  2  0  0  0  0
 10 23  1  0  0  0  0
 11 12  2  0  0  0  0
 11 24  1  0  0  0  0
 12 25  1  0  0  0  0
 13 21  1  0  0  0  0
 13 23  2  0  0  0  0
 14 25  2  0  0  0  0
 14 26  1  0  0  0  0
 15 28  1  0  0  0  0
 15 29  2  0  0  0  0
 16 27  1  0  0  0  0
 17 27  1  0  0  0  0
 17 30  2  0  0  0  0
 17 32  1  0  0  0  0
 18 20  2  0  0  0  0
 18 37  1  0  0  0  0
 19 21  2  0  0  0  0
 19 38  1  0  0  0  0
 20 46  1  0  0  0  0
 21 39  1  0  0  0  0
 22 81  1  0  0  0  0
 23 82  1  0  0  0  0
 24 26  2  0  0  0  0
 24 81  1  0  0  0  0
 25 83  1  0  0  0  0
 26 84  1  0  0  0  0
 27 64  2  0  0  0  0
 28 56  1  0  0  0  0
 28 65  2  0  0  0  0
 29 57  1  0  0  0  0
 29 66  1  0  0  0  0
 30 67  1  0  0  0  0
 30 70  1  0  0  0  0
 31 49  1  0  0  0  0
 31 65  1  0  0  0  0
 31 66  2  0  0  0  0
 32 71  1  0  0  0  0
 32 76  2  0  0  0  0
 33 47  1  0  0  0  0
 33 72  1  0  0  0  0
 33 77  2  0  0  0  0
 34 61  1  0  0  0  0
 34 68  1  0  0  0  0
 34 78  2  0  0  0  0
 35 62  1  0  0  0  0
 35 73  1  0  0  0  0
 35 79  2  0  0  0  0
 36 69  1  0  0  0  0
 36 74  1  0  0  0  0
 36 80  2  0  0  0  0
 37 40  1  0  0  0  0
 38 47  1  0  0  0  0
 39 68  1  0  0  0  0
 40 42  1  0  0  0  0
 41 43  1  0  0  0  0
 41 44  1  0  0  0  0
 42 46  1  0  0  0  0
 43 48  1  0  0  0  0
 44 69  1  0  0  0  0
 45 48  1  0  0  0  0
 45 69  1  0  0  0  0
 46 72  1  0  0  0  0
 47 68  1  0  0  0  0
 48 67  1  0  0  0  0
 50 58  1  0  0  0  0
 51 62  1  0  0  0  0
 52 63  1  0  0  0  0
 53 63  1  0  0  0  0
 54 63  1  0  0  0  0
 55 75  1  0  0  0  0
 56 59  1  0  0  0  0
 57 60  1  0  0  0  0
 58 74  1  0  0  0  0
 59 74  1  0  0  0  0
 60 82  1  0  0  0  0
 61 63  1  0  0  0  0
 61 73  1  0  0  0  0
 62 75  1  0  0  0  0
 64 67  1  0  0  0  0
M  CHG  1  75   1
M  ISO  4  36 100  60 101  74 100  82 101
M  END
> <Batch ID>
0053

> <Smiles>
CC[100N:0](CCc1cc(C[101CH2:1][101O:1]c2ccc3c(c2)CN(C(=O)C(NC(=O)C(C)NC)C(C)(C)C)C(C(=O)NC2CCCc4ccccc42)C3)nc(C)n1)[100C:0](=O)N1CCCC(n2nc(-c3ccc(Oc4ccc(F)cc4F)cc3)c(C(N)=O)c2N)C1

> <Shape>
0.202

> <Color>
0.083

> <Negative vol penalty>
0.000

$$$$

  -OEChem-04052317383D

 83 91  0     1  0  0  0  0  0999 V2000
  -32.8542  -24.4936   13.4439 C   0  0  0  0  0  0  0  0  0  0  0  0
  -32.0459  -23.6423   14.1904 C   0  0  0  0  0  0  0  0  0  0  0  0
  -22.9101   -9.9773   20.0645 C   0  0  0  0  0  0  0  0  0  0  0  0
  -23.6300  -10.0910   22.3679 C   0  0  0  0  0  0  0  0  0  0  0  0
  -33.3523  -25.6621   14.0188 C   0  0  0  0  0  0  0  0  0  0  0  0
  -31.7360  -23.9585   15.5127 C   0  0  0  0  0  0  0  0  0  0  0  0
  -26.8358  -23.2571   16.5808 C   0  0  0  0  0  0  0  0  0  0  0  0
  -22.0959   -8.8874   20.3727 C   0  0  0  0  0  0  0  0  0  0  0  0
  -22.8158   -9.0011   22.6762 C   0  0  0  0  0  0  0  0  0  0  0  0
  -26.4137  -21.9470   16.8028 C   0  0  0  0  0  0  0  0  0  0  0  0
  -22.9214   -5.6386   22.3401 C   0  0  0  0  0  0  0  0  0  0  0  0
  -23.4637   -4.6290   23.1353 C   0  0  0  0  0  0  0  0  0  0  0  0
  -26.4970  -22.3299   19.1831 C   0  0  0  0  0  0  0  0  0  0  0  0
  -21.7466   -5.0111   24.7914 C   0  0  0  0  0  0  0  0  0  0  0  0
  -28.8818  -17.7147   18.9187 C   0  0  0  0  0  0  0  0  0  0  0  0
  -23.6772  -10.5790   21.0621 C   0  0  0  0  0  0  0  0  0  0  0  0
  -24.1680  -13.0672   20.7867 C   0  0  0  0  0  0  0  0  0  0  0  0
  -33.0405  -25.9976   15.3457 C   0  0  0  0  0  0  0  0  0  0  0  0
  -27.1026  -24.1115   17.6603 C   0  0  0  0  0  0  0  0  0  0  0  0
  -32.2315  -25.1319   16.1063 C   0  0  0  0  0  0  0  0  0  0  0  0
  -26.9199  -23.6511   18.9721 C   0  0  0  0  0  0  0  0  0  0  0  0
  -22.0488   -8.3994   21.6785 C   0  0  0  0  0  0  0  0  0  0  0  0
  -26.2470  -21.4823   18.1041 C   0  0  0  0  0  0  0  0  0  0  0  0
  -21.7918   -6.3345   22.7706 C   0  0  0  0  0  0  0  0  0  0  0  0
  -22.8762   -4.3152   24.3609 C   0  0  0  0  0  0  0  0  0  0  0  0
  -21.2044   -6.0208   23.9962 C   0  0  0  0  0  0  0  0  0  0  0  0
  -24.5188  -11.7045   20.7442 C   0  0  0  0  0  0  0  0  0  0  0  0
  -27.5024  -17.9402   19.0868 C   0  0  0  0  0  0  0  0  0  0  0  0
  -29.4141  -17.8929   20.1723 C   0  0  0  0  0  0  0  0  0  0  0  0
  -25.3082  -13.7275   20.3987 C   0  0  0  0  0  0  0  0  0  0  0  0
  -22.9230  -13.6812   21.1451 C   0  0  0  0  0  0  0  0  0  0  0  0
  -29.6756  -25.6444   18.7250 C   0  0  0  0  0  0  0  0  0  0  0  0
  -27.5588  -26.9427   20.8121 C   0  0  0  0  0  0  0  0  0  0  0  0
  -24.5818  -26.6790   22.4597 C   0  0  0  0  0  0  0  0  0  0  0  0
  -30.8381  -14.4411   20.6348 C   0  0  0  0  0  0  0  0  0  0  0  0
  -33.6410  -27.2476   15.9387 C   0  0  0  0  0  0  0  0  0  0  0  0
  -27.5315  -25.5302   17.4037 C   0  0  0  0  0  0  0  0  0  0  0  0
  -27.1734  -24.5347   20.1652 C   0  0  0  0  0  0  0  0  0  0  0  0
  -32.9592  -27.6984   17.2280 C   0  0  0  0  0  0  0  0  0  0  0  0
  -29.6038  -11.9744   18.3835 C   0  0  0  0  0  0  0  0  0  0  0  0
  -32.7604  -26.5144   18.1690 C   0  0  0  0  0  0  0  0  0  0  0  0
  -28.1445  -11.7924   18.8045 C   0  0  0  0  0  0  0  0  0  0  0  0
  -30.5117  -12.2206   19.5864 C   0  0  0  0  0  0  0  0  0  0  0  0
  -28.6327  -13.1486   20.8833 C   0  0  0  0  0  0  0  0  0  0  0  0
  -31.8528  -25.4529   17.5359 C   0  0  1  0  0  0  0  0  0  0  0  0
  -28.2692  -26.1542   18.5843 C   0  0  1  0  0  0  0  0  0  0  0  0
  -27.6701  -12.9533   19.6994 C   0  0  2  0  0  0  0  0  0  0  0  0
  -23.1402  -27.8783   24.1273 C   0  0  0  0  0  0  0  0  0  0  0  0
  -31.4028  -19.1062   21.2991 C   0  0  0  0  0  0  0  0  0  0  0  0
  -31.7878  -17.4622   19.4812 C   0  0  0  0  0  0  0  0  0  0  0  0
  -29.4137  -26.0407   23.0607 C   0  0  0  0  0  0  0  0  0  0  0  0
  -27.5253  -26.3944   24.6661 C   0  0  0  0  0  0  0  0  0  0  0  0
  -28.4339  -28.3211   23.3680 C   0  0  0  0  0  0  0  0  0  0  0  0
  -28.4109  -18.4795   22.4002 C   0  0  0  0  0  0  0  0  0  0  0  0
  -22.3611  -26.9463   20.5217 C   0  0  0  0  0  0  0  0  0  0  0  0
  -26.4253  -17.8802   18.0312 C   0  0  0  0  0  0  0  0  0  0  0  0
  -31.0085  -16.6608   21.7317 C   0  0  0  0  0  0  0  0  0  0  0  0
  -26.2045  -19.2269   17.3509 C   0  0  0  0  0  0  0  0  0  1  0  0
  -27.0448  -26.5727   22.1825 C   0  0  1  0  0  0  0  0  0  0  0  0
  -23.4462  -27.6678   22.6526 C   0  0  2  0  0  0  0  0  0  0  0  0
  -30.8032  -17.7976   20.6570 C   0  0  0  0  0  0  0  0  0  0  0  0
  -28.1014  -26.8147   23.2971 C   0  0  0  0  0  0  0  0  0  0  0  0
  -25.7828  -11.5092   20.3593 N   0  0  0  0  0  0  0  0  0  0  0  0
  -27.1787  -18.2388   20.3478 N   0  0  0  0  0  0  0  0  0  0  0  0
  -28.3622  -18.2020   20.9835 N   0  0  0  0  0  0  0  0  0  0  0  0
  -26.2363  -12.7579   20.1564 N   0  0  0  0  0  0  0  0  0  0  0  0
  -27.5973  -25.9118   19.8626 N   0  0  0  0  0  0  0  0  0  0  0  0
  -30.0072  -13.3348   20.3927 N   0  0  0  0  0  0  0  0  0  0  0  0
  -25.5973  -15.0371   20.2444 N   0  0  0  0  0  0  0  0  0  0  0  0
  -21.8540  -12.8555   21.5192 N   0  0  0  0  0  0  0  0  0  0  0  0
  -30.4667  -25.8619   17.6131 N   0  0  0  0  0  0  0  0  0  0  0  0
  -25.8019  -27.3144   22.3662 N   0  0  0  0  0  0  0  0  0  0  0  0
  -30.2801  -15.4559   21.4026 N   0  0  0  0  0  0  0  0  0  0  0  0
  -22.2102  -27.1744   21.9819 N   0  3  0  0  0  0  0  0  0  0  0  0
  -22.7581  -14.9244   21.1181 O   0  0  0  0  0  0  0  0  0  0  0  0
  -30.0181  -25.0959   19.7659 O   0  0  0  0  0  0  0  0  0  0  0  0
  -27.9065  -28.1052   20.5902 O   0  0  0  0  0  0  0  0  0  0  0  0
  -24.4046  -25.4641   22.4018 O   0  0  0  0  0  0  0  0  0  0  0  0
  -31.9899  -14.5212   20.1945 O   0  0  0  0  0  0  0  0  0  0  0  0
  -21.2542   -7.3361   21.9797 O   0  0  0  0  0  0  0  0  0  0  0  0
  -25.8357  -20.2038   18.3235 O   0  0  0  0  0  0  0  0  0  1  0  0
  -23.3961   -3.3446   25.1236 F   0  0  0  0  0  0  0  0  0  0  0  0
  -20.1183   -6.6851   24.4146 F   0  0  0  0  0  0  0  0  0  0  0  0
  1  2  1  0  0  0  0
  1  5  2  0  0  0  0
  2  6  2  0  0  0  0
  3  8  2  0  0  0  0
  3 16  1  0  0  0  0
  4  9  1  0  0  0  0
  4 16  2  0  0  0  0
  5 18  1  0  0  0  0
  6 20  1  0  0  0  0
  7 10  2  0  0  0  0
  7 19  1  0  0  0  0
  8 22  1  0  0  0  0
  9 22  2  0  0  0  0
 10 23  1  0  0  0  0
 11 12  2  0  0  0  0
 11 24  1  0  0  0  0
 12 25  1  0  0  0  0
 13 21  1  0  0  0  0
 13 23  2  0  0  0  0
 14 25  2  0  0  0  0
 14 26  1  0  0  0  0
 15 28  1  0  0  0  0
 15 29  2  0  0  0  0
 16 27  1  0  0  0  0
 17 27  1  0  0  0  0
 17 30  2  0  0  0  0
 17 31  1  0  0  0  0
 18 20  2  0  0  0  0
 18 36  1  0  0  0  0
 19 21  2  0  0  0  0
 19 37  1  0  0  0  0
 20 45  1  0  0  0  0
 21 38  1  0  0  0  0
 22 80  1  0  0  0  0
 23 81  1  0  0  0  0
 24 26  2  0  0  0  0
 24 80  1  0  0  0  0
 25 82  1  0  0  0  0
 26 83  1  0  0  0  0
 27 63  2  0  0  0  0
 28 56  1  0  0  0  0
 28 64  2  0  0  0  0
 29 61  1  0  0  0  0
 29 65  1  0  0  0  0
 30 66  1  0  0  0  0
 30 69  1  0  0  0  0
 31 70  1  0  0  0  0
 31 75  2  0  0  0  0
 32 46  1  0  0  0  0
 32 71  1  0  0  0  0
 32 76  2  0  0  0  0
 33 59  1  0  0  0  0
 33 67  1  0  0  0  0
 33 77  2  0  0  0  0
 34 60  1  0  0  0  0
 34 72  1  0  0  0  0
 34 78  2  0  0  0  0
 35 68  1  0  0  0  0
 35 73  1  0  0  0  0
 35 79  2  0  0  0  0
 36 39  1  0  0  0  0
 37 46  1  0  0  0  0
 38 67  1  0  0  0  0
 39 41  1  0  0  0  0
 40 42  1  0  0  0  0
 40 43  1  0  0  0  0
 41 45  1  0  0  0  0
 42 47  1  0  0  0  0
 43 68  1  0  0  0  0
 44 47  1  0  0  0  0
 44 68  1  0  0  0  0
 45 71  1  0  0  0  0
 46 67  1  0  0  0  0
 47 66  1  0  0  0  0
 48 60  1  0  0  0  0
 49 61  1  0  0  0  0
 50 61  1  0  0  0  0
 51 62  1  0  0  0  0
 52 62  1  0  0  0  0
 53 62  1  0  0  0  0
 54 65  1  0  0  0  0
 55 74  1  0  0  0  0
 56 58  1  0  0  0  0
 57 61  1  0  0  0  0
 57 73  1  0  0  0  0
 58 81  1  0  0  0  0
 59 62  1  0  0  0  0
 59 72  1  0  0  0  0
 60 74  1  0  0  0  0
 63 66  1  0  0  0  0
 64 65  1  0  0  0  0
M  CHG  1  74   1
M  ISO  4  35 100  58 101  73 100  81 101
M  END
> <Batch ID>
0053

> <Smiles>
CNC(C)C(=O)NC(C(=O)N1Cc2cc([101O:1][101CH2:1]Cc3cc(C(C)(C)C[100NH:0][100C:0](=O)N4CCCC(n5nc(-c6ccc(Oc7ccc(F)cc7F)cc6)c(C(N)=O)c5N)C4)n(C)n3)ccc2CC1C(=O)NC1CCCc2ccccc21)C(C)(C)C

> <Shape>
0.270

> <Color>
0.204

> <Negative vol penalty>
0.000

$$$$

  -OEChem-04052317383D

 80 88  0     1  0  0  0  0  0999 V2000
  -17.7884  -25.5226   21.6276 C   0  0  0  0  0  0  0  0  0  0  0  0
  -19.1383  -25.2028   21.5225 C   0  0  0  0  0  0  0  0  0  0  0  0
  -23.2706  -17.8435   24.6338 C   0  0  0  0  0  0  0  0  0  0  0  0
  -22.9924  -19.3264   22.7468 C   0  0  0  0  0  0  0  0  0  0  0  0
  -17.4054  -26.7957   22.0474 C   0  0  0  0  0  0  0  0  0  0  0  0
  -20.1060  -26.1566   21.8361 C   0  0  0  0  0  0  0  0  0  0  0  0
  -23.8470  -24.2665   24.6781 C   0  0  0  0  0  0  0  0  0  0  0  0
  -22.4774  -18.6859   25.4128 C   0  0  0  0  0  0  0  0  0  0  0  0
  -22.1991  -20.1688   23.5258 C   0  0  0  0  0  0  0  0  0  0  0  0
  -24.8180  -23.5055   24.0285 C   0  0  0  0  0  0  0  0  0  0  0  0
  -19.8041  -22.5249   24.9154 C   0  0  0  0  0  0  0  0  0  0  0  0
  -18.6240  -23.0099   24.3518 C   0  0  0  0  0  0  0  0  0  0  0  0
  -26.2936  -25.4138   24.0116 C   0  0  0  0  0  0  0  0  0  0  0  0
  -17.8266  -20.7463   24.0737 C   0  0  0  0  0  0  0  0  0  0  0  0
  -27.8842  -20.7442   20.8186 C   0  0  0  0  0  0  0  0  0  0  0  0
  -23.5281  -18.1637   23.3008 C   0  0  0  0  0  0  0  0  0  0  0  0
  -23.9179  -16.2103   21.7071 C   0  0  0  0  0  0  0  0  0  0  0  0
  -18.3689  -27.7625   22.3756 C   0  0  0  0  0  0  0  0  0  0  0  0
  -24.0884  -25.6122   24.9901 C   0  0  0  0  0  0  0  0  0  0  0  0
  -19.7355  -27.4443   22.2594 C   0  0  0  0  0  0  0  0  0  0  0  0
  -25.3251  -26.1889   24.6674 C   0  0  0  0  0  0  0  0  0  0  0  0
  -21.9416  -19.8485   24.8588 C   0  0  0  0  0  0  0  0  0  0  0  0
  -26.0404  -24.0799   23.6925 C   0  0  0  0  0  0  0  0  0  0  0  0
  -19.9956  -21.1505   25.0581 C   0  0  0  0  0  0  0  0  0  0  0  0
  -17.6352  -22.1206   23.9310 C   0  0  0  0  0  0  0  0  0  0  0  0
  -19.0068  -20.2613   24.6372 C   0  0  0  0  0  0  0  0  0  0  0  0
  -24.3479  -17.2943   22.4958 C   0  0  0  0  0  0  0  0  0  0  0  0
  -27.8411  -21.3301   22.0979 C   0  0  0  0  0  0  0  0  0  0  0  0
  -29.1778  -20.3021   20.6867 C   0  0  0  0  0  0  0  0  0  0  0  0
  -25.0699  -15.7150   21.1469 C   0  0  0  0  0  0  0  0  0  0  0  0
  -22.5953  -15.6972   21.4994 C   0  0  0  0  0  0  0  0  0  0  0  0
  -22.7608  -28.3795   24.1636 C   0  0  0  0  0  0  0  0  0  0  0  0
  -24.8193  -29.5787   26.3651 C   0  0  0  0  0  0  0  0  0  0  0  0
  -30.3913  -18.2610   20.0013 C   0  0  0  0  0  0  0  0  0  0  0  0
  -27.7295  -29.2160   28.1104 C   0  0  0  0  0  0  0  0  0  0  0  0
  -17.9066  -29.1402   22.7793 C   0  0  0  0  0  0  0  0  0  0  0  0
  -23.0409  -26.4120   25.7149 C   0  0  0  0  0  0  0  0  0  0  0  0
  -25.6415  -27.6238   24.9984 C   0  0  0  0  0  0  0  0  0  0  0  0
  -18.9936  -29.9745   23.4521 C   0  0  0  0  0  0  0  0  0  0  0  0
  -29.7625  -15.3189   21.9478 C   0  0  0  0  0  0  0  0  0  0  0  0
  -20.2977  -29.8866   22.6656 C   0  0  0  0  0  0  0  0  0  0  0  0
  -28.2695  -15.4082   22.2613 C   0  0  0  0  0  0  0  0  0  0  0  0
  -30.4105  -16.6996   21.9186 C   0  0  0  0  0  0  0  0  0  0  0  0
  -28.2598  -17.7506   21.2927 C   0  0  0  0  0  0  0  0  0  0  0  0
  -20.8148  -28.4439   22.6144 C   0  0  1  0  0  0  0  0  0  0  0  0
  -23.2002  -27.9172   25.5241 C   0  0  1  0  0  0  0  0  0  0  0  0
  -27.5603  -16.3798   21.3014 C   0  0  2  0  0  0  0  0  0  0  0  0
  -29.1660  -30.3780   29.8085 C   0  0  0  0  0  0  0  0  0  0  0  0
  -31.0688  -20.4236   19.0429 C   0  0  0  0  0  0  0  0  0  0  0  0
  -28.9789  -19.2589   18.3290 C   0  0  0  0  0  0  0  0  0  0  0  0
  -25.8081  -31.4996   24.2105 C   0  0  0  0  0  0  0  0  0  0  0  0
  -27.8204  -31.9472   25.6314 C   0  0  0  0  0  0  0  0  0  0  0  0
  -25.5452  -32.5212   26.4780 C   0  0  0  0  0  0  0  0  0  0  0  0
  -31.1858  -20.3824   22.1954 C   0  0  0  0  0  0  0  0  0  0  0  0
  -27.4432  -26.9938   30.0440 C   0  0  0  0  0  0  0  0  0  0  0  0
  -26.6659  -21.9806   22.7666 C   0  0  0  0  0  0  0  0  0  1  0  0
  -26.2379  -30.0941   26.3332 C   0  0  1  0  0  0  0  0  0  0  0  0
  -28.0451  -29.3744   29.5868 C   0  0  2  0  0  0  0  0  0  0  0  0
  -29.8548  -19.6051   19.5778 C   0  0  0  0  0  0  0  0  0  0  0  0
  -26.3465  -31.4890   25.6552 C   0  0  0  0  0  0  0  0  0  0  0  0
  -25.6699  -17.4772   22.4440 N   0  0  0  0  0  0  0  0  0  0  0  0
  -29.0142  -21.2674   22.7335 N   0  0  0  0  0  0  0  0  0  0  0  0
  -29.8065  -20.6367   21.8499 N   0  0  0  0  0  0  0  0  0  0  0  0
  -26.0806  -16.5014   21.6161 N   0  0  0  0  0  0  0  0  0  0  0  0
  -24.5825  -28.3664   25.7018 N   0  0  0  0  0  0  0  0  0  0  0  0
  -29.6944  -17.5994   21.0126 N   0  0  0  0  0  0  0  0  0  0  0  0
  -25.3069  -14.6877   20.3038 N   0  0  0  0  0  0  0  0  0  0  0  0
  -21.5251  -16.3248   22.1514 N   0  0  0  0  0  0  0  0  0  0  0  0
  -21.4428  -28.0873   23.8686 N   0  0  0  0  0  0  0  0  0  0  0  0
  -26.7154  -30.0607   27.7113 N   0  0  0  0  0  0  0  0  0  0  0  0
  -28.4615  -28.0681   30.1706 N   0  3  0  0  0  0  0  0  0  0  0  0
  -22.3711  -14.7011   20.7706 O   0  0  0  0  0  0  0  0  0  0  0  0
  -23.5580  -28.9598   23.4360 O   0  0  0  0  0  0  0  0  0  0  0  0
  -23.9547  -30.2243   26.9628 O   0  0  0  0  0  0  0  0  0  0  0  0
  -31.3981  -17.8127   19.4467 O   0  0  0  0  0  0  0  0  0  0  0  0
  -28.3257  -28.4248   27.3830 O   0  0  0  0  0  0  0  0  0  0  0  0
  -21.1674  -20.6706   25.6185 O   0  0  0  0  0  0  0  0  0  0  0  0
  -26.9895  -23.3395   23.0579 O   0  0  0  0  0  0  0  0  0  1  0  0
  -16.5013  -22.5865   23.3912 F   0  0  0  0  0  0  0  0  0  0  0  0
  -19.1844  -18.9399   24.7728 F   0  0  0  0  0  0  0  0  0  0  0  0
  1  2  1  0  0  0  0
  1  5  2  0  0  0  0
  2  6  2  0  0  0  0
  3  8  2  0  0  0  0
  3 16  1  0  0  0  0
  4  9  1  0  0  0  0
  4 16  2  0  0  0  0
  5 18  1  0  0  0  0
  6 20  1  0  0  0  0
  7 10  2  0  0  0  0
  7 19  1  0  0  0  0
  8 22  1  0  0  0  0
  9 22  2  0  0  0  0
 10 23  1  0  0  0  0
 11 12  2  0  0  0  0
 11 24  1  0  0  0  0
 12 25  1  0  0  0  0
 13 21  1  0  0  0  0
 13 23  2  0  0  0  0
 14 25  2  0  0  0  0
 14 26  1  0  0  0  0
 15 28  1  0  0  0  0
 15 29  2  0  0  0  0
 16 27  1  0  0  0  0
 17 27  1  0  0  0  0
 17 30  2  0  0  0  0
 17 31  1  0  0  0  0
 18 20  2  0  0  0  0
 18 36  1  0  0  0  0
 19 21  2  0  0  0  0
 19 37  1  0  0  0  0
 20 45  1  0  0  0  0
 21 38  1  0  0  0  0
 22 77  1  0  0  0  0
 23 78  1  0  0  0  0
 24 26  2  0  0  0  0
 24 77  1  0  0  0  0
 25 79  1  0  0  0  0
 26 80  1  0  0  0  0
 27 61  2  0  0  0  0
 28 56  1  0  0  0  0
 28 62  2  0  0  0  0
 29 59  1  0  0  0  0
 29 63  1  0  0  0  0
 30 64  1  0  0  0  0
 30 67  1  0  0  0  0
 31 68  1  0  0  0  0
 31 72  2  0  0  0  0
 32 46  1  0  0  0  0
 32 69  1  0  0  0  0
 32 73  2  0  0  0  0
 33 57  1  0  0  0  0
 33 65  1  0  0  0  0
 33 74  2  0  0  0  0
 34 59  1  0  0  0  0
 34 66  1  0  0  0  0
 34 75  2  0  0  0  0
 35 58  1  0  0  0  0
 35 70  1  0  0  0  0
 35 76  2  0  0  0  0
 36 39  1  0  0  0  0
 37 46  1  0  0  0  0
 38 65  1  0  0  0  0
 39 41  1  0  0  0  0
 40 42  1  0  0  0  0
 40 43  1  0  0  0  0
 41 45  1  0  0  0  0
 42 47  1  0  0  0  0
 43 66  1  0  0  0  0
 44 47  1  0  0  0  0
 44 66  1  0  0  0  0
 45 69  1  0  0  0  0
 46 65  1  0  0  0  0
 47 64  1  0  0  0  0
 48 58  1  0  0  0  0
 49 59  1  0  0  0  0
 50 59  1  0  0  0  0
 51 60  1  0  0  0  0
 52 60  1  0  0  0  0
 53 60  1  0  0  0  0
 54 63  1  0  0  0  0
 55 71  1  0  0  0  0
 56 78  1  0  0  0  0
 57 60  1  0  0  0  0
 57 70  1  0  0  0  0
 58 71  1  0  0  0  0
 61 64  1  0  0  0  0
 62 63  1  0  0  0  0
M  CHG  1  71   1
M  ISO  4  34 100  56 101  59 100  78 101
M  END
> <Batch ID>
0053

> <Smiles>
CNC(C)C(=O)NC(C(=O)N1Cc2cc([101O:1][101CH2:1]c3cc([100C:0](C)(C)[100C:0](=O)N4CCCC(n5nc(-c6ccc(Oc7ccc(F)cc7F)cc6)c(C(N)=O)c5N)C4)n(C)n3)ccc2CC1C(=O)NC1CCCc2ccccc21)C(C)(C)C

> <Shape>
0.179

> <Color>
0.098

> <Negative vol penalty>
0.000

$$$$

  -OEChem-04052317383D

 80 88  0     1  0  0  0  0  0999 V2000
  -18.2948  -33.1088   23.4373 C   0  0  0  0  0  0  0  0  0  0  0  0
  -19.5332  -33.1998   22.8100 C   0  0  0  0  0  0  0  0  0  0  0  0
  -28.3961  -17.9852   19.0075 C   0  0  0  0  0  0  0  0  0  0  0  0
  -29.2904  -18.6489   21.1515 C   0  0  0  0  0  0  0  0  0  0  0  0
  -17.9880  -31.9915   24.2129 C   0  0  0  0  0  0  0  0  0  0  0  0
  -20.4659  -32.1740   22.9588 C   0  0  0  0  0  0  0  0  0  0  0  0
  -25.7020  -28.8289   19.3936 C   0  0  0  0  0  0  0  0  0  0  0  0
  -28.0980  -16.7236   19.5223 C   0  0  0  0  0  0  0  0  0  0  0  0
  -28.9923  -17.3872   21.6663 C   0  0  0  0  0  0  0  0  0  0  0  0
  -27.0397  -28.4634   19.5371 C   0  0  0  0  0  0  0  0  0  0  0  0
  -27.4302  -13.2088   20.1732 C   0  0  0  0  0  0  0  0  0  0  0  0
  -27.7562  -12.0964   19.3972 C   0  0  0  0  0  0  0  0  0  0  0  0
  -26.3698  -26.5445   20.8363 C   0  0  0  0  0  0  0  0  0  0  0  0
  -30.0826  -12.7469   19.4422 C   0  0  0  0  0  0  0  0  0  0  0  0
  -31.8282  -26.5533   19.1450 C   0  0  0  0  0  0  0  0  0  0  0  0
  -32.7780  -26.7447   21.1244 C   0  0  0  0  0  0  0  0  0  0  0  0
  -28.9923  -18.9479   19.8220 C   0  0  0  0  0  0  0  0  0  0  0  0
  -28.4686  -21.3864   19.2866 C   0  0  0  0  0  0  0  0  0  0  0  0
  -18.9138  -30.9471   24.3634 C   0  0  0  0  0  0  0  0  0  0  0  0
  -24.6871  -28.0597   19.9806 C   0  0  0  0  0  0  0  0  0  0  0  0
  -20.1717  -31.0423   23.7382 C   0  0  0  0  0  0  0  0  0  0  0  0
  -25.0198  -26.9010   20.6966 C   0  0  0  0  0  0  0  0  0  0  0  0
  -28.3961  -16.4246   20.8517 C   0  0  0  0  0  0  0  0  0  0  0  0
  -27.3740  -27.3227   20.2609 C   0  0  0  0  0  0  0  0  0  0  0  0
  -28.4304  -14.0902   20.5835 C   0  0  0  0  0  0  0  0  0  0  0  0
  -29.0824  -11.8655   19.0318 C   0  0  0  0  0  0  0  0  0  0  0  0
  -29.7565  -13.8593   20.2181 C   0  0  0  0  0  0  0  0  0  0  0  0
  -29.3009  -20.2511   19.2906 C   0  0  0  0  0  0  0  0  0  0  0  0
  -31.0187  -27.2281   20.0281 C   0  0  0  0  0  0  0  0  0  0  0  0
  -29.2187  -22.3599   18.6733 C   0  0  0  0  0  0  0  0  0  0  0  0
  -27.1365  -21.5468   19.7921 C   0  0  0  0  0  0  0  0  0  0  0  0
  -22.4595  -28.5916   22.1848 C   0  0  0  0  0  0  0  0  0  0  0  0
  -21.4782  -25.6142   21.3517 C   0  0  0  0  0  0  0  0  0  0  0  0
  -22.2618  -22.5736   20.0148 C   0  0  0  0  0  0  0  0  0  0  0  0
  -35.3094  -22.6670   18.0833 C   0  0  0  0  0  0  0  0  0  0  0  0
  -18.5550  -29.7811   25.2503 C   0  0  0  0  0  0  0  0  0  0  0  0
  -23.2472  -28.4527   19.7940 C   0  0  0  0  0  0  0  0  0  0  0  0
  -23.9666  -26.0298   21.3292 C   0  0  0  0  0  0  0  0  0  0  0  0
  -19.4563  -28.5651   25.0521 C   0  0  0  0  0  0  0  0  0  0  0  0
  -32.7096  -22.9476   15.4634 C   0  0  0  0  0  0  0  0  0  0  0  0
  -20.9222  -28.9860   25.0244 C   0  0  0  0  0  0  0  0  0  0  0  0
  -31.4912  -22.3152   16.1341 C   0  0  0  0  0  0  0  0  0  0  0  0
  -34.0159  -22.3722   16.0021 C   0  0  0  0  0  0  0  0  0  0  0  0
  -32.9271  -21.8226   18.1530 C   0  0  0  0  0  0  0  0  0  0  0  0
  -21.2006  -29.9387   23.8555 C   0  0  1  0  0  0  0  0  0  0  0  0
  -22.3275  -27.8800   20.8680 C   0  0  1  0  0  0  0  0  0  0  0  0
  -31.5955  -22.4136   17.6660 C   0  0  2  0  0  0  0  0  0  0  0  0
  -21.2610  -20.3303   19.5016 C   0  0  0  0  0  0  0  0  0  0  0  0
  -21.6297  -24.8730   24.3077 C   0  0  0  0  0  0  0  0  0  0  0  0
  -21.5591  -22.4624   23.6352 C   0  0  0  0  0  0  0  0  0  0  0  0
  -19.6364  -23.9604   23.1042 C   0  0  0  0  0  0  0  0  0  0  0  0
  -36.5563  -23.6270   19.9816 C   0  0  0  0  0  0  0  0  0  0  0  0
  -22.7736  -22.8791   17.1159 C   0  0  0  0  0  0  0  0  0  0  0  0
  -29.6541  -27.8023   19.7843 C   0  0  0  0  0  0  0  0  0  1  0  0
  -34.1065  -25.5343   19.3775 C   0  0  0  0  0  0  0  0  0  0  0  0
  -34.1354  -24.0757   19.8269 C   0  0  0  0  0  0  0  0  0  0  0  0
  -21.7976  -24.2140   21.8170 C   0  0  1  0  0  0  0  0  0  0  0  0
  -21.5634  -21.7225   18.9696 C   0  0  2  0  0  0  0  0  0  0  0  0
  -21.1759  -23.8947   23.2059 C   0  0  0  0  0  0  0  0  0  0  0  0
  -31.6158  -27.3442   21.2584 N   0  0  0  0  0  0  0  0  0  0  0  0
  -30.4888  -20.4806   18.7247 N   0  0  0  0  0  0  0  0  0  0  0  0
  -32.9517  -26.2504   19.8615 N   0  0  0  0  0  0  0  0  0  0  0  0
  -30.4083  -21.7713   18.3592 N   0  0  0  0  0  0  0  0  0  0  0  0
  -22.5734  -26.4593   21.1239 N   0  0  0  0  0  0  0  0  0  0  0  0
  -34.0701  -22.4389   17.4628 N   0  0  0  0  0  0  0  0  0  0  0  0
  -28.9702  -23.6534   18.3774 N   0  0  0  0  0  0  0  0  0  0  0  0
  -26.5127  -20.4448   20.3927 N   0  0  0  0  0  0  0  0  0  0  0  0
  -21.2960  -29.2012   22.6140 N   0  0  0  0  0  0  0  0  0  0  0  0
  -21.3643  -23.3200   20.7486 N   0  0  0  0  0  0  0  0  0  0  0  0
  -35.2955  -23.3563   19.3054 N   0  0  0  0  0  0  0  0  0  0  0  0
  -22.4183  -21.5867   17.7565 N   0  3  0  0  0  0  0  0  0  0  0  0
  -26.5117  -22.6305   19.6989 O   0  0  0  0  0  0  0  0  0  0  0  0
  -23.5368  -28.5867   22.7689 O   0  0  0  0  0  0  0  0  0  0  0  0
  -20.3006  -25.9436   21.1893 O   0  0  0  0  0  0  0  0  0  0  0  0
  -23.4813  -22.5732   20.1677 O   0  0  0  0  0  0  0  0  0  0  0  0
  -36.3686  -22.2851   17.5694 O   0  0  0  0  0  0  0  0  0  0  0  0
  -28.1052  -15.1937   21.3545 O   0  0  0  0  0  0  0  0  0  0  0  0
  -28.6790  -26.9640   20.4031 O   0  0  0  0  0  0  0  0  0  1  0  0
  -29.3955  -10.7964   18.2880 F   0  0  0  0  0  0  0  0  0  0  0  0
  -30.7219  -14.7019   20.6103 F   0  0  0  0  0  0  0  0  0  0  0  0
  1  2  1  0  0  0  0
  1  5  2  0  0  0  0
  2  6  2  0  0  0  0
  3  8  2  0  0  0  0
  3 17  1  0  0  0  0
  4  9  1  0  0  0  0
  4 17  2  0  0  0  0
  5 19  1  0  0  0  0
  6 21  1  0  0  0  0
  7 10  2  0  0  0  0
  7 20  1  0  0  0  0
  8 23  1  0  0  0  0
  9 23  2  0  0  0  0
 10 24  1  0  0  0  0
 11 12  2  0  0  0  0
 11 25  1  0  0  0  0
 12 26  1  0  0  0  0
 13 22  1  0  0  0  0
 13 24  2  0  0  0  0
 14 26  2  0  0  0  0
 14 27  1  0  0  0  0
 15 29  2  0  0  0  0
 15 62  1  0  0  0  0
 16 60  2  0  0  0  0
 16 62  1  0  0  0  0
 17 28  1  0  0  0  0
 18 28  1  0  0  0  0
 18 30  2  0  0  0  0
 18 31  1  0  0  0  0
 19 21  2  0  0  0  0
 19 36  1  0  0  0  0
 20 22  2  0  0  0  0
 20 37  1  0  0  0  0
 21 45  1  0  0  0  0
 22 38  1  0  0  0  0
 23 77  1  0  0  0  0
 24 78  1  0  0  0  0
 25 27  2  0  0  0  0
 25 77  1  0  0  0  0
 26 79  1  0  0  0  0
 27 80  1  0  0  0  0
 28 61  2  0  0  0  0
 29 54  1  0  0  0  0
 29 60  1  0  0  0  0
 30 63  1  0  0  0  0
 30 66  1  0  0  0  0
 31 67  1  0  0  0  0
 31 72  2  0  0  0  0
 32 46  1  0  0  0  0
 32 68  1  0  0  0  0
 32 73  2  0  0  0  0
 33 57  1  0  0  0  0
 33 64  1  0  0  0  0
 33 74  2  0  0  0  0
 34 58  1  0  0  0  0
 34 69  1  0  0  0  0
 34 75  2  0  0  0  0
 35 65  1  0  0  0  0
 35 70  1  0  0  0  0
 35 76  2  0  0  0  0
 36 39  1  0  0  0  0
 37 46  1  0  0  0  0
 38 64  1  0  0  0  0
 39 41  1  0  0  0  0
 40 42  1  0  0  0  0
 40 43  1  0  0  0  0
 41 45  1  0  0  0  0
 42 47  1  0  0  0  0
 43 65  1  0  0  0  0
 44 47  1  0  0  0  0
 44 65  1  0  0  0  0
 45 68  1  0  0  0  0
 46 64  1  0  0  0  0
 47 63  1  0  0  0  0
 48 58  1  0  0  0  0
 49 59  1  0  0  0  0
 50 59  1  0  0  0  0
 51 59  1  0  0  0  0
 52 70  1  0  0  0  0
 53 71  1  0  0  0  0
 54 78  1  0  0  0  0
 55 56  1  0  0  0  0
 55 62  1  0  0  0  0
 56 70  1  0  0  0  0
 57 59  1  0  0  0  0
 57 69  1  0  0  0  0
 58 71  1  0  0  0  0
 61 63  1  0  0  0  0
M  CHG  1  71   1
M  ISO  4  35 100  54 101  70 100  78 101
M  END
> <Batch ID>
0053

> <Smiles>
CNC(C)C(=O)NC(C(=O)N1Cc2cc([101O:1][101CH2:1]c3cn(CC[100N:0](C)[100C:0](=O)N4CCCC(n5nc(-c6ccc(Oc7ccc(F)cc7F)cc6)c(C(N)=O)c5N)C4)cn3)ccc2CC1C(=O)NC1CCCc2ccccc21)C(C)(C)C

> <Shape>
0.220

> <Color>
0.090

> <Negative vol penalty>
0.000

$$$$

  -OEChem-04052317383D

 81 89  0     1  0  0  0  0  0999 V2000
  -23.7082  -35.2984   20.4057 C   0  0  0  0  0  0  0  0  0  0  0  0
  -24.6176  -34.2562   20.5549 C   0  0  0  0  0  0  0  0  0  0  0  0
  -25.0989  -13.2387   22.1196 C   0  0  0  0  0  0  0  0  0  0  0  0
  -25.0931  -13.9991   19.8264 C   0  0  0  0  0  0  0  0  0  0  0  0
  -22.4750  -35.2440   21.0540 C   0  0  0  0  0  0  0  0  0  0  0  0
  -24.2948  -33.1596   21.3534 C   0  0  0  0  0  0  0  0  0  0  0  0
  -25.4873  -28.7486   19.1701 C   0  0  0  0  0  0  0  0  0  0  0  0
  -24.2178  -12.2117   21.7813 C   0  0  0  0  0  0  0  0  0  0  0  0
  -24.2120  -12.9721   19.4881 C   0  0  0  0  0  0  0  0  0  0  0  0
  -26.8276  -28.3658   19.1988 C   0  0  0  0  0  0  0  0  0  0  0  0
  -24.3813   -9.1756   20.3021 C   0  0  0  0  0  0  0  0  0  0  0  0
  -24.6521   -7.8999   20.7969 C   0  0  0  0  0  0  0  0  0  0  0  0
  -26.3623  -26.8979   21.0557 C   0  0  0  0  0  0  0  0  0  0  0  0
  -22.5250   -7.8928   21.9427 C   0  0  0  0  0  0  0  0  0  0  0  0
  -29.7075  -23.9765   20.3594 C   0  0  0  0  0  0  0  0  0  0  0  0
  -25.5365  -14.1325   21.1422 C   0  0  0  0  0  0  0  0  0  0  0  0
  -27.8532  -15.1483   21.4722 C   0  0  0  0  0  0  0  0  0  0  0  0
  -22.1330  -34.1417   21.8530 C   0  0  0  0  0  0  0  0  0  0  0  0
  -24.5751  -28.2163   20.0926 C   0  0  0  0  0  0  0  0  0  0  0  0
  -23.0564  -33.0911   22.0140 C   0  0  0  0  0  0  0  0  0  0  0  0
  -25.0105  -27.2737   21.0350 C   0  0  0  0  0  0  0  0  0  0  0  0
  -23.7743  -12.0784   20.4655 C   0  0  0  0  0  0  0  0  0  0  0  0
  -27.2659  -27.4425   20.1435 C   0  0  0  0  0  0  0  0  0  0  0  0
  -23.1824   -9.8100   20.6276 C   0  0  0  0  0  0  0  0  0  0  0  0
  -23.7239   -7.2585   21.6171 C   0  0  0  0  0  0  0  0  0  0  0  0
  -22.2543   -9.1686   21.4479 C   0  0  0  0  0  0  0  0  0  0  0  0
  -26.4463  -15.1939   21.4911 C   0  0  0  0  0  0  0  0  0  0  0  0
  -29.9160  -24.6560   19.1855 C   0  0  0  0  0  0  0  0  0  0  0  0
  -28.2429  -16.3989   21.8851 C   0  0  0  0  0  0  0  0  0  0  0  0
  -28.7294  -14.0716   21.1135 C   0  0  0  0  0  0  0  0  0  0  0  0
  -22.7399  -29.4286   22.3874 C   0  0  0  0  0  0  0  0  0  0  0  0
  -27.6794  -21.9578   21.6176 C   0  0  0  0  0  0  0  0  0  0  0  0
  -21.6122  -26.3916   22.5522 C   0  0  0  0  0  0  0  0  0  0  0  0
  -22.1435  -23.0690   21.9827 C   0  0  0  0  0  0  0  0  0  0  0  0
  -20.8072  -34.1497   22.5719 C   0  0  0  0  0  0  0  0  0  0  0  0
  -23.1273  -28.6194   20.0313 C   0  0  0  0  0  0  0  0  0  0  0  0
  -24.0671  -26.6573   22.0343 C   0  0  0  0  0  0  0  0  0  0  0  0
  -20.3918  -32.7786   23.0990 C   0  0  0  0  0  0  0  0  0  0  0  0
  -25.5844  -20.1812   23.9186 C   0  0  0  0  0  0  0  0  0  0  0  0
  -21.5598  -32.1045   23.8119 C   0  0  0  0  0  0  0  0  0  0  0  0
  -25.7138  -18.7256   23.4717 C   0  0  0  0  0  0  0  0  0  0  0  0
  -25.6295  -21.1364   22.7301 C   0  0  0  0  0  0  0  0  0  0  0  0
  -26.9714  -19.5224   21.4201 C   0  0  0  0  0  0  0  0  0  0  0  0
  -22.7328  -31.8731   22.8518 C   0  0  1  0  0  0  0  0  0  0  0  0
  -22.3899  -28.4008   21.3488 C   0  0  1  0  0  0  0  0  0  0  0  0
  -26.9614  -18.5260   22.5930 C   0  0  2  0  0  0  0  0  0  0  0  0
  -21.0544  -20.8247   22.2560 C   0  0  0  0  0  0  0  0  0  0  0  0
  -22.2363  -26.4551   25.5382 C   0  0  0  0  0  0  0  0  0  0  0  0
  -22.0378  -23.9594   25.5618 C   0  0  0  0  0  0  0  0  0  0  0  0
  -20.0665  -25.3599   24.9490 C   0  0  0  0  0  0  0  0  0  0  0  0
  -22.1796  -22.5671   19.0663 C   0  0  0  0  0  0  0  0  0  0  0  0
  -30.4171  -26.0647   18.9790 C   0  0  0  0  0  0  0  0  0  0  0  0
  -29.2829  -27.0830   18.9359 C   0  0  0  0  0  0  0  0  0  1  0  0
  -28.8834  -21.6358   20.7687 C   0  0  2  0  0  0  0  0  0  0  0  0
  -21.9917  -25.1507   23.3235 C   0  0  1  0  0  0  0  0  0  0  0  0
  -21.2775  -22.0082   21.3274 C   0  0  2  0  0  0  0  0  0  0  0  0
  -30.0339  -21.1388   21.6359 C   0  0  0  0  0  0  0  0  0  0  0  0
  -21.6015  -25.2441   24.8257 C   0  0  0  0  0  0  0  0  0  0  0  0
  -25.9741  -16.3796   21.8850 N   0  0  0  0  0  0  0  0  0  0  0  0
  -29.5978  -23.8519   18.1265 N   0  0  0  0  0  0  0  0  0  0  0  0
  -29.1930  -22.6822   18.6092 N   0  0  0  0  0  0  0  0  0  0  0  0
  -29.2593  -22.7591   19.9482 N   0  0  0  0  0  0  0  0  0  0  0  0
  -27.0906  -17.0906   22.1175 N   0  0  0  0  0  0  0  0  0  0  0  0
  -22.6626  -27.0883   21.9381 N   0  0  0  0  0  0  0  0  0  0  0  0
  -26.8176  -20.8999   21.9080 N   0  0  0  0  0  0  0  0  0  0  0  0
  -29.4554  -16.9634   22.0685 N   0  0  0  0  0  0  0  0  0  0  0  0
  -28.1626  -12.8543   20.7120 N   0  0  0  0  0  0  0  0  0  0  0  0
  -22.4738  -30.7292   22.0038 N   0  0  0  0  0  0  0  0  0  0  0  0
  -21.3832  -24.0288   22.6168 N   0  0  0  0  0  0  0  0  0  0  0  0
  -21.9228  -21.5113   20.0793 N   0  3  0  0  0  0  0  0  0  0  0  0
  -29.9781  -14.1805   21.1637 O   0  0  0  0  0  0  0  0  0  0  0  0
  -23.2148  -29.0683   23.4581 O   0  0  0  0  0  0  0  0  0  0  0  0
  -27.5131  -23.1148   22.0123 O   0  0  0  0  0  0  0  0  0  0  0  0
  -20.4265  -26.7264   22.4906 O   0  0  0  0  0  0  0  0  0  0  0  0
  -23.3715  -23.0462   21.9398 O   0  0  0  0  0  0  0  0  0  0  0  0
  -22.9147  -11.0762   20.1350 O   0  0  0  0  0  0  0  0  0  0  0  0
  -28.5737  -27.0676   20.1741 O   0  0  0  0  0  0  0  0  0  1  0  0
  -23.9834   -6.0328   22.0909 F   0  0  0  0  0  0  0  0  0  0  0  0
  -21.1003   -9.7725   21.7632 F   0  0  0  0  0  0  0  0  0  0  0  0
  -31.1371  -20.8879   20.8891 F   0  0  0  0  0  0  0  0  0  0  0  0
  -30.3798  -22.1035   22.5270 F   0  0  0  0  0  0  0  0  0  0  0  0
  1  2  1  0  0  0  0
  1  5  2  0  0  0  0
  2  6  2  0  0  0  0
  3  8  2  0  0  0  0
  3 16  1  0  0  0  0
  4  9  1  0  0  0  0
  4 16  2  0  0  0  0
  5 18  1  0  0  0  0
  6 20  1  0  0  0  0
  7 10  2  0  0  0  0
  7 19  1  0  0  0  0
  8 22  1  0  0  0  0
  9 22  2  0  0  0  0
 10 23  1  0  0  0  0
 11 12  2  0  0  0  0
 11 24  1  0  0  0  0
 12 25  1  0  0  0  0
 13 21  1  0  0  0  0
 13 23  2  0  0  0  0
 14 25  2  0  0  0  0
 14 26  1  0  0  0  0
 15 28  2  0  0  0  0
 15 62  1  0  0  0  0
 16 27  1  0  0  0  0
 17 27  1  0  0  0  0
 17 29  2  0  0  0  0
 17 30  1  0  0  0  0
 18 20  2  0  0  0  0
 18 35  1  0  0  0  0
 19 21  2  0  0  0  0
 19 36  1  0  0  0  0
 20 44  1  0  0  0  0
 21 37  1  0  0  0  0
 22 76  1  0  0  0  0
 23 77  1  0  0  0  0
 24 26  2  0  0  0  0
 24 76  1  0  0  0  0
 25 78  1  0  0  0  0
 26 79  1  0  0  0  0
 27 59  2  0  0  0  0
 28 52  1  0  0  0  0
 28 60  1  0  0  0  0
 29 63  1  0  0  0  0
 29 66  1  0  0  0  0
 30 67  1  0  0  0  0
 30 71  2  0  0  0  0
 31 45  1  0  0  0  0
 31 68  1  0  0  0  0
 31 72  2  0  0  0  0
 32 54  1  0  0  0  0
 32 65  1  0  0  0  0
 32 73  2  0  0  0  0
 33 55  1  0  0  0  0
 33 64  1  0  0  0  0
 33 74  2  0  0  0  0
 34 56  1  0  0  0  0
 34 69  1  0  0  0  0
 34 75  2  0  0  0  0
 35 38  1  0  0  0  0
 36 45  1  0  0  0  0
 37 64  1  0  0  0  0
 38 40  1  0  0  0  0
 39 41  1  0  0  0  0
 39 42  1  0  0  0  0
 40 44  1  0  0  0  0
 41 46  1  0  0  0  0
 42 65  1  0  0  0  0
 43 46  1  0  0  0  0
 43 65  1  0  0  0  0
 44 68  1  0  0  0  0
 45 64  1  0  0  0  0
 46 63  1  0  0  0  0
 47 56  1  0  0  0  0
 48 58  1  0  0  0  0
 49 58  1  0  0  0  0
 50 58  1  0  0  0  0
 51 70  1  0  0  0  0
 52 53  1  0  0  0  0
 53 77  1  0  0  0  0
 54 57  1  0  0  0  0
 54 62  1  0  0  0  0
 55 58  1  0  0  0  0
 55 69  1  0  0  0  0
 56 70  1  0  0  0  0
 57 80  1  0  0  0  0
 57 81  1  0  0  0  0
 59 63  1  0  0  0  0
 60 61  2  0  0  0  0
 61 62  1  0  0  0  0
M  CHG  1  70   1
M  ISO  4  32 100  53 101  54 100  77 101
M  END
> <Batch ID>
0053

> <Smiles>
CNC(C)C(=O)NC(C(=O)N1Cc2cc([101O:1][101CH2:1]Cc3cn([100CH:0](C(F)F)[100C:0](=O)N4CCCC(n5nc(-c6ccc(Oc7ccc(F)cc7F)cc6)c(C(N)=O)c5N)C4)nn3)ccc2CC1C(=O)NC1CCCc2ccccc21)C(C)(C)C

> <Shape>
0.233

> <Color>
0.094

> <Negative vol penalty>
0.000

$$$$

  -OEChem-04052317383D

 83 91  0     1  0  0  0  0  0999 V2000
  -19.8154  -23.9317   22.1453 C   0  0  0  0  0  0  0  0  0  0  0  0
  -20.9674  -24.3622   21.4949 C   0  0  0  0  0  0  0  0  0  0  0  0
  -26.7109  -12.6910   20.9986 C   0  0  0  0  0  0  0  0  0  0  0  0
  -25.8937  -13.7070   18.9646 C   0  0  0  0  0  0  0  0  0  0  0  0
  -18.9121  -24.8651   22.6519 C   0  0  0  0  0  0  0  0  0  0  0  0
  -21.2162  -25.7265   21.3498 C   0  0  0  0  0  0  0  0  0  0  0  0
  -26.0119  -26.9513   22.4204 C   0  0  0  0  0  0  0  0  0  0  0  0
  -25.9959  -11.5297   20.7058 C   0  0  0  0  0  0  0  0  0  0  0  0
  -25.1788  -12.5456   18.6717 C   0  0  0  0  0  0  0  0  0  0  0  0
  -26.9711  -26.6800   21.4457 C   0  0  0  0  0  0  0  0  0  0  0  0
  -22.7996  -10.4521   20.9213 C   0  0  0  0  0  0  0  0  0  0  0  0
  -22.0730   -9.8613   21.9550 C   0  0  0  0  0  0  0  0  0  0  0  0
  -26.9220  -28.9930   20.7623 C   0  0  0  0  0  0  0  0  0  0  0  0
  -23.3698   -7.8376   21.7100 C   0  0  0  0  0  0  0  0  0  0  0  0
  -30.0116  -26.7416   17.3394 C   0  0  0  0  0  0  0  0  0  0  0  0
  -26.6597  -13.7797   20.1280 C   0  0  0  0  0  0  0  0  0  0  0  0
  -28.7188  -15.2837   20.0509 C   0  0  0  0  0  0  0  0  0  0  0  0
  -19.1548  -26.2416   22.5215 C   0  0  0  0  0  0  0  0  0  0  0  0
  -25.4917  -28.2453   22.5664 C   0  0  0  0  0  0  0  0  0  0  0  0
  -20.3147  -26.6793   21.8540 C   0  0  0  0  0  0  0  0  0  0  0  0
  -25.9582  -29.2786   21.7414 C   0  0  0  0  0  0  0  0  0  0  0  0
  -25.2299  -11.4570   19.5424 C   0  0  0  0  0  0  0  0  0  0  0  0
  -27.4242  -27.7003   20.6145 C   0  0  0  0  0  0  0  0  0  0  0  0
  -23.8113   -9.7356   20.2818 C   0  0  0  0  0  0  0  0  0  0  0  0
  -22.3581   -8.5541   22.3494 C   0  0  0  0  0  0  0  0  0  0  0  0
  -24.0964   -8.4284   20.6762 C   0  0  0  0  0  0  0  0  0  0  0  0
  -27.3976  -14.9799   20.4302 C   0  0  0  0  0  0  0  0  0  0  0  0
  -29.8723  -26.0163   18.4890 C   0  0  0  0  0  0  0  0  0  0  0  0
  -28.9499  -16.5301   20.5796 C   0  0  0  0  0  0  0  0  0  0  0  0
  -31.6729  -25.2814   17.4315 C   0  0  0  0  0  0  0  0  0  0  0  0
  -29.6537  -14.5085   19.2887 C   0  0  0  0  0  0  0  0  0  0  0  0
  -22.6040  -29.5459   22.2950 C   0  0  0  0  0  0  0  0  0  0  0  0
  -24.1190  -32.1917   23.4025 C   0  0  0  0  0  0  0  0  0  0  0  0
  -27.0426  -33.9107   23.7824 C   0  0  0  0  0  0  0  0  0  0  0  0
  -27.3109  -21.7683   21.5898 C   0  0  0  0  0  0  0  0  0  0  0  0
  -18.1259  -27.2128   23.0437 C   0  0  0  0  0  0  0  0  0  0  0  0
  -24.4771  -28.5273   23.6404 C   0  0  0  0  0  0  0  0  0  0  0  0
  -25.4465  -30.6892   21.8710 C   0  0  0  0  0  0  0  0  0  0  0  0
  -18.6491  -28.6405   23.1784 C   0  0  0  0  0  0  0  0  0  0  0  0
  -26.2577  -19.2560   23.8824 C   0  0  0  0  0  0  0  0  0  0  0  0
  -19.4106  -29.0507   21.9220 C   0  0  0  0  0  0  0  0  0  0  0  0
  -26.5635  -17.9455   23.1549 C   0  0  0  0  0  0  0  0  0  0  0  0
  -25.7830  -20.3398   22.9171 C   0  0  0  0  0  0  0  0  0  0  0  0
  -26.9881  -19.2786   21.0475 C   0  0  0  0  0  0  0  0  0  0  0  0
  -20.6320  -28.1508   21.6987 C   0  0  1  0  0  0  0  0  0  0  0  0
  -23.6399  -29.7714   23.3597 C   0  0  1  0  0  0  0  0  0  0  0  0
  -27.5239  -18.1719   21.9718 C   0  0  2  0  0  0  0  0  0  0  0  0
  -32.8947  -24.5180   17.0756 C   0  0  0  0  0  0  0  0  0  0  0  0
  -27.9588  -36.0620   24.6934 C   0  0  0  0  0  0  0  0  0  0  0  0
  -23.0159  -33.6843   20.9806 C   0  0  0  0  0  0  0  0  0  0  0  0
  -24.6918  -35.4919   21.4187 C   0  0  0  0  0  0  0  0  0  0  0  0
  -22.9445  -34.9739   23.1221 C   0  0  0  0  0  0  0  0  0  0  0  0
  -30.9824  -21.7074   20.3150 C   0  0  0  0  0  0  0  0  0  0  0  0
  -30.1329  -22.4053   18.0823 C   0  0  0  0  0  0  0  0  0  0  0  0
  -28.7718  -32.4893   25.7185 C   0  0  0  0  0  0  0  0  0  0  0  0
  -28.8341  -26.0954   19.5693 C   0  0  0  0  0  0  0  0  0  1  0  0
  -31.1591  -24.1462   19.5671 C   0  0  0  0  0  0  0  0  0  0  0  0
  -28.8867  -23.0654   20.1780 C   0  0  0  0  0  0  0  0  0  0  0  0
  -24.8496  -33.3500   22.7672 C   0  0  1  0  0  0  0  0  0  0  0  0
  -27.6560  -34.6009   24.9873 C   0  0  2  0  0  0  0  0  0  0  0  0
  -23.8839  -34.3481   22.0682 C   0  0  0  0  0  0  0  0  0  0  0  0
  -30.2868  -22.8544   19.5537 C   0  0  0  0  0  0  0  0  0  0  0  0
  -26.8292  -15.9547   21.1448 N   0  0  0  0  0  0  0  0  0  0  0  0
  -30.9134  -25.1201   18.5199 N   0  0  0  0  0  0  0  0  0  0  0  0
  -27.7980  -16.8832   21.2188 N   0  0  0  0  0  0  0  0  0  0  0  0
  -31.1338  -26.2659   16.7051 N   0  3  0  0  0  0  0  0  0  0  0  0
  -24.4505  -30.9133   22.9318 N   0  0  0  0  0  0  0  0  0  0  0  0
  -26.7387  -20.5061   21.8194 N   0  0  0  0  0  0  0  0  0  0  0  0
  -30.0240  -17.3475   20.5555 N   0  0  0  0  0  0  0  0  0  0  0  0
  -29.2533  -13.2493   18.8214 N   0  0  0  0  0  0  0  0  0  0  0  0
  -21.7102  -28.5328   22.5852 N   0  0  0  0  0  0  0  0  0  0  0  0
  -25.6647  -33.9455   23.8204 N   0  0  0  0  0  0  0  0  0  0  0  0
  -28.2113  -21.8374   20.5338 N   0  0  0  0  0  0  0  0  0  0  0  0
  -28.9263  -33.9273   25.3791 N   0  3  0  0  0  0  0  0  0  0  0  0
  -30.8153  -14.9134   19.0436 O   0  0  0  0  0  0  0  0  0  0  0  0
  -22.6140  -30.2405   21.2855 O   0  0  0  0  0  0  0  0  0  0  0  0
  -23.2900  -32.4126   24.2888 O   0  0  0  0  0  0  0  0  0  0  0  0
  -27.7182  -33.3956   22.8943 O   0  0  0  0  0  0  0  0  0  0  0  0
  -27.0434  -22.7588   22.2785 O   0  0  0  0  0  0  0  0  0  0  0  0
  -24.5323  -10.3238   19.2562 O   0  0  0  0  0  0  0  0  0  0  0  0
  -28.3600  -27.4382   19.6619 O   0  0  0  0  0  0  0  0  0  1  0  0
  -21.6613   -7.9875   23.3431 F   0  0  0  0  0  0  0  0  0  0  0  0
  -25.0680   -7.7355   20.0665 F   0  0  0  0  0  0  0  0  0  0  0  0
  1  2  1  0  0  0  0
  1  5  2  0  0  0  0
  2  6  2  0  0  0  0
  3  8  2  0  0  0  0
  3 16  1  0  0  0  0
  4  9  1  0  0  0  0
  4 16  2  0  0  0  0
  5 18  1  0  0  0  0
  6 20  1  0  0  0  0
  7 10  2  0  0  0  0
  7 19  1  0  0  0  0
  8 22  1  0  0  0  0
  9 22  2  0  0  0  0
 10 23  1  0  0  0  0
 11 12  2  0  0  0  0
 11 24  1  0  0  0  0
 12 25  1  0  0  0  0
 13 21  1  0  0  0  0
 13 23  2  0  0  0  0
 14 25  2  0  0  0  0
 14 26  1  0  0  0  0
 15 28  2  0  0  0  0
 15 66  1  0  0  0  0
 16 27  1  0  0  0  0
 17 27  1  0  0  0  0
 17 29  2  0  0  0  0
 17 31  1  0  0  0  0
 18 20  2  0  0  0  0
 18 36  1  0  0  0  0
 19 21  2  0  0  0  0
 19 37  1  0  0  0  0
 20 45  1  0  0  0  0
 21 38  1  0  0  0  0
 22 80  1  0  0  0  0
 23 81  1  0  0  0  0
 24 26  2  0  0  0  0
 24 80  1  0  0  0  0
 25 82  1  0  0  0  0
 26 83  1  0  0  0  0
 27 63  2  0  0  0  0
 28 56  1  0  0  0  0
 28 64  1  0  0  0  0
 29 65  1  0  0  0  0
 29 69  1  0  0  0  0
 30 48  1  0  0  0  0
 30 64  1  0  0  0  0
 30 66  2  0  0  0  0
 31 70  1  0  0  0  0
 31 75  2  0  0  0  0
 32 46  1  0  0  0  0
 32 71  1  0  0  0  0
 32 76  2  0  0  0  0
 33 59  1  0  0  0  0
 33 67  1  0  0  0  0
 33 77  2  0  0  0  0
 34 60  1  0  0  0  0
 34 72  1  0  0  0  0
 34 78  2  0  0  0  0
 35 68  1  0  0  0  0
 35 73  1  0  0  0  0
 35 79  2  0  0  0  0
 36 39  1  0  0  0  0
 37 46  1  0  0  0  0
 38 67  1  0  0  0  0
 39 41  1  0  0  0  0
 40 42  1  0  0  0  0
 40 43  1  0  0  0  0
 41 45  1  0  0  0  0
 42 47  1  0  0  0  0
 43 68  1  0  0  0  0
 44 47  1  0  0  0  0
 44 68  1  0  0  0  0
 45 71  1  0  0  0  0
 46 67  1  0  0  0  0
 47 65  1  0  0  0  0
 49 60  1  0  0  0  0
 50 61  1  0  0  0  0
 51 61  1  0  0  0  0
 52 61  1  0  0  0  0
 53 62  1  0  0  0  0
 54 62  1  0  0  0  0
 55 74  1  0  0  0  0
 56 81  1  0  0  0  0
 57 62  1  0  0  0  0
 57 64  1  0  0  0  0
 58 62  1  0  0  0  0
 58 73  1  0  0  0  0
 59 61  1  0  0  0  0
 59 72  1  0  0  0  0
 60 74  1  0  0  0  0
 63 65  1  0  0  0  0
M  CHG  2  66   1  74   1
M  ISO  4  35 100  56 101  73 100  81 101
M  END
> <Batch ID>
0053

> <Smiles>
CNC(C)C(=O)NC(C(=O)N1Cc2cc([101O:1][101CH2:1]c3cnc(C)n3CC(C)(C)C[100NH:0][100C:0](=O)N3CCCC(n4nc(-c5ccc(Oc6ccc(F)cc6F)cc5)c(C(N)=O)c4N)C3)ccc2CC1C(=O)NC1CCCc2ccccc21)C(C)(C)C

> <Shape>
0.315

> <Color>
0.110

> <Negative vol penalty>
0.000

$$$$

  -OEChem-04052317383D

 83 91  0     1  0  0  0  0  0999 V2000
  -25.1254  -11.7166   24.4130 C   0  0  0  0  0  0  0  0  0  0  0  0
  -25.9384  -12.8396   24.2976 C   0  0  0  0  0  0  0  0  0  0  0  0
  -23.1677  -28.3478   22.2274 C   0  0  0  0  0  0  0  0  0  0  0  0
  -22.6673  -26.4693   20.7928 C   0  0  0  0  0  0  0  0  0  0  0  0
  -24.5839  -11.1290   23.2705 C   0  0  0  0  0  0  0  0  0  0  0  0
  -26.2112  -13.3751   23.0393 C   0  0  0  0  0  0  0  0  0  0  0  0
  -26.9682  -19.2890   21.6401 C   0  0  0  0  0  0  0  0  0  0  0  0
  -21.9014  -28.2453   22.8033 C   0  0  0  0  0  0  0  0  0  0  0  0
  -21.4010  -26.3668   21.3687 C   0  0  0  0  0  0  0  0  0  0  0  0
  -28.1077  -20.0716   21.4589 C   0  0  0  0  0  0  0  0  0  0  0  0
  -18.7309  -29.1150   22.0183 C   0  0  0  0  0  0  0  0  0  0  0  0
  -18.0053  -30.2923   22.2000 C   0  0  0  0  0  0  0  0  0  0  0  0
  -27.9673  -19.7138   19.0774 C   0  0  0  0  0  0  0  0  0  0  0  0
  -17.9404  -29.8849   24.5806 C   0  0  0  0  0  0  0  0  0  0  0  0
  -28.1044  -24.0571   17.9113 C   0  0  0  0  0  0  0  0  0  0  0  0
  -23.5506  -27.4598   21.2221 C   0  0  0  0  0  0  0  0  0  0  0  0
  -26.0395  -26.9272   21.0500 C   0  0  0  0  0  0  0  0  0  0  0  0
  -24.8424  -11.6632   21.9983 C   0  0  0  0  0  0  0  0  0  0  0  0
  -26.3249  -18.7030   20.5405 C   0  0  0  0  0  0  0  0  0  0  0  0
  -25.6737  -12.7932   21.8785 C   0  0  0  0  0  0  0  0  0  0  0  0
  -26.8183  -18.9263   19.2471 C   0  0  0  0  0  0  0  0  0  0  0  0
  -21.0181  -27.2549   22.3739 C   0  0  0  0  0  0  0  0  0  0  0  0
  -28.6091  -20.2817   20.1776 C   0  0  0  0  0  0  0  0  0  0  0  0
  -19.0613  -28.3226   23.1177 C   0  0  0  0  0  0  0  0  0  0  0  0
  -17.6100  -30.6772   23.4811 C   0  0  0  0  0  0  0  0  0  0  0  0
  -18.6660  -28.7075   24.3988 C   0  0  0  0  0  0  0  0  0  0  0  0
  -24.8584  -27.5655   20.6265 C   0  0  0  0  0  0  0  0  0  0  0  0
  -28.7519  -24.8963   17.0316 C   0  0  0  0  0  0  0  0  0  0  0  0
  -30.6860  -24.6589   18.2287 C   0  0  0  0  0  0  0  0  0  0  0  0
  -30.0382  -23.8203   19.1089 C   0  0  0  0  0  0  0  0  0  0  0  0
  -26.9965  -27.3505   20.1604 C   0  0  0  0  0  0  0  0  0  0  0  0
  -26.2525  -26.0315   22.1492 C   0  0  0  0  0  0  0  0  0  0  0  0
  -25.7195  -15.7202   19.6239 C   0  0  0  0  0  0  0  0  0  0  0  0
  -24.0307  -17.1968   17.2808 C   0  0  0  0  0  0  0  0  0  0  0  0
  -23.5358  -19.9940   15.3894 C   0  0  0  0  0  0  0  0  0  0  0  0
  -27.1084  -28.6408   14.3806 C   0  0  0  0  0  0  0  0  0  0  0  0
  -24.2732  -10.9653   20.7886 C   0  0  0  0  0  0  0  0  0  0  0  0
  -25.0813  -17.8835   20.7504 C   0  0  0  0  0  0  0  0  0  0  0  0
  -26.1528  -18.3362   18.0316 C   0  0  0  0  0  0  0  0  0  0  0  0
  -24.3064  -11.8171   19.5222 C   0  0  0  0  0  0  0  0  0  0  0  0
  -27.4537  -31.1669   17.0641 C   0  0  0  0  0  0  0  0  0  0  0  0
  -25.6713  -12.4783   19.3593 C   0  0  0  0  0  0  0  0  0  0  0  0
  -26.8594  -30.4498   18.2751 C   0  0  0  0  0  0  0  0  0  0  0  0
  -26.8431  -30.6727   15.7563 C   0  0  0  0  0  0  0  0  0  0  0  0
  -26.3333  -28.4814   16.7820 C   0  0  0  0  0  0  0  0  0  0  0  0
  -25.9727  -13.4180   20.5330 C   0  0  1  0  0  0  0  0  0  0  0  0
  -24.8053  -16.9126   19.6064 C   0  0  1  0  0  0  0  0  0  0  0  0
  -26.9606  -28.9231   18.1128 C   0  0  2  0  0  0  0  0  0  0  0  0
  -32.1271  -24.9997   18.3980 C   0  0  0  0  0  0  0  0  0  0  0  0
  -22.1064  -20.8874   13.5302 C   0  0  0  0  0  0  0  0  0  0  0  0
  -25.6274  -15.5527   15.2664 C   0  0  0  0  0  0  0  0  0  0  0  0
  -24.8647  -17.1310   13.4788 C   0  0  0  0  0  0  0  0  0  0  0  0
  -23.1931  -15.7729   14.7373 C   0  0  0  0  0  0  0  0  0  0  0  0
  -28.0394  -26.7934   13.0390 C   0  0  0  0  0  0  0  0  0  0  0  0
  -22.4602  -22.1568   17.0995 C   0  0  0  0  0  0  0  0  0  0  0  0
  -28.0221  -25.4900   15.8781 C   0  0  0  0  0  0  0  0  0  0  0  0
  -30.7572  -23.2072   20.2859 C   0  0  0  0  0  0  0  0  0  0  0  0
  -28.5571  -26.8631   15.4500 C   0  0  0  0  0  0  0  0  0  0  0  0
  -29.9507  -22.0911   20.9408 C   0  0  0  0  0  0  0  0  0  1  0  0
  -24.3447  -17.7037   15.8939 C   0  0  1  0  0  0  0  0  0  0  0  0
  -22.2742  -20.7611   15.0365 C   0  0  2  0  0  0  0  0  0  0  0  0
  -24.5214  -16.5497   14.8670 C   0  0  0  0  0  0  0  0  0  0  0  0
  -28.7359  -23.5041   18.9658 N   0  0  0  0  0  0  0  0  0  0  0  0
  -25.0456  -28.3359   19.5516 N   0  0  0  0  0  0  0  0  0  0  0  0
  -30.0544  -25.2122   17.1745 N   0  0  0  0  0  0  0  0  0  0  0  0
  -26.3555  -28.1845   19.2922 N   0  0  0  0  0  0  0  0  0  0  0  0
  -24.9434  -17.5372   18.2892 N   0  0  0  0  0  0  0  0  0  0  0  0
  -26.9138  -29.2152   15.6475 N   0  0  0  0  0  0  0  0  0  0  0  0
  -28.3154  -27.0872   20.0440 N   0  0  0  0  0  0  0  0  0  0  0  0
  -25.1605  -25.7015   22.9634 N   0  0  0  0  0  0  0  0  0  0  0  0
  -25.2515  -14.6635   20.3814 N   0  0  0  0  0  0  0  0  0  0  0  0
  -23.2857  -18.6482   15.5550 N   0  0  0  0  0  0  0  0  0  0  0  0
  -27.8025  -27.4225   14.3306 N   0  0  0  0  0  0  0  0  0  0  0  0
  -22.3206  -22.1313   15.6207 N   0  3  0  0  0  0  0  0  0  0  0  0
  -27.3812  -25.5514   22.4116 O   0  0  0  0  0  0  0  0  0  0  0  0
  -26.7708  -15.7557   18.9953 O   0  0  0  0  0  0  0  0  0  0  0  0
  -23.0095  -16.5296   17.4640 O   0  0  0  0  0  0  0  0  0  0  0  0
  -24.6339  -20.5341   15.5028 O   0  0  0  0  0  0  0  0  0  0  0  0
  -26.6941  -29.1907   13.3520 O   0  0  0  0  0  0  0  0  0  0  0  0
  -19.7824  -27.1545   22.9358 O   0  0  0  0  0  0  0  0  0  0  0  0
  -29.7216  -21.0446   19.9980 O   0  0  0  0  0  0  0  0  0  1  0  0
  -16.9145  -31.8086   23.6557 F   0  0  0  0  0  0  0  0  0  0  0  0
  -18.9815  -27.9510   25.4590 F   0  0  0  0  0  0  0  0  0  0  0  0
  1  2  1  0  0  0  0
  1  5  2  0  0  0  0
  2  6  2  0  0  0  0
  3  8  2  0  0  0  0
  3 16  1  0  0  0  0
  4  9  1  0  0  0  0
  4 16  2  0  0  0  0
  5 18  1  0  0  0  0
  6 20  1  0  0  0  0
  7 10  2  0  0  0  0
  7 19  1  0  0  0  0
  8 22  1  0  0  0  0
  9 22  2  0  0  0  0
 10 23  1  0  0  0  0
 11 12  2  0  0  0  0
 11 24  1  0  0  0  0
 12 25  1  0  0  0  0
 13 21  1  0  0  0  0
 13 23  2  0  0  0  0
 14 25  2  0  0  0  0
 14 26  1  0  0  0  0
 15 28  1  0  0  0  0
 15 63  2  0  0  0  0
 16 27  1  0  0  0  0
 17 27  1  0  0  0  0
 17 31  2  0  0  0  0
 17 32  1  0  0  0  0
 18 20  2  0  0  0  0
 18 37  1  0  0  0  0
 19 21  2  0  0  0  0
 19 38  1  0  0  0  0
 20 46  1  0  0  0  0
 21 39  1  0  0  0  0
 22 80  1  0  0  0  0
 23 81  1  0  0  0  0
 24 26  2  0  0  0  0
 24 80  1  0  0  0  0
 25 82  1  0  0  0  0
 26 83  1  0  0  0  0
 27 64  2  0  0  0  0
 28 56  1  0  0  0  0
 28 65  2  0  0  0  0
 29 30  2  0  0  0  0
 29 49  1  0  0  0  0
 29 65  1  0  0  0  0
 30 57  1  0  0  0  0
 30 63  1  0  0  0  0
 31 66  1  0  0  0  0
 31 69  1  0  0  0  0
 32 70  1  0  0  0  0
 32 75  2  0  0  0  0
 33 47  1  0  0  0  0
 33 71  1  0  0  0  0
 33 76  2  0  0  0  0
 34 60  1  0  0  0  0
 34 67  1  0  0  0  0
 34 77  2  0  0  0  0
 35 61  1  0  0  0  0
 35 72  1  0  0  0  0
 35 78  2  0  0  0  0
 36 68  1  0  0  0  0
 36 73  1  0  0  0  0
 36 79  2  0  0  0  0
 37 40  1  0  0  0  0
 38 47  1  0  0  0  0
 39 67  1  0  0  0  0
 40 42  1  0  0  0  0
 41 43  1  0  0  0  0
 41 44  1  0  0  0  0
 42 46  1  0  0  0  0
 43 48  1  0  0  0  0
 44 68  1  0  0  0  0
 45 48  1  0  0  0  0
 45 68  1  0  0  0  0
 46 71  1  0  0  0  0
 47 67  1  0  0  0  0
 48 66  1  0  0  0  0
 50 61  1  0  0  0  0
 51 62  1  0  0  0  0
 52 62  1  0  0  0  0
 53 62  1  0  0  0  0
 54 73  1  0  0  0  0
 55 74  1  0  0  0  0
 56 58  1  0  0  0  0
 57 59  1  0  0  0  0
 58 73  1  0  0  0  0
 59 81  1  0  0  0  0
 60 62  1  0  0  0  0
 60 72  1  0  0  0  0
 61 74  1  0  0  0  0
 64 66  1  0  0  0  0
M  CHG  1  74   1
M  ISO  4  36 100  59 101  73 100  81 101
M  END
> <Batch ID>
0053

> <Smiles>
CNC(C)C(=O)NC(C(=O)N1Cc2cc([101O:1][101CH2:1]Cc3ncc(CC[100N:0](C)[100C:0](=O)N4CCCC(n5nc(-c6ccc(Oc7ccc(F)cc7F)cc6)c(C(N)=O)c5N)C4)nc3C)ccc2CC1C(=O)NC1CCCc2ccccc21)C(C)(C)C

> <Shape>
0.187

> <Color>
0.105

> <Negative vol penalty>
0.000

$$$$

  -OEChem-04052317383D

 85 93  0     1  0  0  0  0  0999 V2000
  -19.3271  -27.0407   26.2203 C   0  0  0  0  0  0  0  0  0  0  0  0
  -20.7108  -27.1149   26.0961 C   0  0  0  0  0  0  0  0  0  0  0  0
  -25.6149  -14.6813   21.7457 C   0  0  0  0  0  0  0  0  0  0  0  0
  -24.7677  -15.6625   19.7069 C   0  0  0  0  0  0  0  0  0  0  0  0
  -18.5233  -27.0758   25.0816 C   0  0  0  0  0  0  0  0  0  0  0  0
  -21.2915  -27.2231   24.8330 C   0  0  0  0  0  0  0  0  0  0  0  0
  -26.3541  -30.3403   23.3636 C   0  0  0  0  0  0  0  0  0  0  0  0
  -24.5166  -13.8225   21.7888 C   0  0  0  0  0  0  0  0  0  0  0  0
  -23.6695  -14.8036   19.7499 C   0  0  0  0  0  0  0  0  0  0  0  0
  -27.6786  -29.9456   23.1804 C   0  0  0  0  0  0  0  0  0  0  0  0
  -23.5350  -10.9567   20.2865 C   0  0  0  0  0  0  0  0  0  0  0  0
  -23.7739   -9.6128   20.5736 C   0  0  0  0  0  0  0  0  0  0  0  0
  -27.2991  -29.7970   20.8028 C   0  0  0  0  0  0  0  0  0  0  0  0
  -22.3606   -9.7787   22.5261 C   0  0  0  0  0  0  0  0  0  0  0  0
  -29.8965  -25.3872   21.7537 C   0  0  0  0  0  0  0  0  0  0  0  0
  -25.7404  -15.6013   20.7048 C   0  0  0  0  0  0  0  0  0  0  0  0
  -28.1128  -16.2554   20.0328 C   0  0  0  0  0  0  0  0  0  0  0  0
  -19.0941  -27.1942   23.8045 C   0  0  0  0  0  0  0  0  0  0  0  0
  -25.4877  -30.4560   22.2671 C   0  0  0  0  0  0  0  0  0  0  0  0
  -20.4947  -27.2584   23.6761 C   0  0  0  0  0  0  0  0  0  0  0  0
  -25.9648  -30.1959   20.9745 C   0  0  0  0  0  0  0  0  0  0  0  0
  -23.5439  -13.8836   20.7909 C   0  0  0  0  0  0  0  0  0  0  0  0
  -28.1506  -29.6711   21.9001 C   0  0  0  0  0  0  0  0  0  0  0  0
  -22.7090  -11.7117   21.1192 C   0  0  0  0  0  0  0  0  0  0  0  0
  -23.1867   -9.0238   21.6933 C   0  0  0  0  0  0  0  0  0  0  0  0
  -22.1218  -11.1226   22.2390 C   0  0  0  0  0  0  0  0  0  0  0  0
  -26.8744  -16.4891   20.6601 C   0  0  0  0  0  0  0  0  0  0  0  0
  -30.4090  -26.5731   21.2757 C   0  0  0  0  0  0  0  0  0  0  0  0
  -29.7683  -25.9961   19.1575 C   0  0  0  0  0  0  0  0  0  0  0  0
  -29.2565  -24.8099   19.6355 C   0  0  0  0  0  0  0  0  0  0  0  0
  -28.8416  -17.3938   20.2768 C   0  0  0  0  0  0  0  0  0  0  0  0
  -28.5640  -15.1116   19.2953 C   0  0  0  0  0  0  0  0  0  0  0  0
  -22.7845  -29.0356   21.3845 C   0  0  0  0  0  0  0  0  0  0  0  0
  -22.8549  -31.2454   19.0108 C   0  0  0  0  0  0  0  0  0  0  0  0
  -24.7054  -33.3657   17.0804 C   0  0  0  0  0  0  0  0  0  0  0  0
  -26.7961  -22.9979   21.6725 C   0  0  0  0  0  0  0  0  0  0  0  0
  -18.1868  -27.1804   22.5998 C   0  0  0  0  0  0  0  0  0  0  0  0
  -24.0690  -30.9087   22.4787 C   0  0  0  0  0  0  0  0  0  0  0  0
  -25.0806  -30.3248   19.7620 C   0  0  0  0  0  0  0  0  0  0  0  0
  -18.8623  -27.6739   21.3229 C   0  0  0  0  0  0  0  0  0  0  0  0
  -29.3170  -20.9434   23.4405 C   0  0  0  0  0  0  0  0  0  0  0  0
  -20.2347  -27.0279   21.1611 C   0  0  0  0  0  0  0  0  0  0  0  0
  -29.0249  -19.5370   22.9201 C   0  0  0  0  0  0  0  0  0  0  0  0
  -28.0701  -21.8226   23.4295 C   0  0  0  0  0  0  0  0  0  0  0  0
  -27.1047  -20.4899   21.5839 C   0  0  0  0  0  0  0  0  0  0  0  0
  -21.1609  -27.4015   22.3248 C   0  0  1  0  0  0  0  0  0  0  0  0
  -23.1348  -30.4962   21.3453 C   0  0  1  0  0  0  0  0  0  0  0  0
  -28.3505  -19.5925   21.5383 C   0  0  2  0  0  0  0  0  0  0  0  0
  -29.7005  -26.3445   17.7098 C   0  0  0  0  0  0  0  0  0  0  0  0
  -24.4888  -35.0132   15.1999 C   0  0  0  0  0  0  0  0  0  0  0  0
  -24.4551  -22.7296   19.6706 C   0  0  0  0  0  0  0  0  0  0  0  0
  -25.2071  -25.0972   20.0610 C   0  0  0  0  0  0  0  0  0  0  0  0
  -22.5724  -28.9426   17.0290 C   0  0  0  0  0  0  0  0  0  0  0  0
  -23.3081  -30.5047   15.2160 C   0  0  0  0  0  0  0  0  0  0  0  0
  -21.2073  -30.9649   16.4800 C   0  0  0  0  0  0  0  0  0  0  0  0
  -25.7173  -35.5861   18.7550 C   0  0  0  0  0  0  0  0  0  0  0  0
  -31.0588  -27.5603   22.2145 C   0  0  0  0  0  0  0  0  0  0  0  0
  -28.6112  -23.8197   18.7272 C   0  0  0  0  0  0  0  0  0  0  0  0
  -27.8581  -22.7067   19.4664 C   0  0  0  0  0  0  0  0  0  0  0  0
  -30.0607  -28.5630   22.7831 C   0  0  0  0  0  0  0  0  0  1  0  0
  -23.4388  -31.3019   17.6198 C   0  0  1  0  0  0  0  0  0  0  0  0
  -24.5047  -34.8238   16.7088 C   0  0  2  0  0  0  0  0  0  0  0  0
  -25.6095  -23.7173   19.5566 C   0  0  0  0  0  0  0  0  0  0  0  0
  -22.6480  -30.4241   16.6091 C   0  0  0  0  0  0  0  0  0  0  0  0
  -29.3112  -24.4842   20.9422 N   0  0  0  0  0  0  0  0  0  0  0  0
  -26.8162  -17.6822   21.2578 N   0  0  0  0  0  0  0  0  0  0  0  0
  -30.3541  -26.8989   19.9690 N   0  0  0  0  0  0  0  0  0  0  0  0
  -28.0272  -18.2083   21.0073 N   0  0  0  0  0  0  0  0  0  0  0  0
  -23.6997  -30.7645   20.0213 N   0  0  0  0  0  0  0  0  0  0  0  0
  -27.4249  -21.8229   22.1161 N   0  0  0  0  0  0  0  0  0  0  0  0
  -30.0931  -17.7674   19.9357 N   0  0  0  0  0  0  0  0  0  0  0  0
  -27.6877  -14.0290   19.1393 N   0  0  0  0  0  0  0  0  0  0  0  0
  -21.6732  -28.7439   22.1522 N   0  0  0  0  0  0  0  0  0  0  0  0
  -23.5035  -32.7147   17.2615 N   0  0  0  0  0  0  0  0  0  0  0  0
  -26.7762  -23.2293   20.2888 N   0  0  0  0  0  0  0  0  0  0  0  0
  -25.6014  -35.6585   17.2757 N   0  3  0  0  0  0  0  0  0  0  0  0
  -29.7162  -15.0447   18.8038 O   0  0  0  0  0  0  0  0  0  0  0  0
  -23.4708  -28.2328   20.7630 O   0  0  0  0  0  0  0  0  0  0  0  0
  -21.6945  -31.6209   19.1954 O   0  0  0  0  0  0  0  0  0  0  0  0
  -25.8172  -32.8543   17.1946 O   0  0  0  0  0  0  0  0  0  0  0  0
  -26.2903  -23.7994   22.4685 O   0  0  0  0  0  0  0  0  0  0  0  0
  -22.4722  -13.0456   20.8324 O   0  0  0  0  0  0  0  0  0  0  0  0
  -29.4428  -29.2850   21.7186 O   0  0  0  0  0  0  0  0  0  1  0  0
  -23.4149   -7.7328   21.9680 F   0  0  0  0  0  0  0  0  0  0  0  0
  -21.3263  -11.8425   23.0420 F   0  0  0  0  0  0  0  0  0  0  0  0
  1  2  1  0  0  0  0
  1  5  2  0  0  0  0
  2  6  2  0  0  0  0
  3  8  2  0  0  0  0
  3 16  1  0  0  0  0
  4  9  1  0  0  0  0
  4 16  2  0  0  0  0
  5 18  1  0  0  0  0
  6 20  1  0  0  0  0
  7 10  2  0  0  0  0
  7 19  1  0  0  0  0
  8 22  1  0  0  0  0
  9 22  2  0  0  0  0
 10 23  1  0  0  0  0
 11 12  2  0  0  0  0
 11 24  1  0  0  0  0
 12 25  1  0  0  0  0
 13 21  1  0  0  0  0
 13 23  2  0  0  0  0
 14 25  2  0  0  0  0
 14 26  1  0  0  0  0
 15 28  1  0  0  0  0
 15 65  2  0  0  0  0
 16 27  1  0  0  0  0
 17 27  1  0  0  0  0
 17 31  2  0  0  0  0
 17 32  1  0  0  0  0
 18 20  2  0  0  0  0
 18 37  1  0  0  0  0
 19 21  2  0  0  0  0
 19 38  1  0  0  0  0
 20 46  1  0  0  0  0
 21 39  1  0  0  0  0
 22 82  1  0  0  0  0
 23 83  1  0  0  0  0
 24 26  2  0  0  0  0
 24 82  1  0  0  0  0
 25 84  1  0  0  0  0
 26 85  1  0  0  0  0
 27 66  2  0  0  0  0
 28 57  1  0  0  0  0
 28 67  2  0  0  0  0
 29 30  2  0  0  0  0
 29 49  1  0  0  0  0
 29 67  1  0  0  0  0
 30 58  1  0  0  0  0
 30 65  1  0  0  0  0
 31 68  1  0  0  0  0
 31 71  1  0  0  0  0
 32 72  1  0  0  0  0
 32 77  2  0  0  0  0
 33 47  1  0  0  0  0
 33 73  1  0  0  0  0
 33 78  2  0  0  0  0
 34 61  1  0  0  0  0
 34 69  1  0  0  0  0
 34 79  2  0  0  0  0
 35 62  1  0  0  0  0
 35 74  1  0  0  0  0
 35 80  2  0  0  0  0
 36 70  1  0  0  0  0
 36 75  1  0  0  0  0
 36 81  2  0  0  0  0
 37 40  1  0  0  0  0
 38 47  1  0  0  0  0
 39 69  1  0  0  0  0
 40 42  1  0  0  0  0
 41 43  1  0  0  0  0
 41 44  1  0  0  0  0
 42 46  1  0  0  0  0
 43 48  1  0  0  0  0
 44 70  1  0  0  0  0
 45 48  1  0  0  0  0
 45 70  1  0  0  0  0
 46 73  1  0  0  0  0
 47 69  1  0  0  0  0
 48 68  1  0  0  0  0
 50 62  1  0  0  0  0
 51 63  1  0  0  0  0
 52 63  1  0  0  0  0
 53 64  1  0  0  0  0
 54 64  1  0  0  0  0
 55 64  1  0  0  0  0
 56 76  1  0  0  0  0
 57 60  1  0  0  0  0
 58 59  1  0  0  0  0
 59 75  1  0  0  0  0
 60 83  1  0  0  0  0
 61 64  1  0  0  0  0
 61 74  1  0  0  0  0
 62 76  1  0  0  0  0
 63 75  1  0  0  0  0
 66 68  1  0  0  0  0
M  CHG  1  76   1
M  ISO  4  36 100  60 101  75 100  83 101
M  END
> <Batch ID>
0053

> <Smiles>
CNC(C)C(=O)NC(C(=O)N1Cc2cc([101O:1][101CH2:1]Cc3cnc(CC[100N:0](C(C)C)[100C:0](=O)N4CCCC(n5nc(-c6ccc(Oc7ccc(F)cc7F)cc6)c(C(N)=O)c5N)C4)c(C)n3)ccc2CC1C(=O)NC1CCCc2ccccc21)C(C)(C)C

> <Shape>
0.263

> <Color>
0.069

> <Negative vol penalty>
0.000

$$$$

  -OEChem-04052317383D

 85 93  0     1  0  0  0  0  0999 V2000
  -17.0170  -26.6233   22.7541 C   0  0  0  0  0  0  0  0  0  0  0  0
  -18.2422  -26.0213   22.4863 C   0  0  0  0  0  0  0  0  0  0  0  0
  -24.6125  -10.0645   22.1567 C   0  0  0  0  0  0  0  0  0  0  0  0
  -24.5408  -11.3653   24.1914 C   0  0  0  0  0  0  0  0  0  0  0  0
  -16.8548  -27.9927   22.5486 C   0  0  0  0  0  0  0  0  0  0  0  0
  -19.3057  -26.7882   22.0116 C   0  0  0  0  0  0  0  0  0  0  0  0
  -25.2508  -26.0100   23.2589 C   0  0  0  0  0  0  0  0  0  0  0  0
  -24.1633   -8.9448   22.8567 C   0  0  0  0  0  0  0  0  0  0  0  0
  -24.0915  -10.2455   24.8914 C   0  0  0  0  0  0  0  0  0  0  0  0
  -26.2837  -25.3916   22.5556 C   0  0  0  0  0  0  0  0  0  0  0  0
  -21.2260   -7.7611   24.0418 C   0  0  0  0  0  0  0  0  0  0  0  0
  -20.2153   -6.9957   23.4603 C   0  0  0  0  0  0  0  0  0  0  0  0
  -26.9398  -27.5296   21.6514 C   0  0  0  0  0  0  0  0  0  0  0  0
  -21.6763   -5.0715   23.4540 C   0  0  0  0  0  0  0  0  0  0  0  0
  -29.3888  -23.0431   19.1710 C   0  0  0  0  0  0  0  0  0  0  0  0
  -30.7713  -23.8774   20.6707 C   0  0  0  0  0  0  0  0  0  0  0  0
  -24.8013  -11.2748   22.8241 C   0  0  0  0  0  0  0  0  0  0  0  0
  -24.4784  -13.4021   21.4538 C   0  0  0  0  0  0  0  0  0  0  0  0
  -17.9196  -28.7786   22.0804 C   0  0  0  0  0  0  0  0  0  0  0  0
  -25.0476  -27.3936   23.1550 C   0  0  0  0  0  0  0  0  0  0  0  0
  -19.1572  -28.1692   21.7983 C   0  0  0  0  0  0  0  0  0  0  0  0
  -25.9053  -28.1635   22.3564 C   0  0  0  0  0  0  0  0  0  0  0  0
  -23.9027   -9.0353   24.2240 C   0  0  0  0  0  0  0  0  0  0  0  0
  -27.1266  -26.1510   21.7494 C   0  0  0  0  0  0  0  0  0  0  0  0
  -22.4619   -7.1818   24.3293 C   0  0  0  0  0  0  0  0  0  0  0  0
  -20.4404   -5.6508   23.1665 C   0  0  0  0  0  0  0  0  0  0  0  0
  -22.6870   -5.8370   24.0354 C   0  0  0  0  0  0  0  0  0  0  0  0
  -25.2659  -12.4316   22.1017 C   0  0  0  0  0  0  0  0  0  0  0  0
  -30.7007  -22.8635   18.8005 C   0  0  0  0  0  0  0  0  0  0  0  0
  -25.3879  -14.2839   20.9231 C   0  0  0  0  0  0  0  0  0  0  0  0
  -23.0523  -13.4979   21.3417 C   0  0  0  0  0  0  0  0  0  0  0  0
  -22.6790  -29.2411   22.1158 C   0  0  0  0  0  0  0  0  0  0  0  0
  -24.5552  -31.6248   23.2646 C   0  0  0  0  0  0  0  0  0  0  0  0
  -27.6816  -32.6964   24.1158 C   0  0  0  0  0  0  0  0  0  0  0  0
  -29.7982  -17.3530   21.2261 C   0  0  0  0  0  0  0  0  0  0  0  0
  -17.6826  -30.2466   21.8286 C   0  0  0  0  0  0  0  0  0  0  0  0
  -23.9456  -28.0493   23.9410 C   0  0  0  0  0  0  0  0  0  0  0  0
  -25.7421  -29.6552   22.2268 C   0  0  0  0  0  0  0  0  0  0  0  0
  -18.9691  -31.0546   21.6797 C   0  0  0  0  0  0  0  0  0  0  0  0
  -30.4031  -13.9646   20.4356 C   0  0  0  0  0  0  0  0  0  0  0  0
  -19.9418  -30.3420   20.7453 C   0  0  0  0  0  0  0  0  0  0  0  0
  -29.0491  -13.3328   20.7558 C   0  0  0  0  0  0  0  0  0  0  0  0
  -30.7961  -15.0311   21.4596 C   0  0  0  0  0  0  0  0  0  0  0  0
  -28.4125  -15.4441   21.9801 C   0  0  0  0  0  0  0  0  0  0  0  0
  -20.3418  -28.9719   21.3059 C   0  0  1  0  0  0  0  0  0  0  0  0
  -23.5118  -29.3905   23.3574 C   0  0  1  0  0  0  0  0  0  0  0  0
  -27.9667  -14.4117   20.9331 C   0  0  2  0  0  0  0  0  0  0  0  0
  -28.9055  -34.7054   24.9894 C   0  0  0  0  0  0  0  0  0  0  0  0
  -32.0109  -18.0706   18.3415 C   0  0  0  0  0  0  0  0  0  0  0  0
  -24.3453  -32.9429   20.5208 C   0  0  0  0  0  0  0  0  0  0  0  0
  -26.2974  -34.3829   21.1403 C   0  0  0  0  0  0  0  0  0  0  0  0
  -24.1804  -34.5228   22.4524 C   0  0  0  0  0  0  0  0  0  0  0  0
  -32.1397  -17.5804   22.1590 C   0  0  0  0  0  0  0  0  0  0  0  0
  -28.5978  -31.2365   26.5217 C   0  0  0  0  0  0  0  0  0  0  0  0
  -33.9053  -20.6325   18.2454 C   0  0  0  0  0  0  0  0  0  0  0  0
  -31.2237  -22.2144   17.5888 C   0  0  0  0  0  0  0  0  0  0  0  0
  -31.2704  -19.1963   20.5100 C   0  0  0  0  0  0  0  0  0  0  0  0
  -31.4722  -20.7024   17.7204 C   0  0  0  0  0  0  0  0  0  0  0  0
  -28.2782  -24.1341   21.2074 C   0  0  0  0  0  0  0  0  0  1  0  0
  -25.6577  -32.4856   22.6967 C   0  0  1  0  0  0  0  0  0  0  0  0
  -28.2007  -33.4076   25.3524 C   0  0  2  0  0  0  0  0  0  0  0  0
  -32.3337  -19.0975   19.4183 C   0  0  2  0  0  0  0  0  0  0  0  0
  -25.1223  -33.5552   21.7033 C   0  0  0  0  0  0  0  0  0  0  0  0
  -31.5564  -23.3848   19.7385 N   0  0  0  0  0  0  0  0  0  0  0  0
  -26.5750  -12.6738   21.9937 N   0  0  0  0  0  0  0  0  0  0  0  0
  -29.4501  -23.6935   20.3711 N   0  0  0  0  0  0  0  0  0  0  0  0
  -26.6171  -13.8065   21.2716 N   0  0  0  0  0  0  0  0  0  0  0  0
  -24.6460  -30.2491   23.0100 N   0  0  0  0  0  0  0  0  0  0  0  0
  -29.7171  -16.0132   21.6332 N   0  0  0  0  0  0  0  0  0  0  0  0
  -25.2482  -15.4134   20.1970 N   0  0  0  0  0  0  0  0  0  0  0  0
  -22.2665  -12.5073   21.9464 N   0  0  0  0  0  0  0  0  0  0  0  0
  -21.3237  -29.1234   22.3582 N   0  0  0  0  0  0  0  0  0  0  0  0
  -26.3744  -33.0384   23.8408 N   0  0  0  0  0  0  0  0  0  0  0  0
  -31.0665  -17.9526   21.2392 N   0  0  0  0  0  0  0  0  0  0  0  0
  -29.1649  -32.5379   26.0837 N   0  3  0  0  0  0  0  0  0  0  0  0
  -32.4991  -20.4453   18.7601 N   0  3  1  0  0  0  0  0  0  0  0  0
  -22.4918  -14.4253   20.7097 O   0  0  0  0  0  0  0  0  0  0  0  0
  -23.2254  -29.2347   21.0189 O   0  0  0  0  0  0  0  0  0  0  0  0
  -23.6507  -32.1528   23.9164 O   0  0  0  0  0  0  0  0  0  0  0  0
  -28.3683  -31.9183   23.4573 O   0  0  0  0  0  0  0  0  0  0  0  0
  -28.7915  -17.9832   20.8773 O   0  0  0  0  0  0  0  0  0  0  0  0
  -23.4641   -7.9429   24.9073 O   0  0  0  0  0  0  0  0  0  0  0  0
  -28.1351  -25.5499   21.0614 O   0  0  0  0  0  0  0  0  0  1  0  0
  -19.4692   -4.9155   22.6095 F   0  0  0  0  0  0  0  0  0  0  0  0
  -23.8719   -5.2746   24.3104 F   0  0  0  0  0  0  0  0  0  0  0  0
  1  2  1  0  0  0  0
  1  5  2  0  0  0  0
  2  6  2  0  0  0  0
  3  8  2  0  0  0  0
  3 17  1  0  0  0  0
  4  9  1  0  0  0  0
  4 17  2  0  0  0  0
  5 19  1  0  0  0  0
  6 21  1  0  0  0  0
  7 10  2  0  0  0  0
  7 20  1  0  0  0  0
  8 23  1  0  0  0  0
  9 23  2  0  0  0  0
 10 24  1  0  0  0  0
 11 12  2  0  0  0  0
 11 25  1  0  0  0  0
 12 26  1  0  0  0  0
 13 22  1  0  0  0  0
 13 24  2  0  0  0  0
 14 26  2  0  0  0  0
 14 27  1  0  0  0  0
 15 29  2  0  0  0  0
 15 66  1  0  0  0  0
 16 64  2  0  0  0  0
 16 66  1  0  0  0  0
 17 28  1  0  0  0  0
 18 28  1  0  0  0  0
 18 30  2  0  0  0  0
 18 31  1  0  0  0  0
 19 21  2  0  0  0  0
 19 36  1  0  0  0  0
 20 22  2  0  0  0  0
 20 37  1  0  0  0  0
 21 45  1  0  0  0  0
 22 38  1  0  0  0  0
 23 82  1  0  0  0  0
 24 83  1  0  0  0  0
 25 27  2  0  0  0  0
 25 82  1  0  0  0  0
 26 84  1  0  0  0  0
 27 85  1  0  0  0  0
 28 65  2  0  0  0  0
 29 56  1  0  0  0  0
 29 64  1  0  0  0  0
 30 67  1  0  0  0  0
 30 70  1  0  0  0  0
 31 71  1  0  0  0  0
 31 77  2  0  0  0  0
 32 46  1  0  0  0  0
 32 72  1  0  0  0  0
 32 78  2  0  0  0  0
 33 60  1  0  0  0  0
 33 68  1  0  0  0  0
 33 79  2  0  0  0  0
 34 61  1  0  0  0  0
 34 73  1  0  0  0  0
 34 80  2  0  0  0  0
 35 69  1  0  0  0  0
 35 74  1  0  0  0  0
 35 81  2  0  0  0  0
 36 39  1  0  0  0  0
 37 46  1  0  0  0  0
 38 68  1  0  0  0  0
 39 41  1  0  0  0  0
 40 42  1  0  0  0  0
 40 43  1  0  0  0  0
 41 45  1  0  0  0  0
 42 47  1  0  0  0  0
 43 69  1  0  0  0  0
 44 47  1  0  0  0  0
 44 69  1  0  0  0  0
 45 72  1  0  0  0  0
 46 68  1  0  0  0  0
 47 67  1  0  0  0  0
 48 61  1  0  0  0  0
 49 62  1  0  0  0  0
 50 63  1  0  0  0  0
 51 63  1  0  0  0  0
 52 63  1  0  0  0  0
 53 74  1  0  0  0  0
 54 75  1  0  0  0  0
 55 76  1  0  0  0  0
 56 58  1  0  0  0  0
 57 62  1  0  0  0  0
 57 74  1  0  0  0  0
 58 76  1  0  0  0  0
 59 66  1  0  0  0  0
 59 83  1  0  0  0  0
 60 63  1  0  0  0  0
 60 73  1  0  0  0  0
 61 75  1  0  0  0  0
 62 76  1  0  0  0  0
 65 67  1  0  0  0  0
M  CHG  2  75   1  76   1
M  ISO  4  35 100  59 101  74 100  83 101
M  END
> <Batch ID>
0053

> <Smiles>
CNC(C)C(=O)NC(C(=O)N1Cc2cc([101O:1][101CH2:1]n3cnc(CCN(C)C(C)C[100N:0](C)[100C:0](=O)N4CCCC(n5nc(-c6ccc(Oc7ccc(F)cc7F)cc6)c(C(N)=O)c5N)C4)c3)ccc2CC1C(=O)NC1CCCc2ccccc21)C(C)(C)C

> <Shape>
0.296

> <Color>
0.130

> <Negative vol penalty>
0.000

$$$$

  -OEChem-04052317383D

 82 90  0     1  0  0  0  0  0999 V2000
  -31.0041  -22.9340   15.2328 C   0  0  0  0  0  0  0  0  0  0  0  0
  -30.5430  -22.7454   16.5317 C   0  0  0  0  0  0  0  0  0  0  0  0
  -26.4496  -13.0502   19.1535 C   0  0  0  0  0  0  0  0  0  0  0  0
  -26.1872  -12.8357   21.5456 C   0  0  0  0  0  0  0  0  0  0  0  0
  -31.2271  -24.2243   14.7539 C   0  0  0  0  0  0  0  0  0  0  0  0
  -30.3057  -23.8471   17.3529 C   0  0  0  0  0  0  0  0  0  0  0  0
  -25.9255  -23.4870   19.8688 C   0  0  0  0  0  0  0  0  0  0  0  0
  -25.9854  -11.7456   18.9855 C   0  0  0  0  0  0  0  0  0  0  0  0
  -25.7229  -11.5311   21.3777 C   0  0  0  0  0  0  0  0  0  0  0  0
  -25.9006  -22.6563   20.9882 C   0  0  0  0  0  0  0  0  0  0  0  0
  -22.8430  -10.0107   20.4752 C   0  0  0  0  0  0  0  0  0  0  0  0
  -21.7137   -9.6281   21.1990 C   0  0  0  0  0  0  0  0  0  0  0  0
  -26.1370  -24.5853   22.4174 C   0  0  0  0  0  0  0  0  0  0  0  0
  -22.9952   -7.8874   22.2783 C   0  0  0  0  0  0  0  0  0  0  0  0
  -28.7002  -15.1869   25.9261 C   0  0  0  0  0  0  0  0  0  0  0  0
  -26.5505  -13.5953   20.4335 C   0  0  0  0  0  0  0  0  0  0  0  0
  -26.2627  -16.1224   20.6294 C   0  0  0  0  0  0  0  0  0  0  0  0
  -30.9832  -25.3428   15.5664 C   0  0  0  0  0  0  0  0  0  0  0  0
  -26.0675  -24.8744   20.0150 C   0  0  0  0  0  0  0  0  0  0  0  0
  -30.5269  -25.1535   16.8849 C   0  0  0  0  0  0  0  0  0  0  0  0
  -26.1608  -25.4316   21.2984 C   0  0  0  0  0  0  0  0  0  0  0  0
  -25.6221  -10.9861   20.0976 C   0  0  0  0  0  0  0  0  0  0  0  0
  -26.0093  -23.2051   22.2626 C   0  0  0  0  0  0  0  0  0  0  0  0
  -24.0484   -9.3316   20.6529 C   0  0  0  0  0  0  0  0  0  0  0  0
  -21.7898   -8.5664   22.1006 C   0  0  0  0  0  0  0  0  0  0  0  0
  -24.1245   -8.2700   21.5544 C   0  0  0  0  0  0  0  0  0  0  0  0
  -27.0305  -14.9426   20.6076 C   0  0  0  0  0  0  0  0  0  0  0  0
  -27.1807  -17.1260   20.8209 C   0  0  0  0  0  0  0  0  0  0  0  0
  -29.8530  -16.7708   25.2053 C   0  0  0  0  0  0  0  0  0  0  0  0
  -24.8464  -16.2956   20.4891 C   0  0  0  0  0  0  0  0  0  0  0  0
  -28.2300  -27.0168   19.0997 C   0  0  0  0  0  0  0  0  0  0  0  0
  -26.0823  -29.1254   20.3094 C   0  0  0  0  0  0  0  0  0  0  0  0
  -23.4865  -29.7129   22.4456 C   0  0  0  0  0  0  0  0  0  0  0  0
  -32.7981  -16.7376   23.2359 C   0  0  0  0  0  0  0  0  0  0  0  0
  -31.2840  -26.7161   15.0205 C   0  0  0  0  0  0  0  0  0  0  0  0
  -26.0657  -25.7593   18.7987 C   0  0  0  0  0  0  0  0  0  0  0  0
  -26.2946  -26.9168   21.5103 C   0  0  0  0  0  0  0  0  0  0  0  0
  -30.6509  -27.8453   15.8295 C   0  0  0  0  0  0  0  0  0  0  0  0
  -31.7585  -18.2336   20.0136 C   0  0  0  0  0  0  0  0  0  0  0  0
  -30.8842  -27.6289   17.3213 C   0  0  0  0  0  0  0  0  0  0  0  0
  -30.3904  -17.5964   19.7766 C   0  0  0  0  0  0  0  0  0  0  0  0
  -32.6675  -17.3327   20.8442 C   0  0  0  0  0  0  0  0  0  0  0  0
  -30.7029  -16.2666   21.9013 C   0  0  0  0  0  0  0  0  0  0  0  0
  -30.2341  -26.3244   17.7979 C   0  0  1  0  0  0  0  0  0  0  0  0
  -26.7315  -27.1103   19.0417 C   0  0  1  0  0  0  0  0  0  0  0  0
  -29.7465  -17.1687   21.1069 C   0  0  2  0  0  0  0  0  0  0  0  0
  -21.9654  -31.5436   23.2409 C   0  0  0  0  0  0  0  0  0  0  0  0
  -28.3464  -30.2654   22.0077 C   0  0  0  0  0  0  0  0  0  0  0  0
  -26.6201  -31.3964   23.4252 C   0  0  0  0  0  0  0  0  0  0  0  0
  -26.8257  -31.9814   21.0089 C   0  0  0  0  0  0  0  0  0  0  0  0
  -32.9524  -16.8304   25.6950 C   0  0  0  0  0  0  0  0  0  0  0  0
  -21.0782  -28.2911   21.4772 C   0  0  0  0  0  0  0  0  0  0  0  0
  -30.8860  -17.6457   24.6222 C   0  0  0  0  0  0  0  0  0  0  0  0
  -27.6394  -19.1883   24.4263 C   0  0  0  0  0  0  0  0  0  0  0  0
  -27.0592  -20.5996   24.5313 C   0  0  0  0  0  0  0  0  0  0  0  0
  -28.1842  -18.6629   25.7593 C   0  0  0  0  0  0  0  0  0  0  0  0
  -26.4967  -21.0736   23.1979 C   0  0  0  0  0  0  0  0  0  1  0  0
  -25.8406  -29.7469   21.6638 C   0  0  1  0  0  0  0  0  0  0  0  0
  -22.1538  -30.4112   22.2434 C   0  0  2  0  0  0  0  0  0  0  0  0
  -26.9076  -30.8193   22.0227 C   0  0  0  0  0  0  0  0  0  0  0  0
  -29.8998  -15.4654   25.3360 N   0  0  0  0  0  0  0  0  0  0  0  0
  -27.9141  -16.2379   26.1686 N   0  0  0  0  0  0  0  0  0  0  0  0
  -28.3357  -15.1737   20.7720 N   0  0  0  0  0  0  0  0  0  0  0  0
  -28.3952  -16.5103   20.8989 N   0  0  0  0  0  0  0  0  0  0  0  0
  -28.6747  -17.2382   25.6982 N   0  0  0  0  0  0  0  0  0  0  0  0
  -26.2943  -27.7396   20.2894 N   0  0  0  0  0  0  0  0  0  0  0  0
  -32.0147  -16.9060   22.0823 N   0  0  0  0  0  0  0  0  0  0  0  0
  -27.0594  -18.4662   20.9285 N   0  0  0  0  0  0  0  0  0  0  0  0
  -24.0498  -15.1583   20.2989 N   0  0  0  0  0  0  0  0  0  0  0  0
  -28.8062  -26.4993   17.9553 N   0  0  0  0  0  0  0  0  0  0  0  0
  -24.4713  -30.2498   21.6436 N   0  0  0  0  0  0  0  0  0  0  0  0
  -32.1782  -16.9804   24.4710 N   0  0  0  0  0  0  0  0  0  0  0  0
  -21.0318  -29.4449   22.4119 N   0  3  0  0  0  0  0  0  0  0  0  0
  -24.3052  -17.4270   20.5146 O   0  0  0  0  0  0  0  0  0  0  0  0
  -28.8199  -27.3881   20.1076 O   0  0  0  0  0  0  0  0  0  0  0  0
  -26.0759  -29.8420   19.3054 O   0  0  0  0  0  0  0  0  0  0  0  0
  -23.6394  -28.7865   23.2386 O   0  0  0  0  0  0  0  0  0  0  0  0
  -33.9866  -16.3993   23.1654 O   0  0  0  0  0  0  0  0  0  0  0  0
  -25.1688   -9.7132   19.9341 O   0  0  0  0  0  0  0  0  0  0  0  0
  -25.9860  -22.3965   23.3569 O   0  0  0  0  0  0  0  0  0  1  0  0
  -20.7056   -8.2001   22.7967 F   0  0  0  0  0  0  0  0  0  0  0  0
  -25.2800   -7.6145   21.7303 F   0  0  0  0  0  0  0  0  0  0  0  0
  1  2  1  0  0  0  0
  1  5  2  0  0  0  0
  2  6  2  0  0  0  0
  3  8  2  0  0  0  0
  3 16  1  0  0  0  0
  4  9  1  0  0  0  0
  4 16  2  0  0  0  0
  5 18  1  0  0  0  0
  6 20  1  0  0  0  0
  7 10  2  0  0  0  0
  7 19  1  0  0  0  0
  8 22  1  0  0  0  0
  9 22  2  0  0  0  0
 10 23  1  0  0  0  0
 11 12  2  0  0  0  0
 11 24  1  0  0  0  0
 12 25  1  0  0  0  0
 13 21  1  0  0  0  0
 13 23  2  0  0  0  0
 14 25  2  0  0  0  0
 14 26  1  0  0  0  0
 15 61  1  0  0  0  0
 15 62  2  0  0  0  0
 16 27  1  0  0  0  0
 17 27  1  0  0  0  0
 17 28  2  0  0  0  0
 17 30  1  0  0  0  0
 18 20  2  0  0  0  0
 18 35  1  0  0  0  0
 19 21  2  0  0  0  0
 19 36  1  0  0  0  0
 20 44  1  0  0  0  0
 21 37  1  0  0  0  0
 22 79  1  0  0  0  0
 23 80  1  0  0  0  0
 24 26  2  0  0  0  0
 24 79  1  0  0  0  0
 25 81  1  0  0  0  0
 26 82  1  0  0  0  0
 27 63  2  0  0  0  0
 28 64  1  0  0  0  0
 28 68  1  0  0  0  0
 29 53  1  0  0  0  0
 29 61  2  0  0  0  0
 29 65  1  0  0  0  0
 30 69  1  0  0  0  0
 30 74  2  0  0  0  0
 31 45  1  0  0  0  0
 31 70  1  0  0  0  0
 31 75  2  0  0  0  0
 32 58  1  0  0  0  0
 32 66  1  0  0  0  0
 32 76  2  0  0  0  0
 33 59  1  0  0  0  0
 33 71  1  0  0  0  0
 33 77  2  0  0  0  0
 34 67  1  0  0  0  0
 34 72  1  0  0  0  0
 34 78  2  0  0  0  0
 35 38  1  0  0  0  0
 36 45  1  0  0  0  0
 37 66  1  0  0  0  0
 38 40  1  0  0  0  0
 39 41  1  0  0  0  0
 39 42  1  0  0  0  0
 40 44  1  0  0  0  0
 41 46  1  0  0  0  0
 42 67  1  0  0  0  0
 43 46  1  0  0  0  0
 43 67  1  0  0  0  0
 44 70  1  0  0  0  0
 45 66  1  0  0  0  0
 46 64  1  0  0  0  0
 47 59  1  0  0  0  0
 48 60  1  0  0  0  0
 49 60  1  0  0  0  0
 50 60  1  0  0  0  0
 51 72  1  0  0  0  0
 52 73  1  0  0  0  0
 53 72  1  0  0  0  0
 54 55  1  0  0  0  0
 54 56  1  0  0  0  0
 55 57  1  0  0  0  0
 56 65  1  0  0  0  0
 57 80  1  0  0  0  0
 58 60  1  0  0  0  0
 58 71  1  0  0  0  0
 59 73  1  0  0  0  0
 62 65  1  0  0  0  0
 63 64  1  0  0  0  0
M  CHG  1  73   1
M  ISO  4  34 100  57 101  72 100  80 101
M  END
> <Batch ID>
0053

> <Smiles>
CNC(C)C(=O)NC(C(=O)N1Cc2cc([101O:1][101CH2:1]CCCn3ncnc3C[100N:0](C)[100C:0](=O)N3CCCC(n4nc(-c5ccc(Oc6ccc(F)cc6F)cc5)c(C(N)=O)c4N)C3)ccc2CC1C(=O)NC1CCCc2ccccc21)C(C)(C)C

> <Shape>
0.229

> <Color>
0.073

> <Negative vol penalty>
0.000

$$$$

  -OEChem-04052317383D

 83 91  0     1  0  0  0  0  0999 V2000
  -19.0030  -30.6810   24.5050 C   0  0  0  0  0  0  0  0  0  0  0  0
  -20.3721  -30.5756   24.2815 C   0  0  0  0  0  0  0  0  0  0  0  0
  -26.0270  -13.9253   21.2891 C   0  0  0  0  0  0  0  0  0  0  0  0
  -26.3533  -13.5756   18.9209 C   0  0  0  0  0  0  0  0  0  0  0  0
  -18.1536  -29.6432   24.1238 C   0  0  0  0  0  0  0  0  0  0  0  0
  -20.8927  -29.4316   23.6777 C   0  0  0  0  0  0  0  0  0  0  0  0
  -25.6637  -29.1362   19.8494 C   0  0  0  0  0  0  0  0  0  0  0  0
  -25.2360  -12.7780   21.3495 C   0  0  0  0  0  0  0  0  0  0  0  0
  -25.5623  -12.4283   18.9814 C   0  0  0  0  0  0  0  0  0  0  0  0
  -27.0040  -28.8056   20.0447 C   0  0  0  0  0  0  0  0  0  0  0  0
  -22.0631  -11.8976   20.5868 C   0  0  0  0  0  0  0  0  0  0  0  0
  -20.8677  -11.9724   21.3015 C   0  0  0  0  0  0  0  0  0  0  0  0
  -26.5405  -26.5419   19.3519 C   0  0  0  0  0  0  0  0  0  0  0  0
  -21.6371  -10.2166   22.7720 C   0  0  0  0  0  0  0  0  0  0  0  0
  -30.0620  -22.6050   19.9129 C   0  0  0  0  0  0  0  0  0  0  0  0
  -26.5856  -14.3241   20.0748 C   0  0  0  0  0  0  0  0  0  0  0  0
  -28.7961  -15.5921   20.1912 C   0  0  0  0  0  0  0  0  0  0  0  0
  -18.6630  -28.4900   23.5062 C   0  0  0  0  0  0  0  0  0  0  0  0
  -24.7480  -28.1677   19.4135 C   0  0  0  0  0  0  0  0  0  0  0  0
  -20.0495  -28.3767   23.2891 C   0  0  0  0  0  0  0  0  0  0  0  0
  -25.1896  -26.8633   19.1494 C   0  0  0  0  0  0  0  0  0  0  0  0
  -25.0037  -12.0295   20.1957 C   0  0  0  0  0  0  0  0  0  0  0  0
  -27.4420  -27.5077   19.7987 C   0  0  0  0  0  0  0  0  0  0  0  0
  -23.0455  -10.9822   20.9645 C   0  0  0  0  0  0  0  0  0  0  0  0
  -20.6547  -11.1319   22.3942 C   0  0  0  0  0  0  0  0  0  0  0  0
  -22.8325  -10.1418   22.0572 C   0  0  0  0  0  0  0  0  0  0  0  0
  -27.4023  -15.5095   20.0116 C   0  0  0  0  0  0  0  0  0  0  0  0
  -30.8524  -21.9705   18.9360 C   0  0  0  0  0  0  0  0  0  0  0  0
  -30.9256  -23.4626   20.5495 C   0  0  0  0  0  0  0  0  0  0  0  0
  -29.0842  -16.9257   20.0332 C   0  0  0  0  0  0  0  0  0  0  0  0
  -29.7455  -14.5560   20.4755 C   0  0  0  0  0  0  0  0  0  0  0  0
  -22.1166  -26.8616   20.6275 C   0  0  0  0  0  0  0  0  0  0  0  0
  -21.9381  -25.4546   17.7101 C   0  0  0  0  0  0  0  0  0  0  0  0
  -23.5580  -24.4061   14.8952 C   0  0  0  0  0  0  0  0  0  0  0  0
  -28.2472  -21.5508   16.8355 C   0  0  0  0  0  0  0  0  0  0  0  0
  -17.7112  -27.3741   23.1547 C   0  0  0  0  0  0  0  0  0  0  0  0
  -23.3110  -28.5469   19.1820 C   0  0  0  0  0  0  0  0  0  0  0  0
  -24.2506  -25.7919   18.6608 C   0  0  0  0  0  0  0  0  0  0  0  0
  -18.2990  -26.3563   22.1806 C   0  0  0  0  0  0  0  0  0  0  0  0
  -26.0557  -20.9566   19.7588 C   0  0  0  0  0  0  0  0  0  0  0  0
  -19.7052  -25.9538   22.6133 C   0  0  0  0  0  0  0  0  0  0  0  0
  -26.2793  -19.4730   20.0467 C   0  0  0  0  0  0  0  0  0  0  0  0
  -26.2666  -21.2864   18.2842 C   0  0  0  0  0  0  0  0  0  0  0  0
  -27.8121  -19.3715   18.0415 C   0  0  0  0  0  0  0  0  0  0  0  0
  -20.6493  -27.1622   22.6143 C   0  0  1  0  0  0  0  0  0  0  0  0
  -22.3629  -27.3526   19.2289 C   0  0  1  0  0  0  0  0  0  0  0  0
  -27.6529  -19.0143   19.5269 C   0  0  2  0  0  0  0  0  0  0  0  0
  -34.3209  -23.1081   21.0503 C   0  0  0  0  0  0  0  0  0  0  0  0
  -23.1522  -23.2574   12.7014 C   0  0  0  0  0  0  0  0  0  0  0  0
  -21.7366  -22.7741   19.1537 C   0  0  0  0  0  0  0  0  0  0  0  0
  -22.2887  -21.6454   16.9882 C   0  0  0  0  0  0  0  0  0  0  0  0
  -20.2135  -23.0157   17.1848 C   0  0  0  0  0  0  0  0  0  0  0  0
  -30.4051  -22.2658   15.8806 C   0  0  0  0  0  0  0  0  0  0  0  0
  -24.4799  -26.7618   13.3590 C   0  0  0  0  0  0  0  0  0  0  0  0
  -30.4294  -20.9471   17.9653 C   0  0  0  0  0  0  0  0  0  0  0  0
  -30.7045  -24.4268   21.6875 C   0  0  0  0  0  0  0  0  0  0  0  0
  -30.2893  -25.8284   21.2354 C   0  0  0  0  0  0  0  0  0  0  0  0
  -33.3665  -23.9804   20.2530 C   0  0  0  0  0  0  0  0  0  0  0  0
  -29.0353  -25.8366   20.3688 C   0  0  0  0  0  0  0  0  0  1  0  0
  -22.4602  -24.1727   17.1077 C   0  0  1  0  0  0  0  0  0  0  0  0
  -23.2418  -24.5934   13.4223 C   0  0  2  0  0  0  0  0  0  0  0  0
  -21.6923  -22.9214   17.6197 C   0  0  0  0  0  0  0  0  0  0  0  0
  -26.8437  -16.6962   19.7589 N   0  0  0  0  0  0  0  0  0  0  0  0
  -32.1207  -22.3894   18.9472 N   0  0  0  0  0  0  0  0  0  0  0  0
  -32.1337  -23.2963   19.9388 N   0  0  0  0  0  0  0  0  0  0  0  0
  -27.8918  -17.5371   19.7787 N   0  0  0  0  0  0  0  0  0  0  0  0
  -22.8541  -26.2103   18.4556 N   0  0  0  0  0  0  0  0  0  0  0  0
  -27.5614  -20.8012   17.8053 N   0  0  0  0  0  0  0  0  0  0  0  0
  -30.2386  -17.6234   20.0885 N   0  0  0  0  0  0  0  0  0  0  0  0
  -29.2797  -13.2406   20.6063 N   0  0  0  0  0  0  0  0  0  0  0  0
  -21.0599  -27.4839   21.2643 N   0  0  0  0  0  0  0  0  0  0  0  0
  -22.4123  -24.3525   15.6607 N   0  0  0  0  0  0  0  0  0  0  0  0
  -29.6491  -21.4967   16.8587 N   0  0  0  0  0  0  0  0  0  0  0  0
  -24.2999  -25.4119   12.7654 N   0  3  0  0  0  0  0  0  0  0  0  0
  -30.9682  -14.7922   20.6258 O   0  0  0  0  0  0  0  0  0  0  0  0
  -22.8314  -25.9821   21.0937 O   0  0  0  0  0  0  0  0  0  0  0  0
  -20.7628  -25.7774   17.5200 O   0  0  0  0  0  0  0  0  0  0  0  0
  -24.7062  -24.3128   15.3234 O   0  0  0  0  0  0  0  0  0  0  0  0
  -27.6413  -22.2373   16.0028 O   0  0  0  0  0  0  0  0  0  0  0  0
  -24.2321  -10.9097   20.2544 O   0  0  0  0  0  0  0  0  0  0  0  0
  -28.7495  -27.1822   19.9892 O   0  0  0  0  0  0  0  0  0  1  0  0
  -19.5073  -11.2049   23.0815 F   0  0  0  0  0  0  0  0  0  0  0  0
  -23.7731   -9.2612   22.4256 F   0  0  0  0  0  0  0  0  0  0  0  0
  1  2  1  0  0  0  0
  1  5  2  0  0  0  0
  2  6  2  0  0  0  0
  3  8  2  0  0  0  0
  3 16  1  0  0  0  0
  4  9  1  0  0  0  0
  4 16  2  0  0  0  0
  5 18  1  0  0  0  0
  6 20  1  0  0  0  0
  7 10  2  0  0  0  0
  7 19  1  0  0  0  0
  8 22  1  0  0  0  0
  9 22  2  0  0  0  0
 10 23  1  0  0  0  0
 11 12  2  0  0  0  0
 11 24  1  0  0  0  0
 12 25  1  0  0  0  0
 13 21  1  0  0  0  0
 13 23  2  0  0  0  0
 14 25  2  0  0  0  0
 14 26  1  0  0  0  0
 15 28  1  0  0  0  0
 15 29  2  0  0  0  0
 16 27  1  0  0  0  0
 17 27  1  0  0  0  0
 17 30  2  0  0  0  0
 17 31  1  0  0  0  0
 18 20  2  0  0  0  0
 18 36  1  0  0  0  0
 19 21  2  0  0  0  0
 19 37  1  0  0  0  0
 20 45  1  0  0  0  0
 21 38  1  0  0  0  0
 22 80  1  0  0  0  0
 23 81  1  0  0  0  0
 24 26  2  0  0  0  0
 24 80  1  0  0  0  0
 25 82  1  0  0  0  0
 26 83  1  0  0  0  0
 27 63  2  0  0  0  0
 28 55  1  0  0  0  0
 28 64  2  0  0  0  0
 29 56  1  0  0  0  0
 29 65  1  0  0  0  0
 30 66  1  0  0  0  0
 30 69  1  0  0  0  0
 31 70  1  0  0  0  0
 31 75  2  0  0  0  0
 32 46  1  0  0  0  0
 32 71  1  0  0  0  0
 32 76  2  0  0  0  0
 33 60  1  0  0  0  0
 33 67  1  0  0  0  0
 33 77  2  0  0  0  0
 34 61  1  0  0  0  0
 34 72  1  0  0  0  0
 34 78  2  0  0  0  0
 35 68  1  0  0  0  0
 35 73  1  0  0  0  0
 35 79  2  0  0  0  0
 36 39  1  0  0  0  0
 37 46  1  0  0  0  0
 38 67  1  0  0  0  0
 39 41  1  0  0  0  0
 40 42  1  0  0  0  0
 40 43  1  0  0  0  0
 41 45  1  0  0  0  0
 42 47  1  0  0  0  0
 43 68  1  0  0  0  0
 44 47  1  0  0  0  0
 44 68  1  0  0  0  0
 45 71  1  0  0  0  0
 46 67  1  0  0  0  0
 47 66  1  0  0  0  0
 48 58  1  0  0  0  0
 49 61  1  0  0  0  0
 50 62  1  0  0  0  0
 51 62  1  0  0  0  0
 52 62  1  0  0  0  0
 53 73  1  0  0  0  0
 54 74  1  0  0  0  0
 55 73  1  0  0  0  0
 56 57  1  0  0  0  0
 57 59  1  0  0  0  0
 58 65  1  0  0  0  0
 59 81  1  0  0  0  0
 60 62  1  0  0  0  0
 60 72  1  0  0  0  0
 61 74  1  0  0  0  0
 63 66  1  0  0  0  0
 64 65  1  0  0  0  0
M  CHG  1  74   1
M  ISO  4  35 100  59 101  73 100  81 101
M  END
> <Batch ID>
0053

> <Smiles>
CCn1nc(C[100N:0](C)[100C:0](=O)N2CCCC(n3nc(-c4ccc(Oc5ccc(F)cc5F)cc4)c(C(N)=O)c3N)C2)cc1CC[101CH2:1][101O:1]c1ccc2c(c1)CN(C(=O)C(NC(=O)C(C)NC)C(C)(C)C)C(C(=O)NC1CCCc3ccccc31)C2

> <Shape>
0.241

> <Color>
0.080

> <Negative vol penalty>
0.000

$$$$

  -OEChem-04052317383D

 89 97  0     1  0  0  0  0  0999 V2000
  -44.0439  -22.0100   17.4371 C   0  0  0  0  0  0  0  0  0  0  0  0
  -42.7071  -21.6258   17.4110 C   0  0  0  0  0  0  0  0  0  0  0  0
  -23.0016   -9.8935   19.9816 C   0  0  0  0  0  0  0  0  0  0  0  0
  -23.7311   -9.9431   22.2843 C   0  0  0  0  0  0  0  0  0  0  0  0
  -45.0125  -21.1274   17.9132 C   0  0  0  0  0  0  0  0  0  0  0  0
  -42.3382  -20.3583   17.8600 C   0  0  0  0  0  0  0  0  0  0  0  0
  -38.2426  -20.4673   20.8365 C   0  0  0  0  0  0  0  0  0  0  0  0
  -22.2372   -8.7577   20.2482 C   0  0  0  0  0  0  0  0  0  0  0  0
  -22.9667   -8.8073   22.5510 C   0  0  0  0  0  0  0  0  0  0  0  0
  -37.0038  -20.5981   20.2104 C   0  0  0  0  0  0  0  0  0  0  0  0
  -23.2148   -5.4692   22.0751 C   0  0  0  0  0  0  0  0  0  0  0  0
  -23.8052   -4.4521   22.8251 C   0  0  0  0  0  0  0  0  0  0  0  0
  -36.6471  -18.2228   20.4335 C   0  0  0  0  0  0  0  0  0  0  0  0
  -22.0842   -4.6908   24.5038 C   0  0  0  0  0  0  0  0  0  0  0  0
  -33.1017  -20.3321   17.0926 C   0  0  0  0  0  0  0  0  0  0  0  0
  -23.7486  -10.4863   20.9997 C   0  0  0  0  0  0  0  0  0  0  0  0
  -24.1300  -13.0026   20.8256 C   0  0  0  0  0  0  0  0  0  0  0  0
  -44.6542  -19.8520   18.3773 C   0  0  0  0  0  0  0  0  0  0  0  0
  -38.6985  -19.2096   21.2567 C   0  0  0  0  0  0  0  0  0  0  0  0
  -43.3032  -19.4573   18.3416 C   0  0  0  0  0  0  0  0  0  0  0  0
  -37.8910  -18.0791   21.0669 C   0  0  0  0  0  0  0  0  0  0  0  0
  -22.2197   -8.2146   21.5329 C   0  0  0  0  0  0  0  0  0  0  0  0
  -36.2071  -19.4753   20.0062 C   0  0  0  0  0  0  0  0  0  0  0  0
  -22.0591   -6.0972   22.5395 C   0  0  0  0  0  0  0  0  0  0  0  0
  -23.2399   -4.0628   24.0394 C   0  0  0  0  0  0  0  0  0  0  0  0
  -21.4938   -5.7080   23.7539 C   0  0  0  0  0  0  0  0  0  0  0  0
  -24.5389  -11.6593   20.7248 C   0  0  0  0  0  0  0  0  0  0  0  0
  -33.2441  -20.8451   18.3657 C   0  0  0  0  0  0  0  0  0  0  0  0
  -31.8134  -20.3098   16.5985 C   0  0  0  0  0  0  0  0  0  0  0  0
  -25.2381  -13.7271   20.4598 C   0  0  0  0  0  0  0  0  0  0  0  0
  -31.0086  -21.2287   18.5155 C   0  0  0  0  0  0  0  0  0  0  0  0
  -22.8620  -13.5468   21.2151 C   0  0  0  0  0  0  0  0  0  0  0  0
  -41.1808  -17.3639   20.5247 C   0  0  0  0  0  0  0  0  0  0  0  0
  -40.0399  -15.5365   22.9499 C   0  0  0  0  0  0  0  0  0  0  0  0
  -37.3796  -14.6129   24.8777 C   0  0  0  0  0  0  0  0  0  0  0  0
  -30.7336  -14.6693   20.6989 C   0  0  0  0  0  0  0  0  0  0  0  0
  -45.7424  -18.9152   18.8387 C   0  0  0  0  0  0  0  0  0  0  0  0
  -40.0255  -19.0893   21.9545 C   0  0  0  0  0  0  0  0  0  0  0  0
  -38.3256  -16.7093   21.5177 C   0  0  0  0  0  0  0  0  0  0  0  0
  -45.2226  -17.7283   19.6459 C   0  0  0  0  0  0  0  0  0  0  0  0
  -29.5919  -12.2464   18.3531 C   0  0  0  0  0  0  0  0  0  0  0  0
  -44.0173  -17.0992   18.9543 C   0  0  0  0  0  0  0  0  0  0  0  0
  -28.1446  -11.9842   18.7731 C   0  0  0  0  0  0  0  0  0  0  0  0
  -30.4963  -12.4818   19.5609 C   0  0  0  0  0  0  0  0  0  0  0  0
  -28.5875  -13.2733   20.9041 C   0  0  0  0  0  0  0  0  0  0  0  0
  -42.8606  -18.0998   18.8432 C   0  0  1  0  0  0  0  0  0  0  0  0
  -40.6150  -17.6842   21.8793 C   0  0  1  0  0  0  0  0  0  0  0  0
  -27.6265  -13.0855   19.7177 C   0  0  2  0  0  0  0  0  0  0  0  0
  -36.7473  -13.0702   26.7532 C   0  0  0  0  0  0  0  0  0  0  0  0
  -40.0465  -13.1805   21.0109 C   0  0  0  0  0  0  0  0  0  0  0  0
  -38.5546  -11.9547   22.6046 C   0  0  0  0  0  0  0  0  0  0  0  0
  -40.8461  -12.6359   23.3171 C   0  0  0  0  0  0  0  0  0  0  0  0
  -36.6063  -16.8703   26.6285 C   0  0  0  0  0  0  0  0  0  0  0  0
  -27.5188  -19.5728   19.3053 C   0  0  0  0  0  0  0  0  0  0  0  0
  -34.6078  -20.9111   18.9880 C   0  0  0  0  0  0  0  0  0  1  0  0
  -29.8462  -21.7299   19.3039 C   0  0  0  0  0  0  0  0  0  0  0  0
  -30.5640  -17.9791   20.8960 C   0  0  0  0  0  0  0  0  0  0  0  0
  -30.8154  -16.8471   21.8862 C   0  0  0  0  0  0  0  0  0  0  0  0
  -29.3890  -20.7848   20.4162 C   0  0  0  0  0  0  0  0  0  0  0  0
  -29.0879  -18.3426   20.7974 C   0  0  0  0  0  0  0  0  0  0  0  0
  -39.0530  -14.3994   23.0587 C   0  0  1  0  0  0  0  0  0  0  0  0
  -37.2284  -14.4640   26.3809 C   0  0  2  0  0  0  0  0  0  0  0  0
  -31.5606  -19.7743   15.2290 C   0  0  0  0  0  0  0  0  0  0  0  0
  -39.6174  -13.0680   22.4875 C   0  0  0  0  0  0  0  0  0  0  0  0
  -25.8076  -11.5350   20.3261 N   0  0  0  0  0  0  0  0  0  0  0  0
  -32.2154  -21.3039   19.1084 N   0  0  0  0  0  0  0  0  0  0  0  0
  -30.7394  -20.7515   17.2853 N   0  0  0  0  0  0  0  0  0  0  0  0
  -26.2055  -12.8095   20.1730 N   0  0  0  0  0  0  0  0  0  0  0  0
  -39.6339  -16.6423   22.1895 N   0  0  0  0  0  0  0  0  0  0  0  0
  -29.9496  -13.5389   20.4151 N   0  0  0  0  0  0  0  0  0  0  0  0
  -25.4695  -15.0533   20.3587 N   0  0  0  0  0  0  0  0  0  0  0  0
  -21.8322  -12.6608   21.5596 N   0  0  0  0  0  0  0  0  0  0  0  0
  -42.1785  -18.2269   20.1133 N   0  0  0  0  0  0  0  0  0  0  0  0
  -38.6638  -14.3297   24.4630 N   0  0  0  0  0  0  0  0  0  0  0  0
  -30.1374  -15.6264   21.5109 N   0  0  0  0  0  0  0  0  0  0  0  0
  -36.2462  -15.4555   26.9034 N   0  3  0  0  0  0  0  0  0  0  0  0
  -28.9281  -19.4977   19.8396 N   0  3  1  0  0  0  0  0  0  0  0  0
  -22.6436  -14.7817   21.2405 O   0  0  0  0  0  0  0  0  0  0  0  0
  -40.7454  -16.4039   19.8997 O   0  0  0  0  0  0  0  0  0  0  0  0
  -41.1281  -15.4498   23.5243 O   0  0  0  0  0  0  0  0  0  0  0  0
  -36.4505  -14.9436   24.1443 O   0  0  0  0  0  0  0  0  0  0  0  0
  -31.8779  -14.8173   20.2568 O   0  0  0  0  0  0  0  0  0  0  0  0
  -21.4737   -7.1063   21.7935 O   0  0  0  0  0  0  0  0  0  0  0  0
  -34.9978  -19.6000   19.3947 O   0  0  0  0  0  0  0  0  0  1  0  0
  -23.8061   -3.0850   24.7587 F   0  0  0  0  0  0  0  0  0  0  0  0
  -20.3829   -6.3068   24.2046 F   0  0  0  0  0  0  0  0  0  0  0  0
  -32.6904  -19.3470   14.5918 F   0  0  0  0  0  0  0  0  0  0  0  0
  -30.7135  -18.7033   15.2092 F   0  0  0  0  0  0  0  0  0  0  0  0
  -30.9997  -20.7008   14.3988 F   0  0  0  0  0  0  0  0  0  0  0  0
  1  2  1  0  0  0  0
  1  5  2  0  0  0  0
  2  6  2  0  0  0  0
  3  8  2  0  0  0  0
  3 16  1  0  0  0  0
  4  9  1  0  0  0  0
  4 16  2  0  0  0  0
  5 18  1  0  0  0  0
  6 20  1  0  0  0  0
  7 10  2  0  0  0  0
  7 19  1  0  0  0  0
  8 22  1  0  0  0  0
  9 22  2  0  0  0  0
 10 23  1  0  0  0  0
 11 12  2  0  0  0  0
 11 24  1  0  0  0  0
 12 25  1  0  0  0  0
 13 21  1  0  0  0  0
 13 23  2  0  0  0  0
 14 25  2  0  0  0  0
 14 26  1  0  0  0  0
 15 28  1  0  0  0  0
 15 29  2  0  0  0  0
 16 27  1  0  0  0  0
 17 27  1  0  0  0  0
 17 30  2  0  0  0  0
 17 32  1  0  0  0  0
 18 20  2  0  0  0  0
 18 37  1  0  0  0  0
 19 21  2  0  0  0  0
 19 38  1  0  0  0  0
 20 46  1  0  0  0  0
 21 39  1  0  0  0  0
 22 83  1  0  0  0  0
 23 84  1  0  0  0  0
 24 26  2  0  0  0  0
 24 83  1  0  0  0  0
 25 85  1  0  0  0  0
 26 86  1  0  0  0  0
 27 65  2  0  0  0  0
 28 55  1  0  0  0  0
 28 66  2  0  0  0  0
 29 63  1  0  0  0  0
 29 67  1  0  0  0  0
 30 68  1  0  0  0  0
 30 71  1  0  0  0  0
 31 56  1  0  0  0  0
 31 66  1  0  0  0  0
 31 67  2  0  0  0  0
 32 72  1  0  0  0  0
 32 78  2  0  0  0  0
 33 47  1  0  0  0  0
 33 73  1  0  0  0  0
 33 79  2  0  0  0  0
 34 61  1  0  0  0  0
 34 69  1  0  0  0  0
 34 80  2  0  0  0  0
 35 62  1  0  0  0  0
 35 74  1  0  0  0  0
 35 81  2  0  0  0  0
 36 70  1  0  0  0  0
 36 75  1  0  0  0  0
 36 82  2  0  0  0  0
 37 40  1  0  0  0  0
 38 47  1  0  0  0  0
 39 69  1  0  0  0  0
 40 42  1  0  0  0  0
 41 43  1  0  0  0  0
 41 44  1  0  0  0  0
 42 46  1  0  0  0  0
 43 48  1  0  0  0  0
 44 70  1  0  0  0  0
 45 48  1  0  0  0  0
 45 70  1  0  0  0  0
 46 73  1  0  0  0  0
 47 69  1  0  0  0  0
 48 68  1  0  0  0  0
 49 62  1  0  0  0  0
 50 64  1  0  0  0  0
 51 64  1  0  0  0  0
 52 64  1  0  0  0  0
 53 76  1  0  0  0  0
 54 77  1  0  0  0  0
 55 84  1  0  0  0  0
 56 59  1  0  0  0  0
 57 58  1  0  0  0  0
 57 60  1  0  0  0  0
 58 75  1  0  0  0  0
 59 77  1  0  0  0  0
 60 77  1  0  0  0  0
 61 64  1  0  0  0  0
 61 74  1  0  0  0  0
 62 76  1  0  0  0  0
 63 87  1  0  0  0  0
 63 88  1  0  0  0  0
 63 89  1  0  0  0  0
 65 68  1  0  0  0  0
M  CHG  2  76   1  77   1
M  ISO  4  36 100  55 101  75 100  84 101
M  END
> <Batch ID>
0053

> <Smiles>
CNC(C)C(=O)NC(C(=O)N1Cc2cc([101O:1][101CH2:1]c3cc(C(F)(F)F)nc(CCN(C)CCC[100NH:0][100C:0](=O)N4CCCC(n5nc(-c6ccc(Oc7ccc(F)cc7F)cc6)c(C(N)=O)c5N)C4)n3)ccc2CC1C(=O)NC1CCCc2ccccc21)C(C)(C)C

> <Shape>
0.199

> <Color>
0.189

> <Negative vol penalty>
0.000

$$$$

  -OEChem-04052317383D

 85 93  0     1  0  0  0  0  0999 V2000
  -16.8419  -26.4127   24.6876 C   0  0  0  0  0  0  0  0  0  0  0  0
  -17.7889  -25.4046   24.5379 C   0  0  0  0  0  0  0  0  0  0  0  0
  -23.2061   -9.7265   19.9057 C   0  0  0  0  0  0  0  0  0  0  0  0
  -23.8009   -9.8684   22.2430 C   0  0  0  0  0  0  0  0  0  0  0  0
  -17.0997  -27.6892   24.1897 C   0  0  0  0  0  0  0  0  0  0  0  0
  -18.9939  -25.6723   23.8893 C   0  0  0  0  0  0  0  0  0  0  0  0
  -24.4803  -23.2758   25.1784 C   0  0  0  0  0  0  0  0  0  0  0  0
  -22.4730   -8.5680   20.1626 C   0  0  0  0  0  0  0  0  0  0  0  0
  -23.0678   -8.7099   22.5000 C   0  0  0  0  0  0  0  0  0  0  0  0
  -25.2027  -22.2271   24.6107 C   0  0  0  0  0  0  0  0  0  0  0  0
  -19.8242   -7.8579   22.9166 C   0  0  0  0  0  0  0  0  0  0  0  0
  -18.9872   -7.8566   24.0323 C   0  0  0  0  0  0  0  0  0  0  0  0
  -26.4149  -23.8070   23.2493 C   0  0  0  0  0  0  0  0  0  0  0  0
  -20.2173   -5.9921   24.9529 C   0  0  0  0  0  0  0  0  0  0  0  0
  -28.3722  -20.5748   17.1435 C   0  0  0  0  0  0  0  0  0  0  0  0
  -23.8701  -10.3767   20.9459 C   0  0  0  0  0  0  0  0  0  0  0  0
  -24.1616  -12.9009   20.7193 C   0  0  0  0  0  0  0  0  0  0  0  0
  -18.3125  -27.9752   23.5432 C   0  0  0  0  0  0  0  0  0  0  0  0
  -24.7126  -24.5992   24.7772 C   0  0  0  0  0  0  0  0  0  0  0  0
  -19.2676  -26.9535   23.3811 C   0  0  0  0  0  0  0  0  0  0  0  0
  -25.6960  -24.8710   23.8153 C   0  0  0  0  0  0  0  0  0  0  0  0
  -22.4038   -8.0597   21.4597 C   0  0  0  0  0  0  0  0  0  0  0  0
  -26.1681  -22.4924   23.6439 C   0  0  0  0  0  0  0  0  0  0  0  0
  -20.8577   -6.9263   22.8189 C   0  0  0  0  0  0  0  0  0  0  0  0
  -19.1837   -6.9237   25.0505 C   0  0  0  0  0  0  0  0  0  0  0  0
  -21.0543   -5.9934   23.8371 C   0  0  0  0  0  0  0  0  0  0  0  0
  -24.6280  -11.5732   20.6811 C   0  0  0  0  0  0  0  0  0  0  0  0
  -28.5364  -21.2305   18.3438 C   0  0  0  0  0  0  0  0  0  0  0  0
  -28.5365  -18.5637   18.2196 C   0  0  0  0  0  0  0  0  0  0  0  0
  -28.7015  -19.2193   19.4198 C   0  0  0  0  0  0  0  0  0  0  0  0
  -25.2593  -13.6599   20.3947 C   0  0  0  0  0  0  0  0  0  0  0  0
  -22.8531  -13.4031   21.0214 C   0  0  0  0  0  0  0  0  0  0  0  0
  -22.9615  -26.8652   23.3978 C   0  0  0  0  0  0  0  0  0  0  0  0
  -25.5819  -28.6910   23.9652 C   0  0  0  0  0  0  0  0  0  0  0  0
  -28.9478  -28.8385   24.5092 C   0  0  0  0  0  0  0  0  0  0  0  0
  -30.6910  -14.8322   20.9118 C   0  0  0  0  0  0  0  0  0  0  0  0
  -18.5265  -29.3578   22.9798 C   0  0  0  0  0  0  0  0  0  0  0  0
  -23.9437  -25.7216   25.4186 C   0  0  0  0  0  0  0  0  0  0  0  0
  -25.9977  -26.2761   23.3647 C   0  0  0  0  0  0  0  0  0  0  0  0
  -19.9835  -29.6567   22.6362 C   0  0  0  0  0  0  0  0  0  0  0  0
  -29.7806  -12.3018   18.5783 C   0  0  0  0  0  0  0  0  0  0  0  0
  -20.5995  -28.4939   21.8648 C   0  0  0  0  0  0  0  0  0  0  0  0
  -28.3232  -11.9921   18.9246 C   0  0  0  0  0  0  0  0  0  0  0  0
  -30.6049  -12.6068   19.8271 C   0  0  0  0  0  0  0  0  0  0  0  0
  -28.5933  -13.3556   21.0380 C   0  0  0  0  0  0  0  0  0  0  0  0
  -20.5969  -27.2113   22.7053 C   0  0  1  0  0  0  0  0  0  0  0  0
  -23.9033  -26.9838   24.5626 C   0  0  1  0  0  0  0  0  0  0  0  0
  -27.7095  -13.0965   19.8060 C   0  0  2  0  0  0  0  0  0  0  0  0
  -28.5333  -22.7180   18.3984 C   0  0  0  0  0  0  0  0  0  0  0  0
  -28.5354  -17.0752   18.1408 C   0  0  0  0  0  0  0  0  0  0  0  0
  -30.8101  -30.4743   24.9010 C   0  0  0  0  0  0  0  0  0  0  0  0
  -25.5593  -29.4227   21.0031 C   0  0  0  0  0  0  0  0  0  0  0  0
  -27.9101  -30.2450   21.2598 C   0  0  0  0  0  0  0  0  0  0  0  0
  -26.0652  -31.3264   22.5441 C   0  0  0  0  0  0  0  0  0  0  0  0
  -29.5647  -27.6782   27.1610 C   0  0  0  0  0  0  0  0  0  0  0  0
  -26.7768  -19.4547   21.7887 C   0  0  0  0  0  0  0  0  0  0  0  0
  -28.2812  -19.2057   21.9302 C   0  0  0  0  0  0  0  0  0  0  0  0
  -30.3816  -18.1416   21.0004 C   0  0  0  0  0  0  0  0  0  0  0  0
  -30.6196  -17.0430   22.0372 C   0  0  0  0  0  0  0  0  0  0  0  0
  -26.2196  -20.2063   22.9904 C   0  0  0  0  0  0  0  0  0  1  0  0
  -28.8904  -18.4555   20.7211 C   0  0  2  0  0  0  0  0  0  0  0  0
  -26.8452  -29.0139   23.2043 C   0  0  1  0  0  0  0  0  0  0  0  0
  -29.7684  -29.5771   25.5511 C   0  0  2  0  0  0  0  0  0  0  0  0
  -26.5881  -29.9752   22.0097 C   0  0  0  0  0  0  0  0  0  0  0  0
  -28.3692  -19.2296   17.0599 N   0  0  0  0  0  0  0  0  0  0  0  0
  -25.9212  -11.4901   20.3575 N   0  0  0  0  0  0  0  0  0  0  0  0
  -28.7041  -20.5645   19.5035 N   0  0  0  0  0  0  0  0  0  0  0  0
  -26.2768  -12.7752   20.1894 N   0  0  0  0  0  0  0  0  0  0  0  0
  -25.2149  -27.3388   24.0168 N   0  0  0  0  0  0  0  0  0  0  0  0
  -29.9695  -13.6634   20.6181 N   0  0  0  0  0  0  0  0  0  0  0  0
  -25.4438  -14.9912   20.2677 N   0  0  0  0  0  0  0  0  0  0  0  0
  -21.8409  -12.4855   21.3340 N   0  0  0  0  0  0  0  0  0  0  0  0
  -21.6639  -27.2452   23.6825 N   0  0  0  0  0  0  0  0  0  0  0  0
  -27.7950  -29.5233   24.1876 N   0  0  0  0  0  0  0  0  0  0  0  0
  -30.0125  -15.7858   21.6608 N   0  0  0  0  0  0  0  0  0  0  0  0
  -30.4709  -28.6083   26.4393 N   0  3  0  0  0  0  0  0  0  0  0  0
  -22.5852  -14.6284   20.9983 O   0  0  0  0  0  0  0  0  0  0  0  0
  -23.3815  -26.4603   22.3201 O   0  0  0  0  0  0  0  0  0  0  0  0
  -24.9482  -29.6041   24.5004 O   0  0  0  0  0  0  0  0  0  0  0  0
  -29.2966  -27.7636   24.0259 O   0  0  0  0  0  0  0  0  0  0  0  0
  -31.8520  -15.0148   20.5299 O   0  0  0  0  0  0  0  0  0  0  0  0
  -21.6883   -6.9294   21.7108 O   0  0  0  0  0  0  0  0  0  0  0  0
  -26.8741  -21.4706   23.0877 O   0  0  0  0  0  0  0  0  0  1  0  0
  -18.3808   -6.9236   26.1227 F   0  0  0  0  0  0  0  0  0  0  0  0
  -22.0463   -5.0967   23.7494 F   0  0  0  0  0  0  0  0  0  0  0  0
  1  2  1  0  0  0  0
  1  5  2  0  0  0  0
  2  6  2  0  0  0  0
  3  8  2  0  0  0  0
  3 16  1  0  0  0  0
  4  9  1  0  0  0  0
  4 16  2  0  0  0  0
  5 18  1  0  0  0  0
  6 20  1  0  0  0  0
  7 10  2  0  0  0  0
  7 19  1  0  0  0  0
  8 22  1  0  0  0  0
  9 22  2  0  0  0  0
 10 23  1  0  0  0  0
 11 12  2  0  0  0  0
 11 24  1  0  0  0  0
 12 25  1  0  0  0  0
 13 21  1  0  0  0  0
 13 23  2  0  0  0  0
 14 25  2  0  0  0  0
 14 26  1  0  0  0  0
 15 28  1  0  0  0  0
 15 65  2  0  0  0  0
 16 27  1  0  0  0  0
 17 27  1  0  0  0  0
 17 31  2  0  0  0  0
 17 32  1  0  0  0  0
 18 20  2  0  0  0  0
 18 37  1  0  0  0  0
 19 21  2  0  0  0  0
 19 38  1  0  0  0  0
 20 46  1  0  0  0  0
 21 39  1  0  0  0  0
 22 82  1  0  0  0  0
 23 83  1  0  0  0  0
 24 26  2  0  0  0  0
 24 82  1  0  0  0  0
 25 84  1  0  0  0  0
 26 85  1  0  0  0  0
 27 66  2  0  0  0  0
 28 49  1  0  0  0  0
 28 67  2  0  0  0  0
 29 30  2  0  0  0  0
 29 50  1  0  0  0  0
 29 65  1  0  0  0  0
 30 61  1  0  0  0  0
 30 67  1  0  0  0  0
 31 68  1  0  0  0  0
 31 71  1  0  0  0  0
 32 72  1  0  0  0  0
 32 77  2  0  0  0  0
 33 47  1  0  0  0  0
 33 73  1  0  0  0  0
 33 78  2  0  0  0  0
 34 62  1  0  0  0  0
 34 69  1  0  0  0  0
 34 79  2  0  0  0  0
 35 63  1  0  0  0  0
 35 74  1  0  0  0  0
 35 80  2  0  0  0  0
 36 70  1  0  0  0  0
 36 75  1  0  0  0  0
 36 81  2  0  0  0  0
 37 40  1  0  0  0  0
 38 47  1  0  0  0  0
 39 69  1  0  0  0  0
 40 42  1  0  0  0  0
 41 43  1  0  0  0  0
 41 44  1  0  0  0  0
 42 46  1  0  0  0  0
 43 48  1  0  0  0  0
 44 70  1  0  0  0  0
 45 48  1  0  0  0  0
 45 70  1  0  0  0  0
 46 73  1  0  0  0  0
 47 69  1  0  0  0  0
 48 68  1  0  0  0  0
 51 63  1  0  0  0  0
 52 64  1  0  0  0  0
 53 64  1  0  0  0  0
 54 64  1  0  0  0  0
 55 76  1  0  0  0  0
 56 57  1  0  0  0  0
 56 60  1  0  0  0  0
 57 61  1  0  0  0  0
 58 59  1  0  0  0  0
 58 61  1  0  0  0  0
 59 75  1  0  0  0  0
 60 83  1  0  0  0  0
 62 64  1  0  0  0  0
 62 74  1  0  0  0  0
 63 76  1  0  0  0  0
 66 68  1  0  0  0  0
M  CHG  1  76   1
M  ISO  4  36 100  60 101  75 100  83 101
M  END
> <Batch ID>
0053

> <Smiles>
CNC(C)C(=O)NC(C(=O)N1Cc2cc([101O:1][101CH2:1]CCC(CC[100NH:0][100C:0](=O)N3CCCC(n4nc(-c5ccc(Oc6ccc(F)cc6F)cc5)c(C(N)=O)c4N)C3)c3nc(C)cnc3C)ccc2CC1C(=O)NC1CCCc2ccccc21)C(C)(C)C

> <Shape>
0.307

> <Color>
0.210

> <Negative vol penalty>
0.000

$$$$

  -OEChem-04052317383D

 84 92  0     1  0  0  0  0  0999 V2000
  -31.7438  -32.7829   17.7174 C   0  0  0  0  0  0  0  0  0  0  0  0
  -31.5482  -31.6221   18.4590 C   0  0  0  0  0  0  0  0  0  0  0  0
  -25.7037  -13.2107   22.5395 C   0  0  0  0  0  0  0  0  0  0  0  0
  -26.1218  -14.0270   20.3043 C   0  0  0  0  0  0  0  0  0  0  0  0
  -30.8833  -33.8674   17.8825 C   0  0  0  0  0  0  0  0  0  0  0  0
  -30.4926  -31.5457   19.3668 C   0  0  0  0  0  0  0  0  0  0  0  0
  -27.9805  -27.1593   19.0606 C   0  0  0  0  0  0  0  0  0  0  0  0
  -25.4164  -11.9468   22.0242 C   0  0  0  0  0  0  0  0  0  0  0  0
  -25.8345  -12.7631   19.7890 C   0  0  0  0  0  0  0  0  0  0  0  0
  -28.5676  -26.0461   19.6605 C   0  0  0  0  0  0  0  0  0  0  0  0
  -22.8221  -10.4114   20.4954 C   0  0  0  0  0  0  0  0  0  0  0  0
  -21.6956   -9.7525   20.9876 C   0  0  0  0  0  0  0  0  0  0  0  0
  -27.1178  -26.3178   21.5693 C   0  0  0  0  0  0  0  0  0  0  0  0
  -23.0932   -7.9383   21.7575 C   0  0  0  0  0  0  0  0  0  0  0  0
  -26.0564  -14.2508   21.6796 C   0  0  0  0  0  0  0  0  0  0  0  0
  -27.6083  -16.0421   22.6232 C   0  0  0  0  0  0  0  0  0  0  0  0
  -29.8108  -33.8007   18.7858 C   0  0  0  0  0  0  0  0  0  0  0  0
  -26.9634  -27.8678   19.7164 C   0  0  0  0  0  0  0  0  0  0  0  0
  -29.6178  -32.6309   19.5451 C   0  0  0  0  0  0  0  0  0  0  0  0
  -26.5177  -27.4381   20.9744 C   0  0  0  0  0  0  0  0  0  0  0  0
  -25.4818  -11.7229   20.6489 C   0  0  0  0  0  0  0  0  0  0  0  0
  -28.1382  -25.6269   20.9163 C   0  0  0  0  0  0  0  0  0  0  0  0
  -24.0842   -9.8338   20.6342 C   0  0  0  0  0  0  0  0  0  0  0  0
  -21.8311   -8.5159   21.6186 C   0  0  0  0  0  0  0  0  0  0  0  0
  -24.2197   -8.5973   21.2652 C   0  0  0  0  0  0  0  0  0  0  0  0
  -26.3527  -15.5568   22.2112 C   0  0  0  0  0  0  0  0  0  0  0  0
  -28.6894  -20.0348   18.6288 C   0  0  0  0  0  0  0  0  0  0  0  0
  -27.3326  -20.1555   18.4238 C   0  0  0  0  0  0  0  0  0  0  0  0
  -28.4829  -21.1164   20.6330 C   0  0  0  0  0  0  0  0  0  0  0  0
  -27.1262  -21.2378   20.4278 C   0  0  0  0  0  0  0  0  0  0  0  0
  -27.3591  -17.3254   23.0443 C   0  0  0  0  0  0  0  0  0  0  0  0
  -28.8858  -15.3911   22.6248 C   0  0  0  0  0  0  0  0  0  0  0  0
  -26.6349  -30.8411   20.7911 C   0  0  0  0  0  0  0  0  0  0  0  0
  -23.5980  -29.8730   21.3929 C   0  0  0  0  0  0  0  0  0  0  0  0
  -21.4449  -27.2948   21.9961 C   0  0  0  0  0  0  0  0  0  0  0  0
  -23.7259  -21.6889   21.3580 C   0  0  0  0  0  0  0  0  0  0  0  0
  -28.9355  -35.0158   18.9644 C   0  0  0  0  0  0  0  0  0  0  0  0
  -26.3220  -29.0506   19.0441 C   0  0  0  0  0  0  0  0  0  0  0  0
  -25.4152  -28.1520   21.7115 C   0  0  0  0  0  0  0  0  0  0  0  0
  -27.6171  -34.7178   19.6738 C   0  0  0  0  0  0  0  0  0  0  0  0
  -23.3592  -19.8089   24.5255 C   0  0  0  0  0  0  0  0  0  0  0  0
  -27.8581  -33.8532   20.9071 C   0  0  0  0  0  0  0  0  0  0  0  0
  -24.1558  -18.5346   24.2506 C   0  0  0  0  0  0  0  0  0  0  0  0
  -22.7844  -20.4059   23.2445 C   0  0  0  0  0  0  0  0  0  0  0  0
  -24.5980  -19.3812   21.9121 C   0  0  0  0  0  0  0  0  0  0  0  0
  -28.4692  -32.5006   20.5218 C   0  0  1  0  0  0  0  0  0  0  0  0
  -25.6488  -30.0038   20.0267 C   0  0  1  0  0  0  0  0  0  0  0  0
  -25.2298  -18.7799   23.1765 C   0  0  2  0  0  0  0  0  0  0  0  0
  -29.5700  -19.3646   17.6305 C   0  0  0  0  0  0  0  0  0  0  0  0
  -26.6819  -19.6210   17.1940 C   0  0  0  0  0  0  0  0  0  0  0  0
  -19.0305  -26.8186   22.4872 C   0  0  0  0  0  0  0  0  0  0  0  0
  -23.9969  -30.8244   24.2644 C   0  0  0  0  0  0  0  0  0  0  0  0
  -21.9800  -29.4903   24.9129 C   0  0  0  0  0  0  0  0  0  0  0  0
  -21.7606  -31.3687   23.2863 C   0  0  0  0  0  0  0  0  0  0  0  0
  -24.8851  -23.3787   19.9867 C   0  0  0  0  0  0  0  0  0  0  0  0
  -21.1452  -25.6718   19.5395 C   0  0  0  0  0  0  0  0  0  0  0  0
  -29.1411  -21.6559   21.8777 C   0  0  0  0  0  0  0  0  0  0  0  0
  -26.2458  -21.9084   21.4262 C   0  0  0  0  0  0  0  0  0  0  0  0
  -30.2337  -22.6901   21.5979 C   0  0  0  0  0  0  0  0  0  0  0  0
  -29.7445  -23.8785   20.7783 C   0  0  0  0  0  0  0  0  0  1  0  0
  -22.8934  -29.2278   22.5618 C   0  0  1  0  0  0  0  0  0  0  0  0
  -20.0890  -26.9553   21.4039 C   0  0  2  0  0  0  0  0  0  0  0  0
  -22.6799  -30.2153   23.7436 C   0  0  0  0  0  0  0  0  0  0  0  0
  -25.3781  -16.4584   22.3577 N   0  0  0  0  0  0  0  0  0  0  0  0
  -29.2889  -20.5130   19.7371 N   0  0  0  0  0  0  0  0  0  0  0  0
  -26.5266  -20.7592   19.3196 N   0  0  0  0  0  0  0  0  0  0  0  0
  -26.0214  -17.5230   22.8664 N   0  0  0  0  0  0  0  0  0  0  0  0
  -24.8238  -29.3067   21.0154 N   0  0  0  0  0  0  0  0  0  0  0  0
  -23.8188  -20.5883   22.2257 N   0  0  0  0  0  0  0  0  0  0  0  0
  -28.1560  -18.2929   23.5459 N   0  0  0  0  0  0  0  0  0  0  0  0
  -28.9639  -14.0717   22.1584 N   0  0  0  0  0  0  0  0  0  0  0  0
  -27.4513  -31.6187   19.9921 N   0  0  0  0  0  0  0  0  0  0  0  0
  -21.6607  -28.6563   22.0304 N   0  0  0  0  0  0  0  0  0  0  0  0
  -24.9291  -22.2298   20.8800 N   0  0  0  0  0  0  0  0  0  0  0  0
  -20.1595  -25.6711   20.6510 N   0  3  0  0  0  0  0  0  0  0  0  0
  -29.9242  -15.9568   23.0433 O   0  0  0  0  0  0  0  0  0  0  0  0
  -26.6527  -30.7870   22.0152 O   0  0  0  0  0  0  0  0  0  0  0  0
  -23.0764  -30.8393   20.8309 O   0  0  0  0  0  0  0  0  0  0  0  0
  -22.2321  -26.4382   22.3924 O   0  0  0  0  0  0  0  0  0  0  0  0
  -22.6304  -22.1670   21.0368 O   0  0  0  0  0  0  0  0  0  0  0  0
  -25.2018  -10.4897   20.1457 O   0  0  0  0  0  0  0  0  0  0  0  0
  -28.7100  -24.5410   21.5044 O   0  0  0  0  0  0  0  0  0  1  0  0
  -20.7494   -7.8839   22.0926 F   0  0  0  0  0  0  0  0  0  0  0  0
  -25.4297   -8.0379   21.4026 F   0  0  0  0  0  0  0  0  0  0  0  0
  1  2  1  0  0  0  0
  1  5  2  0  0  0  0
  2  6  2  0  0  0  0
  3  8  2  0  0  0  0
  3 15  1  0  0  0  0
  4  9  1  0  0  0  0
  4 15  2  0  0  0  0
  5 17  1  0  0  0  0
  6 19  1  0  0  0  0
  7 10  2  0  0  0  0
  7 18  1  0  0  0  0
  8 21  1  0  0  0  0
  9 21  2  0  0  0  0
 10 22  1  0  0  0  0
 11 12  2  0  0  0  0
 11 23  1  0  0  0  0
 12 24  1  0  0  0  0
 13 20  1  0  0  0  0
 13 22  2  0  0  0  0
 14 24  2  0  0  0  0
 14 25  1  0  0  0  0
 15 26  1  0  0  0  0
 16 26  1  0  0  0  0
 16 31  2  0  0  0  0
 16 32  1  0  0  0  0
 17 19  2  0  0  0  0
 17 37  1  0  0  0  0
 18 20  2  0  0  0  0
 18 38  1  0  0  0  0
 19 46  1  0  0  0  0
 20 39  1  0  0  0  0
 21 81  1  0  0  0  0
 22 82  1  0  0  0  0
 23 25  2  0  0  0  0
 23 81  1  0  0  0  0
 24 83  1  0  0  0  0
 25 84  1  0  0  0  0
 26 64  2  0  0  0  0
 27 28  1  0  0  0  0
 27 49  1  0  0  0  0
 27 65  2  0  0  0  0
 28 50  1  0  0  0  0
 28 66  2  0  0  0  0
 29 30  2  0  0  0  0
 29 57  1  0  0  0  0
 29 65  1  0  0  0  0
 30 58  1  0  0  0  0
 30 66  1  0  0  0  0
 31 67  1  0  0  0  0
 31 70  1  0  0  0  0
 32 71  1  0  0  0  0
 32 76  2  0  0  0  0
 33 47  1  0  0  0  0
 33 72  1  0  0  0  0
 33 77  2  0  0  0  0
 34 61  1  0  0  0  0
 34 68  1  0  0  0  0
 34 78  2  0  0  0  0
 35 62  1  0  0  0  0
 35 73  1  0  0  0  0
 35 79  2  0  0  0  0
 36 69  1  0  0  0  0
 36 74  1  0  0  0  0
 36 80  2  0  0  0  0
 37 40  1  0  0  0  0
 38 47  1  0  0  0  0
 39 68  1  0  0  0  0
 40 42  1  0  0  0  0
 41 43  1  0  0  0  0
 41 44  1  0  0  0  0
 42 46  1  0  0  0  0
 43 48  1  0  0  0  0
 44 69  1  0  0  0  0
 45 48  1  0  0  0  0
 45 69  1  0  0  0  0
 46 72  1  0  0  0  0
 47 68  1  0  0  0  0
 48 67  1  0  0  0  0
 51 62  1  0  0  0  0
 52 63  1  0  0  0  0
 53 63  1  0  0  0  0
 54 63  1  0  0  0  0
 55 74  1  0  0  0  0
 56 75  1  0  0  0  0
 57 59  1  0  0  0  0
 58 74  1  0  0  0  0
 59 60  1  0  0  0  0
 60 82  1  0  0  0  0
 61 63  1  0  0  0  0
 61 73  1  0  0  0  0
 62 75  1  0  0  0  0
 64 67  1  0  0  0  0
M  CHG  1  75   1
M  ISO  4  36 100  60 101  74 100  82 101
M  END
> <Batch ID>
0053

> <Smiles>
CNC(C)C(=O)NC(C(=O)N1Cc2cc([101O:1][101CH2:1]CCc3nc(C)c(C)nc3C[100N:0](C)[100C:0](=O)N3CCCC(n4nc(-c5ccc(Oc6ccc(F)cc6F)cc5)c(C(N)=O)c4N)C3)ccc2CC1C(=O)NC1CCCc2ccccc21)C(C)(C)C

> <Shape>
0.225

> <Color>
0.076

> <Negative vol penalty>
0.000

$$$$

  -OEChem-04052317382D

  0  0  0     0  0  0  0  0  0999 V2000
M  END
$$$$

  -OEChem-04052317383D

 86 94  0     1  0  0  0  0  0999 V2000
  -32.8092  -21.9222    8.1486 C   0  0  0  0  0  0  0  0  0  0  0  0
  -33.3929  -21.7047    9.3926 C   0  0  0  0  0  0  0  0  0  0  0  0
  -23.2856   -9.7889   20.0848 C   0  0  0  0  0  0  0  0  0  0  0  0
  -23.7822  -10.0807   22.4311 C   0  0  0  0  0  0  0  0  0  0  0  0
  -32.1308  -23.1140    7.8969 C   0  0  0  0  0  0  0  0  0  0  0  0
  -33.2993  -22.6794   10.3853 C   0  0  0  0  0  0  0  0  0  0  0  0
  -32.1107  -20.7376   14.9087 C   0  0  0  0  0  0  0  0  0  0  0  0
  -22.5602   -8.6351   20.3817 C   0  0  0  0  0  0  0  0  0  0  0  0
  -23.0568   -8.9269   22.7281 C   0  0  0  0  0  0  0  0  0  0  0  0
  -33.1340  -20.1173   15.6242 C   0  0  0  0  0  0  0  0  0  0  0  0
  -19.4981   -7.8592   21.5876 C   0  0  0  0  0  0  0  0  0  0  0  0
  -18.2565   -7.6978   20.9727 C   0  0  0  0  0  0  0  0  0  0  0  0
  -33.3980  -22.1082   16.9607 C   0  0  0  0  0  0  0  0  0  0  0  0
  -19.0308   -5.6523   19.9463 C   0  0  0  0  0  0  0  0  0  0  0  0
  -32.7023  -16.6674   21.4731 C   0  0  0  0  0  0  0  0  0  0  0  0
  -33.0437  -15.0259   19.3956 C   0  0  0  0  0  0  0  0  0  0  0  0
  -23.8966  -10.5117   21.1095 C   0  0  0  0  0  0  0  0  0  0  0  0
  -24.1588  -13.0226   20.7427 C   0  0  0  0  0  0  0  0  0  0  0  0
  -32.0206  -24.0997    8.8903 C   0  0  0  0  0  0  0  0  0  0  0  0
  -31.7301  -22.0538   15.2072 C   0  0  0  0  0  0  0  0  0  0  0  0
  -32.6199  -23.8861   10.1463 C   0  0  0  0  0  0  0  0  0  0  0  0
  -32.3678  -22.7419   16.2492 C   0  0  0  0  0  0  0  0  0  0  0  0
  -22.4458   -8.2041   21.7034 C   0  0  0  0  0  0  0  0  0  0  0  0
  -33.7798  -20.8036   16.6484 C   0  0  0  0  0  0  0  0  0  0  0  0
  -20.5061   -6.9172   21.3818 C   0  0  0  0  0  0  0  0  0  0  0  0
  -18.0228   -6.5944   20.1521 C   0  0  0  0  0  0  0  0  0  0  0  0
  -20.2724   -5.8137   20.5611 C   0  0  0  0  0  0  0  0  0  0  0  0
  -24.6465  -11.7034   20.8033 C   0  0  0  0  0  0  0  0  0  0  0  0
  -33.0683  -17.1522   20.2368 C   0  0  0  0  0  0  0  0  0  0  0  0
  -32.6784  -14.5409   20.6320 C   0  0  0  0  0  0  0  0  0  0  0  0
  -25.2572  -13.7800   20.4169 C   0  0  0  0  0  0  0  0  0  0  0  0
  -22.8316  -13.5189   20.9614 C   0  0  0  0  0  0  0  0  0  0  0  0
  -31.7193  -24.8024   13.6107 C   0  0  0  0  0  0  0  0  0  0  0  0
  -30.1884  -25.8849   16.2577 C   0  0  0  0  0  0  0  0  0  0  0  0
  -31.0515  -12.8136   21.2933 C   0  0  0  0  0  0  0  0  0  0  0  0
  -29.5608  -25.5238   19.5928 C   0  0  0  0  0  0  0  0  0  0  0  0
  -31.3180  -25.3918    8.5560 C   0  0  0  0  0  0  0  0  0  0  0  0
  -30.6062  -22.6993   14.4438 C   0  0  0  0  0  0  0  0  0  0  0  0
  -31.9830  -24.1494   16.6224 C   0  0  0  0  0  0  0  0  0  0  0  0
  -30.9426  -26.2164    9.7846 C   0  0  0  0  0  0  0  0  0  0  0  0
  -29.4364  -13.5338   18.1152 C   0  0  0  0  0  0  0  0  0  0  0  0
  -32.1197  -26.3006   10.7511 C   0  0  0  0  0  0  0  0  0  0  0  0
  -27.9737  -13.2347   18.4410 C   0  0  0  0  0  0  0  0  0  0  0  0
  -30.3804  -12.5871   18.8519 C   0  0  0  0  0  0  0  0  0  0  0  0
  -28.7214  -12.2729   20.6611 C   0  0  0  0  0  0  0  0  0  0  0  0
  -32.5188  -24.9090   11.2569 C   0  0  1  0  0  0  0  0  0  0  0  0
  -30.6490  -24.2235   14.4922 C   0  0  1  0  0  0  0  0  0  0  0  0
  -27.7377  -13.2257   19.9615 C   0  0  2  0  0  0  0  0  0  0  0  0
  -35.8981  -19.6724   23.5139 C   0  0  0  0  0  0  0  0  0  0  0  0
  -28.3004  -26.5840   21.4862 C   0  0  0  0  0  0  0  0  0  0  0  0
  -32.2903  -28.0908   16.4185 C   0  0  0  0  0  0  0  0  0  0  0  0
  -31.5686  -28.5104   18.7789 C   0  0  0  0  0  0  0  0  0  0  0  0
  -29.9540  -28.8384   16.9059 C   0  0  0  0  0  0  0  0  0  0  0  0
  -27.9350  -23.0892   20.0270 C   0  0  0  0  0  0  0  0  0  0  0  0
  -33.2840  -18.6222   20.0283 C   0  0  0  0  0  0  0  0  0  0  0  0
  -35.1561  -19.8633   22.2010 C   0  0  0  0  0  0  0  0  0  0  0  0
  -35.4638  -18.7376   21.2266 C   0  0  0  0  0  0  0  0  0  0  0  0
  -35.4147  -18.3649   18.7650 C   0  0  0  0  0  0  0  0  0  0  0  0
  -34.7089  -18.7827   17.4901 C   0  0  0  0  0  0  0  0  0  1  0  0
  -30.6217  -26.4921   17.5701 C   0  0  1  0  0  0  0  0  0  0  0  0
  -28.2636  -25.5398   20.3812 C   0  0  2  0  0  0  0  0  0  0  0  0
  -32.4640  -13.0823   20.8388 C   0  0  0  0  0  0  0  0  0  0  0  0
  -31.1175  -27.9571   17.4103 C   0  0  0  0  0  0  0  0  0  0  0  0
  -33.2453  -16.3402   19.1757 N   0  0  0  0  0  0  0  0  0  0  0  0
  -32.5010  -15.3530   21.6930 N   0  0  0  0  0  0  0  0  0  0  0  0
  -25.9530  -11.6239   20.5372 N   0  0  0  0  0  0  0  0  0  0  0  0
  -26.2956  -12.9027   20.3061 N   0  0  0  0  0  0  0  0  0  0  0  0
  -30.8826  -24.7397   15.8425 N   0  0  0  0  0  0  0  0  0  0  0  0
  -30.1051  -12.5866   20.2937 N   0  0  0  0  0  0  0  0  0  0  0  0
  -25.4265  -15.1044   20.2171 N   0  0  0  0  0  0  0  0  0  0  0  0
  -21.8215  -12.6039   21.2882 N   0  0  0  0  0  0  0  0  0  0  0  0
  -31.5971  -24.4589   12.2778 N   0  0  0  0  0  0  0  0  0  0  0  0
  -29.4939  -26.3392   18.4829 N   0  0  0  0  0  0  0  0  0  0  0  0
  -28.0181  -24.2073   21.0017 N   0  3  0  0  0  0  0  0  0  0  0  0
  -34.7418  -18.9974   19.9275 N   0  3  1  0  0  0  0  0  0  0  0  0
  -22.5463  -14.7356   20.8537 O   0  0  0  0  0  0  0  0  0  0  0  0
  -32.5905  -25.5097   14.1030 O   0  0  0  0  0  0  0  0  0  0  0  0
  -29.2631  -26.4033   15.6278 O   0  0  0  0  0  0  0  0  0  0  0  0
  -30.7983  -12.8086   22.5007 O   0  0  0  0  0  0  0  0  0  0  0  0
  -30.5370  -24.8577   19.9300 O   0  0  0  0  0  0  0  0  0  0  0  0
  -21.7379   -7.0784   21.9935 O   0  0  0  0  0  0  0  0  0  0  0  0
  -34.7794  -20.2008   17.3479 O   0  0  0  0  0  0  0  0  0  1  0  0
  -16.8300   -6.4387   19.5630 F   0  0  0  0  0  0  0  0  0  0  0  0
  -21.2364   -4.9048   20.3606 F   0  0  0  0  0  0  0  0  0  0  0  0
  -32.7015  -12.3452   19.7041 F   0  0  0  0  0  0  0  0  0  0  0  0
  -33.3261  -12.5455   21.7640 F   0  0  0  0  0  0  0  0  0  0  0  0
  1  2  1  0  0  0  0
  1  5  2  0  0  0  0
  2  6  2  0  0  0  0
  3  8  2  0  0  0  0
  3 17  1  0  0  0  0
  4  9  1  0  0  0  0
  4 17  2  0  0  0  0
  5 19  1  0  0  0  0
  6 21  1  0  0  0  0
  7 10  2  0  0  0  0
  7 20  1  0  0  0  0
  8 23  1  0  0  0  0
  9 23  2  0  0  0  0
 10 24  1  0  0  0  0
 11 12  2  0  0  0  0
 11 25  1  0  0  0  0
 12 26  1  0  0  0  0
 13 22  1  0  0  0  0
 13 24  2  0  0  0  0
 14 26  2  0  0  0  0
 14 27  1  0  0  0  0
 15 29  1  0  0  0  0
 15 65  2  0  0  0  0
 16 30  2  0  0  0  0
 16 64  1  0  0  0  0
 17 28  1  0  0  0  0
 18 28  1  0  0  0  0
 18 31  2  0  0  0  0
 18 32  1  0  0  0  0
 19 21  2  0  0  0  0
 19 37  1  0  0  0  0
 20 22  2  0  0  0  0
 20 38  1  0  0  0  0
 21 46  1  0  0  0  0
 22 39  1  0  0  0  0
 23 81  1  0  0  0  0
 24 82  1  0  0  0  0
 25 27  2  0  0  0  0
 25 81  1  0  0  0  0
 26 83  1  0  0  0  0
 27 84  1  0  0  0  0
 28 66  2  0  0  0  0
 29 55  1  0  0  0  0
 29 64  2  0  0  0  0
 30 62  1  0  0  0  0
 30 65  1  0  0  0  0
 31 67  1  0  0  0  0
 31 70  1  0  0  0  0
 32 71  1  0  0  0  0
 32 76  2  0  0  0  0
 33 47  1  0  0  0  0
 33 72  1  0  0  0  0
 33 77  2  0  0  0  0
 34 60  1  0  0  0  0
 34 68  1  0  0  0  0
 34 78  2  0  0  0  0
 35 62  1  0  0  0  0
 35 69  1  0  0  0  0
 35 79  2  0  0  0  0
 36 61  1  0  0  0  0
 36 73  1  0  0  0  0
 36 80  2  0  0  0  0
 37 40  1  0  0  0  0
 38 47  1  0  0  0  0
 39 68  1  0  0  0  0
 40 42  1  0  0  0  0
 41 43  1  0  0  0  0
 41 44  1  0  0  0  0
 42 46  1  0  0  0  0
 43 48  1  0  0  0  0
 44 69  1  0  0  0  0
 45 48  1  0  0  0  0
 45 69  1  0  0  0  0
 46 72  1  0  0  0  0
 47 68  1  0  0  0  0
 48 67  1  0  0  0  0
 49 56  1  0  0  0  0
 50 61  1  0  0  0  0
 51 63  1  0  0  0  0
 52 63  1  0  0  0  0
 53 63  1  0  0  0  0
 54 74  1  0  0  0  0
 55 75  1  0  0  0  0
 56 57  1  0  0  0  0
 57 75  1  0  0  0  0
 58 59  1  0  0  0  0
 58 75  1  0  0  0  0
 59 82  1  0  0  0  0
 60 63  1  0  0  0  0
 60 73  1  0  0  0  0
 61 74  1  0  0  0  0
 62 85  1  0  0  0  0
 62 86  1  0  0  0  0
 66 67  1  0  0  0  0
M  CHG  2  74   1  75   1
M  ISO  4  35 100  59 101  62 100  82 101
M  END
> <Batch ID>
0053

> <Smiles>
CCCN(Cc1cnc([100C:0](F)(F)[100C:0](=O)N2CCCC(n3nc(-c4ccc(Oc5ccc(F)cc5F)cc4)c(C(N)=O)c3N)C2)cn1)C[101CH2:1][101O:1]c1ccc2c(c1)CN(C(=O)C(NC(=O)C(C)NC)C(C)(C)C)C(C(=O)NC1CCCc3ccccc31)C2

> <Shape>
0.168

> <Color>
0.174

> <Negative vol penalty>
0.000

$$$$

  -OEChem-04052317383D

 88 96  0     1  0  0  0  0  0999 V2000
  -18.9305  -31.7723   23.9606 C   0  0  0  0  0  0  0  0  0  0  0  0
  -20.2871  -31.4952   23.8258 C   0  0  0  0  0  0  0  0  0  0  0  0
  -28.4761  -12.4349   21.3433 C   0  0  0  0  0  0  0  0  0  0  0  0
  -26.6790  -13.3689   20.0261 C   0  0  0  0  0  0  0  0  0  0  0  0
  -17.9865  -30.7914   23.6596 C   0  0  0  0  0  0  0  0  0  0  0  0
  -20.7006  -30.2365   23.3909 C   0  0  0  0  0  0  0  0  0  0  0  0
  -25.5613  -28.9649   19.8890 C   0  0  0  0  0  0  0  0  0  0  0  0
  -27.8256  -11.2011   21.3560 C   0  0  0  0  0  0  0  0  0  0  0  0
  -26.0285  -12.1351   20.0387 C   0  0  0  0  0  0  0  0  0  0  0  0
  -26.8470  -28.5206   20.1945 C   0  0  0  0  0  0  0  0  0  0  0  0
  -24.1261  -10.3436   22.1841 C   0  0  0  0  0  0  0  0  0  0  0  0
  -22.7564  -10.3358   22.4476 C   0  0  0  0  0  0  0  0  0  0  0  0
  -26.1616  -26.2507   19.7506 C   0  0  0  0  0  0  0  0  0  0  0  0
  -22.3478   -9.3198   20.2940 C   0  0  0  0  0  0  0  0  0  0  0  0
  -29.0264  -23.1154   19.8304 C   0  0  0  0  0  0  0  0  0  0  0  0
  -27.9028  -13.5188   20.6784 C   0  0  0  0  0  0  0  0  0  0  0  0
  -29.5076  -15.2533   19.7173 C   0  0  0  0  0  0  0  0  0  0  0  0
  -18.3884  -29.5232   23.2115 C   0  0  0  0  0  0  0  0  0  0  0  0
  -24.5615  -28.0527   19.5220 C   0  0  0  0  0  0  0  0  0  0  0  0
  -19.7612  -29.2373   23.0848 C   0  0  0  0  0  0  0  0  0  0  0  0
  -24.8646  -26.6862   19.4385 C   0  0  0  0  0  0  0  0  0  0  0  0
  -26.6018  -11.0512   20.7037 C   0  0  0  0  0  0  0  0  0  0  0  0
  -27.1465  -27.1631   20.1282 C   0  0  0  0  0  0  0  0  0  0  0  0
  -24.6067   -9.8396   20.9755 C   0  0  0  0  0  0  0  0  0  0  0  0
  -21.8673   -9.8239   21.5026 C   0  0  0  0  0  0  0  0  0  0  0  0
  -23.7176   -9.3277   20.0305 C   0  0  0  0  0  0  0  0  0  0  0  0
  -28.5740  -14.7937   20.6654 C   0  0  0  0  0  0  0  0  0  0  0  0
  -29.4691  -23.1328   18.5379 C   0  0  0  0  0  0  0  0  0  0  0  0
  -29.8443  -16.5128   20.1495 C   0  0  0  0  0  0  0  0  0  0  0  0
  -27.4292  -22.2730   18.5500 C   0  0  0  0  0  0  0  0  0  0  0  0
  -30.0242  -14.6002   18.5501 C   0  0  0  0  0  0  0  0  0  0  0  0
  -21.7528  -27.1937   20.7375 C   0  0  0  0  0  0  0  0  0  0  0  0
  -21.5375  -25.4637   18.0019 C   0  0  0  0  0  0  0  0  0  0  0  0
  -23.1436  -23.9091   15.4231 C   0  0  0  0  0  0  0  0  0  0  0  0
  -26.6658  -20.2577   23.8117 C   0  0  0  0  0  0  0  0  0  0  0  0
  -17.3328  -28.4798   22.9435 C   0  0  0  0  0  0  0  0  0  0  0  0
  -23.1866  -28.5508   19.1696 C   0  0  0  0  0  0  0  0  0  0  0  0
  -23.8324  -25.6684   19.0300 C   0  0  0  0  0  0  0  0  0  0  0  0
  -17.8423  -27.2928   22.1301 C   0  0  0  0  0  0  0  0  0  0  0  0
  -30.1867  -19.1566   24.1154 C   0  0  0  0  0  0  0  0  0  0  0  0
  -19.1757  -26.7997   22.6830 C   0  0  0  0  0  0  0  0  0  0  0  0
  -30.2223  -17.9080   23.2357 C   0  0  0  0  0  0  0  0  0  0  0  0
  -28.7997  -19.3964   24.7039 C   0  0  0  0  0  0  0  0  0  0  0  0
  -27.7511  -18.2072   22.8064 C   0  0  0  0  0  0  0  0  0  0  0  0
  -20.2483  -27.8919   22.5921 C   0  0  1  0  0  0  0  0  0  0  0  0
  -22.1096  -27.4790   19.3060 C   0  0  1  0  0  0  0  0  0  0  0  0
  -29.1232  -17.9630   22.1604 C   0  0  2  0  0  0  0  0  0  0  0  0
  -26.1535  -21.6735   18.0850 C   0  0  0  0  0  0  0  0  0  0  0  0
  -22.7019  -22.5475   13.3620 C   0  0  0  0  0  0  0  0  0  0  0  0
  -24.0036  -19.4467   22.4645 C   0  0  0  0  0  0  0  0  0  0  0  0
  -23.9970  -21.7641   23.4409 C   0  0  0  0  0  0  0  0  0  0  0  0
  -20.9780  -23.0190   19.7398 C   0  0  0  0  0  0  0  0  0  0  0  0
  -21.4884  -21.5789   17.7564 C   0  0  0  0  0  0  0  0  0  0  0  0
  -19.5735  -23.1756   17.6764 C   0  0  0  0  0  0  0  0  0  0  0  0
  -24.3857  -25.9453   13.6710 C   0  0  0  0  0  0  0  0  0  0  0  0
  -30.6536  -26.7200   17.4033 C   0  0  0  0  0  0  0  0  0  0  0  0
  -30.7637  -23.6011   17.9390 C   0  0  0  0  0  0  0  0  0  0  0  0
  -26.9211  -22.3780   20.9720 C   0  0  0  0  0  0  0  0  0  0  0  0
  -26.9017  -20.9287   21.4508 C   0  0  0  0  0  0  0  0  0  0  0  0
  -31.4215  -24.7427   18.7076 C   0  0  0  0  0  0  0  0  0  0  0  0
  -30.7424  -26.8264   19.8898 C   0  0  0  0  0  0  0  0  0  0  0  0
  -29.4800  -27.6211   20.1600 C   0  0  0  0  0  0  0  0  0  1  0  0
  -21.9369  -24.0690   17.5848 C   0  0  1  0  0  0  0  0  0  0  0  0
  -22.9110  -23.9453   13.9234 C   0  0  2  0  0  0  0  0  0  0  0  0
  -24.6341  -20.8329   22.4175 C   0  0  0  0  0  0  0  0  0  0  0  0
  -21.0134  -22.9793   18.1990 C   0  0  0  0  0  0  0  0  0  0  0  0
  -28.3332  -15.6884   21.6275 N   0  0  0  0  0  0  0  0  0  0  0  0
  -27.7616  -22.5789   19.8083 N   0  0  0  0  0  0  0  0  0  0  0  0
  -29.1203  -16.7227   21.2862 N   0  0  0  0  0  0  0  0  0  0  0  0
  -28.4609  -22.6057   17.7674 N   0  3  0  0  0  0  0  0  0  0  0  0
  -22.5010  -26.2042   18.7013 N   0  0  0  0  0  0  0  0  0  0  0  0
  -27.7691  -19.4009   23.6652 N   0  0  0  0  0  0  0  0  0  0  0  0
  -30.6860  -17.4501   19.6644 N   0  0  0  0  0  0  0  0  0  0  0  0
  -29.5716  -13.3076   18.2524 N   0  0  0  0  0  0  0  0  0  0  0  0
  -20.7473  -27.9987   21.2379 N   0  0  0  0  0  0  0  0  0  0  0  0
  -21.9688  -24.0725   16.1262 N   0  0  0  0  0  0  0  0  0  0  0  0
  -26.0764  -20.7481   22.6366 N   0  0  0  0  0  0  0  0  0  0  0  0
  -24.0801  -24.5592   13.2326 N   0  3  0  0  0  0  0  0  0  0  0  0
  -30.5320  -25.9613   18.7017 N   0  3  1  0  0  0  0  0  0  0  0  0
  -30.8746  -15.1402   17.8027 O   0  0  0  0  0  0  0  0  0  0  0  0
  -22.3449  -26.3077   21.3426 O   0  0  0  0  0  0  0  0  0  0  0  0
  -20.4145  -25.8835   17.7115 O   0  0  0  0  0  0  0  0  0  0  0  0
  -24.2557  -23.7480   15.9210 O   0  0  0  0  0  0  0  0  0  0  0  0
  -26.2383  -20.5744   24.9292 O   0  0  0  0  0  0  0  0  0  0  0  0
  -25.9669   -9.8473   20.7157 O   0  0  0  0  0  0  0  0  0  0  0  0
  -28.4005  -26.7266   20.4265 O   0  0  0  0  0  0  0  0  0  1  0  0
  -20.5521   -9.8151   21.7565 F   0  0  0  0  0  0  0  0  0  0  0  0
  -24.1734   -8.8410   18.8681 F   0  0  0  0  0  0  0  0  0  0  0  0
  1  2  1  0  0  0  0
  1  5  2  0  0  0  0
  2  6  2  0  0  0  0
  3  8  2  0  0  0  0
  3 16  1  0  0  0  0
  4  9  1  0  0  0  0
  4 16  2  0  0  0  0
  5 18  1  0  0  0  0
  6 20  1  0  0  0  0
  7 10  2  0  0  0  0
  7 19  1  0  0  0  0
  8 22  1  0  0  0  0
  9 22  2  0  0  0  0
 10 23  1  0  0  0  0
 11 12  2  0  0  0  0
 11 24  1  0  0  0  0
 12 25  1  0  0  0  0
 13 21  1  0  0  0  0
 13 23  2  0  0  0  0
 14 25  2  0  0  0  0
 14 26  1  0  0  0  0
 15 28  2  0  0  0  0
 15 68  1  0  0  0  0
 16 27  1  0  0  0  0
 17 27  1  0  0  0  0
 17 29  2  0  0  0  0
 17 31  1  0  0  0  0
 18 20  2  0  0  0  0
 18 36  1  0  0  0  0
 19 21  2  0  0  0  0
 19 37  1  0  0  0  0
 20 45  1  0  0  0  0
 21 38  1  0  0  0  0
 22 85  1  0  0  0  0
 23 86  1  0  0  0  0
 24 26  2  0  0  0  0
 24 85  1  0  0  0  0
 25 87  1  0  0  0  0
 26 88  1  0  0  0  0
 27 67  2  0  0  0  0
 28 57  1  0  0  0  0
 28 70  1  0  0  0  0
 29 69  1  0  0  0  0
 29 73  1  0  0  0  0
 30 48  1  0  0  0  0
 30 68  1  0  0  0  0
 30 70  2  0  0  0  0
 31 74  1  0  0  0  0
 31 80  2  0  0  0  0
 32 46  1  0  0  0  0
 32 75  1  0  0  0  0
 32 81  2  0  0  0  0
 33 63  1  0  0  0  0
 33 71  1  0  0  0  0
 33 82  2  0  0  0  0
 34 64  1  0  0  0  0
 34 76  1  0  0  0  0
 34 83  2  0  0  0  0
 35 72  1  0  0  0  0
 35 77  1  0  0  0  0
 35 84  2  0  0  0  0
 36 39  1  0  0  0  0
 37 46  1  0  0  0  0
 38 71  1  0  0  0  0
 39 41  1  0  0  0  0
 40 42  1  0  0  0  0
 40 43  1  0  0  0  0
 41 45  1  0  0  0  0
 42 47  1  0  0  0  0
 43 72  1  0  0  0  0
 44 47  1  0  0  0  0
 44 72  1  0  0  0  0
 45 75  1  0  0  0  0
 46 71  1  0  0  0  0
 47 69  1  0  0  0  0
 49 64  1  0  0  0  0
 50 65  1  0  0  0  0
 51 65  1  0  0  0  0
 52 66  1  0  0  0  0
 53 66  1  0  0  0  0
 54 66  1  0  0  0  0
 55 78  1  0  0  0  0
 56 79  1  0  0  0  0
 57 60  1  0  0  0  0
 58 59  1  0  0  0  0
 58 68  1  0  0  0  0
 59 77  1  0  0  0  0
 60 79  1  0  0  0  0
 61 62  1  0  0  0  0
 61 79  1  0  0  0  0
 62 86  1  0  0  0  0
 63 66  1  0  0  0  0
 63 76  1  0  0  0  0
 64 78  1  0  0  0  0
 65 77  1  0  0  0  0
 67 69  1  0  0  0  0
M  CHG  3  70   1  78   1  79   1
M  ISO  4  35 100  62 101  77 100  86 101
M  END
> <Batch ID>
0053

> <Smiles>
CNC(C)C(=O)NC(C(=O)N1Cc2cc([101O:1][101CH2:1]CN(C)CCc3cn(CC[100N:0](C(C)C)[100C:0](=O)N4CCCC(n5nc(-c6ccc(Oc7ccc(F)cc7F)cc6)c(C(N)=O)c5N)C4)c(C)n3)ccc2CC1C(=O)NC1CCCc2ccccc21)C(C)(C)C

> <Shape>
0.259

> <Color>
0.066

> <Negative vol penalty>
0.000

$$$$

  -OEChem-04052317383D

 80 88  0     1  0  0  0  0  0999 V2000
  -19.1926  -11.7785   24.5841 C   0  0  0  0  0  0  0  0  0  0  0  0
  -20.5736  -11.7718   24.7525 C   0  0  0  0  0  0  0  0  0  0  0  0
  -23.1912   -9.8191   19.9314 C   0  0  0  0  0  0  0  0  0  0  0  0
  -23.5683   -9.9995   22.3110 C   0  0  0  0  0  0  0  0  0  0  0  0
  -18.3557  -11.6802   25.6949 C   0  0  0  0  0  0  0  0  0  0  0  0
  -21.1184  -11.6680   26.0318 C   0  0  0  0  0  0  0  0  0  0  0  0
  -24.9544   -8.3689   26.2479 C   0  0  0  0  0  0  0  0  0  0  0  0
  -22.4249   -8.6724   20.1398 C   0  0  0  0  0  0  0  0  0  0  0  0
  -22.8020   -8.8528   22.5194 C   0  0  0  0  0  0  0  0  0  0  0  0
  -26.1901   -8.7967   25.7642 C   0  0  0  0  0  0  0  0  0  0  0  0
  -23.2035   -5.5061   22.2554 C   0  0  0  0  0  0  0  0  0  0  0  0
  -23.7015   -4.5448   23.1349 C   0  0  0  0  0  0  0  0  0  0  0  0
  -26.9187   -9.2263   28.0234 C   0  0  0  0  0  0  0  0  0  0  0  0
  -21.7443   -4.8046   24.5273 C   0  0  0  0  0  0  0  0  0  0  0  0
  -23.7629  -10.4827   21.0171 C   0  0  0  0  0  0  0  0  0  0  0  0
  -24.1015  -12.9994   20.7735 C   0  0  0  0  0  0  0  0  0  0  0  0
  -18.8906  -11.5653   26.9877 C   0  0  0  0  0  0  0  0  0  0  0  0
  -24.6873   -8.3770   27.6245 C   0  0  0  0  0  0  0  0  0  0  0  0
  -20.2878  -11.5694   27.1610 C   0  0  0  0  0  0  0  0  0  0  0  0
  -25.6798   -8.7958   28.5221 C   0  0  0  0  0  0  0  0  0  0  0  0
  -22.2303   -8.1892   21.4337 C   0  0  0  0  0  0  0  0  0  0  0  0
  -27.1714   -9.2282   26.6518 C   0  0  0  0  0  0  0  0  0  0  0  0
  -21.9759   -6.1168   22.5119 C   0  0  0  0  0  0  0  0  0  0  0  0
  -22.9719   -4.1941   24.2708 C   0  0  0  0  0  0  0  0  0  0  0  0
  -21.2462   -5.7660   23.6478 C   0  0  0  0  0  0  0  0  0  0  0  0
  -24.5550  -11.6670   20.8024 C   0  0  0  0  0  0  0  0  0  0  0  0
  -25.2327  -13.7421   20.5388 C   0  0  0  0  0  0  0  0  0  0  0  0
  -32.7846  -10.3195   26.0620 C   0  0  0  0  0  0  0  0  0  0  0  0
  -31.5998  -11.8826   24.9714 C   0  0  0  0  0  0  0  0  0  0  0  0
  -30.5812  -10.5224   26.4372 C   0  0  0  0  0  0  0  0  0  0  0  0
  -22.7761  -13.5191   20.9437 C   0  0  0  0  0  0  0  0  0  0  0  0
  -22.5910   -9.8650   29.4941 C   0  0  0  0  0  0  0  0  0  0  0  0
  -23.8696   -7.9578   31.7854 C   0  0  0  0  0  0  0  0  0  0  0  0
  -26.5252   -6.1047   32.8628 C   0  0  0  0  0  0  0  0  0  0  0  0
  -31.0471  -12.7527   21.5708 C   0  0  0  0  0  0  0  0  0  0  0  0
  -17.9457  -11.5092   28.1619 C   0  0  0  0  0  0  0  0  0  0  0  0
  -23.3588   -7.8872   28.1320 C   0  0  0  0  0  0  0  0  0  0  0  0
  -25.4503   -8.8045   30.0106 C   0  0  0  0  0  0  0  0  0  0  0  0
  -18.6043  -11.0252   29.4512 C   0  0  0  0  0  0  0  0  0  0  0  0
  -29.5211  -13.4700   18.4350 C   0  0  0  0  0  0  0  0  0  0  0  0
  -19.9360  -11.7363   29.6698 C   0  0  0  0  0  0  0  0  0  0  0  0
  -28.0344  -13.2095   18.6835 C   0  0  0  0  0  0  0  0  0  0  0  0
  -30.4022  -12.4807   19.1946 C   0  0  0  0  0  0  0  0  0  0  0  0
  -28.6479  -12.1377   20.8912 C   0  0  0  0  0  0  0  0  0  0  0  0
  -20.9168  -11.4333   28.5307 C   0  0  1  0  0  0  0  0  0  0  0  0
  -23.0142   -8.4234   29.5181 C   0  0  1  0  0  0  0  0  0  0  0  0
  -27.7206  -13.1454   20.1904 C   0  0  2  0  0  0  0  0  0  0  0  0
  -34.0840   -9.6421   26.3364 C   0  0  0  0  0  0  0  0  0  0  0  0
  -27.2893   -4.6933   34.7919 C   0  0  0  0  0  0  0  0  0  0  0  0
  -24.3671  -10.4792   33.4301 C   0  0  0  0  0  0  0  0  0  0  0  0
  -25.9421   -9.1546   34.8558 C   0  0  0  0  0  0  0  0  0  0  0  0
  -23.5312   -8.5236   34.7458 C   0  0  0  0  0  0  0  0  0  0  0  0
  -26.8102   -3.7096   31.1479 C   0  0  0  0  0  0  0  0  0  0  0  0
  -31.5360  -13.0039   23.9909 C   0  0  0  0  0  0  0  0  0  0  0  0
  -29.3375  -10.0757   27.1479 C   0  0  0  0  0  0  0  0  0  1  0  0
  -25.0219   -8.0752   32.7536 C   0  0  1  0  0  0  0  0  0  0  0  0
  -26.6085   -4.6999   33.4320 C   0  0  2  0  0  0  0  0  0  0  0  0
  -24.7195   -9.0599   33.9182 C   0  0  0  0  0  0  0  0  0  0  0  0
  -25.8717  -11.5660   20.6019 N   0  0  0  0  0  0  0  0  0  0  0  0
  -32.8034  -11.3207   25.1673 N   0  0  0  0  0  0  0  0  0  0  0  0
  -31.7144   -9.8663   26.7347 N   0  0  0  0  0  0  0  0  0  0  0  0
  -30.4478  -11.5375   25.5685 N   0  0  0  0  0  0  0  0  0  0  0  0
  -26.2552  -12.8444   20.4447 N   0  0  0  0  0  0  0  0  0  0  0  0
  -24.1329   -8.3224   30.4574 N   0  0  0  0  0  0  0  0  0  0  0  0
  -30.0550  -12.4695   20.6177 N   0  0  0  0  0  0  0  0  0  0  0  0
  -25.4426  -15.0690   20.4057 N   0  0  0  0  0  0  0  0  0  0  0  0
  -21.7294  -12.6168   21.1772 N   0  0  0  0  0  0  0  0  0  0  0  0
  -21.4914  -10.1153   28.6956 N   0  0  0  0  0  0  0  0  0  0  0  0
  -25.3324   -6.7166   33.1853 N   0  0  0  0  0  0  0  0  0  0  0  0
  -30.6322  -12.7273   22.8967 N   0  0  0  0  0  0  0  0  0  0  0  0
  -27.3811   -3.8146   32.5153 N   0  3  0  0  0  0  0  0  0  0  0  0
  -22.5248  -14.7461   20.8739 O   0  0  0  0  0  0  0  0  0  0  0  0
  -23.2151  -10.6888   30.1524 O   0  0  0  0  0  0  0  0  0  0  0  0
  -22.7781   -7.5506   32.1910 O   0  0  0  0  0  0  0  0  0  0  0  0
  -27.4296   -6.6102   32.2015 O   0  0  0  0  0  0  0  0  0  0  0  0
  -32.2148  -13.0145   21.2627 O   0  0  0  0  0  0  0  0  0  0  0  0
  -21.4824   -7.0704   21.6374 O   0  0  0  0  0  0  0  0  0  0  0  0
  -28.3782   -9.6468   26.1824 O   0  0  0  0  0  0  0  0  0  1  0  0
  -23.4496   -3.2698   25.1144 F   0  0  0  0  0  0  0  0  0  0  0  0
  -20.0657   -6.3483   23.8989 F   0  0  0  0  0  0  0  0  0  0  0  0
  1  2  1  0  0  0  0
  1  5  2  0  0  0  0
  2  6  2  0  0  0  0
  3  8  2  0  0  0  0
  3 15  1  0  0  0  0
  4  9  1  0  0  0  0
  4 15  2  0  0  0  0
  5 17  1  0  0  0  0
  6 19  1  0  0  0  0
  7 10  2  0  0  0  0
  7 18  1  0  0  0  0
  8 21  1  0  0  0  0
  9 21  2  0  0  0  0
 10 22  1  0  0  0  0
 11 12  2  0  0  0  0
 11 23  1  0  0  0  0
 12 24  1  0  0  0  0
 13 20  1  0  0  0  0
 13 22  2  0  0  0  0
 14 24  2  0  0  0  0
 14 25  1  0  0  0  0
 15 26  1  0  0  0  0
 16 26  1  0  0  0  0
 16 27  2  0  0  0  0
 16 31  1  0  0  0  0
 17 19  2  0  0  0  0
 17 36  1  0  0  0  0
 18 20  2  0  0  0  0
 18 37  1  0  0  0  0
 19 45  1  0  0  0  0
 20 38  1  0  0  0  0
 21 77  1  0  0  0  0
 22 78  1  0  0  0  0
 23 25  2  0  0  0  0
 23 77  1  0  0  0  0
 24 79  1  0  0  0  0
 25 80  1  0  0  0  0
 26 59  2  0  0  0  0
 27 63  1  0  0  0  0
 27 66  1  0  0  0  0
 28 48  1  0  0  0  0
 28 60  1  0  0  0  0
 28 61  2  0  0  0  0
 29 54  1  0  0  0  0
 29 60  2  0  0  0  0
 29 62  1  0  0  0  0
 30 55  1  0  0  0  0
 30 61  1  0  0  0  0
 30 62  2  0  0  0  0
 31 67  1  0  0  0  0
 31 72  2  0  0  0  0
 32 46  1  0  0  0  0
 32 68  1  0  0  0  0
 32 73  2  0  0  0  0
 33 56  1  0  0  0  0
 33 64  1  0  0  0  0
 33 74  2  0  0  0  0
 34 57  1  0  0  0  0
 34 69  1  0  0  0  0
 34 75  2  0  0  0  0
 35 65  1  0  0  0  0
 35 70  1  0  0  0  0
 35 76  2  0  0  0  0
 36 39  1  0  0  0  0
 37 46  1  0  0  0  0
 38 64  1  0  0  0  0
 39 41  1  0  0  0  0
 40 42  1  0  0  0  0
 40 43  1  0  0  0  0
 41 45  1  0  0  0  0
 42 47  1  0  0  0  0
 43 65  1  0  0  0  0
 44 47  1  0  0  0  0
 44 65  1  0  0  0  0
 45 68  1  0  0  0  0
 46 64  1  0  0  0  0
 47 63  1  0  0  0  0
 49 57  1  0  0  0  0
 50 58  1  0  0  0  0
 51 58  1  0  0  0  0
 52 58  1  0  0  0  0
 53 71  1  0  0  0  0
 54 70  1  0  0  0  0
 55 78  1  0  0  0  0
 56 58  1  0  0  0  0
 56 69  1  0  0  0  0
 57 71  1  0  0  0  0
 59 63  1  0  0  0  0
M  CHG  1  71   1
M  ISO  4  35 100  55 101  70 100  78 101
M  END
> <Batch ID>
0053

> <Smiles>
CNC(C)C(=O)NC(C(=O)N1Cc2cc([101O:1][101CH2:1]c3nc(C)nc(C[100NH:0][100C:0](=O)N4CCCC(n5nc(-c6ccc(Oc7ccc(F)cc7F)cc6)c(C(N)=O)c5N)C4)n3)ccc2CC1C(=O)NC1CCCc2ccccc21)C(C)(C)C

> <Shape>
0.142

> <Color>
0.178

> <Negative vol penalty>
0.000

$$$$

  -OEChem-04052317383D

 83 91  0     1  0  0  0  0  0999 V2000
  -27.6228  -35.9986   19.0645 C   0  0  0  0  0  0  0  0  0  0  0  0
  -27.9967  -34.6860   19.3340 C   0  0  0  0  0  0  0  0  0  0  0  0
  -26.4671  -13.0867   20.1329 C   0  0  0  0  0  0  0  0  0  0  0  0
  -25.1357  -14.8660   21.0809 C   0  0  0  0  0  0  0  0  0  0  0  0
  -26.6089  -36.6002   19.8088 C   0  0  0  0  0  0  0  0  0  0  0  0
  -27.3576  -33.9745   20.3488 C   0  0  0  0  0  0  0  0  0  0  0  0
  -26.1437  -29.2614   18.9494 C   0  0  0  0  0  0  0  0  0  0  0  0
  -27.0931  -23.4523   18.6829 C   0  0  0  0  0  0  0  0  0  0  0  0
  -25.7361  -12.1502   20.8638 C   0  0  0  0  0  0  0  0  0  0  0  0
  -24.4046  -13.9295   21.8117 C   0  0  0  0  0  0  0  0  0  0  0  0
  -27.1682  -28.3158   18.9415 C   0  0  0  0  0  0  0  0  0  0  0  0
  -22.7278  -10.6215   20.6498 C   0  0  0  0  0  0  0  0  0  0  0  0
  -22.3004   -9.4715   19.9861 C   0  0  0  0  0  0  0  0  0  0  0  0
  -26.1506  -22.5467   19.1569 C   0  0  0  0  0  0  0  0  0  0  0  0
  -26.4075  -27.4827   21.0738 C   0  0  0  0  0  0  0  0  0  0  0  0
  -23.5540   -8.1095   21.5387 C   0  0  0  0  0  0  0  0  0  0  0  0
  -26.1670  -14.4446   20.2415 C   0  0  0  0  0  0  0  0  0  0  0  0
  -26.6395  -15.8904   18.1936 C   0  0  0  0  0  0  0  0  0  0  0  0
  -25.9504  -35.8926   20.8268 C   0  0  0  0  0  0  0  0  0  0  0  0
  -25.2486  -29.3321   20.0265 C   0  0  0  0  0  0  0  0  0  0  0  0
  -26.3348  -34.5677   21.1083 C   0  0  0  0  0  0  0  0  0  0  0  0
  -25.3710  -28.4285   21.0917 C   0  0  0  0  0  0  0  0  0  0  0  0
  -28.2815  -23.6393   19.3800 C   0  0  0  0  0  0  0  0  0  0  0  0
  -24.7048  -12.5716   21.7032 C   0  0  0  0  0  0  0  0  0  0  0  0
  -27.3019  -27.4282   20.0051 C   0  0  0  0  0  0  0  0  0  0  0  0
  -23.5683  -10.5155   21.7580 C   0  0  0  0  0  0  0  0  0  0  0  0
  -22.7135   -8.2156   20.4305 C   0  0  0  0  0  0  0  0  0  0  0  0
  -23.9814   -9.2595   22.2024 C   0  0  0  0  0  0  0  0  0  0  0  0
  -26.9222  -15.4125   19.4872 C   0  0  0  0  0  0  0  0  0  0  0  0
  -26.4421  -21.8582   20.3234 C   0  0  0  0  0  0  0  0  0  0  0  0
  -28.4775  -22.9021   20.5367 C   0  0  0  0  0  0  0  0  0  0  0  0
  -27.6473  -16.7858   17.9305 C   0  0  0  0  0  0  0  0  0  0  0  0
  -25.5622  -15.5550   17.3089 C   0  0  0  0  0  0  0  0  0  0  0  0
  -24.5139  -31.5404   22.1914 C   0  0  0  0  0  0  0  0  0  0  0  0
  -22.2147  -29.4066   23.0178 C   0  0  0  0  0  0  0  0  0  0  0  0
  -21.1446  -26.1661   23.0455 C   0  0  0  0  0  0  0  0  0  0  0  0
  -31.1978  -20.0788   21.4519 C   0  0  0  0  0  0  0  0  0  0  0  0
  -24.8928  -36.6006   21.6359 C   0  0  0  0  0  0  0  0  0  0  0  0
  -24.1326  -30.3404   20.0073 C   0  0  0  0  0  0  0  0  0  0  0  0
  -24.4235  -28.4496   22.2623 C   0  0  0  0  0  0  0  0  0  0  0  0
  -24.0091  -35.6542   22.4445 C   0  0  0  0  0  0  0  0  0  0  0  0
  -32.2185  -17.7009   19.0064 C   0  0  0  0  0  0  0  0  0  0  0  0
  -24.8615  -34.6216   23.1752 C   0  0  0  0  0  0  0  0  0  0  0  0
  -30.9513  -16.8878   18.7356 C   0  0  0  0  0  0  0  0  0  0  0  0
  -32.3281  -18.1025   20.4757 C   0  0  0  0  0  0  0  0  0  0  0  0
  -29.8809  -17.9902   20.7451 C   0  0  0  0  0  0  0  0  0  0  0  0
  -25.6483  -33.7550   22.1845 C   0  0  1  0  0  0  0  0  0  0  0  0
  -23.5915  -30.6592   21.3976 C   0  0  1  0  0  0  0  0  0  0  0  0
  -29.6979  -17.6097   19.2658 C   0  0  2  0  0  0  0  0  0  0  0  0
  -25.6759  -19.4709   20.3099 C   0  0  0  0  0  0  0  0  0  0  0  0
  -19.2430  -24.7262   23.8251 C   0  0  0  0  0  0  0  0  0  0  0  0
  -23.2654  -29.5715   25.8777 C   0  0  0  0  0  0  0  0  0  0  0  0
  -22.0035  -27.4704   26.3884 C   0  0  0  0  0  0  0  0  0  0  0  0
  -20.7726  -29.5223   25.6833 C   0  0  0  0  0  0  0  0  0  0  0  0
  -20.4982  -25.3229   20.2833 C   0  0  0  0  0  0  0  0  0  0  0  0
  -29.3079  -24.6220   18.8712 C   0  0  0  0  0  0  0  0  0  0  0  0
  -25.4537  -20.8771   20.8597 C   0  0  0  0  0  0  0  0  0  0  0  0
  -29.7365  -23.0592   21.3248 C   0  0  0  0  0  0  0  0  0  0  0  0
  -29.9228  -21.9845   22.4014 C   0  0  0  0  0  0  0  0  0  0  0  0
  -28.7413  -26.0304   18.7283 C   0  0  0  0  0  0  0  0  0  1  0  0
  -22.1304  -28.2436   23.9765 C   0  0  1  0  0  0  0  0  0  0  0  0
  -19.8112  -25.5424   22.6746 C   0  0  2  0  0  0  0  0  0  0  0  0
  -22.0622  -28.7026   25.4605 C   0  0  0  0  0  0  0  0  0  0  0  0
  -28.0234  -15.9589   20.0095 N   0  0  0  0  0  0  0  0  0  0  0  0
  -27.5853  -22.0131   21.0281 N   0  0  0  0  0  0  0  0  0  0  0  0
  -28.4416  -16.7893   19.0392 N   0  0  0  0  0  0  0  0  0  0  0  0
  -23.3527  -29.4580   22.2003 N   0  0  0  0  0  0  0  0  0  0  0  0
  -31.1081  -18.7837   20.9155 N   0  0  0  0  0  0  0  0  0  0  0  0
  -27.9226  -17.5625   16.8612 N   0  0  0  0  0  0  0  0  0  0  0  0
  -24.6137  -14.6162   17.7369 N   0  0  0  0  0  0  0  0  0  0  0  0
  -24.7858  -32.7553   21.5918 N   0  0  0  0  0  0  0  0  0  0  0  0
  -20.9902  -27.4416   23.5461 N   0  0  0  0  0  0  0  0  0  0  0  0
  -29.9937  -20.6547   21.8382 N   0  0  0  0  0  0  0  0  0  0  0  0
  -19.9691  -24.6455   21.4950 N   0  3  0  0  0  0  0  0  0  0  0  0
  -25.4534  -16.0603   16.1659 O   0  0  0  0  0  0  0  0  0  0  0  0
  -24.9458  -31.1479   23.2690 O   0  0  0  0  0  0  0  0  0  0  0  0
  -21.3011  -30.2350   22.9901 O   0  0  0  0  0  0  0  0  0  0  0  0
  -22.2156  -25.5790   22.9086 O   0  0  0  0  0  0  0  0  0  0  0  0
  -32.2709  -20.6796   21.5723 O   0  0  0  0  0  0  0  0  0  0  0  0
  -23.9911  -11.6581   22.4163 O   0  0  0  0  0  0  0  0  0  0  0  0
  -28.3014  -26.5046   20.0002 O   0  0  0  0  0  0  0  0  0  1  0  0
  -22.3018   -7.1113   19.7940 F   0  0  0  0  0  0  0  0  0  0  0  0
  -24.7879   -9.1513   23.2672 F   0  0  0  0  0  0  0  0  0  0  0  0
  1  2  1  0  0  0  0
  1  5  2  0  0  0  0
  2  6  2  0  0  0  0
  3  9  2  0  0  0  0
  3 17  1  0  0  0  0
  4 10  1  0  0  0  0
  4 17  2  0  0  0  0
  5 19  1  0  0  0  0
  6 21  1  0  0  0  0
  7 11  2  0  0  0  0
  7 20  1  0  0  0  0
  8 14  2  0  0  0  0
  8 23  1  0  0  0  0
  9 24  1  0  0  0  0
 10 24  2  0  0  0  0
 11 25  1  0  0  0  0
 12 13  2  0  0  0  0
 12 26  1  0  0  0  0
 13 27  1  0  0  0  0
 14 30  1  0  0  0  0
 15 22  1  0  0  0  0
 15 25  2  0  0  0  0
 16 27  2  0  0  0  0
 16 28  1  0  0  0  0
 17 29  1  0  0  0  0
 18 29  1  0  0  0  0
 18 32  2  0  0  0  0
 18 33  1  0  0  0  0
 19 21  2  0  0  0  0
 19 38  1  0  0  0  0
 20 22  2  0  0  0  0
 20 39  1  0  0  0  0
 21 47  1  0  0  0  0
 22 40  1  0  0  0  0
 23 31  2  0  0  0  0
 23 56  1  0  0  0  0
 24 80  1  0  0  0  0
 25 81  1  0  0  0  0
 26 28  2  0  0  0  0
 26 80  1  0  0  0  0
 27 82  1  0  0  0  0
 28 83  1  0  0  0  0
 29 64  2  0  0  0  0
 30 57  1  0  0  0  0
 30 65  2  0  0  0  0
 31 58  1  0  0  0  0
 31 65  1  0  0  0  0
 32 66  1  0  0  0  0
 32 69  1  0  0  0  0
 33 70  1  0  0  0  0
 33 75  2  0  0  0  0
 34 48  1  0  0  0  0
 34 71  1  0  0  0  0
 34 76  2  0  0  0  0
 35 61  1  0  0  0  0
 35 67  1  0  0  0  0
 35 77  2  0  0  0  0
 36 62  1  0  0  0  0
 36 72  1  0  0  0  0
 36 78  2  0  0  0  0
 37 68  1  0  0  0  0
 37 73  1  0  0  0  0
 37 79  2  0  0  0  0
 38 41  1  0  0  0  0
 39 48  1  0  0  0  0
 40 67  1  0  0  0  0
 41 43  1  0  0  0  0
 42 44  1  0  0  0  0
 42 45  1  0  0  0  0
 43 47  1  0  0  0  0
 44 49  1  0  0  0  0
 45 68  1  0  0  0  0
 46 49  1  0  0  0  0
 46 68  1  0  0  0  0
 47 71  1  0  0  0  0
 48 67  1  0  0  0  0
 49 66  1  0  0  0  0
 50 57  1  0  0  0  0
 51 62  1  0  0  0  0
 52 63  1  0  0  0  0
 53 63  1  0  0  0  0
 54 63  1  0  0  0  0
 55 74  1  0  0  0  0
 56 60  1  0  0  0  0
 58 59  1  0  0  0  0
 59 73  1  0  0  0  0
 60 81  1  0  0  0  0
 61 63  1  0  0  0  0
 61 72  1  0  0  0  0
 62 74  1  0  0  0  0
 64 66  1  0  0  0  0
M  CHG  1  74   1
M  ISO  4  37 100  60 101  73 100  81 101
M  END
> <Batch ID>
0053

> <Smiles>
CCc1ccc(C[101CH2:1][101O:1]c2ccc3c(c2)CN(C(=O)C(NC(=O)C(C)NC)C(C)(C)C)C(C(=O)NC2CCCc4ccccc42)C3)c(CC[100NH:0][100C:0](=O)N2CCCC(n3nc(-c4ccc(Oc5ccc(F)cc5F)cc4)c(C(N)=O)c3N)C2)n1

> <Shape>
0.260

> <Color>
0.073

> <Negative vol penalty>
0.000

$$$$

  -OEChem-04052317383D

 82 90  0     1  0  0  0  0  0999 V2000
  -25.1759  -29.9111   23.0124 C   0  0  0  0  0  0  0  0  0  0  0  0
  -25.0926  -28.6374   23.5658 C   0  0  0  0  0  0  0  0  0  0  0  0
  -20.2044  -22.4368   21.3440 C   0  0  0  0  0  0  0  0  0  0  0  0
  -22.4302  -22.1363   22.2341 C   0  0  0  0  0  0  0  0  0  0  0  0
  -25.4770  -30.0639   21.6597 C   0  0  0  0  0  0  0  0  0  0  0  0
  -25.3092  -27.5156   22.7663 C   0  0  0  0  0  0  0  0  0  0  0  0
  -27.9615  -20.8683   23.0749 C   0  0  0  0  0  0  0  0  0  0  0  0
  -20.0590  -23.5999   22.1002 C   0  0  0  0  0  0  0  0  0  0  0  0
  -22.2849  -23.2994   22.9902 C   0  0  0  0  0  0  0  0  0  0  0  0
  -27.6121  -19.5539   22.7680 C   0  0  0  0  0  0  0  0  0  0  0  0
  -19.2384  -26.8439   23.5207 C   0  0  0  0  0  0  0  0  0  0  0  0
  -27.1993  -13.3207   21.4839 C   0  0  0  0  0  0  0  0  0  0  0  0
  -18.6920  -27.9624   22.8915 C   0  0  0  0  0  0  0  0  0  0  0  0
  -27.5003  -14.5820   21.9857 C   0  0  0  0  0  0  0  0  0  0  0  0
  -28.2035  -19.9417   20.4617 C   0  0  0  0  0  0  0  0  0  0  0  0
  -20.5029  -27.9474   21.2922 C   0  0  0  0  0  0  0  0  0  0  0  0
  -21.3900  -21.7050   21.4110 C   0  0  0  0  0  0  0  0  0  0  0  0
  -22.0496  -20.3972   19.3224 C   0  0  0  0  0  0  0  0  0  0  0  0
  -25.7070  -28.9437   20.8454 C   0  0  0  0  0  0  0  0  0  0  0  0
  -28.4249  -21.7339   22.0738 C   0  0  0  0  0  0  0  0  0  0  0  0
  -25.6124  -27.6535   21.4011 C   0  0  0  0  0  0  0  0  0  0  0  0
  -28.5605  -21.2658   20.7590 C   0  0  0  0  0  0  0  0  0  0  0  0
  -21.0993  -24.0312   22.9232 C   0  0  0  0  0  0  0  0  0  0  0  0
  -27.7304  -19.0913   21.4606 C   0  0  0  0  0  0  0  0  0  0  0  0
  -20.4171  -26.2771   23.0357 C   0  0  0  0  0  0  0  0  0  0  0  0
  -26.0478  -13.1364   20.7267 C   0  0  0  0  0  0  0  0  0  0  0  0
  -19.3242  -28.5142   21.7772 C   0  0  0  0  0  0  0  0  0  0  0  0
  -21.0493  -26.8288   21.9215 C   0  0  0  0  0  0  0  0  0  0  0  0
  -21.5405  -20.5031   20.6306 C   0  0  0  0  0  0  0  0  0  0  0  0
  -26.6243  -15.6179   21.7042 C   0  0  0  0  0  0  0  0  0  0  0  0
  -25.2367  -14.2371   20.5017 C   0  0  0  0  0  0  0  0  0  0  0  0
  -21.9839  -19.0556   19.0360 C   0  0  0  0  0  0  0  0  0  0  0  0
  -22.5382  -21.4202   18.4446 C   0  0  0  0  0  0  0  0  0  0  0  0
  -27.4012  -24.4720   20.8254 C   0  0  0  0  0  0  0  0  0  0  0  0
  -30.2270  -24.3537   19.2370 C   0  0  0  0  0  0  0  0  0  0  0  0
  -22.8226  -13.7474   20.5882 C   0  0  0  0  0  0  0  0  0  0  0  0
  -32.7932  -22.4570   18.0271 C   0  0  0  0  0  0  0  0  0  0  0  0
  -25.9828  -29.1572   19.3781 C   0  0  0  0  0  0  0  0  0  0  0  0
  -28.8230  -23.1409   22.4263 C   0  0  0  0  0  0  0  0  0  0  0  0
  -29.0723  -22.1491   19.6516 C   0  0  0  0  0  0  0  0  0  0  0  0
  -26.5676  -27.9302   18.6834 C   0  0  0  0  0  0  0  0  0  0  0  0
  -19.7012  -15.2674   21.4747 C   0  0  0  0  0  0  0  0  0  0  0  0
  -25.7845  -26.6776   19.0637 C   0  0  0  0  0  0  0  0  0  0  0  0
  -19.9530  -16.7586   21.2556 C   0  0  0  0  0  0  0  0  0  0  0  0
  -20.9517  -14.5592   21.9863 C   0  0  0  0  0  0  0  0  0  0  0  0
  -22.4079  -16.2380   20.8988 C   0  0  0  0  0  0  0  0  0  0  0  0
  -25.8653  -26.4131   20.5720 C   0  0  1  0  0  0  0  0  0  0  0  0
  -28.7962  -24.0870   21.2298 C   0  0  1  0  0  0  0  0  0  0  0  0
  -21.1785  -16.9855   20.3527 C   0  0  2  0  0  0  0  0  0  0  0  0
  -34.9398  -22.6379   16.7398 C   0  0  0  0  0  0  0  0  0  0  0  0
  -28.6445  -24.6952   16.6508 C   0  0  0  0  0  0  0  0  0  0  0  0
  -30.6680  -23.9261   15.3929 C   0  0  0  0  0  0  0  0  0  0  0  0
  -30.7676  -26.0127   16.7564 C   0  0  0  0  0  0  0  0  0  0  0  0
  -34.3748  -21.3889   20.2890 C   0  0  0  0  0  0  0  0  0  0  0  0
  -26.6517  -10.8451   20.5252 C   0  0  0  0  0  0  0  0  0  0  0  0
  -26.9179  -16.9925   22.2293 C   0  0  0  0  0  0  0  0  0  1  0  0
  -30.6918  -23.7715   17.9240 C   0  0  1  0  0  0  0  0  0  0  0  0
  -34.2993  -22.6235   18.1191 C   0  0  2  0  0  0  0  0  0  0  0  0
  -23.9878  -14.0925   19.6953 C   0  0  0  0  0  0  0  0  0  0  0  0
  -30.1815  -24.5851   16.7013 C   0  0  0  0  0  0  0  0  0  0  0  0
  -21.1780  -19.3228   21.1400 N   0  0  0  0  0  0  0  0  0  0  0  0
  -25.4962  -15.4775   20.9725 N   0  0  0  0  0  0  0  0  0  0  0  0
  -21.4595  -18.4625   20.1466 N   0  0  0  0  0  0  0  0  0  0  0  0
  -29.4426  -23.5186   20.0452 N   0  0  0  0  0  0  0  0  0  0  0  0
  -22.0985  -14.8176   21.1139 N   0  0  0  0  0  0  0  0  0  0  0  0
  -22.3239  -18.3370   17.9449 N   0  0  0  0  0  0  0  0  0  0  0  0
  -22.5354  -22.7466   18.8974 N   0  0  0  0  0  0  0  0  0  0  0  0
  -27.1433  -25.8267   20.9145 N   0  0  0  0  0  0  0  0  0  0  0  0
  -32.1448  -23.6738   18.0124 N   0  0  0  0  0  0  0  0  0  0  0  0
  -34.8970  -21.5060   18.9032 N   0  3  0  0  0  0  0  0  0  0  0  0
  -22.9494  -21.1676   17.2867 O   0  0  0  0  0  0  0  0  0  0  0  0
  -26.6174  -23.6045   20.4584 O   0  0  0  0  0  0  0  0  0  0  0  0
  -30.5541  -25.5044   19.5379 O   0  0  0  0  0  0  0  0  0  0  0  0
  -22.5635  -12.5614   20.8083 O   0  0  0  0  0  0  0  0  0  0  0  0
  -32.2469  -21.3575   17.9699 O   0  0  0  0  0  0  0  0  0  0  0  0
  -20.9579  -25.1662   23.6610 O   0  0  0  0  0  0  0  0  0  0  0  0
  -25.7449  -11.9091   20.2320 O   0  0  0  0  0  0  0  0  0  0  0  0
  -27.3894  -17.8091   21.1582 O   0  0  0  0  0  0  0  0  0  1  0  0
  -18.7986  -29.5874   21.1721 F   0  0  0  0  0  0  0  0  0  0  0  0
  -22.1812  -26.2880   21.4503 F   0  0  0  0  0  0  0  0  0  0  0  0
  -23.6796  -15.2314   18.9952 F   0  0  0  0  0  0  0  0  0  0  0  0
  -24.0968  -13.1273   18.7264 F   0  0  0  0  0  0  0  0  0  0  0  0
  1  2  1  0  0  0  0
  1  5  2  0  0  0  0
  2  6  2  0  0  0  0
  3  8  2  0  0  0  0
  3 17  1  0  0  0  0
  4  9  1  0  0  0  0
  4 17  2  0  0  0  0
  5 19  1  0  0  0  0
  6 21  1  0  0  0  0
  7 10  2  0  0  0  0
  7 20  1  0  0  0  0
  8 23  1  0  0  0  0
  9 23  2  0  0  0  0
 10 24  1  0  0  0  0
 11 13  2  0  0  0  0
 11 25  1  0  0  0  0
 12 14  2  0  0  0  0
 12 26  1  0  0  0  0
 13 27  1  0  0  0  0
 14 30  1  0  0  0  0
 15 22  1  0  0  0  0
 15 24  2  0  0  0  0
 16 27  2  0  0  0  0
 16 28  1  0  0  0  0
 17 29  1  0  0  0  0
 18 29  1  0  0  0  0
 18 32  2  0  0  0  0
 18 33  1  0  0  0  0
 19 21  2  0  0  0  0
 19 38  1  0  0  0  0
 20 22  2  0  0  0  0
 20 39  1  0  0  0  0
 21 47  1  0  0  0  0
 22 40  1  0  0  0  0
 23 76  1  0  0  0  0
 24 78  1  0  0  0  0
 25 28  2  0  0  0  0
 25 76  1  0  0  0  0
 26 31  2  0  0  0  0
 26 77  1  0  0  0  0
 27 79  1  0  0  0  0
 28 80  1  0  0  0  0
 29 61  2  0  0  0  0
 30 56  1  0  0  0  0
 30 62  2  0  0  0  0
 31 59  1  0  0  0  0
 31 62  1  0  0  0  0
 32 63  1  0  0  0  0
 32 66  1  0  0  0  0
 33 67  1  0  0  0  0
 33 71  2  0  0  0  0
 34 48  1  0  0  0  0
 34 68  1  0  0  0  0
 34 72  2  0  0  0  0
 35 57  1  0  0  0  0
 35 64  1  0  0  0  0
 35 73  2  0  0  0  0
 36 59  1  0  0  0  0
 36 65  1  0  0  0  0
 36 74  2  0  0  0  0
 37 58  1  0  0  0  0
 37 69  1  0  0  0  0
 37 75  2  0  0  0  0
 38 41  1  0  0  0  0
 39 48  1  0  0  0  0
 40 64  1  0  0  0  0
 41 43  1  0  0  0  0
 42 44  1  0  0  0  0
 42 45  1  0  0  0  0
 43 47  1  0  0  0  0
 44 49  1  0  0  0  0
 45 65  1  0  0  0  0
 46 49  1  0  0  0  0
 46 65  1  0  0  0  0
 47 68  1  0  0  0  0
 48 64  1  0  0  0  0
 49 63  1  0  0  0  0
 50 58  1  0  0  0  0
 51 60  1  0  0  0  0
 52 60  1  0  0  0  0
 53 60  1  0  0  0  0
 54 70  1  0  0  0  0
 55 77  1  0  0  0  0
 56 78  1  0  0  0  0
 57 60  1  0  0  0  0
 57 69  1  0  0  0  0
 58 70  1  0  0  0  0
 59 81  1  0  0  0  0
 59 82  1  0  0  0  0
 61 63  1  0  0  0  0
M  CHG  1  70   1
M  ISO  4  36 100  56 101  59 100  78 101
M  END
> <Batch ID>
0053

> <Smiles>
CNC(C)C(=O)NC(C(=O)N1Cc2cc([101O:1][101CH2:1]c3ccc(OC)c([100C:0](F)(F)[100C:0](=O)N4CCCC(n5nc(-c6ccc(Oc7ccc(F)cc7F)cc6)c(C(N)=O)c5N)C4)n3)ccc2CC1C(=O)NC1CCCc2ccccc21)C(C)(C)C

> <Shape>
0.196

> <Color>
0.077

> <Negative vol penalty>
0.000

$$$$

  -OEChem-04052317382D

  0  0  0     0  0  0  0  0  0999 V2000
M  END
$$$$

  -OEChem-04052317383D

 86 94  0     1  0  0  0  0  0999 V2000
  -17.4122  -13.4354   23.0883 C   0  0  0  0  0  0  0  0  0  0  0  0
  -18.3900  -14.4111   22.9230 C   0  0  0  0  0  0  0  0  0  0  0  0
  -21.7755  -28.4126   20.8852 C   0  0  0  0  0  0  0  0  0  0  0  0
  -22.8055  -27.8156   22.9875 C   0  0  0  0  0  0  0  0  0  0  0  0
  -17.7818  -12.1185   23.3586 C   0  0  0  0  0  0  0  0  0  0  0  0
  -19.7381  -14.0706   23.0291 C   0  0  0  0  0  0  0  0  0  0  0  0
  -24.4003  -16.4650   19.8611 C   0  0  0  0  0  0  0  0  0  0  0  0
  -20.6223  -27.7197   21.2534 C   0  0  0  0  0  0  0  0  0  0  0  0
  -21.6523  -27.1228   23.3558 C   0  0  0  0  0  0  0  0  0  0  0  0
  -25.3358  -17.4515   20.1702 C   0  0  0  0  0  0  0  0  0  0  0  0
  -17.9310  -28.2371   23.2338 C   0  0  0  0  0  0  0  0  0  0  0  0
  -16.7023  -28.8584   23.0103 C   0  0  0  0  0  0  0  0  0  0  0  0
  -26.9046  -15.7455   20.8394 C   0  0  0  0  0  0  0  0  0  0  0  0
  -16.0424  -27.0349   21.5693 C   0  0  0  0  0  0  0  0  0  0  0  0
  -22.8672  -28.4605   21.7522 C   0  0  0  0  0  0  0  0  0  0  0  0
  -24.3505  -30.5313   21.6145 C   0  0  0  0  0  0  0  0  0  0  0  0
  -19.1353  -11.7598   23.4584 C   0  0  0  0  0  0  0  0  0  0  0  0
  -24.7066  -15.1096   20.0495 C   0  0  0  0  0  0  0  0  0  0  0  0
  -20.1261  -12.7479   23.3023 C   0  0  0  0  0  0  0  0  0  0  0  0
  -25.9722  -14.7437   20.5296 C   0  0  0  0  0  0  0  0  0  0  0  0
  -20.5606  -27.0748   22.4888 C   0  0  0  0  0  0  0  0  0  0  0  0
  -26.5872  -17.0919   20.6621 C   0  0  0  0  0  0  0  0  0  0  0  0
  -18.2154  -27.0148   22.6250 C   0  0  0  0  0  0  0  0  0  0  0  0
  -15.7580  -28.2573   22.1781 C   0  0  0  0  0  0  0  0  0  0  0  0
  -17.2711  -26.4136   21.7928 C   0  0  0  0  0  0  0  0  0  0  0  0
  -24.0589  -29.1756   21.3721 C   0  0  0  0  0  0  0  0  0  0  0  0
  -25.5930  -30.7197   21.0602 C   0  0  0  0  0  0  0  0  0  0  0  0
  -29.5358  -21.2976   22.6743 C   0  0  0  0  0  0  0  0  0  0  0  0
  -29.9468  -21.6506   20.4965 C   0  0  0  0  0  0  0  0  0  0  0  0
  -28.2579  -20.3090   21.1166 C   0  0  0  0  0  0  0  0  0  0  0  0
  -23.5682  -31.5310   22.2811 C   0  0  0  0  0  0  0  0  0  0  0  0
  -23.5228  -12.7714   21.8482 C   0  0  0  0  0  0  0  0  0  0  0  0
  -25.6260  -10.9508   20.1796 C   0  0  0  0  0  0  0  0  0  0  0  0
  -28.5048  -10.7876   18.3539 C   0  0  0  0  0  0  0  0  0  0  0  0
  -30.1015  -27.2109   20.0760 C   0  0  0  0  0  0  0  0  0  0  0  0
  -19.4848  -10.3327   23.7989 C   0  0  0  0  0  0  0  0  0  0  0  0
  -23.6960  -14.0564   19.6861 C   0  0  0  0  0  0  0  0  0  0  0  0
  -26.3576  -13.3017   20.7306 C   0  0  0  0  0  0  0  0  0  0  0  0
  -20.9447   -9.9811   23.5242 C   0  0  0  0  0  0  0  0  0  0  0  0
  -28.4414  -29.0908   17.5897 C   0  0  0  0  0  0  0  0  0  0  0  0
  -21.8670  -11.0668   24.0696 C   0  0  0  0  0  0  0  0  0  0  0  0
  -27.1406  -29.4551   18.3038 C   0  0  0  0  0  0  0  0  0  0  0  0
  -28.8829  -27.6582   17.8951 C   0  0  0  0  0  0  0  0  0  0  0  0
  -27.6786  -27.7221   20.0557 C   0  0  0  0  0  0  0  0  0  0  0  0
  -21.5995  -12.4128   23.3854 C   0  0  1  0  0  0  0  0  0  0  0  0
  -23.9310  -12.7303   20.4027 C   0  0  1  0  0  0  0  0  0  0  0  0
  -27.2449  -29.1760   19.8132 C   0  0  2  0  0  0  0  0  0  0  0  0
  -29.8683  -21.5414   24.1070 C   0  0  0  0  0  0  0  0  0  0  0  0
  -34.6401  -28.2199   19.2179 C   0  0  0  0  0  0  0  0  0  0  0  0
  -29.9877   -9.1559   17.1558 C   0  0  0  0  0  0  0  0  0  0  0  0
  -26.7212   -9.9832   22.8581 C   0  0  0  0  0  0  0  0  0  0  0  0
  -28.7452   -9.1425   21.6478 C   0  0  0  0  0  0  0  0  0  0  0  0
  -26.4967   -8.2012   21.1178 C   0  0  0  0  0  0  0  0  0  0  0  0
  -28.0975  -12.1467   15.7566 C   0  0  0  0  0  0  0  0  0  0  0  0
  -30.7520  -22.3005   19.4232 C   0  0  0  0  0  0  0  0  0  0  0  0
  -27.1127  -19.4095   20.7547 C   0  0  0  0  0  0  0  0  0  1  0  0
  -33.1667  -27.9830   18.9167 C   0  0  0  0  0  0  0  0  0  0  0  0
  -32.5785  -26.8309   19.7225 C   0  0  0  0  0  0  0  0  0  0  0  0
  -30.9173  -25.8975   18.1556 C   0  0  0  0  0  0  0  0  0  0  0  0
  -31.2885  -24.4281   18.2299 C   0  0  0  0  0  0  0  0  0  0  0  0
  -27.0686  -10.5452   20.3622 C   0  0  1  0  0  0  0  0  0  0  0  0
  -28.8195  -10.1210   17.0269 C   0  0  2  0  0  0  0  0  0  0  0  0
  -27.2503   -9.4954   21.4946 C   0  0  0  0  0  0  0  0  0  0  0  0
  -25.0373  -28.5472   20.7149 N   0  0  0  0  0  0  0  0  0  0  0  0
  -30.3042  -21.9162   21.7631 N   0  0  0  0  0  0  0  0  0  0  0  0
  -28.4984  -20.4819   22.4263 N   0  0  0  0  0  0  0  0  0  0  0  0
  -28.9380  -20.8591   20.0979 N   0  0  0  0  0  0  0  0  0  0  0  0
  -25.9558  -29.5124   20.5395 N   0  0  0  0  0  0  0  0  0  0  0  0
  -25.3330  -12.3091   20.3668 N   0  0  0  0  0  0  0  0  0  0  0  0
  -28.9233  -27.4205   19.3445 N   0  0  0  0  0  0  0  0  0  0  0  0
  -26.3996  -31.7986   20.9721 N   0  0  0  0  0  0  0  0  0  0  0  0
  -22.3144  -31.1678   22.7914 N   0  0  0  0  0  0  0  0  0  0  0  0
  -22.1999  -12.4387   22.0689 N   0  0  0  0  0  0  0  0  0  0  0  0
  -27.5362  -10.0998   19.0540 N   0  0  0  0  0  0  0  0  0  0  0  0
  -31.1707  -26.5944   19.4087 N   0  0  0  0  0  0  0  0  0  0  0  0
  -29.1673  -11.1455   16.0021 N   0  3  0  0  0  0  0  0  0  0  0  0
  -30.4550  -23.7503   19.2566 N   0  3  0  0  0  0  0  0  0  0  0  0
  -23.9621  -32.7154   22.4056 O   0  0  0  0  0  0  0  0  0  0  0  0
  -24.3474  -13.0805   22.7003 O   0  0  0  0  0  0  0  0  0  0  0  0
  -24.7912  -10.0953   19.8749 O   0  0  0  0  0  0  0  0  0  0  0  0
  -29.0649  -11.8137   18.7333 O   0  0  0  0  0  0  0  0  0  0  0  0
  -30.1921  -27.5483   21.2635 O   0  0  0  0  0  0  0  0  0  0  0  0
  -19.4354  -26.3988   22.8485 O   0  0  0  0  0  0  0  0  0  0  0  0
  -27.5019  -18.0528   20.9652 O   0  0  0  0  0  0  0  0  0  1  0  0
  -14.5775  -28.8533   21.9648 F   0  0  0  0  0  0  0  0  0  0  0  0
  -17.5382  -25.2388   21.2061 F   0  0  0  0  0  0  0  0  0  0  0  0
  1  2  1  0  0  0  0
  1  5  2  0  0  0  0
  2  6  2  0  0  0  0
  3  8  2  0  0  0  0
  3 15  1  0  0  0  0
  4  9  1  0  0  0  0
  4 15  2  0  0  0  0
  5 17  1  0  0  0  0
  6 19  1  0  0  0  0
  7 10  2  0  0  0  0
  7 18  1  0  0  0  0
  8 21  1  0  0  0  0
  9 21  2  0  0  0  0
 10 22  1  0  0  0  0
 11 12  2  0  0  0  0
 11 23  1  0  0  0  0
 12 24  1  0  0  0  0
 13 20  1  0  0  0  0
 13 22  2  0  0  0  0
 14 24  2  0  0  0  0
 14 25  1  0  0  0  0
 15 26  1  0  0  0  0
 16 26  1  0  0  0  0
 16 27  2  0  0  0  0
 16 31  1  0  0  0  0
 17 19  2  0  0  0  0
 17 36  1  0  0  0  0
 18 20  2  0  0  0  0
 18 37  1  0  0  0  0
 19 45  1  0  0  0  0
 20 38  1  0  0  0  0
 21 83  1  0  0  0  0
 22 84  1  0  0  0  0
 23 25  2  0  0  0  0
 23 83  1  0  0  0  0
 24 85  1  0  0  0  0
 25 86  1  0  0  0  0
 26 64  2  0  0  0  0
 27 68  1  0  0  0  0
 27 71  1  0  0  0  0
 28 48  1  0  0  0  0
 28 65  2  0  0  0  0
 28 66  1  0  0  0  0
 29 55  1  0  0  0  0
 29 65  1  0  0  0  0
 29 67  2  0  0  0  0
 30 56  1  0  0  0  0
 30 66  2  0  0  0  0
 30 67  1  0  0  0  0
 31 72  1  0  0  0  0
 31 78  2  0  0  0  0
 32 46  1  0  0  0  0
 32 73  1  0  0  0  0
 32 79  2  0  0  0  0
 33 61  1  0  0  0  0
 33 69  1  0  0  0  0
 33 80  2  0  0  0  0
 34 62  1  0  0  0  0
 34 74  1  0  0  0  0
 34 81  2  0  0  0  0
 35 70  1  0  0  0  0
 35 75  1  0  0  0  0
 35 82  2  0  0  0  0
 36 39  1  0  0  0  0
 37 46  1  0  0  0  0
 38 69  1  0  0  0  0
 39 41  1  0  0  0  0
 40 42  1  0  0  0  0
 40 43  1  0  0  0  0
 41 45  1  0  0  0  0
 42 47  1  0  0  0  0
 43 70  1  0  0  0  0
 44 47  1  0  0  0  0
 44 70  1  0  0  0  0
 45 73  1  0  0  0  0
 46 69  1  0  0  0  0
 47 68  1  0  0  0  0
 49 57  1  0  0  0  0
 50 62  1  0  0  0  0
 51 63  1  0  0  0  0
 52 63  1  0  0  0  0
 53 63  1  0  0  0  0
 54 76  1  0  0  0  0
 55 77  1  0  0  0  0
 56 84  1  0  0  0  0
 57 58  1  0  0  0  0
 58 75  1  0  0  0  0
 59 60  1  0  0  0  0
 59 75  1  0  0  0  0
 60 77  1  0  0  0  0
 61 63  1  0  0  0  0
 61 74  1  0  0  0  0
 62 76  1  0  0  0  0
 64 68  1  0  0  0  0
M  CHG  2  76   1  77   1
M  ISO  4  35 100  56 101  75 100  84 101
M  END
> <Batch ID>
0053

> <Smiles>
CCC[100N:0](CCNCc1nc(C)nc([101CH2:1][101O:1]c2ccc3c(c2)CN(C(=O)C(NC(=O)C(C)NC)C(C)(C)C)C(C(=O)NC2CCCc4ccccc42)C3)n1)[100C:0](=O)N1CCCC(n2nc(-c3ccc(Oc4ccc(F)cc4F)cc3)c(C(N)=O)c2N)C1

> <Shape>
0.284

> <Color>
0.049

> <Negative vol penalty>
0.000

$$$$

  -OEChem-04052317382D

  0  0  0     0  0  0  0  0  0999 V2000
M  END
$$$$

  -OEChem-04052317383D

 85 93  0     1  0  0  0  0  0999 V2000
  -15.8793  -27.4815   26.2607 C   0  0  0  0  0  0  0  0  0  0  0  0
  -16.5412  -26.3551   25.7828 C   0  0  0  0  0  0  0  0  0  0  0  0
  -31.0275  -22.8725   18.7536 C   0  0  0  0  0  0  0  0  0  0  0  0
  -28.6813  -23.0200   18.1963 C   0  0  0  0  0  0  0  0  0  0  0  0
  -16.1172  -28.7269   25.6808 C   0  0  0  0  0  0  0  0  0  0  0  0
  -17.4408  -26.4732   24.7240 C   0  0  0  0  0  0  0  0  0  0  0  0
  -22.5919  -23.2665   23.8942 C   0  0  0  0  0  0  0  0  0  0  0  0
  -31.3388  -23.6738   17.6551 C   0  0  0  0  0  0  0  0  0  0  0  0
  -28.9926  -23.8213   17.0978 C   0  0  0  0  0  0  0  0  0  0  0  0
  -22.8857  -22.1488   23.1144 C   0  0  0  0  0  0  0  0  0  0  0  0
  -29.1383  -26.2030   14.3548 C   0  0  0  0  0  0  0  0  0  0  0  0
  -28.3610  -27.3412   14.1403 C   0  0  0  0  0  0  0  0  0  0  0  0
  -23.7186  -23.5921   21.3702 C   0  0  0  0  0  0  0  0  0  0  0  0
  -29.0130  -28.1943   16.3046 C   0  0  0  0  0  0  0  0  0  0  0  0
  -22.3471  -13.2953   21.0737 C   0  0  0  0  0  0  0  0  0  0  0  0
  -29.6987  -22.5456   19.0242 C   0  0  0  0  0  0  0  0  0  0  0  0
  -29.0919  -22.1446   21.4693 C   0  0  0  0  0  0  0  0  0  0  0  0
  -17.0274  -28.8620   24.6206 C   0  0  0  0  0  0  0  0  0  0  0  0
  -22.8497  -24.5580   23.4127 C   0  0  0  0  0  0  0  0  0  0  0  0
  -17.6902  -27.7214   24.1284 C   0  0  0  0  0  0  0  0  0  0  0  0
  -23.4296  -24.7245   22.1470 C   0  0  0  0  0  0  0  0  0  0  0  0
  -30.3213  -24.1482   16.8272 C   0  0  0  0  0  0  0  0  0  0  0  0
  -23.4464  -22.3116   21.8510 C   0  0  0  0  0  0  0  0  0  0  0  0
  -29.8529  -26.0604   15.5442 C   0  0  0  0  0  0  0  0  0  0  0  0
  -28.2984  -28.3368   15.1152 C   0  0  0  0  0  0  0  0  0  0  0  0
  -29.7902  -27.0561   16.5191 C   0  0  0  0  0  0  0  0  0  0  0  0
  -29.3766  -21.7175   20.1585 C   0  0  0  0  0  0  0  0  0  0  0  0
  -23.6096  -14.9653   20.6891 C   0  0  0  0  0  0  0  0  0  0  0  0
  -24.4249  -14.0089   21.2468 C   0  0  0  0  0  0  0  0  0  0  0  0
  -28.8531  -20.9842   22.1643 C   0  0  0  0  0  0  0  0  0  0  0  0
  -29.0473  -23.4716   22.0104 C   0  0  0  0  0  0  0  0  0  0  0  0
  -21.0646  -27.1046   22.7553 C   0  0  0  0  0  0  0  0  0  0  0  0
  -23.9454  -28.5124   22.2639 C   0  0  0  0  0  0  0  0  0  0  0  0
  -27.2520  -28.1548   21.4986 C   0  0  0  0  0  0  0  0  0  0  0  0
  -26.5858  -16.1358   22.7244 C   0  0  0  0  0  0  0  0  0  0  0  0
  -17.2164  -30.2211   23.9948 C   0  0  0  0  0  0  0  0  0  0  0  0
  -22.5518  -25.7524   24.2771 C   0  0  0  0  0  0  0  0  0  0  0  0
  -23.7445  -26.0889   21.5922 C   0  0  0  0  0  0  0  0  0  0  0  0
  -18.4655  -30.3220   23.1231 C   0  0  0  0  0  0  0  0  0  0  0  0
  -29.6049  -16.1564   20.8922 C   0  0  0  0  0  0  0  0  0  0  0  0
  -18.5688  -29.1147   22.1965 C   0  0  0  0  0  0  0  0  0  0  0  0
  -29.7915  -17.6507   20.6333 C   0  0  0  0  0  0  0  0  0  0  0  0
  -28.1419  -15.7289   20.7611 C   0  0  0  0  0  0  0  0  0  0  0  0
  -27.3965  -18.0177   21.3338 C   0  0  0  0  0  0  0  0  0  0  0  0
  -18.6919  -27.8131   22.9978 C   0  0  1  0  0  0  0  0  0  0  0  0
  -22.3805  -27.0405   23.4779 C   0  0  1  0  0  0  0  0  0  0  0  0
  -28.8487  -18.4844   21.5182 C   0  0  2  0  0  0  0  0  0  0  0  0
  -29.6451  -28.8212   21.1435 C   0  0  0  0  0  0  0  0  0  0  0  0
  -26.9652  -14.2119   25.0023 C   0  0  0  0  0  0  0  0  0  0  0  0
  -24.5841  -14.9096   24.5935 C   0  0  0  0  0  0  0  0  0  0  0  0
  -22.9232  -29.3578   19.5161 C   0  0  0  0  0  0  0  0  0  0  0  0
  -25.2926  -29.8242   18.8552 C   0  0  0  0  0  0  0  0  0  0  0  0
  -24.2446  -31.1062   20.7208 C   0  0  0  0  0  0  0  0  0  0  0  0
  -23.9721  -11.6766   22.0700 C   0  0  0  0  0  0  0  0  0  0  0  0
  -27.9215  -27.7030   24.3459 C   0  0  0  0  0  0  0  0  0  0  0  0
  -23.9742  -16.3511   20.2196 C   0  0  0  0  0  0  0  0  0  0  0  0
  -25.8646  -14.0066   21.5620 C   0  0  0  0  0  0  0  0  0  0  0  0
  -23.5366  -17.4646   21.1777 C   0  0  0  0  0  0  0  0  0  0  0  0
  -23.8461  -18.8657   20.6485 C   0  0  0  0  0  0  0  0  0  0  0  0
  -23.4342  -19.9425   21.6431 C   0  0  0  0  0  0  0  0  0  1  0  0
  -24.8644  -28.6814   21.0782 C   0  0  1  0  0  0  0  0  0  0  0  0
  -28.5024  -28.7260   22.1425 C   0  0  2  0  0  0  0  0  0  0  0  0
  -25.7998  -14.1919   24.0212 C   0  0  0  0  0  0  0  0  0  0  0  0
  -24.3236  -29.7166   20.0520 C   0  0  0  0  0  0  0  0  0  0  0  0
  -22.3173  -14.5150   20.5843 N   0  0  0  0  0  0  0  0  0  0  0  0
  -29.3241  -20.3895   20.0260 N   0  0  0  0  0  0  0  0  0  0  0  0
  -23.6020  -12.9451   21.4882 N   0  0  0  0  0  0  0  0  0  0  0  0
  -29.0037  -19.9720   21.2626 N   0  0  0  0  0  0  0  0  0  0  0  0
  -23.4291  -27.2258   22.4728 N   0  0  0  0  0  0  0  0  0  0  0  0
  -27.2718  -16.5798   21.5843 N   0  0  0  0  0  0  0  0  0  0  0  0
  -28.5311  -20.7412   23.4525 N   0  0  0  0  0  0  0  0  0  0  0  0
  -29.3184  -24.5503   21.1576 N   0  0  0  0  0  0  0  0  0  0  0  0
  -20.0395  -27.6548   23.5009 N   0  0  0  0  0  0  0  0  0  0  0  0
  -26.1774  -29.0098   21.6229 N   0  0  0  0  0  0  0  0  0  0  0  0
  -26.1897  -14.7902   22.7522 N   0  0  0  0  0  0  0  0  0  0  0  0
  -28.9405  -27.8647   23.2770 N   0  3  0  0  0  0  0  0  0  0  0  0
  -28.7911  -23.6932   23.2182 O   0  0  0  0  0  0  0  0  0  0  0  0
  -20.9856  -26.6873   21.6059 O   0  0  0  0  0  0  0  0  0  0  0  0
  -23.7006  -29.4847   22.9826 O   0  0  0  0  0  0  0  0  0  0  0  0
  -27.2315  -27.0612   20.9380 O   0  0  0  0  0  0  0  0  0  0  0  0
  -26.3332  -16.9011   23.6639 O   0  0  0  0  0  0  0  0  0  0  0  0
  -30.6247  -24.9302   15.7554 O   0  0  0  0  0  0  0  0  0  0  0  0
  -23.7335  -21.2223   21.0875 O   0  0  0  0  0  0  0  0  0  1  0  0
  -27.5531  -29.4305   14.9085 F   0  0  0  0  0  0  0  0  0  0  0  0
  -30.4755  -26.9253   17.6633 F   0  0  0  0  0  0  0  0  0  0  0  0
  1  2  1  0  0  0  0
  1  5  2  0  0  0  0
  2  6  2  0  0  0  0
  3  8  2  0  0  0  0
  3 16  1  0  0  0  0
  4  9  1  0  0  0  0
  4 16  2  0  0  0  0
  5 18  1  0  0  0  0
  6 20  1  0  0  0  0
  7 10  2  0  0  0  0
  7 19  1  0  0  0  0
  8 22  1  0  0  0  0
  9 22  2  0  0  0  0
 10 23  1  0  0  0  0
 11 12  2  0  0  0  0
 11 24  1  0  0  0  0
 12 25  1  0  0  0  0
 13 21  1  0  0  0  0
 13 23  2  0  0  0  0
 14 25  2  0  0  0  0
 14 26  1  0  0  0  0
 15 65  2  0  0  0  0
 15 67  1  0  0  0  0
 16 27  1  0  0  0  0
 17 27  1  0  0  0  0
 17 30  2  0  0  0  0
 17 31  1  0  0  0  0
 18 20  2  0  0  0  0
 18 36  1  0  0  0  0
 19 21  2  0  0  0  0
 19 37  1  0  0  0  0
 20 45  1  0  0  0  0
 21 38  1  0  0  0  0
 22 82  1  0  0  0  0
 23 83  1  0  0  0  0
 24 26  2  0  0  0  0
 24 82  1  0  0  0  0
 25 84  1  0  0  0  0
 26 85  1  0  0  0  0
 27 66  2  0  0  0  0
 28 29  2  0  0  0  0
 28 56  1  0  0  0  0
 28 65  1  0  0  0  0
 29 57  1  0  0  0  0
 29 67  1  0  0  0  0
 30 68  1  0  0  0  0
 30 71  1  0  0  0  0
 31 72  1  0  0  0  0
 31 77  2  0  0  0  0
 32 46  1  0  0  0  0
 32 73  1  0  0  0  0
 32 78  2  0  0  0  0
 33 61  1  0  0  0  0
 33 69  1  0  0  0  0
 33 79  2  0  0  0  0
 34 62  1  0  0  0  0
 34 74  1  0  0  0  0
 34 80  2  0  0  0  0
 35 70  1  0  0  0  0
 35 75  1  0  0  0  0
 35 81  2  0  0  0  0
 36 39  1  0  0  0  0
 37 46  1  0  0  0  0
 38 69  1  0  0  0  0
 39 41  1  0  0  0  0
 40 42  1  0  0  0  0
 40 43  1  0  0  0  0
 41 45  1  0  0  0  0
 42 47  1  0  0  0  0
 43 70  1  0  0  0  0
 44 47  1  0  0  0  0
 44 70  1  0  0  0  0
 45 73  1  0  0  0  0
 46 69  1  0  0  0  0
 47 68  1  0  0  0  0
 48 62  1  0  0  0  0
 49 63  1  0  0  0  0
 50 63  1  0  0  0  0
 51 64  1  0  0  0  0
 52 64  1  0  0  0  0
 53 64  1  0  0  0  0
 54 67  1  0  0  0  0
 55 76  1  0  0  0  0
 56 58  1  0  0  0  0
 57 75  1  0  0  0  0
 58 59  1  0  0  0  0
 59 60  1  0  0  0  0
 60 83  1  0  0  0  0
 61 64  1  0  0  0  0
 61 74  1  0  0  0  0
 62 76  1  0  0  0  0
 63 75  1  0  0  0  0
 66 68  1  0  0  0  0
M  CHG  1  76   1
M  ISO  4  35 100  60 101  75 100  83 101
M  END
> <Batch ID>
0053

> <Smiles>
CNC(C)C(=O)NC(C(=O)N1Cc2cc([101O:1][101CH2:1]CCCc3ncn(C)c3C[100N:0](C(C)C)[100C:0](=O)N3CCCC(n4nc(-c5ccc(Oc6ccc(F)cc6F)cc5)c(C(N)=O)c4N)C3)ccc2CC1C(=O)NC1CCCc2ccccc21)C(C)(C)C

> <Shape>
0.218

> <Color>
0.066

> <Negative vol penalty>
0.000

$$$$

  -OEChem-04052317383D

 82 90  0     1  0  0  0  0  0999 V2000
  -24.6713  -11.1013   20.1877 C   0  0  0  0  0  0  0  0  0  0  0  0
  -23.9596  -12.2603   19.8953 C   0  0  0  0  0  0  0  0  0  0  0  0
  -30.0263  -25.9501   21.7708 C   0  0  0  0  0  0  0  0  0  0  0  0
  -30.4039  -28.2393   22.4446 C   0  0  0  0  0  0  0  0  0  0  0  0
  -25.8333  -11.1731   20.9548 C   0  0  0  0  0  0  0  0  0  0  0  0
  -24.4089  -13.4918   20.3708 C   0  0  0  0  0  0  0  0  0  0  0  0
  -23.9681  -18.9103   17.5510 C   0  0  0  0  0  0  0  0  0  0  0  0
  -31.0470  -25.5306   22.6238 C   0  0  0  0  0  0  0  0  0  0  0  0
  -31.4247  -27.8198   23.2977 C   0  0  0  0  0  0  0  0  0  0  0  0
  -23.0671  -19.9659   17.6833 C   0  0  0  0  0  0  0  0  0  0  0  0
  -33.3114  -23.8174   24.8937 C   0  0  0  0  0  0  0  0  0  0  0  0
  -33.0708  -22.6993   25.6921 C   0  0  0  0  0  0  0  0  0  0  0  0
  -24.5965  -21.0755   19.1829 C   0  0  0  0  0  0  0  0  0  0  0  0
  -31.2122  -23.8411   26.7309 C   0  0  0  0  0  0  0  0  0  0  0  0
  -19.7512  -23.5573   19.2810 C   0  0  0  0  0  0  0  0  0  0  0  0
  -19.5965  -25.1203   17.7351 C   0  0  0  0  0  0  0  0  0  0  0  0
  -29.7047  -27.3045   21.6811 C   0  0  0  0  0  0  0  0  0  0  0  0
  -28.5861  -27.5686   19.4037 C   0  0  0  0  0  0  0  0  0  0  0  0
  -26.3024  -12.4072   21.4319 C   0  0  0  0  0  0  0  0  0  0  0  0
  -25.1874  -18.9242   18.2434 C   0  0  0  0  0  0  0  0  0  0  0  0
  -25.5776  -13.5799   21.1461 C   0  0  0  0  0  0  0  0  0  0  0  0
  -25.5124  -20.0200   19.0557 C   0  0  0  0  0  0  0  0  0  0  0  0
  -31.7462  -26.4654   23.3873 C   0  0  0  0  0  0  0  0  0  0  0  0
  -23.3799  -21.0474   18.5016 C   0  0  0  0  0  0  0  0  0  0  0  0
  -32.5025  -24.9474   25.0139 C   0  0  0  0  0  0  0  0  0  0  0  0
  -32.0212  -22.7111   26.6107 C   0  0  0  0  0  0  0  0  0  0  0  0
  -31.4529  -24.9592   25.9325 C   0  0  0  0  0  0  0  0  0  0  0  0
  -28.6508  -27.7385   20.7997 C   0  0  0  0  0  0  0  0  0  0  0  0
  -20.4658  -23.2233   18.1548 C   0  0  0  0  0  0  0  0  0  0  0  0
  -27.3961  -28.1512   19.0417 C   0  0  0  0  0  0  0  0  0  0  0  0
  -29.5182  -26.9402   18.5138 C   0  0  0  0  0  0  0  0  0  0  0  0
  -26.5289  -17.0840   20.4611 C   0  0  0  0  0  0  0  0  0  0  0  0
  -29.0903  -19.0081   19.9518 C   0  0  0  0  0  0  0  0  0  0  0  0
  -30.2827  -22.0233   18.8871 C   0  0  0  0  0  0  0  0  0  0  0  0
  -22.2995  -29.1958   22.0056 C   0  0  0  0  0  0  0  0  0  0  0  0
  -27.5377  -12.4290   22.2969 C   0  0  0  0  0  0  0  0  0  0  0  0
  -26.1601  -17.7903   18.0691 C   0  0  0  0  0  0  0  0  0  0  0  0
  -26.8171  -20.0927   19.8046 C   0  0  0  0  0  0  0  0  0  0  0  0
  -28.1513  -13.8186   22.4476 C   0  0  0  0  0  0  0  0  0  0  0  0
  -24.3573  -31.5988   20.3723 C   0  0  0  0  0  0  0  0  0  0  0  0
  -27.0705  -14.8483   22.7611 C   0  0  0  0  0  0  0  0  0  0  0  0
  -25.6852  -30.8666   20.1707 C   0  0  0  0  0  0  0  0  0  0  0  0
  -23.6977  -31.2171   21.6956 C   0  0  0  0  0  0  0  0  0  0  0  0
  -24.8447  -29.0358   21.7005 C   0  0  0  0  0  0  0  0  0  0  0  0
  -26.0466  -14.9374   21.6231 C   0  0  1  0  0  0  0  0  0  0  0  0
  -27.1496  -17.6689   19.2240 C   0  0  1  0  0  0  0  0  0  0  0  0
  -25.5204  -29.3459   20.3539 C   0  0  2  0  0  0  0  0  0  0  0  0
  -32.4174  -23.3166   18.6261 C   0  0  0  0  0  0  0  0  0  0  0  0
  -17.0443  -24.7999   20.1496 C   0  0  0  0  0  0  0  0  0  0  0  0
  -29.1415  -19.5256   22.9584 C   0  0  0  0  0  0  0  0  0  0  0  0
  -30.6218  -21.4973   22.5233 C   0  0  0  0  0  0  0  0  0  0  0  0
  -31.3922  -19.2036   21.9168 C   0  0  0  0  0  0  0  0  0  0  0  0
  -29.9301  -22.2382   15.9565 C   0  0  0  0  0  0  0  0  0  0  0  0
  -21.2789  -21.9875   17.9036 C   0  0  0  0  0  0  0  0  0  1  0  0
  -20.3588  -26.7022   20.9754 C   0  0  0  0  0  0  0  0  0  0  0  0
  -19.0373  -25.9503   21.1909 C   0  0  0  0  0  0  0  0  0  0  0  0
  -21.0329  -27.0808   22.2911 C   0  0  0  0  0  0  0  0  0  0  0  0
  -29.5838  -20.3087   20.5382 C   0  0  1  0  0  0  0  0  0  0  0  0
  -31.4242  -22.3821   17.9529 C   0  0  2  0  0  0  0  0  0  0  0  0
  -18.3506  -25.5519   19.8666 C   0  0  1  0  0  0  0  0  0  0  0  0
  -30.1593  -20.1318   21.9717 C   0  0  0  0  0  0  0  0  0  0  0  0
  -20.3657  -24.2005   17.1963 N   0  0  0  0  0  0  0  0  0  0  0  0
  -27.5867  -28.3791   21.2910 N   0  0  0  0  0  0  0  0  0  0  0  0
  -19.2003  -24.7752   18.9974 N   0  0  0  0  0  0  0  0  0  0  0  0
  -26.8422  -28.6169   20.1978 N   0  0  0  0  0  0  0  0  0  0  0  0
  -27.7323  -18.9566   19.6066 N   0  0  0  0  0  0  0  0  0  0  0  0
  -23.5694  -29.7620   21.8061 N   0  0  0  0  0  0  0  0  0  0  0  0
  -26.7801  -28.3056   17.8505 N   0  0  0  0  0  0  0  0  0  0  0  0
  -30.5284  -27.7250   17.9413 N   0  0  0  0  0  0  0  0  0  0  0  0
  -26.5832  -15.7045   20.5194 N   0  0  0  0  0  0  0  0  0  0  0  0
  -30.5343  -20.8557   19.5760 N   0  0  0  0  0  0  0  0  0  0  0  0
  -22.2660  -27.8095   22.0929 N   0  0  0  0  0  0  0  0  0  0  0  0
  -30.9010  -23.0543   16.7301 N   0  3  0  0  0  0  0  0  0  0  0  0
  -29.4472  -25.7223   18.2219 O   0  0  0  0  0  0  0  0  0  0  0  0
  -26.0384  -17.8292   21.3012 O   0  0  0  0  0  0  0  0  0  0  0  0
  -29.8821  -18.0747   19.7987 O   0  0  0  0  0  0  0  0  0  0  0  0
  -29.2708  -22.7121   18.9977 O   0  0  0  0  0  0  0  0  0  0  0  0
  -21.2711  -29.8751   22.0938 O   0  0  0  0  0  0  0  0  0  0  0  0
  -32.7422  -26.0564   24.2199 O   0  0  0  0  0  0  0  0  0  0  0  0
  -22.5020  -22.0788   18.6329 O   0  0  0  0  0  0  0  0  0  1  0  0
  -31.7894  -21.6367   27.3763 F   0  0  0  0  0  0  0  0  0  0  0  0
  -30.6716  -26.0414   26.0517 F   0  0  0  0  0  0  0  0  0  0  0  0
  1  2  1  0  0  0  0
  1  5  2  0  0  0  0
  2  6  2  0  0  0  0
  3  8  2  0  0  0  0
  3 17  1  0  0  0  0
  4  9  1  0  0  0  0
  4 17  2  0  0  0  0
  5 19  1  0  0  0  0
  6 21  1  0  0  0  0
  7 10  2  0  0  0  0
  7 20  1  0  0  0  0
  8 23  1  0  0  0  0
  9 23  2  0  0  0  0
 10 24  1  0  0  0  0
 11 12  2  0  0  0  0
 11 25  1  0  0  0  0
 12 26  1  0  0  0  0
 13 22  1  0  0  0  0
 13 24  2  0  0  0  0
 14 26  2  0  0  0  0
 14 27  1  0  0  0  0
 15 29  2  0  0  0  0
 15 64  1  0  0  0  0
 16 62  2  0  0  0  0
 16 64  1  0  0  0  0
 17 28  1  0  0  0  0
 18 28  1  0  0  0  0
 18 30  2  0  0  0  0
 18 31  1  0  0  0  0
 19 21  2  0  0  0  0
 19 36  1  0  0  0  0
 20 22  2  0  0  0  0
 20 37  1  0  0  0  0
 21 45  1  0  0  0  0
 22 38  1  0  0  0  0
 23 79  1  0  0  0  0
 24 80  1  0  0  0  0
 25 27  2  0  0  0  0
 25 79  1  0  0  0  0
 26 81  1  0  0  0  0
 27 82  1  0  0  0  0
 28 63  2  0  0  0  0
 29 54  1  0  0  0  0
 29 62  1  0  0  0  0
 30 65  1  0  0  0  0
 30 68  1  0  0  0  0
 31 69  1  0  0  0  0
 31 74  2  0  0  0  0
 32 46  1  0  0  0  0
 32 70  1  0  0  0  0
 32 75  2  0  0  0  0
 33 58  1  0  0  0  0
 33 66  1  0  0  0  0
 33 76  2  0  0  0  0
 34 59  1  0  0  0  0
 34 71  1  0  0  0  0
 34 77  2  0  0  0  0
 35 67  1  0  0  0  0
 35 72  1  0  0  0  0
 35 78  2  0  0  0  0
 36 39  1  0  0  0  0
 37 46  1  0  0  0  0
 38 66  1  0  0  0  0
 39 41  1  0  0  0  0
 40 42  1  0  0  0  0
 40 43  1  0  0  0  0
 41 45  1  0  0  0  0
 42 47  1  0  0  0  0
 43 67  1  0  0  0  0
 44 47  1  0  0  0  0
 44 67  1  0  0  0  0
 45 70  1  0  0  0  0
 46 66  1  0  0  0  0
 47 65  1  0  0  0  0
 48 59  1  0  0  0  0
 49 60  1  0  0  0  0
 50 61  1  0  0  0  0
 51 61  1  0  0  0  0
 52 61  1  0  0  0  0
 53 73  1  0  0  0  0
 54 80  1  0  0  0  0
 55 56  1  0  0  0  0
 55 57  1  0  0  0  0
 56 60  1  0  0  0  0
 57 72  1  0  0  0  0
 58 61  1  0  0  0  0
 58 71  1  0  0  0  0
 59 73  1  0  0  0  0
 60 64  1  0  0  0  0
 63 65  1  0  0  0  0
M  CHG  1  73   1
M  ISO  4  35 100  54 101  72 100  80 101
M  END
> <Batch ID>
0053

> <Smiles>
CNC(C)C(=O)NC(C(=O)N1Cc2cc([101O:1][101CH2:1]c3cn(C(C)CCC[100NH:0][100C:0](=O)N4CCCC(n5nc(-c6ccc(Oc7ccc(F)cc7F)cc6)c(C(N)=O)c5N)C4)cn3)ccc2CC1C(=O)NC1CCCc2ccccc21)C(C)(C)C

> <Shape>
0.205

> <Color>
0.071

> <Negative vol penalty>
0.000

$$$$

  -OEChem-04052317383D

 80 88  0     1  0  0  0  0  0999 V2000
  -30.4170  -25.6312   17.6327 C   0  0  0  0  0  0  0  0  0  0  0  0
  -29.0274  -25.6367   17.7010 C   0  0  0  0  0  0  0  0  0  0  0  0
  -26.7410  -16.3951   20.9639 C   0  0  0  0  0  0  0  0  0  0  0  0
  -25.2190  -16.4815   19.0896 C   0  0  0  0  0  0  0  0  0  0  0  0
  -31.1681  -26.1217   18.7000 C   0  0  0  0  0  0  0  0  0  0  0  0
  -28.3883  -26.1318   18.8371 C   0  0  0  0  0  0  0  0  0  0  0  0
  -23.0714  -29.1641   19.0430 C   0  0  0  0  0  0  0  0  0  0  0  0
  -26.9616  -15.0392   20.7223 C   0  0  0  0  0  0  0  0  0  0  0  0
  -25.4397  -15.1255   18.8479 C   0  0  0  0  0  0  0  0  0  0  0  0
  -21.7697  -28.7565   19.3314 C   0  0  0  0  0  0  0  0  0  0  0  0
  -28.7782  -13.1535   18.5828 C   0  0  0  0  0  0  0  0  0  0  0  0
  -30.0951  -12.6950   18.6160 C   0  0  0  0  0  0  0  0  0  0  0  0
  -22.0582  -29.4731   21.6167 C   0  0  0  0  0  0  0  0  0  0  0  0
  -29.5225  -11.1807   20.4093 C   0  0  0  0  0  0  0  0  0  0  0  0
  -18.7920  -24.5432   19.7655 C   0  0  0  0  0  0  0  0  0  0  0  0
  -19.6662  -24.8045   21.7661 C   0  0  0  0  0  0  0  0  0  0  0  0
  -25.8697  -17.1163   20.1475 C   0  0  0  0  0  0  0  0  0  0  0  0
  -26.3592  -19.6037   19.8635 C   0  0  0  0  0  0  0  0  0  0  0  0
  -30.5377  -26.6320   19.8458 C   0  0  0  0  0  0  0  0  0  0  0  0
  -23.8814  -29.7201   20.0436 C   0  0  0  0  0  0  0  0  0  0  0  0
  -29.1317  -26.6284   19.9213 C   0  0  0  0  0  0  0  0  0  0  0  0
  -23.3690  -29.8893   21.3377 C   0  0  0  0  0  0  0  0  0  0  0  0
  -19.6363  -23.9280   20.7090 C   0  0  0  0  0  0  0  0  0  0  0  0
  -26.3110  -14.4044   19.6643 C   0  0  0  0  0  0  0  0  0  0  0  0
  -21.2639  -28.9083   20.6192 C   0  0  0  0  0  0  0  0  0  0  0  0
  -27.8334  -12.6257   19.4629 C   0  0  0  0  0  0  0  0  0  0  0  0
  -30.4673  -11.7086   19.5293 C   0  0  0  0  0  0  0  0  0  0  0  0
  -28.2056  -11.6392   20.3761 C   0  0  0  0  0  0  0  0  0  0  0  0
  -25.6409  -18.5168   20.3970 C   0  0  0  0  0  0  0  0  0  0  0  0
  -25.7554  -20.7127   20.4039 C   0  0  0  0  0  0  0  0  0  0  0  0
  -27.4727  -19.6103   18.9603 C   0  0  0  0  0  0  0  0  0  0  0  0
  -26.6341  -28.9083   21.4101 C   0  0  0  0  0  0  0  0  0  0  0  0
  -26.3166  -31.7926   22.8600 C   0  0  0  0  0  0  0  0  0  0  0  0
  -24.2491  -34.3018   23.8976 C   0  0  0  0  0  0  0  0  0  0  0  0
  -20.0932  -21.2333   22.6857 C   0  0  0  0  0  0  0  0  0  0  0  0
  -31.3925  -27.1079   20.9936 C   0  0  0  0  0  0  0  0  0  0  0  0
  -25.2743  -30.1794   19.7097 C   0  0  0  0  0  0  0  0  0  0  0  0
  -24.1909  -30.4993   22.4426 C   0  0  0  0  0  0  0  0  0  0  0  0
  -30.6325  -27.9604   22.0065 C   0  0  0  0  0  0  0  0  0  0  0  0
  -23.3169  -22.1637   24.2489 C   0  0  0  0  0  0  0  0  0  0  0  0
  -29.3008  -27.3069   22.3619 C   0  0  0  0  0  0  0  0  0  0  0  0
  -24.3278  -21.3634   23.4292 C   0  0  0  0  0  0  0  0  0  0  0  0
  -21.9527  -21.4818   24.2894 C   0  0  0  0  0  0  0  0  0  0  0  0
  -22.4040  -20.3733   22.1257 C   0  0  0  0  0  0  0  0  0  0  0  0
  -28.4014  -27.1800   21.1264 C   0  0  1  0  0  0  0  0  0  0  0  0
  -26.1856  -30.2598   20.9305 C   0  0  1  0  0  0  0  0  0  0  0  0
  -23.7762  -21.0565   22.0261 C   0  0  2  0  0  0  0  0  0  0  0  0
  -24.2760  -36.5115   25.0866 C   0  0  0  0  0  0  0  0  0  0  0  0
  -26.6691  -30.3511   25.5260 C   0  0  0  0  0  0  0  0  0  0  0  0
  -25.7552  -32.3839   26.6666 C   0  0  0  0  0  0  0  0  0  0  0  0
  -27.8716  -32.5372   25.3551 C   0  0  0  0  0  0  0  0  0  0  0  0
  -18.4428  -21.0692   20.8612 C   0  0  0  0  0  0  0  0  0  0  0  0
  -23.1622  -35.7168   21.5364 C   0  0  0  0  0  0  0  0  0  0  0  0
  -20.3298  -22.6354   20.5927 C   0  0  0  0  0  0  0  0  0  0  0  0
  -18.5743  -27.0785   22.2323 C   0  0  0  0  0  0  0  0  0  0  0  0
  -19.7349  -28.0675   22.2351 C   0  0  0  0  0  0  0  0  0  1  0  0
  -25.6724  -32.2837   24.1339 C   0  0  1  0  0  0  0  0  0  0  0  0
  -24.3361  -35.8090   23.7391 C   0  0  2  0  0  0  0  0  0  0  0  0
  -26.4770  -31.8757   25.4003 C   0  0  0  0  0  0  0  0  0  0  0  0
  -18.3194  -25.7196   20.1860 N   0  0  0  0  0  0  0  0  0  0  0  0
  -24.6562  -18.9006   21.2137 N   0  0  0  0  0  0  0  0  0  0  0  0
  -18.8687  -25.8505   21.4056 N   0  0  0  0  0  0  0  0  0  0  0  0
  -24.7514  -20.2410   21.1975 N   0  0  0  0  0  0  0  0  0  0  0  0
  -25.5490  -30.9269   22.0681 N   0  0  0  0  0  0  0  0  0  0  0  0
  -21.4718  -21.1624   22.9448 N   0  0  0  0  0  0  0  0  0  0  0  0
  -25.9906  -22.0355   20.2729 N   0  0  0  0  0  0  0  0  0  0  0  0
  -27.9685  -18.3821   18.5020 N   0  0  0  0  0  0  0  0  0  0  0  0
  -27.7936  -28.4549   20.8107 N   0  0  0  0  0  0  0  0  0  0  0  0
  -25.4984  -33.7234   23.9747 N   0  0  0  0  0  0  0  0  0  0  0  0
  -19.7042  -21.5767   21.3821 N   0  0  0  0  0  0  0  0  0  0  0  0
  -23.2108  -36.3073   22.8987 N   0  3  0  0  0  0  0  0  0  0  0  0
  -28.0223  -20.6731   18.5839 O   0  0  0  0  0  0  0  0  0  0  0  0
  -25.9776  -28.3210   22.2620 O   0  0  0  0  0  0  0  0  0  0  0  0
  -27.4560  -32.1692   22.5744 O   0  0  0  0  0  0  0  0  0  0  0  0
  -23.1798  -33.6983   23.9516 O   0  0  0  0  0  0  0  0  0  0  0  0
  -19.2577  -21.0121   23.5717 O   0  0  0  0  0  0  0  0  0  0  0  0
  -26.5262  -13.0813   19.4281 O   0  0  0  0  0  0  0  0  0  0  0  0
  -19.9939  -28.5107   20.9036 O   0  0  0  0  0  0  0  0  0  1  0  0
  -31.7316  -11.2673   19.5600 F   0  0  0  0  0  0  0  0  0  0  0  0
  -27.3022  -11.1274   21.2233 F   0  0  0  0  0  0  0  0  0  0  0  0
  1  2  1  0  0  0  0
  1  5  2  0  0  0  0
  2  6  2  0  0  0  0
  3  8  2  0  0  0  0
  3 17  1  0  0  0  0
  4  9  1  0  0  0  0
  4 17  2  0  0  0  0
  5 19  1  0  0  0  0
  6 21  1  0  0  0  0
  7 10  2  0  0  0  0
  7 20  1  0  0  0  0
  8 24  1  0  0  0  0
  9 24  2  0  0  0  0
 10 25  1  0  0  0  0
 11 12  2  0  0  0  0
 11 26  1  0  0  0  0
 12 27  1  0  0  0  0
 13 22  1  0  0  0  0
 13 25  2  0  0  0  0
 14 27  2  0  0  0  0
 14 28  1  0  0  0  0
 15 23  1  0  0  0  0
 15 60  2  0  0  0  0
 16 23  2  0  0  0  0
 16 62  1  0  0  0  0
 17 29  1  0  0  0  0
 18 29  1  0  0  0  0
 18 30  2  0  0  0  0
 18 31  1  0  0  0  0
 19 21  2  0  0  0  0
 19 36  1  0  0  0  0
 20 22  2  0  0  0  0
 20 37  1  0  0  0  0
 21 45  1  0  0  0  0
 22 38  1  0  0  0  0
 23 54  1  0  0  0  0
 24 77  1  0  0  0  0
 25 78  1  0  0  0  0
 26 28  2  0  0  0  0
 26 77  1  0  0  0  0
 27 79  1  0  0  0  0
 28 80  1  0  0  0  0
 29 61  2  0  0  0  0
 30 63  1  0  0  0  0
 30 66  1  0  0  0  0
 31 67  1  0  0  0  0
 31 72  2  0  0  0  0
 32 46  1  0  0  0  0
 32 68  1  0  0  0  0
 32 73  2  0  0  0  0
 33 57  1  0  0  0  0
 33 64  1  0  0  0  0
 33 74  2  0  0  0  0
 34 58  1  0  0  0  0
 34 69  1  0  0  0  0
 34 75  2  0  0  0  0
 35 65  1  0  0  0  0
 35 70  1  0  0  0  0
 35 76  2  0  0  0  0
 36 39  1  0  0  0  0
 37 46  1  0  0  0  0
 38 64  1  0  0  0  0
 39 41  1  0  0  0  0
 40 42  1  0  0  0  0
 40 43  1  0  0  0  0
 41 45  1  0  0  0  0
 42 47  1  0  0  0  0
 43 65  1  0  0  0  0
 44 47  1  0  0  0  0
 44 65  1  0  0  0  0
 45 68  1  0  0  0  0
 46 64  1  0  0  0  0
 47 63  1  0  0  0  0
 48 58  1  0  0  0  0
 49 59  1  0  0  0  0
 50 59  1  0  0  0  0
 51 59  1  0  0  0  0
 52 70  1  0  0  0  0
 53 71  1  0  0  0  0
 54 70  1  0  0  0  0
 55 56  1  0  0  0  0
 55 62  1  0  0  0  0
 56 78  1  0  0  0  0
 57 59  1  0  0  0  0
 57 69  1  0  0  0  0
 58 71  1  0  0  0  0
 60 62  1  0  0  0  0
 61 63  1  0  0  0  0
M  CHG  1  71   1
M  ISO  4  35 100  56 101  70 100  78 101
M  END
> <Batch ID>
0053

> <Smiles>
CNC(C)C(=O)NC(C(=O)N1Cc2cc([101O:1][101CH2:1]Cn3cc(C[100N:0](C)[100C:0](=O)N4CCCC(n5nc(-c6ccc(Oc7ccc(F)cc7F)cc6)c(C(N)=O)c5N)C4)cn3)ccc2CC1C(=O)NC1CCCc2ccccc21)C(C)(C)C

> <Shape>
0.300

> <Color>
0.069

> <Negative vol penalty>
0.000

$$$$

  -OEChem-04052317383D

 84 92  0     1  0  0  0  0  0999 V2000
  -18.5188  -32.6528   20.2582 C   0  0  0  0  0  0  0  0  0  0  0  0
  -19.7765  -32.2575   19.8140 C   0  0  0  0  0  0  0  0  0  0  0  0
  -26.2587  -14.7503   22.6056 C   0  0  0  0  0  0  0  0  0  0  0  0
  -25.7760  -14.3778   20.2678 C   0  0  0  0  0  0  0  0  0  0  0  0
  -18.1336  -32.3980   21.5738 C   0  0  0  0  0  0  0  0  0  0  0  0
  -20.6502  -31.6081   20.6855 C   0  0  0  0  0  0  0  0  0  0  0  0
  -24.6651  -27.2054   19.2704 C   0  0  0  0  0  0  0  0  0  0  0  0
  -25.2702  -13.8308   22.9562 C   0  0  0  0  0  0  0  0  0  0  0  0
  -24.7875  -13.4583   20.6184 C   0  0  0  0  0  0  0  0  0  0  0  0
  -26.0356  -27.2323   19.0157 C   0  0  0  0  0  0  0  0  0  0  0  0
  -24.6294  -10.2361   21.6250 C   0  0  0  0  0  0  0  0  0  0  0  0
  -24.5885   -9.0316   20.9229 C   0  0  0  0  0  0  0  0  0  0  0  0
  -26.4680  -26.6363   21.3129 C   0  0  0  0  0  0  0  0  0  0  0  0
  -22.3441   -9.5376   20.1855 C   0  0  0  0  0  0  0  0  0  0  0  0
  -31.7682  -25.4491   16.5920 C   0  0  0  0  0  0  0  0  0  0  0  0
  -26.5116  -15.0238   21.2614 C   0  0  0  0  0  0  0  0  0  0  0  0
  -28.8939  -15.7091   20.6594 C   0  0  0  0  0  0  0  0  0  0  0  0
  -18.9993  -31.7366   22.4590 C   0  0  0  0  0  0  0  0  0  0  0  0
  -24.1853  -26.9039   20.5531 C   0  0  0  0  0  0  0  0  0  0  0  0
  -20.2767  -31.3455   22.0145 C   0  0  0  0  0  0  0  0  0  0  0  0
  -25.0909  -26.6037   21.5806 C   0  0  0  0  0  0  0  0  0  0  0  0
  -24.5346  -13.1848   21.9626 C   0  0  0  0  0  0  0  0  0  0  0  0
  -26.9373  -26.9505   20.0377 C   0  0  0  0  0  0  0  0  0  0  0  0
  -23.5276  -11.0914   21.6075 C   0  0  0  0  0  0  0  0  0  0  0  0
  -23.4459   -8.6823   20.2031 C   0  0  0  0  0  0  0  0  0  0  0  0
  -22.3850  -10.7421   20.8877 C   0  0  0  0  0  0  0  0  0  0  0  0
  -27.5322  -15.9740   20.8985 C   0  0  0  0  0  0  0  0  0  0  0  0
  -31.1630  -24.7070   17.5666 C   0  0  0  0  0  0  0  0  0  0  0  0
  -29.4333  -16.9343   20.3519 C   0  0  0  0  0  0  0  0  0  0  0  0
  -32.8676  -23.5366   16.7761 C   0  0  0  0  0  0  0  0  0  0  0  0
  -29.6075  -14.4666   20.7104 C   0  0  0  0  0  0  0  0  0  0  0  0
  -22.4741  -28.4627   22.7315 C   0  0  0  0  0  0  0  0  0  0  0  0
  -22.5660  -25.6122   24.2769 C   0  0  0  0  0  0  0  0  0  0  0  0
  -24.1501  -22.6282   24.7598 C   0  0  0  0  0  0  0  0  0  0  0  0
  -28.8220  -21.6852   17.2906 C   0  0  0  0  0  0  0  0  0  0  0  0
  -18.5566  -31.5254   23.8852 C   0  0  0  0  0  0  0  0  0  0  0  0
  -22.7032  -26.8529   20.8049 C   0  0  0  0  0  0  0  0  0  0  0  0
  -24.6264  -26.2543   22.9701 C   0  0  0  0  0  0  0  0  0  0  0  0
  -19.3982  -30.4985   24.6385 C   0  0  0  0  0  0  0  0  0  0  0  0
  -27.5180  -21.5889   20.7536 C   0  0  0  0  0  0  0  0  0  0  0  0
  -20.8843  -30.7532   24.4073 C   0  0  0  0  0  0  0  0  0  0  0  0
  -27.4543  -20.0903   21.0439 C   0  0  0  0  0  0  0  0  0  0  0  0
  -27.3558  -21.8858   19.2659 C   0  0  0  0  0  0  0  0  0  0  0  0
  -28.2540  -19.6558   18.6876 C   0  0  0  0  0  0  0  0  0  0  0  0
  -21.2430  -30.6165   22.9227 C   0  0  1  0  0  0  0  0  0  0  0  0
  -22.3403  -27.0374   22.2751 C   0  0  1  0  0  0  0  0  0  0  0  0
  -28.4607  -19.3193   20.1721 C   0  0  2  0  0  0  0  0  0  0  0  0
  -33.8640  -22.4604   16.5492 C   0  0  0  0  0  0  0  0  0  0  0  0
  -24.0108  -20.5205   26.1148 C   0  0  0  0  0  0  0  0  0  0  0  0
  -32.7235  -22.2171   19.5520 C   0  0  0  0  0  0  0  0  0  0  0  0
  -23.6437  -27.1071   26.7087 C   0  0  0  0  0  0  0  0  0  0  0  0
  -24.3663  -24.9048   27.6553 C   0  0  0  0  0  0  0  0  0  0  0  0
  -21.9475  -25.3461   27.2341 C   0  0  0  0  0  0  0  0  0  0  0  0
  -30.4658  -21.2950   15.4947 C   0  0  0  0  0  0  0  0  0  0  0  0
  -23.8475  -20.9538   22.3383 C   0  0  0  0  0  0  0  0  0  0  0  0
  -29.9657  -25.0166   18.4293 C   0  0  0  0  0  0  0  0  0  0  0  0
  -30.3178  -25.7185   19.7427 C   0  0  0  0  0  0  0  0  0  0  0  0
  -31.2306  -21.1326   17.8345 C   0  0  0  0  0  0  0  0  0  0  0  0
  -29.0955  -26.1038   20.5679 C   0  0  0  0  0  0  0  0  0  1  0  0
  -23.4978  -24.9659   25.2735 C   0  0  1  0  0  0  0  0  0  0  0  0
  -23.6237  -21.2053   24.8132 C   0  0  2  0  0  0  0  0  0  0  0  0
  -31.5678  -22.4390   18.5704 C   0  0  2  0  0  0  0  0  0  0  0  0
  -23.3730  -25.5894   26.6923 C   0  0  0  0  0  0  0  0  0  0  0  0
  -27.2254  -17.2661   20.7555 N   0  0  0  0  0  0  0  0  0  0  0  0
  -31.8636  -23.5286   17.6591 N   0  0  0  0  0  0  0  0  0  0  0  0
  -28.4020  -17.8240   20.4232 N   0  0  0  0  0  0  0  0  0  0  0  0
  -32.8197  -24.7007   16.1205 N   0  3  0  0  0  0  0  0  0  0  0  0
  -23.1678  -26.2237   23.1680 N   0  0  0  0  0  0  0  0  0  0  0  0
  -28.2951  -21.1076   18.4575 N   0  0  0  0  0  0  0  0  0  0  0  0
  -30.6843  -17.3266   20.0304 N   0  0  0  0  0  0  0  0  0  0  0  0
  -28.9003  -13.3030   21.0426 N   0  0  0  0  0  0  0  0  0  0  0  0
  -21.3329  -29.2208   22.5509 N   0  0  0  0  0  0  0  0  0  0  0  0
  -23.2201  -23.5346   25.2233 N   0  0  0  0  0  0  0  0  0  0  0  0
  -30.1121  -21.2888   16.9071 N   0  0  0  0  0  0  0  0  0  0  0  0
  -24.1726  -20.4071   23.6808 N   0  3  0  0  0  0  0  0  0  0  0  0
  -30.8393  -14.3929   20.4847 O   0  0  0  0  0  0  0  0  0  0  0  0
  -23.5336  -28.8459   23.2133 O   0  0  0  0  0  0  0  0  0  0  0  0
  -21.3487  -25.5695   24.4714 O   0  0  0  0  0  0  0  0  0  0  0  0
  -25.2753  -22.9072   24.3516 O   0  0  0  0  0  0  0  0  0  0  0  0
  -28.1799  -22.5155   16.6346 O   0  0  0  0  0  0  0  0  0  0  0  0
  -23.5701  -12.2873   22.3044 O   0  0  0  0  0  0  0  0  0  0  0  0
  -28.2755  -26.9767   19.7920 O   0  0  0  0  0  0  0  0  0  1  0  0
  -23.4073   -7.5263   19.5276 F   0  0  0  0  0  0  0  0  0  0  0  0
  -21.3239  -11.5603   20.8661 F   0  0  0  0  0  0  0  0  0  0  0  0
  1  2  1  0  0  0  0
  1  5  2  0  0  0  0
  2  6  2  0  0  0  0
  3  8  2  0  0  0  0
  3 16  1  0  0  0  0
  4  9  1  0  0  0  0
  4 16  2  0  0  0  0
  5 18  1  0  0  0  0
  6 20  1  0  0  0  0
  7 10  2  0  0  0  0
  7 19  1  0  0  0  0
  8 22  1  0  0  0  0
  9 22  2  0  0  0  0
 10 23  1  0  0  0  0
 11 12  2  0  0  0  0
 11 24  1  0  0  0  0
 12 25  1  0  0  0  0
 13 21  1  0  0  0  0
 13 23  2  0  0  0  0
 14 25  2  0  0  0  0
 14 26  1  0  0  0  0
 15 28  2  0  0  0  0
 15 67  1  0  0  0  0
 16 27  1  0  0  0  0
 17 27  1  0  0  0  0
 17 29  2  0  0  0  0
 17 31  1  0  0  0  0
 18 20  2  0  0  0  0
 18 36  1  0  0  0  0
 19 21  2  0  0  0  0
 19 37  1  0  0  0  0
 20 45  1  0  0  0  0
 21 38  1  0  0  0  0
 22 81  1  0  0  0  0
 23 82  1  0  0  0  0
 24 26  2  0  0  0  0
 24 81  1  0  0  0  0
 25 83  1  0  0  0  0
 26 84  1  0  0  0  0
 27 64  2  0  0  0  0
 28 56  1  0  0  0  0
 28 65  1  0  0  0  0
 29 66  1  0  0  0  0
 29 70  1  0  0  0  0
 30 48  1  0  0  0  0
 30 65  1  0  0  0  0
 30 67  2  0  0  0  0
 31 71  1  0  0  0  0
 31 76  2  0  0  0  0
 32 46  1  0  0  0  0
 32 72  1  0  0  0  0
 32 77  2  0  0  0  0
 33 60  1  0  0  0  0
 33 68  1  0  0  0  0
 33 78  2  0  0  0  0
 34 61  1  0  0  0  0
 34 73  1  0  0  0  0
 34 79  2  0  0  0  0
 35 69  1  0  0  0  0
 35 74  1  0  0  0  0
 35 80  2  0  0  0  0
 36 39  1  0  0  0  0
 37 46  1  0  0  0  0
 38 68  1  0  0  0  0
 39 41  1  0  0  0  0
 40 42  1  0  0  0  0
 40 43  1  0  0  0  0
 41 45  1  0  0  0  0
 42 47  1  0  0  0  0
 43 69  1  0  0  0  0
 44 47  1  0  0  0  0
 44 69  1  0  0  0  0
 45 72  1  0  0  0  0
 46 68  1  0  0  0  0
 47 66  1  0  0  0  0
 49 61  1  0  0  0  0
 50 62  1  0  0  0  0
 51 63  1  0  0  0  0
 52 63  1  0  0  0  0
 53 63  1  0  0  0  0
 54 74  1  0  0  0  0
 55 75  1  0  0  0  0
 56 57  1  0  0  0  0
 57 59  1  0  0  0  0
 58 62  1  0  0  0  0
 58 74  1  0  0  0  0
 59 82  1  0  0  0  0
 60 63  1  0  0  0  0
 60 73  1  0  0  0  0
 61 75  1  0  0  0  0
 62 65  1  0  0  0  0
 64 66  1  0  0  0  0
M  CHG  2  67   1  75   1
M  ISO  4  35 100  59 101  74 100  82 101
M  END
> <Batch ID>
0053

> <Smiles>
CNC(C)C(=O)NC(C(=O)N1Cc2cc([101O:1][101CH2:1]CCc3cnc(C)n3C(C)C[100N:0](C)[100C:0](=O)N3CCCC(n4nc(-c5ccc(Oc6ccc(F)cc6F)cc5)c(C(N)=O)c4N)C3)ccc2CC1C(=O)NC1CCCc2ccccc21)C(C)(C)C

> <Shape>
0.216

> <Color>
0.092

> <Negative vol penalty>
0.000

$$$$

  -OEChem-04052317383D

 83 91  0     1  0  0  0  0  0999 V2000
  -17.2220  -28.1457   23.8222 C   0  0  0  0  0  0  0  0  0  0  0  0
  -17.9956  -27.1963   23.1622 C   0  0  0  0  0  0  0  0  0  0  0  0
  -24.5322   -9.6255   21.6783 C   0  0  0  0  0  0  0  0  0  0  0  0
  -24.5387  -10.9979   23.6666 C   0  0  0  0  0  0  0  0  0  0  0  0
  -17.5765  -29.4930   23.7665 C   0  0  0  0  0  0  0  0  0  0  0  0
  -19.1235  -27.5938   22.4451 C   0  0  0  0  0  0  0  0  0  0  0  0
  -24.3656  -24.4914   21.8117 C   0  0  0  0  0  0  0  0  0  0  0  0
  -24.2678   -8.4988   22.4568 C   0  0  0  0  0  0  0  0  0  0  0  0
  -24.2743   -9.8711   24.4452 C   0  0  0  0  0  0  0  0  0  0  0  0
  -24.8551  -23.6749   20.7932 C   0  0  0  0  0  0  0  0  0  0  0  0
  -23.2334   -5.3186   23.8820 C   0  0  0  0  0  0  0  0  0  0  0  0
  -22.2519   -4.4354   23.4324 C   0  0  0  0  0  0  0  0  0  0  0  0
  -26.0664  -25.5505   19.8799 C   0  0  0  0  0  0  0  0  0  0  0  0
  -20.6132   -6.2081   23.5278 C   0  0  0  0  0  0  0  0  0  0  0  0
  -24.6677  -10.8751   22.2832 C   0  0  0  0  0  0  0  0  0  0  0  0
  -24.0011  -12.9032   20.8867 C   0  0  0  0  0  0  0  0  0  0  0  0
  -18.7147  -29.9061   23.0563 C   0  0  0  0  0  0  0  0  0  0  0  0
  -24.7147  -25.8484   21.8658 C   0  0  0  0  0  0  0  0  0  0  0  0
  -19.4927  -28.9480   22.3787 C   0  0  0  0  0  0  0  0  0  0  0  0
  -25.5820  -26.3815   20.9016 C   0  0  0  0  0  0  0  0  0  0  0  0
  -24.1388   -8.6215   23.8402 C   0  0  0  0  0  0  0  0  0  0  0  0
  -25.7033  -24.2050   19.8254 C   0  0  0  0  0  0  0  0  0  0  0  0
  -22.9049   -6.6465   24.1546 C   0  0  0  0  0  0  0  0  0  0  0  0
  -20.9418   -4.8802   23.2553 C   0  0  0  0  0  0  0  0  0  0  0  0
  -21.5947   -7.0913   23.9775 C   0  0  0  0  0  0  0  0  0  0  0  0
  -24.9413  -12.0393   21.4796 C   0  0  0  0  0  0  0  0  0  0  0  0
  -24.7615  -13.8438   20.2360 C   0  0  0  0  0  0  0  0  0  0  0  0
  -30.3972  -23.2301   19.1239 C   0  0  0  0  0  0  0  0  0  0  0  0
  -28.8046  -22.0470   18.4751 C   0  0  0  0  0  0  0  0  0  0  0  0
  -22.5684  -12.8593   20.9211 C   0  0  0  0  0  0  0  0  0  0  0  0
  -23.1076  -28.5862   21.7048 C   0  0  0  0  0  0  0  0  0  0  0  0
  -26.0019  -29.8753   22.4002 C   0  0  0  0  0  0  0  0  0  0  0  0
  -29.4000  -29.5622   22.3522 C   0  0  0  0  0  0  0  0  0  0  0  0
  -29.0916  -17.3623   20.1100 C   0  0  0  0  0  0  0  0  0  0  0  0
  -19.0312  -31.3790   22.9854 C   0  0  0  0  0  0  0  0  0  0  0  0
  -24.1996  -26.7096   22.9863 C   0  0  0  0  0  0  0  0  0  0  0  0
  -26.0033  -27.8273   20.9267 C   0  0  0  0  0  0  0  0  0  0  0  0
  -20.4530  -31.6746   22.5148 C   0  0  0  0  0  0  0  0  0  0  0  0
  -29.7229  -13.9635   19.2578 C   0  0  0  0  0  0  0  0  0  0  0  0
  -20.7945  -30.8351   21.2878 C   0  0  0  0  0  0  0  0  0  0  0  0
  -28.4608  -13.2309   19.7165 C   0  0  0  0  0  0  0  0  0  0  0  0
  -30.0936  -15.0989   20.2093 C   0  0  0  0  0  0  0  0  0  0  0  0
  -27.7487  -15.3326   20.9307 C   0  0  0  0  0  0  0  0  0  0  0  0
  -20.7374  -29.3372   21.6109 C   0  0  1  0  0  0  0  0  0  0  0  0
  -24.2096  -28.1975   22.6494 C   0  0  1  0  0  0  0  0  0  0  0  0
  -27.3032  -14.2146   19.9726 C   0  0  2  0  0  0  0  0  0  0  0  0
  -31.1433  -24.2554   19.8628 C   0  0  0  0  0  0  0  0  0  0  0  0
  -31.5006  -30.7960   22.9545 C   0  0  0  0  0  0  0  0  0  0  0  0
  -26.9515  -21.4756   16.7623 C   0  0  0  0  0  0  0  0  0  0  0  0
  -25.6654  -31.6455   19.9378 C   0  0  0  0  0  0  0  0  0  0  0  0
  -28.1177  -32.1388   20.0434 C   0  0  0  0  0  0  0  0  0  0  0  0
  -26.6308  -32.8051   21.9322 C   0  0  0  0  0  0  0  0  0  0  0  0
  -30.1260  -20.6576   16.8360 C   0  0  0  0  0  0  0  0  0  0  0  0
  -30.2191  -27.4650   24.2730 C   0  0  0  0  0  0  0  0  0  0  0  0
  -27.5133  -19.8513   18.6148 C   0  0  0  0  0  0  0  0  0  0  0  0
  -27.9453  -19.5627   20.0543 C   0  0  0  0  0  0  0  0  0  0  0  0
  -26.3622  -22.0275   19.1324 C   0  0  0  0  0  0  0  0  0  1  0  0
  -27.1788  -30.3609   21.5888 C   0  0  1  0  0  0  0  0  0  0  0  0
  -30.4489  -29.8024   23.4230 C   0  0  2  0  0  0  0  0  0  0  0  0
  -27.4441  -21.3648   18.2274 C   0  0  1  0  0  0  0  0  0  0  0  0
  -26.8889  -31.7108   20.8737 C   0  0  0  0  0  0  0  0  0  0  0  0
  -26.2027  -12.3991   21.2277 N   0  0  0  0  0  0  0  0  0  0  0  0
  -29.0589  -23.0302   19.3071 N   0  0  0  0  0  0  0  0  0  0  0  0
  -30.9870  -22.4325   18.2309 N   0  0  0  0  0  0  0  0  0  0  0  0
  -26.0604  -13.4994   20.4693 N   0  0  0  0  0  0  0  0  0  0  0  0
  -29.9466  -21.6856   17.8309 N   0  0  0  0  0  0  0  0  0  0  0  0
  -25.4681  -28.6303   22.0385 N   0  0  0  0  0  0  0  0  0  0  0  0
  -28.9533  -15.9967   20.4084 N   0  0  0  0  0  0  0  0  0  0  0  0
  -24.4391  -14.9236   19.4926 N   0  0  0  0  0  0  0  0  0  0  0  0
  -21.9486  -11.8252   21.6359 N   0  0  0  0  0  0  0  0  0  0  0  0
  -21.9248  -28.9298   22.3311 N   0  0  0  0  0  0  0  0  0  0  0  0
  -28.3157  -30.4007   22.5022 N   0  0  0  0  0  0  0  0  0  0  0  0
  -27.9609  -18.1417   20.3212 N   0  0  0  0  0  0  0  0  0  0  0  0
  -31.1322  -28.5254   23.7743 N   0  3  0  0  0  0  0  0  0  0  0  0
  -21.8588  -13.7023   20.3217 O   0  0  0  0  0  0  0  0  0  0  0  0
  -23.3156  -28.5765   20.4971 O   0  0  0  0  0  0  0  0  0  0  0  0
  -25.5767  -30.5715   23.3254 O   0  0  0  0  0  0  0  0  0  0  0  0
  -29.5312  -28.7180   21.4686 O   0  0  0  0  0  0  0  0  0  0  0  0
  -30.1432  -17.8497   19.6817 O   0  0  0  0  0  0  0  0  0  0  0  0
  -23.8806   -7.5223   24.6002 O   0  0  0  0  0  0  0  0  0  0  0  0
  -26.1820  -23.4104   18.8298 O   0  0  0  0  0  0  0  0  0  1  0  0
  -19.9996   -4.0323   22.8220 F   0  0  0  0  0  0  0  0  0  0  0  0
  -21.2733   -8.3662   24.2365 F   0  0  0  0  0  0  0  0  0  0  0  0
  1  2  1  0  0  0  0
  1  5  2  0  0  0  0
  2  6  2  0  0  0  0
  3  8  2  0  0  0  0
  3 15  1  0  0  0  0
  4  9  1  0  0  0  0
  4 15  2  0  0  0  0
  5 17  1  0  0  0  0
  6 19  1  0  0  0  0
  7 10  2  0  0  0  0
  7 18  1  0  0  0  0
  8 21  1  0  0  0  0
  9 21  2  0  0  0  0
 10 22  1  0  0  0  0
 11 12  2  0  0  0  0
 11 23  1  0  0  0  0
 12 24  1  0  0  0  0
 13 20  1  0  0  0  0
 13 22  2  0  0  0  0
 14 24  2  0  0  0  0
 14 25  1  0  0  0  0
 15 26  1  0  0  0  0
 16 26  1  0  0  0  0
 16 27  2  0  0  0  0
 16 30  1  0  0  0  0
 17 19  2  0  0  0  0
 17 35  1  0  0  0  0
 18 20  2  0  0  0  0
 18 36  1  0  0  0  0
 19 44  1  0  0  0  0
 20 37  1  0  0  0  0
 21 80  1  0  0  0  0
 22 81  1  0  0  0  0
 23 25  2  0  0  0  0
 23 80  1  0  0  0  0
 24 82  1  0  0  0  0
 25 83  1  0  0  0  0
 26 62  2  0  0  0  0
 27 65  1  0  0  0  0
 27 69  1  0  0  0  0
 28 47  1  0  0  0  0
 28 63  1  0  0  0  0
 28 64  2  0  0  0  0
 29 60  1  0  0  0  0
 29 63  2  0  0  0  0
 29 66  1  0  0  0  0
 30 70  1  0  0  0  0
 30 75  2  0  0  0  0
 31 45  1  0  0  0  0
 31 71  1  0  0  0  0
 31 76  2  0  0  0  0
 32 58  1  0  0  0  0
 32 67  1  0  0  0  0
 32 77  2  0  0  0  0
 33 59  1  0  0  0  0
 33 72  1  0  0  0  0
 33 78  2  0  0  0  0
 34 68  1  0  0  0  0
 34 73  1  0  0  0  0
 34 79  2  0  0  0  0
 35 38  1  0  0  0  0
 36 45  1  0  0  0  0
 37 67  1  0  0  0  0
 38 40  1  0  0  0  0
 39 41  1  0  0  0  0
 39 42  1  0  0  0  0
 40 44  1  0  0  0  0
 41 46  1  0  0  0  0
 42 68  1  0  0  0  0
 43 46  1  0  0  0  0
 43 68  1  0  0  0  0
 44 71  1  0  0  0  0
 45 67  1  0  0  0  0
 46 65  1  0  0  0  0
 48 59  1  0  0  0  0
 49 60  1  0  0  0  0
 50 61  1  0  0  0  0
 51 61  1  0  0  0  0
 52 61  1  0  0  0  0
 53 66  1  0  0  0  0
 54 74  1  0  0  0  0
 55 56  1  0  0  0  0
 55 60  1  0  0  0  0
 56 73  1  0  0  0  0
 57 60  1  0  0  0  0
 57 81  1  0  0  0  0
 58 61  1  0  0  0  0
 58 72  1  0  0  0  0
 59 74  1  0  0  0  0
 62 65  1  0  0  0  0
 64 66  1  0  0  0  0
M  CHG  1  74   1
M  ISO  4  34 100  57 101  73 100  81 101
M  END
> <Batch ID>
0053

> <Smiles>
CNC(C)C(=O)NC(C(=O)N1Cc2cc([101O:1][101CH2:1]C(C)(CC[100NH:0][100C:0](=O)N3CCCC(n4nc(-c5ccc(Oc6ccc(F)cc6F)cc5)c(C(N)=O)c4N)C3)c3nc(C)nn3C)ccc2CC1C(=O)NC1CCCc2ccccc21)C(C)(C)C

> <Shape>
0.287

> <Color>
0.111

> <Negative vol penalty>
0.000

$$$$

  -OEChem-04052317383D

 87 95  0     1  0  0  0  0  0999 V2000
  -20.5606  -28.5153   16.9956 C   0  0  0  0  0  0  0  0  0  0  0  0
  -21.4422  -27.4989   17.3494 C   0  0  0  0  0  0  0  0  0  0  0  0
  -23.9524   -9.4708   19.8065 C   0  0  0  0  0  0  0  0  0  0  0  0
  -24.4854   -9.6532   22.1559 C   0  0  0  0  0  0  0  0  0  0  0  0
  -20.7584  -29.8078   17.4795 C   0  0  0  0  0  0  0  0  0  0  0  0
  -22.5227  -27.7747   18.1864 C   0  0  0  0  0  0  0  0  0  0  0  0
  -24.9604  -24.0559   22.3976 C   0  0  0  0  0  0  0  0  0  0  0  0
  -23.5253   -8.1580   20.0052 C   0  0  0  0  0  0  0  0  0  0  0  0
  -24.0583   -8.3403   22.3547 C   0  0  0  0  0  0  0  0  0  0  0  0
  -26.0759  -23.2197   22.3776 C   0  0  0  0  0  0  0  0  0  0  0  0
  -22.7710   -5.1566   23.5484 C   0  0  0  0  0  0  0  0  0  0  0  0
  -21.9573   -4.8985   24.6515 C   0  0  0  0  0  0  0  0  0  0  0  0
  -27.3893  -24.9570   23.4149 C   0  0  0  0  0  0  0  0  0  0  0  0
  -30.5369  -21.1171   21.5350 C   0  0  0  0  0  0  0  0  0  0  0  0
  -31.8450  -19.4153   22.6200 C   0  0  0  0  0  0  0  0  0  0  0  0
  -20.3071   -6.4414   23.7953 C   0  0  0  0  0  0  0  0  0  0  0  0
  -24.4326  -10.2185   20.8818 C   0  0  0  0  0  0  0  0  0  0  0  0
  -24.0961  -12.7444   20.7630 C   0  0  0  0  0  0  0  0  0  0  0  0
  -21.8364  -30.0975   18.3307 C   0  0  0  0  0  0  0  0  0  0  0  0
  -25.0539  -25.3550   22.9173 C   0  0  0  0  0  0  0  0  0  0  0  0
  -22.7359  -29.0726   18.6811 C   0  0  0  0  0  0  0  0  0  0  0  0
  -26.2729  -25.8068   23.4427 C   0  0  0  0  0  0  0  0  0  0  0  0
  -31.7250  -20.4041   21.6499 C   0  0  0  0  0  0  0  0  0  0  0  0
  -23.5782   -7.5927   21.2793 C   0  0  0  0  0  0  0  0  0  0  0  0
  -27.2912  -23.6712   22.8837 C   0  0  0  0  0  0  0  0  0  0  0  0
  -22.3527   -6.0571   22.5687 C   0  0  0  0  0  0  0  0  0  0  0  0
  -20.7254   -5.5409   24.7750 C   0  0  0  0  0  0  0  0  0  0  0  0
  -21.1208   -6.6995   22.6921 C   0  0  0  0  0  0  0  0  0  0  0  0
  -24.8744  -11.5745   20.6770 C   0  0  0  0  0  0  0  0  0  0  0  0
  -29.5066  -20.8055   22.4075 C   0  0  0  0  0  0  0  0  0  0  0  0
  -30.7562  -19.1800   23.4441 C   0  0  0  0  0  0  0  0  0  0  0  0
  -24.9750  -13.7627   20.4854 C   0  0  0  0  0  0  0  0  0  0  0  0
  -22.7032  -12.8969   21.0667 C   0  0  0  0  0  0  0  0  0  0  0  0
  -24.6620  -28.2785   21.7328 C   0  0  0  0  0  0  0  0  0  0  0  0
  -25.0734  -29.1648   24.8259 C   0  0  0  0  0  0  0  0  0  0  0  0
  -26.3381  -28.4249   27.9080 C   0  0  0  0  0  0  0  0  0  0  0  0
  -30.9186  -14.2727   21.0000 C   0  0  0  0  0  0  0  0  0  0  0  0
  -22.0363  -31.5200   18.7906 C   0  0  0  0  0  0  0  0  0  0  0  0
  -23.8348  -26.2351   22.9561 C   0  0  0  0  0  0  0  0  0  0  0  0
  -26.4208  -27.1857   24.0303 C   0  0  0  0  0  0  0  0  0  0  0  0
  -22.9915  -31.6488   19.9744 C   0  0  0  0  0  0  0  0  0  0  0  0
  -28.9824  -14.6881   18.0411 C   0  0  0  0  0  0  0  0  0  0  0  0
  -24.2477  -30.8159   19.7398 C   0  0  0  0  0  0  0  0  0  0  0  0
  -27.6398  -14.0428   18.3889 C   0  0  0  0  0  0  0  0  0  0  0  0
  -30.1514  -13.9325   18.6694 C   0  0  0  0  0  0  0  0  0  0  0  0
  -28.7034  -13.0841   20.4742 C   0  0  0  0  0  0  0  0  0  0  0  0
  -23.9057  -29.3271   19.6069 C   0  0  1  0  0  0  0  0  0  0  0  0
  -24.1726  -27.7205   23.0392 C   0  0  1  0  0  0  0  0  0  0  0  0
  -27.4907  -13.8433   19.9091 C   0  0  2  0  0  0  0  0  0  0  0  0
  -32.8658  -20.6980   20.7356 C   0  0  0  0  0  0  0  0  0  0  0  0
  -29.9662  -18.4093   25.7189 C   0  0  0  0  0  0  0  0  0  0  0  0
  -26.5497  -29.3603   30.2270 C   0  0  0  0  0  0  0  0  0  0  0  0
  -27.2727  -31.0479   23.8630 C   0  0  0  0  0  0  0  0  0  0  0  0
  -28.0643  -31.2220   26.2318 C   0  0  0  0  0  0  0  0  0  0  0  0
  -25.7757  -32.0056   25.6227 C   0  0  0  0  0  0  0  0  0  0  0  0
  -32.9080  -13.8641   23.2139 C   0  0  0  0  0  0  0  0  0  0  0  0
  -30.9568  -14.1558   24.7483 C   0  0  0  0  0  0  0  0  0  0  0  0
  -24.8134  -26.1751   29.0798 C   0  0  0  0  0  0  0  0  0  0  0  0
  -29.2837  -16.7665   23.1209 C   0  0  0  0  0  0  0  0  0  0  0  0
  -28.2093  -21.5532   22.3118 C   0  0  0  0  0  0  0  0  0  1  0  0
  -31.6691  -16.0842   23.3329 C   0  0  0  0  0  0  0  0  0  0  0  0
  -30.8505  -18.1273   24.4975 C   0  0  1  0  0  0  0  0  0  0  0  0
  -26.2606  -29.5251   25.6859 C   0  0  1  0  0  0  0  0  0  0  0  0
  -25.7205  -28.4926   29.2931 C   0  0  2  0  0  0  0  0  0  0  0  0
  -26.8414  -30.9248   25.3381 C   0  0  0  0  0  0  0  0  0  0  0  0
  -31.5449  -14.5507   23.3853 C   0  0  0  0  0  0  0  0  0  0  0  0
  -26.1497  -11.8251   20.3688 N   0  0  0  0  0  0  0  0  0  0  0  0
  -29.5859  -19.8520   23.3625 N   0  0  0  0  0  0  0  0  0  0  0  0
  -26.1793  -13.1642   20.2586 N   0  0  0  0  0  0  0  0  0  0  0  0
  -25.2016  -28.0110   24.0397 N   0  0  0  0  0  0  0  0  0  0  0  0
  -29.9489  -13.7785   20.1120 N   0  0  0  0  0  0  0  0  0  0  0  0
  -24.8274  -15.1028   20.4157 N   0  0  0  0  0  0  0  0  0  0  0  0
  -21.9462  -11.7465   21.3269 N   0  0  0  0  0  0  0  0  0  0  0  0
  -23.6563  -28.7475   20.9093 N   0  0  0  0  0  0  0  0  0  0  0  0
  -25.8188  -29.3885   27.0696 N   0  0  0  0  0  0  0  0  0  0  0  0
  -30.6458  -14.0911   22.3504 N   0  0  0  0  0  0  0  0  0  0  0  0
  -25.6218  -27.1278   29.8835 N   0  3  0  0  0  0  0  0  0  0  0  0
  -30.5014  -16.7529   23.9998 N   0  3  1  0  0  0  0  0  0  0  0  0
  -22.1427  -14.0189   21.0900 O   0  0  0  0  0  0  0  0  0  0  0  0
  -25.8632  -28.2844   21.4903 O   0  0  0  0  0  0  0  0  0  0  0  0
  -24.0665  -29.8768   24.8561 O   0  0  0  0  0  0  0  0  0  0  0  0
  -27.1982  -27.6020   27.6017 O   0  0  0  0  0  0  0  0  0  0  0  0
  -31.9483  -14.8389   20.6180 O   0  0  0  0  0  0  0  0  0  0  0  0
  -23.1613   -6.3117   21.4737 O   0  0  0  0  0  0  0  0  0  0  0  0
  -28.3817  -22.8574   22.8648 O   0  0  0  0  0  0  0  0  0  1  0  0
  -19.9434   -5.2918   25.8336 F   0  0  0  0  0  0  0  0  0  0  0  0
  -20.7130   -7.5648   21.7536 F   0  0  0  0  0  0  0  0  0  0  0  0
  1  2  1  0  0  0  0
  1  5  2  0  0  0  0
  2  6  2  0  0  0  0
  3  8  2  0  0  0  0
  3 17  1  0  0  0  0
  4  9  1  0  0  0  0
  4 17  2  0  0  0  0
  5 19  1  0  0  0  0
  6 21  1  0  0  0  0
  7 10  2  0  0  0  0
  7 20  1  0  0  0  0
  8 24  1  0  0  0  0
  9 24  2  0  0  0  0
 10 25  1  0  0  0  0
 11 12  2  0  0  0  0
 11 26  1  0  0  0  0
 12 27  1  0  0  0  0
 13 22  1  0  0  0  0
 13 25  2  0  0  0  0
 14 23  2  0  0  0  0
 14 30  1  0  0  0  0
 15 23  1  0  0  0  0
 15 31  2  0  0  0  0
 16 27  2  0  0  0  0
 16 28  1  0  0  0  0
 17 29  1  0  0  0  0
 18 29  1  0  0  0  0
 18 32  2  0  0  0  0
 18 33  1  0  0  0  0
 19 21  2  0  0  0  0
 19 38  1  0  0  0  0
 20 22  2  0  0  0  0
 20 39  1  0  0  0  0
 21 47  1  0  0  0  0
 22 40  1  0  0  0  0
 23 50  1  0  0  0  0
 24 84  1  0  0  0  0
 25 85  1  0  0  0  0
 26 28  2  0  0  0  0
 26 84  1  0  0  0  0
 27 86  1  0  0  0  0
 28 87  1  0  0  0  0
 29 67  2  0  0  0  0
 30 60  1  0  0  0  0
 30 68  2  0  0  0  0
 31 62  1  0  0  0  0
 31 68  1  0  0  0  0
 32 69  1  0  0  0  0
 32 72  1  0  0  0  0
 33 73  1  0  0  0  0
 33 79  2  0  0  0  0
 34 48  1  0  0  0  0
 34 74  1  0  0  0  0
 34 80  2  0  0  0  0
 35 63  1  0  0  0  0
 35 70  1  0  0  0  0
 35 81  2  0  0  0  0
 36 64  1  0  0  0  0
 36 75  1  0  0  0  0
 36 82  2  0  0  0  0
 37 71  1  0  0  0  0
 37 76  1  0  0  0  0
 37 83  2  0  0  0  0
 38 41  1  0  0  0  0
 39 48  1  0  0  0  0
 40 70  1  0  0  0  0
 41 43  1  0  0  0  0
 42 44  1  0  0  0  0
 42 45  1  0  0  0  0
 43 47  1  0  0  0  0
 44 49  1  0  0  0  0
 45 71  1  0  0  0  0
 46 49  1  0  0  0  0
 46 71  1  0  0  0  0
 47 74  1  0  0  0  0
 48 70  1  0  0  0  0
 49 69  1  0  0  0  0
 51 62  1  0  0  0  0
 52 64  1  0  0  0  0
 53 65  1  0  0  0  0
 54 65  1  0  0  0  0
 55 65  1  0  0  0  0
 56 66  1  0  0  0  0
 57 66  1  0  0  0  0
 58 77  1  0  0  0  0
 59 78  1  0  0  0  0
 60 85  1  0  0  0  0
 61 66  1  0  0  0  0
 61 78  1  0  0  0  0
 62 78  1  0  0  0  0
 63 65  1  0  0  0  0
 63 75  1  0  0  0  0
 64 77  1  0  0  0  0
 66 76  1  0  0  0  0
 67 69  1  0  0  0  0
M  CHG  2  77   1  78   1
M  ISO  4  37 100  60 101  76 100  85 101
M  END
> <Batch ID>
0053

> <Smiles>
CNC(C)C(=O)NC(C(=O)N1Cc2cc([101O:1][101CH2:1]c3cc(C)cc(C(C)N(C)CC(C)(C)[100NH:0][100C:0](=O)N4CCCC(n5nc(-c6ccc(Oc7ccc(F)cc7F)cc6)c(C(N)=O)c5N)C4)n3)ccc2CC1C(=O)NC1CCCc2ccccc21)C(C)(C)C

> <Shape>
0.232

> <Color>
0.139

> <Negative vol penalty>
0.000

$$$$

  -OEChem-04052317383D

 88 96  0     1  0  0  0  0  0999 V2000
  -32.1226  -13.6043   21.5670 C   0  0  0  0  0  0  0  0  0  0  0  0
  -31.2527  -14.4660   22.2274 C   0  0  0  0  0  0  0  0  0  0  0  0
  -22.2244  -28.6696   21.2865 C   0  0  0  0  0  0  0  0  0  0  0  0
  -23.4355  -28.3793   23.3567 C   0  0  0  0  0  0  0  0  0  0  0  0
  -31.7035  -12.9406   20.4147 C   0  0  0  0  0  0  0  0  0  0  0  0
  -29.9633  -14.6653   21.7352 C   0  0  0  0  0  0  0  0  0  0  0  0
  -26.4513  -14.5403   25.3815 C   0  0  0  0  0  0  0  0  0  0  0  0
  -21.0348  -28.3409   21.9363 C   0  0  0  0  0  0  0  0  0  0  0  0
  -22.2459  -28.0506   24.0066 C   0  0  0  0  0  0  0  0  0  0  0  0
  -26.3166  -15.6787   26.1750 C   0  0  0  0  0  0  0  0  0  0  0  0
  -18.8076  -29.8622   23.9754 C   0  0  0  0  0  0  0  0  0  0  0  0
  -17.6900  -30.6578   23.7234 C   0  0  0  0  0  0  0  0  0  0  0  0
  -24.4049  -16.3557   24.8687 C   0  0  0  0  0  0  0  0  0  0  0  0
  -16.5065  -28.7281   22.8793 C   0  0  0  0  0  0  0  0  0  0  0  0
  -23.4248  -28.6888   21.9967 C   0  0  0  0  0  0  0  0  0  0  0  0
  -25.2159  -30.3100   21.1773 C   0  0  0  0  0  0  0  0  0  0  0  0
  -30.4051  -13.1244   19.9137 C   0  0  0  0  0  0  0  0  0  0  0  0
  -25.5690  -14.3062   24.3170 C   0  0  0  0  0  0  0  0  0  0  0  0
  -29.5268  -14.0044   20.5744 C   0  0  0  0  0  0  0  0  0  0  0  0
  -24.5291  -15.2123   24.0647 C   0  0  0  0  0  0  0  0  0  0  0  0
  -21.0455  -28.0314   23.2963 C   0  0  0  0  0  0  0  0  0  0  0  0
  -25.2951  -16.5881   25.9169 C   0  0  0  0  0  0  0  0  0  0  0  0
  -18.7747  -28.4995   23.6793 C   0  0  0  0  0  0  0  0  0  0  0  0
  -16.5395  -30.0908   23.1754 C   0  0  0  0  0  0  0  0  0  0  0  0
  -17.6242  -27.9324   23.1312 C   0  0  0  0  0  0  0  0  0  0  0  0
  -24.6541  -29.0277   21.3259 C   0  0  0  0  0  0  0  0  0  0  0  0
  -26.4474  -24.2103   22.5096 C   0  0  0  0  0  0  0  0  0  0  0  0
  -26.4913  -23.2566   21.5201 C   0  0  0  0  0  0  0  0  0  0  0  0
  -26.3744  -30.0976   20.4708 C   0  0  0  0  0  0  0  0  0  0  0  0
  -28.3838  -24.3791   21.6422 C   0  0  0  0  0  0  0  0  0  0  0  0
  -24.7336  -31.5796   21.6369 C   0  0  0  0  0  0  0  0  0  0  0  0
  -25.8795  -14.0291   21.1657 C   0  0  0  0  0  0  0  0  0  0  0  0
  -22.7343  -13.2498   21.3160 C   0  0  0  0  0  0  0  0  0  0  0  0
  -29.8891  -25.2581   19.8886 C   0  0  0  0  0  0  0  0  0  0  0  0
  -19.7781  -13.4479   23.0096 C   0  0  0  0  0  0  0  0  0  0  0  0
  -30.0129  -12.4215   18.6382 C   0  0  0  0  0  0  0  0  0  0  0  0
  -25.7115  -13.0599   23.4870 C   0  0  0  0  0  0  0  0  0  0  0  0
  -23.5432  -14.9968   22.9466 C   0  0  0  0  0  0  0  0  0  0  0  0
  -28.5063  -12.3992   18.3935 C   0  0  0  0  0  0  0  0  0  0  0  0
  -28.3277  -27.1394   17.2689 C   0  0  0  0  0  0  0  0  0  0  0  0
  -27.9060  -13.7808   18.6331 C   0  0  0  0  0  0  0  0  0  0  0  0
  -27.2412  -27.9318   17.9945 C   0  0  0  0  0  0  0  0  0  0  0  0
  -28.5219  -25.7598   17.8903 C   0  0  0  0  0  0  0  0  0  0  0  0
  -27.7249  -26.5809   20.0840 C   0  0  0  0  0  0  0  0  0  0  0  0
  -28.1121  -14.2276   20.0855 C   0  0  1  0  0  0  0  0  0  0  0  0
  -25.0704  -13.1837   22.1082 C   0  0  1  0  0  0  0  0  0  0  0  0
  -27.5182  -27.9926   19.5071 C   0  0  2  0  0  0  0  0  0  0  0  0
  -25.4960  -22.2724   21.0581 C   0  0  0  0  0  0  0  0  0  0  0  0
  -28.7043  -21.2027   20.3435 C   0  0  0  0  0  0  0  0  0  0  0  0
  -17.3738  -12.7437   22.8649 C   0  0  0  0  0  0  0  0  0  0  0  0
  -30.7597  -23.5914   21.4772 C   0  0  0  0  0  0  0  0  0  0  0  0
  -30.3640  -25.9661   22.1393 C   0  0  0  0  0  0  0  0  0  0  0  0
  -22.2244  -15.4260   19.2389 C   0  0  0  0  0  0  0  0  0  0  0  0
  -19.7948  -15.3288   19.8354 C   0  0  0  0  0  0  0  0  0  0  0  0
  -20.9248  -13.3192   18.8830 C   0  0  0  0  0  0  0  0  0  0  0  0
  -19.9697  -11.8688   25.5053 C   0  0  0  0  0  0  0  0  0  0  0  0
  -25.3176  -24.5352   23.4434 C   0  0  0  0  0  0  0  0  0  0  0  0
  -25.9709  -20.4163   26.0443 C   0  0  0  0  0  0  0  0  0  0  0  0
  -26.1930  -19.7476   27.3988 C   0  0  0  0  0  0  0  0  0  0  0  0
  -28.2742  -22.5867   19.8884 C   0  0  0  0  0  0  0  0  0  0  0  0
  -25.5208  -24.0133   24.8622 C   0  0  0  0  0  0  0  0  0  0  0  0
  -25.8567  -21.9262   26.1926 C   0  0  0  0  0  0  0  0  0  0  0  0
  -26.3522  -18.2400   27.2621 C   0  0  0  0  0  0  0  0  0  1  0  0
  -21.4378  -14.0210   21.2571 C   0  0  1  0  0  0  0  0  0  0  0  0
  -18.7583  -12.3874   23.3835 C   0  0  2  0  0  0  0  0  0  0  0  0
  -29.7673  -24.7808   21.3139 C   0  0  0  0  0  0  0  0  0  0  0  0
  -21.1151  -14.5291   19.8236 C   0  0  0  0  0  0  0  0  0  0  0  0
  -25.3947  -28.0715   20.7591 N   0  0  0  0  0  0  0  0  0  0  0  0
  -27.6284  -24.9058   22.5802 N   0  0  0  0  0  0  0  0  0  0  0  0
  -27.7376  -23.3770   20.9731 N   0  0  0  0  0  0  0  0  0  0  0  0
  -26.4336  -28.7534   20.2475 N   0  0  0  0  0  0  0  0  0  0  0  0
  -23.7281  -13.7665   22.1593 N   0  0  0  0  0  0  0  0  0  0  0  0
  -28.7602  -25.8591   19.3313 N   0  0  0  0  0  0  0  0  0  0  0  0
  -27.3379  -30.9313   20.0248 N   0  0  0  0  0  0  0  0  0  0  0  0
  -23.5263  -31.6182   22.3478 N   0  0  0  0  0  0  0  0  0  0  0  0
  -27.1647  -13.5663   20.9570 N   0  0  0  0  0  0  0  0  0  0  0  0
  -20.4170  -13.1472   21.8253 N   0  0  0  0  0  0  0  0  0  0  0  0
  -18.6822  -12.2412   24.8646 N   0  3  0  0  0  0  0  0  0  0  0  0
  -25.5972  -22.5266   24.8619 N   0  3  0  0  0  0  0  0  0  0  0  0
  -25.3466  -32.6501   21.4094 O   0  0  0  0  0  0  0  0  0  0  0  0
  -25.3747  -15.0265   20.6637 O   0  0  0  0  0  0  0  0  0  0  0  0
  -22.8580  -12.2227   20.6441 O   0  0  0  0  0  0  0  0  0  0  0  0
  -30.9574  -25.1033   19.2911 O   0  0  0  0  0  0  0  0  0  0  0  0
  -19.9844  -14.4454   23.6974 O   0  0  0  0  0  0  0  0  0  0  0  0
  -19.8848  -27.7107   23.9308 O   0  0  0  0  0  0  0  0  0  0  0  0
  -25.1617  -17.7003   26.6895 O   0  0  0  0  0  0  0  0  0  1  0  0
  -15.4658  -30.8547   22.9348 F   0  0  0  0  0  0  0  0  0  0  0  0
  -17.5862  -26.6237   22.8458 F   0  0  0  0  0  0  0  0  0  0  0  0
  1  2  1  0  0  0  0
  1  5  2  0  0  0  0
  2  6  2  0  0  0  0
  3  8  2  0  0  0  0
  3 15  1  0  0  0  0
  4  9  1  0  0  0  0
  4 15  2  0  0  0  0
  5 17  1  0  0  0  0
  6 19  1  0  0  0  0
  7 10  2  0  0  0  0
  7 18  1  0  0  0  0
  8 21  1  0  0  0  0
  9 21  2  0  0  0  0
 10 22  1  0  0  0  0
 11 12  2  0  0  0  0
 11 23  1  0  0  0  0
 12 24  1  0  0  0  0
 13 20  1  0  0  0  0
 13 22  2  0  0  0  0
 14 24  2  0  0  0  0
 14 25  1  0  0  0  0
 15 26  1  0  0  0  0
 16 26  1  0  0  0  0
 16 29  2  0  0  0  0
 16 31  1  0  0  0  0
 17 19  2  0  0  0  0
 17 36  1  0  0  0  0
 18 20  2  0  0  0  0
 18 37  1  0  0  0  0
 19 45  1  0  0  0  0
 20 38  1  0  0  0  0
 21 85  1  0  0  0  0
 22 86  1  0  0  0  0
 23 25  2  0  0  0  0
 23 85  1  0  0  0  0
 24 87  1  0  0  0  0
 25 88  1  0  0  0  0
 26 68  2  0  0  0  0
 27 28  2  0  0  0  0
 27 57  1  0  0  0  0
 27 69  1  0  0  0  0
 28 48  1  0  0  0  0
 28 70  1  0  0  0  0
 29 71  1  0  0  0  0
 29 74  1  0  0  0  0
 30 66  1  0  0  0  0
 30 69  2  0  0  0  0
 30 70  1  0  0  0  0
 31 75  1  0  0  0  0
 31 80  2  0  0  0  0
 32 46  1  0  0  0  0
 32 76  1  0  0  0  0
 32 81  2  0  0  0  0
 33 64  1  0  0  0  0
 33 72  1  0  0  0  0
 33 82  2  0  0  0  0
 34 66  1  0  0  0  0
 34 73  1  0  0  0  0
 34 83  2  0  0  0  0
 35 65  1  0  0  0  0
 35 77  1  0  0  0  0
 35 84  2  0  0  0  0
 36 39  1  0  0  0  0
 37 46  1  0  0  0  0
 38 72  1  0  0  0  0
 39 41  1  0  0  0  0
 40 42  1  0  0  0  0
 40 43  1  0  0  0  0
 41 45  1  0  0  0  0
 42 47  1  0  0  0  0
 43 73  1  0  0  0  0
 44 47  1  0  0  0  0
 44 73  1  0  0  0  0
 45 76  1  0  0  0  0
 46 72  1  0  0  0  0
 47 71  1  0  0  0  0
 49 60  1  0  0  0  0
 50 65  1  0  0  0  0
 51 66  1  0  0  0  0
 52 66  1  0  0  0  0
 53 67  1  0  0  0  0
 54 67  1  0  0  0  0
 55 67  1  0  0  0  0
 56 78  1  0  0  0  0
 57 61  1  0  0  0  0
 58 59  1  0  0  0  0
 58 62  1  0  0  0  0
 59 63  1  0  0  0  0
 60 70  1  0  0  0  0
 61 79  1  0  0  0  0
 62 79  1  0  0  0  0
 63 86  1  0  0  0  0
 64 67  1  0  0  0  0
 64 77  1  0  0  0  0
 65 78  1  0  0  0  0
 68 71  1  0  0  0  0
M  CHG  2  78   1  79   1
M  ISO  4  34 100  63 101  66 100  86 101
M  END
> <Batch ID>
0053

> <Smiles>
CCn1c([100C:0](C)(C)[100C:0](=O)N2CCCC(n3nc(-c4ccc(Oc5ccc(F)cc5F)cc4)c(C(N)=O)c3N)C2)nc(CCNCCC[101CH2:1][101O:1]c2ccc3c(c2)CN(C(=O)C(NC(=O)C(C)NC)C(C)(C)C)C(C(=O)NC2CCCc4ccccc42)C3)c1C

> <Shape>
0.261

> <Color>
0.073

> <Negative vol penalty>
0.000

$$$$

  -OEChem-04052317383D

 86 94  0     1  0  0  0  0  0999 V2000
  -17.2627  -25.0291   24.7501 C   0  0  0  0  0  0  0  0  0  0  0  0
  -18.0132  -24.0852   24.0565 C   0  0  0  0  0  0  0  0  0  0  0  0
  -21.7784  -14.9348   19.9131 C   0  0  0  0  0  0  0  0  0  0  0  0
  -22.7697  -16.9921   20.7018 C   0  0  0  0  0  0  0  0  0  0  0  0
  -17.4396  -26.3872   24.4892 C   0  0  0  0  0  0  0  0  0  0  0  0
  -18.9404  -24.4988   23.1007 C   0  0  0  0  0  0  0  0  0  0  0  0
  -24.3157  -21.8659   21.8048 C   0  0  0  0  0  0  0  0  0  0  0  0
  -20.5242  -15.3783   20.3325 C   0  0  0  0  0  0  0  0  0  0  0  0
  -21.5154  -17.4356   21.1211 C   0  0  0  0  0  0  0  0  0  0  0  0
  -24.7093  -20.9814   20.8015 C   0  0  0  0  0  0  0  0  0  0  0  0
  -18.7532  -18.7822   19.7150 C   0  0  0  0  0  0  0  0  0  0  0  0
  -18.3970  -20.0960   19.4107 C   0  0  0  0  0  0  0  0  0  0  0  0
  -25.5082  -22.8387   19.4858 C   0  0  0  0  0  0  0  0  0  0  0  0
  -18.1635  -20.5783   21.7666 C   0  0  0  0  0  0  0  0  0  0  0  0
  -22.9011  -15.7416   20.0978 C   0  0  0  0  0  0  0  0  0  0  0  0
  -24.5841  -14.9406   18.3560 C   0  0  0  0  0  0  0  0  0  0  0  0
  -18.3764  -26.8182   23.5366 C   0  0  0  0  0  0  0  0  0  0  0  0
  -24.5059  -23.2467   21.6512 C   0  0  0  0  0  0  0  0  0  0  0  0
  -19.1291  -25.8639   22.8258 C   0  0  0  0  0  0  0  0  0  0  0  0
  -25.1186  -23.7384   20.4897 C   0  0  0  0  0  0  0  0  0  0  0  0
  -20.3927  -16.6287   20.9365 C   0  0  0  0  0  0  0  0  0  0  0  0
  -25.3030  -21.4680   19.6406 C   0  0  0  0  0  0  0  0  0  0  0  0
  -18.8145  -18.3664   21.0451 C   0  0  0  0  0  0  0  0  0  0  0  0
  -18.1022  -20.9941   20.4365 C   0  0  0  0  0  0  0  0  0  0  0  0
  -18.5196  -19.2645   22.0709 C   0  0  0  0  0  0  0  0  0  0  0  0
  -24.1971  -15.2838   19.6653 C   0  0  0  0  0  0  0  0  0  0  0  0
  -30.2472  -19.0952   20.8845 C   0  0  0  0  0  0  0  0  0  0  0  0
  -30.1401  -20.4930   20.8768 C   0  0  0  0  0  0  0  0  0  0  0  0
  -25.9021  -14.5725   18.4729 C   0  0  0  0  0  0  0  0  0  0  0  0
  -23.8204  -14.9536   17.1426 C   0  0  0  0  0  0  0  0  0  0  0  0
  -22.5834  -25.7745   21.5172 C   0  0  0  0  0  0  0  0  0  0  0  0
  -25.3822  -27.4145   21.5122 C   0  0  0  0  0  0  0  0  0  0  0  0
  -28.7302  -27.4294   20.8510 C   0  0  0  0  0  0  0  0  0  0  0  0
  -30.2198  -15.8891   22.2546 C   0  0  0  0  0  0  0  0  0  0  0  0
  -18.4987  -28.2948   23.2551 C   0  0  0  0  0  0  0  0  0  0  0  0
  -24.1002  -24.1853   22.7542 C   0  0  0  0  0  0  0  0  0  0  0  0
  -25.3636  -25.2103   20.2848 C   0  0  0  0  0  0  0  0  0  0  0  0
  -19.7689  -28.6667   22.4946 C   0  0  0  0  0  0  0  0  0  0  0  0
  -29.0183  -12.7078   21.5745 C   0  0  0  0  0  0  0  0  0  0  0  0
  -19.9836  -27.7195   21.3184 C   0  0  0  0  0  0  0  0  0  0  0  0
  -27.6798  -12.9607   20.8823 C   0  0  0  0  0  0  0  0  0  0  0  0
  -29.2226  -13.6751   22.7345 C   0  0  0  0  0  0  0  0  0  0  0  0
  -27.8077  -15.3860   21.6428 C   0  0  0  0  0  0  0  0  0  0  0  0
  -20.1624  -26.2745   21.7992 C   0  0  1  0  0  0  0  0  0  0  0  0
  -23.8740  -25.6142   22.2698 C   0  0  1  0  0  0  0  0  0  0  0  0
  -27.5487  -14.4338   20.4573 C   0  0  2  0  0  0  0  0  0  0  0  0
  -29.9153  -18.0207   24.8205 C   0  0  0  0  0  0  0  0  0  0  0  0
  -30.7435  -28.9261   20.9119 C   0  0  0  0  0  0  0  0  0  0  0  0
  -24.4059  -28.8264   18.9897 C   0  0  0  0  0  0  0  0  0  0  0  0
  -26.7620  -29.5648   18.5751 C   0  0  0  0  0  0  0  0  0  0  0  0
  -25.5667  -30.3113   20.6334 C   0  0  0  0  0  0  0  0  0  0  0  0
  -30.1203  -25.6746   22.7868 C   0  0  0  0  0  0  0  0  0  0  0  0
  -30.9229  -18.2170   21.8495 C   0  0  0  0  0  0  0  0  0  0  0  0
  -27.1057  -18.7643   18.0681 C   0  0  0  0  0  0  0  0  0  0  0  0
  -28.3580  -19.6375   17.9624 C   0  0  0  0  0  0  0  0  0  0  0  0
  -29.1597  -17.8040   23.5250 C   0  0  0  0  0  0  0  0  0  0  0  0
  -26.0809  -19.2960   19.0633 C   0  0  0  0  0  0  0  0  0  1  0  0
  -26.3300  -27.9084   20.4461 C   0  0  1  0  0  0  0  0  0  0  0  0
  -29.9170  -27.9005   21.6720 C   0  0  2  0  0  0  0  0  0  0  0  0
  -30.6732  -21.4747   21.8320 C   0  0  0  0  0  0  0  0  0  0  0  0
  -25.7599  -29.1251   19.6638 C   0  0  0  0  0  0  0  0  0  0  0  0
  -25.1890  -15.1458   20.5490 N   0  0  0  0  0  0  0  0  0  0  0  0
  -29.6125  -18.5864   19.8247 N   0  0  0  0  0  0  0  0  0  0  0  0
  -29.4374  -20.8876   19.8113 N   0  0  0  0  0  0  0  0  0  0  0  0
  -26.2123  -14.7118   19.7937 N   0  0  0  0  0  0  0  0  0  0  0  0
  -29.1596  -19.7059   19.2376 N   0  0  0  0  0  0  0  0  0  0  0  0
  -24.9436  -26.0885   21.3893 N   0  0  0  0  0  0  0  0  0  0  0  0
  -29.0859  -15.0642   22.2960 N   0  0  0  0  0  0  0  0  0  0  0  0
  -26.8144  -14.1464   17.5737 N   0  0  0  0  0  0  0  0  0  0  0  0
  -23.8082  -16.1250   16.3733 N   0  0  0  0  0  0  0  0  0  0  0  0
  -21.4987  -26.0763   22.3183 N   0  0  0  0  0  0  0  0  0  0  0  0
  -27.5985  -28.1707   21.1173 N   0  0  0  0  0  0  0  0  0  0  0  0
  -30.0244  -17.2601   22.4795 N   0  0  0  0  0  0  0  0  0  0  0  0
  -30.7981  -26.7491   22.0167 N   0  3  0  0  0  0  0  0  0  0  0  0
  -23.1549  -13.9612   16.7605 O   0  0  0  0  0  0  0  0  0  0  0  0
  -22.5729  -25.6362   20.2997 O   0  0  0  0  0  0  0  0  0  0  0  0
  -25.0491  -28.1749   22.4246 O   0  0  0  0  0  0  0  0  0  0  0  0
  -28.8010  -26.4994   20.0506 O   0  0  0  0  0  0  0  0  0  0  0  0
  -31.3468  -15.4261   22.0363 O   0  0  0  0  0  0  0  0  0  0  0  0
  -19.1690  -17.0619   21.3456 O   0  0  0  0  0  0  0  0  0  0  0  0
  -25.6874  -20.6069   18.6594 O   0  0  0  0  0  0  0  0  0  1  0  0
  -17.7617  -22.2562   20.1442 F   0  0  0  0  0  0  0  0  0  0  0  0
  -18.5779  -18.8712   23.3506 F   0  0  0  0  0  0  0  0  0  0  0  0
  -31.3759  -20.9266   22.8788 F   0  0  0  0  0  0  0  0  0  0  0  0
  -31.5436  -22.3866   21.2837 F   0  0  0  0  0  0  0  0  0  0  0  0
  -29.7014  -22.2392   22.4298 F   0  0  0  0  0  0  0  0  0  0  0  0
  1  2  1  0  0  0  0
  1  5  2  0  0  0  0
  2  6  2  0  0  0  0
  3  8  2  0  0  0  0
  3 15  1  0  0  0  0
  4  9  1  0  0  0  0
  4 15  2  0  0  0  0
  5 17  1  0  0  0  0
  6 19  1  0  0  0  0
  7 10  2  0  0  0  0
  7 18  1  0  0  0  0
  8 21  1  0  0  0  0
  9 21  2  0  0  0  0
 10 22  1  0  0  0  0
 11 12  2  0  0  0  0
 11 23  1  0  0  0  0
 12 24  1  0  0  0  0
 13 20  1  0  0  0  0
 13 22  2  0  0  0  0
 14 24  2  0  0  0  0
 14 25  1  0  0  0  0
 15 26  1  0  0  0  0
 16 26  1  0  0  0  0
 16 29  2  0  0  0  0
 16 30  1  0  0  0  0
 17 19  2  0  0  0  0
 17 35  1  0  0  0  0
 18 20  2  0  0  0  0
 18 36  1  0  0  0  0
 19 44  1  0  0  0  0
 20 37  1  0  0  0  0
 21 80  1  0  0  0  0
 22 81  1  0  0  0  0
 23 25  2  0  0  0  0
 23 80  1  0  0  0  0
 24 82  1  0  0  0  0
 25 83  1  0  0  0  0
 26 62  2  0  0  0  0
 27 28  1  0  0  0  0
 27 53  1  0  0  0  0
 27 63  2  0  0  0  0
 28 60  1  0  0  0  0
 28 64  2  0  0  0  0
 29 65  1  0  0  0  0
 29 69  1  0  0  0  0
 30 70  1  0  0  0  0
 30 75  2  0  0  0  0
 31 45  1  0  0  0  0
 31 71  1  0  0  0  0
 31 76  2  0  0  0  0
 32 58  1  0  0  0  0
 32 67  1  0  0  0  0
 32 77  2  0  0  0  0
 33 59  1  0  0  0  0
 33 72  1  0  0  0  0
 33 78  2  0  0  0  0
 34 68  1  0  0  0  0
 34 73  1  0  0  0  0
 34 79  2  0  0  0  0
 35 38  1  0  0  0  0
 36 45  1  0  0  0  0
 37 67  1  0  0  0  0
 38 40  1  0  0  0  0
 39 41  1  0  0  0  0
 39 42  1  0  0  0  0
 40 44  1  0  0  0  0
 41 46  1  0  0  0  0
 42 68  1  0  0  0  0
 43 46  1  0  0  0  0
 43 68  1  0  0  0  0
 44 71  1  0  0  0  0
 45 67  1  0  0  0  0
 46 65  1  0  0  0  0
 47 56  1  0  0  0  0
 48 59  1  0  0  0  0
 49 61  1  0  0  0  0
 50 61  1  0  0  0  0
 51 61  1  0  0  0  0
 52 74  1  0  0  0  0
 53 73  1  0  0  0  0
 54 55  1  0  0  0  0
 54 57  1  0  0  0  0
 55 66  1  0  0  0  0
 56 73  1  0  0  0  0
 57 81  1  0  0  0  0
 58 61  1  0  0  0  0
 58 72  1  0  0  0  0
 59 74  1  0  0  0  0
 60 84  1  0  0  0  0
 60 85  1  0  0  0  0
 60 86  1  0  0  0  0
 62 65  1  0  0  0  0
 63 66  1  0  0  0  0
 64 66  1  0  0  0  0
M  CHG  1  74   1
M  ISO  4  34 100  57 101  73 100  81 101
M  END
> <Batch ID>
0053

> <Smiles>
CC[100N:0](Cc1nn(CC[101CH2:1][101O:1]c2ccc3c(c2)CN(C(=O)C(NC(=O)C(C)NC)C(C)(C)C)C(C(=O)NC2CCCc4ccccc42)C3)nc1C(F)(F)F)[100C:0](=O)N1CCCC(n2nc(-c3ccc(Oc4ccc(F)cc4F)cc3)c(C(N)=O)c2N)C1

> <Shape>
0.189

> <Color>
0.073

> <Negative vol penalty>
0.000

$$$$

  -OEChem-04052317383D

 81 89  0     1  0  0  0  0  0999 V2000
  -29.0079  -24.5740   17.2374 C   0  0  0  0  0  0  0  0  0  0  0  0
  -27.8003  -24.6764   17.9206 C   0  0  0  0  0  0  0  0  0  0  0  0
  -24.4857  -14.6853   18.3913 C   0  0  0  0  0  0  0  0  0  0  0  0
  -24.1793  -15.6649   20.5784 C   0  0  0  0  0  0  0  0  0  0  0  0
  -30.1341  -25.2465   17.7099 C   0  0  0  0  0  0  0  0  0  0  0  0
  -27.7186  -25.4506   19.0775 C   0  0  0  0  0  0  0  0  0  0  0  0
  -23.5843  -28.3734   19.1711 C   0  0  0  0  0  0  0  0  0  0  0  0
  -25.3915  -13.7703   18.9279 C   0  0  0  0  0  0  0  0  0  0  0  0
  -25.0851  -14.7499   21.1151 C   0  0  0  0  0  0  0  0  0  0  0  0
  -22.3779  -27.7596   19.5054 C   0  0  0  0  0  0  0  0  0  0  0  0
  -28.0575  -11.4076   19.6580 C   0  0  0  0  0  0  0  0  0  0  0  0
  -29.2441  -11.1821   18.9603 C   0  0  0  0  0  0  0  0  0  0  0  0
  -22.5769  -28.6072   21.7551 C   0  0  0  0  0  0  0  0  0  0  0  0
  -29.8217  -13.5170   19.1882 C   0  0  0  0  0  0  0  0  0  0  0  0
  -23.0633  -23.3065   23.5180 C   0  0  0  0  0  0  0  0  0  0  0  0
  -23.8796  -15.6326   19.2165 C   0  0  0  0  0  0  0  0  0  0  0  0
  -21.5508  -16.4222   18.5377 C   0  0  0  0  0  0  0  0  0  0  0  0
  -30.0637  -26.0371   18.8678 C   0  0  0  0  0  0  0  0  0  0  0  0
  -24.3026  -29.1009   20.1309 C   0  0  0  0  0  0  0  0  0  0  0  0
  -28.8453  -26.1332   19.5668 C   0  0  0  0  0  0  0  0  0  0  0  0
  -23.7908  -29.2315   21.4298 C   0  0  0  0  0  0  0  0  0  0  0  0
  -25.6912  -13.8026   20.2898 C   0  0  0  0  0  0  0  0  0  0  0  0
  -21.8755  -27.8740   20.7983 C   0  0  0  0  0  0  0  0  0  0  0  0
  -27.7529  -12.6877   20.1207 C   0  0  0  0  0  0  0  0  0  0  0  0
  -30.1262  -12.2368   18.7255 C   0  0  0  0  0  0  0  0  0  0  0  0
  -28.6350  -13.7424   19.8858 C   0  0  0  0  0  0  0  0  0  0  0  0
  -22.9443  -16.5784   18.6627 C   0  0  0  0  0  0  0  0  0  0  0  0
  -21.5738  -24.0056   22.1678 C   0  0  0  0  0  0  0  0  0  0  0  0
  -22.7339  -23.9387   21.4327 C   0  0  0  0  0  0  0  0  0  0  0  0
  -21.1251  -17.5911   17.9555 C   0  0  0  0  0  0  0  0  0  0  0  0
  -20.7158  -15.3192   18.9143 C   0  0  0  0  0  0  0  0  0  0  0  0
  -27.1771  -28.8319   21.4607 C   0  0  0  0  0  0  0  0  0  0  0  0
  -26.3896  -31.6747   22.8100 C   0  0  0  0  0  0  0  0  0  0  0  0
  -23.9368  -33.8298   23.8030 C   0  0  0  0  0  0  0  0  0  0  0  0
  -23.3745  -23.1387   17.8297 C   0  0  0  0  0  0  0  0  0  0  0  0
  -31.3194  -26.7073   19.3666 C   0  0  0  0  0  0  0  0  0  0  0  0
  -25.5890  -29.7795   19.7473 C   0  0  0  0  0  0  0  0  0  0  0  0
  -24.5133  -30.0184   22.4915 C   0  0  0  0  0  0  0  0  0  0  0  0
  -31.0565  -27.8086   20.3904 C   0  0  0  0  0  0  0  0  0  0  0  0
  -22.6093  -21.0748   15.0312 C   0  0  0  0  0  0  0  0  0  0  0  0
  -30.0632  -27.3310   21.4450 C   0  0  0  0  0  0  0  0  0  0  0  0
  -22.4827  -19.6743   15.6333 C   0  0  0  0  0  0  0  0  0  0  0  0
  -23.7051  -21.8872   15.7176 C   0  0  0  0  0  0  0  0  0  0  0  0
  -23.4590  -20.5720   17.7872 C   0  0  0  0  0  0  0  0  0  0  0  0
  -28.7107  -26.9832   20.8115 C   0  0  1  0  0  0  0  0  0  0  0  0
  -26.4932  -30.0653   20.9423 C   0  0  1  0  0  0  0  0  0  0  0  0
  -22.3289  -19.7343   17.1649 C   0  0  2  0  0  0  0  0  0  0  0  0
  -23.6008  -36.0575   24.9085 C   0  0  0  0  0  0  0  0  0  0  0  0
  -27.0318  -30.4248   25.5184 C   0  0  0  0  0  0  0  0  0  0  0  0
  -25.7992  -32.3142   26.6044 C   0  0  0  0  0  0  0  0  0  0  0  0
  -27.8345  -32.7768   25.2382 C   0  0  0  0  0  0  0  0  0  0  0  0
  -25.0749  -23.2451   22.0335 C   0  0  0  0  0  0  0  0  0  0  0  0
  -22.5811  -34.9393   21.4176 C   0  0  0  0  0  0  0  0  0  0  0  0
  -20.2012  -24.4373   21.7170 C   0  0  0  0  0  0  0  0  0  0  0  0
  -23.0227  -24.2489   20.0212 C   0  0  0  0  0  0  0  0  0  0  0  0
  -19.6383  -25.6219   22.5053 C   0  0  0  0  0  0  0  0  0  0  0  0
  -20.5430  -26.8484   22.4801 C   0  0  0  0  0  0  0  0  0  1  0  0
  -25.6920  -32.0986   24.0799 C   0  0  1  0  0  0  0  0  0  0  0  0
  -23.7587  -35.3218   23.5869 C   0  0  2  0  0  0  0  0  0  0  0  0
  -26.5765  -31.8871   25.3410 C   0  0  0  0  0  0  0  0  0  0  0  0
  -21.7857  -23.6111   23.4651 N   0  0  0  0  0  0  0  0  0  0  0  0
  -23.3752  -17.7538   18.1972 N   0  0  0  0  0  0  0  0  0  0  0  0
  -23.6793  -23.4897   22.3112 N   0  0  0  0  0  0  0  0  0  0  0  0
  -22.2459  -18.3468   17.7739 N   0  0  0  0  0  0  0  0  0  0  0  0
  -25.7702  -30.6582   22.0692 N   0  0  0  0  0  0  0  0  0  0  0  0
  -23.5001  -21.9061   17.1679 N   0  0  0  0  0  0  0  0  0  0  0  0
  -19.9052  -18.0359   17.5862 N   0  0  0  0  0  0  0  0  0  0  0  0
  -21.3160  -14.1964   19.5003 N   0  0  0  0  0  0  0  0  0  0  0  0
  -27.9626  -28.1882   20.5236 N   0  0  0  0  0  0  0  0  0  0  0  0
  -25.2685  -33.4791   23.8718 N   0  0  0  0  0  0  0  0  0  0  0  0
  -23.1762  -23.0666   19.2031 N   0  0  0  0  0  0  0  0  0  0  0  0
  -22.5499  -35.5841   22.7556 N   0  3  0  0  0  0  0  0  0  0  0  0
  -19.4764  -15.3222   18.7213 O   0  0  0  0  0  0  0  0  0  0  0  0
  -27.0061  -28.4905   22.6251 O   0  0  0  0  0  0  0  0  0  0  0  0
  -27.4416  -32.2302   22.4837 O   0  0  0  0  0  0  0  0  0  0  0  0
  -22.9892  -33.0537   23.9047 O   0  0  0  0  0  0  0  0  0  0  0  0
  -23.4293  -24.2229   17.2395 O   0  0  0  0  0  0  0  0  0  0  0  0
  -26.5748  -12.9098   20.8138 O   0  0  0  0  0  0  0  0  0  0  0  0
  -20.6986  -27.2752   21.1273 O   0  0  0  0  0  0  0  0  0  1  0  0
  -31.2664  -12.0199   18.0568 F   0  0  0  0  0  0  0  0  0  0  0  0
  -28.3484  -14.9742   20.3289 F   0  0  0  0  0  0  0  0  0  0  0  0
  1  2  1  0  0  0  0
  1  5  2  0  0  0  0
  2  6  2  0  0  0  0
  3  8  2  0  0  0  0
  3 16  1  0  0  0  0
  4  9  1  0  0  0  0
  4 16  2  0  0  0  0
  5 18  1  0  0  0  0
  6 20  1  0  0  0  0
  7 10  2  0  0  0  0
  7 19  1  0  0  0  0
  8 22  1  0  0  0  0
  9 22  2  0  0  0  0
 10 23  1  0  0  0  0
 11 12  2  0  0  0  0
 11 24  1  0  0  0  0
 12 25  1  0  0  0  0
 13 21  1  0  0  0  0
 13 23  2  0  0  0  0
 14 25  2  0  0  0  0
 14 26  1  0  0  0  0
 15 61  2  0  0  0  0
 15 63  1  0  0  0  0
 16 27  1  0  0  0  0
 17 27  1  0  0  0  0
 17 30  2  0  0  0  0
 17 31  1  0  0  0  0
 18 20  2  0  0  0  0
 18 36  1  0  0  0  0
 19 21  2  0  0  0  0
 19 37  1  0  0  0  0
 20 45  1  0  0  0  0
 21 38  1  0  0  0  0
 22 78  1  0  0  0  0
 23 79  1  0  0  0  0
 24 26  2  0  0  0  0
 24 78  1  0  0  0  0
 25 80  1  0  0  0  0
 26 81  1  0  0  0  0
 27 62  2  0  0  0  0
 28 29  2  0  0  0  0
 28 54  1  0  0  0  0
 28 61  1  0  0  0  0
 29 55  1  0  0  0  0
 29 63  1  0  0  0  0
 30 64  1  0  0  0  0
 30 67  1  0  0  0  0
 31 68  1  0  0  0  0
 31 73  2  0  0  0  0
 32 46  1  0  0  0  0
 32 69  1  0  0  0  0
 32 74  2  0  0  0  0
 33 58  1  0  0  0  0
 33 65  1  0  0  0  0
 33 75  2  0  0  0  0
 34 59  1  0  0  0  0
 34 70  1  0  0  0  0
 34 76  2  0  0  0  0
 35 66  1  0  0  0  0
 35 71  1  0  0  0  0
 35 77  2  0  0  0  0
 36 39  1  0  0  0  0
 37 46  1  0  0  0  0
 38 65  1  0  0  0  0
 39 41  1  0  0  0  0
 40 42  1  0  0  0  0
 40 43  1  0  0  0  0
 41 45  1  0  0  0  0
 42 47  1  0  0  0  0
 43 66  1  0  0  0  0
 44 47  1  0  0  0  0
 44 66  1  0  0  0  0
 45 69  1  0  0  0  0
 46 65  1  0  0  0  0
 47 64  1  0  0  0  0
 48 59  1  0  0  0  0
 49 60  1  0  0  0  0
 50 60  1  0  0  0  0
 51 60  1  0  0  0  0
 52 63  1  0  0  0  0
 53 72  1  0  0  0  0
 54 56  1  0  0  0  0
 55 71  1  0  0  0  0
 56 57  1  0  0  0  0
 57 79  1  0  0  0  0
 58 60  1  0  0  0  0
 58 70  1  0  0  0  0
 59 72  1  0  0  0  0
 62 64  1  0  0  0  0
M  CHG  1  72   1
M  ISO  4  35 100  57 101  71 100  79 101
M  END
> <Batch ID>
0053

> <Smiles>
CNC(C)C(=O)NC(C(=O)N1Cc2cc([101O:1][101CH2:1]CCc3ncn(C)c3C[100NH:0][100C:0](=O)N3CCCC(n4nc(-c5ccc(Oc6ccc(F)cc6F)cc5)c(C(N)=O)c4N)C3)ccc2CC1C(=O)NC1CCCc2ccccc21)C(C)(C)C

> <Shape>
0.263

> <Color>
0.068

> <Negative vol penalty>
0.000

$$$$

  -OEChem-04052317383D

 87 95  0     1  0  0  0  0  0999 V2000
  -23.2202   -7.7417   21.3079 C   0  0  0  0  0  0  0  0  0  0  0  0
  -23.9126   -8.7414   20.6323 C   0  0  0  0  0  0  0  0  0  0  0  0
  -24.7610  -30.5736   20.5265 C   0  0  0  0  0  0  0  0  0  0  0  0
  -24.1359  -29.2089   22.4197 C   0  0  0  0  0  0  0  0  0  0  0  0
  -21.9985   -8.0296   21.9151 C   0  0  0  0  0  0  0  0  0  0  0  0
  -23.3831  -10.0296   20.5625 C   0  0  0  0  0  0  0  0  0  0  0  0
  -26.8483  -13.6066   21.4801 C   0  0  0  0  0  0  0  0  0  0  0  0
  -24.3880  -31.7193   21.2292 C   0  0  0  0  0  0  0  0  0  0  0  0
  -23.7630  -30.3547   23.1224 C   0  0  0  0  0  0  0  0  0  0  0  0
  -27.7289  -13.9203   20.4457 C   0  0  0  0  0  0  0  0  0  0  0  0
  -23.9389  -35.0321   22.6569 C   0  0  0  0  0  0  0  0  0  0  0  0
  -24.8012  -36.1277   22.6156 C   0  0  0  0  0  0  0  0  0  0  0  0
  -26.4023  -15.8635   19.9137 C   0  0  0  0  0  0  0  0  0  0  0  0
  -26.5504  -34.7884   23.6073 C   0  0  0  0  0  0  0  0  0  0  0  0
  -30.0473  -18.3123   17.5966 C   0  0  0  0  0  0  0  0  0  0  0  0
  -24.6349  -29.3183   21.1217 C   0  0  0  0  0  0  0  0  0  0  0  0
  -26.2880  -27.5245   20.3756 C   0  0  0  0  0  0  0  0  0  0  0  0
  -21.4585   -9.3242   21.8609 C   0  0  0  0  0  0  0  0  0  0  0  0
  -25.7302  -14.4144   21.7325 C   0  0  0  0  0  0  0  0  0  0  0  0
  -22.1525  -10.3348   21.1683 C   0  0  0  0  0  0  0  0  0  0  0  0
  -25.5104  -15.5594   20.9534 C   0  0  0  0  0  0  0  0  0  0  0  0
  -23.8891  -31.6099   22.5271 C   0  0  0  0  0  0  0  0  0  0  0  0
  -27.5044  -15.0473   19.6605 C   0  0  0  0  0  0  0  0  0  0  0  0
  -24.3823  -33.8147   23.1735 C   0  0  0  0  0  0  0  0  0  0  0  0
  -26.1070  -36.0058   23.0907 C   0  0  0  0  0  0  0  0  0  0  0  0
  -25.6881  -33.6928   23.6487 C   0  0  0  0  0  0  0  0  0  0  0  0
  -25.0194  -28.1344   20.3961 C   0  0  0  0  0  0  0  0  0  0  0  0
  -29.9659  -19.5933   18.1033 C   0  0  0  0  0  0  0  0  0  0  0  0
  -30.5067  -17.3513   18.4739 C   0  0  0  0  0  0  0  0  0  0  0  0
  -26.1348  -26.4412   19.5453 C   0  0  0  0  0  0  0  0  0  0  0  0
  -30.7375  -18.8966   20.1248 C   0  0  0  0  0  0  0  0  0  0  0  0
  -27.4969  -27.9032   21.0472 C   0  0  0  0  0  0  0  0  0  0  0  0
  -22.5834  -13.9685   21.6813 C   0  0  0  0  0  0  0  0  0  0  0  0
  -22.5291  -16.9816   22.8815 C   0  0  0  0  0  0  0  0  0  0  0  0
  -24.1024  -19.9899   23.2307 C   0  0  0  0  0  0  0  0  0  0  0  0
  -23.2200  -22.0062   17.8190 C   0  0  0  0  0  0  0  0  0  0  0  0
  -20.1120   -9.5761   22.4919 C   0  0  0  0  0  0  0  0  0  0  0  0
  -24.8045  -14.0772   22.8691 C   0  0  0  0  0  0  0  0  0  0  0  0
  -24.3360  -16.4704   21.1964 C   0  0  0  0  0  0  0  0  0  0  0  0
  -19.8006  -11.0571   22.6920 C   0  0  0  0  0  0  0  0  0  0  0  0
  -22.3369  -25.1737   16.4540 C   0  0  0  0  0  0  0  0  0  0  0  0
  -20.1301  -11.8472   21.4295 C   0  0  0  0  0  0  0  0  0  0  0  0
  -23.0554  -26.1755   17.3597 C   0  0  0  0  0  0  0  0  0  0  0  0
  -21.8241  -23.9690   17.2400 C   0  0  0  0  0  0  0  0  0  0  0  0
  -23.5624  -24.2822   18.9587 C   0  0  0  0  0  0  0  0  0  0  0  0
  -21.6227  -11.7503   21.0918 C   0  0  1  0  0  0  0  0  0  0  0  0
  -23.4144  -14.6848   22.7079 C   0  0  1  0  0  0  0  0  0  0  0  0
  -24.1463  -25.4876   18.2022 C   0  0  2  0  0  0  0  0  0  0  0  0
  -31.1176  -19.2198   21.5302 C   0  0  0  0  0  0  0  0  0  0  0  0
  -32.0850  -15.4363   18.0576 C   0  0  0  0  0  0  0  0  0  0  0  0
  -23.7932  -22.2701   24.2319 C   0  0  0  0  0  0  0  0  0  0  0  0
  -20.6239  -17.7162   20.6142 C   0  0  0  0  0  0  0  0  0  0  0  0
  -21.1030  -20.1278   21.0863 C   0  0  0  0  0  0  0  0  0  0  0  0
  -20.0339  -18.7050   22.8342 C   0  0  0  0  0  0  0  0  0  0  0  0
  -26.4611  -19.6650   24.9885 C   0  0  0  0  0  0  0  0  0  0  0  0
  -27.8238  -21.2563   15.4542 C   0  0  0  0  0  0  0  0  0  0  0  0
  -29.4792  -20.7002   17.2293 C   0  0  0  0  0  0  0  0  0  0  0  0
  -25.8005  -19.9501   17.4501 C   0  0  0  0  0  0  0  0  0  0  0  0
  -24.7065  -20.1377   18.4958 C   0  0  0  0  0  0  0  0  0  0  0  0
  -27.0491  -20.7626   17.7689 C   0  0  0  0  0  0  0  0  0  0  0  0
  -29.7251  -14.9661   18.8133 C   0  0  0  0  0  0  0  0  0  1  0  0
  -30.6294  -15.9090   18.0079 C   0  0  1  0  0  0  0  0  0  0  0  0
  -22.4792  -18.3684   22.2871 C   0  0  1  0  0  0  0  0  0  0  0  0
  -24.3399  -20.8673   24.4465 C   0  0  2  0  0  0  0  0  0  0  0  0
  -21.0811  -18.7113   21.6994 C   0  0  0  0  0  0  0  0  0  0  0  0
  -24.1262  -27.4921   19.6388 N   0  0  0  0  0  0  0  0  0  0  0  0
  -30.3040  -19.9222   19.3674 N   0  0  0  0  0  0  0  0  0  0  0  0
  -30.8621  -17.6093   19.7496 N   0  0  0  0  0  0  0  0  0  0  0  0
  -24.8345  -26.4673   19.1346 N   0  0  0  0  0  0  0  0  0  0  0  0
  -23.4560  -16.0949   22.3154 N   0  0  0  0  0  0  0  0  0  0  0  0
  -22.9080  -23.3615   18.0160 N   0  0  0  0  0  0  0  0  0  0  0  0
  -26.9869  -25.4784   19.1335 N   0  0  0  0  0  0  0  0  0  0  0  0
  -27.4794  -29.0432   21.8622 N   0  0  0  0  0  0  0  0  0  0  0  0
  -22.3927  -12.6263   21.9487 N   0  0  0  0  0  0  0  0  0  0  0  0
  -22.9259  -19.2785   23.3361 N   0  0  0  0  0  0  0  0  0  0  0  0
  -24.2645  -21.5112   18.5901 N   0  0  0  0  0  0  0  0  0  0  0  0
  -25.7985  -20.9701   24.7341 N   0  3  0  0  0  0  0  0  0  0  0  0
  -28.0963  -20.4865   16.7208 N   0  3  1  0  0  0  0  0  0  0  0  0
  -28.5653  -27.2593   20.9150 O   0  0  0  0  0  0  0  0  0  0  0  0
  -22.1462  -14.5881   20.7186 O   0  0  0  0  0  0  0  0  0  0  0  0
  -21.7785  -16.6979   23.8183 O   0  0  0  0  0  0  0  0  0  0  0  0
  -24.8807  -19.9433   22.2806 O   0  0  0  0  0  0  0  0  0  0  0  0
  -22.6161  -21.2917   17.0117 O   0  0  0  0  0  0  0  0  0  0  0  0
  -23.5253  -32.7277   23.2132 O   0  0  0  0  0  0  0  0  0  0  0  0
  -28.3620  -15.3554   18.6498 O   0  0  0  0  0  0  0  0  0  1  0  0
  -26.9354  -37.0576   23.0495 F   0  0  0  0  0  0  0  0  0  0  0  0
  -26.1201  -32.5254   24.1451 F   0  0  0  0  0  0  0  0  0  0  0  0
  1  2  1  0  0  0  0
  1  5  2  0  0  0  0
  2  6  2  0  0  0  0
  3  8  2  0  0  0  0
  3 16  1  0  0  0  0
  4  9  1  0  0  0  0
  4 16  2  0  0  0  0
  5 18  1  0  0  0  0
  6 20  1  0  0  0  0
  7 10  2  0  0  0  0
  7 19  1  0  0  0  0
  8 22  1  0  0  0  0
  9 22  2  0  0  0  0
 10 23  1  0  0  0  0
 11 12  2  0  0  0  0
 11 24  1  0  0  0  0
 12 25  1  0  0  0  0
 13 21  1  0  0  0  0
 13 23  2  0  0  0  0
 14 25  2  0  0  0  0
 14 26  1  0  0  0  0
 15 28  2  0  0  0  0
 15 29  1  0  0  0  0
 16 27  1  0  0  0  0
 17 27  1  0  0  0  0
 17 30  2  0  0  0  0
 17 32  1  0  0  0  0
 18 20  2  0  0  0  0
 18 37  1  0  0  0  0
 19 21  2  0  0  0  0
 19 38  1  0  0  0  0
 20 46  1  0  0  0  0
 21 39  1  0  0  0  0
 22 84  1  0  0  0  0
 23 85  1  0  0  0  0
 24 26  2  0  0  0  0
 24 84  1  0  0  0  0
 25 86  1  0  0  0  0
 26 87  1  0  0  0  0
 27 66  2  0  0  0  0
 28 57  1  0  0  0  0
 28 67  1  0  0  0  0
 29 62  1  0  0  0  0
 29 68  2  0  0  0  0
 30 69  1  0  0  0  0
 30 72  1  0  0  0  0
 31 49  1  0  0  0  0
 31 67  2  0  0  0  0
 31 68  1  0  0  0  0
 32 73  1  0  0  0  0
 32 79  2  0  0  0  0
 33 47  1  0  0  0  0
 33 74  1  0  0  0  0
 33 80  2  0  0  0  0
 34 63  1  0  0  0  0
 34 70  1  0  0  0  0
 34 81  2  0  0  0  0
 35 64  1  0  0  0  0
 35 75  1  0  0  0  0
 35 82  2  0  0  0  0
 36 71  1  0  0  0  0
 36 76  1  0  0  0  0
 36 83  2  0  0  0  0
 37 40  1  0  0  0  0
 38 47  1  0  0  0  0
 39 70  1  0  0  0  0
 40 42  1  0  0  0  0
 41 43  1  0  0  0  0
 41 44  1  0  0  0  0
 42 46  1  0  0  0  0
 43 48  1  0  0  0  0
 44 71  1  0  0  0  0
 45 48  1  0  0  0  0
 45 71  1  0  0  0  0
 46 74  1  0  0  0  0
 47 70  1  0  0  0  0
 48 69  1  0  0  0  0
 50 62  1  0  0  0  0
 51 64  1  0  0  0  0
 52 65  1  0  0  0  0
 53 65  1  0  0  0  0
 54 65  1  0  0  0  0
 55 77  1  0  0  0  0
 56 78  1  0  0  0  0
 57 78  1  0  0  0  0
 58 59  1  0  0  0  0
 58 60  1  0  0  0  0
 59 76  1  0  0  0  0
 60 78  1  0  0  0  0
 61 62  1  0  0  0  0
 61 85  1  0  0  0  0
 63 65  1  0  0  0  0
 63 75  1  0  0  0  0
 64 77  1  0  0  0  0
 66 69  1  0  0  0  0
M  CHG  2  77   1  78   1
M  ISO  4  36 100  61 101  76 100  85 101
M  END
> <Batch ID>
0053

> <Smiles>
CNC(C)C(=O)NC(C(=O)N1Cc2cc([101O:1][101CH2:1]C(C)c3cc(CN(C)CCC[100NH:0][100C:0](=O)N4CCCC(n5nc(-c6ccc(Oc7ccc(F)cc7F)cc6)c(C(N)=O)c5N)C4)nc(C)n3)ccc2CC1C(=O)NC1CCCc2ccccc21)C(C)(C)C

> <Shape>
0.214

> <Color>
0.091

> <Negative vol penalty>
0.000

$$$$

  -OEChem-04052317383D

 83 91  0     1  0  0  0  0  0999 V2000
  -26.1613  -18.4882   17.2683 C   0  0  0  0  0  0  0  0  0  0  0  0
  -25.3895  -19.6437   17.3364 C   0  0  0  0  0  0  0  0  0  0  0  0
  -23.0167  -14.6861   20.9723 C   0  0  0  0  0  0  0  0  0  0  0  0
  -24.7317  -16.3870   20.9208 C   0  0  0  0  0  0  0  0  0  0  0  0
  -27.2882  -18.3553   18.0785 C   0  0  0  0  0  0  0  0  0  0  0  0
  -25.7435  -20.6665   18.2156 C   0  0  0  0  0  0  0  0  0  0  0  0
  -25.0664  -26.6873   17.3228 C   0  0  0  0  0  0  0  0  0  0  0  0
  -23.8201  -13.8524   20.1945 C   0  0  0  0  0  0  0  0  0  0  0  0
  -25.5352  -15.5533   20.1430 C   0  0  0  0  0  0  0  0  0  0  0  0
  -24.0969  -27.5952   17.7466 C   0  0  0  0  0  0  0  0  0  0  0  0
  -28.1860  -13.7334   18.4461 C   0  0  0  0  0  0  0  0  0  0  0  0
  -29.5337  -13.6260   18.7891 C   0  0  0  0  0  0  0  0  0  0  0  0
  -25.4989  -28.2134   19.6098 C   0  0  0  0  0  0  0  0  0  0  0  0
  -28.9124  -12.7840   20.9667 C   0  0  0  0  0  0  0  0  0  0  0  0
  -18.7836  -26.7723   21.9133 C   0  0  0  0  0  0  0  0  0  0  0  0
  -20.7581  -27.4207   23.5890 C   0  0  0  0  0  0  0  0  0  0  0  0
  -23.4724  -15.9534   21.3354 C   0  0  0  0  0  0  0  0  0  0  0  0
  -22.6076  -16.8935   23.5435 C   0  0  0  0  0  0  0  0  0  0  0  0
  -27.6617  -19.3811   18.9611 C   0  0  0  0  0  0  0  0  0  0  0  0
  -26.2567  -26.5275   18.0467 C   0  0  0  0  0  0  0  0  0  0  0  0
  -26.8757  -20.5466   19.0393 C   0  0  0  0  0  0  0  0  0  0  0  0
  -26.4830  -27.3047   19.1917 C   0  0  0  0  0  0  0  0  0  0  0  0
  -25.0794  -14.2860   19.7799 C   0  0  0  0  0  0  0  0  0  0  0  0
  -24.3118  -28.3563   18.8919 C   0  0  0  0  0  0  0  0  0  0  0  0
  -27.2014  -13.3662   19.3634 C   0  0  0  0  0  0  0  0  0  0  0  0
  -29.8969  -13.1513   20.0494 C   0  0  0  0  0  0  0  0  0  0  0  0
  -27.5646  -12.8914   20.6237 C   0  0  0  0  0  0  0  0  0  0  0  0
  -22.6427  -16.8153   22.1384 C   0  0  0  0  0  0  0  0  0  0  0  0
  -19.0267  -26.0287   23.0471 C   0  0  0  0  0  0  0  0  0  0  0  0
  -20.5157  -28.1639   22.4549 C   0  0  0  0  0  0  0  0  0  0  0  0
  -21.6634  -17.8547   23.8104 C   0  0  0  0  0  0  0  0  0  0  0  0
  -23.3611  -16.1628   24.5202 C   0  0  0  0  0  0  0  0  0  0  0  0
  -27.6299  -24.1197   19.6024 C   0  0  0  0  0  0  0  0  0  0  0  0
  -30.0826  -26.2219   19.8978 C   0  0  0  0  0  0  0  0  0  0  0  0
  -31.1217  -29.4721   19.9551 C   0  0  0  0  0  0  0  0  0  0  0  0
  -19.5163  -22.8014   22.8791 C   0  0  0  0  0  0  0  0  0  0  0  0
  -28.8612  -19.1720   19.8511 C   0  0  0  0  0  0  0  0  0  0  0  0
  -27.3041  -25.5632   17.5614 C   0  0  0  0  0  0  0  0  0  0  0  0
  -27.7529  -27.1854   19.9928 C   0  0  0  0  0  0  0  0  0  0  0  0
  -29.3809  -20.4596   20.4854 C   0  0  0  0  0  0  0  0  0  0  0  0
  -18.3151  -20.1184   20.7681 C   0  0  0  0  0  0  0  0  0  0  0  0
  -28.2272  -21.2743   21.0616 C   0  0  0  0  0  0  0  0  0  0  0  0
  -19.3408  -19.0210   21.0577 C   0  0  0  0  0  0  0  0  0  0  0  0
  -18.9724  -21.4951   20.7365 C   0  0  0  0  0  0  0  0  0  0  0  0
  -20.7586  -20.7477   22.2612 C   0  0  0  0  0  0  0  0  0  0  0  0
  -27.2414  -21.6886   19.9625 C   0  0  1  0  0  0  0  0  0  0  0  0
  -28.2570  -25.1113   18.6637 C   0  0  1  0  0  0  0  0  0  0  0  0
  -20.1526  -19.3341   22.3286 C   0  0  2  0  0  0  0  0  0  0  0  0
  -33.1792  -30.8775   20.2529 C   0  0  0  0  0  0  0  0  0  0  0  0
  -19.9997  -31.0652   21.2864 C   0  0  0  0  0  0  0  0  0  0  0  0
  -29.9931  -25.7116   22.9047 C   0  0  0  0  0  0  0  0  0  0  0  0
  -31.3619  -27.7830   23.2267 C   0  0  0  0  0  0  0  0  0  0  0  0
  -32.2956  -25.8606   21.9401 C   0  0  0  0  0  0  0  0  0  0  0  0
  -30.8621  -30.6328   17.2451 C   0  0  0  0  0  0  0  0  0  0  0  0
  -18.1882  -24.8402   23.3653 C   0  0  0  0  0  0  0  0  0  0  0  0
  -22.4648  -30.8960   20.7967 C   0  0  0  0  0  0  0  0  0  0  0  0
  -23.6529  -29.9899   20.4898 C   0  0  0  0  0  0  0  0  0  1  0  0
  -30.4724  -27.2750   20.9068 C   0  0  1  0  0  0  0  0  0  0  0  0
  -32.2714  -30.1745   19.2557 C   0  0  2  0  0  0  0  0  0  0  0  0
  -21.1698  -30.1165   21.0459 C   0  0  1  0  0  0  0  0  0  0  0  0
  -31.0059  -26.6586   22.2308 C   0  0  0  0  0  0  0  0  0  0  0  0
  -20.0180  -26.3397   23.9055 N   0  0  0  0  0  0  0  0  0  0  0  0
  -19.5240  -27.8530   21.5967 N   0  0  0  0  0  0  0  0  0  0  0  0
  -21.7886  -17.6594   21.5535 N   0  0  0  0  0  0  0  0  0  0  0  0
  -21.2079  -18.2771   22.5962 N   0  0  0  0  0  0  0  0  0  0  0  0
  -28.7439  -26.2243   19.4813 N   0  0  0  0  0  0  0  0  0  0  0  0
  -19.7133  -21.7381   21.9824 N   0  0  0  0  0  0  0  0  0  0  0  0
  -21.1867  -18.3713   24.9629 N   0  0  0  0  0  0  0  0  0  0  0  0
  -24.2893  -15.2123   24.0738 N   0  0  0  0  0  0  0  0  0  0  0  0
  -21.3224  -29.2591   22.2028 N   0  0  0  0  0  0  0  0  0  0  0  0
  -27.7683  -22.8035   19.2050 N   0  0  0  0  0  0  0  0  0  0  0  0
  -31.4208  -28.1550   20.2326 N   0  0  0  0  0  0  0  0  0  0  0  0
  -18.5119  -23.6990   22.5383 N   0  0  0  0  0  0  0  0  0  0  0  0
  -31.7515  -31.1898   18.2966 N   0  3  0  0  0  0  0  0  0  0  0  0
  -23.2038  -16.3355   25.7527 O   0  0  0  0  0  0  0  0  0  0  0  0
  -27.0639  -24.5190   20.6133 O   0  0  0  0  0  0  0  0  0  0  0  0
  -30.9363  -25.4309   19.4888 O   0  0  0  0  0  0  0  0  0  0  0  0
  -30.0654  -30.0364   20.2313 O   0  0  0  0  0  0  0  0  0  0  0  0
  -20.1830  -22.9380   23.9106 O   0  0  0  0  0  0  0  0  0  0  0  0
  -25.8638  -13.4726   19.0211 O   0  0  0  0  0  0  0  0  0  0  0  0
  -23.3669  -29.2428   19.3081 O   0  0  0  0  0  0  0  0  0  1  0  0
  -31.1912  -13.0468   20.3781 F   0  0  0  0  0  0  0  0  0  0  0  0
  -26.6233  -12.5360   21.5088 F   0  0  0  0  0  0  0  0  0  0  0  0
  1  2  1  0  0  0  0
  1  5  2  0  0  0  0
  2  6  2  0  0  0  0
  3  8  2  0  0  0  0
  3 17  1  0  0  0  0
  4  9  1  0  0  0  0
  4 17  2  0  0  0  0
  5 19  1  0  0  0  0
  6 21  1  0  0  0  0
  7 10  2  0  0  0  0
  7 20  1  0  0  0  0
  8 23  1  0  0  0  0
  9 23  2  0  0  0  0
 10 24  1  0  0  0  0
 11 12  2  0  0  0  0
 11 25  1  0  0  0  0
 12 26  1  0  0  0  0
 13 22  1  0  0  0  0
 13 24  2  0  0  0  0
 14 26  2  0  0  0  0
 14 27  1  0  0  0  0
 15 29  2  0  0  0  0
 15 63  1  0  0  0  0
 16 30  1  0  0  0  0
 16 62  2  0  0  0  0
 17 28  1  0  0  0  0
 18 28  1  0  0  0  0
 18 31  2  0  0  0  0
 18 32  1  0  0  0  0
 19 21  2  0  0  0  0
 19 37  1  0  0  0  0
 20 22  2  0  0  0  0
 20 38  1  0  0  0  0
 21 46  1  0  0  0  0
 22 39  1  0  0  0  0
 23 80  1  0  0  0  0
 24 81  1  0  0  0  0
 25 27  2  0  0  0  0
 25 80  1  0  0  0  0
 26 82  1  0  0  0  0
 27 83  1  0  0  0  0
 28 64  2  0  0  0  0
 29 55  1  0  0  0  0
 29 62  1  0  0  0  0
 30 63  2  0  0  0  0
 30 70  1  0  0  0  0
 31 65  1  0  0  0  0
 31 68  1  0  0  0  0
 32 69  1  0  0  0  0
 32 75  2  0  0  0  0
 33 47  1  0  0  0  0
 33 71  1  0  0  0  0
 33 76  2  0  0  0  0
 34 58  1  0  0  0  0
 34 66  1  0  0  0  0
 34 77  2  0  0  0  0
 35 59  1  0  0  0  0
 35 72  1  0  0  0  0
 35 78  2  0  0  0  0
 36 67  1  0  0  0  0
 36 73  1  0  0  0  0
 36 79  2  0  0  0  0
 37 40  1  0  0  0  0
 38 47  1  0  0  0  0
 39 66  1  0  0  0  0
 40 42  1  0  0  0  0
 41 43  1  0  0  0  0
 41 44  1  0  0  0  0
 42 46  1  0  0  0  0
 43 48  1  0  0  0  0
 44 67  1  0  0  0  0
 45 48  1  0  0  0  0
 45 67  1  0  0  0  0
 46 71  1  0  0  0  0
 47 66  1  0  0  0  0
 48 65  1  0  0  0  0
 49 59  1  0  0  0  0
 50 60  1  0  0  0  0
 51 61  1  0  0  0  0
 52 61  1  0  0  0  0
 53 61  1  0  0  0  0
 54 74  1  0  0  0  0
 55 73  1  0  0  0  0
 56 57  1  0  0  0  0
 56 60  1  0  0  0  0
 57 81  1  0  0  0  0
 58 61  1  0  0  0  0
 58 72  1  0  0  0  0
 59 74  1  0  0  0  0
 60 70  1  0  0  0  0
 64 65  1  0  0  0  0
M  CHG  1  74   1
M  ISO  4  36 100  57 101  73 100  81 101
M  END
> <Batch ID>
0053

> <Smiles>
CNC(C)C(=O)NC(C(=O)N1Cc2cc([101O:1][101CH2:1]CC(C)Nc3cnc(C[100NH:0][100C:0](=O)N4CCCC(n5nc(-c6ccc(Oc7ccc(F)cc7F)cc6)c(C(N)=O)c5N)C4)cn3)ccc2CC1C(=O)NC1CCCc2ccccc21)C(C)(C)C

> <Shape>
0.230

> <Color>
0.059

> <Negative vol penalty>
0.000

$$$$

  -OEChem-04052317383D

 82 90  0     1  0  0  0  0  0999 V2000
  -29.5480  -10.7381   16.0628 C   0  0  0  0  0  0  0  0  0  0  0  0
  -28.5762  -11.6638   15.6966 C   0  0  0  0  0  0  0  0  0  0  0  0
  -25.2523  -30.5705   20.2261 C   0  0  0  0  0  0  0  0  0  0  0  0
  -24.0558  -28.9359   21.5428 C   0  0  0  0  0  0  0  0  0  0  0  0
  -30.0598  -10.7425   17.3597 C   0  0  0  0  0  0  0  0  0  0  0  0
  -28.1148  -12.5938   16.6275 C   0  0  0  0  0  0  0  0  0  0  0  0
  -26.3971  -18.3674   15.5224 C   0  0  0  0  0  0  0  0  0  0  0  0
  -25.0049  -31.5369   21.2010 C   0  0  0  0  0  0  0  0  0  0  0  0
  -23.8084  -29.9023   22.5177 C   0  0  0  0  0  0  0  0  0  0  0  0
  -25.1459  -18.9558   15.3435 C   0  0  0  0  0  0  0  0  0  0  0  0
  -26.2481  -32.4002   24.2246 C   0  0  0  0  0  0  0  0  0  0  0  0
  -27.3088  -33.2209   24.6077 C   0  0  0  0  0  0  0  0  0  0  0  0
  -25.1153  -19.5846   17.6722 C   0  0  0  0  0  0  0  0  0  0  0  0
  -26.0620  -35.1644   23.8969 C   0  0  0  0  0  0  0  0  0  0  0  0
  -20.1742  -20.4168   15.4388 C   0  0  0  0  0  0  0  0  0  0  0  0
  -24.7777  -29.2700   20.3970 C   0  0  0  0  0  0  0  0  0  0  0  0
  -26.1372  -27.4020   19.3152 C   0  0  0  0  0  0  0  0  0  0  0  0
  -29.6115  -11.6793   18.3042 C   0  0  0  0  0  0  0  0  0  0  0  0
  -27.0130  -18.3736   16.7822 C   0  0  0  0  0  0  0  0  0  0  0  0
  -28.6202  -12.6100   17.9386 C   0  0  0  0  0  0  0  0  0  0  0  0
  -26.3755  -18.9978   17.8639 C   0  0  0  0  0  0  0  0  0  0  0  0
  -24.2830  -31.2028   22.3468 C   0  0  0  0  0  0  0  0  0  0  0  0
  -24.5035  -19.5620   16.4191 C   0  0  0  0  0  0  0  0  0  0  0  0
  -25.0942  -32.9616   23.6776 C   0  0  0  0  0  0  0  0  0  0  0  0
  -27.2158  -34.6030   24.4439 C   0  0  0  0  0  0  0  0  0  0  0  0
  -25.0012  -34.3437   23.5138 C   0  0  0  0  0  0  0  0  0  0  0  0
  -25.0324  -28.2713   19.3900 C   0  0  0  0  0  0  0  0  0  0  0  0
  -21.3933  -20.7888   14.9465 C   0  0  0  0  0  0  0  0  0  0  0  0
  -25.9109  -26.6557   18.1846 C   0  0  0  0  0  0  0  0  0  0  0  0
  -19.9632  -22.4291   14.5406 C   0  0  0  0  0  0  0  0  0  0  0  0
  -27.2669  -27.2800   20.1896 C   0  0  0  0  0  0  0  0  0  0  0  0
  -27.9499  -16.1321   18.8320 C   0  0  0  0  0  0  0  0  0  0  0  0
  -29.1874  -18.6661   20.4351 C   0  0  0  0  0  0  0  0  0  0  0  0
  -29.1021  -22.0195   21.0627 C   0  0  0  0  0  0  0  0  0  0  0  0
  -20.9310  -25.1751   15.3804 C   0  0  0  0  0  0  0  0  0  0  0  0
  -30.1602  -11.6148   19.7076 C   0  0  0  0  0  0  0  0  0  0  0  0
  -28.3747  -17.7579   16.9526 C   0  0  0  0  0  0  0  0  0  0  0  0
  -27.0032  -19.0493   19.2320 C   0  0  0  0  0  0  0  0  0  0  0  0
  -29.8891  -12.8746   20.5260 C   0  0  0  0  0  0  0  0  0  0  0  0
  -23.7630  -26.8854   13.9136 C   0  0  0  0  0  0  0  0  0  0  0  0
  -28.4348  -13.3083   20.3725 C   0  0  0  0  0  0  0  0  0  0  0  0
  -24.5156  -27.3525   15.1609 C   0  0  0  0  0  0  0  0  0  0  0  0
  -22.2530  -26.9749   14.1133 C   0  0  0  0  0  0  0  0  0  0  0  0
  -22.4947  -26.7010   16.5505 C   0  0  0  0  0  0  0  0  0  0  0  0
  -28.1123  -13.6506   18.9129 C   0  0  1  0  0  0  0  0  0  0  0  0
  -28.6793  -17.3715   18.3966 C   0  0  1  0  0  0  0  0  0  0  0  0
  -24.0261  -26.6133   16.4203 C   0  0  2  0  0  0  0  0  0  0  0  0
  -18.8396  -23.6546   12.6439 C   0  0  0  0  0  0  0  0  0  0  0  0
  -30.2117  -23.7931   22.4485 C   0  0  0  0  0  0  0  0  0  0  0  0
  -17.6954  -21.4262   17.0447 C   0  0  0  0  0  0  0  0  0  0  0  0
  -17.1157  -20.3710   14.8183 C   0  0  0  0  0  0  0  0  0  0  0  0
  -27.6622  -17.6962   22.8933 C   0  0  0  0  0  0  0  0  0  0  0  0
  -28.0238  -19.9504   23.9210 C   0  0  0  0  0  0  0  0  0  0  0  0
  -29.9809  -18.5096   23.3582 C   0  0  0  0  0  0  0  0  0  0  0  0
  -30.0118  -23.4904   18.6611 C   0  0  0  0  0  0  0  0  0  0  0  0
  -22.7167  -20.0818   14.9382 C   0  0  0  0  0  0  0  0  0  1  0  0
  -19.4018  -23.7215   14.0743 C   0  0  2  0  0  0  0  0  0  0  0  0
  -28.6777  -19.6136   21.4941 C   0  0  1  0  0  0  0  0  0  0  0  0
  -30.2035  -23.0630   21.1145 C   0  0  2  0  0  0  0  0  0  0  0  0
  -17.9034  -21.4728   15.5296 C   0  0  0  0  0  0  0  0  0  0  0  0
  -28.5732  -18.9400   22.8914 C   0  0  0  0  0  0  0  0  0  0  0  0
  -24.1686  -28.0948   18.3867 N   0  0  0  0  0  0  0  0  0  0  0  0
  -19.3085  -21.4506   15.1743 N   0  0  0  0  0  0  0  0  0  0  0  0
  -24.7305  -27.1061   17.6708 N   0  0  0  0  0  0  0  0  0  0  0  0
  -21.2334  -22.0376   14.3962 N   0  3  0  0  0  0  0  0  0  0  0  0
  -28.3327  -18.4279   19.3496 N   0  0  0  0  0  0  0  0  0  0  0  0
  -21.8504  -26.2354   15.3179 N   0  0  0  0  0  0  0  0  0  0  0  0
  -26.6085  -25.6648   17.5897 N   0  0  0  0  0  0  0  0  0  0  0  0
  -27.3425  -28.1247   21.3054 N   0  0  0  0  0  0  0  0  0  0  0  0
  -28.6316  -14.9582   18.5738 N   0  0  0  0  0  0  0  0  0  0  0  0
  -29.5556  -20.7783   21.4564 N   0  0  0  0  0  0  0  0  0  0  0  0
  -20.3605  -24.7998   14.1703 N   0  0  0  0  0  0  0  0  0  0  0  0
  -30.0165  -24.0677   20.0299 N   0  3  0  0  0  0  0  0  0  0  0  0
  -28.1905  -26.4579   19.9783 O   0  0  0  0  0  0  0  0  0  0  0  0
  -26.8507  -16.2335   19.3642 O   0  0  0  0  0  0  0  0  0  0  0  0
  -30.3058  -18.1615   20.5628 O   0  0  0  0  0  0  0  0  0  0  0  0
  -27.9534  -22.2803   20.7120 O   0  0  0  0  0  0  0  0  0  0  0  0
  -20.6435  -24.6012   16.4364 O   0  0  0  0  0  0  0  0  0  0  0  0
  -24.0416  -32.1456   23.2984 O   0  0  0  0  0  0  0  0  0  0  0  0
  -23.2820  -20.1366   16.2473 O   0  0  0  0  0  0  0  0  0  1  0  0
  -28.2340  -35.3911   24.8133 F   0  0  0  0  0  0  0  0  0  0  0  0
  -23.8948  -34.8889   22.9899 F   0  0  0  0  0  0  0  0  0  0  0  0
  1  2  1  0  0  0  0
  1  5  2  0  0  0  0
  2  6  2  0  0  0  0
  3  8  2  0  0  0  0
  3 16  1  0  0  0  0
  4  9  1  0  0  0  0
  4 16  2  0  0  0  0
  5 18  1  0  0  0  0
  6 20  1  0  0  0  0
  7 10  2  0  0  0  0
  7 19  1  0  0  0  0
  8 22  1  0  0  0  0
  9 22  2  0  0  0  0
 10 23  1  0  0  0  0
 11 12  2  0  0  0  0
 11 24  1  0  0  0  0
 12 25  1  0  0  0  0
 13 21  1  0  0  0  0
 13 23  2  0  0  0  0
 14 25  2  0  0  0  0
 14 26  1  0  0  0  0
 15 28  2  0  0  0  0
 15 63  1  0  0  0  0
 16 27  1  0  0  0  0
 17 27  1  0  0  0  0
 17 29  2  0  0  0  0
 17 31  1  0  0  0  0
 18 20  2  0  0  0  0
 18 36  1  0  0  0  0
 19 21  2  0  0  0  0
 19 37  1  0  0  0  0
 20 45  1  0  0  0  0
 21 38  1  0  0  0  0
 22 79  1  0  0  0  0
 23 80  1  0  0  0  0
 24 26  2  0  0  0  0
 24 79  1  0  0  0  0
 25 81  1  0  0  0  0
 26 82  1  0  0  0  0
 27 62  2  0  0  0  0
 28 56  1  0  0  0  0
 28 65  1  0  0  0  0
 29 64  1  0  0  0  0
 29 68  1  0  0  0  0
 30 57  1  0  0  0  0
 30 63  1  0  0  0  0
 30 65  2  0  0  0  0
 31 69  1  0  0  0  0
 31 74  2  0  0  0  0
 32 46  1  0  0  0  0
 32 70  1  0  0  0  0
 32 75  2  0  0  0  0
 33 58  1  0  0  0  0
 33 66  1  0  0  0  0
 33 76  2  0  0  0  0
 34 59  1  0  0  0  0
 34 71  1  0  0  0  0
 34 77  2  0  0  0  0
 35 67  1  0  0  0  0
 35 72  1  0  0  0  0
 35 78  2  0  0  0  0
 36 39  1  0  0  0  0
 37 46  1  0  0  0  0
 38 66  1  0  0  0  0
 39 41  1  0  0  0  0
 40 42  1  0  0  0  0
 40 43  1  0  0  0  0
 41 45  1  0  0  0  0
 42 47  1  0  0  0  0
 43 67  1  0  0  0  0
 44 47  1  0  0  0  0
 44 67  1  0  0  0  0
 45 70  1  0  0  0  0
 46 66  1  0  0  0  0
 47 64  1  0  0  0  0
 48 57  1  0  0  0  0
 49 59  1  0  0  0  0
 50 60  1  0  0  0  0
 51 60  1  0  0  0  0
 52 61  1  0  0  0  0
 53 61  1  0  0  0  0
 54 61  1  0  0  0  0
 55 73  1  0  0  0  0
 56 80  1  0  0  0  0
 57 72  1  0  0  0  0
 58 61  1  0  0  0  0
 58 71  1  0  0  0  0
 59 73  1  0  0  0  0
 60 63  1  0  0  0  0
 62 64  1  0  0  0  0
M  CHG  2  65   1  73   1
M  ISO  4  35 100  56 101  72 100  80 101
M  END
> <Batch ID>
0053

> <Smiles>
CNC(C)C(=O)NC(C(=O)N1Cc2cc([101O:1][101CH2:1]c3cn(C(C)C)c(C(C)[100NH:0][100C:0](=O)N4CCCC(n5nc(-c6ccc(Oc7ccc(F)cc7F)cc6)c(C(N)=O)c5N)C4)n3)ccc2CC1C(=O)NC1CCCc2ccccc21)C(C)(C)C

> <Shape>
0.226

> <Color>
0.072

> <Negative vol penalty>
0.000

$$$$

  -OEChem-04052317383D

 82 90  0     1  0  0  0  0  0999 V2000
  -20.2918  -33.0884   18.8126 C   0  0  0  0  0  0  0  0  0  0  0  0
  -21.5837  -32.6114   19.0100 C   0  0  0  0  0  0  0  0  0  0  0  0
  -29.7988  -17.3938   21.1643 C   0  0  0  0  0  0  0  0  0  0  0  0
  -31.4375  -18.0595   19.5186 C   0  0  0  0  0  0  0  0  0  0  0  0
  -19.3204  -32.8928   19.7934 C   0  0  0  0  0  0  0  0  0  0  0  0
  -21.9052  -31.9394   20.1888 C   0  0  0  0  0  0  0  0  0  0  0  0
  -24.6324  -27.7543   19.3576 C   0  0  0  0  0  0  0  0  0  0  0  0
  -30.1751  -16.0608   20.9999 C   0  0  0  0  0  0  0  0  0  0  0  0
  -31.8139  -16.7265   19.3541 C   0  0  0  0  0  0  0  0  0  0  0  0
  -25.9907  -27.9218   19.0912 C   0  0  0  0  0  0  0  0  0  0  0  0
  -30.4572  -12.4440   20.7501 C   0  0  0  0  0  0  0  0  0  0  0  0
  -29.4442  -11.4916   20.6384 C   0  0  0  0  0  0  0  0  0  0  0  0
  -26.5031  -27.3554   21.3794 C   0  0  0  0  0  0  0  0  0  0  0  0
  -28.6043  -12.6155   18.6716 C   0  0  0  0  0  0  0  0  0  0  0  0
  -30.7978  -27.0292   17.9747 C   0  0  0  0  0  0  0  0  0  0  0  0
  -30.4299  -18.3932   20.4236 C   0  0  0  0  0  0  0  0  0  0  0  0
  -30.5786  -20.6997   21.5033 C   0  0  0  0  0  0  0  0  0  0  0  0
  -19.6275  -32.2097   20.9807 C   0  0  0  0  0  0  0  0  0  0  0  0
  -24.1978  -27.3961   20.6418 C   0  0  0  0  0  0  0  0  0  0  0  0
  -20.9372  -31.7357   21.1870 C   0  0  0  0  0  0  0  0  0  0  0  0
  -25.1390  -27.1815   21.6588 C   0  0  0  0  0  0  0  0  0  0  0  0
  -31.1827  -15.7271   20.0948 C   0  0  0  0  0  0  0  0  0  0  0  0
  -26.9260  -27.7252   20.1030 C   0  0  0  0  0  0  0  0  0  0  0  0
  -30.5436  -13.4822   19.8225 C   0  0  0  0  0  0  0  0  0  0  0  0
  -28.5178  -11.5773   19.5992 C   0  0  0  0  0  0  0  0  0  0  0  0
  -29.6172  -13.5679   18.7833 C   0  0  0  0  0  0  0  0  0  0  0  0
  -30.0412  -19.7703   20.5926 C   0  0  0  0  0  0  0  0  0  0  0  0
  -30.9303  -26.8654   19.3307 C   0  0  0  0  0  0  0  0  0  0  0  0
  -29.8751  -21.8559   21.2693 C   0  0  0  0  0  0  0  0  0  0  0  0
  -31.6205  -20.5328   22.4740 C   0  0  0  0  0  0  0  0  0  0  0  0
  -22.3584  -28.7569   22.8482 C   0  0  0  0  0  0  0  0  0  0  0  0
  -22.7533  -25.9187   24.3685 C   0  0  0  0  0  0  0  0  0  0  0  0
  -24.6360  -23.1071   24.8124 C   0  0  0  0  0  0  0  0  0  0  0  0
  -26.8153  -23.4951   16.2206 C   0  0  0  0  0  0  0  0  0  0  0  0
  -18.5563  -32.0639   22.0323 C   0  0  0  0  0  0  0  0  0  0  0  0
  -22.7311  -27.1931   20.9061 C   0  0  0  0  0  0  0  0  0  0  0  0
  -24.7255  -26.7763   23.0493 C   0  0  0  0  0  0  0  0  0  0  0  0
  -18.8813  -31.0136   23.0913 C   0  0  0  0  0  0  0  0  0  0  0  0
  -25.6329  -23.4248   19.7275 C   0  0  0  0  0  0  0  0  0  0  0  0
  -20.3152  -31.1787   23.5846 C   0  0  0  0  0  0  0  0  0  0  0  0
  -26.6426  -22.4969   20.4009 C   0  0  0  0  0  0  0  0  0  0  0  0
  -25.4628  -23.0990   18.2468 C   0  0  0  0  0  0  0  0  0  0  0  0
  -27.7490  -22.1613   18.1551 C   0  0  0  0  0  0  0  0  0  0  0  0
  -21.3182  -30.9803   22.4417 C   0  0  1  0  0  0  0  0  0  0  0  0
  -22.3653  -27.3288   22.3809 C   0  0  1  0  0  0  0  0  0  0  0  0
  -27.9783  -22.4929   19.6373 C   0  0  2  0  0  0  0  0  0  0  0  0
  -25.2582  -20.8332   25.6724 C   0  0  0  0  0  0  0  0  0  0  0  0
  -23.6971  -27.4969   26.8034 C   0  0  0  0  0  0  0  0  0  0  0  0
  -24.6480  -25.3721   27.7250 C   0  0  0  0  0  0  0  0  0  0  0  0
  -22.1930  -25.5691   27.3286 C   0  0  0  0  0  0  0  0  0  0  0  0
  -28.1363  -23.2520   14.1529 C   0  0  0  0  0  0  0  0  0  0  0  0
  -23.2464  -21.7539   22.5771 C   0  0  0  0  0  0  0  0  0  0  0  0
  -30.5918  -27.8291   20.4420 C   0  0  0  0  0  0  0  0  0  0  0  0
  -29.9995  -25.0139   15.4758 C   0  0  0  0  0  0  0  0  0  0  0  0
  -31.3360  -25.4660   16.0795 C   0  0  0  0  0  0  0  0  0  0  0  0
  -29.3172  -23.8731   16.2278 C   0  0  0  0  0  0  0  0  0  0  0  0
  -29.1555  -27.6712   20.9290 C   0  0  0  0  0  0  0  0  0  1  0  0
  -23.7552  -25.3628   25.3514 C   0  0  1  0  0  0  0  0  0  0  0  0
  -24.2569  -21.6379   24.8583 C   0  0  2  0  0  0  0  0  0  0  0  0
  -23.5813  -25.9597   26.7765 C   0  0  0  0  0  0  0  0  0  0  0  0
  -29.0711  -20.2911   19.8365 N   0  0  0  0  0  0  0  0  0  0  0  0
  -31.4436  -25.6262   19.5959 N   0  0  0  0  0  0  0  0  0  0  0  0
  -31.6375  -25.0080   18.4360 N   0  0  0  0  0  0  0  0  0  0  0  0
  -31.2499  -25.8510   17.4653 N   0  0  0  0  0  0  0  0  0  0  0  0
  -28.9932  -21.5602   20.2717 N   0  0  0  0  0  0  0  0  0  0  0  0
  -23.2795  -26.5965   23.2597 N   0  0  0  0  0  0  0  0  0  0  0  0
  -26.7513  -23.0592   17.5543 N   0  0  0  0  0  0  0  0  0  0  0  0
  -29.9309  -23.0864   21.8216 N   0  0  0  0  0  0  0  0  0  0  0  0
  -32.2378  -19.2792   22.5827 N   0  0  0  0  0  0  0  0  0  0  0  0
  -21.4844  -29.5717   22.1541 N   0  0  0  0  0  0  0  0  0  0  0  0
  -23.6234  -23.9111   25.2915 N   0  0  0  0  0  0  0  0  0  0  0  0
  -28.0697  -23.4528   15.5934 N   0  0  0  0  0  0  0  0  0  0  0  0
  -24.2087  -21.0721   23.4805 N   0  3  0  0  0  0  0  0  0  0  0  0
  -31.9818  -21.4630   23.2340 O   0  0  0  0  0  0  0  0  0  0  0  0
  -23.0905  -29.0941   23.7712 O   0  0  0  0  0  0  0  0  0  0  0  0
  -21.5484  -25.7515   24.5733 O   0  0  0  0  0  0  0  0  0  0  0  0
  -25.7232  -23.5019   24.3967 O   0  0  0  0  0  0  0  0  0  0  0  0
  -25.8105  -23.9080   15.6275 O   0  0  0  0  0  0  0  0  0  0  0  0
  -31.5503  -14.4265   19.9343 O   0  0  0  0  0  0  0  0  0  0  0  0
  -28.2523  -27.8888   19.8459 O   0  0  0  0  0  0  0  0  0  1  0  0
  -27.5461  -10.6617   19.4912 F   0  0  0  0  0  0  0  0  0  0  0  0
  -29.6959  -14.5624   17.8885 F   0  0  0  0  0  0  0  0  0  0  0  0
  1  2  1  0  0  0  0
  1  5  2  0  0  0  0
  2  6  2  0  0  0  0
  3  8  2  0  0  0  0
  3 16  1  0  0  0  0
  4  9  1  0  0  0  0
  4 16  2  0  0  0  0
  5 18  1  0  0  0  0
  6 20  1  0  0  0  0
  7 10  2  0  0  0  0
  7 19  1  0  0  0  0
  8 22  1  0  0  0  0
  9 22  2  0  0  0  0
 10 23  1  0  0  0  0
 11 12  2  0  0  0  0
 11 24  1  0  0  0  0
 12 25  1  0  0  0  0
 13 21  1  0  0  0  0
 13 23  2  0  0  0  0
 14 25  2  0  0  0  0
 14 26  1  0  0  0  0
 15 28  2  0  0  0  0
 15 64  1  0  0  0  0
 16 27  1  0  0  0  0
 17 27  1  0  0  0  0
 17 29  2  0  0  0  0
 17 30  1  0  0  0  0
 18 20  2  0  0  0  0
 18 35  1  0  0  0  0
 19 21  2  0  0  0  0
 19 36  1  0  0  0  0
 20 44  1  0  0  0  0
 21 37  1  0  0  0  0
 22 79  1  0  0  0  0
 23 80  1  0  0  0  0
 24 26  2  0  0  0  0
 24 79  1  0  0  0  0
 25 81  1  0  0  0  0
 26 82  1  0  0  0  0
 27 61  2  0  0  0  0
 28 53  1  0  0  0  0
 28 62  1  0  0  0  0
 29 65  1  0  0  0  0
 29 68  1  0  0  0  0
 30 69  1  0  0  0  0
 30 74  2  0  0  0  0
 31 45  1  0  0  0  0
 31 70  1  0  0  0  0
 31 75  2  0  0  0  0
 32 58  1  0  0  0  0
 32 66  1  0  0  0  0
 32 76  2  0  0  0  0
 33 59  1  0  0  0  0
 33 71  1  0  0  0  0
 33 77  2  0  0  0  0
 34 67  1  0  0  0  0
 34 72  1  0  0  0  0
 34 78  2  0  0  0  0
 35 38  1  0  0  0  0
 36 45  1  0  0  0  0
 37 66  1  0  0  0  0
 38 40  1  0  0  0  0
 39 41  1  0  0  0  0
 39 42  1  0  0  0  0
 40 44  1  0  0  0  0
 41 46  1  0  0  0  0
 42 67  1  0  0  0  0
 43 46  1  0  0  0  0
 43 67  1  0  0  0  0
 44 70  1  0  0  0  0
 45 66  1  0  0  0  0
 46 65  1  0  0  0  0
 47 59  1  0  0  0  0
 48 60  1  0  0  0  0
 49 60  1  0  0  0  0
 50 60  1  0  0  0  0
 51 72  1  0  0  0  0
 52 73  1  0  0  0  0
 53 57  1  0  0  0  0
 54 55  1  0  0  0  0
 54 56  1  0  0  0  0
 55 64  1  0  0  0  0
 56 72  1  0  0  0  0
 57 80  1  0  0  0  0
 58 60  1  0  0  0  0
 58 71  1  0  0  0  0
 59 73  1  0  0  0  0
 61 65  1  0  0  0  0
 62 63  2  0  0  0  0
 63 64  1  0  0  0  0
M  CHG  1  73   1
M  ISO  4  34 100  57 101  72 100  80 101
M  END
> <Batch ID>
0053

> <Smiles>
CNC(C)C(=O)NC(C(=O)N1Cc2cc([101O:1][101CH2:1]Cc3cn(CCC[100N:0](C)[100C:0](=O)N4CCCC(n5nc(-c6ccc(Oc7ccc(F)cc7F)cc6)c(C(N)=O)c5N)C4)nn3)ccc2CC1C(=O)NC1CCCc2ccccc21)C(C)(C)C

> <Shape>
0.196

> <Color>
0.111

> <Negative vol penalty>
0.000

$$$$

  -OEChem-04052317383D

 87 95  0     1  0  0  0  0  0999 V2000
  -31.5988  -33.0139   21.8375 C   0  0  0  0  0  0  0  0  0  0  0  0
  -31.0526  -31.7358   21.8969 C   0  0  0  0  0  0  0  0  0  0  0  0
  -24.6750   -8.7732   21.3849 C   0  0  0  0  0  0  0  0  0  0  0  0
  -23.2187  -10.7006   21.3501 C   0  0  0  0  0  0  0  0  0  0  0  0
  -30.8612  -34.1076   22.2887 C   0  0  0  0  0  0  0  0  0  0  0  0
  -29.7688  -31.5506   22.4085 C   0  0  0  0  0  0  0  0  0  0  0  0
  -26.9786  -28.4208   19.5687 C   0  0  0  0  0  0  0  0  0  0  0  0
  -23.8845   -8.1938   22.3773 C   0  0  0  0  0  0  0  0  0  0  0  0
  -22.4281  -10.1212   22.3425 C   0  0  0  0  0  0  0  0  0  0  0  0
  -27.2208  -27.0542   19.7014 C   0  0  0  0  0  0  0  0  0  0  0  0
  -22.0454   -6.0478   24.6636 C   0  0  0  0  0  0  0  0  0  0  0  0
  -21.7151   -4.6998   24.5249 C   0  0  0  0  0  0  0  0  0  0  0  0
  -25.2991  -26.8600   21.1465 C   0  0  0  0  0  0  0  0  0  0  0  0
  -20.6140   -5.1852   22.4299 C   0  0  0  0  0  0  0  0  0  0  0  0
  -24.3421  -10.0267   20.8713 C   0  0  0  0  0  0  0  0  0  0  0  0
  -25.0106  -10.4893   18.4533 C   0  0  0  0  0  0  0  0  0  0  0  0
  -29.5639  -33.9369   22.7972 C   0  0  0  0  0  0  0  0  0  0  0  0
  -25.8994  -29.0202   20.2338 C   0  0  0  0  0  0  0  0  0  0  0  0
  -29.0136  -32.6429   22.8682 C   0  0  0  0  0  0  0  0  0  0  0  0
  -25.0438  -28.2339   21.0186 C   0  0  0  0  0  0  0  0  0  0  0  0
  -22.7610   -8.8677   22.8561 C   0  0  0  0  0  0  0  0  0  0  0  0
  -26.3828  -26.2741   20.4927 C   0  0  0  0  0  0  0  0  0  0  0  0
  -21.6599   -6.9646   23.6855 C   0  0  0  0  0  0  0  0  0  0  0  0
  -20.9994   -4.2684   23.4080 C   0  0  0  0  0  0  0  0  0  0  0  0
  -20.9443   -6.5333   22.5686 C   0  0  0  0  0  0  0  0  0  0  0  0
  -25.1587  -10.6261   19.8465 C   0  0  0  0  0  0  0  0  0  0  0  0
  -26.7892  -21.0201   20.9090 C   0  0  0  0  0  0  0  0  0  0  0  0
  -27.9239  -20.2972   20.6136 C   0  0  0  0  0  0  0  0  0  0  0  0
  -28.9470  -22.2046   19.8755 C   0  0  0  0  0  0  0  0  0  0  0  0
  -27.8121  -22.9275   20.1702 C   0  0  0  0  0  0  0  0  0  0  0  0
  -26.0258  -11.2480   17.9240 C   0  0  0  0  0  0  0  0  0  0  0  0
  -24.0419   -9.7433   17.7045 C   0  0  0  0  0  0  0  0  0  0  0  0
  -25.6060  -31.2752   22.4548 C   0  0  0  0  0  0  0  0  0  0  0  0
  -22.4395  -30.9074   21.8543 C   0  0  0  0  0  0  0  0  0  0  0  0
  -19.9209  -28.9097   20.7087 C   0  0  0  0  0  0  0  0  0  0  0  0
  -29.1036  -15.8968   19.8194 C   0  0  0  0  0  0  0  0  0  0  0  0
  -28.8232  -35.1435   23.3168 C   0  0  0  0  0  0  0  0  0  0  0  0
  -25.6359  -30.4907   20.0590 C   0  0  0  0  0  0  0  0  0  0  0  0
  -23.8597  -28.8253   21.7372 C   0  0  0  0  0  0  0  0  0  0  0  0
  -27.3259  -34.9078   23.4977 C   0  0  0  0  0  0  0  0  0  0  0  0
  -30.4274  -12.8290   18.8909 C   0  0  0  0  0  0  0  0  0  0  0  0
  -27.0764  -33.5837   24.2128 C   0  0  0  0  0  0  0  0  0  0  0  0
  -29.2206  -11.8916   18.8947 C   0  0  0  0  0  0  0  0  0  0  0  0
  -30.3751  -13.7885   20.0738 C   0  0  0  0  0  0  0  0  0  0  0  0
  -27.9041  -13.6817   20.1355 C   0  0  0  0  0  0  0  0  0  0  0  0
  -27.6146  -32.4044   23.3936 C   0  0  1  0  0  0  0  0  0  0  0  0
  -24.8103  -31.0889   21.1939 C   0  0  1  0  0  0  0  0  0  0  0  0
  -27.9050  -12.6873   18.9563 C   0  0  2  0  0  0  0  0  0  0  0  0
  -24.3517  -21.2723   21.4395 C   0  0  0  0  0  0  0  0  0  0  0  0
  -31.2561  -23.0660   20.3370 C   0  0  0  0  0  0  0  0  0  0  0  0
  -24.5544  -14.6286   20.0407 C   0  0  0  0  0  0  0  0  0  0  0  0
  -17.4337  -28.8703   20.3773 C   0  0  0  0  0  0  0  0  0  0  0  0
  -22.0499  -30.4721   24.8490 C   0  0  0  0  0  0  0  0  0  0  0  0
  -19.7907  -29.5177   24.3456 C   0  0  0  0  0  0  0  0  0  0  0  0
  -20.2984  -31.8899   23.7644 C   0  0  0  0  0  0  0  0  0  0  0  0
  -20.1996  -28.5602   17.7831 C   0  0  0  0  0  0  0  0  0  0  0  0
  -25.5805  -20.3673   21.4872 C   0  0  0  0  0  0  0  0  0  0  0  0
  -30.1564  -22.8575   19.2985 C   0  0  0  0  0  0  0  0  0  0  0  0
  -27.9960  -18.8287   20.8579 C   0  0  0  0  0  0  0  0  0  0  0  0
  -27.7399  -24.4058   19.9239 C   0  0  0  0  0  0  0  0  0  1  0  0
  -25.8300  -15.2056   19.4428 C   0  0  0  0  0  0  0  0  0  0  0  0
  -27.8125  -17.9845   19.5905 C   0  0  0  0  0  0  0  0  0  0  0  0
  -26.6565  -15.9853   20.4586 C   0  0  0  0  0  0  0  0  0  0  0  0
  -21.3416  -30.0303   22.4058 C   0  0  1  0  0  0  0  0  0  0  0  0
  -18.7809  -29.1798   19.7433 C   0  0  2  0  0  0  0  0  0  0  0  0
  -20.8935  -30.4664   23.8294 C   0  0  0  0  0  0  0  0  0  0  0  0
  -26.1871  -11.4098   20.1813 N   0  0  0  0  0  0  0  0  0  0  0  0
  -29.0233  -20.8764   20.0916 N   0  0  0  0  0  0  0  0  0  0  0  0
  -26.7129  -22.3482   20.6926 N   0  0  0  0  0  0  0  0  0  0  0  0
  -26.6945  -11.7723   18.9908 N   0  0  0  0  0  0  0  0  0  0  0  0
  -23.6476  -30.2688   21.5400 N   0  0  0  0  0  0  0  0  0  0  0  0
  -29.1102  -14.5233   20.1042 N   0  0  0  0  0  0  0  0  0  0  0  0
  -26.4030  -11.5109   16.6547 N   0  0  0  0  0  0  0  0  0  0  0  0
  -23.0682   -9.0193   18.4061 N   0  0  0  0  0  0  0  0  0  0  0  0
  -26.7120  -32.0903   22.3068 N   0  0  0  0  0  0  0  0  0  0  0  0
  -20.2726  -30.0417   21.4132 N   0  0  0  0  0  0  0  0  0  0  0  0
  -27.8664  -16.5566   19.8703 N   0  0  0  0  0  0  0  0  0  0  0  0
  -18.9284  -28.3413   18.5201 N   0  3  0  0  0  0  0  0  0  0  0  0
  -24.0497   -9.7061   16.4507 O   0  0  0  0  0  0  0  0  0  0  0  0
  -25.2426  -30.7217   23.4859 O   0  0  0  0  0  0  0  0  0  0  0  0
  -22.2306  -32.1134   21.7010 O   0  0  0  0  0  0  0  0  0  0  0  0
  -20.4443  -27.8042   20.8288 O   0  0  0  0  0  0  0  0  0  0  0  0
  -30.1464  -16.5033   19.5421 O   0  0  0  0  0  0  0  0  0  0  0  0
  -21.9893   -8.3025   23.8243 O   0  0  0  0  0  0  0  0  0  0  0  0
  -26.6173  -24.9401   20.6244 O   0  0  0  0  0  0  0  0  0  1  0  0
  -20.6837   -2.9736   23.2742 F   0  0  0  0  0  0  0  0  0  0  0  0
  -20.5723   -7.4091   21.6251 F   0  0  0  0  0  0  0  0  0  0  0  0
  1  2  1  0  0  0  0
  1  5  2  0  0  0  0
  2  6  2  0  0  0  0
  3  8  2  0  0  0  0
  3 15  1  0  0  0  0
  4  9  1  0  0  0  0
  4 15  2  0  0  0  0
  5 17  1  0  0  0  0
  6 19  1  0  0  0  0
  7 10  2  0  0  0  0
  7 18  1  0  0  0  0
  8 21  1  0  0  0  0
  9 21  2  0  0  0  0
 10 22  1  0  0  0  0
 11 12  2  0  0  0  0
 11 23  1  0  0  0  0
 12 24  1  0  0  0  0
 13 20  1  0  0  0  0
 13 22  2  0  0  0  0
 14 24  2  0  0  0  0
 14 25  1  0  0  0  0
 15 26  1  0  0  0  0
 16 26  1  0  0  0  0
 16 31  2  0  0  0  0
 16 32  1  0  0  0  0
 17 19  2  0  0  0  0
 17 37  1  0  0  0  0
 18 20  2  0  0  0  0
 18 38  1  0  0  0  0
 19 46  1  0  0  0  0
 20 39  1  0  0  0  0
 21 84  1  0  0  0  0
 22 85  1  0  0  0  0
 23 25  2  0  0  0  0
 23 84  1  0  0  0  0
 24 86  1  0  0  0  0
 25 87  1  0  0  0  0
 26 67  2  0  0  0  0
 27 28  2  0  0  0  0
 27 57  1  0  0  0  0
 27 69  1  0  0  0  0
 28 59  1  0  0  0  0
 28 68  1  0  0  0  0
 29 30  1  0  0  0  0
 29 58  1  0  0  0  0
 29 68  2  0  0  0  0
 30 60  1  0  0  0  0
 30 69  2  0  0  0  0
 31 70  1  0  0  0  0
 31 73  1  0  0  0  0
 32 74  1  0  0  0  0
 32 79  2  0  0  0  0
 33 47  1  0  0  0  0
 33 75  1  0  0  0  0
 33 80  2  0  0  0  0
 34 64  1  0  0  0  0
 34 71  1  0  0  0  0
 34 81  2  0  0  0  0
 35 65  1  0  0  0  0
 35 76  1  0  0  0  0
 35 82  2  0  0  0  0
 36 72  1  0  0  0  0
 36 77  1  0  0  0  0
 36 83  2  0  0  0  0
 37 40  1  0  0  0  0
 38 47  1  0  0  0  0
 39 71  1  0  0  0  0
 40 42  1  0  0  0  0
 41 43  1  0  0  0  0
 41 44  1  0  0  0  0
 42 46  1  0  0  0  0
 43 48  1  0  0  0  0
 44 72  1  0  0  0  0
 45 48  1  0  0  0  0
 45 72  1  0  0  0  0
 46 75  1  0  0  0  0
 47 71  1  0  0  0  0
 48 70  1  0  0  0  0
 49 57  1  0  0  0  0
 50 58  1  0  0  0  0
 51 61  1  0  0  0  0
 52 65  1  0  0  0  0
 53 66  1  0  0  0  0
 54 66  1  0  0  0  0
 55 66  1  0  0  0  0
 56 78  1  0  0  0  0
 59 62  1  0  0  0  0
 60 85  1  0  0  0  0
 61 63  1  0  0  0  0
 62 77  1  0  0  0  0
 63 77  1  0  0  0  0
 64 66  1  0  0  0  0
 64 76  1  0  0  0  0
 65 78  1  0  0  0  0
 67 70  1  0  0  0  0
M  CHG  1  78   1
M  ISO  4  36 100  60 101  77 100  85 101
M  END
> <Batch ID>
0053

> <Smiles>
CCC[100N:0](CCc1nc(CC)c([101CH2:1][101O:1]c2ccc3c(c2)CN(C(=O)C(NC(=O)C(C)NC)C(C)(C)C)C(C(=O)NC2CCCc4ccccc42)C3)nc1CC)[100C:0](=O)N1CCCC(n2nc(-c3ccc(Oc4ccc(F)cc4F)cc3)c(C(N)=O)c2N)C1

> <Shape>
0.301

> <Color>
0.100

> <Negative vol penalty>
0.000

$$$$

  -OEChem-04052317383D

 86 94  0     1  0  0  0  0  0999 V2000
  -17.1379  -28.0761   23.9957 C   0  0  0  0  0  0  0  0  0  0  0  0
  -18.0513  -27.5126   23.1105 C   0  0  0  0  0  0  0  0  0  0  0  0
  -26.6008  -13.5839   21.1093 C   0  0  0  0  0  0  0  0  0  0  0  0
  -26.9697  -13.7207   18.7256 C   0  0  0  0  0  0  0  0  0  0  0  0
  -17.1383  -29.4533   24.2131 C   0  0  0  0  0  0  0  0  0  0  0  0
  -18.9649  -28.3262   22.4412 C   0  0  0  0  0  0  0  0  0  0  0  0
  -24.7203  -26.9075   20.9023 C   0  0  0  0  0  0  0  0  0  0  0  0
  -25.3422  -13.0270   20.8826 C   0  0  0  0  0  0  0  0  0  0  0  0
  -25.7111  -13.1638   18.4989 C   0  0  0  0  0  0  0  0  0  0  0  0
  -25.2902  -26.4640   19.7097 C   0  0  0  0  0  0  0  0  0  0  0  0
  -24.0668  -10.0061   20.0578 C   0  0  0  0  0  0  0  0  0  0  0  0
  -23.7015   -8.8974   20.8212 C   0  0  0  0  0  0  0  0  0  0  0  0
  -25.8960  -28.7339   19.1622 C   0  0  0  0  0  0  0  0  0  0  0  0
  -21.8139  -10.1237   21.6989 C   0  0  0  0  0  0  0  0  0  0  0  0
  -28.9876  -23.5056   18.0151 C   0  0  0  0  0  0  0  0  0  0  0  0
  -27.4146  -13.9308   20.0308 C   0  0  0  0  0  0  0  0  0  0  0  0
  -29.9343  -13.8197   20.4134 C   0  0  0  0  0  0  0  0  0  0  0  0
  -18.0586  -30.2830   23.5535 C   0  0  0  0  0  0  0  0  0  0  0  0
  -24.7243  -28.2711   21.2292 C   0  0  0  0  0  0  0  0  0  0  0  0
  -18.9766  -29.7160   22.6490 C   0  0  0  0  0  0  0  0  0  0  0  0
  -25.3278  -29.1918   20.3607 C   0  0  0  0  0  0  0  0  0  0  0  0
  -24.8974  -12.8170   19.5774 C   0  0  0  0  0  0  0  0  0  0  0  0
  -25.8756  -27.3776   18.8380 C   0  0  0  0  0  0  0  0  0  0  0  0
  -23.3058  -11.1737   20.1150 C   0  0  0  0  0  0  0  0  0  0  0  0
  -22.5750   -8.9562   21.6417 C   0  0  0  0  0  0  0  0  0  0  0  0
  -22.1793  -11.2325   20.9355 C   0  0  0  0  0  0  0  0  0  0  0  0
  -28.7146  -14.5066   20.2643 C   0  0  0  0  0  0  0  0  0  0  0  0
  -29.9802  -23.7653   18.9343 C   0  0  0  0  0  0  0  0  0  0  0  0
  -30.0309  -25.9506   18.2621 C   0  0  0  0  0  0  0  0  0  0  0  0
  -29.0388  -25.6906   17.3424 C   0  0  0  0  0  0  0  0  0  0  0  0
  -30.8642  -14.8105   20.6133 C   0  0  0  0  0  0  0  0  0  0  0  0
  -30.2027  -12.4118   20.3746 C   0  0  0  0  0  0  0  0  0  0  0  0
  -22.4788  -30.4626   21.7378 C   0  0  0  0  0  0  0  0  0  0  0  0
  -25.0169  -32.3113   22.5517 C   0  0  0  0  0  0  0  0  0  0  0  0
  -28.3624  -32.9249   22.2721 C   0  0  0  0  0  0  0  0  0  0  0  0
  -31.1756  -20.3764   19.0222 C   0  0  0  0  0  0  0  0  0  0  0  0
  -17.9896  -31.7718   23.7849 C   0  0  0  0  0  0  0  0  0  0  0  0
  -24.1292  -28.7302   22.5321 C   0  0  0  0  0  0  0  0  0  0  0  0
  -25.3763  -30.6640   20.6748 C   0  0  0  0  0  0  0  0  0  0  0  0
  -19.2369  -32.5190   23.3200 C   0  0  0  0  0  0  0  0  0  0  0  0
  -31.3219  -19.2321   22.3601 C   0  0  0  0  0  0  0  0  0  0  0  0
  -19.6485  -32.0552   21.9263 C   0  0  0  0  0  0  0  0  0  0  0  0
  -30.7755  -17.8123   22.2175 C   0  0  0  0  0  0  0  0  0  0  0  0
  -30.5652  -20.2300   21.4814 C   0  0  0  0  0  0  0  0  0  0  0  0
  -29.9488  -18.4182   19.9129 C   0  0  0  0  0  0  0  0  0  0  0  0
  -19.9995  -30.5624   21.9229 C   0  0  1  0  0  0  0  0  0  0  0  0
  -23.7339  -30.2036   22.5222 C   0  0  1  0  0  0  0  0  0  0  0  0
  -30.7305  -17.3859   20.7399 C   0  0  2  0  0  0  0  0  0  0  0  0
  -30.6185  -27.3127   18.4071 C   0  0  0  0  0  0  0  0  0  0  0  0
  -30.1403  -34.5293   23.0220 C   0  0  0  0  0  0  0  0  0  0  0  0
  -33.8149  -23.2727   20.1041 C   0  0  0  0  0  0  0  0  0  0  0  0
  -34.2479  -21.0143   19.1198 C   0  0  0  0  0  0  0  0  0  0  0  0
  -34.7694  -23.0656   17.7914 C   0  0  0  0  0  0  0  0  0  0  0  0
  -23.9990  -34.3731   20.5458 C   0  0  0  0  0  0  0  0  0  0  0  0
  -26.2488  -35.4679   20.6351 C   0  0  0  0  0  0  0  0  0  0  0  0
  -24.8453  -35.3361   22.6931 C   0  0  0  0  0  0  0  0  0  0  0  0
  -29.8707  -30.7874   23.6560 C   0  0  0  0  0  0  0  0  0  0  0  0
  -28.5002  -26.7729   16.4385 C   0  0  0  0  0  0  0  0  0  0  0  0
  -30.4964  -22.6818   19.8149 C   0  0  0  0  0  0  0  0  0  0  0  0
  -32.3592  -22.3866   18.2247 C   0  0  0  0  0  0  0  0  0  0  0  0
  -27.5297  -27.7014   17.1603 C   0  0  0  0  0  0  0  0  0  1  0  0
  -25.9459  -33.2395   21.8071 C   0  0  1  0  0  0  0  0  0  0  0  0
  -29.4229  -33.2212   23.3171 C   0  0  2  0  0  0  0  0  0  0  0  0
  -33.7897  -22.4502   18.8048 C   0  0  0  0  0  0  0  0  0  0  0  0
  -25.2573  -34.5767   21.4132 C   0  0  0  0  0  0  0  0  0  0  0  0
  -28.4991  -24.4636   17.2027 N   0  0  0  0  0  0  0  0  0  0  0  0
  -28.8537  -15.8315   20.3614 N   0  0  0  0  0  0  0  0  0  0  0  0
  -30.5196  -24.9925   19.0743 N   0  0  0  0  0  0  0  0  0  0  0  0
  -30.1719  -15.9849   20.5738 N   0  0  0  0  0  0  0  0  0  0  0  0
  -24.7754  -31.0644   21.9578 N   0  0  0  0  0  0  0  0  0  0  0  0
  -30.5049  -19.7619   20.0900 N   0  0  0  0  0  0  0  0  0  0  0  0
  -32.1983  -14.7830   20.8175 N   0  0  0  0  0  0  0  0  0  0  0  0
  -29.1321  -11.5332   20.1592 N   0  0  0  0  0  0  0  0  0  0  0  0
  -21.3185  -30.3521   22.4801 N   0  0  0  0  0  0  0  0  0  0  0  0
  -27.1249  -33.4005   22.6512 N   0  0  0  0  0  0  0  0  0  0  0  0
  -31.3832  -21.7613   19.1060 N   0  0  0  0  0  0  0  0  0  0  0  0
  -30.4349  -32.1278   23.3526 N   0  3  0  0  0  0  0  0  0  0  0  0
  -31.3551  -11.9457   20.5427 O   0  0  0  0  0  0  0  0  0  0  0  0
  -22.5573  -30.7434   20.5476 O   0  0  0  0  0  0  0  0  0  0  0  0
  -24.5293  -32.6764   23.6243 O   0  0  0  0  0  0  0  0  0  0  0  0
  -28.6080  -32.3342   21.2227 O   0  0  0  0  0  0  0  0  0  0  0  0
  -31.5613  -19.7254   18.0426 O   0  0  0  0  0  0  0  0  0  0  0  0
  -23.6694  -12.2734   19.3558 O   0  0  0  0  0  0  0  0  0  0  0  0
  -26.4320  -26.9475   17.6730 O   0  0  0  0  0  0  0  0  0  1  0  0
  -22.2234   -7.8909   22.3736 F   0  0  0  0  0  0  0  0  0  0  0  0
  -21.4436  -12.3510   20.9937 F   0  0  0  0  0  0  0  0  0  0  0  0
  1  2  1  0  0  0  0
  1  5  2  0  0  0  0
  2  6  2  0  0  0  0
  3  8  2  0  0  0  0
  3 16  1  0  0  0  0
  4  9  1  0  0  0  0
  4 16  2  0  0  0  0
  5 18  1  0  0  0  0
  6 20  1  0  0  0  0
  7 10  2  0  0  0  0
  7 19  1  0  0  0  0
  8 22  1  0  0  0  0
  9 22  2  0  0  0  0
 10 23  1  0  0  0  0
 11 12  2  0  0  0  0
 11 24  1  0  0  0  0
 12 25  1  0  0  0  0
 13 21  1  0  0  0  0
 13 23  2  0  0  0  0
 14 25  2  0  0  0  0
 14 26  1  0  0  0  0
 15 28  1  0  0  0  0
 15 66  2  0  0  0  0
 16 27  1  0  0  0  0
 17 27  1  0  0  0  0
 17 31  2  0  0  0  0
 17 32  1  0  0  0  0
 18 20  2  0  0  0  0
 18 37  1  0  0  0  0
 19 21  2  0  0  0  0
 19 38  1  0  0  0  0
 20 46  1  0  0  0  0
 21 39  1  0  0  0  0
 22 83  1  0  0  0  0
 23 84  1  0  0  0  0
 24 26  2  0  0  0  0
 24 83  1  0  0  0  0
 25 85  1  0  0  0  0
 26 86  1  0  0  0  0
 27 67  2  0  0  0  0
 28 59  1  0  0  0  0
 28 68  2  0  0  0  0
 29 30  2  0  0  0  0
 29 49  1  0  0  0  0
 29 68  1  0  0  0  0
 30 58  1  0  0  0  0
 30 66  1  0  0  0  0
 31 69  1  0  0  0  0
 31 72  1  0  0  0  0
 32 73  1  0  0  0  0
 32 78  2  0  0  0  0
 33 47  1  0  0  0  0
 33 74  1  0  0  0  0
 33 79  2  0  0  0  0
 34 62  1  0  0  0  0
 34 70  1  0  0  0  0
 34 80  2  0  0  0  0
 35 63  1  0  0  0  0
 35 75  1  0  0  0  0
 35 81  2  0  0  0  0
 36 71  1  0  0  0  0
 36 76  1  0  0  0  0
 36 82  2  0  0  0  0
 37 40  1  0  0  0  0
 38 47  1  0  0  0  0
 39 70  1  0  0  0  0
 40 42  1  0  0  0  0
 41 43  1  0  0  0  0
 41 44  1  0  0  0  0
 42 46  1  0  0  0  0
 43 48  1  0  0  0  0
 44 71  1  0  0  0  0
 45 48  1  0  0  0  0
 45 71  1  0  0  0  0
 46 74  1  0  0  0  0
 47 70  1  0  0  0  0
 48 69  1  0  0  0  0
 50 63  1  0  0  0  0
 51 64  1  0  0  0  0
 52 64  1  0  0  0  0
 53 64  1  0  0  0  0
 54 65  1  0  0  0  0
 55 65  1  0  0  0  0
 56 65  1  0  0  0  0
 57 77  1  0  0  0  0
 58 61  1  0  0  0  0
 59 76  1  0  0  0  0
 60 64  1  0  0  0  0
 60 76  1  0  0  0  0
 61 84  1  0  0  0  0
 62 65  1  0  0  0  0
 62 75  1  0  0  0  0
 63 77  1  0  0  0  0
 67 69  1  0  0  0  0
M  CHG  1  77   1
M  ISO  4  36 100  61 101  76 100  84 101
M  END
> <Batch ID>
0053

> <Smiles>
CNC(C)C(=O)NC(C(=O)N1Cc2cc([101O:1][101CH2:1]Cc3ncc(C[100N:0](CC(C)(C)C)[100C:0](=O)N4CCCC(n5nc(-c6ccc(Oc7ccc(F)cc7F)cc6)c(C(N)=O)c5N)C4)nc3C)ccc2CC1C(=O)NC1CCCc2ccccc21)C(C)(C)C

> <Shape>
0.310

> <Color>
0.082

> <Negative vol penalty>
0.000

$$$$

  -OEChem-04052317383D

 87 95  0     1  0  0  0  0  0999 V2000
  -28.0907  -33.1062   26.8006 C   0  0  0  0  0  0  0  0  0  0  0  0
  -28.2021  -31.9485   26.0373 C   0  0  0  0  0  0  0  0  0  0  0  0
  -26.0670  -13.8074   21.9532 C   0  0  0  0  0  0  0  0  0  0  0  0
  -26.1446  -12.6916   19.8117 C   0  0  0  0  0  0  0  0  0  0  0  0
  -26.8311  -33.6218   27.1031 C   0  0  0  0  0  0  0  0  0  0  0  0
  -27.0538  -31.3050   25.5769 C   0  0  0  0  0  0  0  0  0  0  0  0
  -27.4199  -29.9161   20.7208 C   0  0  0  0  0  0  0  0  0  0  0  0
  -25.6119  -12.6315   22.5495 C   0  0  0  0  0  0  0  0  0  0  0  0
  -25.6896  -11.5155   20.4080 C   0  0  0  0  0  0  0  0  0  0  0  0
  -28.1650  -28.7715   20.4403 C   0  0  0  0  0  0  0  0  0  0  0  0
  -22.7448  -10.2390   21.4710 C   0  0  0  0  0  0  0  0  0  0  0  0
  -21.7352   -9.5307   20.8195 C   0  0  0  0  0  0  0  0  0  0  0  0
  -26.1261  -27.4939   20.2678 C   0  0  0  0  0  0  0  0  0  0  0  0
  -23.1923   -7.6112   20.6481 C   0  0  0  0  0  0  0  0  0  0  0  0
  -24.4760  -23.9261   17.3717 C   0  0  0  0  0  0  0  0  0  0  0  0
  -26.3333  -13.8375   20.5843 C   0  0  0  0  0  0  0  0  0  0  0  0
  -28.1401  -15.4602   19.8033 C   0  0  0  0  0  0  0  0  0  0  0  0
  -25.6671  -32.9898   26.6380 C   0  0  0  0  0  0  0  0  0  0  0  0
  -26.0205  -29.8558   20.7878 C   0  0  0  0  0  0  0  0  0  0  0  0
  -25.7775  -31.8120   25.8746 C   0  0  0  0  0  0  0  0  0  0  0  0
  -25.3654  -28.6397   20.5468 C   0  0  0  0  0  0  0  0  0  0  0  0
  -25.4232  -11.4855   21.7770 C   0  0  0  0  0  0  0  0  0  0  0  0
  -27.5182  -27.5596   20.2167 C   0  0  0  0  0  0  0  0  0  0  0  0
  -23.9783   -9.6335   21.7110 C   0  0  0  0  0  0  0  0  0  0  0  0
  -21.9589   -8.2168   20.4081 C   0  0  0  0  0  0  0  0  0  0  0  0
  -24.2020   -8.3195   21.2996 C   0  0  0  0  0  0  0  0  0  0  0  0
  -26.8028  -15.0521   19.9676 C   0  0  0  0  0  0  0  0  0  0  0  0
  -23.6173  -23.7000   16.3154 C   0  0  0  0  0  0  0  0  0  0  0  0
  -25.5771  -23.0966   17.4341 C   0  0  0  0  0  0  0  0  0  0  0  0
  -28.0529  -16.6741   19.1666 C   0  0  0  0  0  0  0  0  0  0  0  0
  -24.9189  -21.9981   15.5560 C   0  0  0  0  0  0  0  0  0  0  0  0
  -29.3527  -14.8008   20.1913 C   0  0  0  0  0  0  0  0  0  0  0  0
  -23.8582  -30.3896   23.0556 C   0  0  0  0  0  0  0  0  0  0  0  0
  -21.7630  -29.9222   20.6238 C   0  0  0  0  0  0  0  0  0  0  0  0
  -25.9139  -19.7667   15.1494 C   0  0  0  0  0  0  0  0  0  0  0  0
  -21.1339  -28.5425   17.5664 C   0  0  0  0  0  0  0  0  0  0  0  0
  -24.3263  -33.5581   27.0305 C   0  0  0  0  0  0  0  0  0  0  0  0
  -25.2299  -31.1050   21.0650 C   0  0  0  0  0  0  0  0  0  0  0  0
  -23.8641  -28.5260   20.5872 C   0  0  0  0  0  0  0  0  0  0  0  0
  -23.1692  -33.0256   26.1891 C   0  0  0  0  0  0  0  0  0  0  0  0
  -24.0791  -19.6645   18.2879 C   0  0  0  0  0  0  0  0  0  0  0  0
  -23.2629  -31.5094   26.0513 C   0  0  0  0  0  0  0  0  0  0  0  0
  -24.7214  -18.4620   18.9783 C   0  0  0  0  0  0  0  0  0  0  0  0
  -23.9861  -19.4610   16.7779 C   0  0  0  0  0  0  0  0  0  0  0  0
  -25.9393  -17.9418   16.8199 C   0  0  0  0  0  0  0  0  0  0  0  0
  -24.5559  -31.0992   25.3361 C   0  0  1  0  0  0  0  0  0  0  0  0
  -23.8363  -30.8201   21.6162 C   0  0  1  0  0  0  0  0  0  0  0  0
  -26.0794  -18.1201   18.3409 C   0  0  2  0  0  0  0  0  0  0  0  0
  -22.3988  -24.5476   16.1640 C   0  0  0  0  0  0  0  0  0  0  0  0
  -19.3185  -28.2990   15.8510 C   0  0  0  0  0  0  0  0  0  0  0  0
  -26.0234  -21.4670   13.3673 C   0  0  0  0  0  0  0  0  0  0  0  0
  -23.9023  -20.2718   13.9210 C   0  0  0  0  0  0  0  0  0  0  0  0
  -20.3996  -27.8228   22.3684 C   0  0  0  0  0  0  0  0  0  0  0  0
  -19.2439  -26.9701   20.3176 C   0  0  0  0  0  0  0  0  0  0  0  0
  -18.8325  -29.3027   21.1001 C   0  0  0  0  0  0  0  0  0  0  0  0
  -22.7299  -29.9485   15.5086 C   0  0  0  0  0  0  0  0  0  0  0  0
  -28.8959  -26.0439   16.2512 C   0  0  0  0  0  0  0  0  0  0  0  0
  -26.5740  -23.2683   18.5522 C   0  0  0  0  0  0  0  0  0  0  0  0
  -28.0078  -22.8761   18.1717 C   0  0  0  0  0  0  0  0  0  0  0  0
  -28.6372  -23.7007   17.0531 C   0  0  0  0  0  0  0  0  0  0  0  0
  -29.8158  -25.3774   18.4674 C   0  0  0  0  0  0  0  0  0  0  0  0
  -29.4874  -26.6218   19.2686 C   0  0  0  0  0  0  0  0  0  1  0  0
  -21.0535  -28.7248   20.0392 C   0  0  1  0  0  0  0  0  0  0  0  0
  -20.5127  -29.1221   16.3084 C   0  0  2  0  0  0  0  0  0  0  0  0
  -25.1673  -20.9296   14.5459 C   0  0  0  0  0  0  0  0  0  0  0  0
  -19.9108  -28.2065   20.9574 C   0  0  0  0  0  0  0  0  0  0  0  0
  -25.9300  -15.9352   19.4753 N   0  0  0  0  0  0  0  0  0  0  0  0
  -23.8088  -22.7412   15.3857 N   0  0  0  0  0  0  0  0  0  0  0  0
  -25.8305  -22.1186   16.5399 N   0  0  0  0  0  0  0  0  0  0  0  0
  -26.7206  -16.9103   18.9953 N   0  0  0  0  0  0  0  0  0  0  0  0
  -23.1356  -29.7741   20.8684 N   0  0  0  0  0  0  0  0  0  0  0  0
  -25.2946  -19.1099   16.2130 N   0  0  0  0  0  0  0  0  0  0  0  0
  -28.9867  -17.5518   18.7423 N   0  0  0  0  0  0  0  0  0  0  0  0
  -29.2615  -13.5595   20.8356 N   0  0  0  0  0  0  0  0  0  0  0  0
  -24.4335  -31.3111   23.9097 N   0  0  0  0  0  0  0  0  0  0  0  0
  -20.6150  -29.1211   18.7054 N   0  0  0  0  0  0  0  0  0  0  0  0
  -21.5128  -29.1532   15.2039 N   0  3  0  0  0  0  0  0  0  0  0  0
  -28.7514  -25.1497   17.4577 N   0  3  1  0  0  0  0  0  0  0  0  0
  -30.4830  -15.3053   19.9878 O   0  0  0  0  0  0  0  0  0  0  0  0
  -23.3868  -29.3026   23.3685 O   0  0  0  0  0  0  0  0  0  0  0  0
  -21.1244  -30.9534   20.8483 O   0  0  0  0  0  0  0  0  0  0  0  0
  -27.0155  -19.4548   14.6897 O   0  0  0  0  0  0  0  0  0  0  0  0
  -21.9908  -27.6618   17.5414 O   0  0  0  0  0  0  0  0  0  0  0  0
  -24.9795  -10.3377   22.3585 O   0  0  0  0  0  0  0  0  0  0  0  0
  -28.2431  -26.4408   19.9434 O   0  0  0  0  0  0  0  0  0  1  0  0
  -20.9887   -7.5362   19.7839 F   0  0  0  0  0  0  0  0  0  0  0  0
  -25.3845   -7.7321   21.5284 F   0  0  0  0  0  0  0  0  0  0  0  0
  1  2  1  0  0  0  0
  1  5  2  0  0  0  0
  2  6  2  0  0  0  0
  3  8  2  0  0  0  0
  3 16  1  0  0  0  0
  4  9  1  0  0  0  0
  4 16  2  0  0  0  0
  5 18  1  0  0  0  0
  6 20  1  0  0  0  0
  7 10  2  0  0  0  0
  7 19  1  0  0  0  0
  8 22  1  0  0  0  0
  9 22  2  0  0  0  0
 10 23  1  0  0  0  0
 11 12  2  0  0  0  0
 11 24  1  0  0  0  0
 12 25  1  0  0  0  0
 13 21  1  0  0  0  0
 13 23  2  0  0  0  0
 14 25  2  0  0  0  0
 14 26  1  0  0  0  0
 15 28  2  0  0  0  0
 15 29  1  0  0  0  0
 16 27  1  0  0  0  0
 17 27  1  0  0  0  0
 17 30  2  0  0  0  0
 17 32  1  0  0  0  0
 18 20  2  0  0  0  0
 18 37  1  0  0  0  0
 19 21  2  0  0  0  0
 19 38  1  0  0  0  0
 20 46  1  0  0  0  0
 21 39  1  0  0  0  0
 22 84  1  0  0  0  0
 23 85  1  0  0  0  0
 24 26  2  0  0  0  0
 24 84  1  0  0  0  0
 25 86  1  0  0  0  0
 26 87  1  0  0  0  0
 27 67  2  0  0  0  0
 28 49  1  0  0  0  0
 28 68  1  0  0  0  0
 29 58  1  0  0  0  0
 29 69  2  0  0  0  0
 30 70  1  0  0  0  0
 30 73  1  0  0  0  0
 31 65  1  0  0  0  0
 31 68  2  0  0  0  0
 31 69  1  0  0  0  0
 32 74  1  0  0  0  0
 32 79  2  0  0  0  0
 33 47  1  0  0  0  0
 33 75  1  0  0  0  0
 33 80  2  0  0  0  0
 34 63  1  0  0  0  0
 34 71  1  0  0  0  0
 34 81  2  0  0  0  0
 35 65  1  0  0  0  0
 35 72  1  0  0  0  0
 35 82  2  0  0  0  0
 36 64  1  0  0  0  0
 36 76  1  0  0  0  0
 36 83  2  0  0  0  0
 37 40  1  0  0  0  0
 38 47  1  0  0  0  0
 39 71  1  0  0  0  0
 40 42  1  0  0  0  0
 41 43  1  0  0  0  0
 41 44  1  0  0  0  0
 42 46  1  0  0  0  0
 43 48  1  0  0  0  0
 44 72  1  0  0  0  0
 45 48  1  0  0  0  0
 45 72  1  0  0  0  0
 46 75  1  0  0  0  0
 47 71  1  0  0  0  0
 48 70  1  0  0  0  0
 50 64  1  0  0  0  0
 51 65  1  0  0  0  0
 52 65  1  0  0  0  0
 53 66  1  0  0  0  0
 54 66  1  0  0  0  0
 55 66  1  0  0  0  0
 56 77  1  0  0  0  0
 57 78  1  0  0  0  0
 58 59  1  0  0  0  0
 59 60  1  0  0  0  0
 60 78  1  0  0  0  0
 61 62  1  0  0  0  0
 61 78  1  0  0  0  0
 62 85  1  0  0  0  0
 63 66  1  0  0  0  0
 63 76  1  0  0  0  0
 64 77  1  0  0  0  0
 67 70  1  0  0  0  0
M  CHG  2  77   1  78   1
M  ISO  4  35 100  62 101  65 100  85 101
M  END
> <Batch ID>
0053

> <Smiles>
CNC(C)C(=O)NC(C(=O)N1Cc2cc([101O:1][101CH2:1]CN(C)CCCc3cc(C)nc([100C:0](C)(C)[100C:0](=O)N4CCCC(n5nc(-c6ccc(Oc7ccc(F)cc7F)cc6)c(C(N)=O)c5N)C4)n3)ccc2CC1C(=O)NC1CCCc2ccccc21)C(C)(C)C

> <Shape>
0.254

> <Color>
0.088

> <Negative vol penalty>
0.000

$$$$

  -OEChem-04052317383D

 83 91  0     1  0  0  0  0  0999 V2000
  -17.6347  -26.7369   24.0235 C   0  0  0  0  0  0  0  0  0  0  0  0
  -18.8246  -26.1550   23.5982 C   0  0  0  0  0  0  0  0  0  0  0  0
  -27.0447  -16.0677   20.8774 C   0  0  0  0  0  0  0  0  0  0  0  0
  -25.2705  -17.0184   19.5411 C   0  0  0  0  0  0  0  0  0  0  0  0
  -17.3165  -28.0366   23.6316 C   0  0  0  0  0  0  0  0  0  0  0  0
  -19.6966  -26.8721   22.7798 C   0  0  0  0  0  0  0  0  0  0  0  0
  -26.6837  -27.6860   21.4254 C   0  0  0  0  0  0  0  0  0  0  0  0
  -26.4140  -14.8245   20.8303 C   0  0  0  0  0  0  0  0  0  0  0  0
  -24.6399  -15.7751   19.4939 C   0  0  0  0  0  0  0  0  0  0  0  0
  -27.5835  -27.6692   20.3605 C   0  0  0  0  0  0  0  0  0  0  0  0
  -26.0940  -12.2755   18.6319 C   0  0  0  0  0  0  0  0  0  0  0  0
  -26.8841  -11.1576   18.3640 C   0  0  0  0  0  0  0  0  0  0  0  0
  -26.9667  -29.9357   19.8114 C   0  0  0  0  0  0  0  0  0  0  0  0
  -26.2473  -10.1985   20.4881 C   0  0  0  0  0  0  0  0  0  0  0  0
  -28.0871  -24.4901   16.5910 C   0  0  0  0  0  0  0  0  0  0  0  0
  -26.5062  -24.5636   15.0574 C   0  0  0  0  0  0  0  0  0  0  0  0
  -26.4729  -17.1647   20.2328 C   0  0  0  0  0  0  0  0  0  0  0  0
  -28.4118  -18.7682   19.8121 C   0  0  0  0  0  0  0  0  0  0  0  0
  -18.1896  -28.7734   22.8158 C   0  0  0  0  0  0  0  0  0  0  0  0
  -25.9094  -28.8259   21.6850 C   0  0  0  0  0  0  0  0  0  0  0  0
  -19.3892  -28.1823   22.3754 C   0  0  0  0  0  0  0  0  0  0  0  0
  -26.0597  -29.9653   20.8817 C   0  0  0  0  0  0  0  0  0  0  0  0
  -25.2117  -14.6781   20.1385 C   0  0  0  0  0  0  0  0  0  0  0  0
  -27.7230  -28.7931   19.5516 C   0  0  0  0  0  0  0  0  0  0  0  0
  -25.3807  -12.3549   19.8280 C   0  0  0  0  0  0  0  0  0  0  0  0
  -26.9607  -10.1191   19.2921 C   0  0  0  0  0  0  0  0  0  0  0  0
  -25.4573  -11.3165   20.7561 C   0  0  0  0  0  0  0  0  0  0  0  0
  -27.1235  -18.4494   20.2816 C   0  0  0  0  0  0  0  0  0  0  0  0
  -28.3162  -25.4944   15.6802 C   0  0  0  0  0  0  0  0  0  0  0  0
  -28.5574  -20.1054   20.0900 C   0  0  0  0  0  0  0  0  0  0  0  0
  -29.3894  -17.9305   19.1810 C   0  0  0  0  0  0  0  0  0  0  0  0
  -22.7950  -29.4602   21.7272 C   0  0  0  0  0  0  0  0  0  0  0  0
  -23.7923  -32.3364   22.8476 C   0  0  0  0  0  0  0  0  0  0  0  0
  -26.2923  -34.6483   23.0756 C   0  0  0  0  0  0  0  0  0  0  0  0
  -24.1880  -24.3026   21.0005 C   0  0  0  0  0  0  0  0  0  0  0  0
  -17.7804  -30.1579   22.3792 C   0  0  0  0  0  0  0  0  0  0  0  0
  -24.9627  -28.8374   22.8537 C   0  0  0  0  0  0  0  0  0  0  0  0
  -25.2666  -31.2213   21.1306 C   0  0  0  0  0  0  0  0  0  0  0  0
  -18.9339  -30.9853   21.8179 C   0  0  0  0  0  0  0  0  0  0  0  0
  -27.1018  -23.4896   23.1335 C   0  0  0  0  0  0  0  0  0  0  0  0
  -19.7489  -30.1612   20.8261 C   0  0  0  0  0  0  0  0  0  0  0  0
  -27.4954  -22.0972   22.6431 C   0  0  0  0  0  0  0  0  0  0  0  0
  -25.6124  -23.7586   22.9412 C   0  0  0  0  0  0  0  0  0  0  0  0
  -25.5323  -22.1619   21.0549 C   0  0  0  0  0  0  0  0  0  0  0  0
  -20.3725  -28.9370   21.5073 C   0  0  1  0  0  0  0  0  0  0  0  0
  -23.8516  -29.8732   22.7125 C   0  0  1  0  0  0  0  0  0  0  0  0
  -27.0355  -21.8765   21.1916 C   0  0  2  0  0  0  0  0  0  0  0  0
  -27.4781  -36.7294   23.8241 C   0  0  0  0  0  0  0  0  0  0  0  0
  -22.1683  -33.6299   20.6117 C   0  0  0  0  0  0  0  0  0  0  0  0
  -23.4423  -35.7487   21.0067 C   0  0  0  0  0  0  0  0  0  0  0  0
  -22.0176  -34.7957   22.8191 C   0  0  0  0  0  0  0  0  0  0  0  0
  -23.2285  -25.3534   18.9868 C   0  0  0  0  0  0  0  0  0  0  0  0
  -27.4034  -33.2963   25.4624 C   0  0  0  0  0  0  0  0  0  0  0  0
  -29.4616  -26.4742   15.6400 C   0  0  0  0  0  0  0  0  0  0  0  0
  -29.1972  -27.7631   16.4214 C   0  0  0  0  0  0  0  0  0  0  0  0
  -25.0690  -23.1862   17.6873 C   0  0  0  0  0  0  0  0  0  0  0  0
  -26.2614  -22.7864   16.8077 C   0  0  0  0  0  0  0  0  0  0  0  0
  -25.3991  -24.1994   18.7813 C   0  0  0  0  0  0  0  0  0  0  0  0
  -28.8440  -27.5207   17.8842 C   0  0  0  0  0  0  0  0  0  1  0  0
  -24.1895  -33.6497   22.2179 C   0  0  1  0  0  0  0  0  0  0  0  0
  -26.8501  -35.4151   24.2611 C   0  0  2  0  0  0  0  0  0  0  0  0
  -22.9681  -34.4318   21.6577 C   0  0  0  0  0  0  0  0  0  0  0  0
  -27.3283  -25.5350   14.7283 N   0  0  0  0  0  0  0  0  0  0  0  0
  -26.4955  -19.4994   20.8174 N   0  0  0  0  0  0  0  0  0  0  0  0
  -26.9239  -23.9030   16.1792 N   0  0  0  0  0  0  0  0  0  0  0  0
  -27.3930  -20.4911   20.6862 N   0  0  0  0  0  0  0  0  0  0  0  0
  -24.3495  -31.1811   22.2816 N   0  0  0  0  0  0  0  0  0  0  0  0
  -25.1935  -23.4996   21.5634 N   0  0  0  0  0  0  0  0  0  0  0  0
  -29.5666  -20.9770   19.8801 N   0  0  0  0  0  0  0  0  0  0  0  0
  -29.3735  -17.8208   17.7838 N   0  0  0  0  0  0  0  0  0  0  0  0
  -21.5348  -29.3245   22.2775 N   0  0  0  0  0  0  0  0  0  0  0  0
  -24.9498  -34.3744   23.2305 N   0  0  0  0  0  0  0  0  0  0  0  0
  -24.2423  -24.5183   19.6151 N   0  0  0  0  0  0  0  0  0  0  0  0
  -27.8897  -34.6064   24.9584 N   0  3  0  0  0  0  0  0  0  0  0  0
  -30.2413  -17.2851   19.8377 O   0  0  0  0  0  0  0  0  0  0  0  0
  -23.1002  -29.2797   20.5542 O   0  0  0  0  0  0  0  0  0  0  0  0
  -23.0217  -32.3362   23.8109 O   0  0  0  0  0  0  0  0  0  0  0  0
  -26.9780  -34.3278   22.1073 O   0  0  0  0  0  0  0  0  0  0  0  0
  -23.2982  -24.8064   21.6980 O   0  0  0  0  0  0  0  0  0  0  0  0
  -24.5961  -13.4651   20.0921 O   0  0  0  0  0  0  0  0  0  0  0  0
  -28.6001  -28.7791   18.5112 O   0  0  0  0  0  0  0  0  0  1  0  0
  -27.7182   -9.0450   19.0340 F   0  0  0  0  0  0  0  0  0  0  0  0
  -24.7733  -11.3866   21.9063 F   0  0  0  0  0  0  0  0  0  0  0  0
  1  2  1  0  0  0  0
  1  5  2  0  0  0  0
  2  6  2  0  0  0  0
  3  8  2  0  0  0  0
  3 17  1  0  0  0  0
  4  9  1  0  0  0  0
  4 17  2  0  0  0  0
  5 19  1  0  0  0  0
  6 21  1  0  0  0  0
  7 10  2  0  0  0  0
  7 20  1  0  0  0  0
  8 23  1  0  0  0  0
  9 23  2  0  0  0  0
 10 24  1  0  0  0  0
 11 12  2  0  0  0  0
 11 25  1  0  0  0  0
 12 26  1  0  0  0  0
 13 22  1  0  0  0  0
 13 24  2  0  0  0  0
 14 26  2  0  0  0  0
 14 27  1  0  0  0  0
 15 29  2  0  0  0  0
 15 65  1  0  0  0  0
 16 63  2  0  0  0  0
 16 65  1  0  0  0  0
 17 28  1  0  0  0  0
 18 28  1  0  0  0  0
 18 30  2  0  0  0  0
 18 31  1  0  0  0  0
 19 21  2  0  0  0  0
 19 36  1  0  0  0  0
 20 22  2  0  0  0  0
 20 37  1  0  0  0  0
 21 45  1  0  0  0  0
 22 38  1  0  0  0  0
 23 80  1  0  0  0  0
 24 81  1  0  0  0  0
 25 27  2  0  0  0  0
 25 80  1  0  0  0  0
 26 82  1  0  0  0  0
 27 83  1  0  0  0  0
 28 64  2  0  0  0  0
 29 54  1  0  0  0  0
 29 63  1  0  0  0  0
 30 66  1  0  0  0  0
 30 69  1  0  0  0  0
 31 70  1  0  0  0  0
 31 75  2  0  0  0  0
 32 46  1  0  0  0  0
 32 71  1  0  0  0  0
 32 76  2  0  0  0  0
 33 60  1  0  0  0  0
 33 67  1  0  0  0  0
 33 77  2  0  0  0  0
 34 61  1  0  0  0  0
 34 72  1  0  0  0  0
 34 78  2  0  0  0  0
 35 68  1  0  0  0  0
 35 73  1  0  0  0  0
 35 79  2  0  0  0  0
 36 39  1  0  0  0  0
 37 46  1  0  0  0  0
 38 67  1  0  0  0  0
 39 41  1  0  0  0  0
 40 42  1  0  0  0  0
 40 43  1  0  0  0  0
 41 45  1  0  0  0  0
 42 47  1  0  0  0  0
 43 68  1  0  0  0  0
 44 47  1  0  0  0  0
 44 68  1  0  0  0  0
 45 71  1  0  0  0  0
 46 67  1  0  0  0  0
 47 66  1  0  0  0  0
 48 61  1  0  0  0  0
 49 62  1  0  0  0  0
 50 62  1  0  0  0  0
 51 62  1  0  0  0  0
 52 73  1  0  0  0  0
 53 74  1  0  0  0  0
 54 55  1  0  0  0  0
 55 59  1  0  0  0  0
 56 57  1  0  0  0  0
 56 58  1  0  0  0  0
 57 65  1  0  0  0  0
 58 73  1  0  0  0  0
 59 81  1  0  0  0  0
 60 62  1  0  0  0  0
 60 72  1  0  0  0  0
 61 74  1  0  0  0  0
 64 66  1  0  0  0  0
M  CHG  1  74   1
M  ISO  4  35 100  59 101  73 100  81 101
M  END
> <Batch ID>
0053

> <Smiles>
CNC(C)C(=O)NC(C(=O)N1Cc2cc([101O:1][101CH2:1]CCc3cn(CCC[100N:0](C)[100C:0](=O)N4CCCC(n5nc(-c6ccc(Oc7ccc(F)cc7F)cc6)c(C(N)=O)c5N)C4)cn3)ccc2CC1C(=O)NC1CCCc2ccccc21)C(C)(C)C

> <Shape>
0.244

> <Color>
0.102

> <Negative vol penalty>
0.000

$$$$

  -OEChem-04052317383D

 81 89  0     1  0  0  0  0  0999 V2000
  -22.6614  -23.7169   19.7149 C   0  0  0  0  0  0  0  0  0  0  0  0
  -23.9373  -23.1805   19.5742 C   0  0  0  0  0  0  0  0  0  0  0  0
  -26.2748  -29.0931   19.2367 C   0  0  0  0  0  0  0  0  0  0  0  0
  -26.3015  -28.5437   21.5892 C   0  0  0  0  0  0  0  0  0  0  0  0
  -21.7278  -23.0859   20.5359 C   0  0  0  0  0  0  0  0  0  0  0  0
  -24.2806  -22.0132   20.2554 C   0  0  0  0  0  0  0  0  0  0  0  0
  -28.0104  -17.5686   18.2958 C   0  0  0  0  0  0  0  0  0  0  0  0
  -25.1143  -29.8437   19.4251 C   0  0  0  0  0  0  0  0  0  0  0  0
  -25.1410  -29.2944   21.7776 C   0  0  0  0  0  0  0  0  0  0  0  0
  -29.3529  -17.2909   18.5495 C   0  0  0  0  0  0  0  0  0  0  0  0
  -21.8200  -28.9175   21.2681 C   0  0  0  0  0  0  0  0  0  0  0  0
  -20.8053  -28.3581   22.0446 C   0  0  0  0  0  0  0  0  0  0  0  0
  -28.6989  -15.7333   20.2715 C   0  0  0  0  0  0  0  0  0  0  0  0
  -20.9673  -30.2086   23.5894 C   0  0  0  0  0  0  0  0  0  0  0  0
  -32.7306  -19.4538   22.9286 C   0  0  0  0  0  0  0  0  0  0  0  0
  -26.8683  -28.4430   20.3187 C   0  0  0  0  0  0  0  0  0  0  0  0
  -29.3967  -28.1197   20.2155 C   0  0  0  0  0  0  0  0  0  0  0  0
  -22.0568  -21.9050   21.2199 C   0  0  0  0  0  0  0  0  0  0  0  0
  -27.0007  -16.9378   19.0367 C   0  0  0  0  0  0  0  0  0  0  0  0
  -23.3509  -21.3666   21.0874 C   0  0  0  0  0  0  0  0  0  0  0  0
  -27.3443  -16.0028   20.0235 C   0  0  0  0  0  0  0  0  0  0  0  0
  -24.5475  -29.9444   20.6955 C   0  0  0  0  0  0  0  0  0  0  0  0
  -29.6974  -16.3753   19.5394 C   0  0  0  0  0  0  0  0  0  0  0  0
  -22.4085  -30.1224   21.6522 C   0  0  0  0  0  0  0  0  0  0  0  0
  -20.3789  -29.0037   23.2053 C   0  0  0  0  0  0  0  0  0  0  0  0
  -21.9821  -30.7680   22.8129 C   0  0  0  0  0  0  0  0  0  0  0  0
  -28.0668  -27.6670   20.1246 C   0  0  0  0  0  0  0  0  0  0  0  0
  -32.1404  -18.3327   22.4171 C   0  0  0  0  0  0  0  0  0  0  0  0
  -30.1570  -27.0076   19.9480 C   0  0  0  0  0  0  0  0  0  0  0  0
  -30.5527  -19.8277   22.7973 C   0  0  0  0  0  0  0  0  0  0  0  0
  -29.8998  -29.4285   20.5149 C   0  0  0  0  0  0  0  0  0  0  0  0
  -24.7061  -17.9301   20.9998 C   0  0  0  0  0  0  0  0  0  0  0  0
  -23.8208  -14.8107   20.9132 C   0  0  0  0  0  0  0  0  0  0  0  0
  -24.7135  -11.5593   20.3860 C   0  0  0  0  0  0  0  0  0  0  0  0
  -29.1224  -21.1348   20.4884 C   0  0  0  0  0  0  0  0  0  0  0  0
  -21.0292  -21.2848   22.1332 C   0  0  0  0  0  0  0  0  0  0  0  0
  -25.5565  -17.2284   18.7326 C   0  0  0  0  0  0  0  0  0  0  0  0
  -26.2977  -15.2834   20.8332 C   0  0  0  0  0  0  0  0  0  0  0  0
  -21.3529  -19.8456   22.5260 C   0  0  0  0  0  0  0  0  0  0  0  0
  -30.0368  -22.8838   17.5250 C   0  0  0  0  0  0  0  0  0  0  0  0
  -22.8141  -19.7228   22.9464 C   0  0  0  0  0  0  0  0  0  0  0  0
  -29.7556  -24.3489   17.8634 C   0  0  0  0  0  0  0  0  0  0  0  0
  -29.0032  -21.9512   18.1526 C   0  0  0  0  0  0  0  0  0  0  0  0
  -28.5447  -23.5780   19.9462 C   0  0  0  0  0  0  0  0  0  0  0  0
  -23.7533  -20.0883   21.7906 C   0  0  1  0  0  0  0  0  0  0  0  0
  -24.6249  -16.9114   19.8984 C   0  0  1  0  0  0  0  0  0  0  0  0
  -29.5927  -24.5523   19.3817 C   0  0  2  0  0  0  0  0  0  0  0  0
  -23.7824   -9.2293   20.4268 C   0  0  0  0  0  0  0  0  0  0  0  0
  -23.9169  -14.8283   23.9628 C   0  0  0  0  0  0  0  0  0  0  0  0
  -23.9235  -12.3253   23.9077 C   0  0  0  0  0  0  0  0  0  0  0  0
  -21.9778  -13.5862   22.9874 C   0  0  0  0  0  0  0  0  0  0  0  0
  -31.9110  -21.6945   23.6949 C   0  0  0  0  0  0  0  0  0  0  0  0
  -25.2899  -11.1540   17.5115 C   0  0  0  0  0  0  0  0  0  0  0  0
  -32.7222  -17.0130   21.9771 C   0  0  0  0  0  0  0  0  0  0  0  0
  -29.2175  -20.4709   22.8778 C   0  0  0  0  0  0  0  0  0  0  0  0
  -33.1243  -16.9787   20.5011 C   0  0  0  0  0  0  0  0  0  0  0  0
  -31.9457  -17.1506   19.5500 C   0  0  0  0  0  0  0  0  0  1  0  0
  -24.1634  -13.5794   21.7166 C   0  0  1  0  0  0  0  0  0  0  0  0
  -24.0630  -10.4554   19.5719 C   0  0  2  0  0  0  0  0  0  0  0  0
  -23.5154  -13.5947   23.1299 C   0  0  0  0  0  0  0  0  0  0  0  0
  -27.9836  -26.3686   19.8229 N   0  0  0  0  0  0  0  0  0  0  0  0
  -31.7249  -20.3626   23.1540 N   0  0  0  0  0  0  0  0  0  0  0  0
  -29.2708  -25.9958   19.7217 N   0  0  0  0  0  0  0  0  0  0  0  0
  -30.7928  -18.5920   22.3470 N   0  3  0  0  0  0  0  0  0  0  0  0
  -24.8998  -15.6063   20.5028 N   0  0  0  0  0  0  0  0  0  0  0  0
  -28.8984  -22.1940   19.5934 N   0  0  0  0  0  0  0  0  0  0  0  0
  -31.4904  -26.8062   19.8866 N   0  0  0  0  0  0  0  0  0  0  0  0
  -28.9806  -30.4566   20.7647 N   0  0  0  0  0  0  0  0  0  0  0  0
  -23.8403  -18.9960   20.8452 N   0  0  0  0  0  0  0  0  0  0  0  0
  -23.7795  -12.4363   20.8955 N   0  0  0  0  0  0  0  0  0  0  0  0
  -29.0095  -21.4522   21.8364 N   0  0  0  0  0  0  0  0  0  0  0  0
  -24.9511  -10.0499   18.4460 N   0  3  0  0  0  0  0  0  0  0  0  0
  -31.1278  -29.6826   20.5436 O   0  0  0  0  0  0  0  0  0  0  0  0
  -25.4946  -17.7610   21.9224 O   0  0  0  0  0  0  0  0  0  0  0  0
  -22.6397  -15.0537   20.6530 O   0  0  0  0  0  0  0  0  0  0  0  0
  -25.9285  -11.6338   20.5561 O   0  0  0  0  0  0  0  0  0  0  0  0
  -29.4076  -19.9923   20.1139 O   0  0  0  0  0  0  0  0  0  0  0  0
  -23.4152  -30.6769   20.8798 O   0  0  0  0  0  0  0  0  0  0  0  0
  -31.0070  -16.1028   19.7895 O   0  0  0  0  0  0  0  0  0  1  0  0
  -19.4034  -28.4672   23.9500 F   0  0  0  0  0  0  0  0  0  0  0  0
  -22.5428  -31.9264   23.1864 F   0  0  0  0  0  0  0  0  0  0  0  0
  1  2  1  0  0  0  0
  1  5  2  0  0  0  0
  2  6  2  0  0  0  0
  3  8  2  0  0  0  0
  3 16  1  0  0  0  0
  4  9  1  0  0  0  0
  4 16  2  0  0  0  0
  5 18  1  0  0  0  0
  6 20  1  0  0  0  0
  7 10  2  0  0  0  0
  7 19  1  0  0  0  0
  8 22  1  0  0  0  0
  9 22  2  0  0  0  0
 10 23  1  0  0  0  0
 11 12  2  0  0  0  0
 11 24  1  0  0  0  0
 12 25  1  0  0  0  0
 13 21  1  0  0  0  0
 13 23  2  0  0  0  0
 14 25  2  0  0  0  0
 14 26  1  0  0  0  0
 15 28  2  0  0  0  0
 15 62  1  0  0  0  0
 16 27  1  0  0  0  0
 17 27  1  0  0  0  0
 17 29  2  0  0  0  0
 17 31  1  0  0  0  0
 18 20  2  0  0  0  0
 18 36  1  0  0  0  0
 19 21  2  0  0  0  0
 19 37  1  0  0  0  0
 20 45  1  0  0  0  0
 21 38  1  0  0  0  0
 22 78  1  0  0  0  0
 23 79  1  0  0  0  0
 24 26  2  0  0  0  0
 24 78  1  0  0  0  0
 25 80  1  0  0  0  0
 26 81  1  0  0  0  0
 27 61  2  0  0  0  0
 28 54  1  0  0  0  0
 28 64  1  0  0  0  0
 29 63  1  0  0  0  0
 29 67  1  0  0  0  0
 30 55  1  0  0  0  0
 30 62  1  0  0  0  0
 30 64  2  0  0  0  0
 31 68  1  0  0  0  0
 31 73  2  0  0  0  0
 32 46  1  0  0  0  0
 32 69  1  0  0  0  0
 32 74  2  0  0  0  0
 33 58  1  0  0  0  0
 33 65  1  0  0  0  0
 33 75  2  0  0  0  0
 34 59  1  0  0  0  0
 34 70  1  0  0  0  0
 34 76  2  0  0  0  0
 35 66  1  0  0  0  0
 35 71  1  0  0  0  0
 35 77  2  0  0  0  0
 36 39  1  0  0  0  0
 37 46  1  0  0  0  0
 38 65  1  0  0  0  0
 39 41  1  0  0  0  0
 40 42  1  0  0  0  0
 40 43  1  0  0  0  0
 41 45  1  0  0  0  0
 42 47  1  0  0  0  0
 43 66  1  0  0  0  0
 44 47  1  0  0  0  0
 44 66  1  0  0  0  0
 45 69  1  0  0  0  0
 46 65  1  0  0  0  0
 47 63  1  0  0  0  0
 48 59  1  0  0  0  0
 49 60  1  0  0  0  0
 50 60  1  0  0  0  0
 51 60  1  0  0  0  0
 52 62  1  0  0  0  0
 53 72  1  0  0  0  0
 54 56  1  0  0  0  0
 55 71  1  0  0  0  0
 56 57  1  0  0  0  0
 57 79  1  0  0  0  0
 58 60  1  0  0  0  0
 58 70  1  0  0  0  0
 59 72  1  0  0  0  0
 61 63  1  0  0  0  0
M  CHG  2  64   1  72   1
M  ISO  4  35 100  57 101  71 100  79 101
M  END
> <Batch ID>
0053

> <Smiles>
CNC(C)C(=O)NC(C(=O)N1Cc2cc([101O:1][101CH2:1]CCc3cn(C)c(C[100NH:0][100C:0](=O)N4CCCC(n5nc(-c6ccc(Oc7ccc(F)cc7F)cc6)c(C(N)=O)c5N)C4)n3)ccc2CC1C(=O)NC1CCCc2ccccc21)C(C)(C)C

> <Shape>
0.243

> <Color>
0.074

> <Negative vol penalty>
0.000

$$$$

  -OEChem-04052317383D

 84 92  0     1  0  0  0  0  0999 V2000
  -17.2553  -30.4801   23.6873 C   0  0  0  0  0  0  0  0  0  0  0  0
  -18.5405  -30.9744   23.8862 C   0  0  0  0  0  0  0  0  0  0  0  0
  -27.7063  -13.0436   22.3406 C   0  0  0  0  0  0  0  0  0  0  0  0
  -26.5298  -13.1436   20.2328 C   0  0  0  0  0  0  0  0  0  0  0  0
  -17.0737  -29.1659   23.2587 C   0  0  0  0  0  0  0  0  0  0  0  0
  -19.6448  -30.1542   23.6576 C   0  0  0  0  0  0  0  0  0  0  0  0
  -26.4354  -30.4367   21.3940 C   0  0  0  0  0  0  0  0  0  0  0  0
  -27.2561  -11.7371   22.5299 C   0  0  0  0  0  0  0  0  0  0  0  0
  -26.0796  -11.8371   20.4221 C   0  0  0  0  0  0  0  0  0  0  0  0
  -27.7173  -30.0498   21.7826 C   0  0  0  0  0  0  0  0  0  0  0  0
  -23.6740  -10.2643   22.2027 C   0  0  0  0  0  0  0  0  0  0  0  0
  -22.3303   -9.9975   21.9405 C   0  0  0  0  0  0  0  0  0  0  0  0
  -27.2849  -27.8209   20.9675 C   0  0  0  0  0  0  0  0  0  0  0  0
  -22.9781   -8.3885   20.2585 C   0  0  0  0  0  0  0  0  0  0  0  0
  -30.8777  -27.2273   18.9299 C   0  0  0  0  0  0  0  0  0  0  0  0
  -30.8243  -26.4952   21.4967 C   0  0  0  0  0  0  0  0  0  0  0  0
  -27.3431  -13.7469   21.1920 C   0  0  0  0  0  0  0  0  0  0  0  0
  -28.9923  -15.5035   20.3538 C   0  0  0  0  0  0  0  0  0  0  0  0
  -18.1766  -28.3322   23.0154 C   0  0  0  0  0  0  0  0  0  0  0  0
  -25.5634  -29.5143   20.7982 C   0  0  0  0  0  0  0  0  0  0  0  0
  -19.4777  -28.8272   23.2265 C   0  0  0  0  0  0  0  0  0  0  0  0
  -25.9934  -28.1993   20.5700 C   0  0  0  0  0  0  0  0  0  0  0  0
  -26.4427  -11.1338   21.5707 C   0  0  0  0  0  0  0  0  0  0  0  0
  -28.1411  -28.7409   21.5720 C   0  0  0  0  0  0  0  0  0  0  0  0
  -24.6698   -9.5933   21.4929 C   0  0  0  0  0  0  0  0  0  0  0  0
  -21.9824   -9.0596   20.9684 C   0  0  0  0  0  0  0  0  0  0  0  0
  -24.3219   -8.6554   20.5208 C   0  0  0  0  0  0  0  0  0  0  0  0
  -27.8074  -15.0968   20.9961 C   0  0  0  0  0  0  0  0  0  0  0  0
  -31.5701  -26.1198   19.3678 C   0  0  0  0  0  0  0  0  0  0  0  0
  -30.1321  -27.6029   21.0589 C   0  0  0  0  0  0  0  0  0  1  0  0
  -28.9708  -16.8747   20.4299 C   0  0  0  0  0  0  0  0  0  0  0  0
  -30.0203  -14.7124   19.7430 C   0  0  0  0  0  0  0  0  0  0  0  0
  -22.7320  -28.2879   21.5618 C   0  0  0  0  0  0  0  0  0  0  0  0
  -22.9528  -26.9498   18.6150 C   0  0  0  0  0  0  0  0  0  0  0  0
  -24.9466  -25.8969   16.0532 C   0  0  0  0  0  0  0  0  0  0  0  0
  -26.2573  -21.7315   19.9897 C   0  0  0  0  0  0  0  0  0  0  0  0
  -17.9291  -26.9041   22.5984 C   0  0  0  0  0  0  0  0  0  0  0  0
  -24.1933  -29.9545   20.3605 C   0  0  0  0  0  0  0  0  0  0  0  0
  -25.1028  -27.1760   19.9157 C   0  0  0  0  0  0  0  0  0  0  0  0
  -19.1624  -26.2164   22.0186 C   0  0  0  0  0  0  0  0  0  0  0  0
  -25.9797  -19.9788   23.0764 C   0  0  0  0  0  0  0  0  0  0  0  0
  -20.3819  -26.4778   22.8969 C   0  0  0  0  0  0  0  0  0  0  0  0
  -26.5221  -18.5850   22.7556 C   0  0  0  0  0  0  0  0  0  0  0  0
  -25.1994  -20.5648   21.9018 C   0  0  0  0  0  0  0  0  0  0  0  0
  -26.4729  -19.1911   20.3003 C   0  0  0  0  0  0  0  0  0  0  0  0
  -20.7014  -27.9760   22.9654 C   0  0  1  0  0  0  0  0  0  0  0  0
  -23.2072  -28.7977   20.2306 C   0  0  1  0  0  0  0  0  0  0  0  0
  -27.3146  -18.5820   21.4346 C   0  0  2  0  0  0  0  0  0  0  0  0
  -24.8413  -24.8107   13.7935 C   0  0  0  0  0  0  0  0  0  0  0  0
  -22.4367  -24.2500   19.9395 C   0  0  0  0  0  0  0  0  0  0  0  0
  -23.2736  -23.1455   17.8544 C   0  0  0  0  0  0  0  0  0  0  0  0
  -21.2432  -24.5921   17.7686 C   0  0  0  0  0  0  0  0  0  0  0  0
  -26.1768  -28.2458   14.7385 C   0  0  0  0  0  0  0  0  0  0  0  0
  -32.2122  -22.2329   19.2092 C   0  0  0  0  0  0  0  0  0  0  0  0
  -32.3683  -25.3018   18.4135 C   0  0  0  0  0  0  0  0  0  0  0  0
  -28.6885  -23.4126   18.4779 C   0  0  0  0  0  0  0  0  0  0  0  0
  -27.3855  -22.7579   18.0319 C   0  0  0  0  0  0  0  0  0  0  0  0
  -31.5885  -24.1589   17.7594 C   0  0  0  0  0  0  0  0  0  0  0  0
  -29.8750  -22.4622   18.3805 C   0  0  0  0  0  0  0  0  0  0  0  0
  -23.5150  -25.6611   18.0655 C   0  0  1  0  0  0  0  0  0  0  0  0
  -24.8670  -26.1269   14.5548 C   0  0  2  0  0  0  0  0  0  0  0  0
  -22.6335  -24.4307   18.4211 C   0  0  0  0  0  0  0  0  0  0  0  0
  -31.5557  -25.7337   20.6590 N   0  0  0  0  0  0  0  0  0  0  0  0
  -30.1463  -27.9888   19.7676 N   0  0  0  0  0  0  0  0  0  0  0  0
  -27.0859  -16.1264   21.4471 N   0  0  0  0  0  0  0  0  0  0  0  0
  -27.8195  -17.1936   21.0878 N   0  0  0  0  0  0  0  0  0  0  0  0
  -23.7701  -27.6532   19.5112 N   0  0  0  0  0  0  0  0  0  0  0  0
  -26.0075  -20.5341   20.6803 N   0  0  0  0  0  0  0  0  0  0  0  0
  -29.8247  -17.8267   19.9976 N   0  0  0  0  0  0  0  0  0  0  0  0
  -29.8849  -13.3175   19.7532 N   0  0  0  0  0  0  0  0  0  0  0  0
  -21.3690  -28.4063   21.7556 N   0  0  0  0  0  0  0  0  0  0  0  0
  -23.6960  -25.8725   16.6334 N   0  0  0  0  0  0  0  0  0  0  0  0
  -27.0371  -21.6145   18.8456 N   0  0  0  0  0  0  0  0  0  0  0  0
  -26.0418  -26.9166   14.0888 N   0  3  0  0  0  0  0  0  0  0  0  0
  -31.1285  -23.1958   18.7901 N   0  3  1  0  0  0  0  0  0  0  0  0
  -31.0371  -15.2267   19.2185 O   0  0  0  0  0  0  0  0  0  0  0  0
  -23.5418  -27.8203   22.3537 O   0  0  0  0  0  0  0  0  0  0  0  0
  -21.8328  -27.3224   18.2566 O   0  0  0  0  0  0  0  0  0  0  0  0
  -26.0116  -25.7496   16.6489 O   0  0  0  0  0  0  0  0  0  0  0  0
  -25.8224  -22.8246   20.3678 O   0  0  0  0  0  0  0  0  0  0  0  0
  -26.0034   -9.8588   21.7550 O   0  0  0  0  0  0  0  0  0  0  0  0
  -29.3915  -28.3604   21.9508 O   0  0  0  0  0  0  0  0  0  1  0  0
  -20.6920   -8.8023   20.7177 F   0  0  0  0  0  0  0  0  0  0  0  0
  -25.2741   -8.0068   19.8365 F   0  0  0  0  0  0  0  0  0  0  0  0
  1  2  1  0  0  0  0
  1  5  2  0  0  0  0
  2  6  2  0  0  0  0
  3  8  2  0  0  0  0
  3 17  1  0  0  0  0
  4  9  1  0  0  0  0
  4 17  2  0  0  0  0
  5 19  1  0  0  0  0
  6 21  1  0  0  0  0
  7 10  2  0  0  0  0
  7 20  1  0  0  0  0
  8 23  1  0  0  0  0
  9 23  2  0  0  0  0
 10 24  1  0  0  0  0
 11 12  2  0  0  0  0
 11 25  1  0  0  0  0
 12 26  1  0  0  0  0
 13 22  1  0  0  0  0
 13 24  2  0  0  0  0
 14 26  2  0  0  0  0
 14 27  1  0  0  0  0
 15 29  2  0  0  0  0
 15 64  1  0  0  0  0
 16 30  1  0  0  0  0
 16 63  2  0  0  0  0
 17 28  1  0  0  0  0
 18 28  1  0  0  0  0
 18 31  2  0  0  0  0
 18 32  1  0  0  0  0
 19 21  2  0  0  0  0
 19 37  1  0  0  0  0
 20 22  2  0  0  0  0
 20 38  1  0  0  0  0
 21 46  1  0  0  0  0
 22 39  1  0  0  0  0
 23 81  1  0  0  0  0
 24 82  1  0  0  0  0
 25 27  2  0  0  0  0
 25 81  1  0  0  0  0
 26 83  1  0  0  0  0
 27 84  1  0  0  0  0
 28 65  2  0  0  0  0
 29 55  1  0  0  0  0
 29 63  1  0  0  0  0
 30 64  2  0  0  0  0
 30 82  1  0  0  0  0
 31 66  1  0  0  0  0
 31 69  1  0  0  0  0
 32 70  1  0  0  0  0
 32 76  2  0  0  0  0
 33 47  1  0  0  0  0
 33 71  1  0  0  0  0
 33 77  2  0  0  0  0
 34 60  1  0  0  0  0
 34 67  1  0  0  0  0
 34 78  2  0  0  0  0
 35 61  1  0  0  0  0
 35 72  1  0  0  0  0
 35 79  2  0  0  0  0
 36 68  1  0  0  0  0
 36 73  1  0  0  0  0
 36 80  2  0  0  0  0
 37 40  1  0  0  0  0
 38 47  1  0  0  0  0
 39 67  1  0  0  0  0
 40 42  1  0  0  0  0
 41 43  1  0  0  0  0
 41 44  1  0  0  0  0
 42 46  1  0  0  0  0
 43 48  1  0  0  0  0
 44 68  1  0  0  0  0
 45 48  1  0  0  0  0
 45 68  1  0  0  0  0
 46 71  1  0  0  0  0
 47 67  1  0  0  0  0
 48 66  1  0  0  0  0
 49 61  1  0  0  0  0
 50 62  1  0  0  0  0
 51 62  1  0  0  0  0
 52 62  1  0  0  0  0
 53 74  1  0  0  0  0
 54 75  1  0  0  0  0
 55 58  1  0  0  0  0
 56 57  1  0  0  0  0
 56 59  1  0  0  0  0
 57 73  1  0  0  0  0
 58 75  1  0  0  0  0
 59 75  1  0  0  0  0
 60 62  1  0  0  0  0
 60 72  1  0  0  0  0
 61 74  1  0  0  0  0
 65 66  1  0  0  0  0
M  CHG  2  74   1  75   1
M  ISO  4  30 101  36 100  73 100  82 101
M  END
> <Batch ID>
0053

> <Smiles>
CNC(C)C(=O)NC(C(=O)N1Cc2cc([101O:1][101c:1]3cnc(CCN(C)CCC[100NH:0][100C:0](=O)N4CCCC(n5nc(-c6ccc(Oc7ccc(F)cc7F)cc6)c(C(N)=O)c5N)C4)cn3)ccc2CC1C(=O)NC1CCCc2ccccc21)C(C)(C)C

> <Shape>
0.284

> <Color>
0.082

> <Negative vol penalty>
0.000

$$$$

  -OEChem-04052317383D

 80 88  0     1  0  0  0  0  0999 V2000
  -17.7711  -18.3765   31.8272 C   0  0  0  0  0  0  0  0  0  0  0  0
  -18.5441  -18.9986   30.8520 C   0  0  0  0  0  0  0  0  0  0  0  0
  -23.0003   -9.8953   19.9853 C   0  0  0  0  0  0  0  0  0  0  0  0
  -23.7293   -9.9519   22.2880 C   0  0  0  0  0  0  0  0  0  0  0  0
  -18.3670  -17.5013   32.7342 C   0  0  0  0  0  0  0  0  0  0  0  0
  -19.9139  -18.7466   30.7841 C   0  0  0  0  0  0  0  0  0  0  0  0
  -23.3592  -18.4661   25.7287 C   0  0  0  0  0  0  0  0  0  0  0  0
  -22.2345   -8.7613   20.2556 C   0  0  0  0  0  0  0  0  0  0  0  0
  -22.9635   -8.8178   22.5583 C   0  0  0  0  0  0  0  0  0  0  0  0
  -24.1986  -19.3935   25.1130 C   0  0  0  0  0  0  0  0  0  0  0  0
  -23.2078   -5.4778   22.0938 C   0  0  0  0  0  0  0  0  0  0  0  0
  -23.7968   -4.4626   22.8473 C   0  0  0  0  0  0  0  0  0  0  0  0
  -26.0946  -18.4164   26.2399 C   0  0  0  0  0  0  0  0  0  0  0  0
  -22.0757   -4.7090   24.5249 C   0  0  0  0  0  0  0  0  0  0  0  0
  -29.8025  -18.6407   23.2901 C   0  0  0  0  0  0  0  0  0  0  0  0
  -29.0436  -18.4328   21.0907 C   0  0  0  0  0  0  0  0  0  0  0  0
  -23.7478  -10.4906   21.0015 C   0  0  0  0  0  0  0  0  0  0  0  0
  -24.1322  -13.0058   20.8189 C   0  0  0  0  0  0  0  0  0  0  0  0
  -19.7431  -17.2310   32.6712 C   0  0  0  0  0  0  0  0  0  0  0  0
  -23.8805  -17.5122   26.6145 C   0  0  0  0  0  0  0  0  0  0  0  0
  -20.5291  -17.8679   31.6919 C   0  0  0  0  0  0  0  0  0  0  0  0
  -25.2600  -17.4764   26.8635 C   0  0  0  0  0  0  0  0  0  0  0  0
  -29.8871  -17.9770   22.0832 C   0  0  0  0  0  0  0  0  0  0  0  0
  -22.2161   -8.2225   21.5421 C   0  0  0  0  0  0  0  0  0  0  0  0
  -25.5661  -19.3706   25.3708 C   0  0  0  0  0  0  0  0  0  0  0  0
  -22.0527   -6.1088   22.5558 C   0  0  0  0  0  0  0  0  0  0  0  0
  -23.2308   -4.0781   24.0628 C   0  0  0  0  0  0  0  0  0  0  0  0
  -21.4867   -5.7244   23.7713 C   0  0  0  0  0  0  0  0  0  0  0  0
  -24.5395  -11.6617   20.7228 C   0  0  0  0  0  0  0  0  0  0  0  0
  -25.2412  -13.7278   20.4510 C   0  0  0  0  0  0  0  0  0  0  0  0
  -28.1919  -20.0222   22.4748 C   0  0  0  0  0  0  0  0  0  0  0  0
  -22.8648  -13.5529   21.2063 C   0  0  0  0  0  0  0  0  0  0  0  0
  -23.4671  -16.8501   29.6958 C   0  0  0  0  0  0  0  0  0  0  0  0
  -25.3581  -14.3073   29.0026 C   0  0  0  0  0  0  0  0  0  0  0  0
  -27.7370  -12.9323   26.9784 C   0  0  0  0  0  0  0  0  0  0  0  0
  -30.7378  -14.6643   20.6881 C   0  0  0  0  0  0  0  0  0  0  0  0
  -20.3507  -16.3140   33.7030 C   0  0  0  0  0  0  0  0  0  0  0  0
  -22.9653  -16.5017   27.2498 C   0  0  0  0  0  0  0  0  0  0  0  0
  -25.8723  -16.4596   27.7907 C   0  0  0  0  0  0  0  0  0  0  0  0
  -21.7426  -15.8120   33.3276 C   0  0  0  0  0  0  0  0  0  0  0  0
  -29.5937  -12.2348   18.3503 C   0  0  0  0  0  0  0  0  0  0  0  0
  -22.6101  -16.9646   32.8318 C   0  0  0  0  0  0  0  0  0  0  0  0
  -28.1460  -11.9757   18.7709 C   0  0  0  0  0  0  0  0  0  0  0  0
  -30.4981  -12.4733   19.5574 C   0  0  0  0  0  0  0  0  0  0  0  0
  -28.5900  -13.2715   20.8975 C   0  0  0  0  0  0  0  0  0  0  0  0
  -22.0137  -17.6010   31.5705 C   0  0  1  0  0  0  0  0  0  0  0  0
  -23.5350  -15.9024   28.5318 C   0  0  1  0  0  0  0  0  0  0  0  0
  -27.6291  -13.0808   19.7116 C   0  0  2  0  0  0  0  0  0  0  0  0
  -29.1124  -10.8538   26.6854 C   0  0  0  0  0  0  0  0  0  0  0  0
  -27.1582  -15.1765   31.3079 C   0  0  0  0  0  0  0  0  0  0  0  0
  -28.9455  -13.6879   30.3817 C   0  0  0  0  0  0  0  0  0  0  0  0
  -26.7836  -12.7088   31.1500 C   0  0  0  0  0  0  0  0  0  0  0  0
  -26.5658  -12.3932   24.3144 C   0  0  0  0  0  0  0  0  0  0  0  0
  -30.8219  -16.8460   21.8680 C   0  0  0  0  0  0  0  0  0  0  0  0
  -27.2363  -21.1696   22.6952 C   0  0  0  0  0  0  0  0  0  0  0  0
  -25.9999  -20.7512   23.4836 C   0  0  0  0  0  0  0  0  0  1  0  0
  -26.8454  -14.0484   29.0066 C   0  0  1  0  0  0  0  0  0  0  0  0
  -27.8264  -11.5729   26.3086 C   0  0  2  0  0  0  0  0  0  0  0  0
  -27.4217  -13.9259   30.4455 C   0  0  0  0  0  0  0  0  0  0  0  0
  -28.9630  -19.6713   23.5216 N   0  0  0  0  0  0  0  0  0  0  0  0
  -28.1800  -19.4567   21.2527 N   0  0  0  0  0  0  0  0  0  0  0  0
  -25.8082  -11.5346   20.3248 N   0  0  0  0  0  0  0  0  0  0  0  0
  -26.2076  -12.8081   20.1675 N   0  0  0  0  0  0  0  0  0  0  0  0
  -24.9351  -15.4968   28.3926 N   0  0  0  0  0  0  0  0  0  0  0  0
  -29.9525  -13.5339   20.4079 N   0  0  0  0  0  0  0  0  0  0  0  0
  -25.4742  -15.0533   20.3454 N   0  0  0  0  0  0  0  0  0  0  0  0
  -21.8338  -12.6693   21.5536 N   0  0  0  0  0  0  0  0  0  0  0  0
  -22.2873  -16.7785   30.4116 N   0  0  0  0  0  0  0  0  0  0  0  0
  -27.0565  -12.8678   28.1759 N   0  0  0  0  0  0  0  0  0  0  0  0
  -30.1425  -15.6248   21.4967 N   0  0  0  0  0  0  0  0  0  0  0  0
  -27.7885  -11.7223   24.8263 N   0  3  0  0  0  0  0  0  0  0  0  0
  -22.6478  -14.7882   21.2275 O   0  0  0  0  0  0  0  0  0  0  0  0
  -24.4156  -17.5905   29.9282 O   0  0  0  0  0  0  0  0  0  0  0  0
  -24.5991  -13.4811   29.5152 O   0  0  0  0  0  0  0  0  0  0  0  0
  -28.2254  -13.9489   26.4900 O   0  0  0  0  0  0  0  0  0  0  0  0
  -31.8824  -14.8094   20.2458 O   0  0  0  0  0  0  0  0  0  0  0  0
  -21.4687   -7.1161   21.8062 O   0  0  0  0  0  0  0  0  0  0  0  0
  -26.3876  -20.2751   24.7717 O   0  0  0  0  0  0  0  0  0  1  0  0
  -23.7957   -3.1020   24.7856 F   0  0  0  0  0  0  0  0  0  0  0  0
  -20.3764   -6.3260   24.2198 F   0  0  0  0  0  0  0  0  0  0  0  0
  1  2  1  0  0  0  0
  1  5  2  0  0  0  0
  2  6  2  0  0  0  0
  3  8  2  0  0  0  0
  3 17  1  0  0  0  0
  4  9  1  0  0  0  0
  4 17  2  0  0  0  0
  5 19  1  0  0  0  0
  6 21  1  0  0  0  0
  7 10  2  0  0  0  0
  7 20  1  0  0  0  0
  8 24  1  0  0  0  0
  9 24  2  0  0  0  0
 10 25  1  0  0  0  0
 11 12  2  0  0  0  0
 11 26  1  0  0  0  0
 12 27  1  0  0  0  0
 13 22  1  0  0  0  0
 13 25  2  0  0  0  0
 14 27  2  0  0  0  0
 14 28  1  0  0  0  0
 15 23  1  0  0  0  0
 15 60  2  0  0  0  0
 16 23  2  0  0  0  0
 16 61  1  0  0  0  0
 17 29  1  0  0  0  0
 18 29  1  0  0  0  0
 18 30  2  0  0  0  0
 18 32  1  0  0  0  0
 19 21  2  0  0  0  0
 19 37  1  0  0  0  0
 20 22  2  0  0  0  0
 20 38  1  0  0  0  0
 21 46  1  0  0  0  0
 22 39  1  0  0  0  0
 23 54  1  0  0  0  0
 24 77  1  0  0  0  0
 25 78  1  0  0  0  0
 26 28  2  0  0  0  0
 26 77  1  0  0  0  0
 27 79  1  0  0  0  0
 28 80  1  0  0  0  0
 29 62  2  0  0  0  0
 30 63  1  0  0  0  0
 30 66  1  0  0  0  0
 31 55  1  0  0  0  0
 31 60  1  0  0  0  0
 31 61  2  0  0  0  0
 32 67  1  0  0  0  0
 32 72  2  0  0  0  0
 33 47  1  0  0  0  0
 33 68  1  0  0  0  0
 33 73  2  0  0  0  0
 34 57  1  0  0  0  0
 34 64  1  0  0  0  0
 34 74  2  0  0  0  0
 35 58  1  0  0  0  0
 35 69  1  0  0  0  0
 35 75  2  0  0  0  0
 36 65  1  0  0  0  0
 36 70  1  0  0  0  0
 36 76  2  0  0  0  0
 37 40  1  0  0  0  0
 38 47  1  0  0  0  0
 39 64  1  0  0  0  0
 40 42  1  0  0  0  0
 41 43  1  0  0  0  0
 41 44  1  0  0  0  0
 42 46  1  0  0  0  0
 43 48  1  0  0  0  0
 44 65  1  0  0  0  0
 45 48  1  0  0  0  0
 45 65  1  0  0  0  0
 46 68  1  0  0  0  0
 47 64  1  0  0  0  0
 48 63  1  0  0  0  0
 49 58  1  0  0  0  0
 50 59  1  0  0  0  0
 51 59  1  0  0  0  0
 52 59  1  0  0  0  0
 53 71  1  0  0  0  0
 54 70  1  0  0  0  0
 55 56  1  0  0  0  0
 56 78  1  0  0  0  0
 57 59  1  0  0  0  0
 57 69  1  0  0  0  0
 58 71  1  0  0  0  0
 62 63  1  0  0  0  0
M  CHG  1  71   1
M  ISO  4  36 100  56 101  70 100  78 101
M  END
> <Batch ID>
0053

> <Smiles>
CNC(C)C(=O)NC(C(=O)N1Cc2cc([101O:1][101CH2:1]Cc3ncc(C[100NH:0][100C:0](=O)N4CCCC(n5nc(-c6ccc(Oc7ccc(F)cc7F)cc6)c(C(N)=O)c5N)C4)cn3)ccc2CC1C(=O)NC1CCCc2ccccc21)C(C)(C)C

> <Shape>
0.187

> <Color>
0.198

> <Negative vol penalty>
0.000

$$$$

  -OEChem-04052317383D

 85 93  0     1  0  0  0  0  0999 V2000
  -18.7954  -28.7402   22.6199 C   0  0  0  0  0  0  0  0  0  0  0  0
  -18.3627  -27.4333   22.4197 C   0  0  0  0  0  0  0  0  0  0  0  0
  -30.0932  -23.7202   20.2541 C   0  0  0  0  0  0  0  0  0  0  0  0
  -27.8525  -23.2960   21.0520 C   0  0  0  0  0  0  0  0  0  0  0  0
  -20.1545  -29.0064   22.7805 C   0  0  0  0  0  0  0  0  0  0  0  0
  -19.2891  -26.3919   22.3788 C   0  0  0  0  0  0  0  0  0  0  0  0
  -19.9795  -19.4646   24.0680 C   0  0  0  0  0  0  0  0  0  0  0  0
  -29.7549  -25.0516   20.0119 C   0  0  0  0  0  0  0  0  0  0  0  0
  -27.5143  -24.6274   20.8099 C   0  0  0  0  0  0  0  0  0  0  0  0
  -20.3647  -18.2508   23.5004 C   0  0  0  0  0  0  0  0  0  0  0  0
  -26.6865  -26.5435   18.1501 C   0  0  0  0  0  0  0  0  0  0  0  0
  -25.4714  -26.7981   17.5142 C   0  0  0  0  0  0  0  0  0  0  0  0
  -22.6797  -18.8199   23.8692 C   0  0  0  0  0  0  0  0  0  0  0  0
  -24.7394  -28.0805   19.4264 C   0  0  0  0  0  0  0  0  0  0  0  0
  -21.7217  -13.3738   22.4027 C   0  0  0  0  0  0  0  0  0  0  0  0
  -29.1420  -22.8424   20.7741 C   0  0  0  0  0  0  0  0  0  0  0  0
  -30.0162  -20.9255   22.2124 C   0  0  0  0  0  0  0  0  0  0  0  0
  -21.0971  -27.9666   22.7513 C   0  0  0  0  0  0  0  0  0  0  0  0
  -20.9436  -20.3715   24.5312 C   0  0  0  0  0  0  0  0  0  0  0  0
  -20.6622  -26.6446   22.5379 C   0  0  0  0  0  0  0  0  0  0  0  0
  -22.3041  -20.0434   24.4445 C   0  0  0  0  0  0  0  0  0  0  0  0
  -28.4655  -25.5052   20.2899 C   0  0  0  0  0  0  0  0  0  0  0  0
  -21.7150  -17.9295   23.3983 C   0  0  0  0  0  0  0  0  0  0  0  0
  -26.9280  -27.0573   19.4242 C   0  0  0  0  0  0  0  0  0  0  0  0
  -24.4979  -27.5666   18.1523 C   0  0  0  0  0  0  0  0  0  0  0  0
  -25.9545  -27.8259   20.0624 C   0  0  0  0  0  0  0  0  0  0  0  0
  -29.4906  -21.4669   21.0239 C   0  0  0  0  0  0  0  0  0  0  0  0
  -21.6684  -14.6249   21.8414 C   0  0  0  0  0  0  0  0  0  0  0  0
  -30.1718  -19.5881   21.9410 C   0  0  0  0  0  0  0  0  0  0  0  0
  -30.3350  -21.5735   23.4510 C   0  0  0  0  0  0  0  0  0  0  0  0
  -21.7743  -23.3444   23.7727 C   0  0  0  0  0  0  0  0  0  0  0  0
  -23.7229  -23.0419   26.3483 C   0  0  0  0  0  0  0  0  0  0  0  0
  -25.4374  -20.9784   28.4577 C   0  0  0  0  0  0  0  0  0  0  0  0
  -28.2600  -14.8018   19.8005 C   0  0  0  0  0  0  0  0  0  0  0  0
  -22.5601  -28.3090   22.8824 C   0  0  0  0  0  0  0  0  0  0  0  0
  -20.5108  -21.6650   25.1652 C   0  0  0  0  0  0  0  0  0  0  0  0
  -23.3776  -20.9736   24.9454 C   0  0  0  0  0  0  0  0  0  0  0  0
  -23.4416  -27.1040   23.2004 C   0  0  0  0  0  0  0  0  0  0  0  0
  -29.8746  -17.0592   17.5703 C   0  0  0  0  0  0  0  0  0  0  0  0
  -23.0860  -25.9288   22.2953 C   0  0  0  0  0  0  0  0  0  0  0  0
  -29.9561  -18.3634   18.3655 C   0  0  0  0  0  0  0  0  0  0  0  0
  -28.5786  -16.3038   17.8566 C   0  0  0  0  0  0  0  0  0  0  0  0
  -28.3955  -17.3513   20.0799 C   0  0  0  0  0  0  0  0  0  0  0  0
  -21.6342  -25.4850   22.5121 C   0  0  1  0  0  0  0  0  0  0  0  0
  -21.5956  -22.7373   25.1355 C   0  0  1  0  0  0  0  0  0  0  0  0
  -29.7102  -18.1210   19.8669 C   0  0  2  0  0  0  0  0  0  0  0  0
  -26.9708  -21.0247   30.4437 C   0  0  0  0  0  0  0  0  0  0  0  0
  -22.0279  -10.4413   20.4439 C   0  0  0  0  0  0  0  0  0  0  0  0
  -26.0341  -23.8805   24.5413 C   0  0  0  0  0  0  0  0  0  0  0  0
  -27.6149  -23.0037   26.2735 C   0  0  0  0  0  0  0  0  0  0  0  0
  -26.0795  -24.8895   26.8292 C   0  0  0  0  0  0  0  0  0  0  0  0
  -23.5169  -19.4616   30.1219 C   0  0  0  0  0  0  0  0  0  0  0  0
  -24.6110  -10.3318   23.8856 C   0  0  0  0  0  0  0  0  0  0  0  0
  -21.0548  -15.8802   22.3882 C   0  0  0  0  0  0  0  0  0  1  0  0
  -26.4916  -13.0096   21.9646 C   0  0  0  0  0  0  0  0  0  0  0  0
  -27.9529  -13.4283   21.8446 C   0  0  0  0  0  0  0  0  0  0  0  0
  -26.3298  -11.6799   22.6901 C   0  0  0  0  0  0  0  0  0  0  0  0
  -24.2494  -10.9865   21.5102 C   0  0  0  0  0  0  0  0  0  0  0  0
  -25.1359  -22.5584   26.5690 C   0  0  1  0  0  0  0  0  0  0  0  0
  -25.5276  -20.9359   29.9725 C   0  0  2  0  0  0  0  0  0  0  0  0
  -22.7363  -11.2390   21.5435 C   0  0  1  0  0  0  0  0  0  0  0  0
  -26.1962  -23.5661   26.0420 C   0  0  0  0  0  0  0  0  0  0  0  0
  -29.3237  -20.5485   20.0686 N   0  0  0  0  0  0  0  0  0  0  0  0
  -22.2911  -14.6093   20.6243 N   0  0  0  0  0  0  0  0  0  0  0  0
  -22.7337  -13.3755   20.4080 N   0  0  0  0  0  0  0  0  0  0  0  0
  -22.3912  -12.6362   21.4754 N   0  0  0  0  0  0  0  0  0  0  0  0
  -29.7469  -19.4165   20.6564 N   0  0  0  0  0  0  0  0  0  0  0  0
  -22.9043  -22.2290   25.5515 N   0  0  0  0  0  0  0  0  0  0  0  0
  -28.4061  -16.1052   19.2977 N   0  0  0  0  0  0  0  0  0  0  0  0
  -30.6294  -18.5539   22.6783 N   0  0  0  0  0  0  0  0  0  0  0  0
  -30.1133  -22.9531   23.5596 N   0  0  0  0  0  0  0  0  0  0  0  0
  -21.5207  -24.7019   23.7239 N   0  0  0  0  0  0  0  0  0  0  0  0
  -25.2485  -22.2629   27.9932 N   0  0  0  0  0  0  0  0  0  0  0  0
  -28.1079  -14.7021   21.1781 N   0  0  0  0  0  0  0  0  0  0  0  0
  -24.9411  -19.6677   30.4908 N   0  3  0  0  0  0  0  0  0  0  0  0
  -24.8604  -11.3608   22.8112 N   0  3  1  0  0  0  0  0  0  0  0  0
  -30.8181  -20.9506   24.4268 O   0  0  0  0  0  0  0  0  0  0  0  0
  -22.1184  -22.6341   22.8353 O   0  0  0  0  0  0  0  0  0  0  0  0
  -23.3568  -24.0981   26.8698 O   0  0  0  0  0  0  0  0  0  0  0  0
  -25.5294  -19.9733   27.7564 O   0  0  0  0  0  0  0  0  0  0  0  0
  -28.2700  -13.8007   19.0761 O   0  0  0  0  0  0  0  0  0  0  0  0
  -28.1351  -26.8043   20.0539 O   0  0  0  0  0  0  0  0  0  0  0  0
  -22.0937  -16.7457   22.8442 O   0  0  0  0  0  0  0  0  0  1  0  0
  -23.3317  -27.8123   17.5409 F   0  0  0  0  0  0  0  0  0  0  0  0
  -26.1812  -28.3232   21.2859 F   0  0  0  0  0  0  0  0  0  0  0  0
  1  2  1  0  0  0  0
  1  5  2  0  0  0  0
  2  6  2  0  0  0  0
  3  8  2  0  0  0  0
  3 16  1  0  0  0  0
  4  9  1  0  0  0  0
  4 16  2  0  0  0  0
  5 18  1  0  0  0  0
  6 20  1  0  0  0  0
  7 10  2  0  0  0  0
  7 19  1  0  0  0  0
  8 22  1  0  0  0  0
  9 22  2  0  0  0  0
 10 23  1  0  0  0  0
 11 12  2  0  0  0  0
 11 24  1  0  0  0  0
 12 25  1  0  0  0  0
 13 21  1  0  0  0  0
 13 23  2  0  0  0  0
 14 25  2  0  0  0  0
 14 26  1  0  0  0  0
 15 28  2  0  0  0  0
 15 66  1  0  0  0  0
 16 27  1  0  0  0  0
 17 27  1  0  0  0  0
 17 29  2  0  0  0  0
 17 30  1  0  0  0  0
 18 20  2  0  0  0  0
 18 35  1  0  0  0  0
 19 21  2  0  0  0  0
 19 36  1  0  0  0  0
 20 44  1  0  0  0  0
 21 37  1  0  0  0  0
 22 82  1  0  0  0  0
 23 83  1  0  0  0  0
 24 26  2  0  0  0  0
 24 82  1  0  0  0  0
 25 84  1  0  0  0  0
 26 85  1  0  0  0  0
 27 63  2  0  0  0  0
 28 54  1  0  0  0  0
 28 64  1  0  0  0  0
 29 67  1  0  0  0  0
 29 70  1  0  0  0  0
 30 71  1  0  0  0  0
 30 77  2  0  0  0  0
 31 45  1  0  0  0  0
 31 72  1  0  0  0  0
 31 78  2  0  0  0  0
 32 59  1  0  0  0  0
 32 68  1  0  0  0  0
 32 79  2  0  0  0  0
 33 60  1  0  0  0  0
 33 73  1  0  0  0  0
 33 80  2  0  0  0  0
 34 69  1  0  0  0  0
 34 74  1  0  0  0  0
 34 81  2  0  0  0  0
 35 38  1  0  0  0  0
 36 45  1  0  0  0  0
 37 68  1  0  0  0  0
 38 40  1  0  0  0  0
 39 41  1  0  0  0  0
 39 42  1  0  0  0  0
 40 44  1  0  0  0  0
 41 46  1  0  0  0  0
 42 69  1  0  0  0  0
 43 46  1  0  0  0  0
 43 69  1  0  0  0  0
 44 72  1  0  0  0  0
 45 68  1  0  0  0  0
 46 67  1  0  0  0  0
 47 60  1  0  0  0  0
 48 61  1  0  0  0  0
 49 62  1  0  0  0  0
 50 62  1  0  0  0  0
 51 62  1  0  0  0  0
 52 75  1  0  0  0  0
 53 76  1  0  0  0  0
 54 83  1  0  0  0  0
 55 56  1  0  0  0  0
 55 57  1  0  0  0  0
 56 74  1  0  0  0  0
 57 76  1  0  0  0  0
 58 61  1  0  0  0  0
 58 76  1  0  0  0  0
 59 62  1  0  0  0  0
 59 73  1  0  0  0  0
 60 75  1  0  0  0  0
 61 66  1  0  0  0  0
 63 67  1  0  0  0  0
 64 65  2  0  0  0  0
 65 66  1  0  0  0  0
M  CHG  2  75   1  76   1
M  ISO  4  34 100  54 101  74 100  83 101
M  END
> <Batch ID>
0053

> <Smiles>
CNC(C)C(=O)NC(C(=O)N1Cc2cc([101O:1][101CH2:1]c3cn(C(C)CN(C)CCC[100NH:0][100C:0](=O)N4CCCC(n5nc(-c6ccc(Oc7ccc(F)cc7F)cc6)c(C(N)=O)c5N)C4)nn3)ccc2CC1C(=O)NC1CCCc2ccccc21)C(C)(C)C

> <Shape>
0.203

> <Color>
0.074

> <Negative vol penalty>
0.000

$$$$

  -OEChem-04052317383D

 88 96  0     1  0  0  0  0  0999 V2000
  -15.9914  -26.3024   25.0295 C   0  0  0  0  0  0  0  0  0  0  0  0
  -16.9604  -25.7978   24.1682 C   0  0  0  0  0  0  0  0  0  0  0  0
  -23.2526  -10.2330   22.0701 C   0  0  0  0  0  0  0  0  0  0  0  0
  -24.3922   -9.1963   20.2090 C   0  0  0  0  0  0  0  0  0  0  0  0
  -15.8532  -27.6804   25.1908 C   0  0  0  0  0  0  0  0  0  0  0  0
  -17.7911  -26.6709   23.4668 C   0  0  0  0  0  0  0  0  0  0  0  0
  -22.6441  -25.2268   23.5547 C   0  0  0  0  0  0  0  0  0  0  0  0
  -22.3662   -9.1574   22.1264 C   0  0  0  0  0  0  0  0  0  0  0  0
  -23.5059   -8.1207   20.2654 C   0  0  0  0  0  0  0  0  0  0  0  0
  -23.0167  -24.1938   22.6957 C   0  0  0  0  0  0  0  0  0  0  0  0
  -22.3655   -5.9896   23.3088 C   0  0  0  0  0  0  0  0  0  0  0  0
  -22.0772   -5.4523   24.5633 C   0  0  0  0  0  0  0  0  0  0  0  0
  -23.9108  -25.8125   21.1467 C   0  0  0  0  0  0  0  0  0  0  0  0
  -19.7391   -5.9737   24.2492 C   0  0  0  0  0  0  0  0  0  0  0  0
  -29.5710  -18.2646   19.8062 C   0  0  0  0  0  0  0  0  0  0  0  0
  -24.2655  -10.2525   21.1113 C   0  0  0  0  0  0  0  0  0  0  0  0
  -26.4074  -11.4916   21.7316 C   0  0  0  0  0  0  0  0  0  0  0  0
  -16.6891  -28.5707   24.4984 C   0  0  0  0  0  0  0  0  0  0  0  0
  -22.8927  -26.5633   23.2105 C   0  0  0  0  0  0  0  0  0  0  0  0
  -17.6631  -28.0621   23.6180 C   0  0  0  0  0  0  0  0  0  0  0  0
  -23.5428  -26.8605   22.0042 C   0  0  0  0  0  0  0  0  0  0  0  0
  -22.4929   -8.1013   21.2241 C   0  0  0  0  0  0  0  0  0  0  0  0
  -23.6475  -24.4867   21.4901 C   0  0  0  0  0  0  0  0  0  0  0  0
  -21.3406   -6.5191   22.5245 C   0  0  0  0  0  0  0  0  0  0  0  0
  -20.7640   -5.4443   25.0335 C   0  0  0  0  0  0  0  0  0  0  0  0
  -20.0274   -6.5111   22.9947 C   0  0  0  0  0  0  0  0  0  0  0  0
  -25.1811  -11.3635   21.0522 C   0  0  0  0  0  0  0  0  0  0  0  0
  -30.3853  -19.2303   20.3619 C   0  0  0  0  0  0  0  0  0  0  0  0
  -30.1731  -17.0488   19.5541 C   0  0  0  0  0  0  0  0  0  0  0  0
  -26.8890  -12.7176   21.3426 C   0  0  0  0  0  0  0  0  0  0  0  0
  -32.1581  -17.8075   20.3611 C   0  0  0  0  0  0  0  0  0  0  0  0
  -27.0534  -10.5835   22.6336 C   0  0  0  0  0  0  0  0  0  0  0  0
  -21.0772  -29.1176   22.6786 C   0  0  0  0  0  0  0  0  0  0  0  0
  -23.9402  -30.6321   22.4997 C   0  0  0  0  0  0  0  0  0  0  0  0
  -27.2959  -30.4247   21.9136 C   0  0  0  0  0  0  0  0  0  0  0  0
  -27.8538  -16.1900   16.9461 C   0  0  0  0  0  0  0  0  0  0  0  0
  -16.4707  -30.0532   24.6692 C   0  0  0  0  0  0  0  0  0  0  0  0
  -22.5087  -27.6646   24.1603 C   0  0  0  0  0  0  0  0  0  0  0  0
  -23.8507  -28.2776   21.5975 C   0  0  0  0  0  0  0  0  0  0  0  0
  -17.6393  -30.9019   24.1747 C   0  0  0  0  0  0  0  0  0  0  0  0
  -24.6788  -16.4950   18.8244 C   0  0  0  0  0  0  0  0  0  0  0  0
  -18.1013  -30.4257   22.8012 C   0  0  0  0  0  0  0  0  0  0  0  0
  -24.6024  -15.1627   19.5680 C   0  0  0  0  0  0  0  0  0  0  0  0
  -25.4602  -16.3724   17.5197 C   0  0  0  0  0  0  0  0  0  0  0  0
  -26.7473  -14.4671   18.4294 C   0  0  0  0  0  0  0  0  0  0  0  0
  -18.5996  -28.9766   22.8585 C   0  0  1  0  0  0  0  0  0  0  0  0
  -22.3484  -29.0172   23.4733 C   0  0  1  0  0  0  0  0  0  0  0  0
  -26.0062  -14.5665   19.7712 C   0  0  2  0  0  0  0  0  0  0  0  0
  -33.5939  -17.5519   20.6725 C   0  0  0  0  0  0  0  0  0  0  0  0
  -29.3674  -31.8369   21.8037 C   0  0  0  0  0  0  0  0  0  0  0  0
  -23.0613  -31.7057   19.7822 C   0  0  0  0  0  0  0  0  0  0  0  0
  -25.4516  -32.2869   19.3166 C   0  0  0  0  0  0  0  0  0  0  0  0
  -24.2562  -33.3647   21.2224 C   0  0  0  0  0  0  0  0  0  0  0  0
  -30.2802  -16.5836   16.7535 C   0  0  0  0  0  0  0  0  0  0  0  0
  -28.5833  -28.9124   24.1078 C   0  0  0  0  0  0  0  0  0  0  0  0
  -27.0057  -20.3165   17.4463 C   0  0  0  0  0  0  0  0  0  0  0  0
  -29.8170  -20.5917   20.6740 C   0  0  0  0  0  0  0  0  0  0  0  0
  -29.3716  -15.9418   18.9554 C   0  0  0  0  0  0  0  0  0  0  0  0
  -29.9364  -21.5943   19.5187 C   0  0  0  0  0  0  0  0  0  0  0  0
  -25.8261  -22.3627   19.5488 C   0  0  0  0  0  0  0  0  0  0  0  0
  -29.1848  -21.2186   18.2453 C   0  0  0  0  0  0  0  0  0  0  0  0
  -27.0796  -22.4708   18.6935 C   0  0  0  0  0  0  0  0  0  0  0  0
  -25.1569  -23.7029   19.8278 C   0  0  0  0  0  0  0  0  0  1  0  0
  -24.9237  -30.9322   21.3943 C   0  0  1  0  0  0  0  0  0  0  0  0
  -28.4881  -30.9625   22.6841 C   0  0  2  0  0  0  0  0  0  0  0  0
  -24.4158  -32.0457   20.4354 C   0  0  0  0  0  0  0  0  0  0  0  0
  -24.9009  -12.4236   20.2895 N   0  0  0  0  0  0  0  0  0  0  0  0
  -31.6880  -19.0352   20.6534 N   0  0  0  0  0  0  0  0  0  0  0  0
  -31.4692  -16.7847   19.8199 N   0  0  0  0  0  0  0  0  0  0  0  0
  -25.9580  -13.2296   20.4874 N   0  0  0  0  0  0  0  0  0  0  0  0
  -23.4499  -29.3198   22.5570 N   0  0  0  0  0  0  0  0  0  0  0  0
  -26.7732  -15.7634   17.7354 N   0  0  0  0  0  0  0  0  0  0  0  0
  -28.0138  -13.3970   21.6520 N   0  0  0  0  0  0  0  0  0  0  0  0
  -26.4205   -9.3673   22.9245 N   0  0  0  0  0  0  0  0  0  0  0  0
  -19.9305  -28.9218   23.4244 N   0  0  0  0  0  0  0  0  0  0  0  0
  -26.1913  -31.2391   22.0480 N   0  0  0  0  0  0  0  0  0  0  0  0
  -29.1295  -16.1410   17.5281 N   0  0  0  0  0  0  0  0  0  0  0  0
  -29.3161  -29.8393   23.2074 N   0  3  0  0  0  0  0  0  0  0  0  0
  -27.6998  -21.1382   18.5059 N   0  3  1  0  0  0  0  0  0  0  0  0
  -28.1513  -10.8500   23.1787 O   0  0  0  0  0  0  0  0  0  0  0  0
  -21.1326  -29.3566   21.4779 O   0  0  0  0  0  0  0  0  0  0  0  0
  -23.6244  -31.5271   23.2876 O   0  0  0  0  0  0  0  0  0  0  0  0
  -27.3410  -29.3880   21.2550 O   0  0  0  0  0  0  0  0  0  0  0  0
  -27.6866  -16.6006   15.7905 O   0  0  0  0  0  0  0  0  0  0  0  0
  -21.6284   -7.0515   21.2790 O   0  0  0  0  0  0  0  0  0  0  0  0
  -24.0116  -23.4804   20.6496 O   0  0  0  0  0  0  0  0  0  1  0  0
  -20.4870   -4.9269   26.2376 F   0  0  0  0  0  0  0  0  0  0  0  0
  -19.0385   -7.0172   22.2453 F   0  0  0  0  0  0  0  0  0  0  0  0
  1  2  1  0  0  0  0
  1  5  2  0  0  0  0
  2  6  2  0  0  0  0
  3  8  2  0  0  0  0
  3 16  1  0  0  0  0
  4  9  1  0  0  0  0
  4 16  2  0  0  0  0
  5 18  1  0  0  0  0
  6 20  1  0  0  0  0
  7 10  2  0  0  0  0
  7 19  1  0  0  0  0
  8 22  1  0  0  0  0
  9 22  2  0  0  0  0
 10 23  1  0  0  0  0
 11 12  2  0  0  0  0
 11 24  1  0  0  0  0
 12 25  1  0  0  0  0
 13 21  1  0  0  0  0
 13 23  2  0  0  0  0
 14 25  2  0  0  0  0
 14 26  1  0  0  0  0
 15 28  1  0  0  0  0
 15 29  2  0  0  0  0
 16 27  1  0  0  0  0
 17 27  1  0  0  0  0
 17 30  2  0  0  0  0
 17 32  1  0  0  0  0
 18 20  2  0  0  0  0
 18 37  1  0  0  0  0
 19 21  2  0  0  0  0
 19 38  1  0  0  0  0
 20 46  1  0  0  0  0
 21 39  1  0  0  0  0
 22 85  1  0  0  0  0
 23 86  1  0  0  0  0
 24 26  2  0  0  0  0
 24 85  1  0  0  0  0
 25 87  1  0  0  0  0
 26 88  1  0  0  0  0
 27 67  2  0  0  0  0
 28 57  1  0  0  0  0
 28 68  2  0  0  0  0
 29 58  1  0  0  0  0
 29 69  1  0  0  0  0
 30 70  1  0  0  0  0
 30 73  1  0  0  0  0
 31 49  1  0  0  0  0
 31 68  1  0  0  0  0
 31 69  2  0  0  0  0
 32 74  1  0  0  0  0
 32 80  2  0  0  0  0
 33 47  1  0  0  0  0
 33 75  1  0  0  0  0
 33 81  2  0  0  0  0
 34 64  1  0  0  0  0
 34 71  1  0  0  0  0
 34 82  2  0  0  0  0
 35 65  1  0  0  0  0
 35 76  1  0  0  0  0
 35 83  2  0  0  0  0
 36 72  1  0  0  0  0
 36 77  1  0  0  0  0
 36 84  2  0  0  0  0
 37 40  1  0  0  0  0
 38 47  1  0  0  0  0
 39 71  1  0  0  0  0
 40 42  1  0  0  0  0
 41 43  1  0  0  0  0
 41 44  1  0  0  0  0
 42 46  1  0  0  0  0
 43 48  1  0  0  0  0
 44 72  1  0  0  0  0
 45 48  1  0  0  0  0
 45 72  1  0  0  0  0
 46 75  1  0  0  0  0
 47 71  1  0  0  0  0
 48 70  1  0  0  0  0
 50 65  1  0  0  0  0
 51 66  1  0  0  0  0
 52 66  1  0  0  0  0
 53 66  1  0  0  0  0
 54 77  1  0  0  0  0
 55 78  1  0  0  0  0
 56 79  1  0  0  0  0
 57 59  1  0  0  0  0
 58 77  1  0  0  0  0
 59 61  1  0  0  0  0
 60 62  1  0  0  0  0
 60 63  1  0  0  0  0
 61 79  1  0  0  0  0
 62 79  1  0  0  0  0
 63 86  1  0  0  0  0
 64 66  1  0  0  0  0
 64 76  1  0  0  0  0
 65 78  1  0  0  0  0
 67 70  1  0  0  0  0
M  CHG  2  78   1  79   1
M  ISO  4  36 100  63 101  77 100  86 101
M  END
> <Batch ID>
0053

> <Smiles>
CNC(C)C(=O)NC(C(=O)N1Cc2cc([101O:1][101CH2:1]CCN(C)CCCc3cc(C[100N:0](C)[100C:0](=O)N4CCCC(n5nc(-c6ccc(Oc7ccc(F)cc7F)cc6)c(C(N)=O)c5N)C4)nc(C)n3)ccc2CC1C(=O)NC1CCCc2ccccc21)C(C)(C)C

> <Shape>
0.254

> <Color>
0.087

> <Negative vol penalty>
0.000

$$$$

  -OEChem-04052317383D

 88 96  0     1  0  0  0  0  0999 V2000
  -25.9897  -33.9457   25.3460 C   0  0  0  0  0  0  0  0  0  0  0  0
  -26.9896  -33.0802   24.9144 C   0  0  0  0  0  0  0  0  0  0  0  0
  -23.2644   -9.7270   19.9364 C   0  0  0  0  0  0  0  0  0  0  0  0
  -24.0181   -9.7960   22.2308 C   0  0  0  0  0  0  0  0  0  0  0  0
  -24.6503  -33.5795   25.2206 C   0  0  0  0  0  0  0  0  0  0  0  0
  -26.6508  -31.8473   24.3580 C   0  0  0  0  0  0  0  0  0  0  0  0
  -29.5831  -28.9097   19.8550 C   0  0  0  0  0  0  0  0  0  0  0  0
  -22.6360   -8.5057   20.1796 C   0  0  0  0  0  0  0  0  0  0  0  0
  -23.3896   -8.5748   22.4740 C   0  0  0  0  0  0  0  0  0  0  0  0
  -30.5153  -27.8730   19.8626 C   0  0  0  0  0  0  0  0  0  0  0  0
  -21.6789   -5.6509   23.7942 C   0  0  0  0  0  0  0  0  0  0  0  0
  -20.9295   -5.5280   24.9641 C   0  0  0  0  0  0  0  0  0  0  0  0
  -28.7394  -26.2815   19.4981 C   0  0  0  0  0  0  0  0  0  0  0  0
  -19.5032   -7.3389   24.2406 C   0  0  0  0  0  0  0  0  0  0  0  0
  -32.5197  -23.1294   18.5244 C   0  0  0  0  0  0  0  0  0  0  0  0
  -23.9556  -10.3721   20.9620 C   0  0  0  0  0  0  0  0  0  0  0  0
  -24.0505  -12.9191   20.8551 C   0  0  0  0  0  0  0  0  0  0  0  0
  -24.2945  -32.3456   24.6535 C   0  0  0  0  0  0  0  0  0  0  0  0
  -28.2185  -28.6386   19.6794 C   0  0  0  0  0  0  0  0  0  0  0  0
  -25.3054  -31.4636   24.2261 C   0  0  0  0  0  0  0  0  0  0  0  0
  -27.7922  -27.3168   19.4860 C   0  0  0  0  0  0  0  0  0  0  0  0
  -22.6985   -7.9296   21.4483 C   0  0  0  0  0  0  0  0  0  0  0  0
  -30.0932  -26.5584   19.6871 C   0  0  0  0  0  0  0  0  0  0  0  0
  -21.3406   -6.6178   22.8475 C   0  0  0  0  0  0  0  0  0  0  0  0
  -19.8416   -6.3720   25.1874 C   0  0  0  0  0  0  0  0  0  0  0  0
  -20.2527   -7.4618   23.0707 C   0  0  0  0  0  0  0  0  0  0  0  0
  -24.6055  -11.6334   20.7113 C   0  0  0  0  0  0  0  0  0  0  0  0
  -31.6405  -23.2507   19.5779 C   0  0  0  0  0  0  0  0  0  0  0  0
  -33.6784  -21.5289   19.6756 C   0  0  0  0  0  0  0  0  0  0  0  0
  -32.7996  -21.6506   20.7294 C   0  0  0  0  0  0  0  0  0  0  0  0
  -25.0649  -13.7730   20.4970 C   0  0  0  0  0  0  0  0  0  0  0  0
  -22.7355  -13.3069   21.2749 C   0  0  0  0  0  0  0  0  0  0  0  0
  -25.6039  -29.0575   21.4378 C   0  0  0  0  0  0  0  0  0  0  0  0
  -24.1050  -28.0217   18.7540 C   0  0  0  0  0  0  0  0  0  0  0  0
  -24.2749  -26.2548   15.8393 C   0  0  0  0  0  0  0  0  0  0  0  0
  -30.1833  -15.4294   20.6366 C   0  0  0  0  0  0  0  0  0  0  0  0
  -22.8347  -31.9735   24.5820 C   0  0  0  0  0  0  0  0  0  0  0  0
  -27.2287  -29.7706   19.6469 C   0  0  0  0  0  0  0  0  0  0  0  0
  -26.3410  -26.9747   19.2733 C   0  0  0  0  0  0  0  0  0  0  0  0
  -22.5486  -30.8083   23.6381 C   0  0  0  0  0  0  0  0  0  0  0  0
  -29.5168  -12.8744   18.2915 C   0  0  0  0  0  0  0  0  0  0  0  0
  -23.5397  -29.6733   23.8754 C   0  0  0  0  0  0  0  0  0  0  0  0
  -28.1266  -12.4163   18.7301 C   0  0  0  0  0  0  0  0  0  0  0  0
  -30.4238  -13.1807   19.4848 C   0  0  0  0  0  0  0  0  0  0  0  0
  -28.4486  -13.6803   20.8888 C   0  0  0  0  0  0  0  0  0  0  0  0
  -24.9769  -30.1282   23.5945 C   0  0  1  0  0  0  0  0  0  0  0  0
  -25.8054  -29.3295   19.9739 C   0  0  1  0  0  0  0  0  0  0  0  0
  -27.4987  -13.4237   19.7088 C   0  0  2  0  0  0  0  0  0  0  0  0
  -22.8783  -25.5561   13.8750 C   0  0  0  0  0  0  0  0  0  0  0  0
  -31.8800  -17.1183   17.8080 C   0  0  0  0  0  0  0  0  0  0  0  0
  -35.6550  -20.6429   18.3832 C   0  0  0  0  0  0  0  0  0  0  0  0
  -35.8805  -20.8330   20.8414 C   0  0  0  0  0  0  0  0  0  0  0  0
  -22.7220  -25.9250   20.4863 C   0  0  0  0  0  0  0  0  0  0  0  0
  -22.1134  -24.6966   18.3913 C   0  0  0  0  0  0  0  0  0  0  0  0
  -21.2481  -27.0040   18.7782 C   0  0  0  0  0  0  0  0  0  0  0  0
  -32.6145  -14.7345   20.7419 C   0  0  0  0  0  0  0  0  0  0  0  0
  -26.0381  -27.6747   13.9329 C   0  0  0  0  0  0  0  0  0  0  0  0
  -30.4987  -24.2218   19.5091 C   0  0  0  0  0  0  0  0  0  1  0  0
  -31.9853  -17.0889   20.3587 C   0  0  0  0  0  0  0  0  0  0  0  0
  -34.3713  -19.0711   19.8519 C   0  0  0  0  0  0  0  0  0  0  0  0
  -23.6903  -26.6746   18.2134 C   0  0  1  0  0  0  0  0  0  0  0  0
  -23.8389  -26.5982   14.4263 C   0  0  2  0  0  0  0  0  0  0  0  0
  -32.7201  -17.3766   19.0513 C   0  0  2  0  0  0  0  0  0  0  0  0
  -34.8212  -20.5722   19.7110 C   0  0  0  0  0  0  0  0  0  0  0  0
  -22.4706  -26.0810   18.9732 C   0  0  0  0  0  0  0  0  0  0  0  0
  -33.5544  -22.2663   18.5543 N   0  0  0  0  0  0  0  0  0  0  0  0
  -25.8740  -11.6631   20.2942 N   0  0  0  0  0  0  0  0  0  0  0  0
  -31.7647  -22.5134   20.6993 N   0  0  0  0  0  0  0  0  0  0  0  0
  -26.1245  -12.9778   20.1728 N   0  0  0  0  0  0  0  0  0  0  0  0
  -25.4108  -28.1158   19.2559 N   0  0  0  0  0  0  0  0  0  0  0  0
  -29.7678  -14.1079   20.4168 N   0  0  0  0  0  0  0  0  0  0  0  0
  -25.1450  -15.1190   20.4310 N   0  0  0  0  0  0  0  0  0  0  0  0
  -21.8165  -12.3019   21.6062 N   0  0  0  0  0  0  0  0  0  0  0  0
  -25.2254  -30.1670   22.1693 N   0  0  0  0  0  0  0  0  0  0  0  0
  -23.4711  -26.8588   16.7828 N   0  0  0  0  0  0  0  0  0  0  0  0
  -31.5511  -15.7053   20.4909 N   0  0  0  0  0  0  0  0  0  0  0  0
  -25.0217  -26.6718   13.5227 N   0  3  0  0  0  0  0  0  0  0  0  0
  -33.1593  -18.7976   19.0369 N   0  3  0  0  0  0  0  0  0  0  0  0
  -22.3807  -14.5084   21.3381 O   0  0  0  0  0  0  0  0  0  0  0  0
  -25.7775  -27.9245   21.8714 O   0  0  0  0  0  0  0  0  0  0  0  0
  -23.3023  -28.9580   18.7254 O   0  0  0  0  0  0  0  0  0  0  0  0
  -25.2306  -25.5210   16.0816 O   0  0  0  0  0  0  0  0  0  0  0  0
  -29.3781  -16.3144   20.9539 O   0  0  0  0  0  0  0  0  0  0  0  0
  -22.0851   -6.7381   21.6861 O   0  0  0  0  0  0  0  0  0  0  0  0
  -31.0009  -25.5445   19.6948 O   0  0  0  0  0  0  0  0  0  1  0  0
  -19.1211   -6.2528   26.3102 F   0  0  0  0  0  0  0  0  0  0  0  0
  -19.9220   -8.3918   22.1643 F   0  0  0  0  0  0  0  0  0  0  0  0
  -32.9197  -20.7309   22.1714 Cl  0  0  0  0  0  0  0  0  0  0  0  0
  1  2  1  0  0  0  0
  1  5  2  0  0  0  0
  2  6  2  0  0  0  0
  3  8  2  0  0  0  0
  3 16  1  0  0  0  0
  4  9  1  0  0  0  0
  4 16  2  0  0  0  0
  5 18  1  0  0  0  0
  6 20  1  0  0  0  0
  7 10  2  0  0  0  0
  7 19  1  0  0  0  0
  8 22  1  0  0  0  0
  9 22  2  0  0  0  0
 10 23  1  0  0  0  0
 11 12  2  0  0  0  0
 11 24  1  0  0  0  0
 12 25  1  0  0  0  0
 13 21  1  0  0  0  0
 13 23  2  0  0  0  0
 14 25  2  0  0  0  0
 14 26  1  0  0  0  0
 15 28  1  0  0  0  0
 15 66  2  0  0  0  0
 16 27  1  0  0  0  0
 17 27  1  0  0  0  0
 17 31  2  0  0  0  0
 17 32  1  0  0  0  0
 18 20  2  0  0  0  0
 18 37  1  0  0  0  0
 19 21  2  0  0  0  0
 19 38  1  0  0  0  0
 20 46  1  0  0  0  0
 21 39  1  0  0  0  0
 22 84  1  0  0  0  0
 23 85  1  0  0  0  0
 24 26  2  0  0  0  0
 24 84  1  0  0  0  0
 25 86  1  0  0  0  0
 26 87  1  0  0  0  0
 27 67  2  0  0  0  0
 28 58  1  0  0  0  0
 28 68  2  0  0  0  0
 29 30  2  0  0  0  0
 29 64  1  0  0  0  0
 29 66  1  0  0  0  0
 30 68  1  0  0  0  0
 30 88  1  0  0  0  0
 31 69  1  0  0  0  0
 31 72  1  0  0  0  0
 32 73  1  0  0  0  0
 32 79  2  0  0  0  0
 33 47  1  0  0  0  0
 33 74  1  0  0  0  0
 33 80  2  0  0  0  0
 34 61  1  0  0  0  0
 34 70  1  0  0  0  0
 34 81  2  0  0  0  0
 35 62  1  0  0  0  0
 35 75  1  0  0  0  0
 35 82  2  0  0  0  0
 36 71  1  0  0  0  0
 36 76  1  0  0  0  0
 36 83  2  0  0  0  0
 37 40  1  0  0  0  0
 38 47  1  0  0  0  0
 39 70  1  0  0  0  0
 40 42  1  0  0  0  0
 41 43  1  0  0  0  0
 41 44  1  0  0  0  0
 42 46  1  0  0  0  0
 43 48  1  0  0  0  0
 44 71  1  0  0  0  0
 45 48  1  0  0  0  0
 45 71  1  0  0  0  0
 46 74  1  0  0  0  0
 47 70  1  0  0  0  0
 48 69  1  0  0  0  0
 49 62  1  0  0  0  0
 50 63  1  0  0  0  0
 51 64  1  0  0  0  0
 52 64  1  0  0  0  0
 53 65  1  0  0  0  0
 54 65  1  0  0  0  0
 55 65  1  0  0  0  0
 56 76  1  0  0  0  0
 57 77  1  0  0  0  0
 58 85  1  0  0  0  0
 59 63  1  0  0  0  0
 59 76  1  0  0  0  0
 60 64  1  0  0  0  0
 60 78  1  0  0  0  0
 61 65  1  0  0  0  0
 61 75  1  0  0  0  0
 62 77  1  0  0  0  0
 63 78  1  0  0  0  0
 67 69  1  0  0  0  0
M  CHG  2  77   1  78   1
M  ISO  4  36 100  58 101  76 100  85 101
M  END
> <Batch ID>
0053

> <Smiles>
CNC(C)C(=O)NC(C(=O)N1Cc2cc([101O:1][101CH2:1]c3cnc(C(C)(C)CNC(C)C[100N:0](C)[100C:0](=O)N4CCCC(n5nc(-c6ccc(Oc7ccc(F)cc7F)cc6)c(C(N)=O)c5N)C4)c(Cl)n3)ccc2CC1C(=O)NC1CCCc2ccccc21)C(C)(C)C

> <Shape>
0.305

> <Color>
0.179

> <Negative vol penalty>
0.000

$$$$

  -OEChem-04052317383D

 79 87  0     1  0  0  0  0  0999 V2000
  -31.3134  -25.0127    9.5900 C   0  0  0  0  0  0  0  0  0  0  0  0
  -31.4104  -24.4490   10.8582 C   0  0  0  0  0  0  0  0  0  0  0  0
  -23.1115   -9.8850   19.9450 C   0  0  0  0  0  0  0  0  0  0  0  0
  -23.8748   -9.9086   22.2372 C   0  0  0  0  0  0  0  0  0  0  0  0
  -31.7290  -26.3267    9.3788 C   0  0  0  0  0  0  0  0  0  0  0  0
  -31.9242  -25.1987   11.9157 C   0  0  0  0  0  0  0  0  0  0  0  0
  -29.1744  -24.7340   16.1427 C   0  0  0  0  0  0  0  0  0  0  0  0
  -22.3838   -8.7225   20.1993 C   0  0  0  0  0  0  0  0  0  0  0  0
  -23.1471   -8.7461   22.4915 C   0  0  0  0  0  0  0  0  0  0  0  0
  -29.3494  -23.5711   16.8915 C   0  0  0  0  0  0  0  0  0  0  0  0
  -19.4490   -7.8898   21.6574 C   0  0  0  0  0  0  0  0  0  0  0  0
  -18.1421   -7.8244   21.1744 C   0  0  0  0  0  0  0  0  0  0  0  0
  -30.7949  -24.7705   18.4051 C   0  0  0  0  0  0  0  0  0  0  0  0
  -18.7262   -5.8855   19.8565 C   0  0  0  0  0  0  0  0  0  0  0  0
  -29.2538  -18.7941   20.9374 C   0  0  0  0  0  0  0  0  0  0  0  0
  -31.3947  -18.5845   20.0270 C   0  0  0  0  0  0  0  0  0  0  0  0
  -23.8570  -10.4780   20.9640 C   0  0  0  0  0  0  0  0  0  0  0  0
  -24.1642  -13.0073   20.8366 C   0  0  0  0  0  0  0  0  0  0  0  0
  -32.2392  -27.0961   10.4364 C   0  0  0  0  0  0  0  0  0  0  0  0
  -29.8181  -25.9233   16.5139 C   0  0  0  0  0  0  0  0  0  0  0  0
  -32.3483  -26.5238   11.7182 C   0  0  0  0  0  0  0  0  0  0  0  0
  -30.6244  -25.9478   17.6608 C   0  0  0  0  0  0  0  0  0  0  0  0
  -30.4670  -18.1365   20.9450 C   0  0  0  0  0  0  0  0  0  0  0  0
  -22.4016   -8.1530   21.4725 C   0  0  0  0  0  0  0  0  0  0  0  0
  -30.1620  -23.5885   18.0213 C   0  0  0  0  0  0  0  0  0  0  0  0
  -20.3945   -6.9531   21.2400 C   0  0  0  0  0  0  0  0  0  0  0  0
  -17.7806   -6.8223   20.2740 C   0  0  0  0  0  0  0  0  0  0  0  0
  -20.0331   -5.9509   20.3395 C   0  0  0  0  0  0  0  0  0  0  0  0
  -24.6094  -11.6786   20.7018 C   0  0  0  0  0  0  0  0  0  0  0  0
  -25.2455  -13.7706   20.4695 C   0  0  0  0  0  0  0  0  0  0  0  0
  -29.9458  -20.1564   19.2544 C   0  0  0  0  0  0  0  0  0  0  0  0
  -22.8875  -13.5068   21.2561 C   0  0  0  0  0  0  0  0  0  0  0  0
  -31.9682  -27.8289   15.1540 C   0  0  0  0  0  0  0  0  0  0  0  0
  -31.3712  -29.6981   17.7370 C   0  0  0  0  0  0  0  0  0  0  0  0
  -30.2808  -29.9194   20.9633 C   0  0  0  0  0  0  0  0  0  0  0  0
  -30.7151  -14.8648   20.6464 C   0  0  0  0  0  0  0  0  0  0  0  0
  -32.7198  -28.4965   10.1493 C   0  0  0  0  0  0  0  0  0  0  0  0
  -29.5977  -27.1758   15.7107 C   0  0  0  0  0  0  0  0  0  0  0  0
  -31.3215  -27.2039   18.1133 C   0  0  0  0  0  0  0  0  0  0  0  0
  -32.9039  -29.3464   11.4039 C   0  0  0  0  0  0  0  0  0  0  0  0
  -29.6064  -12.4585   18.2679 C   0  0  0  0  0  0  0  0  0  0  0  0
  -33.6585  -28.5631   12.4734 C   0  0  0  0  0  0  0  0  0  0  0  0
  -28.1738  -12.1464   18.7039 C   0  0  0  0  0  0  0  0  0  0  0  0
  -30.5223  -12.6951   19.4667 C   0  0  0  0  0  0  0  0  0  0  0  0
  -28.6129  -13.4039   20.8544 C   0  0  0  0  0  0  0  0  0  0  0  0
  -32.8772  -27.3131   12.8960 C   0  0  1  0  0  0  0  0  0  0  0  0
  -30.7116  -28.2030   15.8880 C   0  0  1  0  0  0  0  0  0  0  0  0
  -27.6394  -13.2129   19.6788 C   0  0  2  0  0  0  0  0  0  0  0  0
  -29.9444  -31.5739   22.8199 C   0  0  0  0  0  0  0  0  0  0  0  0
  -34.3768  -29.7165   18.2619 C   0  0  0  0  0  0  0  0  0  0  0  0
  -33.8971  -30.5414   20.5766 C   0  0  0  0  0  0  0  0  0  0  0  0
  -33.2448  -31.9203   18.6028 C   0  0  0  0  0  0  0  0  0  0  0  0
  -27.3680  -29.4030   21.0519 C   0  0  0  0  0  0  0  0  0  0  0  0
  -30.7536  -17.0194   21.8774 C   0  0  0  0  0  0  0  0  0  0  0  0
  -29.6541  -21.2828   18.3071 C   0  0  0  0  0  0  0  0  0  1  0  0
  -31.9465  -29.8153   19.1278 C   0  0  1  0  0  0  0  0  0  0  0  0
  -29.3047  -30.8691   21.6338 C   0  0  2  0  0  0  0  0  0  0  0  0
  -33.3548  -30.4741   19.1329 C   0  0  0  0  0  0  0  0  0  0  0  0
  -28.9582  -19.8120   20.1026 N   0  0  0  0  0  0  0  0  0  0  0  0
  -31.1668  -19.5957   19.1633 N   0  0  0  0  0  0  0  0  0  0  0  0
  -25.8748  -11.5988   20.2817 N   0  0  0  0  0  0  0  0  0  0  0  0
  -26.2340  -12.8871   20.1493 N   0  0  0  0  0  0  0  0  0  0  0  0
  -31.0797  -28.4011   17.2913 N   0  0  0  0  0  0  0  0  0  0  0  0
  -29.9592  -13.7184   20.3508 N   0  0  0  0  0  0  0  0  0  0  0  0
  -25.4376  -15.1046   20.3926 N   0  0  0  0  0  0  0  0  0  0  0  0
  -21.8886  -12.5849   21.5975 N   0  0  0  0  0  0  0  0  0  0  0  0
  -31.7982  -27.6705   13.7919 N   0  0  0  0  0  0  0  0  0  0  0  0
  -30.9512  -30.5267   19.9226 N   0  0  0  0  0  0  0  0  0  0  0  0
  -30.1047  -15.7876   21.4869 N   0  0  0  0  0  0  0  0  0  0  0  0
  -28.1081  -30.1249   22.1188 N   0  3  0  0  0  0  0  0  0  0  0  0
  -22.6346  -14.7343   21.3105 O   0  0  0  0  0  0  0  0  0  0  0  0
  -33.0149  -27.6954   15.7772 O   0  0  0  0  0  0  0  0  0  0  0  0
  -31.1805  -30.7203   17.0733 O   0  0  0  0  0  0  0  0  0  0  0  0
  -30.4360  -28.7562   21.3288 O   0  0  0  0  0  0  0  0  0  0  0  0
  -31.8479  -15.0545   20.1905 O   0  0  0  0  0  0  0  0  0  0  0  0
  -21.6914   -7.0188   21.7210 O   0  0  0  0  0  0  0  0  0  0  0  0
  -30.3351  -22.4547   18.7536 O   0  0  0  0  0  0  0  0  0  1  0  0
  -16.5252   -6.7587   19.8114 F   0  0  0  0  0  0  0  0  0  0  0  0
  -20.9368   -5.0475   19.9357 F   0  0  0  0  0  0  0  0  0  0  0  0
  1  2  1  0  0  0  0
  1  5  2  0  0  0  0
  2  6  2  0  0  0  0
  3  8  2  0  0  0  0
  3 17  1  0  0  0  0
  4  9  1  0  0  0  0
  4 17  2  0  0  0  0
  5 19  1  0  0  0  0
  6 21  1  0  0  0  0
  7 10  2  0  0  0  0
  7 20  1  0  0  0  0
  8 24  1  0  0  0  0
  9 24  2  0  0  0  0
 10 25  1  0  0  0  0
 11 12  2  0  0  0  0
 11 26  1  0  0  0  0
 12 27  1  0  0  0  0
 13 22  1  0  0  0  0
 13 25  2  0  0  0  0
 14 27  2  0  0  0  0
 14 28  1  0  0  0  0
 15 23  1  0  0  0  0
 15 59  2  0  0  0  0
 16 23  2  0  0  0  0
 16 60  1  0  0  0  0
 17 29  1  0  0  0  0
 18 29  1  0  0  0  0
 18 30  2  0  0  0  0
 18 32  1  0  0  0  0
 19 21  2  0  0  0  0
 19 37  1  0  0  0  0
 20 22  2  0  0  0  0
 20 38  1  0  0  0  0
 21 46  1  0  0  0  0
 22 39  1  0  0  0  0
 23 54  1  0  0  0  0
 24 76  1  0  0  0  0
 25 77  1  0  0  0  0
 26 28  2  0  0  0  0
 26 76  1  0  0  0  0
 27 78  1  0  0  0  0
 28 79  1  0  0  0  0
 29 61  2  0  0  0  0
 30 62  1  0  0  0  0
 30 65  1  0  0  0  0
 31 55  1  0  0  0  0
 31 59  1  0  0  0  0
 31 60  2  0  0  0  0
 32 66  1  0  0  0  0
 32 71  2  0  0  0  0
 33 47  1  0  0  0  0
 33 67  1  0  0  0  0
 33 72  2  0  0  0  0
 34 56  1  0  0  0  0
 34 63  1  0  0  0  0
 34 73  2  0  0  0  0
 35 57  1  0  0  0  0
 35 68  1  0  0  0  0
 35 74  2  0  0  0  0
 36 64  1  0  0  0  0
 36 69  1  0  0  0  0
 36 75  2  0  0  0  0
 37 40  1  0  0  0  0
 38 47  1  0  0  0  0
 39 63  1  0  0  0  0
 40 42  1  0  0  0  0
 41 43  1  0  0  0  0
 41 44  1  0  0  0  0
 42 46  1  0  0  0  0
 43 48  1  0  0  0  0
 44 64  1  0  0  0  0
 45 48  1  0  0  0  0
 45 64  1  0  0  0  0
 46 67  1  0  0  0  0
 47 63  1  0  0  0  0
 48 62  1  0  0  0  0
 49 57  1  0  0  0  0
 50 58  1  0  0  0  0
 51 58  1  0  0  0  0
 52 58  1  0  0  0  0
 53 70  1  0  0  0  0
 54 69  1  0  0  0  0
 55 77  1  0  0  0  0
 56 58  1  0  0  0  0
 56 68  1  0  0  0  0
 57 70  1  0  0  0  0
 61 62  1  0  0  0  0
M  CHG  1  70   1
M  ISO  4  36 100  55 101  69 100  77 101
M  END
> <Batch ID>
0053

> <Smiles>
CNC(C)C(=O)NC(C(=O)N1Cc2cc([101O:1][101CH2:1]c3ncc(C[100NH:0][100C:0](=O)N4CCCC(n5nc(-c6ccc(Oc7ccc(F)cc7F)cc6)c(C(N)=O)c5N)C4)cn3)ccc2CC1C(=O)NC1CCCc2ccccc21)C(C)(C)C

> <Shape>
0.226

> <Color>
0.209

> <Negative vol penalty>
0.000

$$$$

  -OEChem-04052317383D

 81 89  0     1  0  0  0  0  0999 V2000
  -25.0563  -35.5573   22.1016 C   0  0  0  0  0  0  0  0  0  0  0  0
  -25.7726  -34.3691   21.9986 C   0  0  0  0  0  0  0  0  0  0  0  0
  -25.2139  -11.4647   20.9129 C   0  0  0  0  0  0  0  0  0  0  0  0
  -25.1852  -12.3165   23.1736 C   0  0  0  0  0  0  0  0  0  0  0  0
  -23.7978  -35.5614   22.7016 C   0  0  0  0  0  0  0  0  0  0  0  0
  -25.2312  -33.1845   22.4966 C   0  0  0  0  0  0  0  0  0  0  0  0
  -25.7984  -29.2958   19.3028 C   0  0  0  0  0  0  0  0  0  0  0  0
  -25.3876  -10.1703   21.4027 C   0  0  0  0  0  0  0  0  0  0  0  0
  -25.3588  -11.0221   23.6635 C   0  0  0  0  0  0  0  0  0  0  0  0
  -27.0540  -28.6919   19.2514 C   0  0  0  0  0  0  0  0  0  0  0  0
  -23.4679   -7.7461   22.7706 C   0  0  0  0  0  0  0  0  0  0  0  0
  -22.6910   -6.7317   22.2112 C   0  0  0  0  0  0  0  0  0  0  0  0
  -26.2541  -26.9212   20.6811 C   0  0  0  0  0  0  0  0  0  0  0  0
  -24.6970   -5.5817   21.5108 C   0  0  0  0  0  0  0  0  0  0  0  0
  -27.2486  -21.9441   17.2954 C   0  0  0  0  0  0  0  0  0  0  0  0
  -28.2983  -22.8262   17.3982 C   0  0  0  0  0  0  0  0  0  0  0  0
  -25.1127  -12.5378   21.7983 C   0  0  0  0  0  0  0  0  0  0  0  0
  -23.7150  -14.5292   21.0312 C   0  0  0  0  0  0  0  0  0  0  0  0
  -23.2365  -34.3745   23.1985 C   0  0  0  0  0  0  0  0  0  0  0  0
  -24.7626  -28.7217   20.0538 C   0  0  0  0  0  0  0  0  0  0  0  0
  -23.9645  -33.1730   23.1050 C   0  0  0  0  0  0  0  0  0  0  0  0
  -24.9855  -27.5184   20.7383 C   0  0  0  0  0  0  0  0  0  0  0  0
  -25.4600   -9.9490   22.7780 C   0  0  0  0  0  0  0  0  0  0  0  0
  -27.2828  -27.5059   19.9430 C   0  0  0  0  0  0  0  0  0  0  0  0
  -24.8593   -7.6784   22.6999 C   0  0  0  0  0  0  0  0  0  0  0  0
  -23.3055   -5.6494   21.5814 C   0  0  0  0  0  0  0  0  0  0  0  0
  -25.4739   -6.5962   22.0701 C   0  0  0  0  0  0  0  0  0  0  0  0
  -24.9339  -13.8752   21.2929 C   0  0  0  0  0  0  0  0  0  0  0  0
  -24.0830  -15.7693   20.5695 C   0  0  0  0  0  0  0  0  0  0  0  0
  -27.9626  -21.7485   19.2910 C   0  0  0  0  0  0  0  0  0  0  0  0
  -22.3704  -14.0578   21.1912 C   0  0  0  0  0  0  0  0  0  0  0  0
  -23.0305  -29.6405   22.5556 C   0  0  0  0  0  0  0  0  0  0  0  0
  -21.4115  -26.8957   21.9495 C   0  0  0  0  0  0  0  0  0  0  0  0
  -27.1654  -20.2954   21.1087 C   0  0  0  0  0  0  0  0  0  0  0  0
  -21.4192  -23.7695   20.5809 C   0  0  0  0  0  0  0  0  0  0  0  0
  -21.8932  -34.4371   23.8813 C   0  0  0  0  0  0  0  0  0  0  0  0
  -23.4062  -29.3714   20.0772 C   0  0  0  0  0  0  0  0  0  0  0  0
  -23.9010  -26.8509   21.5425 C   0  0  0  0  0  0  0  0  0  0  0  0
  -21.2302  -33.0721   24.0473 C   0  0  0  0  0  0  0  0  0  0  0  0
  -28.5893  -17.5685   19.1688 C   0  0  0  0  0  0  0  0  0  0  0  0
  -22.2311  -32.0542   24.5847 C   0  0  0  0  0  0  0  0  0  0  0  0
  -27.6742  -16.4076   19.5560 C   0  0  0  0  0  0  0  0  0  0  0  0
  -28.8149  -18.5203   20.3406 C   0  0  0  0  0  0  0  0  0  0  0  0
  -26.6353  -17.8887   21.3280 C   0  0  0  0  0  0  0  0  0  0  0  0
  -23.4003  -31.8632   23.6110 C   0  0  1  0  0  0  0  0  0  0  0  0
  -22.5728  -28.9710   21.2907 C   0  0  1  0  0  0  0  0  0  0  0  0
  -26.3579  -16.9218   20.1649 C   0  0  2  0  0  0  0  0  0  0  0  0
  -19.9629  -21.7486   20.2767 C   0  0  0  0  0  0  0  0  0  0  0  0
  -21.8753  -26.1256   24.8653 C   0  0  0  0  0  0  0  0  0  0  0  0
  -21.2682  -23.7714   24.2674 C   0  0  0  0  0  0  0  0  0  0  0  0
  -19.5901  -25.5973   23.9976 C   0  0  0  0  0  0  0  0  0  0  0  0
  -21.5299  -23.9901   17.6316 C   0  0  0  0  0  0  0  0  0  0  0  0
  -29.7393  -24.9685   19.2233 C   0  0  0  0  0  0  0  0  0  0  0  0
  -29.8945  -23.4479   19.2973 C   0  0  0  0  0  0  0  0  0  0  0  0
  -28.5479  -25.4935   20.0160 C   0  0  0  0  0  0  0  0  0  1  0  0
  -21.5396  -25.4586   22.3938 C   0  0  1  0  0  0  0  0  0  0  0  0
  -20.4274  -23.0649   19.6730 C   0  0  2  0  0  0  0  0  0  0  0  0
  -28.1658  -21.3462   20.6976 C   0  0  0  0  0  0  0  0  0  0  0  0
  -21.0895  -25.2516   23.8675 C   0  0  0  0  0  0  0  0  0  0  0  0
  -27.0445  -21.2766   18.4771 N   0  0  0  0  0  0  0  0  0  0  0  0
  -25.9967  -14.6368   21.0199 N   0  0  0  0  0  0  0  0  0  0  0  0
  -28.7452  -22.6900   18.6823 N   0  0  0  0  0  0  0  0  0  0  0  0
  -25.4467  -15.7822   20.5819 N   0  0  0  0  0  0  0  0  0  0  0  0
  -22.5938  -27.5282   21.5396 N   0  0  0  0  0  0  0  0  0  0  0  0
  -27.5374  -18.9656   20.9099 N   0  0  0  0  0  0  0  0  0  0  0  0
  -23.3697  -16.8391   20.1581 N   0  0  0  0  0  0  0  0  0  0  0  0
  -22.1714  -12.7585   21.6775 N   0  0  0  0  0  0  0  0  0  0  0  0
  -23.0030  -31.0211   22.5031 N   0  0  0  0  0  0  0  0  0  0  0  0
  -20.7940  -24.6636   21.4240 N   0  0  0  0  0  0  0  0  0  0  0  0
  -21.0486  -22.7811   18.3484 N   0  3  0  0  0  0  0  0  0  0  0  0
  -21.3752  -14.7620   20.8958 O   0  0  0  0  0  0  0  0  0  0  0  0
  -23.3811  -28.9553   23.5091 O   0  0  0  0  0  0  0  0  0  0  0  0
  -20.3021  -27.4350   21.9588 O   0  0  0  0  0  0  0  0  0  0  0  0
  -26.0852  -20.6480   21.5894 O   0  0  0  0  0  0  0  0  0  0  0  0
  -22.6274  -23.5461   20.5481 O   0  0  0  0  0  0  0  0  0  0  0  0
  -25.6293   -8.6860   23.2564 O   0  0  0  0  0  0  0  0  0  0  0  0
  -28.5076  -26.9148   19.8952 O   0  0  0  0  0  0  0  0  0  1  0  0
  -22.5594   -4.6745   21.0456 F   0  0  0  0  0  0  0  0  0  0  0  0
  -26.8102   -6.5251   22.0001 F   0  0  0  0  0  0  0  0  0  0  0  0
  -29.4277  -20.8484   20.9420 F   0  0  0  0  0  0  0  0  0  0  0  0
  -28.0631  -22.3981   21.5824 F   0  0  0  0  0  0  0  0  0  0  0  0
  1  2  1  0  0  0  0
  1  5  2  0  0  0  0
  2  6  2  0  0  0  0
  3  8  2  0  0  0  0
  3 17  1  0  0  0  0
  4  9  1  0  0  0  0
  4 17  2  0  0  0  0
  5 19  1  0  0  0  0
  6 21  1  0  0  0  0
  7 10  2  0  0  0  0
  7 20  1  0  0  0  0
  8 23  1  0  0  0  0
  9 23  2  0  0  0  0
 10 24  1  0  0  0  0
 11 12  2  0  0  0  0
 11 25  1  0  0  0  0
 12 26  1  0  0  0  0
 13 22  1  0  0  0  0
 13 24  2  0  0  0  0
 14 26  2  0  0  0  0
 14 27  1  0  0  0  0
 15 16  2  0  0  0  0
 15 60  1  0  0  0  0
 16 62  1  0  0  0  0
 17 28  1  0  0  0  0
 18 28  1  0  0  0  0
 18 29  2  0  0  0  0
 18 31  1  0  0  0  0
 19 21  2  0  0  0  0
 19 36  1  0  0  0  0
 20 22  2  0  0  0  0
 20 37  1  0  0  0  0
 21 45  1  0  0  0  0
 22 38  1  0  0  0  0
 23 76  1  0  0  0  0
 24 77  1  0  0  0  0
 25 27  2  0  0  0  0
 25 76  1  0  0  0  0
 26 78  1  0  0  0  0
 27 79  1  0  0  0  0
 28 61  2  0  0  0  0
 29 63  1  0  0  0  0
 29 66  1  0  0  0  0
 30 58  1  0  0  0  0
 30 60  2  0  0  0  0
 30 62  1  0  0  0  0
 31 67  1  0  0  0  0
 31 71  2  0  0  0  0
 32 46  1  0  0  0  0
 32 68  1  0  0  0  0
 32 72  2  0  0  0  0
 33 56  1  0  0  0  0
 33 64  1  0  0  0  0
 33 73  2  0  0  0  0
 34 58  1  0  0  0  0
 34 65  1  0  0  0  0
 34 74  2  0  0  0  0
 35 57  1  0  0  0  0
 35 69  1  0  0  0  0
 35 75  2  0  0  0  0
 36 39  1  0  0  0  0
 37 46  1  0  0  0  0
 38 64  1  0  0  0  0
 39 41  1  0  0  0  0
 40 42  1  0  0  0  0
 40 43  1  0  0  0  0
 41 45  1  0  0  0  0
 42 47  1  0  0  0  0
 43 65  1  0  0  0  0
 44 47  1  0  0  0  0
 44 65  1  0  0  0  0
 45 68  1  0  0  0  0
 46 64  1  0  0  0  0
 47 63  1  0  0  0  0
 48 57  1  0  0  0  0
 49 59  1  0  0  0  0
 50 59  1  0  0  0  0
 51 59  1  0  0  0  0
 52 70  1  0  0  0  0
 53 54  1  0  0  0  0
 53 55  1  0  0  0  0
 54 62  1  0  0  0  0
 55 77  1  0  0  0  0
 56 59  1  0  0  0  0
 56 69  1  0  0  0  0
 57 70  1  0  0  0  0
 58 80  1  0  0  0  0
 58 81  1  0  0  0  0
 61 63  1  0  0  0  0
M  CHG  1  70   1
M  ISO  4  34 100  55 101  58 100  77 101
M  END
> <Batch ID>
0053

> <Smiles>
CNC(C)C(=O)NC(C(=O)N1Cc2cc([101O:1][101CH2:1]CCn3ccnc3[100C:0](F)(F)[100C:0](=O)N3CCCC(n4nc(-c5ccc(Oc6ccc(F)cc6F)cc5)c(C(N)=O)c4N)C3)ccc2CC1C(=O)NC1CCCc2ccccc21)C(C)(C)C

> <Shape>
0.251

> <Color>
0.088

> <Negative vol penalty>
0.000

$$$$

  -OEChem-04052317383D

 86 94  0     1  0  0  0  0  0999 V2000
  -34.4669   -9.8304   23.2378 C   0  0  0  0  0  0  0  0  0  0  0  0
  -34.6112  -11.2077   23.3703 C   0  0  0  0  0  0  0  0  0  0  0  0
  -20.8169  -27.2580   23.2102 C   0  0  0  0  0  0  0  0  0  0  0  0
  -21.9963  -27.0884   21.1084 C   0  0  0  0  0  0  0  0  0  0  0  0
  -33.6323   -9.3099   22.2496 C   0  0  0  0  0  0  0  0  0  0  0  0
  -33.9219  -12.0654   22.5139 C   0  0  0  0  0  0  0  0  0  0  0  0
  -30.8058  -18.5146   22.3913 C   0  0  0  0  0  0  0  0  0  0  0  0
  -19.6227  -26.9344   22.5662 C   0  0  0  0  0  0  0  0  0  0  0  0
  -20.8020  -26.7647   20.4644 C   0  0  0  0  0  0  0  0  0  0  0  0
  -30.8088  -19.6984   21.6549 C   0  0  0  0  0  0  0  0  0  0  0  0
  -17.3288  -28.4996   20.6394 C   0  0  0  0  0  0  0  0  0  0  0  0
  -16.2004  -29.2590   20.9484 C   0  0  0  0  0  0  0  0  0  0  0  0
  -29.3334  -18.6879   20.0359 C   0  0  0  0  0  0  0  0  0  0  0  0
  -15.0718  -27.2675   21.7212 C   0  0  0  0  0  0  0  0  0  0  0  0
  -22.0037  -27.3350   22.4812 C   0  0  0  0  0  0  0  0  0  0  0  0
  -24.1560  -26.7789   23.7327 C   0  0  0  0  0  0  0  0  0  0  0  0
  -32.9249  -10.1619   21.3869 C   0  0  0  0  0  0  0  0  0  0  0  0
  -30.0741  -17.4031   21.9491 C   0  0  0  0  0  0  0  0  0  0  0  0
  -33.0781  -11.5559   21.5123 C   0  0  0  0  0  0  0  0  0  0  0  0
  -29.3207  -17.4919   20.7699 C   0  0  0  0  0  0  0  0  0  0  0  0
  -19.6153  -26.6877   21.1934 C   0  0  0  0  0  0  0  0  0  0  0  0
  -30.0748  -19.7842   20.4755 C   0  0  0  0  0  0  0  0  0  0  0  0
  -17.3288  -27.1241   20.8712 C   0  0  0  0  0  0  0  0  0  0  0  0
  -15.0718  -28.6430   21.4893 C   0  0  0  0  0  0  0  0  0  0  0  0
  -16.2002  -26.5080   21.4121 C   0  0  0  0  0  0  0  0  0  0  0  0
  -23.2376  -27.6699   23.1458 C   0  0  0  0  0  0  0  0  0  0  0  0
  -25.1515  -27.5869   24.2252 C   0  0  0  0  0  0  0  0  0  0  0  0
  -27.8873  -28.2584   21.7972 C   0  0  0  0  0  0  0  0  0  0  0  0
  -24.1130  -25.3487   23.8246 C   0  0  0  0  0  0  0  0  0  0  0  0
  -30.8101  -14.4390   21.0682 C   0  0  0  0  0  0  0  0  0  0  0  0
  -27.5873  -14.0878   20.9579 C   0  0  0  0  0  0  0  0  0  0  0  0
  -24.5228  -15.5533   20.6292 C   0  0  0  0  0  0  0  0  0  0  0  0
  -26.6326  -33.2792   22.5100 C   0  0  0  0  0  0  0  0  0  0  0  0
  -32.0712   -9.5520   20.3033 C   0  0  0  0  0  0  0  0  0  0  0  0
  -30.0598  -16.1421   22.7689 C   0  0  0  0  0  0  0  0  0  0  0  0
  -28.5022  -16.3339   20.2626 C   0  0  0  0  0  0  0  0  0  0  0  0
  -31.0852  -10.5358   19.6786 C   0  0  0  0  0  0  0  0  0  0  0  0
  -25.9263  -31.9918   25.9078 C   0  0  0  0  0  0  0  0  0  0  0  0
  -31.7810  -11.8529   19.3501 C   0  0  0  0  0  0  0  0  0  0  0  0
  -25.1704  -30.6952   25.6223 C   0  0  0  0  0  0  0  0  0  0  0  0
  -25.7351  -33.0168   24.7941 C   0  0  0  0  0  0  0  0  0  0  0  0
  -25.3288  -31.2110   23.1546 C   0  0  0  0  0  0  0  0  0  0  0  0
  -32.3278  -12.5192   20.6184 C   0  0  1  0  0  0  0  0  0  0  0  0
  -29.6910  -14.9050   21.9559 C   0  0  1  0  0  0  0  0  0  0  0  0
  -25.5383  -30.1398   24.2354 C   0  0  2  0  0  0  0  0  0  0  0  0
  -28.8152  -28.3290   19.6991 C   0  0  2  0  0  0  0  0  0  0  0  0
  -30.1543  -28.9372   19.2977 C   0  0  0  0  0  0  0  0  0  0  0  0
  -26.5746  -27.5272   18.9339 C   0  0  0  0  0  0  0  0  0  0  0  0
  -22.0758  -15.0040   20.5410 C   0  0  0  0  0  0  0  0  0  0  0  0
  -27.9216  -13.0684   18.1015 C   0  0  0  0  0  0  0  0  0  0  0  0
  -25.4703  -13.4422   17.7554 C   0  0  0  0  0  0  0  0  0  0  0  0
  -26.2510  -11.8075   19.4703 C   0  0  0  0  0  0  0  0  0  0  0  0
  -28.1314  -33.4920   20.5638 C   0  0  0  0  0  0  0  0  0  0  0  0
  -23.9518  -17.1827   23.0330 C   0  0  0  0  0  0  0  0  0  0  0  0
  -27.8767  -28.1236   18.5111 C   0  0  0  0  0  0  0  0  0  0  0  0
  -29.6596  -24.6103   20.4621 C   0  0  0  0  0  0  0  0  0  0  0  0
  -29.5329  -23.2754   19.7319 C   0  0  0  0  0  0  0  0  0  0  0  0
  -27.6252  -30.4162   20.5726 C   0  0  0  0  0  0  0  0  0  0  0  0
  -28.0290  -31.3195   21.7279 C   0  0  0  0  0  0  0  0  0  0  0  0
  -28.9070  -25.7091   19.7265 C   0  0  0  0  0  0  0  0  0  0  0  0
  -30.2451  -22.1564   20.4785 C   0  0  0  0  0  0  0  0  0  1  0  0
  -26.5261  -14.2834   19.9022 C   0  0  1  0  0  0  0  0  0  0  0  0
  -23.2428  -15.4022   21.4312 C   0  0  2  0  0  0  0  0  0  0  0  0
  -26.5591  -13.1717   18.8156 C   0  0  0  0  0  0  0  0  0  0  0  0
  -23.6160  -28.9462   23.2545 N   0  0  0  0  0  0  0  0  0  0  0  0
  -28.3324  -27.0406   21.7421 N   0  0  0  0  0  0  0  0  0  0  0  0
  -24.7831  -28.8631   23.9156 N   0  0  0  0  0  0  0  0  0  0  0  0
  -28.1582  -29.0898   20.7539 N   0  0  0  0  0  0  0  0  0  0  0  0
  -28.5255  -15.1205   21.0961 N   0  0  0  0  0  0  0  0  0  0  0  0
  -26.0502  -32.4498   23.4825 N   0  0  0  0  0  0  0  0  0  0  0  0
  -26.2973  -27.3232   24.8885 N   0  0  0  0  0  0  0  0  0  0  0  0
  -23.0181  -24.6758   23.2654 N   0  0  0  0  0  0  0  0  0  0  0  0
  -31.2592  -13.1633   21.3518 N   0  0  0  0  0  0  0  0  0  0  0  0
  -25.2565  -14.3860   20.6136 N   0  0  0  0  0  0  0  0  0  0  0  0
  -27.4943  -32.6718   21.5842 N   0  0  0  0  0  0  0  0  0  0  0  0
  -29.0955  -26.9920   20.4456 N   0  3  2  0  0  0  0  0  0  0  0  0
  -22.9011  -16.6851   22.1081 N   0  3  0  0  0  0  0  0  0  0  0  0
  -25.0107  -24.6882   24.4003 O   0  0  0  0  0  0  0  0  0  0  0  0
  -31.2338  -15.1812   20.1900 O   0  0  0  0  0  0  0  0  0  0  0  0
  -27.5797  -13.0599   21.6399 O   0  0  0  0  0  0  0  0  0  0  0  0
  -24.8383  -16.6009   20.0693 O   0  0  0  0  0  0  0  0  0  0  0  0
  -26.4032  -34.4951   22.4773 O   0  0  0  0  0  0  0  0  0  0  0  0
  -18.4502  -26.3717   20.5647 O   0  0  0  0  0  0  0  0  0  0  0  0
  -30.0765  -20.9383   19.7544 O   0  0  0  0  0  0  0  0  0  1  0  0
  -13.9888  -29.3726   21.7874 F   0  0  0  0  0  0  0  0  0  0  0  0
  -16.1947  -25.1872   21.6382 F   0  0  0  0  0  0  0  0  0  0  0  0
  1  2  1  0  0  0  0
  1  5  2  0  0  0  0
  2  6  2  0  0  0  0
  3  8  2  0  0  0  0
  3 15  1  0  0  0  0
  4  9  1  0  0  0  0
  4 15  2  0  0  0  0
  5 17  1  0  0  0  0
  6 19  1  0  0  0  0
  7 10  2  0  0  0  0
  7 18  1  0  0  0  0
  8 21  1  0  0  0  0
  9 21  2  0  0  0  0
 10 22  1  0  0  0  0
 11 12  2  0  0  0  0
 11 23  1  0  0  0  0
 12 24  1  0  0  0  0
 13 20  1  0  0  0  0
 13 22  2  0  0  0  0
 14 24  2  0  0  0  0
 14 25  1  0  0  0  0
 15 26  1  0  0  0  0
 16 26  1  0  0  0  0
 16 27  2  0  0  0  0
 16 29  1  0  0  0  0
 17 19  2  0  0  0  0
 17 34  1  0  0  0  0
 18 20  2  0  0  0  0
 18 35  1  0  0  0  0
 19 43  1  0  0  0  0
 20 36  1  0  0  0  0
 21 83  1  0  0  0  0
 22 84  1  0  0  0  0
 23 25  2  0  0  0  0
 23 83  1  0  0  0  0
 24 85  1  0  0  0  0
 25 86  1  0  0  0  0
 26 65  2  0  0  0  0
 27 67  1  0  0  0  0
 27 71  1  0  0  0  0
 28 66  2  0  0  0  0
 28 68  1  0  0  0  0
 29 72  1  0  0  0  0
 29 78  2  0  0  0  0
 30 44  1  0  0  0  0
 30 73  1  0  0  0  0
 30 79  2  0  0  0  0
 31 62  1  0  0  0  0
 31 69  1  0  0  0  0
 31 80  2  0  0  0  0
 32 63  1  0  0  0  0
 32 74  1  0  0  0  0
 32 81  2  0  0  0  0
 33 70  1  0  0  0  0
 33 75  1  0  0  0  0
 33 82  2  0  0  0  0
 34 37  1  0  0  0  0
 35 44  1  0  0  0  0
 36 69  1  0  0  0  0
 37 39  1  0  0  0  0
 38 40  1  0  0  0  0
 38 41  1  0  0  0  0
 39 43  1  0  0  0  0
 40 45  1  0  0  0  0
 41 70  1  0  0  0  0
 42 45  1  0  0  0  0
 42 70  1  0  0  0  0
 43 73  1  0  0  0  0
 44 69  1  0  0  0  0
 45 67  1  0  0  0  0
 46 47  1  0  0  0  0
 46 55  1  0  0  0  0
 46 68  1  0  0  0  0
 46 76  1  0  0  0  0
 48 55  1  0  0  0  0
 49 63  1  0  0  0  0
 50 64  1  0  0  0  0
 51 64  1  0  0  0  0
 52 64  1  0  0  0  0
 53 75  1  0  0  0  0
 54 77  1  0  0  0  0
 56 57  1  0  0  0  0
 56 60  1  0  0  0  0
 57 61  1  0  0  0  0
 58 59  1  0  0  0  0
 58 68  1  0  0  0  0
 59 75  1  0  0  0  0
 60 76  1  0  0  0  0
 61 84  1  0  0  0  0
 62 64  1  0  0  0  0
 62 74  1  0  0  0  0
 63 77  1  0  0  0  0
 65 67  1  0  0  0  0
 66 76  1  0  0  0  0
M  CHG  2  76   1  77   1
M  ISO  4  33 100  61 101  75 100  84 101
M  END
> <Batch ID>
0053

> <Smiles>
CCC1(C)N(CC[100N:0](C)[100C:0](=O)N2CCCC(n3nc(-c4ccc(Oc5ccc(F)cc5F)cc4)c(C(N)=O)c3N)C2)C=NN1CCC[101CH2:1][101O:1]c1ccc2c(c1)CN(C(=O)C(NC(=O)C(C)NC)C(C)(C)C)C(C(=O)NC1CCCc3ccccc31)C2

> <Shape>
0.276

> <Color>
0.065

> <Negative vol penalty>
0.000

$$$$
