
  -OEChem-04052317413D

 82 90  0     1  0  0  0  0  0999 V2000
  -17.0403  -29.8900   24.6117 C   0  0  0  0  0  0  0  0  0  0  0  0
  -17.4367  -28.6286   24.1791 C   0  0  0  0  0  0  0  0  0  0  0  0
  -26.6082  -12.6511   21.1913 C   0  0  0  0  0  0  0  0  0  0  0  0
  -25.1532  -14.3503   20.2786 C   0  0  0  0  0  0  0  0  0  0  0  0
  -17.6136  -31.0302   24.0503 C   0  0  0  0  0  0  0  0  0  0  0  0
  -18.4060  -28.5066   23.1842 C   0  0  0  0  0  0  0  0  0  0  0  0
  -22.6592  -24.1265   22.7050 C   0  0  0  0  0  0  0  0  0  0  0  0
  -25.4958  -11.8822   21.5332 C   0  0  0  0  0  0  0  0  0  0  0  0
  -24.0408  -13.5814   20.6205 C   0  0  0  0  0  0  0  0  0  0  0  0
  -22.7216  -22.9586   21.9461 C   0  0  0  0  0  0  0  0  0  0  0  0
  -23.3198   -9.8177   19.9725 C   0  0  0  0  0  0  0  0  0  0  0  0
  -23.3593   -8.4546   19.6796 C   0  0  0  0  0  0  0  0  0  0  0  0
  -23.9962  -24.1270   20.2639 C   0  0  0  0  0  0  0  0  0  0  0  0
  -23.0912   -7.9427   22.0255 C   0  0  0  0  0  0  0  0  0  0  0  0
  -26.4369  -13.8852   20.5641 C   0  0  0  0  0  0  0  0  0  0  0  0
  -28.3041  -14.6457   19.0011 C   0  0  0  0  0  0  0  0  0  0  0  0
  -18.5974  -30.9220   23.0548 C   0  0  0  0  0  0  0  0  0  0  0  0
  -23.2565  -25.3082   22.2432 C   0  0  0  0  0  0  0  0  0  0  0  0
  -18.9921  -29.6465   22.6080 C   0  0  0  0  0  0  0  0  0  0  0  0
  -23.9421  -25.3078   21.0200 C   0  0  0  0  0  0  0  0  0  0  0  0
  -24.2121  -12.3473   21.2478 C   0  0  0  0  0  0  0  0  0  0  0  0
  -23.3876  -22.9595   20.7240 C   0  0  0  0  0  0  0  0  0  0  0  0
  -23.1661  -10.2434   21.2919 C   0  0  0  0  0  0  0  0  0  0  0  0
  -23.2449   -7.5170   20.7060 C   0  0  0  0  0  0  0  0  0  0  0  0
  -23.0518   -9.3059   22.3184 C   0  0  0  0  0  0  0  0  0  0  0  0
  -27.5856  -14.6803   20.2112 C   0  0  0  0  0  0  0  0  0  0  0  0
  -29.2952  -15.5827   19.1633 C   0  0  0  0  0  0  0  0  0  0  0  0
  -25.6044  -19.8673   19.6148 C   0  0  0  0  0  0  0  0  0  0  0  0
  -27.5965  -20.3718   19.9810 C   0  0  0  0  0  0  0  0  0  0  0  0
  -28.0943  -13.8389   17.8346 C   0  0  0  0  0  0  0  0  0  0  0  0
  -22.1965  -28.2027   21.4677 C   0  0  0  0  0  0  0  0  0  0  0  0
  -25.3602  -28.8566   21.1749 C   0  0  0  0  0  0  0  0  0  0  0  0
  -28.5220  -27.6903   20.6366 C   0  0  0  0  0  0  0  0  0  0  0  0
  -29.4352  -20.3498   23.0096 C   0  0  0  0  0  0  0  0  0  0  0  0
  -19.1543  -32.1838   22.4444 C   0  0  0  0  0  0  0  0  0  0  0  0
  -23.2033  -26.5527   23.0862 C   0  0  0  0  0  0  0  0  0  0  0  0
  -24.6174  -26.5450   20.4891 C   0  0  0  0  0  0  0  0  0  0  0  0
  -20.4451  -31.9627   21.6600 C   0  0  0  0  0  0  0  0  0  0  0  0
  -31.9607  -17.6874   22.5249 C   0  0  0  0  0  0  0  0  0  0  0  0
  -20.3110  -30.7522   20.7416 C   0  0  0  0  0  0  0  0  0  0  0  0
  -31.1561  -16.5865   21.8360 C   0  0  0  0  0  0  0  0  0  0  0  0
  -31.0821  -18.5576   23.4184 C   0  0  0  0  0  0  0  0  0  0  0  0
  -29.1012  -18.0425   22.0310 C   0  0  0  0  0  0  0  0  0  0  0  0
  -20.0584  -29.4728   21.5484 C   0  0  1  0  0  0  0  0  0  0  0  0
  -23.4057  -27.8308   22.2783 C   0  0  1  0  0  0  0  0  0  0  0  0
  -29.9486  -17.1764   21.0869 C   0  0  2  0  0  0  0  0  0  0  0  0
  -28.7898  -19.1846   16.9592 C   0  0  0  0  0  0  0  0  0  0  0  0
  -30.8975  -28.4682   20.4156 C   0  0  0  0  0  0  0  0  0  0  0  0
  -24.7604  -29.8821   18.3645 C   0  0  0  0  0  0  0  0  0  0  0  0
  -27.2103  -29.7453   17.8671 C   0  0  0  0  0  0  0  0  0  0  0  0
  -26.3865  -31.2739   19.6579 C   0  0  0  0  0  0  0  0  0  0  0  0
  -28.3197  -22.4140   22.2517 C   0  0  0  0  0  0  0  0  0  0  0  0
  -29.3862  -26.0864   22.9688 C   0  0  0  0  0  0  0  0  0  0  0  0
  -24.1592  -19.5153   19.8712 C   0  0  0  0  0  0  0  0  0  0  0  0
  -28.9068  -20.7151   20.5621 C   0  0  0  0  0  0  0  0  0  0  0  0
  -28.3124  -20.4932   17.5652 C   0  0  0  0  0  0  0  0  0  0  0  0
  -23.4389  -20.5820   20.6888 C   0  0  0  0  0  0  0  0  0  1  0  0
  -26.3691  -28.7771   20.0548 C   0  0  1  0  0  0  0  0  0  0  0  0
  -29.8286  -27.9491   21.3646 C   0  0  2  0  0  0  0  0  0  0  0  0
  -26.1673  -29.8966   18.9949 C   0  0  0  0  0  0  0  0  0  0  0  0
  -28.0784  -15.5687   21.0783 N   0  0  0  0  0  0  0  0  0  0  0  0
  -26.4855  -20.1097   20.6294 N   0  0  0  0  0  0  0  0  0  0  0  0
  -26.1003  -19.9628   18.3793 N   0  0  0  0  0  0  0  0  0  0  0  0
  -29.1172  -16.1011   20.4122 N   0  0  0  0  0  0  0  0  0  0  0  0
  -27.3757  -20.2865   18.6417 N   0  0  0  0  0  0  0  0  0  0  0  0
  -24.5320  -27.7384   21.3471 N   0  0  0  0  0  0  0  0  0  0  0  0
  -29.9191  -19.0698   22.6929 N   0  0  0  0  0  0  0  0  0  0  0  0
  -30.2928  -16.0055   18.3581 N   0  0  0  0  0  0  0  0  0  0  0  0
  -27.0300  -12.9270   17.8355 N   0  0  0  0  0  0  0  0  0  0  0  0
  -21.2900  -28.9984   22.1421 N   0  0  0  0  0  0  0  0  0  0  0  0
  -27.6834  -28.7837   20.6880 N   0  0  0  0  0  0  0  0  0  0  0  0
  -28.8269  -21.0775   21.9755 N   0  0  0  0  0  0  0  0  0  0  0  0
  -30.3283  -26.6940   21.9940 N   0  3  0  0  0  0  0  0  0  0  0  0
  -28.8389  -13.9124   16.8277 O   0  0  0  0  0  0  0  0  0  0  0  0
  -22.0941  -27.7991   20.3152 O   0  0  0  0  0  0  0  0  0  0  0  0
  -25.3136  -29.8704   21.8760 O   0  0  0  0  0  0  0  0  0  0  0  0
  -28.2718  -26.6260   20.0750 O   0  0  0  0  0  0  0  0  0  0  0  0
  -29.5493  -20.8194   24.1490 O   0  0  0  0  0  0  0  0  0  0  0  0
  -23.1264  -11.5971   21.5810 O   0  0  0  0  0  0  0  0  0  0  0  0
  -23.4495  -21.8211   19.9809 O   0  0  0  0  0  0  0  0  0  1  0  0
  -23.2812   -6.2080   20.4244 F   0  0  0  0  0  0  0  0  0  0  0  0
  -22.9027   -9.7088   23.5877 F   0  0  0  0  0  0  0  0  0  0  0  0
  1  2  1  0  0  0  0
  1  5  2  0  0  0  0
  2  6  2  0  0  0  0
  3  8  2  0  0  0  0
  3 15  1  0  0  0  0
  4  9  1  0  0  0  0
  4 15  2  0  0  0  0
  5 17  1  0  0  0  0
  6 19  1  0  0  0  0
  7 10  2  0  0  0  0
  7 18  1  0  0  0  0
  8 21  1  0  0  0  0
  9 21  2  0  0  0  0
 10 22  1  0  0  0  0
 11 12  2  0  0  0  0
 11 23  1  0  0  0  0
 12 24  1  0  0  0  0
 13 20  1  0  0  0  0
 13 22  2  0  0  0  0
 14 24  2  0  0  0  0
 14 25  1  0  0  0  0
 15 26  1  0  0  0  0
 16 26  1  0  0  0  0
 16 27  2  0  0  0  0
 16 30  1  0  0  0  0
 17 19  2  0  0  0  0
 17 35  1  0  0  0  0
 18 20  2  0  0  0  0
 18 36  1  0  0  0  0
 19 44  1  0  0  0  0
 20 37  1  0  0  0  0
 21 79  1  0  0  0  0
 22 80  1  0  0  0  0
 23 25  2  0  0  0  0
 23 79  1  0  0  0  0
 24 81  1  0  0  0  0
 25 82  1  0  0  0  0
 26 61  2  0  0  0  0
 27 64  1  0  0  0  0
 27 68  1  0  0  0  0
 28 54  1  0  0  0  0
 28 62  1  0  0  0  0
 28 63  2  0  0  0  0
 29 55  1  0  0  0  0
 29 62  2  0  0  0  0
 29 65  1  0  0  0  0
 30 69  1  0  0  0  0
 30 74  2  0  0  0  0
 31 45  1  0  0  0  0
 31 70  1  0  0  0  0
 31 75  2  0  0  0  0
 32 58  1  0  0  0  0
 32 66  1  0  0  0  0
 32 76  2  0  0  0  0
 33 59  1  0  0  0  0
 33 71  1  0  0  0  0
 33 77  2  0  0  0  0
 34 67  1  0  0  0  0
 34 72  1  0  0  0  0
 34 78  2  0  0  0  0
 35 38  1  0  0  0  0
 36 45  1  0  0  0  0
 37 66  1  0  0  0  0
 38 40  1  0  0  0  0
 39 41  1  0  0  0  0
 39 42  1  0  0  0  0
 40 44  1  0  0  0  0
 41 46  1  0  0  0  0
 42 67  1  0  0  0  0
 43 46  1  0  0  0  0
 43 67  1  0  0  0  0
 44 70  1  0  0  0  0
 45 66  1  0  0  0  0
 46 64  1  0  0  0  0
 47 56  1  0  0  0  0
 48 59  1  0  0  0  0
 49 60  1  0  0  0  0
 50 60  1  0  0  0  0
 51 60  1  0  0  0  0
 52 72  1  0  0  0  0
 53 73  1  0  0  0  0
 54 57  1  0  0  0  0
 55 72  1  0  0  0  0
 56 65  1  0  0  0  0
 57 80  1  0  0  0  0
 58 60  1  0  0  0  0
 58 71  1  0  0  0  0
 59 73  1  0  0  0  0
 61 64  1  0  0  0  0
 63 65  1  0  0  0  0
M  CHG  1  73   1
M  ISO  4  34 100  57 101  72 100  80 101
M  END
> <Batch ID>
0054

> <Smiles>
CCn1nc(C[101CH2:1][101O:1]c2ccc3c(c2)CN(C(=O)C(NC(=O)C(C)NC)C(C)(C)C)C(C(=O)NC2CCCc4ccccc42)C3)nc1C[100N:0](C)[100C:0](=O)N1CCCC(n2nc(-c3ccc(Oc4ccc(F)cc4F)cc3)c(C(N)=O)c2N)C1

> <Shape>
0.250

> <Color>
0.083

> <Negative vol penalty>
0.000

$$$$

  -OEChem-04052317413D

 80 88  0     1  0  0  0  0  0999 V2000
  -17.2024  -27.4669   25.4954 C   0  0  0  0  0  0  0  0  0  0  0  0
  -17.7727  -26.1981   25.4746 C   0  0  0  0  0  0  0  0  0  0  0  0
  -24.4103  -12.5286   24.3108 C   0  0  0  0  0  0  0  0  0  0  0  0
  -24.0966  -14.8041   23.5621 C   0  0  0  0  0  0  0  0  0  0  0  0
  -17.5070  -28.3834   24.4898 C   0  0  0  0  0  0  0  0  0  0  0  0
  -18.6471  -25.8447   24.4475 C   0  0  0  0  0  0  0  0  0  0  0  0
  -24.4523  -21.8411   23.1878 C   0  0  0  0  0  0  0  0  0  0  0  0
  -23.9680  -12.8866   25.5842 C   0  0  0  0  0  0  0  0  0  0  0  0
  -23.6542  -15.1621   24.8355 C   0  0  0  0  0  0  0  0  0  0  0  0
  -24.9112  -20.8531   22.3177 C   0  0  0  0  0  0  0  0  0  0  0  0
  -20.8165  -14.8951   26.6513 C   0  0  0  0  0  0  0  0  0  0  0  0
  -19.6765  -15.6938   26.7389 C   0  0  0  0  0  0  0  0  0  0  0  0
  -25.4258  -22.5452   20.6772 C   0  0  0  0  0  0  0  0  0  0  0  0
  -20.9568  -17.3963   27.8788 C   0  0  0  0  0  0  0  0  0  0  0  0
  -27.6043  -17.3549   19.5983 C   0  0  0  0  0  0  0  0  0  0  0  0
  -24.4747  -13.4874   23.2997 C   0  0  0  0  0  0  0  0  0  0  0  0
  -24.1480  -12.6569   20.9098 C   0  0  0  0  0  0  0  0  0  0  0  0
  -18.3931  -28.0443   23.4551 C   0  0  0  0  0  0  0  0  0  0  0  0
  -24.4666  -23.1898   22.8043 C   0  0  0  0  0  0  0  0  0  0  0  0
  -18.9628  -26.7571   23.4264 C   0  0  0  0  0  0  0  0  0  0  0  0
  -24.9689  -23.5486   21.5453 C   0  0  0  0  0  0  0  0  0  0  0  0
  -23.5899  -14.2033   25.8466 C   0  0  0  0  0  0  0  0  0  0  0  0
  -25.3953  -21.2048   21.0611 C   0  0  0  0  0  0  0  0  0  0  0  0
  -22.0268  -15.3468   27.1776 C   0  0  0  0  0  0  0  0  0  0  0  0
  -19.7466  -16.9445   27.3526 C   0  0  0  0  0  0  0  0  0  0  0  0
  -22.0969  -16.5975   27.7913 C   0  0  0  0  0  0  0  0  0  0  0  0
  -24.9321  -13.1183   21.9841 C   0  0  0  0  0  0  0  0  0  0  0  0
  -26.3486  -17.9913   19.6078 C   0  0  0  0  0  0  0  0  0  0  0  0
  -27.6242  -16.6523   18.4182 C   0  0  0  0  0  0  0  0  0  0  0  0
  -25.0475  -12.4474   19.8933 C   0  0  0  0  0  0  0  0  0  0  0  0
  -22.7329  -12.4375   20.8373 C   0  0  0  0  0  0  0  0  0  0  0  0
  -22.2467  -25.4249   22.3802 C   0  0  0  0  0  0  0  0  0  0  0  0
  -24.8223  -27.3491   21.9490 C   0  0  0  0  0  0  0  0  0  0  0  0
  -28.1151  -27.6352   21.0991 C   0  0  0  0  0  0  0  0  0  0  0  0
  -30.6134  -14.9037   19.1680 C   0  0  0  0  0  0  0  0  0  0  0  0
  -18.6551  -29.0523   22.3643 C   0  0  0  0  0  0  0  0  0  0  0  0
  -23.9930  -24.2461   23.7647 C   0  0  0  0  0  0  0  0  0  0  0  0
  -25.0245  -24.9843   21.0934 C   0  0  0  0  0  0  0  0  0  0  0  0
  -19.8824  -28.7274   21.5167 C   0  0  0  0  0  0  0  0  0  0  0  0
  -29.6269  -11.3366   19.0993 C   0  0  0  0  0  0  0  0  0  0  0  0
  -19.8769  -27.2569   21.1112 C   0  0  0  0  0  0  0  0  0  0  0  0
  -28.2734  -11.3517   19.8077 C   0  0  0  0  0  0  0  0  0  0  0  0
  -30.5291  -12.4710   19.5759 C   0  0  0  0  0  0  0  0  0  0  0  0
  -28.5557  -13.8347   20.1759 C   0  0  0  0  0  0  0  0  0  0  0  0
  -19.9351  -26.3448   22.3425 C   0  0  1  0  0  0  0  0  0  0  0  0
  -23.5756  -25.5397   23.0719 C   0  0  1  0  0  0  0  0  0  0  0  0
  -27.6053  -12.7323   19.6850 C   0  0  2  0  0  0  0  0  0  0  0  0
  -29.9318  -29.3407   20.8017 C   0  0  0  0  0  0  0  0  0  0  0  0
  -23.5833  -28.2026   19.2945 C   0  0  0  0  0  0  0  0  0  0  0  0
  -25.8137  -29.1254   18.6299 C   0  0  0  0  0  0  0  0  0  0  0  0
  -24.6178  -30.0620   20.6085 C   0  0  0  0  0  0  0  0  0  0  0  0
  -25.9693  -16.3862   16.5461 C   0  0  0  0  0  0  0  0  0  0  0  0
  -30.7104  -17.1248   18.1018 C   0  0  0  0  0  0  0  0  0  0  0  0
  -29.7833  -26.3957   23.2061 C   0  0  0  0  0  0  0  0  0  0  0  0
  -25.7883  -18.8923   20.6688 C   0  0  0  0  0  0  0  0  0  1  0  0
  -28.6580  -15.7845   17.8251 C   0  0  0  0  0  0  0  0  0  0  0  0
  -25.6604  -27.7640   20.7639 C   0  0  1  0  0  0  0  0  0  0  0  0
  -29.2668  -28.3680   21.7632 C   0  0  2  0  0  0  0  0  0  0  0  0
  -24.9161  -28.7612   19.8317 C   0  0  0  0  0  0  0  0  0  0  0  0
  -26.2299  -13.1973   21.6786 N   0  0  0  0  0  0  0  0  0  0  0  0
  -25.6235  -17.7174   18.5201 N   0  0  0  0  0  0  0  0  0  0  0  0
  -26.4260  -16.9012   17.8160 N   0  0  0  0  0  0  0  0  0  0  0  0
  -26.2683  -12.7826   20.4008 N   0  0  0  0  0  0  0  0  0  0  0  0
  -24.5441  -25.9799   22.0658 N   0  0  0  0  0  0  0  0  0  0  0  0
  -29.8542  -13.7664   19.4891 N   0  0  0  0  0  0  0  0  0  0  0  0
  -24.9055  -12.0109   18.6238 N   0  0  0  0  0  0  0  0  0  0  0  0
  -21.9565  -12.7034   21.9734 N   0  0  0  0  0  0  0  0  0  0  0  0
  -21.2831  -26.2880   22.8661 N   0  0  0  0  0  0  0  0  0  0  0  0
  -26.9127  -28.2767   21.3091 N   0  0  0  0  0  0  0  0  0  0  0  0
  -29.9624  -15.9304   18.4675 N   0  0  0  0  0  0  0  0  0  0  0  0
  -30.2945  -27.3976   22.2356 N   0  3  0  0  0  0  0  0  0  0  0  0
  -22.1759  -12.0024   19.8010 O   0  0  0  0  0  0  0  0  0  0  0  0
  -22.1063  -24.6145   21.4718 O   0  0  0  0  0  0  0  0  0  0  0  0
  -24.4349  -28.2074   22.7458 O   0  0  0  0  0  0  0  0  0  0  0  0
  -28.2674  -26.5996   20.4551 O   0  0  0  0  0  0  0  0  0  0  0  0
  -31.8077  -14.9919   19.4807 O   0  0  0  0  0  0  0  0  0  0  0  0
  -23.1580  -14.5529   27.0891 O   0  0  0  0  0  0  0  0  0  0  0  0
  -25.8432  -20.2423   20.2097 O   0  0  0  0  0  0  0  0  0  1  0  0
  -18.6520  -17.7121   27.4353 F   0  0  0  0  0  0  0  0  0  0  0  0
  -23.2571  -17.0374   28.2976 F   0  0  0  0  0  0  0  0  0  0  0  0
  1  2  1  0  0  0  0
  1  5  2  0  0  0  0
  2  6  2  0  0  0  0
  3  8  2  0  0  0  0
  3 16  1  0  0  0  0
  4  9  1  0  0  0  0
  4 16  2  0  0  0  0
  5 18  1  0  0  0  0
  6 20  1  0  0  0  0
  7 10  2  0  0  0  0
  7 19  1  0  0  0  0
  8 22  1  0  0  0  0
  9 22  2  0  0  0  0
 10 23  1  0  0  0  0
 11 12  2  0  0  0  0
 11 24  1  0  0  0  0
 12 25  1  0  0  0  0
 13 21  1  0  0  0  0
 13 23  2  0  0  0  0
 14 25  2  0  0  0  0
 14 26  1  0  0  0  0
 15 28  1  0  0  0  0
 15 29  2  0  0  0  0
 16 27  1  0  0  0  0
 17 27  1  0  0  0  0
 17 30  2  0  0  0  0
 17 31  1  0  0  0  0
 18 20  2  0  0  0  0
 18 36  1  0  0  0  0
 19 21  2  0  0  0  0
 19 37  1  0  0  0  0
 20 45  1  0  0  0  0
 21 38  1  0  0  0  0
 22 77  1  0  0  0  0
 23 78  1  0  0  0  0
 24 26  2  0  0  0  0
 24 77  1  0  0  0  0
 25 79  1  0  0  0  0
 26 80  1  0  0  0  0
 27 60  2  0  0  0  0
 28 55  1  0  0  0  0
 28 61  2  0  0  0  0
 29 56  1  0  0  0  0
 29 62  1  0  0  0  0
 30 63  1  0  0  0  0
 30 66  1  0  0  0  0
 31 67  1  0  0  0  0
 31 72  2  0  0  0  0
 32 46  1  0  0  0  0
 32 68  1  0  0  0  0
 32 73  2  0  0  0  0
 33 57  1  0  0  0  0
 33 64  1  0  0  0  0
 33 74  2  0  0  0  0
 34 58  1  0  0  0  0
 34 69  1  0  0  0  0
 34 75  2  0  0  0  0
 35 65  1  0  0  0  0
 35 70  1  0  0  0  0
 35 76  2  0  0  0  0
 36 39  1  0  0  0  0
 37 46  1  0  0  0  0
 38 64  1  0  0  0  0
 39 41  1  0  0  0  0
 40 42  1  0  0  0  0
 40 43  1  0  0  0  0
 41 45  1  0  0  0  0
 42 47  1  0  0  0  0
 43 65  1  0  0  0  0
 44 47  1  0  0  0  0
 44 65  1  0  0  0  0
 45 68  1  0  0  0  0
 46 64  1  0  0  0  0
 47 63  1  0  0  0  0
 48 58  1  0  0  0  0
 49 59  1  0  0  0  0
 50 59  1  0  0  0  0
 51 59  1  0  0  0  0
 52 62  1  0  0  0  0
 53 70  1  0  0  0  0
 54 71  1  0  0  0  0
 55 78  1  0  0  0  0
 56 70  1  0  0  0  0
 57 59  1  0  0  0  0
 57 69  1  0  0  0  0
 58 71  1  0  0  0  0
 60 63  1  0  0  0  0
 61 62  1  0  0  0  0
M  CHG  1  71   1
M  ISO  4  35 100  55 101  70 100  78 101
M  END
> <Batch ID>
0054

> <Smiles>
CNC(C)C(=O)NC(C(=O)N1Cc2cc([101O:1][101CH2:1]c3cc(C[100N:0](C)[100C:0](=O)N4CCCC(n5nc(-c6ccc(Oc7ccc(F)cc7F)cc6)c(C(N)=O)c5N)C4)n(C)n3)ccc2CC1C(=O)NC1CCCc2ccccc21)C(C)(C)C

> <Shape>
0.177

> <Color>
0.112

> <Negative vol penalty>
0.000

$$$$

  -OEChem-04052317413D

 84 92  0     1  0  0  0  0  0999 V2000
  -15.4808  -25.0238   23.3020 C   0  0  0  0  0  0  0  0  0  0  0  0
  -16.4154  -24.2224   22.6542 C   0  0  0  0  0  0  0  0  0  0  0  0
  -27.1944  -13.0218   21.4052 C   0  0  0  0  0  0  0  0  0  0  0  0
  -26.7899  -13.9046   19.1929 C   0  0  0  0  0  0  0  0  0  0  0  0
  -15.6350  -26.4095   23.3047 C   0  0  0  0  0  0  0  0  0  0  0  0
  -17.5043  -24.8063   22.0078 C   0  0  0  0  0  0  0  0  0  0  0  0
  -23.1699  -22.5266   21.5505 C   0  0  0  0  0  0  0  0  0  0  0  0
  -26.3769  -11.9286   21.1184 C   0  0  0  0  0  0  0  0  0  0  0  0
  -25.9724  -12.8114   18.9061 C   0  0  0  0  0  0  0  0  0  0  0  0
  -23.8209  -21.8284   20.5343 C   0  0  0  0  0  0  0  0  0  0  0  0
  -23.0658  -11.2656   20.9715 C   0  0  0  0  0  0  0  0  0  0  0  0
  -22.1394  -10.8785   21.9398 C   0  0  0  0  0  0  0  0  0  0  0  0
  -24.7834  -23.8931   19.7406 C   0  0  0  0  0  0  0  0  0  0  0  0
  -23.1791   -8.7011   22.0639 C   0  0  0  0  0  0  0  0  0  0  0  0
  -27.9071  -20.5098   17.6278 C   0  0  0  0  0  0  0  0  0  0  0  0
  -27.4008  -14.0098   20.4424 C   0  0  0  0  0  0  0  0  0  0  0  0
  -29.6325  -15.2429   20.5255 C   0  0  0  0  0  0  0  0  0  0  0  0
  -16.7315  -27.0101   22.6662 C   0  0  0  0  0  0  0  0  0  0  0  0
  -23.3124  -23.9171   21.6629 C   0  0  0  0  0  0  0  0  0  0  0  0
  -17.6726  -26.2014   22.0008 C   0  0  0  0  0  0  0  0  0  0  0  0
  -24.1352  -24.6062   20.7606 C   0  0  0  0  0  0  0  0  0  0  0  0
  -26.8346  -19.6770   17.4211 C   0  0  0  0  0  0  0  0  0  0  0  0
  -25.7659  -11.8234   19.8689 C   0  0  0  0  0  0  0  0  0  0  0  0
  -24.6255  -22.5121   19.6274 C   0  0  0  0  0  0  0  0  0  0  0  0
  -24.0488  -10.3705   20.5494 C   0  0  0  0  0  0  0  0  0  0  0  0
  -22.1960   -9.5962   22.4860 C   0  0  0  0  0  0  0  0  0  0  0  0
  -24.1055   -9.0883   21.0957 C   0  0  0  0  0  0  0  0  0  0  0  0
  -28.2447  -15.1396   20.7382 C   0  0  0  0  0  0  0  0  0  0  0  0
  -27.3314  -18.3887   17.6953 C   0  0  0  0  0  0  0  0  0  0  0  0
  -29.9549  -16.5025   20.9683 C   0  0  0  0  0  0  0  0  0  0  0  0
  -30.5482  -14.2859   19.9767 C   0  0  0  0  0  0  0  0  0  0  0  0
  -21.3286  -26.3955   21.5019 C   0  0  0  0  0  0  0  0  0  0  0  0
  -23.9661  -28.0659   22.3824 C   0  0  0  0  0  0  0  0  0  0  0  0
  -27.3717  -28.2535   22.4986 C   0  0  0  0  0  0  0  0  0  0  0  0
  -28.5484  -22.0094   20.8544 C   0  0  0  0  0  0  0  0  0  0  0  0
  -16.8303  -28.5150   22.6556 C   0  0  0  0  0  0  0  0  0  0  0  0
  -22.6248  -24.6519   22.7808 C   0  0  0  0  0  0  0  0  0  0  0  0
  -24.3372  -26.0961   20.8503 C   0  0  0  0  0  0  0  0  0  0  0  0
  -18.2132  -29.0319   22.2673 C   0  0  0  0  0  0  0  0  0  0  0  0
  -27.2694  -19.8759   23.5956 C   0  0  0  0  0  0  0  0  0  0  0  0
  -18.7310  -28.2972   21.0348 C   0  0  0  0  0  0  0  0  0  0  0  0
  -27.4624  -18.4665   23.0385 C   0  0  0  0  0  0  0  0  0  0  0  0
  -27.0634  -20.9015   22.4850 C   0  0  0  0  0  0  0  0  0  0  0  0
  -28.3321  -19.4906   20.8995 C   0  0  0  0  0  0  0  0  0  0  0  0
  -18.8804  -26.7960   21.3097 C   0  0  1  0  0  0  0  0  0  0  0  0
  -22.4310  -26.1368   22.4895 C   0  0  1  0  0  0  0  0  0  0  0  0
  -28.5887  -18.4403   21.9906 C   0  0  2  0  0  0  0  0  0  0  0  0
  -26.6051  -17.1083   17.6317 C   0  0  0  0  0  0  0  0  0  0  0  0
  -31.7014  -25.0293   19.3106 C   0  0  0  0  0  0  0  0  0  0  0  0
  -29.2375  -29.7570   23.2441 C   0  0  0  0  0  0  0  0  0  0  0  0
  -23.4863  -29.8582   19.9601 C   0  0  0  0  0  0  0  0  0  0  0  0
  -25.8316  -30.6995   20.2054 C   0  0  0  0  0  0  0  0  0  0  0  0
  -24.1772  -31.0714   22.0350 C   0  0  0  0  0  0  0  0  0  0  0  0
  -28.4015  -26.2282   24.3952 C   0  0  0  0  0  0  0  0  0  0  0  0
  -25.4405  -20.0687   16.9951 C   0  0  0  0  0  0  0  0  0  0  0  0
  -31.2082  -23.7582   19.9878 C   0  0  0  0  0  0  0  0  0  0  0  0
  -30.2831  -20.1212   18.3228 C   0  0  0  0  0  0  0  0  0  0  0  0
  -30.0571  -23.0993   19.2372 C   0  0  0  0  0  0  0  0  0  0  0  0
  -30.4018  -20.7064   19.7277 C   0  0  0  0  0  0  0  0  0  0  0  0
  -24.6259  -20.6533   18.1438 C   0  0  0  0  0  0  0  0  0  1  0  0
  -25.0946  -28.7477   21.6471 C   0  0  1  0  0  0  0  0  0  0  0  0
  -28.3232  -28.6041   23.6283 C   0  0  2  0  0  0  0  0  0  0  0  0
  -24.6423  -30.0664   20.9588 C   0  0  0  0  0  0  0  0  0  0  0  0
  -27.7216  -16.2454   21.2746 N   0  0  0  0  0  0  0  0  0  0  0  0
  -28.6193  -18.3972   18.0490 N   0  0  0  0  0  0  0  0  0  0  0  0
  -28.9410  -19.7010   17.9984 N   0  0  0  0  0  0  0  0  0  0  0  0
  -28.7863  -17.0554   21.4027 N   0  0  0  0  0  0  0  0  0  0  0  0
  -23.6388  -26.7707   21.9569 N   0  0  0  0  0  0  0  0  0  0  0  0
  -28.1246  -20.8256   21.4804 N   0  0  0  0  0  0  0  0  0  0  0  0
  -31.1213  -17.1799   21.0245 N   0  0  0  0  0  0  0  0  0  0  0  0
  -30.0497  -13.0402   19.5715 N   0  0  0  0  0  0  0  0  0  0  0  0
  -20.0804  -26.5396   22.0770 N   0  0  0  0  0  0  0  0  0  0  0  0
  -26.1699  -28.9188   22.6181 N   0  0  0  0  0  0  0  0  0  0  0  0
  -29.5755  -21.8984   19.9050 N   0  0  0  0  0  0  0  0  0  0  0  0
  -29.1703  -27.4282   23.9758 N   0  3  0  0  0  0  0  0  0  0  0  0
  -31.7751  -14.5222   19.8645 O   0  0  0  0  0  0  0  0  0  0  0  0
  -21.5912  -26.4610   20.3067 O   0  0  0  0  0  0  0  0  0  0  0  0
  -23.4007  -28.6580   23.3051 O   0  0  0  0  0  0  0  0  0  0  0  0
  -27.6665  -27.4707   21.5981 O   0  0  0  0  0  0  0  0  0  0  0  0
  -28.0444  -23.1043   21.1355 O   0  0  0  0  0  0  0  0  0  0  0  0
  -24.9683  -10.7566   19.5887 O   0  0  0  0  0  0  0  0  0  0  0  0
  -25.2614  -21.8331   18.6342 O   0  0  0  0  0  0  0  0  0  1  0  0
  -21.3073   -9.2251   23.4169 F   0  0  0  0  0  0  0  0  0  0  0  0
  -25.0483   -8.2244   20.6950 F   0  0  0  0  0  0  0  0  0  0  0  0
  1  2  1  0  0  0  0
  1  5  2  0  0  0  0
  2  6  2  0  0  0  0
  3  8  2  0  0  0  0
  3 16  1  0  0  0  0
  4  9  1  0  0  0  0
  4 16  2  0  0  0  0
  5 18  1  0  0  0  0
  6 20  1  0  0  0  0
  7 10  2  0  0  0  0
  7 19  1  0  0  0  0
  8 23  1  0  0  0  0
  9 23  2  0  0  0  0
 10 24  1  0  0  0  0
 11 12  2  0  0  0  0
 11 25  1  0  0  0  0
 12 26  1  0  0  0  0
 13 21  1  0  0  0  0
 13 24  2  0  0  0  0
 14 26  2  0  0  0  0
 14 27  1  0  0  0  0
 15 22  2  0  0  0  0
 15 66  1  0  0  0  0
 16 28  1  0  0  0  0
 17 28  1  0  0  0  0
 17 30  2  0  0  0  0
 17 31  1  0  0  0  0
 18 20  2  0  0  0  0
 18 36  1  0  0  0  0
 19 21  2  0  0  0  0
 19 37  1  0  0  0  0
 20 45  1  0  0  0  0
 21 38  1  0  0  0  0
 22 29  1  0  0  0  0
 22 55  1  0  0  0  0
 23 81  1  0  0  0  0
 24 82  1  0  0  0  0
 25 27  2  0  0  0  0
 25 81  1  0  0  0  0
 26 83  1  0  0  0  0
 27 84  1  0  0  0  0
 28 64  2  0  0  0  0
 29 48  1  0  0  0  0
 29 65  2  0  0  0  0
 30 67  1  0  0  0  0
 30 70  1  0  0  0  0
 31 71  1  0  0  0  0
 31 76  2  0  0  0  0
 32 46  1  0  0  0  0
 32 72  1  0  0  0  0
 32 77  2  0  0  0  0
 33 61  1  0  0  0  0
 33 68  1  0  0  0  0
 33 78  2  0  0  0  0
 34 62  1  0  0  0  0
 34 73  1  0  0  0  0
 34 79  2  0  0  0  0
 35 69  1  0  0  0  0
 35 74  1  0  0  0  0
 35 80  2  0  0  0  0
 36 39  1  0  0  0  0
 37 46  1  0  0  0  0
 38 68  1  0  0  0  0
 39 41  1  0  0  0  0
 40 42  1  0  0  0  0
 40 43  1  0  0  0  0
 41 45  1  0  0  0  0
 42 47  1  0  0  0  0
 43 69  1  0  0  0  0
 44 47  1  0  0  0  0
 44 69  1  0  0  0  0
 45 72  1  0  0  0  0
 46 68  1  0  0  0  0
 47 67  1  0  0  0  0
 49 56  1  0  0  0  0
 50 62  1  0  0  0  0
 51 63  1  0  0  0  0
 52 63  1  0  0  0  0
 53 63  1  0  0  0  0
 54 75  1  0  0  0  0
 55 60  1  0  0  0  0
 56 58  1  0  0  0  0
 57 59  1  0  0  0  0
 57 66  1  0  0  0  0
 58 74  1  0  0  0  0
 59 74  1  0  0  0  0
 60 82  1  0  0  0  0
 61 63  1  0  0  0  0
 61 73  1  0  0  0  0
 62 75  1  0  0  0  0
 64 67  1  0  0  0  0
 65 66  1  0  0  0  0
M  CHG  1  75   1
M  ISO  4  35 100  60 101  74 100  82 101
M  END
> <Batch ID>
0054

> <Smiles>
CCC[100N:0](CCn1cc(C[101CH2:1][101O:1]c2ccc3c(c2)CN(C(=O)C(NC(=O)C(C)NC)C(C)(C)C)C(C(=O)NC2CCCc4ccccc42)C3)c(C)n1)[100C:0](=O)N1CCCC(n2nc(-c3ccc(Oc4ccc(F)cc4F)cc3)c(C(N)=O)c2N)C1

> <Shape>
0.255

> <Color>
0.055

> <Negative vol penalty>
0.000

$$$$

  -OEChem-04052317413D

 83 91  0     1  0  0  0  0  0999 V2000
  -15.7534  -23.7554   23.0780 C   0  0  0  0  0  0  0  0  0  0  0  0
  -16.9519  -23.7707   22.3716 C   0  0  0  0  0  0  0  0  0  0  0  0
  -23.2424   -9.7844   20.0607 C   0  0  0  0  0  0  0  0  0  0  0  0
  -23.9676   -9.9946   22.3557 C   0  0  0  0  0  0  0  0  0  0  0  0
  -15.7535  -23.4696   24.4426 C   0  0  0  0  0  0  0  0  0  0  0  0
  -18.1513  -23.5012   23.0298 C   0  0  0  0  0  0  0  0  0  0  0  0
  -23.0317  -20.5918   20.7445 C   0  0  0  0  0  0  0  0  0  0  0  0
  -22.5774   -8.6004   20.3793 C   0  0  0  0  0  0  0  0  0  0  0  0
  -23.3026   -8.8106   22.6743 C   0  0  0  0  0  0  0  0  0  0  0  0
  -24.2309  -21.0536   20.2038 C   0  0  0  0  0  0  0  0  0  0  0  0
  -20.1298   -7.8279   23.2977 C   0  0  0  0  0  0  0  0  0  0  0  0
  -19.3611   -7.8111   24.4614 C   0  0  0  0  0  0  0  0  0  0  0  0
  -25.2980  -20.7770   22.3494 C   0  0  0  0  0  0  0  0  0  0  0  0
  -20.7243   -6.0183   25.3360 C   0  0  0  0  0  0  0  0  0  0  0  0
  -30.5009  -19.4956   21.0905 C   0  0  0  0  0  0  0  0  0  0  0  0
  -23.9376  -10.4815   21.0489 C   0  0  0  0  0  0  0  0  0  0  0  0
  -24.1039  -13.0113   20.7655 C   0  0  0  0  0  0  0  0  0  0  0  0
  -16.9525  -23.1870   25.1159 C   0  0  0  0  0  0  0  0  0  0  0  0
  -22.9537  -20.2287   22.0967 C   0  0  0  0  0  0  0  0  0  0  0  0
  -18.1676  -23.2127   24.4050 C   0  0  0  0  0  0  0  0  0  0  0  0
  -24.0973  -20.3084   22.9043 C   0  0  0  0  0  0  0  0  0  0  0  0
  -22.6075   -8.1135   21.6860 C   0  0  0  0  0  0  0  0  0  0  0  0
  -25.3635  -21.1490   21.0069 C   0  0  0  0  0  0  0  0  0  0  0  0
  -21.1958   -6.9399   23.1530 C   0  0  0  0  0  0  0  0  0  0  0  0
  -19.6584   -6.9064   25.4806 C   0  0  0  0  0  0  0  0  0  0  0  0
  -21.4930   -6.0351   24.1722 C   0  0  0  0  0  0  0  0  0  0  0  0
  -24.6252  -11.7043   20.7203 C   0  0  0  0  0  0  0  0  0  0  0  0
  -30.0707  -18.2036   20.9291 C   0  0  0  0  0  0  0  0  0  0  0  0
  -25.1461  -13.8107   20.3639 C   0  0  0  0  0  0  0  0  0  0  0  0
  -28.9381  -20.1677   19.6052 C   0  0  0  0  0  0  0  0  0  0  0  0
  -22.7947  -13.4623   21.1375 C   0  0  0  0  0  0  0  0  0  0  0  0
  -21.3022  -21.2669   24.6064 C   0  0  0  0  0  0  0  0  0  0  0  0
  -22.6593  -18.7077   26.0663 C   0  0  0  0  0  0  0  0  0  0  0  0
  -30.9280  -14.0930   20.8503 C   0  0  0  0  0  0  0  0  0  0  0  0
  -25.2162  -16.4496   26.1687 C   0  0  0  0  0  0  0  0  0  0  0  0
  -16.9078  -22.9301   26.6014 C   0  0  0  0  0  0  0  0  0  0  0  0
  -21.6595  -19.7071   22.6583 C   0  0  0  0  0  0  0  0  0  0  0  0
  -24.0714  -19.9118   24.3571 C   0  0  0  0  0  0  0  0  0  0  0  0
  -18.1802  -22.2871   27.1469 C   0  0  0  0  0  0  0  0  0  0  0  0
  -29.3100  -13.1019   17.8106 C   0  0  0  0  0  0  0  0  0  0  0  0
  -19.4141  -23.0033   26.6069 C   0  0  0  0  0  0  0  0  0  0  0  0
  -27.8956  -12.7368   18.2593 C   0  0  0  0  0  0  0  0  0  0  0  0
  -30.3444  -12.7330   18.8694 C   0  0  0  0  0  0  0  0  0  0  0  0
  -28.6586  -12.9583   20.6664 C   0  0  0  0  0  0  0  0  0  0  0  0
  -19.4864  -22.9011   25.0785 C   0  0  1  0  0  0  0  0  0  0  0  0
  -21.5643  -19.8520   24.1739 C   0  0  1  0  0  0  0  0  0  0  0  0
  -27.5796  -13.3423   19.6384 C   0  0  2  0  0  0  0  0  0  0  0  0
  -31.6892  -14.9044   23.0842 C   0  0  0  0  0  0  0  0  0  0  0  0
  -26.0723  -14.5022   27.4997 C   0  0  0  0  0  0  0  0  0  0  0  0
  -23.6455  -20.6219   28.2281 C   0  0  0  0  0  0  0  0  0  0  0  0
  -25.2426  -18.8445   28.9754 C   0  0  0  0  0  0  0  0  0  0  0  0
  -22.7842  -18.4357   29.0844 C   0  0  0  0  0  0  0  0  0  0  0  0
  -25.0050  -14.6229   23.8497 C   0  0  0  0  0  0  0  0  0  0  0  0
  -28.8291  -16.2639   23.0932 C   0  0  0  0  0  0  0  0  0  0  0  0
  -30.7039  -17.0827   21.6730 C   0  0  0  0  0  0  0  0  0  0  0  0
  -28.2673  -21.2759   18.8306 C   0  0  0  0  0  0  0  0  0  0  0  0
  -26.7675  -21.3442   19.0973 C   0  0  0  0  0  0  0  0  0  1  0  0
  -23.9367  -18.4681   26.8344 C   0  0  1  0  0  0  0  0  0  0  0  0
  -30.4959  -14.6539   22.1817 C   0  0  1  0  0  0  0  0  0  0  0  0
  -25.2205  -14.9390   26.3180 C   0  0  2  0  0  0  0  0  0  0  0  0
  -23.9026  -19.1019   28.2537 C   0  0  0  0  0  0  0  0  0  0  0  0
  -29.9394  -20.5173   20.4264 N   0  0  0  0  0  0  0  0  0  0  0  0
  -25.8994  -11.6709   20.3213 N   0  0  0  0  0  0  0  0  0  0  0  0
  -29.0602  -17.9131   20.0898 N   0  0  0  0  0  0  0  0  0  0  0  0
  -28.4742  -18.9182   19.4065 N   0  0  0  0  0  0  0  0  0  0  0  0
  -26.1875  -12.9668   20.1120 N   0  0  0  0  0  0  0  0  0  0  0  0
  -22.7809  -19.4138   24.8612 N   0  0  0  0  0  0  0  0  0  0  0  0
  -29.9966  -13.3085   20.1698 N   0  0  0  0  0  0  0  0  0  0  0  0
  -25.2640  -15.1461   20.2050 N   0  0  0  0  0  0  0  0  0  0  0  0
  -21.8441  -12.5079   21.5245 N   0  0  0  0  0  0  0  0  0  0  0  0
  -19.9616  -21.5931   24.6813 N   0  0  0  0  0  0  0  0  0  0  0  0
  -24.1515  -17.0251   26.8293 N   0  0  0  0  0  0  0  0  0  0  0  0
  -25.7618  -14.2982   25.0862 N   0  3  0  0  0  0  0  0  0  0  0  0
  -29.7709  -15.9555   21.9588 N   0  3  1  0  0  0  0  0  0  0  0  0
  -22.4724  -14.6743   21.1111 O   0  0  0  0  0  0  0  0  0  0  0  0
  -22.2464  -22.0073   24.8552 O   0  0  0  0  0  0  0  0  0  0  0  0
  -21.5939  -18.2778   26.5155 O   0  0  0  0  0  0  0  0  0  0  0  0
  -32.0589  -14.3480   20.4280 O   0  0  0  0  0  0  0  0  0  0  0  0
  -26.0737  -17.0586   25.5328 O   0  0  0  0  0  0  0  0  0  0  0  0
  -21.9585   -6.9583   21.9973 O   0  0  0  0  0  0  0  0  0  0  0  0
  -26.5351  -21.6002   20.4818 O   0  0  0  0  0  0  0  0  0  1  0  0
  -18.9211   -6.8914   26.5988 F   0  0  0  0  0  0  0  0  0  0  0  0
  -22.5165   -5.1803   24.0394 F   0  0  0  0  0  0  0  0  0  0  0  0
  1  2  1  0  0  0  0
  1  5  2  0  0  0  0
  2  6  2  0  0  0  0
  3  8  2  0  0  0  0
  3 16  1  0  0  0  0
  4  9  1  0  0  0  0
  4 16  2  0  0  0  0
  5 18  1  0  0  0  0
  6 20  1  0  0  0  0
  7 10  2  0  0  0  0
  7 19  1  0  0  0  0
  8 22  1  0  0  0  0
  9 22  2  0  0  0  0
 10 23  1  0  0  0  0
 11 12  2  0  0  0  0
 11 24  1  0  0  0  0
 12 25  1  0  0  0  0
 13 21  1  0  0  0  0
 13 23  2  0  0  0  0
 14 25  2  0  0  0  0
 14 26  1  0  0  0  0
 15 28  1  0  0  0  0
 15 62  2  0  0  0  0
 16 27  1  0  0  0  0
 17 27  1  0  0  0  0
 17 29  2  0  0  0  0
 17 31  1  0  0  0  0
 18 20  2  0  0  0  0
 18 36  1  0  0  0  0
 19 21  2  0  0  0  0
 19 37  1  0  0  0  0
 20 45  1  0  0  0  0
 21 38  1  0  0  0  0
 22 80  1  0  0  0  0
 23 81  1  0  0  0  0
 24 26  2  0  0  0  0
 24 80  1  0  0  0  0
 25 82  1  0  0  0  0
 26 83  1  0  0  0  0
 27 63  2  0  0  0  0
 28 55  1  0  0  0  0
 28 64  2  0  0  0  0
 29 66  1  0  0  0  0
 29 69  1  0  0  0  0
 30 56  1  0  0  0  0
 30 62  1  0  0  0  0
 30 65  2  0  0  0  0
 31 70  1  0  0  0  0
 31 75  2  0  0  0  0
 32 46  1  0  0  0  0
 32 71  1  0  0  0  0
 32 76  2  0  0  0  0
 33 58  1  0  0  0  0
 33 67  1  0  0  0  0
 33 77  2  0  0  0  0
 34 59  1  0  0  0  0
 34 68  1  0  0  0  0
 34 78  2  0  0  0  0
 35 60  1  0  0  0  0
 35 72  1  0  0  0  0
 35 79  2  0  0  0  0
 36 39  1  0  0  0  0
 37 46  1  0  0  0  0
 38 67  1  0  0  0  0
 39 41  1  0  0  0  0
 40 42  1  0  0  0  0
 40 43  1  0  0  0  0
 41 45  1  0  0  0  0
 42 47  1  0  0  0  0
 43 68  1  0  0  0  0
 44 47  1  0  0  0  0
 44 68  1  0  0  0  0
 45 71  1  0  0  0  0
 46 67  1  0  0  0  0
 47 66  1  0  0  0  0
 48 59  1  0  0  0  0
 49 60  1  0  0  0  0
 50 61  1  0  0  0  0
 51 61  1  0  0  0  0
 52 61  1  0  0  0  0
 53 73  1  0  0  0  0
 54 74  1  0  0  0  0
 55 74  1  0  0  0  0
 56 57  1  0  0  0  0
 57 81  1  0  0  0  0
 58 61  1  0  0  0  0
 58 72  1  0  0  0  0
 59 74  1  0  0  0  0
 60 73  1  0  0  0  0
 63 66  1  0  0  0  0
 64 65  1  0  0  0  0
M  CHG  2  73   1  74   1
M  ISO  4  34 100  57 101  59 100  81 101
M  END
> <Batch ID>
0054

> <Smiles>
CNC(C)C(=O)NC(C(=O)N1Cc2cc([101O:1][101CH2:1]Cc3ncc(CN(C)[100CH:0](C)[100C:0](=O)N4CCCC(n5nc(-c6ccc(Oc7ccc(F)cc7F)cc6)c(C(N)=O)c5N)C4)nn3)ccc2CC1C(=O)NC1CCCc2ccccc21)C(C)(C)C

> <Shape>
0.211

> <Color>
0.188

> <Negative vol penalty>
0.000

$$$$

  -OEChem-04052317413D

 80 88  0     1  0  0  0  0  0999 V2000
  -32.2998  -14.9617   19.7728 C   0  0  0  0  0  0  0  0  0  0  0  0
  -31.3674  -15.9868   19.8956 C   0  0  0  0  0  0  0  0  0  0  0  0
  -29.0442  -27.1804   20.5442 C   0  0  0  0  0  0  0  0  0  0  0  0
  -27.6788  -25.8344   19.0740 C   0  0  0  0  0  0  0  0  0  0  0  0
  -31.8696  -13.6442   19.6204 C   0  0  0  0  0  0  0  0  0  0  0  0
  -30.0041  -15.6952   19.8651 C   0  0  0  0  0  0  0  0  0  0  0  0
  -25.5644  -18.5181   22.9997 C   0  0  0  0  0  0  0  0  0  0  0  0
  -30.0787  -26.2513   20.4340 C   0  0  0  0  0  0  0  0  0  0  0  0
  -28.7134  -24.9054   18.9638 C   0  0  0  0  0  0  0  0  0  0  0  0
  -24.6562  -19.5156   22.6476 C   0  0  0  0  0  0  0  0  0  0  0  0
  -30.8619  -21.9989   18.5815 C   0  0  0  0  0  0  0  0  0  0  0  0
  -30.5335  -20.6473   18.6865 C   0  0  0  0  0  0  0  0  0  0  0  0
  -22.9980  -17.8295   22.1714 C   0  0  0  0  0  0  0  0  0  0  0  0
  -29.6747  -21.0289   20.9122 C   0  0  0  0  0  0  0  0  0  0  0  0
  -21.3197  -22.6712   20.2915 C   0  0  0  0  0  0  0  0  0  0  0  0
  -21.0304  -23.1801   22.4110 C   0  0  0  0  0  0  0  0  0  0  0  0
  -27.8442  -26.9719   19.8642 C   0  0  0  0  0  0  0  0  0  0  0  0
  -26.5492  -29.0537   19.1594 C   0  0  0  0  0  0  0  0  0  0  0  0
  -30.5004  -13.3352   19.5977 C   0  0  0  0  0  0  0  0  0  0  0  0
  -25.1991  -17.1660   22.9297 C   0  0  0  0  0  0  0  0  0  0  0  0
  -29.5552  -14.3726   19.7109 C   0  0  0  0  0  0  0  0  0  0  0  0
  -23.9026  -16.8169   22.5256 C   0  0  0  0  0  0  0  0  0  0  0  0
  -21.8116  -22.4100   21.5844 C   0  0  0  0  0  0  0  0  0  0  0  0
  -29.9134  -25.1138   19.6438 C   0  0  0  0  0  0  0  0  0  0  0  0
  -23.3737  -19.1713   22.2306 C   0  0  0  0  0  0  0  0  0  0  0  0
  -30.5968  -22.8655   19.6419 C   0  0  0  0  0  0  0  0  0  0  0  0
  -29.9399  -20.1623   19.8518 C   0  0  0  0  0  0  0  0  0  0  0  0
  -30.0032  -22.3805   20.8073 C   0  0  0  0  0  0  0  0  0  0  0  0
  -26.7749  -27.9310   19.9781 C   0  0  0  0  0  0  0  0  0  0  0  0
  -25.4175  -29.6345   19.6774 C   0  0  0  0  0  0  0  0  0  0  0  0
  -27.2958  -29.5292   18.0315 C   0  0  0  0  0  0  0  0  0  0  0  0
  -26.2211  -14.6489   21.2794 C   0  0  0  0  0  0  0  0  0  0  0  0
  -24.1160  -13.0513   23.1605 C   0  0  0  0  0  0  0  0  0  0  0  0
  -21.3064  -13.1489   25.0953 C   0  0  0  0  0  0  0  0  0  0  0  0
  -20.8268  -27.4874   22.8660 C   0  0  0  0  0  0  0  0  0  0  0  0
  -30.0832  -11.9018   19.3834 C   0  0  0  0  0  0  0  0  0  0  0  0
  -26.1817  -16.1032   23.3385 C   0  0  0  0  0  0  0  0  0  0  0  0
  -23.4544  -15.3808   22.4526 C   0  0  0  0  0  0  0  0  0  0  0  0
  -28.6227  -11.6331   19.7370 C   0  0  0  0  0  0  0  0  0  0  0  0
  -23.0134  -30.1436   23.7826 C   0  0  0  0  0  0  0  0  0  0  0  0
  -27.7223  -12.7107   19.1412 C   0  0  0  0  0  0  0  0  0  0  0  0
  -24.2050  -29.9790   22.8376 C   0  0  0  0  0  0  0  0  0  0  0  0
  -22.4440  -28.7936   24.2132 C   0  0  0  0  0  0  0  0  0  0  0  0
  -23.2847  -27.7227   22.1589 C   0  0  0  0  0  0  0  0  0  0  0  0
  -28.0679  -14.0934   19.7073 C   0  0  1  0  0  0  0  0  0  0  0  0
  -25.8682  -14.7365   22.7373 C   0  0  1  0  0  0  0  0  0  0  0  0
  -23.8581  -29.0574   21.6529 C   0  0  2  0  0  0  0  0  0  0  0  0
  -19.8095  -11.6773   26.4705 C   0  0  0  0  0  0  0  0  0  0  0  0
  -17.7326  -24.2207   21.6643 C   0  0  0  0  0  0  0  0  0  0  0  0
  -22.8809  -11.9258   20.6074 C   0  0  0  0  0  0  0  0  0  0  0  0
  -20.8747  -11.2656   21.9519 C   0  0  0  0  0  0  0  0  0  0  0  0
  -23.1043  -10.2759   22.4735 C   0  0  0  0  0  0  0  0  0  0  0  0
  -21.8664  -14.6865   27.5612 C   0  0  0  0  0  0  0  0  0  0  0  0
  -22.9345  -21.4946   21.9748 C   0  0  0  0  0  0  0  0  0  1  0  0
  -19.3244  -26.1582   21.4048 C   0  0  0  0  0  0  0  0  0  0  0  0
  -22.6528  -12.6928   23.0622 C   0  0  1  0  0  0  0  0  0  0  0  0
  -21.0181  -12.6003   26.4810 C   0  0  2  0  0  0  0  0  0  0  0  0
  -19.1263  -24.7579   22.0068 C   0  0  2  0  0  0  0  0  0  0  0  0
  -22.3869  -11.5671   22.0231 C   0  0  0  0  0  0  0  0  0  0  0  0
  -20.3045  -23.5392   20.2916 N   0  0  0  0  0  0  0  0  0  0  0  0
  -25.8601  -27.8041   20.9430 N   0  0  0  0  0  0  0  0  0  0  0  0
  -20.1521  -23.8301   21.5948 N   0  0  0  0  0  0  0  0  0  0  0  0
  -25.0486  -28.8548   20.7340 N   0  0  0  0  0  0  0  0  0  0  0  0
  -24.4535  -14.3777   22.8565 N   0  0  0  0  0  0  0  0  0  0  0  0
  -22.1346  -27.9685   23.0430 N   0  0  0  0  0  0  0  0  0  0  0  0
  -24.7118  -30.7309   19.3277 N   0  0  0  0  0  0  0  0  0  0  0  0
  -28.4326  -28.8129   17.6328 N   0  0  0  0  0  0  0  0  0  0  0  0
  -27.5206  -14.2457   21.0384 N   0  0  0  0  0  0  0  0  0  0  0  0
  -22.2198  -12.3696   24.4173 N   0  0  0  0  0  0  0  0  0  0  0  0
  -20.6177  -26.7185   21.7277 N   0  0  0  0  0  0  0  0  0  0  0  0
  -20.7502  -13.7145   27.4338 N   0  3  0  0  0  0  0  0  0  0  0  0
  -26.9741  -30.5679   17.4062 O   0  0  0  0  0  0  0  0  0  0  0  0
  -25.3764  -14.9252   20.4357 O   0  0  0  0  0  0  0  0  0  0  0  0
  -24.9285  -12.1880   23.5015 O   0  0  0  0  0  0  0  0  0  0  0  0
  -20.7717  -14.1649   24.6566 O   0  0  0  0  0  0  0  0  0  0  0  0
  -19.9121  -27.7298   23.6606 O   0  0  0  0  0  0  0  0  0  0  0  0
  -30.9227  -24.2072   19.5359 O   0  0  0  0  0  0  0  0  0  0  0  0
  -22.4855  -20.1429   21.8858 O   0  0  0  0  0  0  0  0  0  1  0  0
  -29.6231  -18.8647   19.9519 F   0  0  0  0  0  0  0  0  0  0  0  0
  -29.7450  -23.2084   21.8289 F   0  0  0  0  0  0  0  0  0  0  0  0
  1  2  1  0  0  0  0
  1  5  2  0  0  0  0
  2  6  2  0  0  0  0
  3  8  2  0  0  0  0
  3 17  1  0  0  0  0
  4  9  1  0  0  0  0
  4 17  2  0  0  0  0
  5 19  1  0  0  0  0
  6 21  1  0  0  0  0
  7 10  2  0  0  0  0
  7 20  1  0  0  0  0
  8 24  1  0  0  0  0
  9 24  2  0  0  0  0
 10 25  1  0  0  0  0
 11 12  2  0  0  0  0
 11 26  1  0  0  0  0
 12 27  1  0  0  0  0
 13 22  1  0  0  0  0
 13 25  2  0  0  0  0
 14 27  2  0  0  0  0
 14 28  1  0  0  0  0
 15 23  1  0  0  0  0
 15 60  2  0  0  0  0
 16 23  2  0  0  0  0
 16 62  1  0  0  0  0
 17 29  1  0  0  0  0
 18 29  1  0  0  0  0
 18 30  2  0  0  0  0
 18 31  1  0  0  0  0
 19 21  2  0  0  0  0
 19 36  1  0  0  0  0
 20 22  2  0  0  0  0
 20 37  1  0  0  0  0
 21 45  1  0  0  0  0
 22 38  1  0  0  0  0
 23 54  1  0  0  0  0
 24 77  1  0  0  0  0
 25 78  1  0  0  0  0
 26 28  2  0  0  0  0
 26 77  1  0  0  0  0
 27 79  1  0  0  0  0
 28 80  1  0  0  0  0
 29 61  2  0  0  0  0
 30 63  1  0  0  0  0
 30 66  1  0  0  0  0
 31 67  1  0  0  0  0
 31 72  2  0  0  0  0
 32 46  1  0  0  0  0
 32 68  1  0  0  0  0
 32 73  2  0  0  0  0
 33 56  1  0  0  0  0
 33 64  1  0  0  0  0
 33 74  2  0  0  0  0
 34 57  1  0  0  0  0
 34 69  1  0  0  0  0
 34 75  2  0  0  0  0
 35 65  1  0  0  0  0
 35 70  1  0  0  0  0
 35 76  2  0  0  0  0
 36 39  1  0  0  0  0
 37 46  1  0  0  0  0
 38 64  1  0  0  0  0
 39 41  1  0  0  0  0
 40 42  1  0  0  0  0
 40 43  1  0  0  0  0
 41 45  1  0  0  0  0
 42 47  1  0  0  0  0
 43 65  1  0  0  0  0
 44 47  1  0  0  0  0
 44 65  1  0  0  0  0
 45 68  1  0  0  0  0
 46 64  1  0  0  0  0
 47 63  1  0  0  0  0
 48 57  1  0  0  0  0
 49 58  1  0  0  0  0
 50 59  1  0  0  0  0
 51 59  1  0  0  0  0
 52 59  1  0  0  0  0
 53 71  1  0  0  0  0
 54 78  1  0  0  0  0
 55 58  1  0  0  0  0
 55 70  1  0  0  0  0
 56 59  1  0  0  0  0
 56 69  1  0  0  0  0
 57 71  1  0  0  0  0
 58 62  1  0  0  0  0
 60 62  1  0  0  0  0
 61 63  1  0  0  0  0
M  CHG  1  71   1
M  ISO  4  35 100  54 101  70 100  78 101
M  END
> <Batch ID>
0054

> <Smiles>
CNC(C)C(=O)NC(C(=O)N1Cc2cc([101O:1][101CH2:1]c3cnn(C(C)C[100NH:0][100C:0](=O)N4CCCC(n5nc(-c6ccc(Oc7ccc(F)cc7F)cc6)c(C(N)=O)c5N)C4)c3)ccc2CC1C(=O)NC1CCCc2ccccc21)C(C)(C)C

> <Shape>
0.231

> <Color>
0.058

> <Negative vol penalty>
0.000

$$$$

  -OEChem-04052317413D

 84 92  0     1  0  0  0  0  0999 V2000
  -25.0548  -36.2700   22.6616 C   0  0  0  0  0  0  0  0  0  0  0  0
  -26.1585  -35.4929   22.3248 C   0  0  0  0  0  0  0  0  0  0  0  0
  -25.7551  -11.7606   20.2648 C   0  0  0  0  0  0  0  0  0  0  0  0
  -23.7956  -12.6631   21.3525 C   0  0  0  0  0  0  0  0  0  0  0  0
  -23.9192  -35.6685   23.2026 C   0  0  0  0  0  0  0  0  0  0  0  0
  -26.1277  -34.1140   22.5299 C   0  0  0  0  0  0  0  0  0  0  0  0
  -28.7618  -29.8152   19.0531 C   0  0  0  0  0  0  0  0  0  0  0  0
  -25.6125  -10.5774   20.9895 C   0  0  0  0  0  0  0  0  0  0  0  0
  -23.6530  -11.4799   22.0772 C   0  0  0  0  0  0  0  0  0  0  0  0
  -29.9593  -29.1122   19.1774 C   0  0  0  0  0  0  0  0  0  0  0  0
  -22.5628   -8.5603   23.9495 C   0  0  0  0  0  0  0  0  0  0  0  0
  -21.2854   -8.0085   24.0470 C   0  0  0  0  0  0  0  0  0  0  0  0
  -28.7730  -27.2868   20.2165 C   0  0  0  0  0  0  0  0  0  0  0  0
  -21.1891   -7.8067   21.6413 C   0  0  0  0  0  0  0  0  0  0  0  0
  -28.0875  -22.1683   20.0319 C   0  0  0  0  0  0  0  0  0  0  0  0
  -30.2685  -22.2426   20.3016 C   0  0  0  0  0  0  0  0  0  0  0  0
  -24.8467  -12.8035   20.4463 C   0  0  0  0  0  0  0  0  0  0  0  0
  -24.4345  -14.3267   18.4418 C   0  0  0  0  0  0  0  0  0  0  0  0
  -23.8709  -34.2803   23.4054 C   0  0  0  0  0  0  0  0  0  0  0  0
  -27.5605  -29.2629   19.5203 C   0  0  0  0  0  0  0  0  0  0  0  0
  -24.9909  -33.4936   23.0754 C   0  0  0  0  0  0  0  0  0  0  0  0
  -27.5611  -27.9838   20.0946 C   0  0  0  0  0  0  0  0  0  0  0  0
  -29.1305  -21.7160   20.8622 C   0  0  0  0  0  0  0  0  0  0  0  0
  -24.5614  -10.4370   21.8957 C   0  0  0  0  0  0  0  0  0  0  0  0
  -29.9655  -27.8491   19.7618 C   0  0  0  0  0  0  0  0  0  0  0  0
  -23.1533   -8.7353   22.6980 C   0  0  0  0  0  0  0  0  0  0  0  0
  -20.5986   -7.6317   22.8929 C   0  0  0  0  0  0  0  0  0  0  0  0
  -22.4665   -8.3585   21.5439 C   0  0  0  0  0  0  0  0  0  0  0  0
  -24.9938  -14.0262   19.6983 C   0  0  0  0  0  0  0  0  0  0  0  0
  -24.8685  -15.6008   18.1686 C   0  0  0  0  0  0  0  0  0  0  0  0
  -23.5973  -13.5257   17.5973 C   0  0  0  0  0  0  0  0  0  0  0  0
  -25.4247  -30.0805   21.7280 C   0  0  0  0  0  0  0  0  0  0  0  0
  -23.7833  -27.5593   20.5147 C   0  0  0  0  0  0  0  0  0  0  0  0
  -23.8601  -24.5928   18.8293 C   0  0  0  0  0  0  0  0  0  0  0  0
  -26.7237  -19.8277   22.1195 C   0  0  0  0  0  0  0  0  0  0  0  0
  -22.6391  -33.6814   24.0370 C   0  0  0  0  0  0  0  0  0  0  0  0
  -26.2730  -30.0228   19.3546 C   0  0  0  0  0  0  0  0  0  0  0  0
  -26.2953  -27.3379   20.5937 C   0  0  0  0  0  0  0  0  0  0  0  0
  -22.5466  -32.1664   23.8744 C   0  0  0  0  0  0  0  0  0  0  0  0
  -28.4706  -18.6101   19.0441 C   0  0  0  0  0  0  0  0  0  0  0  0
  -23.8826  -31.5109   24.2095 C   0  0  0  0  0  0  0  0  0  0  0  0
  -27.7557  -17.2802   18.8100 C   0  0  0  0  0  0  0  0  0  0  0  0
  -28.4864  -18.9751   20.5236 C   0  0  0  0  0  0  0  0  0  0  0  0
  -26.4094  -17.6924   20.9201 C   0  0  0  0  0  0  0  0  0  0  0  0
  -24.9865  -31.9916   23.2598 C   0  0  1  0  0  0  0  0  0  0  0  0
  -25.1879  -29.5800   20.3312 C   0  0  1  0  0  0  0  0  0  0  0  0
  -26.3508  -17.2930   19.4362 C   0  0  2  0  0  0  0  0  0  0  0  0
  -26.7365  -22.7204   25.7357 C   0  0  0  0  0  0  0  0  0  0  0  0
  -22.3646  -22.7458   18.0234 C   0  0  0  0  0  0  0  0  0  0  0  0
  -23.5989  -26.4709   23.3592 C   0  0  0  0  0  0  0  0  0  0  0  0
  -22.9706  -24.2481   22.3935 C   0  0  0  0  0  0  0  0  0  0  0  0
  -21.5053  -26.2307   22.0126 C   0  0  0  0  0  0  0  0  0  0  0  0
  -24.5763  -25.0897   16.0010 C   0  0  0  0  0  0  0  0  0  0  0  0
  -29.0273  -20.8715   22.0628 C   0  0  0  0  0  0  0  0  0  0  0  0
  -27.2326  -21.5649   24.8776 C   0  0  0  0  0  0  0  0  0  0  0  0
  -30.6762  -25.2394   18.4638 C   0  0  0  0  0  0  0  0  0  0  0  0
  -30.7325  -23.7203   18.2581 C   0  0  0  0  0  0  0  0  0  0  0  0
  -27.2100  -21.8854   23.3878 C   0  0  0  0  0  0  0  0  0  0  0  0
  -23.7243  -26.0801   20.8102 C   0  0  1  0  0  0  0  0  0  0  0  0
  -23.0269  -24.0692   17.6733 C   0  0  2  0  0  0  0  0  0  0  0  0
  -31.1039  -25.7284   19.8555 C   0  0  2  0  0  0  0  0  0  1  0  0
  -22.9741  -25.7701   22.1363 C   0  0  0  0  0  0  0  0  0  0  0  0
  -28.5240  -22.9241   19.0209 N   0  0  0  0  0  0  0  0  0  0  0  0
  -25.7273  -15.0287   20.1892 N   0  0  0  0  0  0  0  0  0  0  0  0
  -29.8540  -22.9509   19.2122 N   0  0  0  0  0  0  0  0  0  0  0  0
  -25.6320  -15.9715   19.2362 N   0  0  0  0  0  0  0  0  0  0  0  0
  -25.0631  -28.1234   20.4149 N   0  0  0  0  0  0  0  0  0  0  0  0
  -27.1367  -18.9507   21.1029 N   0  0  0  0  0  0  0  0  0  0  0  0
  -24.6679  -16.4290   17.1215 N   0  0  0  0  0  0  0  0  0  0  0  0
  -23.2464  -12.2398   18.0304 N   0  0  0  0  0  0  0  0  0  0  0  0
  -24.8782  -31.3244   21.9802 N   0  0  0  0  0  0  0  0  0  0  0  0
  -23.1383  -25.4514   19.6312 N   0  0  0  0  0  0  0  0  0  0  0  0
  -27.6624  -20.7665   22.5734 N   0  0  0  0  0  0  0  0  0  0  0  0
  -23.8819  -23.8631   16.4702 N   0  3  0  0  0  0  0  0  0  0  0  0
  -23.1865  -13.9319   16.4838 O   0  0  0  0  0  0  0  0  0  0  0  0
  -26.0553  -29.3887   22.5189 O   0  0  0  0  0  0  0  0  0  0  0  0
  -22.7328  -28.1896   20.3705 O   0  0  0  0  0  0  0  0  0  0  0  0
  -25.0326  -24.2694   19.0054 O   0  0  0  0  0  0  0  0  0  0  0  0
  -25.5785  -19.7813   22.5866 O   0  0  0  0  0  0  0  0  0  0  0  0
  -24.4219   -9.2825   22.6030 O   0  0  0  0  0  0  0  0  0  0  0  0
  -31.1331  -27.1610   19.8849 O   0  0  0  0  0  0  0  0  0  1  0  0
  -19.3726   -7.1005   22.9867 F   0  0  0  0  0  0  0  0  0  0  0  0
  -23.0291   -8.5231   20.3388 F   0  0  0  0  0  0  0  0  0  0  0  0
  -32.7718  -25.1678   20.2195 Cl  0  0  0  0  0  0  0  0  0  0  0  0
  1  2  1  0  0  0  0
  1  5  2  0  0  0  0
  2  6  2  0  0  0  0
  3  8  2  0  0  0  0
  3 17  1  0  0  0  0
  4  9  1  0  0  0  0
  4 17  2  0  0  0  0
  5 19  1  0  0  0  0
  6 21  1  0  0  0  0
  7 10  2  0  0  0  0
  7 20  1  0  0  0  0
  8 24  1  0  0  0  0
  9 24  2  0  0  0  0
 10 25  1  0  0  0  0
 11 12  2  0  0  0  0
 11 26  1  0  0  0  0
 12 27  1  0  0  0  0
 13 22  1  0  0  0  0
 13 25  2  0  0  0  0
 14 27  2  0  0  0  0
 14 28  1  0  0  0  0
 15 23  1  0  0  0  0
 15 63  2  0  0  0  0
 16 23  2  0  0  0  0
 16 65  1  0  0  0  0
 17 29  1  0  0  0  0
 18 29  1  0  0  0  0
 18 30  2  0  0  0  0
 18 31  1  0  0  0  0
 19 21  2  0  0  0  0
 19 36  1  0  0  0  0
 20 22  2  0  0  0  0
 20 37  1  0  0  0  0
 21 45  1  0  0  0  0
 22 38  1  0  0  0  0
 23 54  1  0  0  0  0
 24 80  1  0  0  0  0
 25 81  1  0  0  0  0
 26 28  2  0  0  0  0
 26 80  1  0  0  0  0
 27 82  1  0  0  0  0
 28 83  1  0  0  0  0
 29 64  2  0  0  0  0
 30 66  1  0  0  0  0
 30 69  1  0  0  0  0
 31 70  1  0  0  0  0
 31 75  2  0  0  0  0
 32 46  1  0  0  0  0
 32 71  1  0  0  0  0
 32 76  2  0  0  0  0
 33 59  1  0  0  0  0
 33 67  1  0  0  0  0
 33 77  2  0  0  0  0
 34 60  1  0  0  0  0
 34 72  1  0  0  0  0
 34 78  2  0  0  0  0
 35 68  1  0  0  0  0
 35 73  1  0  0  0  0
 35 79  2  0  0  0  0
 36 39  1  0  0  0  0
 37 46  1  0  0  0  0
 38 67  1  0  0  0  0
 39 41  1  0  0  0  0
 40 42  1  0  0  0  0
 40 43  1  0  0  0  0
 41 45  1  0  0  0  0
 42 47  1  0  0  0  0
 43 68  1  0  0  0  0
 44 47  1  0  0  0  0
 44 68  1  0  0  0  0
 45 71  1  0  0  0  0
 46 67  1  0  0  0  0
 47 66  1  0  0  0  0
 48 55  1  0  0  0  0
 49 60  1  0  0  0  0
 50 62  1  0  0  0  0
 51 62  1  0  0  0  0
 52 62  1  0  0  0  0
 53 74  1  0  0  0  0
 54 73  1  0  0  0  0
 55 58  1  0  0  0  0
 56 57  1  0  0  0  0
 56 61  1  0  0  0  0
 57 65  1  0  0  0  0
 58 73  1  0  0  0  0
 59 62  1  0  0  0  0
 59 72  1  0  0  0  0
 60 74  1  0  0  0  0
 61 81  1  0  0  0  0
 61 84  1  0  0  0  0
 63 65  1  0  0  0  0
 64 66  1  0  0  0  0
M  CHG  1  74   1
M  ISO  4  35 100  61 101  73 100  81 101
M  END
> <Batch ID>
0054

> <Smiles>
CCC[100N:0](Cc1cnn(CC[101CH:1](Cl)[101O:1]c2ccc3c(c2)CN(C(=O)C(NC(=O)C(C)NC)C(C)(C)C)C(C(=O)NC2CCCc4ccccc42)C3)c1)[100C:0](=O)N1CCCC(n2nc(-c3ccc(Oc4ccc(F)cc4F)cc3)c(C(N)=O)c2N)C1

> <Shape>
0.267

> <Color>
0.050

> <Negative vol penalty>
0.000

$$$$

  -OEChem-04052317413D

 88 96  0     1  0  0  0  0  0999 V2000
  -27.2501  -37.8017   22.1782 C   0  0  0  0  0  0  0  0  0  0  0  0
  -27.8190  -36.6207   21.7122 C   0  0  0  0  0  0  0  0  0  0  0  0
  -28.5297  -14.2425   18.6106 C   0  0  0  0  0  0  0  0  0  0  0  0
  -28.8628  -13.6718   20.9345 C   0  0  0  0  0  0  0  0  0  0  0  0
  -26.2658  -37.7582   23.1647 C   0  0  0  0  0  0  0  0  0  0  0  0
  -27.4046  -35.3955   22.2334 C   0  0  0  0  0  0  0  0  0  0  0  0
  -26.9477  -30.0805   19.2254 C   0  0  0  0  0  0  0  0  0  0  0  0
  -28.7587  -12.9143   18.2516 C   0  0  0  0  0  0  0  0  0  0  0  0
  -29.0917  -12.3435   20.5755 C   0  0  0  0  0  0  0  0  0  0  0  0
  -27.7938  -28.9758   19.1392 C   0  0  0  0  0  0  0  0  0  0  0  0
  -29.4081   -8.7317   20.3049 C   0  0  0  0  0  0  0  0  0  0  0  0
  -28.7833   -7.7384   21.0589 C   0  0  0  0  0  0  0  0  0  0  0  0
  -26.5387  -27.8857   20.8872 C   0  0  0  0  0  0  0  0  0  0  0  0
  -26.6244   -8.6484   20.4686 C   0  0  0  0  0  0  0  0  0  0  0  0
  -31.8572  -22.5416   24.7939 C   0  0  0  0  0  0  0  0  0  0  0  0
  -28.5818  -14.6213   19.9521 C   0  0  0  0  0  0  0  0  0  0  0  0
  -27.1107  -16.5863   20.6464 C   0  0  0  0  0  0  0  0  0  0  0  0
  -25.8323  -36.5313   23.6913 C   0  0  0  0  0  0  0  0  0  0  0  0
  -25.8956  -30.1007   20.1523 C   0  0  0  0  0  0  0  0  0  0  0  0
  -26.4145  -35.3357   23.2289 C   0  0  0  0  0  0  0  0  0  0  0  0
  -25.6791  -28.9908   20.9814 C   0  0  0  0  0  0  0  0  0  0  0  0
  -29.0397  -11.9647   19.2340 C   0  0  0  0  0  0  0  0  0  0  0  0
  -27.5912  -27.8794   19.9722 C   0  0  0  0  0  0  0  0  0  0  0  0
  -28.6411   -9.6834   19.6328 C   0  0  0  0  0  0  0  0  0  0  0  0
  -27.3915   -7.6967   21.1407 C   0  0  0  0  0  0  0  0  0  0  0  0
  -27.2493   -9.6417   19.7147 C   0  0  0  0  0  0  0  0  0  0  0  0
  -28.3460  -15.9933   20.3235 C   0  0  0  0  0  0  0  0  0  0  0  0
  -33.0319  -21.9783   25.3276 C   0  0  0  0  0  0  0  0  0  0  0  0
  -32.2223  -23.8140   24.4277 C   0  0  0  0  0  0  0  0  0  0  0  0
  -27.4203  -17.8952   20.9244 C   0  0  0  0  0  0  0  0  0  0  0  0
  -25.8004  -16.0058   20.6911 C   0  0  0  0  0  0  0  0  0  0  0  0
  -25.1417  -31.9153   22.6508 C   0  0  0  0  0  0  0  0  0  0  0  0
  -22.4226  -30.1466   22.6210 C   0  0  0  0  0  0  0  0  0  0  0  0
  -20.8655  -27.2419   21.7353 C   0  0  0  0  0  0  0  0  0  0  0  0
  -32.8152  -20.2544   22.6180 C   0  0  0  0  0  0  0  0  0  0  0  0
  -24.7992  -36.5374   24.7902 C   0  0  0  0  0  0  0  0  0  0  0  0
  -24.9755  -31.2889   20.2144 C   0  0  0  0  0  0  0  0  0  0  0  0
  -24.5515  -28.9544   21.9793 C   0  0  0  0  0  0  0  0  0  0  0  0
  -24.1491  -35.1759   25.0225 C   0  0  0  0  0  0  0  0  0  0  0  0
  -30.5849  -21.3140   19.8603 C   0  0  0  0  0  0  0  0  0  0  0  0
  -25.2093  -34.0805   25.0776 C   0  0  0  0  0  0  0  0  0  0  0  0
  -29.7029  -20.0838   19.6539 C   0  0  0  0  0  0  0  0  0  0  0  0
  -31.9596  -20.9410   20.4071 C   0  0  0  0  0  0  0  0  0  0  0  0
  -31.0300  -18.8995   21.4474 C   0  0  0  0  0  0  0  0  0  0  0  0
  -25.9739  -33.9856   23.7517 C   0  0  1  0  0  0  0  0  0  0  0  0
  -24.2498  -31.4135   21.5505 C   0  0  1  0  0  0  0  0  0  0  0  0
  -29.6215  -19.2449   20.9411 C   0  0  2  0  0  0  0  0  0  0  0  0
  -18.6507  -26.0708   21.8795 C   0  0  0  0  0  0  0  0  0  0  0  0
  -32.2893  -16.6193   22.8482 C   0  0  0  0  0  0  0  0  0  0  0  0
  -30.4654  -16.4330   24.5554 C   0  0  0  0  0  0  0  0  0  0  0  0
  -22.9528  -29.5108   25.5577 C   0  0  0  0  0  0  0  0  0  0  0  0
  -21.3028  -27.6364   25.3776 C   0  0  0  0  0  0  0  0  0  0  0  0
  -20.5601  -29.9892   25.0094 C   0  0  0  0  0  0  0  0  0  0  0  0
  -34.3837  -25.0890   24.5589 C   0  0  0  0  0  0  0  0  0  0  0  0
  -20.6028  -27.1284   18.7896 C   0  0  0  0  0  0  0  0  0  0  0  0
  -33.2079  -20.6235   25.8772 C   0  0  0  0  0  0  0  0  0  0  0  0
  -31.4275  -24.9297   23.7970 C   0  0  0  0  0  0  0  0  0  0  0  0
  -31.4548  -24.9201   22.2644 C   0  0  0  0  0  0  0  0  0  0  0  0
  -30.5803  -26.0134   21.6424 C   0  0  0  0  0  0  0  0  0  0  0  0
  -30.6616  -25.9859   20.1172 C   0  0  0  0  0  0  0  0  0  0  0  0
  -33.6398  -19.5702   24.8387 C   0  0  0  0  0  0  0  0  0  0  0  0
  -31.4699  -18.6810   24.0730 C   0  0  0  0  0  0  0  0  0  0  0  0
  -29.7635  -27.0414   19.4878 C   0  0  0  0  0  0  0  0  0  1  0  0
  -21.9836  -28.8502   23.2577 C   0  0  1  0  0  0  0  0  0  0  0  0
  -19.5392  -26.9799   21.0447 C   0  0  2  0  0  0  0  0  0  0  0  0
  -31.7438  -17.1757   24.1654 C   0  0  0  0  0  0  0  0  0  0  0  0
  -21.7223  -28.9978   24.7832 C   0  0  0  0  0  0  0  0  0  0  0  0
  -29.3644  -16.8549   20.3897 N   0  0  0  0  0  0  0  0  0  0  0  0
  -34.0658  -22.8236   25.3042 N   0  0  0  0  0  0  0  0  0  0  0  0
  -33.5420  -23.9309   24.7514 N   0  0  0  0  0  0  0  0  0  0  0  0
  -28.7697  -18.0026   20.7573 N   0  0  0  0  0  0  0  0  0  0  0  0
  -23.6829  -30.1428   22.0065 N   0  0  0  0  0  0  0  0  0  0  0  0
  -31.8528  -20.1080   21.6054 N   0  0  0  0  0  0  0  0  0  0  0  0
  -26.6673  -18.9533   21.2929 N   0  0  0  0  0  0  0  0  0  0  0  0
  -25.6605  -14.6472   20.3767 N   0  0  0  0  0  0  0  0  0  0  0  0
  -25.1807  -33.2923   22.7594 N   0  0  0  0  0  0  0  0  0  0  0  0
  -20.8274  -28.3919   22.4950 N   0  0  0  0  0  0  0  0  0  0  0  0
  -32.6735  -19.4467   23.7565 N   0  0  0  0  0  0  0  0  0  0  0  0
  -19.7633  -26.3322   19.7214 N   0  3  0  0  0  0  0  0  0  0  0  0
  -24.7816  -16.6761   20.9848 O   0  0  0  0  0  0  0  0  0  0  0  0
  -25.7482  -31.1126   23.3503 O   0  0  0  0  0  0  0  0  0  0  0  0
  -21.6719  -31.1246   22.6609 O   0  0  0  0  0  0  0  0  0  0  0  0
  -21.8369  -26.4985   21.6158 O   0  0  0  0  0  0  0  0  0  0  0  0
  -33.7423  -21.0678   22.5146 O   0  0  0  0  0  0  0  0  0  0  0  0
  -29.2629  -10.6685   18.8840 O   0  0  0  0  0  0  0  0  0  0  0  0
  -28.4159  -26.8000   19.8905 O   0  0  0  0  0  0  0  0  0  1  0  0
  -26.7916   -6.7418   21.8636 F   0  0  0  0  0  0  0  0  0  0  0  0
  -26.5071  -10.5526   19.0702 F   0  0  0  0  0  0  0  0  0  0  0  0
  1  2  1  0  0  0  0
  1  5  2  0  0  0  0
  2  6  2  0  0  0  0
  3  8  2  0  0  0  0
  3 16  1  0  0  0  0
  4  9  1  0  0  0  0
  4 16  2  0  0  0  0
  5 18  1  0  0  0  0
  6 20  1  0  0  0  0
  7 10  2  0  0  0  0
  7 19  1  0  0  0  0
  8 22  1  0  0  0  0
  9 22  2  0  0  0  0
 10 23  1  0  0  0  0
 11 12  2  0  0  0  0
 11 24  1  0  0  0  0
 12 25  1  0  0  0  0
 13 21  1  0  0  0  0
 13 23  2  0  0  0  0
 14 25  2  0  0  0  0
 14 26  1  0  0  0  0
 15 28  1  0  0  0  0
 15 29  2  0  0  0  0
 16 27  1  0  0  0  0
 17 27  1  0  0  0  0
 17 30  2  0  0  0  0
 17 31  1  0  0  0  0
 18 20  2  0  0  0  0
 18 36  1  0  0  0  0
 19 21  2  0  0  0  0
 19 37  1  0  0  0  0
 20 45  1  0  0  0  0
 21 38  1  0  0  0  0
 22 85  1  0  0  0  0
 23 86  1  0  0  0  0
 24 26  2  0  0  0  0
 24 85  1  0  0  0  0
 25 87  1  0  0  0  0
 26 88  1  0  0  0  0
 27 68  2  0  0  0  0
 28 56  1  0  0  0  0
 28 69  2  0  0  0  0
 29 57  1  0  0  0  0
 29 70  1  0  0  0  0
 30 71  1  0  0  0  0
 30 74  1  0  0  0  0
 31 75  1  0  0  0  0
 31 80  2  0  0  0  0
 32 46  1  0  0  0  0
 32 76  1  0  0  0  0
 32 81  2  0  0  0  0
 33 64  1  0  0  0  0
 33 72  1  0  0  0  0
 33 82  2  0  0  0  0
 34 65  1  0  0  0  0
 34 77  1  0  0  0  0
 34 83  2  0  0  0  0
 35 73  1  0  0  0  0
 35 78  1  0  0  0  0
 35 84  2  0  0  0  0
 36 39  1  0  0  0  0
 37 46  1  0  0  0  0
 38 72  1  0  0  0  0
 39 41  1  0  0  0  0
 40 42  1  0  0  0  0
 40 43  1  0  0  0  0
 41 45  1  0  0  0  0
 42 47  1  0  0  0  0
 43 73  1  0  0  0  0
 44 47  1  0  0  0  0
 44 73  1  0  0  0  0
 45 76  1  0  0  0  0
 46 72  1  0  0  0  0
 47 71  1  0  0  0  0
 48 65  1  0  0  0  0
 49 66  1  0  0  0  0
 50 66  1  0  0  0  0
 51 67  1  0  0  0  0
 52 67  1  0  0  0  0
 53 67  1  0  0  0  0
 54 70  1  0  0  0  0
 55 79  1  0  0  0  0
 56 61  1  0  0  0  0
 57 58  1  0  0  0  0
 58 59  1  0  0  0  0
 59 60  1  0  0  0  0
 60 63  1  0  0  0  0
 61 78  1  0  0  0  0
 62 66  1  0  0  0  0
 62 78  1  0  0  0  0
 63 86  1  0  0  0  0
 64 67  1  0  0  0  0
 64 77  1  0  0  0  0
 65 79  1  0  0  0  0
 68 71  1  0  0  0  0
 69 70  1  0  0  0  0
M  CHG  1  79   1
M  ISO  4  35 100  63 101  78 100  86 101
M  END
> <Batch ID>
0054

> <Smiles>
CNC(C)C(=O)NC(C(=O)N1Cc2cc([101O:1][101CH2:1]CCCCc3cc(CC[100N:0](CC(C)C)[100C:0](=O)N4CCCC(n5nc(-c6ccc(Oc7ccc(F)cc7F)cc6)c(C(N)=O)c5N)C4)nn3C)ccc2CC1C(=O)NC1CCCc2ccccc21)C(C)(C)C

> <Shape>
0.272

> <Color>
0.083

> <Negative vol penalty>
0.000

$$$$

  -OEChem-04052317413D

 81 89  0     1  0  0  0  0  0999 V2000
  -22.6653  -28.7408   18.3260 C   0  0  0  0  0  0  0  0  0  0  0  0
  -23.3288  -27.5945   18.7518 C   0  0  0  0  0  0  0  0  0  0  0  0
  -23.0922   -9.8544   19.8852 C   0  0  0  0  0  0  0  0  0  0  0  0
  -23.9698   -9.7156   22.1319 C   0  0  0  0  0  0  0  0  0  0  0  0
  -23.0128  -29.9831   18.8550 C   0  0  0  0  0  0  0  0  0  0  0  0
  -24.3410  -27.6901   19.7061 C   0  0  0  0  0  0  0  0  0  0  0  0
  -23.9700  -24.1360   23.2943 C   0  0  0  0  0  0  0  0  0  0  0  0
  -22.3982   -8.6607   20.0826 C   0  0  0  0  0  0  0  0  0  0  0  0
  -23.2758   -8.5218   22.3293 C   0  0  0  0  0  0  0  0  0  0  0  0
  -24.4087  -22.8535   22.9679 C   0  0  0  0  0  0  0  0  0  0  0  0
  -20.1094   -7.5698   23.0280 C   0  0  0  0  0  0  0  0  0  0  0  0
  -19.4160   -7.4159   24.2285 C   0  0  0  0  0  0  0  0  0  0  0  0
  -26.4846  -23.2765   24.1216 C   0  0  0  0  0  0  0  0  0  0  0  0
  -20.7530   -5.4728   24.7517 C   0  0  0  0  0  0  0  0  0  0  0  0
  -28.5395  -19.0381   22.0209 C   0  0  0  0  0  0  0  0  0  0  0  0
  -23.8781  -10.3818   20.9099 C   0  0  0  0  0  0  0  0  0  0  0  0
  -24.1354  -12.9192   20.9671 C   0  0  0  0  0  0  0  0  0  0  0  0
  -24.0232  -30.0928   19.8233 C   0  0  0  0  0  0  0  0  0  0  0  0
  -24.7911  -25.0037   24.0287 C   0  0  0  0  0  0  0  0  0  0  0  0
  -24.7033  -28.9352   20.2475 C   0  0  0  0  0  0  0  0  0  0  0  0
  -26.0530  -24.5686   24.4582 C   0  0  0  0  0  0  0  0  0  0  0  0
  -27.7000  -19.4076   23.0433 C   0  0  0  0  0  0  0  0  0  0  0  0
  -22.4899   -7.9944   21.3046 C   0  0  0  0  0  0  0  0  0  0  0  0
  -25.6673  -22.4246   23.3791 C   0  0  0  0  0  0  0  0  0  0  0  0
  -21.1246   -6.6751   22.6894 C   0  0  0  0  0  0  0  0  0  0  0  0
  -19.7378   -6.3674   25.0903 C   0  0  0  0  0  0  0  0  0  0  0  0
  -21.4464   -5.6267   23.5512 C   0  0  0  0  0  0  0  0  0  0  0  0
  -24.5957  -11.6146   20.7065 C   0  0  0  0  0  0  0  0  0  0  0  0
  -27.1938  -18.1915   23.5399 C   0  0  0  0  0  0  0  0  0  0  0  0
  -25.1836  -13.7312   20.6088 C   0  0  0  0  0  0  0  0  0  0  0  0
  -22.8731  -13.3578   21.4868 C   0  0  0  0  0  0  0  0  0  0  0  0
  -26.1307  -27.8320   23.4722 C   0  0  0  0  0  0  0  0  0  0  0  0
  -30.6636  -14.8497   20.6932 C   0  0  0  0  0  0  0  0  0  0  0  0
  -26.9921  -27.6013   26.5910 C   0  0  0  0  0  0  0  0  0  0  0  0
  -27.6261  -25.5992   29.2811 C   0  0  0  0  0  0  0  0  0  0  0  0
  -24.3962  -31.4630   20.3313 C   0  0  0  0  0  0  0  0  0  0  0  0
  -24.2925  -26.3745   24.3955 C   0  0  0  0  0  0  0  0  0  0  0  0
  -26.9646  -25.4544   25.2661 C   0  0  0  0  0  0  0  0  0  0  0  0
  -25.2238  -31.4327   21.6137 C   0  0  0  0  0  0  0  0  0  0  0  0
  -29.4419  -12.7076   18.0935 C   0  0  0  0  0  0  0  0  0  0  0  0
  -26.3488  -30.4090   21.4990 C   0  0  0  0  0  0  0  0  0  0  0  0
  -28.0466  -12.3155   18.5775 C   0  0  0  0  0  0  0  0  0  0  0  0
  -30.4169  -12.8514   19.2578 C   0  0  0  0  0  0  0  0  0  0  0  0
  -28.5673  -13.4127   20.8023 C   0  0  0  0  0  0  0  0  0  0  0  0
  -25.7898  -28.9951   21.2992 C   0  0  1  0  0  0  0  0  0  0  0  0
  -25.4180  -27.3563   24.7064 C   0  0  1  0  0  0  0  0  0  0  0  0
  -27.5437  -13.2869   19.6601 C   0  0  2  0  0  0  0  0  0  0  0  0
  -26.2423  -17.9944   24.6475 C   0  0  0  0  0  0  0  0  0  0  0  0
  -28.3470  -25.6967   31.6828 C   0  0  0  0  0  0  0  0  0  0  0  0
  -29.8671  -28.1102   25.7049 C   0  0  0  0  0  0  0  0  0  0  0  0
  -30.6302  -27.2656   27.9349 C   0  0  0  0  0  0  0  0  0  0  0  0
  -29.1945  -29.3011   27.7987 C   0  0  0  0  0  0  0  0  0  0  0  0
  -25.0970  -24.3752   30.2106 C   0  0  0  0  0  0  0  0  0  0  0  0
  -27.3986  -20.7997   23.5149 C   0  0  0  0  0  0  0  0  0  1  0  0
  -29.2045  -16.8258   21.0498 C   0  0  0  0  0  0  0  0  0  0  0  0
  -31.1548  -16.2668   22.6713 C   0  0  0  0  0  0  0  0  0  0  0  0
  -30.0553  -15.7478   21.7408 C   0  0  2  0  0  0  0  0  0  0  0  0
  -28.1776  -27.0336   27.3335 C   0  0  1  0  0  0  0  0  0  0  0  0
  -27.1655  -25.6771   30.7255 C   0  0  2  0  0  0  0  0  0  0  0  0
  -29.4512  -27.9114   27.1761 C   0  0  0  0  0  0  0  0  0  0  0  0
  -25.8394  -11.5943   20.2199 N   0  0  0  0  0  0  0  0  0  0  0  0
  -27.6716  -17.1289   22.8867 N   0  0  0  0  0  0  0  0  0  0  0  0
  -28.4868  -17.6762   21.9691 N   0  0  0  0  0  0  0  0  0  0  0  0
  -26.1695  -12.8961   20.1719 N   0  0  0  0  0  0  0  0  0  0  0  0
  -26.4345  -26.7881   25.5942 N   0  0  0  0  0  0  0  0  0  0  0  0
  -29.8930  -13.7648   20.2750 N   0  0  0  0  0  0  0  0  0  0  0  0
  -25.3488  -15.0708   20.6278 N   0  0  0  0  0  0  0  0  0  0  0  0
  -21.9086  -12.3914   21.8031 N   0  0  0  0  0  0  0  0  0  0  0  0
  -25.3095  -28.4594   22.5549 N   0  0  0  0  0  0  0  0  0  0  0  0
  -27.7448  -26.8508   28.7147 N   0  0  0  0  0  0  0  0  0  0  0  0
  -31.9200  -17.3801   22.0582 N   0  3  0  0  0  0  0  0  0  0  0  0
  -26.3090  -24.5042   31.0599 N   0  3  0  0  0  0  0  0  0  0  0  0
  -22.6024  -14.5717   21.6500 O   0  0  0  0  0  0  0  0  0  0  0  0
  -27.3367  -27.6451   23.3610 O   0  0  0  0  0  0  0  0  0  0  0  0
  -31.7891  -15.1081   20.2587 O   0  0  0  0  0  0  0  0  0  0  0  0
  -26.5718  -28.7220   26.8895 O   0  0  0  0  0  0  0  0  0  0  0  0
  -27.8611  -24.5349   28.7133 O   0  0  0  0  0  0  0  0  0  0  0  0
  -21.8126   -6.8297   21.4976 O   0  0  0  0  0  0  0  0  0  0  0  0
  -26.0982  -21.1735   23.0613 O   0  0  0  0  0  0  0  0  0  1  0  0
  -19.0729   -6.2207   26.2438 F   0  0  0  0  0  0  0  0  0  0  0  0
  -22.4216   -4.7647   23.2319 F   0  0  0  0  0  0  0  0  0  0  0  0
  1  2  1  0  0  0  0
  1  5  2  0  0  0  0
  2  6  2  0  0  0  0
  3  8  2  0  0  0  0
  3 16  1  0  0  0  0
  4  9  1  0  0  0  0
  4 16  2  0  0  0  0
  5 18  1  0  0  0  0
  6 20  1  0  0  0  0
  7 10  2  0  0  0  0
  7 19  1  0  0  0  0
  8 23  1  0  0  0  0
  9 23  2  0  0  0  0
 10 24  1  0  0  0  0
 11 12  2  0  0  0  0
 11 25  1  0  0  0  0
 12 26  1  0  0  0  0
 13 21  1  0  0  0  0
 13 24  2  0  0  0  0
 14 26  2  0  0  0  0
 14 27  1  0  0  0  0
 15 22  2  0  0  0  0
 15 63  1  0  0  0  0
 16 28  1  0  0  0  0
 17 28  1  0  0  0  0
 17 30  2  0  0  0  0
 17 31  1  0  0  0  0
 18 20  2  0  0  0  0
 18 36  1  0  0  0  0
 19 21  2  0  0  0  0
 19 37  1  0  0  0  0
 20 45  1  0  0  0  0
 21 38  1  0  0  0  0
 22 29  1  0  0  0  0
 22 54  1  0  0  0  0
 23 78  1  0  0  0  0
 24 79  1  0  0  0  0
 25 27  2  0  0  0  0
 25 78  1  0  0  0  0
 26 80  1  0  0  0  0
 27 81  1  0  0  0  0
 28 61  2  0  0  0  0
 29 48  1  0  0  0  0
 29 62  2  0  0  0  0
 30 64  1  0  0  0  0
 30 67  1  0  0  0  0
 31 68  1  0  0  0  0
 31 73  2  0  0  0  0
 32 46  1  0  0  0  0
 32 69  1  0  0  0  0
 32 74  2  0  0  0  0
 33 57  1  0  0  0  0
 33 66  1  0  0  0  0
 33 75  2  0  0  0  0
 34 58  1  0  0  0  0
 34 65  1  0  0  0  0
 34 76  2  0  0  0  0
 35 59  1  0  0  0  0
 35 70  1  0  0  0  0
 35 77  2  0  0  0  0
 36 39  1  0  0  0  0
 37 46  1  0  0  0  0
 38 65  1  0  0  0  0
 39 41  1  0  0  0  0
 40 42  1  0  0  0  0
 40 43  1  0  0  0  0
 41 45  1  0  0  0  0
 42 47  1  0  0  0  0
 43 66  1  0  0  0  0
 44 47  1  0  0  0  0
 44 66  1  0  0  0  0
 45 69  1  0  0  0  0
 46 65  1  0  0  0  0
 47 64  1  0  0  0  0
 49 59  1  0  0  0  0
 50 60  1  0  0  0  0
 51 60  1  0  0  0  0
 52 60  1  0  0  0  0
 53 72  1  0  0  0  0
 54 79  1  0  0  0  0
 55 57  1  0  0  0  0
 55 63  1  0  0  0  0
 56 57  1  0  0  0  0
 56 71  1  0  0  0  0
 58 60  1  0  0  0  0
 58 70  1  0  0  0  0
 59 72  1  0  0  0  0
 61 64  1  0  0  0  0
 62 63  1  0  0  0  0
M  CHG  2  71   1  72   1
M  ISO  4  33 100  54 101  57 100  79 101
M  END
> <Batch ID>
0054

> <Smiles>
CNC(C)C(=O)NC(C(=O)N1Cc2cc([101O:1][101CH2:1]c3cn(C[100CH:0](CN)[100C:0](=O)N4CCCC(n5nc(-c6ccc(Oc7ccc(F)cc7F)cc6)c(C(N)=O)c5N)C4)nc3C)ccc2CC1C(=O)NC1CCCc2ccccc21)C(C)(C)C

> <Shape>
0.240

> <Color>
0.202

> <Negative vol penalty>
0.000

$$$$

  -OEChem-04052317413D

 87 95  0     1  0  0  0  0  0999 V2000
  -28.1380  -23.7060   16.5177 C   0  0  0  0  0  0  0  0  0  0  0  0
  -27.0285  -24.4787   16.8416 C   0  0  0  0  0  0  0  0  0  0  0  0
  -27.7814  -15.2832   21.6143 C   0  0  0  0  0  0  0  0  0  0  0  0
  -26.1239  -15.8557   19.9524 C   0  0  0  0  0  0  0  0  0  0  0  0
  -29.2313  -23.6669   17.3806 C   0  0  0  0  0  0  0  0  0  0  0  0
  -27.0166  -25.2218   18.0225 C   0  0  0  0  0  0  0  0  0  0  0  0
  -23.2221  -28.2785   18.7016 C   0  0  0  0  0  0  0  0  0  0  0  0
  -27.3669  -13.9521   21.5691 C   0  0  0  0  0  0  0  0  0  0  0  0
  -25.7094  -14.5246   19.9072 C   0  0  0  0  0  0  0  0  0  0  0  0
  -21.9355  -27.8291   18.9955 C   0  0  0  0  0  0  0  0  0  0  0  0
  -27.8085  -11.2728   19.5543 C   0  0  0  0  0  0  0  0  0  0  0  0
  -28.7949  -10.2883   19.4986 C   0  0  0  0  0  0  0  0  0  0  0  0
  -22.2500  -28.4566   21.3035 C   0  0  0  0  0  0  0  0  0  0  0  0
  -27.9761   -9.3506   21.5692 C   0  0  0  0  0  0  0  0  0  0  0  0
  -20.4857  -25.2214   24.8873 C   0  0  0  0  0  0  0  0  0  0  0  0
  -27.1598  -16.2350   20.8060 C   0  0  0  0  0  0  0  0  0  0  0  0
  -28.5847  -18.2177   20.0667 C   0  0  0  0  0  0  0  0  0  0  0  0
  -29.2269  -24.4004   18.5785 C   0  0  0  0  0  0  0  0  0  0  0  0
  -24.0377  -28.8112   19.7103 C   0  0  0  0  0  0  0  0  0  0  0  0
  -28.1201  -25.2142   18.8948 C   0  0  0  0  0  0  0  0  0  0  0  0
  -23.5456  -28.9144   21.0192 C   0  0  0  0  0  0  0  0  0  0  0  0
  -21.4677  -24.3056   25.1762 C   0  0  0  0  0  0  0  0  0  0  0  0
  -26.3310  -13.5728   20.7155 C   0  0  0  0  0  0  0  0  0  0  0  0
  -21.4503  -27.9154   20.2972 C   0  0  0  0  0  0  0  0  0  0  0  0
  -26.9058  -11.2963   20.6175 C   0  0  0  0  0  0  0  0  0  0  0  0
  -28.8787   -9.3272   20.5060 C   0  0  0  0  0  0  0  0  0  0  0  0
  -26.9896  -10.3352   21.6249 C   0  0  0  0  0  0  0  0  0  0  0  0
  -27.5871  -17.6103   20.8527 C   0  0  0  0  0  0  0  0  0  0  0  0
  -21.2339  -23.2447   24.2809 C   0  0  0  0  0  0  0  0  0  0  0  0
  -28.6087  -19.5236   20.4915 C   0  0  0  0  0  0  0  0  0  0  0  0
  -29.4152  -17.6520   19.0441 C   0  0  0  0  0  0  0  0  0  0  0  0
  -26.8328  -28.0076   20.9931 C   0  0  0  0  0  0  0  0  0  0  0  0
  -26.4772  -30.8210   22.5681 C   0  0  0  0  0  0  0  0  0  0  0  0
  -24.3733  -33.2361   23.7462 C   0  0  0  0  0  0  0  0  0  0  0  0
  -24.6657  -23.1044   23.0030 C   0  0  0  0  0  0  0  0  0  0  0  0
  -30.4400  -24.3279   19.4719 C   0  0  0  0  0  0  0  0  0  0  0  0
  -25.4134  -29.3162   19.3717 C   0  0  0  0  0  0  0  0  0  0  0  0
  -24.3739  -29.4970   22.1342 C   0  0  0  0  0  0  0  0  0  0  0  0
  -30.1567  -24.7896   20.8977 C   0  0  0  0  0  0  0  0  0  0  0  0
  -27.7535  -22.2410   24.3246 C   0  0  0  0  0  0  0  0  0  0  0  0
  -29.4376  -26.1302   20.8767 C   0  0  0  0  0  0  0  0  0  0  0  0
  -28.1681  -21.0118   23.5171 C   0  0  0  0  0  0  0  0  0  0  0  0
  -26.2670  -22.1972   24.6581 C   0  0  0  0  0  0  0  0  0  0  0  0
  -25.7857  -20.8558   22.6357 C   0  0  0  0  0  0  0  0  0  0  0  0
  -28.0722  -26.0067   20.1887 C   0  0  1  0  0  0  0  0  0  0  0  0
  -26.3451  -29.3671   20.5786 C   0  0  1  0  0  0  0  0  0  0  0  0
  -27.2839  -20.8487   22.2684 C   0  0  2  0  0  0  0  0  0  0  0  0
  -23.5266  -23.3860   19.9380 C   0  0  0  0  0  0  0  0  0  0  0  0
  -24.3724  -35.3945   25.0262 C   0  0  0  0  0  0  0  0  0  0  0  0
  -26.9113  -29.2786   25.1647 C   0  0  0  0  0  0  0  0  0  0  0  0
  -25.9731  -31.2404   26.4054 C   0  0  0  0  0  0  0  0  0  0  0  0
  -28.0610  -31.4973   25.0646 C   0  0  0  0  0  0  0  0  0  0  0  0
  -23.2113  -34.7223   21.4658 C   0  0  0  0  0  0  0  0  0  0  0  0
  -21.9935  -21.9888   24.1506 C   0  0  0  0  0  0  0  0  0  0  0  0
  -18.8673  -25.9230   21.8435 C   0  0  0  0  0  0  0  0  0  0  0  0
  -18.5536  -25.2952   23.2034 C   0  0  0  0  0  0  0  0  0  0  0  0
  -22.9735  -23.7025   21.3129 C   0  0  0  0  0  0  0  0  0  0  0  0
  -22.5551  -21.7332   22.7388 C   0  0  0  0  0  0  0  0  0  0  0  0
  -19.9707  -26.9729   21.9030 C   0  0  0  0  0  0  0  0  0  1  0  0
  -25.8459  -31.2436   23.8726 C   0  0  1  0  0  0  0  0  0  0  0  0
  -24.4234  -34.7502   23.6496 C   0  0  2  0  0  0  0  0  0  0  0  0
  -22.5230  -24.4198   26.1970 C   0  0  0  0  0  0  0  0  0  0  0  0
  -26.6827  -30.8021   25.1064 C   0  0  0  0  0  0  0  0  0  0  0  0
  -27.0187  -18.4605   21.7118 N   0  0  0  0  0  0  0  0  0  0  0  0
  -20.1855  -23.4648   23.4831 N   0  0  0  0  0  0  0  0  0  0  0  0
  -19.7518  -24.6745   23.8762 N   0  0  0  0  0  0  0  0  0  0  0  0
  -27.6612  -19.6154   21.4682 N   0  0  0  0  0  0  0  0  0  0  0  0
  -25.7148  -29.9713   21.7541 N   0  0  0  0  0  0  0  0  0  0  0  0
  -25.4577  -22.0363   23.4498 N   0  0  0  0  0  0  0  0  0  0  0  0
  -29.3477  -20.5909   20.1211 N   0  0  0  0  0  0  0  0  0  0  0  0
  -29.2600  -16.2944   18.7322 N   0  0  0  0  0  0  0  0  0  0  0  0
  -27.5163  -27.3289   20.0023 N   0  0  0  0  0  0  0  0  0  0  0  0
  -25.6366  -32.6842   23.7770 N   0  0  0  0  0  0  0  0  0  0  0  0
  -23.4816  -22.7841   22.3220 N   0  0  0  0  0  0  0  0  0  0  0  0
  -23.2718  -35.2567   22.8507 N   0  3  0  0  0  0  0  0  0  0  0  0
  -30.2811  -18.3264   18.4366 O   0  0  0  0  0  0  0  0  0  0  0  0
  -26.6070  -27.6049   22.1282 O   0  0  0  0  0  0  0  0  0  0  0  0
  -27.6024  -31.2355   22.2786 O   0  0  0  0  0  0  0  0  0  0  0  0
  -23.3191  -32.6061   23.7935 O   0  0  0  0  0  0  0  0  0  0  0  0
  -24.9936  -24.2804   23.2074 O   0  0  0  0  0  0  0  0  0  0  0  0
  -25.9265  -12.2740   20.6709 O   0  0  0  0  0  0  0  0  0  0  0  0
  -20.1950  -27.4769   20.5869 O   0  0  0  0  0  0  0  0  0  1  0  0
  -29.8251   -8.3809   20.4516 F   0  0  0  0  0  0  0  0  0  0  0  0
  -26.1245  -10.3520   22.6482 F   0  0  0  0  0  0  0  0  0  0  0  0
  -22.4874  -25.5872   26.9200 F   0  0  0  0  0  0  0  0  0  0  0  0
  -22.4980  -23.4305   27.1495 F   0  0  0  0  0  0  0  0  0  0  0  0
  -23.7915  -24.3707   25.6758 F   0  0  0  0  0  0  0  0  0  0  0  0
  1  2  1  0  0  0  0
  1  5  2  0  0  0  0
  2  6  2  0  0  0  0
  3  8  2  0  0  0  0
  3 16  1  0  0  0  0
  4  9  1  0  0  0  0
  4 16  2  0  0  0  0
  5 18  1  0  0  0  0
  6 20  1  0  0  0  0
  7 10  2  0  0  0  0
  7 19  1  0  0  0  0
  8 23  1  0  0  0  0
  9 23  2  0  0  0  0
 10 24  1  0  0  0  0
 11 12  2  0  0  0  0
 11 25  1  0  0  0  0
 12 26  1  0  0  0  0
 13 21  1  0  0  0  0
 13 24  2  0  0  0  0
 14 26  2  0  0  0  0
 14 27  1  0  0  0  0
 15 22  2  0  0  0  0
 15 66  1  0  0  0  0
 16 28  1  0  0  0  0
 17 28  1  0  0  0  0
 17 30  2  0  0  0  0
 17 31  1  0  0  0  0
 18 20  2  0  0  0  0
 18 36  1  0  0  0  0
 19 21  2  0  0  0  0
 19 37  1  0  0  0  0
 20 45  1  0  0  0  0
 21 38  1  0  0  0  0
 22 29  1  0  0  0  0
 22 62  1  0  0  0  0
 23 81  1  0  0  0  0
 24 82  1  0  0  0  0
 25 27  2  0  0  0  0
 25 81  1  0  0  0  0
 26 83  1  0  0  0  0
 27 84  1  0  0  0  0
 28 64  2  0  0  0  0
 29 54  1  0  0  0  0
 29 65  2  0  0  0  0
 30 67  1  0  0  0  0
 30 70  1  0  0  0  0
 31 71  1  0  0  0  0
 31 76  2  0  0  0  0
 32 46  1  0  0  0  0
 32 72  1  0  0  0  0
 32 77  2  0  0  0  0
 33 60  1  0  0  0  0
 33 68  1  0  0  0  0
 33 78  2  0  0  0  0
 34 61  1  0  0  0  0
 34 73  1  0  0  0  0
 34 79  2  0  0  0  0
 35 69  1  0  0  0  0
 35 74  1  0  0  0  0
 35 80  2  0  0  0  0
 36 39  1  0  0  0  0
 37 46  1  0  0  0  0
 38 68  1  0  0  0  0
 39 41  1  0  0  0  0
 40 42  1  0  0  0  0
 40 43  1  0  0  0  0
 41 45  1  0  0  0  0
 42 47  1  0  0  0  0
 43 69  1  0  0  0  0
 44 47  1  0  0  0  0
 44 69  1  0  0  0  0
 45 72  1  0  0  0  0
 46 68  1  0  0  0  0
 47 67  1  0  0  0  0
 48 57  1  0  0  0  0
 49 61  1  0  0  0  0
 50 63  1  0  0  0  0
 51 63  1  0  0  0  0
 52 63  1  0  0  0  0
 53 75  1  0  0  0  0
 54 58  1  0  0  0  0
 55 56  1  0  0  0  0
 55 59  1  0  0  0  0
 56 66  1  0  0  0  0
 57 74  1  0  0  0  0
 58 74  1  0  0  0  0
 59 82  1  0  0  0  0
 60 63  1  0  0  0  0
 60 73  1  0  0  0  0
 61 75  1  0  0  0  0
 62 85  1  0  0  0  0
 62 86  1  0  0  0  0
 62 87  1  0  0  0  0
 64 67  1  0  0  0  0
 65 66  1  0  0  0  0
M  CHG  1  75   1
M  ISO  4  35 100  59 101  74 100  82 101
M  END
> <Batch ID>
0054

> <Smiles>
CC[100N:0](CCc1nn(CC[101CH2:1][101O:1]c2ccc3c(c2)CN(C(=O)C(NC(=O)C(C)NC)C(C)(C)C)C(C(=O)NC2CCCc4ccccc42)C3)cc1C(F)(F)F)[100C:0](=O)N1CCCC(n2nc(-c3ccc(Oc4ccc(F)cc4F)cc3)c(C(N)=O)c2N)C1

> <Shape>
0.255

> <Color>
0.074

> <Negative vol penalty>
0.000

$$$$

  -OEChem-04052317413D

 81 89  0     1  0  0  0  0  0999 V2000
  -26.6973  -28.5401   22.8693 C   0  0  0  0  0  0  0  0  0  0  0  0
  -26.9851  -27.2225   23.2105 C   0  0  0  0  0  0  0  0  0  0  0  0
  -23.2871   -9.7962   19.9176 C   0  0  0  0  0  0  0  0  0  0  0  0
  -23.7249   -9.9491   22.2887 C   0  0  0  0  0  0  0  0  0  0  0  0
  -25.6111  -28.8236   22.0425 C   0  0  0  0  0  0  0  0  0  0  0  0
  -26.1860  -26.1876   22.7259 C   0  0  0  0  0  0  0  0  0  0  0  0
  -28.9042  -22.2731   21.0132 C   0  0  0  0  0  0  0  0  0  0  0  0
  -22.5564   -8.6269   20.1279 C   0  0  0  0  0  0  0  0  0  0  0  0
  -22.9942   -8.7797   22.4990 C   0  0  0  0  0  0  0  0  0  0  0  0
  -29.4394  -21.4051   21.9639 C   0  0  0  0  0  0  0  0  0  0  0  0
  -20.2724   -5.7991   20.0837 C   0  0  0  0  0  0  0  0  0  0  0  0
  -19.0483   -5.6723   19.4270 C   0  0  0  0  0  0  0  0  0  0  0  0
  -27.6365  -19.8554   21.5550 C   0  0  0  0  0  0  0  0  0  0  0  0
  -18.2408   -7.6532   20.5500 C   0  0  0  0  0  0  0  0  0  0  0  0
  -23.8715  -10.4573   20.9980 C   0  0  0  0  0  0  0  0  0  0  0  0
  -24.1389  -12.9854   20.7865 C   0  0  0  0  0  0  0  0  0  0  0  0
  -24.8041  -27.7909   21.5397 C   0  0  0  0  0  0  0  0  0  0  0  0
  -27.7232  -21.9432   20.3329 C   0  0  0  0  0  0  0  0  0  0  0  0
  -25.0871  -26.4576   21.8927 C   0  0  0  0  0  0  0  0  0  0  0  0
  -27.0898  -20.7198   20.5943 C   0  0  0  0  0  0  0  0  0  0  0  0
  -22.4099   -8.1187   21.4186 C   0  0  0  0  0  0  0  0  0  0  0  0
  -28.8040  -20.1973   22.2370 C   0  0  0  0  0  0  0  0  0  0  0  0
  -20.4806   -6.8529   20.9736 C   0  0  0  0  0  0  0  0  0  0  0  0
  -18.0325   -6.5994   19.6601 C   0  0  0  0  0  0  0  0  0  0  0  0
  -19.4648   -7.7799   21.2067 C   0  0  0  0  0  0  0  0  0  0  0  0
  -24.6269  -11.6650   20.7813 C   0  0  0  0  0  0  0  0  0  0  0  0
  -25.2439  -13.7609   20.5333 C   0  0  0  0  0  0  0  0  0  0  0  0
  -33.0541  -14.2313   24.8701 C   0  0  0  0  0  0  0  0  0  0  0  0
  -31.3067  -14.8875   23.9355 C   0  0  0  0  0  0  0  0  0  0  0  0
  -22.8059  -13.4680   21.0011 C   0  0  0  0  0  0  0  0  0  0  0  0
  -24.8204  -23.2220   20.1284 C   0  0  0  0  0  0  0  0  0  0  0  0
  -31.1113  -12.7873   21.3922 C   0  0  0  0  0  0  0  0  0  0  0  0
  -24.3827  -20.9068   17.8989 C   0  0  0  0  0  0  0  0  0  0  0  0
  -25.3002  -17.8585   16.6689 C   0  0  0  0  0  0  0  0  0  0  0  0
  -23.6125  -28.1501   20.6877 C   0  0  0  0  0  0  0  0  0  0  0  0
  -27.1734  -22.8784   19.2911 C   0  0  0  0  0  0  0  0  0  0  0  0
  -25.8307  -20.3096   19.8768 C   0  0  0  0  0  0  0  0  0  0  0  0
  -23.0392  -26.9667   19.9124 C   0  0  0  0  0  0  0  0  0  0  0  0
  -29.4772  -13.6528   18.3229 C   0  0  0  0  0  0  0  0  0  0  0  0
  -22.8959  -25.7511   20.8227 C   0  0  0  0  0  0  0  0  0  0  0  0
  -28.0078  -13.3343   18.5963 C   0  0  0  0  0  0  0  0  0  0  0  0
  -30.4029  -12.6651   19.0263 C   0  0  0  0  0  0  0  0  0  0  0  0
  -28.7044  -12.2420   20.7750 C   0  0  0  0  0  0  0  0  0  0  0  0
  -24.2585  -25.3056   21.3668 C   0  0  1  0  0  0  0  0  0  0  0  0
  -25.6847  -22.6723   19.0291 C   0  0  1  0  0  0  0  0  0  0  0  0
  -27.7358  -13.2345   20.1078 C   0  0  2  0  0  0  0  0  0  0  0  0
  -34.2772  -14.2531   25.6808 C   0  0  0  0  0  0  0  0  0  0  0  0
  -30.7996  -11.2378   23.3098 C   0  0  0  0  0  0  0  0  0  0  0  0
  -24.7353  -16.2127   14.8608 C   0  0  0  0  0  0  0  0  0  0  0  0
  -21.9030  -20.0500   19.4568 C   0  0  0  0  0  0  0  0  0  0  0  0
  -21.9390  -17.8905   18.1905 C   0  0  0  0  0  0  0  0  0  0  0  0
  -21.6271  -20.0442   16.9712 C   0  0  0  0  0  0  0  0  0  0  0  0
  -28.0066  -18.0518   15.4871 C   0  0  0  0  0  0  0  0  0  0  0  0
  -30.1228  -15.6608   23.4122 C   0  0  0  0  0  0  0  0  0  0  0  0
  -30.2542  -17.1761   23.5794 C   0  0  0  0  0  0  0  0  0  0  0  0
  -29.0929  -17.9537   22.9710 C   0  0  0  0  0  0  0  0  0  1  0  0
  -30.7197  -12.6898   22.8452 C   0  0  1  0  0  0  0  0  0  0  0  0
  -23.8994  -19.4768   17.9232 C   0  0  1  0  0  0  0  0  0  0  0  0
  -25.6083  -17.3931   15.2572 C   0  0  2  0  0  0  0  0  0  0  0  0
  -22.3648  -19.3737   18.1505 C   0  0  0  0  0  0  0  0  0  0  0  0
  -25.9397  -11.6014   20.5435 N   0  0  0  0  0  0  0  0  0  0  0  0
  -32.2681  -15.3362   24.7088 N   0  0  0  0  0  0  0  0  0  0  0  0
  -32.6395  -13.1272   24.2453 N   0  0  0  0  0  0  0  0  0  0  0  0
  -26.2860  -12.8916   20.3968 N   0  0  0  0  0  0  0  0  0  0  0  0
  -31.5204  -13.5739   23.6552 N   0  0  0  0  0  0  0  0  0  0  0  0
  -25.3286  -21.2607   18.8714 N   0  0  0  0  0  0  0  0  0  0  0  0
  -30.0978  -12.5824   20.4558 N   0  0  0  0  0  0  0  0  0  0  0  0
  -25.4161  -15.0947   20.4163 N   0  0  0  0  0  0  0  0  0  0  0  0
  -21.7894  -12.5352   21.2482 N   0  0  0  0  0  0  0  0  0  0  0  0
  -24.9918  -24.5741   20.3560 N   0  0  0  0  0  0  0  0  0  0  0  0
  -24.3616  -18.8686   16.6804 N   0  0  0  0  0  0  0  0  0  0  0  0
  -27.0359  -16.9795   15.1481 N   0  3  0  0  0  0  0  0  0  0  0  0
  -22.5216  -14.6889   20.9583 O   0  0  0  0  0  0  0  0  0  0  0  0
  -24.0536  -22.4750   20.7249 O   0  0  0  0  0  0  0  0  0  0  0  0
  -32.2829  -13.0410   21.1002 O   0  0  0  0  0  0  0  0  0  0  0  0
  -23.9426  -21.6794   17.0439 O   0  0  0  0  0  0  0  0  0  0  0  0
  -25.8356  -17.3719   17.6625 O   0  0  0  0  0  0  0  0  0  0  0  0
  -21.6967   -6.9778   21.6242 O   0  0  0  0  0  0  0  0  0  0  0  0
  -29.3238  -19.3485   23.1650 O   0  0  0  0  0  0  0  0  0  1  0  0
  -16.8577   -6.4785   19.0282 F   0  0  0  0  0  0  0  0  0  0  0  0
  -19.6594   -8.7950   22.0596 F   0  0  0  0  0  0  0  0  0  0  0  0
  1  2  1  0  0  0  0
  1  5  2  0  0  0  0
  2  6  2  0  0  0  0
  3  8  2  0  0  0  0
  3 15  1  0  0  0  0
  4  9  1  0  0  0  0
  4 15  2  0  0  0  0
  5 17  1  0  0  0  0
  6 19  1  0  0  0  0
  7 10  2  0  0  0  0
  7 18  1  0  0  0  0
  8 21  1  0  0  0  0
  9 21  2  0  0  0  0
 10 22  1  0  0  0  0
 11 12  2  0  0  0  0
 11 23  1  0  0  0  0
 12 24  1  0  0  0  0
 13 20  1  0  0  0  0
 13 22  2  0  0  0  0
 14 24  2  0  0  0  0
 14 25  1  0  0  0  0
 15 26  1  0  0  0  0
 16 26  1  0  0  0  0
 16 27  2  0  0  0  0
 16 30  1  0  0  0  0
 17 19  2  0  0  0  0
 17 35  1  0  0  0  0
 18 20  2  0  0  0  0
 18 36  1  0  0  0  0
 19 44  1  0  0  0  0
 20 37  1  0  0  0  0
 21 78  1  0  0  0  0
 22 79  1  0  0  0  0
 23 25  2  0  0  0  0
 23 78  1  0  0  0  0
 24 80  1  0  0  0  0
 25 81  1  0  0  0  0
 26 61  2  0  0  0  0
 27 64  1  0  0  0  0
 27 68  1  0  0  0  0
 28 47  1  0  0  0  0
 28 62  1  0  0  0  0
 28 63  2  0  0  0  0
 29 54  1  0  0  0  0
 29 62  2  0  0  0  0
 29 65  1  0  0  0  0
 30 69  1  0  0  0  0
 30 73  2  0  0  0  0
 31 45  1  0  0  0  0
 31 70  1  0  0  0  0
 31 74  2  0  0  0  0
 32 57  1  0  0  0  0
 32 67  1  0  0  0  0
 32 75  2  0  0  0  0
 33 58  1  0  0  0  0
 33 66  1  0  0  0  0
 33 76  2  0  0  0  0
 34 59  1  0  0  0  0
 34 71  1  0  0  0  0
 34 77  2  0  0  0  0
 35 38  1  0  0  0  0
 36 45  1  0  0  0  0
 37 66  1  0  0  0  0
 38 40  1  0  0  0  0
 39 41  1  0  0  0  0
 39 42  1  0  0  0  0
 40 44  1  0  0  0  0
 41 46  1  0  0  0  0
 42 67  1  0  0  0  0
 43 46  1  0  0  0  0
 43 67  1  0  0  0  0
 44 70  1  0  0  0  0
 45 66  1  0  0  0  0
 46 64  1  0  0  0  0
 48 57  1  0  0  0  0
 49 59  1  0  0  0  0
 50 60  1  0  0  0  0
 51 60  1  0  0  0  0
 52 60  1  0  0  0  0
 53 72  1  0  0  0  0
 54 55  1  0  0  0  0
 55 56  1  0  0  0  0
 56 79  1  0  0  0  0
 57 65  1  0  0  0  0
 58 60  1  0  0  0  0
 58 71  1  0  0  0  0
 59 72  1  0  0  0  0
 61 64  1  0  0  0  0
 63 65  1  0  0  0  0
M  CHG  1  72   1
M  ISO  4  32 100  56 101  57 100  79 101
M  END
> <Batch ID>
0054

> <Smiles>
CNC(C)C(=O)NC(C(=O)N1Cc2cc([101O:1][101CH2:1]CCc3nc(C)nn3[100CH:0](C)[100C:0](=O)N3CCCC(n4nc(-c5ccc(Oc6ccc(F)cc6F)cc5)c(C(N)=O)c4N)C3)ccc2CC1C(=O)NC1CCCc2ccccc21)C(C)(C)C

> <Shape>
0.170

> <Color>
0.177

> <Negative vol penalty>
0.000

$$$$

  -OEChem-04052317413D

 81 89  0     1  0  0  0  0  0999 V2000
  -28.9655  -11.5350   20.0247 C   0  0  0  0  0  0  0  0  0  0  0  0
  -29.0036  -12.7371   19.3256 C   0  0  0  0  0  0  0  0  0  0  0  0
  -30.2475  -24.1398   21.3140 C   0  0  0  0  0  0  0  0  0  0  0  0
  -28.7306  -23.0129   19.8086 C   0  0  0  0  0  0  0  0  0  0  0  0
  -27.7812  -11.1207   20.6327 C   0  0  0  0  0  0  0  0  0  0  0  0
  -27.8570  -13.5252   19.2332 C   0  0  0  0  0  0  0  0  0  0  0  0
  -25.8084  -20.3800   18.8701 C   0  0  0  0  0  0  0  0  0  0  0  0
  -30.5165  -22.9280   21.9502 C   0  0  0  0  0  0  0  0  0  0  0  0
  -28.9995  -21.8010   20.4448 C   0  0  0  0  0  0  0  0  0  0  0  0
  -25.0207  -21.2291   18.0940 C   0  0  0  0  0  0  0  0  0  0  0  0
  -31.4498  -19.4737   20.4333 C   0  0  0  0  0  0  0  0  0  0  0  0
  -31.6857  -18.3592   19.6283 C   0  0  0  0  0  0  0  0  0  0  0  0
  -23.0524  -20.4511   19.2513 C   0  0  0  0  0  0  0  0  0  0  0  0
  -29.7982  -17.2342   20.6328 C   0  0  0  0  0  0  0  0  0  0  0  0
  -20.5372  -24.2101   17.2119 C   0  0  0  0  0  0  0  0  0  0  0  0
  -20.2768  -26.2629   18.1853 C   0  0  0  0  0  0  0  0  0  0  0  0
  -29.3546  -24.1823   20.2432 C   0  0  0  0  0  0  0  0  0  0  0  0
  -29.7577  -25.9862   18.4852 C   0  0  0  0  0  0  0  0  0  0  0  0
  -26.6220  -11.9088   20.5559 C   0  0  0  0  0  0  0  0  0  0  0  0
  -25.2218  -19.5507   19.8368 C   0  0  0  0  0  0  0  0  0  0  0  0
  -26.6557  -13.1205   19.8396 C   0  0  0  0  0  0  0  0  0  0  0  0
  -23.8351  -19.5943   20.0402 C   0  0  0  0  0  0  0  0  0  0  0  0
  -29.8925  -21.7586   21.5156 C   0  0  0  0  0  0  0  0  0  0  0  0
  -23.6422  -21.2626   18.2825 C   0  0  0  0  0  0  0  0  0  0  0  0
  -30.3882  -19.4684   21.3381 C   0  0  0  0  0  0  0  0  0  0  0  0
  -30.8599  -17.2395   19.7280 C   0  0  0  0  0  0  0  0  0  0  0  0
  -29.5624  -18.3487   21.4378 C   0  0  0  0  0  0  0  0  0  0  0  0
  -29.0759  -25.4339   19.5860 C   0  0  0  0  0  0  0  0  0  0  0  0
  -21.7147  -24.6327   16.6355 C   0  0  0  0  0  0  0  0  0  0  0  0
  -21.4547  -26.6854   17.6096 C   0  0  0  0  0  0  0  0  0  0  0  0
  -29.1133  -27.1748   18.2434 C   0  0  0  0  0  0  0  0  0  0  0  0
  -30.8737  -25.4709   17.7471 C   0  0  0  0  0  0  0  0  0  0  0  0
  -25.0286  -16.4088   20.2781 C   0  0  0  0  0  0  0  0  0  0  0  0
  -23.6444  -17.2802   23.0794 C   0  0  0  0  0  0  0  0  0  0  0  0
  -21.9410  -19.6430   24.8576 C   0  0  0  0  0  0  0  0  0  0  0  0
  -23.5702  -29.1177   19.4054 C   0  0  0  0  0  0  0  0  0  0  0  0
  -25.3527  -11.3966   21.1893 C   0  0  0  0  0  0  0  0  0  0  0  0
  -26.0883  -18.6600   20.6843 C   0  0  0  0  0  0  0  0  0  0  0  0
  -23.1587  -18.7387   21.0789 C   0  0  0  0  0  0  0  0  0  0  0  0
  -24.2817  -12.4706   21.3616 C   0  0  0  0  0  0  0  0  0  0  0  0
  -26.6263  -30.6054   20.4654 C   0  0  0  0  0  0  0  0  0  0  0  0
  -24.1339  -13.2874   20.0819 C   0  0  0  0  0  0  0  0  0  0  0  0
  -27.6622  -29.4985   20.2609 C   0  0  0  0  0  0  0  0  0  0  0  0
  -25.2856  -30.0440   20.9337 C   0  0  0  0  0  0  0  0  0  0  0  0
  -25.7651  -27.8700   19.8767 C   0  0  0  0  0  0  0  0  0  0  0  0
  -25.4393  -14.0150   19.7380 C   0  0  1  0  0  0  0  0  0  0  0  0
  -25.3271  -17.4827   21.2858 C   0  0  1  0  0  0  0  0  0  0  0  0
  -27.1170  -28.3816   19.3506 C   0  0  2  0  0  0  0  0  0  0  0  0
  -22.0886  -28.8812   16.5427 C   0  0  0  0  0  0  0  0  0  0  0  0
  -20.9149  -20.0528   27.1108 C   0  0  0  0  0  0  0  0  0  0  0  0
  -21.2966  -15.4791   22.3352 C   0  0  0  0  0  0  0  0  0  0  0  0
  -19.9404  -16.6390   24.0912 C   0  0  0  0  0  0  0  0  0  0  0  0
  -21.9823  -15.3599   24.7373 C   0  0  0  0  0  0  0  0  0  0  0  0
  -23.7190  -21.9514   25.3762 C   0  0  0  0  0  0  0  0  0  0  0  0
  -22.5181  -23.7007   15.7614 C   0  0  0  0  0  0  0  0  0  0  0  0
  -23.5402  -22.8963   16.5572 C   0  0  0  0  0  0  0  0  0  1  0  0
  -21.9555  -28.0683   17.8399 C   0  0  2  0  0  0  0  0  0  0  0  0
  -22.2327  -17.5674   23.5305 C   0  0  1  0  0  0  0  0  0  0  0  0
  -22.1590  -20.2073   26.2499 C   0  0  2  0  0  0  0  0  0  0  0  0
  -21.3752  -16.2762   23.6525 C   0  0  0  0  0  0  0  0  0  0  0  0
  -19.7970  -25.0176   17.9972 N   0  0  0  0  0  0  0  0  0  0  0  0
  -28.0752  -26.2080   20.0141 N   0  0  0  0  0  0  0  0  0  0  0  0
  -22.1947  -25.8780   16.8240 N   0  0  0  0  0  0  0  0  0  0  0  0
  -28.1235  -27.2591   19.1779 N   0  0  0  0  0  0  0  0  0  0  0  0
  -24.0481  -17.8798   21.8781 N   0  0  0  0  0  0  0  0  0  0  0  0
  -24.8235  -28.9906   20.0268 N   0  0  0  0  0  0  0  0  0  0  0  0
  -29.3025  -28.1458   17.3247 N   0  0  0  0  0  0  0  0  0  0  0  0
  -31.4140  -24.2353   18.1287 N   0  0  0  0  0  0  0  0  0  0  0  0
  -25.6003  -15.1859   20.5732 N   0  0  0  0  0  0  0  0  0  0  0  0
  -22.3470  -18.3282   24.7701 N   0  0  0  0  0  0  0  0  0  0  0  0
  -23.2115  -28.0779   18.5563 N   0  0  0  0  0  0  0  0  0  0  0  0
  -22.5012  -21.6558   26.1740 N   0  3  0  0  0  0  0  0  0  0  0  0
  -31.3872  -26.0956   16.7881 O   0  0  0  0  0  0  0  0  0  0  0  0
  -24.3300  -16.6700   19.3058 O   0  0  0  0  0  0  0  0  0  0  0  0
  -24.3648  -16.5563   23.7713 O   0  0  0  0  0  0  0  0  0  0  0  0
  -21.4553  -20.3015   23.9406 O   0  0  0  0  0  0  0  0  0  0  0  0
  -22.8283  -30.0886   19.5893 O   0  0  0  0  0  0  0  0  0  0  0  0
  -30.1549  -20.5759   22.1360 O   0  0  0  0  0  0  0  0  0  0  0  0
  -22.8709  -22.0900   17.5258 O   0  0  0  0  0  0  0  0  0  1  0  0
  -31.0855  -16.1700   18.9539 F   0  0  0  0  0  0  0  0  0  0  0  0
  -28.5402  -18.3382   22.3044 F   0  0  0  0  0  0  0  0  0  0  0  0
  1  2  1  0  0  0  0
  1  5  2  0  0  0  0
  2  6  2  0  0  0  0
  3  8  2  0  0  0  0
  3 17  1  0  0  0  0
  4  9  1  0  0  0  0
  4 17  2  0  0  0  0
  5 19  1  0  0  0  0
  6 21  1  0  0  0  0
  7 10  2  0  0  0  0
  7 20  1  0  0  0  0
  8 23  1  0  0  0  0
  9 23  2  0  0  0  0
 10 24  1  0  0  0  0
 11 12  2  0  0  0  0
 11 25  1  0  0  0  0
 12 26  1  0  0  0  0
 13 22  1  0  0  0  0
 13 24  2  0  0  0  0
 14 26  2  0  0  0  0
 14 27  1  0  0  0  0
 15 29  1  0  0  0  0
 15 61  2  0  0  0  0
 16 30  2  0  0  0  0
 16 61  1  0  0  0  0
 17 28  1  0  0  0  0
 18 28  1  0  0  0  0
 18 31  2  0  0  0  0
 18 32  1  0  0  0  0
 19 21  2  0  0  0  0
 19 37  1  0  0  0  0
 20 22  2  0  0  0  0
 20 38  1  0  0  0  0
 21 46  1  0  0  0  0
 22 39  1  0  0  0  0
 23 78  1  0  0  0  0
 24 79  1  0  0  0  0
 25 27  2  0  0  0  0
 25 78  1  0  0  0  0
 26 80  1  0  0  0  0
 27 81  1  0  0  0  0
 28 62  2  0  0  0  0
 29 55  1  0  0  0  0
 29 63  2  0  0  0  0
 30 57  1  0  0  0  0
 30 63  1  0  0  0  0
 31 64  1  0  0  0  0
 31 67  1  0  0  0  0
 32 68  1  0  0  0  0
 32 73  2  0  0  0  0
 33 47  1  0  0  0  0
 33 69  1  0  0  0  0
 33 74  2  0  0  0  0
 34 58  1  0  0  0  0
 34 65  1  0  0  0  0
 34 75  2  0  0  0  0
 35 59  1  0  0  0  0
 35 70  1  0  0  0  0
 35 76  2  0  0  0  0
 36 66  1  0  0  0  0
 36 71  1  0  0  0  0
 36 77  2  0  0  0  0
 37 40  1  0  0  0  0
 38 47  1  0  0  0  0
 39 65  1  0  0  0  0
 40 42  1  0  0  0  0
 41 43  1  0  0  0  0
 41 44  1  0  0  0  0
 42 46  1  0  0  0  0
 43 48  1  0  0  0  0
 44 66  1  0  0  0  0
 45 48  1  0  0  0  0
 45 66  1  0  0  0  0
 46 69  1  0  0  0  0
 47 65  1  0  0  0  0
 48 64  1  0  0  0  0
 49 57  1  0  0  0  0
 50 59  1  0  0  0  0
 51 60  1  0  0  0  0
 52 60  1  0  0  0  0
 53 60  1  0  0  0  0
 54 72  1  0  0  0  0
 55 56  1  0  0  0  0
 56 79  1  0  0  0  0
 57 71  1  0  0  0  0
 58 60  1  0  0  0  0
 58 70  1  0  0  0  0
 59 72  1  0  0  0  0
 62 64  1  0  0  0  0
M  CHG  1  72   1
M  ISO  4  36 100  56 101  71 100  79 101
M  END
> <Batch ID>
0054

> <Smiles>
CNC(C)C(=O)NC(C(=O)N1Cc2cc([101O:1][101CH2:1]Cc3cncc(C(C)[100NH:0][100C:0](=O)N4CCCC(n5nc(-c6ccc(Oc7ccc(F)cc7F)cc6)c(C(N)=O)c5N)C4)n3)ccc2CC1C(=O)NC1CCCc2ccccc21)C(C)(C)C

> <Shape>
0.189

> <Color>
0.059

> <Negative vol penalty>
0.000

$$$$

  -OEChem-04052317413D

 84 92  0     1  0  0  0  0  0999 V2000
  -26.1196  -24.0452   29.0060 C   0  0  0  0  0  0  0  0  0  0  0  0
  -26.4730  -22.9305   28.2524 C   0  0  0  0  0  0  0  0  0  0  0  0
  -23.1194   -9.8755   19.9481 C   0  0  0  0  0  0  0  0  0  0  0  0
  -23.9154   -9.8949   22.2291 C   0  0  0  0  0  0  0  0  0  0  0  0
  -25.0411  -23.9763   29.8870 C   0  0  0  0  0  0  0  0  0  0  0  0
  -25.7488  -21.7458   28.3803 C   0  0  0  0  0  0  0  0  0  0  0  0
  -24.5186  -17.6879   23.9614 C   0  0  0  0  0  0  0  0  0  0  0  0
  -22.4050   -8.7059   20.2073 C   0  0  0  0  0  0  0  0  0  0  0  0
  -23.2010   -8.7253   22.4884 C   0  0  0  0  0  0  0  0  0  0  0  0
  -25.1133  -16.4776   23.6073 C   0  0  0  0  0  0  0  0  0  0  0  0
  -20.0010   -7.8559   23.1404 C   0  0  0  0  0  0  0  0  0  0  0  0
  -19.2639   -7.7973   24.3231 C   0  0  0  0  0  0  0  0  0  0  0  0
  -23.4602  -15.2928   24.9045 C   0  0  0  0  0  0  0  0  0  0  0  0
  -20.5590   -5.8861   25.0355 C   0  0  0  0  0  0  0  0  0  0  0  0
  -28.7594  -16.4956   25.3384 C   0  0  0  0  0  0  0  0  0  0  0  0
  -23.8747  -10.4700   20.9590 C   0  0  0  0  0  0  0  0  0  0  0  0
  -24.1592  -13.0022   20.8390 C   0  0  0  0  0  0  0  0  0  0  0  0
  -24.2974  -22.7930   30.0186 C   0  0  0  0  0  0  0  0  0  0  0  0
  -23.3949  -17.7104   24.8000 C   0  0  0  0  0  0  0  0  0  0  0  0
  -24.6602  -21.6605   29.2648 C   0  0  0  0  0  0  0  0  0  0  0  0
  -22.8516  -16.5045   25.2657 C   0  0  0  0  0  0  0  0  0  0  0  0
  -22.4457   -8.1308   21.4774 C   0  0  0  0  0  0  0  0  0  0  0  0
  -24.5858  -15.2800   24.0812 C   0  0  0  0  0  0  0  0  0  0  0  0
  -21.0171   -6.9296   22.9052 C   0  0  0  0  0  0  0  0  0  0  0  0
  -19.5429   -6.8124   25.2707 C   0  0  0  0  0  0  0  0  0  0  0  0
  -21.2961   -5.9447   23.8527 C   0  0  0  0  0  0  0  0  0  0  0  0
  -24.6133  -11.6779   20.6916 C   0  0  0  0  0  0  0  0  0  0  0  0
  -25.2288  -13.7761   20.4600 C   0  0  0  0  0  0  0  0  0  0  0  0
  -30.0625  -16.3258   23.7166 C   0  0  0  0  0  0  0  0  0  0  0  0
  -22.8846  -13.4894   21.2792 C   0  0  0  0  0  0  0  0  0  0  0  0
  -22.7617  -18.9210   27.6700 C   0  0  0  0  0  0  0  0  0  0  0  0
  -19.7498  -17.9225   26.9967 C   0  0  0  0  0  0  0  0  0  0  0  0
  -17.7213  -15.8139   25.2400 C   0  0  0  0  0  0  0  0  0  0  0  0
  -30.8270  -14.6103   20.9904 C   0  0  0  0  0  0  0  0  0  0  0  0
  -23.1692  -22.7522   31.0187 C   0  0  0  0  0  0  0  0  0  0  0  0
  -22.7491  -19.0227   25.1510 C   0  0  0  0  0  0  0  0  0  0  0  0
  -21.6344  -16.4732   26.1522 C   0  0  0  0  0  0  0  0  0  0  0  0
  -22.2207  -21.5729   30.8191 C   0  0  0  0  0  0  0  0  0  0  0  0
  -29.5673  -12.5432   18.1901 C   0  0  0  0  0  0  0  0  0  0  0  0
  -23.0086  -20.2829   30.6139 C   0  0  0  0  0  0  0  0  0  0  0  0
  -28.1531  -12.1893   18.6472 C   0  0  0  0  0  0  0  0  0  0  0  0
  -30.5039  -12.7752   19.3718 C   0  0  0  0  0  0  0  0  0  0  0  0
  -28.5958  -13.4364   20.7988 C   0  0  0  0  0  0  0  0  0  0  0  0
  -23.8837  -20.3649   29.3573 C   0  0  1  0  0  0  0  0  0  0  0  0
  -21.9170  -18.9565   26.4279 C   0  0  1  0  0  0  0  0  0  0  0  0
  -27.6155  -13.2418   19.6324 C   0  0  2  0  0  0  0  0  0  0  0  0
  -30.4021  -17.6281   19.6012 C   0  0  0  0  0  0  0  0  0  0  0  0
  -15.3060  -15.2076   24.9296 C   0  0  0  0  0  0  0  0  0  0  0  0
  -19.7876  -16.4219   29.6532 C   0  0  0  0  0  0  0  0  0  0  0  0
  -17.8074  -15.1106   28.8610 C   0  0  0  0  0  0  0  0  0  0  0  0
  -17.6325  -17.5832   29.1416 C   0  0  0  0  0  0  0  0  0  0  0  0
  -17.7837  -16.5531   22.3749 C   0  0  0  0  0  0  0  0  0  0  0  0
  -30.8654  -16.5462   22.5170 C   0  0  0  0  0  0  0  0  0  0  0  0
  -27.5925  -12.8530   24.7995 C   0  0  0  0  0  0  0  0  0  0  0  0
  -27.6426  -13.4385   26.2122 C   0  0  0  0  0  0  0  0  0  0  0  0
  -26.2757  -12.1112   24.5524 C   0  0  0  0  0  0  0  0  0  0  0  0
  -28.9748  -14.1448   26.4733 C   0  0  0  0  0  0  0  0  0  0  0  0
  -29.5352  -16.7170   20.4464 C   0  0  0  0  0  0  0  0  0  0  0  0
  -25.0651  -13.0282   24.6775 C   0  0  0  0  0  0  0  0  0  1  0  0
  -18.9730  -16.6463   27.2135 C   0  0  1  0  0  0  0  0  0  0  0  0
  -16.4589  -16.0678   24.4360 C   0  0  2  0  0  0  0  0  0  0  0  0
  -18.5742  -16.4409   28.7022 C   0  0  0  0  0  0  0  0  0  0  0  0
  -29.2469  -17.1928   24.2703 N   0  0  0  0  0  0  0  0  0  0  0  0
  -25.8731  -11.6105   20.2531 N   0  0  0  0  0  0  0  0  0  0  0  0
  -30.0534  -15.1683   24.4307 N   0  0  0  0  0  0  0  0  0  0  0  0
  -29.2220  -15.2518   25.4805 N   0  0  0  0  0  0  0  0  0  0  0  0
  -26.2198  -12.9023   20.1215 N   0  0  0  0  0  0  0  0  0  0  0  0
  -21.0426  -17.7827   26.4725 N   0  0  0  0  0  0  0  0  0  0  0  0
  -29.9489  -13.7476   20.3141 N   0  0  0  0  0  0  0  0  0  0  0  0
  -25.4089  -15.1120   20.3866 N   0  0  0  0  0  0  0  0  0  0  0  0
  -21.8983  -12.5576   21.6305 N   0  0  0  0  0  0  0  0  0  0  0  0
  -23.0813  -20.1694   28.1689 N   0  0  0  0  0  0  0  0  0  0  0  0
  -17.8420  -16.6955   26.2933 N   0  0  0  0  0  0  0  0  0  0  0  0
  -30.3377  -15.8793   21.3351 N   0  0  0  0  0  0  0  0  0  0  0  0
  -16.6912  -15.7610   22.9963 N   0  3  0  0  0  0  0  0  0  0  0  0
  -22.6225  -14.7144   21.3430 O   0  0  0  0  0  0  0  0  0  0  0  0
  -23.0974  -17.8410   28.1417 O   0  0  0  0  0  0  0  0  0  0  0  0
  -19.2260  -19.0040   27.2752 O   0  0  0  0  0  0  0  0  0  0  0  0
  -18.5185  -14.9203   24.9636 O   0  0  0  0  0  0  0  0  0  0  0  0
  -31.9855  -14.2695   21.2616 O   0  0  0  0  0  0  0  0  0  0  0  0
  -21.7485   -6.9896   21.7308 O   0  0  0  0  0  0  0  0  0  0  0  0
  -25.1647  -14.0973   23.7376 O   0  0  0  0  0  0  0  0  0  1  0  0
  -18.8360   -6.7572   26.4070 F   0  0  0  0  0  0  0  0  0  0  0  0
  -22.2718   -5.0528   23.6329 F   0  0  0  0  0  0  0  0  0  0  0  0
  1  2  1  0  0  0  0
  1  5  2  0  0  0  0
  2  6  2  0  0  0  0
  3  8  2  0  0  0  0
  3 16  1  0  0  0  0
  4  9  1  0  0  0  0
  4 16  2  0  0  0  0
  5 18  1  0  0  0  0
  6 20  1  0  0  0  0
  7 10  2  0  0  0  0
  7 19  1  0  0  0  0
  8 22  1  0  0  0  0
  9 22  2  0  0  0  0
 10 23  1  0  0  0  0
 11 12  2  0  0  0  0
 11 24  1  0  0  0  0
 12 25  1  0  0  0  0
 13 21  1  0  0  0  0
 13 23  2  0  0  0  0
 14 25  2  0  0  0  0
 14 26  1  0  0  0  0
 15 63  2  0  0  0  0
 15 66  1  0  0  0  0
 16 27  1  0  0  0  0
 17 27  1  0  0  0  0
 17 28  2  0  0  0  0
 17 30  1  0  0  0  0
 18 20  2  0  0  0  0
 18 35  1  0  0  0  0
 19 21  2  0  0  0  0
 19 36  1  0  0  0  0
 20 44  1  0  0  0  0
 21 37  1  0  0  0  0
 22 81  1  0  0  0  0
 23 82  1  0  0  0  0
 24 26  2  0  0  0  0
 24 81  1  0  0  0  0
 25 83  1  0  0  0  0
 26 84  1  0  0  0  0
 27 64  2  0  0  0  0
 28 67  1  0  0  0  0
 28 70  1  0  0  0  0
 29 53  1  0  0  0  0
 29 63  1  0  0  0  0
 29 65  2  0  0  0  0
 30 71  1  0  0  0  0
 30 76  2  0  0  0  0
 31 45  1  0  0  0  0
 31 72  1  0  0  0  0
 31 77  2  0  0  0  0
 32 60  1  0  0  0  0
 32 68  1  0  0  0  0
 32 78  2  0  0  0  0
 33 61  1  0  0  0  0
 33 73  1  0  0  0  0
 33 79  2  0  0  0  0
 34 69  1  0  0  0  0
 34 74  1  0  0  0  0
 34 80  2  0  0  0  0
 35 38  1  0  0  0  0
 36 45  1  0  0  0  0
 37 68  1  0  0  0  0
 38 40  1  0  0  0  0
 39 41  1  0  0  0  0
 39 42  1  0  0  0  0
 40 44  1  0  0  0  0
 41 46  1  0  0  0  0
 42 69  1  0  0  0  0
 43 46  1  0  0  0  0
 43 69  1  0  0  0  0
 44 72  1  0  0  0  0
 45 68  1  0  0  0  0
 46 67  1  0  0  0  0
 47 58  1  0  0  0  0
 48 61  1  0  0  0  0
 49 62  1  0  0  0  0
 50 62  1  0  0  0  0
 51 62  1  0  0  0  0
 52 75  1  0  0  0  0
 53 74  1  0  0  0  0
 54 55  1  0  0  0  0
 54 56  1  0  0  0  0
 55 57  1  0  0  0  0
 56 59  1  0  0  0  0
 57 66  1  0  0  0  0
 58 74  1  0  0  0  0
 59 82  1  0  0  0  0
 60 62  1  0  0  0  0
 60 73  1  0  0  0  0
 61 75  1  0  0  0  0
 64 67  1  0  0  0  0
 65 66  1  0  0  0  0
M  CHG  1  75   1
M  ISO  4  34 100  59 101  74 100  82 101
M  END
> <Batch ID>
0054

> <Smiles>
CC[100N:0](Cc1ncn(CCCC[101CH2:1][101O:1]c2ccc3c(c2)CN(C(=O)C(NC(=O)C(C)NC)C(C)(C)C)C(C(=O)NC2CCCc4ccccc42)C3)n1)[100C:0](=O)N1CCCC(n2nc(-c3ccc(Oc4ccc(F)cc4F)cc3)c(C(N)=O)c2N)C1

> <Shape>
0.173

> <Color>
0.177

> <Negative vol penalty>
0.000

$$$$

  -OEChem-04052317413D

 83 91  0     1  0  0  0  0  0999 V2000
  -27.5350  -33.9001   26.0852 C   0  0  0  0  0  0  0  0  0  0  0  0
  -27.7757  -32.6837   25.4544 C   0  0  0  0  0  0  0  0  0  0  0  0
  -25.1518  -14.8994   21.0115 C   0  0  0  0  0  0  0  0  0  0  0  0
  -27.5261  -14.4547   21.0544 C   0  0  0  0  0  0  0  0  0  0  0  0
  -26.2286  -34.2784   26.3922 C   0  0  0  0  0  0  0  0  0  0  0  0
  -26.7101  -31.8443   25.1312 C   0  0  0  0  0  0  0  0  0  0  0  0
  -27.0854  -29.9417   20.4532 C   0  0  0  0  0  0  0  0  0  0  0  0
  -24.9058  -13.5579   20.7191 C   0  0  0  0  0  0  0  0  0  0  0  0
  -27.2801  -13.1131   20.7621 C   0  0  0  0  0  0  0  0  0  0  0  0
  -27.9691  -28.8796   20.2668 C   0  0  0  0  0  0  0  0  0  0  0  0
  -24.7819  -10.6250   22.3971 C   0  0  0  0  0  0  0  0  0  0  0  0
  -23.7621   -9.9846   23.1010 C   0  0  0  0  0  0  0  0  0  0  0  0
  -26.1190  -27.3338   20.3483 C   0  0  0  0  0  0  0  0  0  0  0  0
  -22.6116   -9.5345   21.0247 C   0  0  0  0  0  0  0  0  0  0  0  0
  -30.9992  -25.2608   18.4383 C   0  0  0  0  0  0  0  0  0  0  0  0
  -26.4620  -15.3478   21.1790 C   0  0  0  0  0  0  0  0  0  0  0  0
  -26.8045  -17.3240   22.7554 C   0  0  0  0  0  0  0  0  0  0  0  0
  -25.1457  -33.4476   26.0639 C   0  0  0  0  0  0  0  0  0  0  0  0
  -25.7107  -29.7065   20.5997 C   0  0  0  0  0  0  0  0  0  0  0  0
  -25.3881  -32.2113   25.4354 C   0  0  0  0  0  0  0  0  0  0  0  0
  -25.2196  -28.3948   20.5338 C   0  0  0  0  0  0  0  0  0  0  0  0
  -30.5067  -25.5900   19.6846 C   0  0  0  0  0  0  0  0  0  0  0  0
  -25.9699  -12.6648   20.5945 C   0  0  0  0  0  0  0  0  0  0  0  0
  -27.4863  -27.5751   20.2172 C   0  0  0  0  0  0  0  0  0  0  0  0
  -24.7166  -10.7202   21.0070 C   0  0  0  0  0  0  0  0  0  0  0  0
  -22.6770   -9.4393   22.4149 C   0  0  0  0  0  0  0  0  0  0  0  0
  -23.6314  -10.1749   20.3208 C   0  0  0  0  0  0  0  0  0  0  0  0
  -26.7168  -16.7336   21.4805 C   0  0  0  0  0  0  0  0  0  0  0  0
  -30.7758  -24.6851   20.6911 C   0  0  0  0  0  0  0  0  0  0  0  0
  -27.0583  -18.6501   22.5029 C   0  0  0  0  0  0  0  0  0  0  0  0
  -31.8983  -23.3358   19.2466 C   0  0  0  0  0  0  0  0  0  0  0  0
  -26.6688  -16.7272   24.0520 C   0  0  0  0  0  0  0  0  0  0  0  0
  -23.5799  -30.2205   22.9016 C   0  0  0  0  0  0  0  0  0  0  0  0
  -21.4809  -29.1928   20.6520 C   0  0  0  0  0  0  0  0  0  0  0  0
  -20.9353  -27.3849   17.8094 C   0  0  0  0  0  0  0  0  0  0  0  0
  -29.5610  -21.5140   17.8785 C   0  0  0  0  0  0  0  0  0  0  0  0
  -23.7551  -33.8778   26.4584 C   0  0  0  0  0  0  0  0  0  0  0  0
  -24.7675  -30.8652   20.7733 C   0  0  0  0  0  0  0  0  0  0  0  0
  -23.7504  -28.0906   20.6653 C   0  0  0  0  0  0  0  0  0  0  0  0
  -22.6517  -33.1007   25.7450 C   0  0  0  0  0  0  0  0  0  0  0  0
  -26.3060  -22.0473   19.2191 C   0  0  0  0  0  0  0  0  0  0  0  0
  -22.9466  -31.6044   25.7767 C   0  0  0  0  0  0  0  0  0  0  0  0
  -26.0501  -20.7992   20.0657 C   0  0  0  0  0  0  0  0  0  0  0  0
  -27.0934  -21.7185   17.9526 C   0  0  0  0  0  0  0  0  0  0  0  0
  -28.0993  -19.7413   19.0263 C   0  0  0  0  0  0  0  0  0  0  0  0
  -24.2566  -31.2847   25.0464 C   0  0  1  0  0  0  0  0  0  0  0  0
  -23.4468  -30.4681   21.4256 C   0  0  1  0  0  0  0  0  0  0  0  0
  -27.3568  -20.0314   20.3419 C   0  0  2  0  0  0  0  0  0  0  0  0
  -30.2925  -24.9368   22.0813 C   0  0  0  0  0  0  0  0  0  0  0  0
  -19.1090  -26.7004   16.2303 C   0  0  0  0  0  0  0  0  0  0  0  0
  -32.8858  -21.1690   20.2596 C   0  0  0  0  0  0  0  0  0  0  0  0
  -34.1156  -22.4226   18.5069 C   0  0  0  0  0  0  0  0  0  0  0  0
  -20.4816  -27.1576   22.6939 C   0  0  0  0  0  0  0  0  0  0  0  0
  -19.3793  -25.9201   20.8172 C   0  0  0  0  0  0  0  0  0  0  0  0
  -18.6819  -28.2555   21.3484 C   0  0  0  0  0  0  0  0  0  0  0  0
  -22.2483  -28.7306   15.5238 C   0  0  0  0  0  0  0  0  0  0  0  0
  -29.7314  -26.8557   19.9041 C   0  0  0  0  0  0  0  0  0  1  0  0
  -32.0197  -21.1767   17.8991 C   0  0  0  0  0  0  0  0  0  0  0  0
  -20.9209  -27.8510   20.2460 C   0  0  1  0  0  0  0  0  0  0  0  0
  -20.1954  -27.7222   16.5275 C   0  0  2  0  0  0  0  0  0  0  0  0
  -32.6718  -22.0841   19.0036 C   0  0  0  0  0  0  0  0  0  0  0  0
  -19.8939  -27.3013   21.2758 C   0  0  0  0  0  0  0  0  0  0  0  0
  -31.7018  -24.1376   18.1827 N   0  0  0  0  0  0  0  0  0  0  0  0
  -26.8998  -17.6125   20.4915 N   0  0  0  0  0  0  0  0  0  0  0  0
  -31.4711  -23.5436   20.5067 N   0  0  0  0  0  0  0  0  0  0  0  0
  -27.1050  -18.7687   21.1450 N   0  0  0  0  0  0  0  0  0  0  0  0
  -22.8689  -29.2568   20.8398 N   0  0  0  0  0  0  0  0  0  0  0  0
  -28.3216  -20.9921   18.2841 N   0  0  0  0  0  0  0  0  0  0  0  0
  -27.2438  -19.7145   23.3122 N   0  0  0  0  0  0  0  0  0  0  0  0
  -26.4091  -15.3522   24.1307 N   0  0  0  0  0  0  0  0  0  0  0  0
  -24.0546  -31.3055   23.6135 N   0  0  0  0  0  0  0  0  0  0  0  0
  -20.3841  -28.0230   18.9003 N   0  0  0  0  0  0  0  0  0  0  0  0
  -30.6754  -20.7664   18.2389 N   0  0  0  0  0  0  0  0  0  0  0  0
  -21.1409  -27.7514   15.3760 N   0  3  0  0  0  0  0  0  0  0  0  0
  -26.7584  -17.3966   25.1091 O   0  0  0  0  0  0  0  0  0  0  0  0
  -23.2730  -29.1265   23.3608 O   0  0  0  0  0  0  0  0  0  0  0  0
  -20.7160  -30.1506   20.7902 O   0  0  0  0  0  0  0  0  0  0  0  0
  -21.9030  -26.6278   17.8404 O   0  0  0  0  0  0  0  0  0  0  0  0
  -29.6670  -22.5708   17.2469 O   0  0  0  0  0  0  0  0  0  0  0  0
  -25.7302  -11.3556   20.3095 O   0  0  0  0  0  0  0  0  0  0  0  0
  -28.3468  -26.5366   20.0360 O   0  0  0  0  0  0  0  0  0  1  0  0
  -21.6985   -8.8230   23.0908 F   0  0  0  0  0  0  0  0  0  0  0  0
  -23.5637  -10.2623   18.9853 F   0  0  0  0  0  0  0  0  0  0  0  0
  1  2  1  0  0  0  0
  1  5  2  0  0  0  0
  2  6  2  0  0  0  0
  3  8  2  0  0  0  0
  3 16  1  0  0  0  0
  4  9  1  0  0  0  0
  4 16  2  0  0  0  0
  5 18  1  0  0  0  0
  6 20  1  0  0  0  0
  7 10  2  0  0  0  0
  7 19  1  0  0  0  0
  8 23  1  0  0  0  0
  9 23  2  0  0  0  0
 10 24  1  0  0  0  0
 11 12  2  0  0  0  0
 11 25  1  0  0  0  0
 12 26  1  0  0  0  0
 13 21  1  0  0  0  0
 13 24  2  0  0  0  0
 14 26  2  0  0  0  0
 14 27  1  0  0  0  0
 15 22  1  0  0  0  0
 15 63  2  0  0  0  0
 16 28  1  0  0  0  0
 17 28  1  0  0  0  0
 17 30  2  0  0  0  0
 17 32  1  0  0  0  0
 18 20  2  0  0  0  0
 18 37  1  0  0  0  0
 19 21  2  0  0  0  0
 19 38  1  0  0  0  0
 20 46  1  0  0  0  0
 21 39  1  0  0  0  0
 22 29  2  0  0  0  0
 22 57  1  0  0  0  0
 23 80  1  0  0  0  0
 24 81  1  0  0  0  0
 25 27  2  0  0  0  0
 25 80  1  0  0  0  0
 26 82  1  0  0  0  0
 27 83  1  0  0  0  0
 28 64  2  0  0  0  0
 29 49  1  0  0  0  0
 29 65  1  0  0  0  0
 30 66  1  0  0  0  0
 30 69  1  0  0  0  0
 31 61  1  0  0  0  0
 31 63  1  0  0  0  0
 31 65  2  0  0  0  0
 32 70  1  0  0  0  0
 32 75  2  0  0  0  0
 33 47  1  0  0  0  0
 33 71  1  0  0  0  0
 33 76  2  0  0  0  0
 34 59  1  0  0  0  0
 34 67  1  0  0  0  0
 34 77  2  0  0  0  0
 35 60  1  0  0  0  0
 35 72  1  0  0  0  0
 35 78  2  0  0  0  0
 36 68  1  0  0  0  0
 36 73  1  0  0  0  0
 36 79  2  0  0  0  0
 37 40  1  0  0  0  0
 38 47  1  0  0  0  0
 39 67  1  0  0  0  0
 40 42  1  0  0  0  0
 41 43  1  0  0  0  0
 41 44  1  0  0  0  0
 42 46  1  0  0  0  0
 43 48  1  0  0  0  0
 44 68  1  0  0  0  0
 45 48  1  0  0  0  0
 45 68  1  0  0  0  0
 46 71  1  0  0  0  0
 47 67  1  0  0  0  0
 48 66  1  0  0  0  0
 50 60  1  0  0  0  0
 51 61  1  0  0  0  0
 52 61  1  0  0  0  0
 53 62  1  0  0  0  0
 54 62  1  0  0  0  0
 55 62  1  0  0  0  0
 56 74  1  0  0  0  0
 57 81  1  0  0  0  0
 58 61  1  0  0  0  0
 58 73  1  0  0  0  0
 59 62  1  0  0  0  0
 59 72  1  0  0  0  0
 60 74  1  0  0  0  0
 64 66  1  0  0  0  0
M  CHG  1  74   1
M  ISO  4  36 100  57 101  73 100  81 101
M  END
> <Batch ID>
0054

> <Smiles>
CNC(C)C(=O)NC(C(=O)N1Cc2cc([101O:1][101CH2:1]c3cnc(C(C)(C)C[100NH:0][100C:0](=O)N4CCCC(n5nc(-c6ccc(Oc7ccc(F)cc7F)cc6)c(C(N)=O)c5N)C4)nc3C)ccc2CC1C(=O)NC1CCCc2ccccc21)C(C)(C)C

> <Shape>
0.273

> <Color>
0.079

> <Negative vol penalty>
0.000

$$$$

  -OEChem-04052317413D

 81 89  0     1  0  0  0  0  0999 V2000
  -22.2035  -11.8398   19.2762 C   0  0  0  0  0  0  0  0  0  0  0  0
  -21.9503  -13.1952   19.4618 C   0  0  0  0  0  0  0  0  0  0  0  0
  -29.3165  -28.7659   21.9235 C   0  0  0  0  0  0  0  0  0  0  0  0
  -28.3543  -26.6205   22.4788 C   0  0  0  0  0  0  0  0  0  0  0  0
  -23.4220  -11.2974   19.6823 C   0  0  0  0  0  0  0  0  0  0  0  0
  -22.9152  -14.0087   20.0546 C   0  0  0  0  0  0  0  0  0  0  0  0
  -23.5139  -18.4061   17.6154 C   0  0  0  0  0  0  0  0  0  0  0  0
  -30.3568  -28.5322   22.8228 C   0  0  0  0  0  0  0  0  0  0  0  0
  -29.3947  -26.3867   23.3781 C   0  0  0  0  0  0  0  0  0  0  0  0
  -22.5550  -19.3934   17.8381 C   0  0  0  0  0  0  0  0  0  0  0  0
  -32.6257  -25.4053   23.2460 C   0  0  0  0  0  0  0  0  0  0  0  0
  -33.2272  -24.1470   23.2260 C   0  0  0  0  0  0  0  0  0  0  0  0
  -24.0433  -20.4790   19.3955 C   0  0  0  0  0  0  0  0  0  0  0  0
  -32.5938  -23.8075   25.5327 C   0  0  0  0  0  0  0  0  0  0  0  0
  -21.0255  -24.7146   19.7332 C   0  0  0  0  0  0  0  0  0  0  0  0
  -19.0666  -23.9810   20.4268 C   0  0  0  0  0  0  0  0  0  0  0  0
  -28.3153  -27.8101   21.7515 C   0  0  0  0  0  0  0  0  0  0  0  0
  -27.2047  -27.7133   19.4569 C   0  0  0  0  0  0  0  0  0  0  0  0
  -24.4061  -12.1067   20.2716 C   0  0  0  0  0  0  0  0  0  0  0  0
  -24.7425  -18.4419   18.2905 C   0  0  0  0  0  0  0  0  0  0  0  0
  -24.1476  -13.4764   20.4702 C   0  0  0  0  0  0  0  0  0  0  0  0
  -25.0171  -19.4923   19.1777 C   0  0  0  0  0  0  0  0  0  0  0  0
  -30.3959  -27.3426   23.5500 C   0  0  0  0  0  0  0  0  0  0  0  0
  -22.8185  -20.4284   18.7304 C   0  0  0  0  0  0  0  0  0  0  0  0
  -32.0084  -25.8648   24.4094 C   0  0  0  0  0  0  0  0  0  0  0  0
  -33.2112  -23.3480   24.3693 C   0  0  0  0  0  0  0  0  0  0  0  0
  -31.9923  -25.0659   25.5527 C   0  0  0  0  0  0  0  0  0  0  0  0
  -27.2401  -28.0513   20.8231 C   0  0  0  0  0  0  0  0  0  0  0  0
  -21.0602  -23.3669   20.0035 C   0  0  0  0  0  0  0  0  0  0  0  0
  -25.9763  -28.1518   19.0264 C   0  0  0  0  0  0  0  0  0  0  0  0
  -28.1937  -27.0612   18.6493 C   0  0  0  0  0  0  0  0  0  0  0  0
  -26.2288  -16.5269   20.3465 C   0  0  0  0  0  0  0  0  0  0  0  0
  -28.6636  -18.6329   19.9476 C   0  0  0  0  0  0  0  0  0  0  0  0
  -29.6580  -21.7842   19.0947 C   0  0  0  0  0  0  0  0  0  0  0  0
  -20.7800  -29.1263   21.8371 C   0  0  0  0  0  0  0  0  0  0  0  0
  -25.6895  -11.4659   20.7375 C   0  0  0  0  0  0  0  0  0  0  0  0
  -25.7767  -17.3840   18.0191 C   0  0  0  0  0  0  0  0  0  0  0  0
  -26.3285  -19.5876   19.9123 C   0  0  0  0  0  0  0  0  0  0  0  0
  -26.8052  -12.4697   21.0163 C   0  0  0  0  0  0  0  0  0  0  0  0
  -22.6586  -31.4773   19.9343 C   0  0  0  0  0  0  0  0  0  0  0  0
  -26.2776  -13.6386   21.8423 C   0  0  0  0  0  0  0  0  0  0  0  0
  -24.0426  -30.8354   19.8230 C   0  0  0  0  0  0  0  0  0  0  0  0
  -22.0165  -31.2026   21.2923 C   0  0  0  0  0  0  0  0  0  0  0  0
  -23.3331  -29.1362   21.5574 C   0  0  0  0  0  0  0  0  0  0  0  0
  -25.1789  -14.3962   21.0870 C   0  0  1  0  0  0  0  0  0  0  0  0
  -26.7920  -17.2374   19.1482 C   0  0  1  0  0  0  0  0  0  0  0  0
  -23.9971  -29.3386   20.1847 C   0  0  2  0  0  0  0  0  0  0  0  0
  -31.7082  -23.2185   18.9021 C   0  0  0  0  0  0  0  0  0  0  0  0
  -18.0972  -26.4612   18.8216 C   0  0  0  0  0  0  0  0  0  0  0  0
  -28.7380  -18.9299   22.9834 C   0  0  0  0  0  0  0  0  0  0  0  0
  -30.0922  -21.0132   22.6767 C   0  0  0  0  0  0  0  0  0  0  0  0
  -30.9848  -18.8205   21.8905 C   0  0  0  0  0  0  0  0  0  0  0  0
  -29.2411  -22.1928   16.1933 C   0  0  0  0  0  0  0  0  0  0  0  0
  -22.2206  -22.4242   19.8774 C   0  0  0  0  0  0  0  0  0  1  0  0
  -18.6673  -26.9878   21.2253 C   0  0  0  0  0  0  0  0  0  0  0  0
  -19.6824  -26.9650   22.3688 C   0  0  0  0  0  0  0  0  0  0  0  0
  -29.0904  -19.9140   20.6226 C   0  0  1  0  0  0  0  0  0  0  0  0
  -30.7596  -22.2784   18.1746 C   0  0  2  0  0  0  0  0  0  0  0  0
  -19.1997  -26.4250   19.8879 C   0  0  1  0  0  0  0  0  0  0  0  0
  -29.7008  -19.6668   22.0311 C   0  0  0  0  0  0  0  0  0  0  0  0
  -19.8376  -22.9163   20.4346 N   0  0  0  0  0  0  0  0  0  0  0  0
  -26.1230  -28.6579   21.2333 N   0  0  0  0  0  0  0  0  0  0  0  0
  -19.7420  -25.0938   20.0087 N   0  0  0  0  0  0  0  0  0  0  0  0
  -25.3742  -28.7046   20.1183 N   0  0  0  0  0  0  0  0  0  0  0  0
  -27.3050  -18.5259   19.6179 N   0  0  0  0  0  0  0  0  0  0  0  0
  -22.0031  -29.7651   21.5741 N   0  0  0  0  0  0  0  0  0  0  0  0
  -25.3634  -28.1148   17.8242 N   0  0  0  0  0  0  0  0  0  0  0  0
  -29.3999  -26.6767   19.2507 N   0  0  0  0  0  0  0  0  0  0  0  0
  -25.7597  -15.2553   20.0776 N   0  0  0  0  0  0  0  0  0  0  0  0
  -29.9899  -20.5861   19.6912 N   0  0  0  0  0  0  0  0  0  0  0  0
  -20.8558  -27.7617   22.0879 N   0  0  0  0  0  0  0  0  0  0  0  0
  -30.1762  -23.0063   17.0124 N   0  3  0  0  0  0  0  0  0  0  0  0
  -28.0198  -26.8411   17.4267 O   0  0  0  0  0  0  0  0  0  0  0  0
  -26.2219  -17.0902   21.4348 O   0  0  0  0  0  0  0  0  0  0  0  0
  -29.5059  -17.7623   19.7148 O   0  0  0  0  0  0  0  0  0  0  0  0
  -28.6096  -22.4012   19.2699 O   0  0  0  0  0  0  0  0  0  0  0  0
  -19.6999  -29.7266   21.8424 O   0  0  0  0  0  0  0  0  0  0  0  0
  -31.4110  -27.1140   24.4275 O   0  0  0  0  0  0  0  0  0  0  0  0
  -21.8841  -21.3931   18.9501 O   0  0  0  0  0  0  0  0  0  1  0  0
  -33.7874  -22.1390   24.3494 F   0  0  0  0  0  0  0  0  0  0  0  0
  -31.3997  -25.5014   26.6729 F   0  0  0  0  0  0  0  0  0  0  0  0
  1  2  1  0  0  0  0
  1  5  2  0  0  0  0
  2  6  2  0  0  0  0
  3  8  2  0  0  0  0
  3 17  1  0  0  0  0
  4  9  1  0  0  0  0
  4 17  2  0  0  0  0
  5 19  1  0  0  0  0
  6 21  1  0  0  0  0
  7 10  2  0  0  0  0
  7 20  1  0  0  0  0
  8 23  1  0  0  0  0
  9 23  2  0  0  0  0
 10 24  1  0  0  0  0
 11 12  2  0  0  0  0
 11 25  1  0  0  0  0
 12 26  1  0  0  0  0
 13 22  1  0  0  0  0
 13 24  2  0  0  0  0
 14 26  2  0  0  0  0
 14 27  1  0  0  0  0
 15 29  2  0  0  0  0
 15 63  1  0  0  0  0
 16 61  2  0  0  0  0
 16 63  1  0  0  0  0
 17 28  1  0  0  0  0
 18 28  1  0  0  0  0
 18 30  2  0  0  0  0
 18 31  1  0  0  0  0
 19 21  2  0  0  0  0
 19 36  1  0  0  0  0
 20 22  2  0  0  0  0
 20 37  1  0  0  0  0
 21 45  1  0  0  0  0
 22 38  1  0  0  0  0
 23 78  1  0  0  0  0
 24 79  1  0  0  0  0
 25 27  2  0  0  0  0
 25 78  1  0  0  0  0
 26 80  1  0  0  0  0
 27 81  1  0  0  0  0
 28 62  2  0  0  0  0
 29 54  1  0  0  0  0
 29 61  1  0  0  0  0
 30 64  1  0  0  0  0
 30 67  1  0  0  0  0
 31 68  1  0  0  0  0
 31 73  2  0  0  0  0
 32 46  1  0  0  0  0
 32 69  1  0  0  0  0
 32 74  2  0  0  0  0
 33 57  1  0  0  0  0
 33 65  1  0  0  0  0
 33 75  2  0  0  0  0
 34 58  1  0  0  0  0
 34 70  1  0  0  0  0
 34 76  2  0  0  0  0
 35 66  1  0  0  0  0
 35 71  1  0  0  0  0
 35 77  2  0  0  0  0
 36 39  1  0  0  0  0
 37 46  1  0  0  0  0
 38 65  1  0  0  0  0
 39 41  1  0  0  0  0
 40 42  1  0  0  0  0
 40 43  1  0  0  0  0
 41 45  1  0  0  0  0
 42 47  1  0  0  0  0
 43 66  1  0  0  0  0
 44 47  1  0  0  0  0
 44 66  1  0  0  0  0
 45 69  1  0  0  0  0
 46 65  1  0  0  0  0
 47 64  1  0  0  0  0
 48 58  1  0  0  0  0
 49 59  1  0  0  0  0
 50 60  1  0  0  0  0
 51 60  1  0  0  0  0
 52 60  1  0  0  0  0
 53 72  1  0  0  0  0
 54 79  1  0  0  0  0
 55 56  1  0  0  0  0
 55 59  1  0  0  0  0
 56 71  1  0  0  0  0
 57 60  1  0  0  0  0
 57 70  1  0  0  0  0
 58 72  1  0  0  0  0
 59 63  1  0  0  0  0
 62 64  1  0  0  0  0
M  CHG  1  72   1
M  ISO  4  35 100  54 101  71 100  79 101
M  END
> <Batch ID>
0054

> <Smiles>
CNC(C)C(=O)NC(C(=O)N1Cc2cc([101O:1][101CH2:1]c3cn(C(C)CC[100NH:0][100C:0](=O)N4CCCC(n5nc(-c6ccc(Oc7ccc(F)cc7F)cc6)c(C(N)=O)c5N)C4)cn3)ccc2CC1C(=O)NC1CCCc2ccccc21)C(C)(C)C

> <Shape>
0.213

> <Color>
0.069

> <Negative vol penalty>
0.000

$$$$

  -OEChem-04052317413D

 83 91  0     1  0  0  0  0  0999 V2000
  -22.6718  -10.7575   18.9535 C   0  0  0  0  0  0  0  0  0  0  0  0
  -22.3046  -12.0634   18.6446 C   0  0  0  0  0  0  0  0  0  0  0  0
  -30.1106  -26.3226   21.5795 C   0  0  0  0  0  0  0  0  0  0  0  0
  -28.6527  -25.1783   23.1293 C   0  0  0  0  0  0  0  0  0  0  0  0
  -23.6673  -10.5200   19.9003 C   0  0  0  0  0  0  0  0  0  0  0  0
  -22.9320  -13.1325   19.2833 C   0  0  0  0  0  0  0  0  0  0  0  0
  -24.2345  -18.6097   16.8731 C   0  0  0  0  0  0  0  0  0  0  0  0
  -31.2218  -25.8720   22.2920 C   0  0  0  0  0  0  0  0  0  0  0  0
  -29.7639  -24.7276   23.8419 C   0  0  0  0  0  0  0  0  0  0  0  0
  -23.5882  -19.8431   16.9433 C   0  0  0  0  0  0  0  0  0  0  0  0
  -31.9406  -25.9711   26.1105 C   0  0  0  0  0  0  0  0  0  0  0  0
  -31.9002  -26.0652   27.5016 C   0  0  0  0  0  0  0  0  0  0  0  0
  -25.0436  -20.4958   18.7530 C   0  0  0  0  0  0  0  0  0  0  0  0
  -32.1626  -23.6694   27.6713 C   0  0  0  0  0  0  0  0  0  0  0  0
  -21.1082  -27.4661   19.8361 C   0  0  0  0  0  0  0  0  0  0  0  0
  -28.8260  -25.9758   21.9981 C   0  0  0  0  0  0  0  0  0  0  0  0
  -27.0389  -25.7970   20.1865 C   0  0  0  0  0  0  0  0  0  0  0  0
  -24.3140  -11.5869   20.5438 C   0  0  0  0  0  0  0  0  0  0  0  0
  -25.2848  -18.3055   17.7510 C   0  0  0  0  0  0  0  0  0  0  0  0
  -23.9362  -12.9089   20.2406 C   0  0  0  0  0  0  0  0  0  0  0  0
  -25.7033  -19.2589   18.6902 C   0  0  0  0  0  0  0  0  0  0  0  0
  -31.0485  -25.0745   23.4232 C   0  0  0  0  0  0  0  0  0  0  0  0
  -23.9908  -20.7853   17.8853 C   0  0  0  0  0  0  0  0  0  0  0  0
  -32.0919  -24.7261   25.4998 C   0  0  0  0  0  0  0  0  0  0  0  0
  -32.0112  -24.9144   28.2820 C   0  0  0  0  0  0  0  0  0  0  0  0
  -32.2029  -23.5753   26.2802 C   0  0  0  0  0  0  0  0  0  0  0  0
  -27.6777  -26.4414   21.2628 C   0  0  0  0  0  0  0  0  0  0  0  0
  -20.6310  -26.2048   19.5819 C   0  0  0  0  0  0  0  0  0  0  0  0
  -26.0106  -26.6401   19.8429 C   0  0  0  0  0  0  0  0  0  0  0  0
  -27.3476  -24.5479   19.5538 C   0  0  0  0  0  0  0  0  0  0  0  0
  -25.7639  -16.1112   20.0002 C   0  0  0  0  0  0  0  0  0  0  0  0
  -28.7443  -17.3902   20.0644 C   0  0  0  0  0  0  0  0  0  0  0  0
  -30.7582  -20.0760   19.4502 C   0  0  0  0  0  0  0  0  0  0  0  0
  -23.2902  -30.9236   23.2765 C   0  0  0  0  0  0  0  0  0  0  0  0
  -25.3511  -11.2795   21.5948 C   0  0  0  0  0  0  0  0  0  0  0  0
  -25.9892  -16.9808   17.6446 C   0  0  0  0  0  0  0  0  0  0  0  0
  -26.8389  -18.9891   19.6420 C   0  0  0  0  0  0  0  0  0  0  0  0
  -26.2286  -12.4762   21.9529 C   0  0  0  0  0  0  0  0  0  0  0  0
  -24.7571  -31.2511   19.8938 C   0  0  0  0  0  0  0  0  0  0  0  0
  -25.3726  -13.7198   22.1706 C   0  0  0  0  0  0  0  0  0  0  0  0
  -25.6726  -30.0311   19.8082 C   0  0  0  0  0  0  0  0  0  0  0  0
  -24.5804  -31.7279   21.3323 C   0  0  0  0  0  0  0  0  0  0  0  0
  -25.0253  -29.4478   22.1791 C   0  0  0  0  0  0  0  0  0  0  0  0
  -24.6108  -14.0956   20.8939 C   0  0  1  0  0  0  0  0  0  0  0  0
  -26.7077  -16.5812   18.9297 C   0  0  1  0  0  0  0  0  0  0  0  0
  -25.1870  -28.9138   20.7480 C   0  0  2  0  0  0  0  0  0  0  0  0
  -33.1429  -20.8342   19.6396 C   0  0  0  0  0  0  0  0  0  0  0  0
  -28.3856  -17.7589   23.0720 C   0  0  0  0  0  0  0  0  0  0  0  0
  -30.3281  -19.3381   23.0396 C   0  0  0  0  0  0  0  0  0  0  0  0
  -30.6506  -16.9534   22.3825 C   0  0  0  0  0  0  0  0  0  0  0  0
  -21.4801  -30.1600   24.7665 C   0  0  0  0  0  0  0  0  0  0  0  0
  -30.9814  -20.4867   16.5278 C   0  0  0  0  0  0  0  0  0  0  0  0
  -20.7232  -25.3923   18.3150 C   0  0  0  0  0  0  0  0  0  0  0  0
  -21.9769  -24.5145   18.2322 C   0  0  0  0  0  0  0  0  0  0  0  0
  -22.0329  -23.4462   19.3251 C   0  0  0  0  0  0  0  0  0  0  0  0
  -20.9925  -28.8678   21.9211 C   0  0  0  0  0  0  0  0  0  0  0  0
  -22.1522  -28.6955   22.8986 C   0  0  0  0  0  0  0  0  0  0  0  0
  -23.3094  -22.6208   19.2352 C   0  0  0  0  0  0  0  0  0  1  0  0
  -29.4103  -18.5114   20.8248 C   0  0  1  0  0  0  0  0  0  0  0  0
  -32.0966  -20.1906   18.7431 C   0  0  2  0  0  0  0  0  0  0  0  0
  -29.6709  -18.1451   22.3132 C   0  0  0  0  0  0  0  0  0  0  0  0
  -27.1033  -27.6043   21.5819 N   0  0  0  0  0  0  0  0  0  0  0  0
  -20.0104  -25.7149   20.6974 N   0  0  0  0  0  0  0  0  0  0  0  0
  -20.0863  -26.6412   21.6468 N   0  0  0  0  0  0  0  0  0  0  0  0
  -20.7447  -27.6905   21.1283 N   0  0  0  0  0  0  0  0  0  0  0  0
  -26.0929  -27.6973   20.7007 N   0  0  0  0  0  0  0  0  0  0  0  0
  -27.4919  -17.6770   19.5029 N   0  0  0  0  0  0  0  0  0  0  0  0
  -24.1603  -30.6366   22.2119 N   0  0  0  0  0  0  0  0  0  0  0  0
  -25.0530  -26.5730   18.8937 N   0  0  0  0  0  0  0  0  0  0  0  0
  -28.4377  -23.8082   20.0320 N   0  0  0  0  0  0  0  0  0  0  0  0
  -25.4921  -14.7571   19.9557 N   0  0  0  0  0  0  0  0  0  0  0  0
  -30.6134  -18.8552   20.0746 N   0  0  0  0  0  0  0  0  0  0  0  0
  -22.4096  -29.9065   23.6748 N   0  0  0  0  0  0  0  0  0  0  0  0
  -31.9619  -21.0167   17.5100 N   0  3  0  0  0  0  0  0  0  0  0  0
  -26.6865  -24.1089   18.5823 O   0  0  0  0  0  0  0  0  0  0  0  0
  -25.3167  -16.9171   20.8078 O   0  0  0  0  0  0  0  0  0  0  0  0
  -29.3173  -16.3023   19.9660 O   0  0  0  0  0  0  0  0  0  0  0  0
  -29.9261  -20.9805   19.4519 O   0  0  0  0  0  0  0  0  0  0  0  0
  -23.2934  -32.0294   23.8326 O   0  0  0  0  0  0  0  0  0  0  0  0
  -32.1326  -24.6344   24.1186 O   0  0  0  0  0  0  0  0  0  0  0  0
  -23.3613  -21.9896   17.9565 O   0  0  0  0  0  0  0  0  0  1  0  0
  -31.9740  -25.0051   29.6178 F   0  0  0  0  0  0  0  0  0  0  0  0
  -32.3496  -22.3767   25.6992 F   0  0  0  0  0  0  0  0  0  0  0  0
  1  2  1  0  0  0  0
  1  5  2  0  0  0  0
  2  6  2  0  0  0  0
  3  8  2  0  0  0  0
  3 16  1  0  0  0  0
  4  9  1  0  0  0  0
  4 16  2  0  0  0  0
  5 18  1  0  0  0  0
  6 20  1  0  0  0  0
  7 10  2  0  0  0  0
  7 19  1  0  0  0  0
  8 22  1  0  0  0  0
  9 22  2  0  0  0  0
 10 23  1  0  0  0  0
 11 12  2  0  0  0  0
 11 24  1  0  0  0  0
 12 25  1  0  0  0  0
 13 21  1  0  0  0  0
 13 23  2  0  0  0  0
 14 25  2  0  0  0  0
 14 26  1  0  0  0  0
 15 28  2  0  0  0  0
 15 65  1  0  0  0  0
 16 27  1  0  0  0  0
 17 27  1  0  0  0  0
 17 29  2  0  0  0  0
 17 30  1  0  0  0  0
 18 20  2  0  0  0  0
 18 35  1  0  0  0  0
 19 21  2  0  0  0  0
 19 36  1  0  0  0  0
 20 44  1  0  0  0  0
 21 37  1  0  0  0  0
 22 80  1  0  0  0  0
 23 81  1  0  0  0  0
 24 26  2  0  0  0  0
 24 80  1  0  0  0  0
 25 82  1  0  0  0  0
 26 83  1  0  0  0  0
 27 62  2  0  0  0  0
 28 53  1  0  0  0  0
 28 63  1  0  0  0  0
 29 66  1  0  0  0  0
 29 69  1  0  0  0  0
 30 70  1  0  0  0  0
 30 75  2  0  0  0  0
 31 45  1  0  0  0  0
 31 71  1  0  0  0  0
 31 76  2  0  0  0  0
 32 59  1  0  0  0  0
 32 67  1  0  0  0  0
 32 77  2  0  0  0  0
 33 60  1  0  0  0  0
 33 72  1  0  0  0  0
 33 78  2  0  0  0  0
 34 68  1  0  0  0  0
 34 73  1  0  0  0  0
 34 79  2  0  0  0  0
 35 38  1  0  0  0  0
 36 45  1  0  0  0  0
 37 67  1  0  0  0  0
 38 40  1  0  0  0  0
 39 41  1  0  0  0  0
 39 42  1  0  0  0  0
 40 44  1  0  0  0  0
 41 46  1  0  0  0  0
 42 68  1  0  0  0  0
 43 46  1  0  0  0  0
 43 68  1  0  0  0  0
 44 71  1  0  0  0  0
 45 67  1  0  0  0  0
 46 66  1  0  0  0  0
 47 60  1  0  0  0  0
 48 61  1  0  0  0  0
 49 61  1  0  0  0  0
 50 61  1  0  0  0  0
 51 73  1  0  0  0  0
 52 74  1  0  0  0  0
 53 54  1  0  0  0  0
 54 55  1  0  0  0  0
 55 58  1  0  0  0  0
 56 57  1  0  0  0  0
 56 65  1  0  0  0  0
 57 73  1  0  0  0  0
 58 81  1  0  0  0  0
 59 61  1  0  0  0  0
 59 72  1  0  0  0  0
 60 74  1  0  0  0  0
 62 66  1  0  0  0  0
 63 64  2  0  0  0  0
 64 65  1  0  0  0  0
M  CHG  1  74   1
M  ISO  4  34 100  58 101  73 100  81 101
M  END
> <Batch ID>
0054

> <Smiles>
CNC(C)C(=O)NC(C(=O)N1Cc2cc([101O:1][101CH2:1]CCCc3cn(CC[100N:0](C)[100C:0](=O)N4CCCC(n5nc(-c6ccc(Oc7ccc(F)cc7F)cc6)c(C(N)=O)c5N)C4)nn3)ccc2CC1C(=O)NC1CCCc2ccccc21)C(C)(C)C

> <Shape>
0.192

> <Color>
0.073

> <Negative vol penalty>
0.000

$$$$

  -OEChem-04052317413D

 86 94  0     1  0  0  0  0  0999 V2000
  -29.9952  -24.8354   16.8456 C   0  0  0  0  0  0  0  0  0  0  0  0
  -28.7806  -24.7839   17.5219 C   0  0  0  0  0  0  0  0  0  0  0  0
  -27.6024  -13.1833   18.8683 C   0  0  0  0  0  0  0  0  0  0  0  0
  -28.2651  -13.7136   21.1303 C   0  0  0  0  0  0  0  0  0  0  0  0
  -31.0426  -25.6029   17.3534 C   0  0  0  0  0  0  0  0  0  0  0  0
  -28.6129  -25.4993   18.7071 C   0  0  0  0  0  0  0  0  0  0  0  0
  -24.1944  -27.9676   18.8780 C   0  0  0  0  0  0  0  0  0  0  0  0
  -28.9434  -13.0680   18.5024 C   0  0  0  0  0  0  0  0  0  0  0  0
  -29.6062  -13.5983   20.7644 C   0  0  0  0  0  0  0  0  0  0  0  0
  -23.0577  -27.2182   19.1779 C   0  0  0  0  0  0  0  0  0  0  0  0
  -32.1849  -12.2798   17.0580 C   0  0  0  0  0  0  0  0  0  0  0  0
  -32.5513  -11.1865   16.2731 C   0  0  0  0  0  0  0  0  0  0  0  0
  -23.1565  -27.9930   21.4603 C   0  0  0  0  0  0  0  0  0  0  0  0
  -31.7837   -9.6864   18.0044 C   0  0  0  0  0  0  0  0  0  0  0  0
  -23.7689  -23.7825   22.0702 C   0  0  0  0  0  0  0  0  0  0  0  0
  -27.2632  -13.5061   20.1823 C   0  0  0  0  0  0  0  0  0  0  0  0
  -25.0382  -12.6058   21.0462 C   0  0  0  0  0  0  0  0  0  0  0  0
  -30.8845  -26.3357   18.5403 C   0  0  0  0  0  0  0  0  0  0  0  0
  -24.8282  -28.7280   19.8713 C   0  0  0  0  0  0  0  0  0  0  0  0
  -29.6596  -26.2763   19.2319 C   0  0  0  0  0  0  0  0  0  0  0  0
  -24.2997  -28.7532   21.1698 C   0  0  0  0  0  0  0  0  0  0  0  0
  -22.5095  -23.2457   21.9587 C   0  0  0  0  0  0  0  0  0  0  0  0
  -29.9453  -13.2755   19.4504 C   0  0  0  0  0  0  0  0  0  0  0  0
  -22.5402  -27.2286   20.4699 C   0  0  0  0  0  0  0  0  0  0  0  0
  -31.6180  -12.0764   18.3161 C   0  0  0  0  0  0  0  0  0  0  0  0
  -32.3507   -9.8898   16.7463 C   0  0  0  0  0  0  0  0  0  0  0  0
  -31.4173  -10.7797   18.7893 C   0  0  0  0  0  0  0  0  0  0  0  0
  -25.8781  -13.6259   20.5607 C   0  0  0  0  0  0  0  0  0  0  0  0
  -22.7298  -21.9038   21.5947 C   0  0  0  0  0  0  0  0  0  0  0  0
  -23.8306  -13.2258   21.2556 C   0  0  0  0  0  0  0  0  0  0  0  0
  -25.3241  -11.2215   21.2866 C   0  0  0  0  0  0  0  0  0  0  0  0
  -27.7091  -28.7092   21.2143 C   0  0  0  0  0  0  0  0  0  0  0  0
  -26.6218  -31.3988   22.6655 C   0  0  0  0  0  0  0  0  0  0  0  0
  -23.9520  -33.2448   23.7198 C   0  0  0  0  0  0  0  0  0  0  0  0
  -22.3015  -18.6799   22.4890 C   0  0  0  0  0  0  0  0  0  0  0  0
  -32.0607  -27.1135   19.0753 C   0  0  0  0  0  0  0  0  0  0  0  0
  -26.0380  -29.5520   19.5251 C   0  0  0  0  0  0  0  0  0  0  0  0
  -24.9309  -29.5691   22.2672 C   0  0  0  0  0  0  0  0  0  0  0  0
  -31.6791  -28.1402   20.1386 C   0  0  0  0  0  0  0  0  0  0  0  0
  -21.1545  -16.8585   19.6892 C   0  0  0  0  0  0  0  0  0  0  0  0
  -30.7367  -27.5203   21.1654 C   0  0  0  0  0  0  0  0  0  0  0  0
  -22.1682  -15.7163   19.6353 C   0  0  0  0  0  0  0  0  0  0  0  0
  -21.8112  -18.1931   20.0469 C   0  0  0  0  0  0  0  0  0  0  0  0
  -23.6294  -17.0077   21.2349 C   0  0  0  0  0  0  0  0  0  0  0  0
  -29.4310  -27.0580   20.5074 C   0  0  1  0  0  0  0  0  0  0  0  0
  -26.9020  -29.8837   20.7380 C   0  0  1  0  0  0  0  0  0  0  0  0
  -22.9861  -15.6447   20.9365 C   0  0  2  0  0  0  0  0  0  0  0  0
  -23.3792  -35.3799   24.9075 C   0  0  0  0  0  0  0  0  0  0  0  0
  -27.3794  -30.1176   25.3290 C   0  0  0  0  0  0  0  0  0  0  0  0
  -25.9505  -31.8235   26.4765 C   0  0  0  0  0  0  0  0  0  0  0  0
  -27.9322  -32.5498   25.1467 C   0  0  0  0  0  0  0  0  0  0  0  0
  -18.8829  -20.4244   25.0572 C   0  0  0  0  0  0  0  0  0  0  0  0
  -18.6463  -20.2922   22.5643 C   0  0  0  0  0  0  0  0  0  0  0  0
  -26.0742  -22.8500   21.7619 C   0  0  0  0  0  0  0  0  0  0  0  0
  -22.4982  -34.2992   21.3675 C   0  0  0  0  0  0  0  0  0  0  0  0
  -21.1935  -23.9479   22.1793 C   0  0  0  0  0  0  0  0  0  0  0  0
  -21.7217  -20.8596   21.3412 C   0  0  0  0  0  0  0  0  0  0  0  0
  -20.4618  -24.3060   20.8840 C   0  0  0  0  0  0  0  0  0  0  0  0
  -20.9514  -20.3932   23.6380 C   0  0  0  0  0  0  0  0  0  0  0  0
  -21.2229  -25.3013   20.0159 C   0  0  0  0  0  0  0  0  0  1  0  0
  -25.8778  -31.6972   23.9448 C   0  0  1  0  0  0  0  0  0  0  0  0
  -23.6194  -34.7173   23.5599 C   0  0  2  0  0  0  0  0  0  0  0  0
  -26.7740  -31.5300   25.2043 C   0  0  0  0  0  0  0  0  0  0  0  0
  -19.5065  -19.9063   23.7641 C   0  0  0  0  0  0  0  0  0  0  0  0
  -25.2566  -14.8045   20.4670 N   0  0  0  0  0  0  0  0  0  0  0  0
  -24.0271  -21.6064   21.4822 N   0  0  0  0  0  0  0  0  0  0  0  0
  -24.6333  -22.7690   21.7772 N   0  0  0  0  0  0  0  0  0  0  0  0
  -24.0134  -14.5287   20.8964 N   0  0  0  0  0  0  0  0  0  0  0  0
  -26.1157  -30.3530   21.8807 N   0  0  0  0  0  0  0  0  0  0  0  0
  -22.6197  -18.0685   21.2674 N   0  0  0  0  0  0  0  0  0  0  0  0
  -22.6409  -12.7780   21.7099 N   0  0  0  0  0  0  0  0  0  0  0  0
  -26.6162  -10.7496   21.0179 N   0  0  0  0  0  0  0  0  0  0  0  0
  -28.5620  -28.1885   20.2598 N   0  0  0  0  0  0  0  0  0  0  0  0
  -25.3129  -33.0329   23.7864 N   0  0  0  0  0  0  0  0  0  0  0  0
  -21.6075  -19.8981   22.4361 N   0  0  0  0  0  0  0  0  0  0  0  0
  -22.3935  -34.8841   22.7290 N   0  3  0  0  0  0  0  0  0  0  0  0
  -24.4548  -10.4229   21.7111 O   0  0  0  0  0  0  0  0  0  0  0  0
  -27.5696  -28.3063   22.3631 O   0  0  0  0  0  0  0  0  0  0  0  0
  -27.6111  -32.0737   22.3698 O   0  0  0  0  0  0  0  0  0  0  0  0
  -23.0906  -32.3704   23.7833 O   0  0  0  0  0  0  0  0  0  0  0  0
  -22.6263  -18.1702   23.5692 O   0  0  0  0  0  0  0  0  0  0  0  0
  -31.2540  -13.1629   19.0938 O   0  0  0  0  0  0  0  0  0  0  0  0
  -21.4311  -26.4975   20.7656 O   0  0  0  0  0  0  0  0  0  1  0  0
  -32.7012   -8.8400   15.9918 F   0  0  0  0  0  0  0  0  0  0  0  0
  -30.8720  -10.5780   19.9967 F   0  0  0  0  0  0  0  0  0  0  0  0
  -19.5245  -18.5422   23.8422 F   0  0  0  0  0  0  0  0  0  0  0  0
  1  2  1  0  0  0  0
  1  5  2  0  0  0  0
  2  6  2  0  0  0  0
  3  8  2  0  0  0  0
  3 16  1  0  0  0  0
  4  9  1  0  0  0  0
  4 16  2  0  0  0  0
  5 18  1  0  0  0  0
  6 20  1  0  0  0  0
  7 10  2  0  0  0  0
  7 19  1  0  0  0  0
  8 23  1  0  0  0  0
  9 23  2  0  0  0  0
 10 24  1  0  0  0  0
 11 12  2  0  0  0  0
 11 25  1  0  0  0  0
 12 26  1  0  0  0  0
 13 21  1  0  0  0  0
 13 24  2  0  0  0  0
 14 26  2  0  0  0  0
 14 27  1  0  0  0  0
 15 22  2  0  0  0  0
 15 67  1  0  0  0  0
 16 28  1  0  0  0  0
 17 28  1  0  0  0  0
 17 30  2  0  0  0  0
 17 31  1  0  0  0  0
 18 20  2  0  0  0  0
 18 36  1  0  0  0  0
 19 21  2  0  0  0  0
 19 37  1  0  0  0  0
 20 45  1  0  0  0  0
 21 38  1  0  0  0  0
 22 29  1  0  0  0  0
 22 56  1  0  0  0  0
 23 82  1  0  0  0  0
 24 83  1  0  0  0  0
 25 27  2  0  0  0  0
 25 82  1  0  0  0  0
 26 84  1  0  0  0  0
 27 85  1  0  0  0  0
 28 65  2  0  0  0  0
 29 57  1  0  0  0  0
 29 66  2  0  0  0  0
 30 68  1  0  0  0  0
 30 71  1  0  0  0  0
 31 72  1  0  0  0  0
 31 77  2  0  0  0  0
 32 46  1  0  0  0  0
 32 73  1  0  0  0  0
 32 78  2  0  0  0  0
 33 61  1  0  0  0  0
 33 69  1  0  0  0  0
 33 79  2  0  0  0  0
 34 62  1  0  0  0  0
 34 74  1  0  0  0  0
 34 80  2  0  0  0  0
 35 70  1  0  0  0  0
 35 75  1  0  0  0  0
 35 81  2  0  0  0  0
 36 39  1  0  0  0  0
 37 46  1  0  0  0  0
 38 69  1  0  0  0  0
 39 41  1  0  0  0  0
 40 42  1  0  0  0  0
 40 43  1  0  0  0  0
 41 45  1  0  0  0  0
 42 47  1  0  0  0  0
 43 70  1  0  0  0  0
 44 47  1  0  0  0  0
 44 70  1  0  0  0  0
 45 73  1  0  0  0  0
 46 69  1  0  0  0  0
 47 68  1  0  0  0  0
 48 62  1  0  0  0  0
 49 63  1  0  0  0  0
 50 63  1  0  0  0  0
 51 63  1  0  0  0  0
 52 64  1  0  0  0  0
 53 64  1  0  0  0  0
 54 67  1  0  0  0  0
 55 76  1  0  0  0  0
 56 58  1  0  0  0  0
 57 75  1  0  0  0  0
 58 60  1  0  0  0  0
 59 64  1  0  0  0  0
 59 75  1  0  0  0  0
 60 83  1  0  0  0  0
 61 63  1  0  0  0  0
 61 74  1  0  0  0  0
 62 76  1  0  0  0  0
 64 86  1  0  0  0  0
 65 68  1  0  0  0  0
 66 67  1  0  0  0  0
M  CHG  1  76   1
M  ISO  4  35 100  60 101  75 100  83 101
M  END
> <Batch ID>
0054

> <Smiles>
CNC(C)C(=O)NC(C(=O)N1Cc2cc([101O:1][101CH2:1]CCc3cn(C)nc3C[100N:0](CC(C)(C)F)[100C:0](=O)N3CCCC(n4nc(-c5ccc(Oc6ccc(F)cc6F)cc5)c(C(N)=O)c4N)C3)ccc2CC1C(=O)NC1CCCc2ccccc21)C(C)(C)C

> <Shape>
0.268

> <Color>
0.094

> <Negative vol penalty>
0.000

$$$$

  -OEChem-04052317413D

 83 91  0     1  0  0  0  0  0999 V2000
  -27.6354  -25.2419   26.5629 C   0  0  0  0  0  0  0  0  0  0  0  0
  -27.9904  -24.5124   25.4327 C   0  0  0  0  0  0  0  0  0  0  0  0
  -23.0682   -9.9433   19.9136 C   0  0  0  0  0  0  0  0  0  0  0  0
  -23.8246   -9.8929   22.2076 C   0  0  0  0  0  0  0  0  0  0  0  0
  -27.1819  -26.5536   26.4305 C   0  0  0  0  0  0  0  0  0  0  0  0
  -27.8910  -25.0941   24.1693 C   0  0  0  0  0  0  0  0  0  0  0  0
  -31.9583  -24.1923   21.2902 C   0  0  0  0  0  0  0  0  0  0  0  0
  -22.3282   -8.7814   20.1320 C   0  0  0  0  0  0  0  0  0  0  0  0
  -23.0845   -8.7310   22.4261 C   0  0  0  0  0  0  0  0  0  0  0  0
  -32.0515  -22.9346   20.6959 C   0  0  0  0  0  0  0  0  0  0  0  0
  -23.3883   -5.4258   21.7823 C   0  0  0  0  0  0  0  0  0  0  0  0
  -24.0064   -4.3842   22.4742 C   0  0  0  0  0  0  0  0  0  0  0  0
  -31.2465  -23.8625   18.6199 C   0  0  0  0  0  0  0  0  0  0  0  0
  -22.3018   -4.5069   24.1819 C   0  0  0  0  0  0  0  0  0  0  0  0
  -23.8165  -10.4991   20.9514 C   0  0  0  0  0  0  0  0  0  0  0  0
  -24.1493  -13.0278   20.8981 C   0  0  0  0  0  0  0  0  0  0  0  0
  -27.0861  -27.1549   25.1656 C   0  0  0  0  0  0  0  0  0  0  0  0
  -31.4973  -25.2942   20.5556 C   0  0  0  0  0  0  0  0  0  0  0  0
  -27.4346  -26.4147   24.0198 C   0  0  0  0  0  0  0  0  0  0  0  0
  -31.1508  -25.1337   19.2065 C   0  0  0  0  0  0  0  0  0  0  0  0
  -22.3363   -8.1752   21.3883 C   0  0  0  0  0  0  0  0  0  0  0  0
  -31.6928  -22.7689   19.3614 C   0  0  0  0  0  0  0  0  0  0  0  0
  -22.2269   -6.0080   22.2903 C   0  0  0  0  0  0  0  0  0  0  0  0
  -23.4632   -3.9248   23.6739 C   0  0  0  0  0  0  0  0  0  0  0  0
  -21.6837   -5.5486   23.4900 C   0  0  0  0  0  0  0  0  0  0  0  0
  -24.5816  -11.6991   20.7262 C   0  0  0  0  0  0  0  0  0  0  0  0
  -29.1239  -18.9771   20.8469 C   0  0  0  0  0  0  0  0  0  0  0  0
  -29.3880  -17.6985   20.4157 C   0  0  0  0  0  0  0  0  0  0  0  0
  -25.2393  -13.7904   20.5564 C   0  0  0  0  0  0  0  0  0  0  0  0
  -30.0287  -19.1978   18.9330 C   0  0  0  0  0  0  0  0  0  0  0  0
  -22.8763  -13.5278   21.3284 C   0  0  0  0  0  0  0  0  0  0  0  0
  -29.0192  -27.2706   20.7934 C   0  0  0  0  0  0  0  0  0  0  0  0
  -30.5083  -28.8067   18.3551 C   0  0  0  0  0  0  0  0  0  0  0  0
  -32.6743  -28.6465   15.7226 C   0  0  0  0  0  0  0  0  0  0  0  0
  -30.8417  -14.5069   21.2020 C   0  0  0  0  0  0  0  0  0  0  0  0
  -26.5457  -28.5596   25.0686 C   0  0  0  0  0  0  0  0  0  0  0  0
  -31.4280  -26.6498   21.2038 C   0  0  0  0  0  0  0  0  0  0  0  0
  -30.6692  -26.2889   18.3685 C   0  0  0  0  0  0  0  0  0  0  0  0
  -26.8252  -29.2284   23.7252 C   0  0  0  0  0  0  0  0  0  0  0  0
  -29.5935  -12.5317   18.3311 C   0  0  0  0  0  0  0  0  0  0  0  0
  -26.4933  -28.2800   22.5775 C   0  0  0  0  0  0  0  0  0  0  0  0
  -28.1653  -12.1934   18.7554 C   0  0  0  0  0  0  0  0  0  0  0  0
  -30.5134  -12.7177   19.5339 C   0  0  0  0  0  0  0  0  0  0  0  0
  -28.5931  -13.3798   20.9440 C   0  0  0  0  0  0  0  0  0  0  0  0
  -27.3642  -27.0191   22.6342 C   0  0  1  0  0  0  0  0  0  0  0  0
  -30.4573  -27.5971   20.5054 C   0  0  1  0  0  0  0  0  0  0  0  0
  -27.6299  -13.2317   19.7566 C   0  0  2  0  0  0  0  0  0  0  0  0
  -29.0292  -20.7565   22.6108 C   0  0  0  0  0  0  0  0  0  0  0  0
  -33.6602  -30.0546   13.8944 C   0  0  0  0  0  0  0  0  0  0  0  0
  -27.8848  -28.6298   16.8072 C   0  0  0  0  0  0  0  0  0  0  0  0
  -29.1610  -29.1619   14.7201 C   0  0  0  0  0  0  0  0  0  0  0  0
  -29.0809  -30.8149   16.5866 C   0  0  0  0  0  0  0  0  0  0  0  0
  -30.4320  -16.7971   18.3210 C   0  0  0  0  0  0  0  0  0  0  0  0
  -31.2507  -16.6771   22.2986 C   0  0  0  0  0  0  0  0  0  0  0  0
  -35.4249  -28.2455   16.7386 C   0  0  0  0  0  0  0  0  0  0  0  0
  -28.5006  -19.4066   22.1088 C   0  0  0  0  0  0  0  0  0  0  0  0
  -29.1516  -16.3828   21.0366 C   0  0  0  0  0  0  0  0  0  0  0  0
  -30.6185  -19.7480   17.6572 C   0  0  0  0  0  0  0  0  0  0  0  0
  -30.8585  -21.2520   17.7308 C   0  0  0  0  0  0  0  0  0  1  0  0
  -30.4649  -28.7154   16.8488 C   0  0  1  0  0  0  0  0  0  0  0  0
  -33.8320  -29.5397   15.3150 C   0  0  2  0  0  0  0  0  0  0  0  0
  -29.1551  -29.3081   16.2567 C   0  0  0  0  0  0  0  0  0  0  0  0
  -25.8475  -11.6188   20.3076 N   0  0  0  0  0  0  0  0  0  0  0  0
  -29.5248  -19.9058   19.9193 N   0  0  0  0  0  0  0  0  0  0  0  0
  -29.9671  -17.8560   19.1880 N   0  0  0  0  0  0  0  0  0  0  0  0
  -26.2199  -12.9066   20.2136 N   0  0  0  0  0  0  0  0  0  0  0  0
  -30.6127  -27.5930   19.0493 N   0  0  0  0  0  0  0  0  0  0  0  0
  -29.9599  -13.6772   20.4900 N   0  0  0  0  0  0  0  0  0  0  0  0
  -25.4450  -15.1241   20.5187 N   0  0  0  0  0  0  0  0  0  0  0  0
  -21.8672  -12.6065   21.6400 N   0  0  0  0  0  0  0  0  0  0  0  0
  -28.6935  -27.3003   22.1360 N   0  0  0  0  0  0  0  0  0  0  0  0
  -31.6829  -29.3570   16.3658 N   0  0  0  0  0  0  0  0  0  0  0  0
  -30.3697  -15.7762   21.5693 N   0  0  0  0  0  0  0  0  0  0  0  0
  -35.1171  -28.7888   15.3906 N   0  3  0  0  0  0  0  0  0  0  0  0
  -22.6355  -14.7557   21.4176 O   0  0  0  0  0  0  0  0  0  0  0  0
  -28.2608  -27.0124   19.8661 O   0  0  0  0  0  0  0  0  0  0  0  0
  -30.4588  -29.9144   18.8955 O   0  0  0  0  0  0  0  0  0  0  0  0
  -32.6500  -27.4399   15.4902 O   0  0  0  0  0  0  0  0  0  0  0  0
  -31.9889  -14.1380   21.4845 O   0  0  0  0  0  0  0  0  0  0  0  0
  -21.6140   -7.0415   21.6019 O   0  0  0  0  0  0  0  0  0  0  0  0
  -31.7822  -21.5422   18.7790 O   0  0  0  0  0  0  0  0  0  1  0  0
  -24.0560   -2.9235   24.3374 F   0  0  0  0  0  0  0  0  0  0  0  0
  -20.5675   -6.1031   23.9824 F   0  0  0  0  0  0  0  0  0  0  0  0
  1  2  1  0  0  0  0
  1  5  2  0  0  0  0
  2  6  2  0  0  0  0
  3  8  2  0  0  0  0
  3 15  1  0  0  0  0
  4  9  1  0  0  0  0
  4 15  2  0  0  0  0
  5 17  1  0  0  0  0
  6 19  1  0  0  0  0
  7 10  2  0  0  0  0
  7 18  1  0  0  0  0
  8 21  1  0  0  0  0
  9 21  2  0  0  0  0
 10 22  1  0  0  0  0
 11 12  2  0  0  0  0
 11 23  1  0  0  0  0
 12 24  1  0  0  0  0
 13 20  1  0  0  0  0
 13 22  2  0  0  0  0
 14 24  2  0  0  0  0
 14 25  1  0  0  0  0
 15 26  1  0  0  0  0
 16 26  1  0  0  0  0
 16 29  2  0  0  0  0
 16 31  1  0  0  0  0
 17 19  2  0  0  0  0
 17 36  1  0  0  0  0
 18 20  2  0  0  0  0
 18 37  1  0  0  0  0
 19 45  1  0  0  0  0
 20 38  1  0  0  0  0
 21 80  1  0  0  0  0
 22 81  1  0  0  0  0
 23 25  2  0  0  0  0
 23 80  1  0  0  0  0
 24 82  1  0  0  0  0
 25 83  1  0  0  0  0
 26 63  2  0  0  0  0
 27 28  2  0  0  0  0
 27 56  1  0  0  0  0
 27 64  1  0  0  0  0
 28 57  1  0  0  0  0
 28 65  1  0  0  0  0
 29 66  1  0  0  0  0
 29 69  1  0  0  0  0
 30 58  1  0  0  0  0
 30 64  2  0  0  0  0
 30 65  1  0  0  0  0
 31 70  1  0  0  0  0
 31 75  2  0  0  0  0
 32 46  1  0  0  0  0
 32 71  1  0  0  0  0
 32 76  2  0  0  0  0
 33 60  1  0  0  0  0
 33 67  1  0  0  0  0
 33 77  2  0  0  0  0
 34 61  1  0  0  0  0
 34 72  1  0  0  0  0
 34 78  2  0  0  0  0
 35 68  1  0  0  0  0
 35 73  1  0  0  0  0
 35 79  2  0  0  0  0
 36 39  1  0  0  0  0
 37 46  1  0  0  0  0
 38 67  1  0  0  0  0
 39 41  1  0  0  0  0
 40 42  1  0  0  0  0
 40 43  1  0  0  0  0
 41 45  1  0  0  0  0
 42 47  1  0  0  0  0
 43 68  1  0  0  0  0
 44 47  1  0  0  0  0
 44 68  1  0  0  0  0
 45 71  1  0  0  0  0
 46 67  1  0  0  0  0
 47 66  1  0  0  0  0
 48 56  1  0  0  0  0
 49 61  1  0  0  0  0
 50 62  1  0  0  0  0
 51 62  1  0  0  0  0
 52 62  1  0  0  0  0
 53 65  1  0  0  0  0
 54 73  1  0  0  0  0
 55 74  1  0  0  0  0
 57 73  1  0  0  0  0
 58 59  1  0  0  0  0
 59 81  1  0  0  0  0
 60 62  1  0  0  0  0
 60 72  1  0  0  0  0
 61 74  1  0  0  0  0
 63 66  1  0  0  0  0
M  CHG  1  74   1
M  ISO  4  35 100  59 101  73 100  81 101
M  END
> <Batch ID>
0054

> <Smiles>
CCc1nc(C[101CH2:1][101O:1]c2ccc3c(c2)CN(C(=O)C(NC(=O)C(C)NC)C(C)(C)C)C(C(=O)NC2CCCc4ccccc42)C3)n(C)c1C[100N:0](C)[100C:0](=O)N1CCCC(n2nc(-c3ccc(Oc4ccc(F)cc4F)cc3)c(C(N)=O)c2N)C1

> <Shape>
0.282

> <Color>
0.216

> <Negative vol penalty>
0.000

$$$$

  -OEChem-04052317413D

 86 94  0     1  0  0  0  0  0999 V2000
  -21.8927  -33.9861   21.6055 C   0  0  0  0  0  0  0  0  0  0  0  0
  -23.0063  -33.1544   21.5470 C   0  0  0  0  0  0  0  0  0  0  0  0
  -22.8769  -13.3877   19.0949 C   0  0  0  0  0  0  0  0  0  0  0  0
  -24.5019  -12.1717   20.4055 C   0  0  0  0  0  0  0  0  0  0  0  0
  -20.7350  -33.5547   22.2515 C   0  0  0  0  0  0  0  0  0  0  0  0
  -22.9632  -31.8910   22.1356 C   0  0  0  0  0  0  0  0  0  0  0  0
  -24.9300  -28.2944   19.1621 C   0  0  0  0  0  0  0  0  0  0  0  0
  -22.4324  -12.1901   18.5348 C   0  0  0  0  0  0  0  0  0  0  0  0
  -24.0573  -10.9740   19.8455 C   0  0  0  0  0  0  0  0  0  0  0  0
  -26.3202  -28.2099   19.0995 C   0  0  0  0  0  0  0  0  0  0  0  0
  -23.1073   -7.5608   19.0299 C   0  0  0  0  0  0  0  0  0  0  0  0
  -22.9056   -6.4788   19.8868 C   0  0  0  0  0  0  0  0  0  0  0  0
  -26.2728  -26.3730   20.6625 C   0  0  0  0  0  0  0  0  0  0  0  0
  -21.2654   -7.7579   21.1159 C   0  0  0  0  0  0  0  0  0  0  0  0
  -28.4453  -22.2481   20.8694 C   0  0  0  0  0  0  0  0  0  0  0  0
  -31.0904  -22.1065   20.5368 C   0  0  0  0  0  0  0  0  0  0  0  0
  -23.9118  -13.3785   20.0302 C   0  0  0  0  0  0  0  0  0  0  0  0
  -23.8938  -15.2366   21.7780 C   0  0  0  0  0  0  0  0  0  0  0  0
  -20.6744  -32.2816   22.8399 C   0  0  0  0  0  0  0  0  0  0  0  0
  -24.2003  -27.4245   19.9851 C   0  0  0  0  0  0  0  0  0  0  0  0
  -21.8041  -31.4426   22.7913 C   0  0  0  0  0  0  0  0  0  0  0  0
  -24.8732  -26.4469   20.7318 C   0  0  0  0  0  0  0  0  0  0  0  0
  -23.0226  -10.9833   18.9101 C   0  0  0  0  0  0  0  0  0  0  0  0
  -26.9920  -27.2510   19.8519 C   0  0  0  0  0  0  0  0  0  0  0  0
  -22.3881   -8.7414   19.2161 C   0  0  0  0  0  0  0  0  0  0  0  0
  -21.9847   -6.5773   20.9297 C   0  0  0  0  0  0  0  0  0  0  0  0
  -21.4671   -8.8399   20.2590 C   0  0  0  0  0  0  0  0  0  0  0  0
  -24.3718  -14.6154   20.6086 C   0  0  0  0  0  0  0  0  0  0  0  0
  -29.2636  -21.7770   21.8724 C   0  0  0  0  0  0  0  0  0  0  0  0
  -30.2721  -22.5768   19.5335 C   0  0  0  0  0  0  0  0  0  0  0  0
  -24.6521  -16.3757   21.8962 C   0  0  0  0  0  0  0  0  0  0  0  0
  -22.8571  -14.8211   22.6771 C   0  0  0  0  0  0  0  0  0  0  0  0
  -22.2796  -27.7907   22.4912 C   0  0  0  0  0  0  0  0  0  0  0  0
  -21.8212  -24.6017   22.1133 C   0  0  0  0  0  0  0  0  0  0  0  0
  -23.0026  -21.6244   20.9358 C   0  0  0  0  0  0  0  0  0  0  0  0
  -29.9050  -18.5430   21.7298 C   0  0  0  0  0  0  0  0  0  0  0  0
  -19.4170  -31.8776   23.5683 C   0  0  0  0  0  0  0  0  0  0  0  0
  -22.6991  -27.5112   20.0210 C   0  0  0  0  0  0  0  0  0  0  0  0
  -24.1348  -25.4761   21.6153 C   0  0  0  0  0  0  0  0  0  0  0  0
  -19.3262  -30.3784   23.8412 C   0  0  0  0  0  0  0  0  0  0  0  0
  -27.8380  -18.5820   18.6593 C   0  0  0  0  0  0  0  0  0  0  0  0
  -20.6460  -29.8567   24.4004 C   0  0  0  0  0  0  0  0  0  0  0  0
  -26.7571  -17.5487   18.9723 C   0  0  0  0  0  0  0  0  0  0  0  0
  -29.1391  -18.2832   19.3980 C   0  0  0  0  0  0  0  0  0  0  0  0
  -27.8960  -17.1082   21.1835 C   0  0  0  0  0  0  0  0  0  0  0  0
  -21.7877  -30.0556   23.3962 C   0  0  1  0  0  0  0  0  0  0  0  0
  -22.0961  -26.9107   21.2872 C   0  0  1  0  0  0  0  0  0  0  0  0
  -26.5576  -17.4064   20.4913 C   0  0  2  0  0  0  0  0  0  0  0  0
  -30.1543  -17.5018   24.8326 C   0  0  0  0  0  0  0  0  0  0  0  0
  -22.4223  -19.1862   20.8094 C   0  0  0  0  0  0  0  0  0  0  0  0
  -22.5792  -24.2715   25.0504 C   0  0  0  0  0  0  0  0  0  0  0  0
  -22.9075  -21.8273   24.6187 C   0  0  0  0  0  0  0  0  0  0  0  0
  -20.6571  -22.8565   24.3035 C   0  0  0  0  0  0  0  0  0  0  0  0
  -22.9846  -21.6632   17.9766 C   0  0  0  0  0  0  0  0  0  0  0  0
  -28.6883  -21.3344   23.1721 C   0  0  0  0  0  0  0  0  0  0  0  0
  -30.8524  -23.0236   18.2228 C   0  0  0  0  0  0  0  0  0  0  0  0
  -30.3649  -18.8305   24.1351 C   0  0  0  0  0  0  0  0  0  0  0  0
  -28.3170  -19.8459   23.2075 C   0  0  0  0  0  0  0  0  0  0  0  0
  -31.2231  -24.5028   18.1848 C   0  0  0  0  0  0  0  0  0  0  0  0
  -30.2806  -26.8052   18.4073 C   0  0  0  0  0  0  0  0  0  0  0  0
  -28.9712  -27.5520   18.5681 C   0  0  0  0  0  0  0  0  0  1  0  0
  -22.4925  -23.3556   22.6380 C   0  0  1  0  0  0  0  0  0  0  0  0
  -22.3429  -20.5345   20.1104 C   0  0  2  0  0  0  0  0  0  0  0  0
  -22.1734  -23.0971   24.1376 C   0  0  0  0  0  0  0  0  0  0  0  0
  -30.6009  -21.6981   21.7242 N   0  0  0  0  0  0  0  0  0  0  0  0
  -28.9348  -22.6561   19.6818 N   0  0  0  0  0  0  0  0  0  0  0  0
  -25.3574  -15.3029   20.0255 N   0  0  0  0  0  0  0  0  0  0  0  0
  -25.5048  -16.3680   20.8317 N   0  0  0  0  0  0  0  0  0  0  0  0
  -22.6682  -25.6049   21.6214 N   0  0  0  0  0  0  0  0  0  0  0  0
  -28.9141  -18.1100   20.8335 N   0  0  0  0  0  0  0  0  0  0  0  0
  -24.6660  -17.3731   22.8058 N   0  0  0  0  0  0  0  0  0  0  0  0
  -22.1785  -13.6249   22.4072 N   0  0  0  0  0  0  0  0  0  0  0  0
  -21.7276  -29.0503   22.3569 N   0  0  0  0  0  0  0  0  0  0  0  0
  -22.0943  -22.2713   21.7468 N   0  0  0  0  0  0  0  0  0  0  0  0
  -29.4775  -18.9846   22.9912 N   0  0  0  0  0  0  0  0  0  0  0  0
  -23.0090  -20.4154   18.7826 N   0  3  0  0  0  0  0  0  0  0  0  0
  -30.0110  -25.3457   18.3699 N   0  3  0  0  0  0  0  0  0  0  0  0
  -22.5308  -15.4991   23.6807 O   0  0  0  0  0  0  0  0  0  0  0  0
  -22.8765  -27.3583   23.4702 O   0  0  0  0  0  0  0  0  0  0  0  0
  -20.5902  -24.6792   22.1324 O   0  0  0  0  0  0  0  0  0  0  0  0
  -24.2042  -21.8742   20.8707 O   0  0  0  0  0  0  0  0  0  0  0  0
  -31.1025  -18.5443   21.4170 O   0  0  0  0  0  0  0  0  0  0  0  0
  -22.5888   -9.8144   18.3640 O   0  0  0  0  0  0  0  0  0  0  0  0
  -28.3490  -27.1667   19.7932 O   0  0  0  0  0  0  0  0  0  1  0  0
  -21.7900   -5.5376   21.7515 F   0  0  0  0  0  0  0  0  0  0  0  0
  -20.7723   -9.9711   20.4421 F   0  0  0  0  0  0  0  0  0  0  0  0
  1  2  1  0  0  0  0
  1  5  2  0  0  0  0
  2  6  2  0  0  0  0
  3  8  2  0  0  0  0
  3 17  1  0  0  0  0
  4  9  1  0  0  0  0
  4 17  2  0  0  0  0
  5 19  1  0  0  0  0
  6 21  1  0  0  0  0
  7 10  2  0  0  0  0
  7 20  1  0  0  0  0
  8 23  1  0  0  0  0
  9 23  2  0  0  0  0
 10 24  1  0  0  0  0
 11 12  2  0  0  0  0
 11 25  1  0  0  0  0
 12 26  1  0  0  0  0
 13 22  1  0  0  0  0
 13 24  2  0  0  0  0
 14 26  2  0  0  0  0
 14 27  1  0  0  0  0
 15 29  1  0  0  0  0
 15 66  2  0  0  0  0
 16 30  2  0  0  0  0
 16 65  1  0  0  0  0
 17 28  1  0  0  0  0
 18 28  1  0  0  0  0
 18 31  2  0  0  0  0
 18 32  1  0  0  0  0
 19 21  2  0  0  0  0
 19 37  1  0  0  0  0
 20 22  2  0  0  0  0
 20 38  1  0  0  0  0
 21 46  1  0  0  0  0
 22 39  1  0  0  0  0
 23 83  1  0  0  0  0
 24 84  1  0  0  0  0
 25 27  2  0  0  0  0
 25 83  1  0  0  0  0
 26 85  1  0  0  0  0
 27 86  1  0  0  0  0
 28 67  2  0  0  0  0
 29 55  1  0  0  0  0
 29 65  2  0  0  0  0
 30 56  1  0  0  0  0
 30 66  1  0  0  0  0
 31 68  1  0  0  0  0
 31 71  1  0  0  0  0
 32 72  1  0  0  0  0
 32 78  2  0  0  0  0
 33 47  1  0  0  0  0
 33 73  1  0  0  0  0
 33 79  2  0  0  0  0
 34 62  1  0  0  0  0
 34 69  1  0  0  0  0
 34 80  2  0  0  0  0
 35 63  1  0  0  0  0
 35 74  1  0  0  0  0
 35 81  2  0  0  0  0
 36 70  1  0  0  0  0
 36 75  1  0  0  0  0
 36 82  2  0  0  0  0
 37 40  1  0  0  0  0
 38 47  1  0  0  0  0
 39 69  1  0  0  0  0
 40 42  1  0  0  0  0
 41 43  1  0  0  0  0
 41 44  1  0  0  0  0
 42 46  1  0  0  0  0
 43 48  1  0  0  0  0
 44 70  1  0  0  0  0
 45 48  1  0  0  0  0
 45 70  1  0  0  0  0
 46 73  1  0  0  0  0
 47 69  1  0  0  0  0
 48 68  1  0  0  0  0
 49 57  1  0  0  0  0
 50 63  1  0  0  0  0
 51 64  1  0  0  0  0
 52 64  1  0  0  0  0
 53 64  1  0  0  0  0
 54 76  1  0  0  0  0
 55 58  1  0  0  0  0
 56 59  1  0  0  0  0
 57 75  1  0  0  0  0
 58 75  1  0  0  0  0
 59 77  1  0  0  0  0
 60 61  1  0  0  0  0
 60 77  1  0  0  0  0
 61 84  1  0  0  0  0
 62 64  1  0  0  0  0
 62 74  1  0  0  0  0
 63 76  1  0  0  0  0
 67 68  1  0  0  0  0
M  CHG  2  76   1  77   1
M  ISO  4  36 100  61 101  75 100  84 101
M  END
> <Batch ID>
0054

> <Smiles>
CC[100N:0](CCc1cnc(CCNC[101CH2:1][101O:1]c2ccc3c(c2)CN(C(=O)C(NC(=O)C(C)NC)C(C)(C)C)C(C(=O)NC2CCCc4ccccc42)C3)cn1)[100C:0](=O)N1CCCC(n2nc(-c3ccc(Oc4ccc(F)cc4F)cc3)c(C(N)=O)c2N)C1

> <Shape>
0.220

> <Color>
0.072

> <Negative vol penalty>
0.000

$$$$

  -OEChem-04052317413D

 77 85  0     1  0  0  0  0  0999 V2000
  -30.2430  -32.2085   25.2828 C   0  0  0  0  0  0  0  0  0  0  0  0
  -30.4860  -31.0356   24.5751 C   0  0  0  0  0  0  0  0  0  0  0  0
  -24.7977   -8.6643   21.5559 C   0  0  0  0  0  0  0  0  0  0  0  0
  -23.1406  -10.0799   20.5134 C   0  0  0  0  0  0  0  0  0  0  0  0
  -28.9818  -32.4433   25.8287 C   0  0  0  0  0  0  0  0  0  0  0  0
  -29.4681  -30.0963   24.4140 C   0  0  0  0  0  0  0  0  0  0  0  0
  -28.4681  -26.5055   19.4640 C   0  0  0  0  0  0  0  0  0  0  0  0
  -23.8225   -8.1536   22.4126 C   0  0  0  0  0  0  0  0  0  0  0  0
  -22.1654   -9.5692   21.3701 C   0  0  0  0  0  0  0  0  0  0  0  0
  -28.7792  -25.1798   19.1648 C   0  0  0  0  0  0  0  0  0  0  0  0
  -21.3211   -5.8832   22.2675 C   0  0  0  0  0  0  0  0  0  0  0  0
  -21.2892   -4.5026   22.4637 C   0  0  0  0  0  0  0  0  0  0  0  0
  -26.5983  -24.4997   19.9391 C   0  0  0  0  0  0  0  0  0  0  0  0
  -21.6630   -4.8301   24.8281 C   0  0  0  0  0  0  0  0  0  0  0  0
  -27.8401  -19.9982   17.7399 C   0  0  0  0  0  0  0  0  0  0  0  0
  -28.0997  -19.5608   19.8791 C   0  0  0  0  0  0  0  0  0  0  0  0
  -24.4567   -9.6275   20.6064 C   0  0  0  0  0  0  0  0  0  0  0  0
  -25.8317   -9.6564   18.4579 C   0  0  0  0  0  0  0  0  0  0  0  0
  -27.9452  -31.5108   25.6659 C   0  0  0  0  0  0  0  0  0  0  0  0
  -27.2215  -26.8381   20.0136 C   0  0  0  0  0  0  0  0  0  0  0  0
  -28.1922  -30.3182   24.9594 C   0  0  0  0  0  0  0  0  0  0  0  0
  -26.2722  -25.8309   20.2398 C   0  0  0  0  0  0  0  0  0  0  0  0
  -27.6702  -20.5470   19.0251 C   0  0  0  0  0  0  0  0  0  0  0  0
  -22.5064   -8.6060   22.3196 C   0  0  0  0  0  0  0  0  0  0  0  0
  -27.8450  -24.1764   19.4045 C   0  0  0  0  0  0  0  0  0  0  0  0
  -21.5239   -6.7373   23.3516 C   0  0  0  0  0  0  0  0  0  0  0  0
  -21.4601   -3.9760   23.7440 C   0  0  0  0  0  0  0  0  0  0  0  0
  -21.6948   -6.2107   24.6318 C   0  0  0  0  0  0  0  0  0  0  0  0
  -25.4637  -10.1558   19.7216 C   0  0  0  0  0  0  0  0  0  0  0  0
  -26.8241  -10.5039   18.0294 C   0  0  0  0  0  0  0  0  0  0  0  0
  -25.3221   -8.5274   17.7358 C   0  0  0  0  0  0  0  0  0  0  0  0
  -26.1657  -28.1978   22.7122 C   0  0  0  0  0  0  0  0  0  0  0  0
  -27.9785  -16.1624   19.4163 C   0  0  0  0  0  0  0  0  0  0  0  0
  -23.2717  -27.9373   21.0964 C   0  0  0  0  0  0  0  0  0  0  0  0
  -21.8570  -30.0213   23.3976 C   0  0  0  0  0  0  0  0  0  0  0  0
  -26.6119  -31.7868   26.3146 C   0  0  0  0  0  0  0  0  0  0  0  0
  -26.8945  -28.2785   20.3010 C   0  0  0  0  0  0  0  0  0  0  0  0
  -24.9196  -26.1366   20.8243 C   0  0  0  0  0  0  0  0  0  0  0  0
  -25.4810  -30.9127   25.7785 C   0  0  0  0  0  0  0  0  0  0  0  0
  -30.2846  -13.3614   19.6674 C   0  0  0  0  0  0  0  0  0  0  0  0
  -25.9233  -29.4548   25.7027 C   0  0  0  0  0  0  0  0  0  0  0  0
  -29.3266  -12.1717   19.6219 C   0  0  0  0  0  0  0  0  0  0  0  0
  -29.6722  -14.5471   20.4083 C   0  0  0  0  0  0  0  0  0  0  0  0
  -27.3908  -13.7927   19.8166 C   0  0  0  0  0  0  0  0  0  0  0  0
  -27.1066  -29.2865   24.7420 C   0  0  1  0  0  0  0  0  0  0  0  0
  -25.7469  -28.4576   21.2928 C   0  0  1  0  0  0  0  0  0  0  0  0
  -27.9590  -12.5860   19.0512 C   0  0  2  0  0  0  0  0  0  0  0  0
  -19.7530  -31.3091   23.8583 C   0  0  0  0  0  0  0  0  0  0  0  0
  -24.0986  -30.0217   19.0283 C   0  0  0  0  0  0  0  0  0  0  0  0
  -22.5783  -31.6523   20.1675 C   0  0  0  0  0  0  0  0  0  0  0  0
  -21.6393  -29.5818   19.1408 C   0  0  0  0  0  0  0  0  0  0  0  0
  -21.3492  -28.5223   25.8983 C   0  0  0  0  0  0  0  0  0  0  0  0
  -27.1417  -21.9047   19.3840 C   0  0  0  0  0  0  0  0  0  1  0  0
  -29.0130  -17.2538   19.5290 C   0  0  0  0  0  0  0  0  0  0  0  0
  -22.9841  -29.4071   21.2746 C   0  0  1  0  0  0  0  0  0  0  0  0
  -20.4982  -30.0011   24.0742 C   0  0  2  0  0  0  0  0  0  0  0  0
  -22.8459  -30.1528   19.9173 C   0  0  0  0  0  0  0  0  0  0  0  0
  -28.3389  -18.7595   17.7700 N   0  0  0  0  0  0  0  0  0  0  0  0
  -26.1652  -11.2367   20.0731 N   0  0  0  0  0  0  0  0  0  0  0  0
  -28.4861  -18.5218   19.0845 N   0  0  0  0  0  0  0  0  0  0  0  0
  -26.9841  -11.4234   19.0239 N   0  0  0  0  0  0  0  0  0  0  0  0
  -24.6184  -27.5624   21.0075 N   0  0  0  0  0  0  0  0  0  0  0  0
  -28.3585  -14.8929   19.8525 N   0  0  0  0  0  0  0  0  0  0  0  0
  -27.5667  -10.5447   16.9028 N   0  0  0  0  0  0  0  0  0  0  0  0
  -24.3028   -7.7644   18.3216 N   0  0  0  0  0  0  0  0  0  0  0  0
  -26.6504  -29.3128   23.3688 N   0  0  0  0  0  0  0  0  0  0  0  0
  -21.8022  -29.4915   22.1257 N   0  0  0  0  0  0  0  0  0  0  0  0
  -20.6530  -29.7849   25.5406 N   0  3  0  0  0  0  0  0  0  0  0  0
  -25.7691   -8.1951   16.6119 O   0  0  0  0  0  0  0  0  0  0  0  0
  -26.0557  -27.0696   23.1777 O   0  0  0  0  0  0  0  0  0  0  0  0
  -26.8677  -16.4315   18.9518 O   0  0  0  0  0  0  0  0  0  0  0  0
  -22.3300  -27.1424   21.0298 O   0  0  0  0  0  0  0  0  0  0  0  0
  -22.8654  -30.4663   23.9414 O   0  0  0  0  0  0  0  0  0  0  0  0
  -21.5545   -8.1078   23.1552 O   0  0  0  0  0  0  0  0  0  0  0  0
  -28.1458  -22.8816   19.1129 O   0  0  0  0  0  0  0  0  0  1  0  0
  -21.4280   -2.6503   23.9325 F   0  0  0  0  0  0  0  0  0  0  0  0
  -21.8889   -7.0262   25.6774 F   0  0  0  0  0  0  0  0  0  0  0  0
  1  2  1  0  0  0  0
  1  5  2  0  0  0  0
  2  6  2  0  0  0  0
  3  8  2  0  0  0  0
  3 17  1  0  0  0  0
  4  9  1  0  0  0  0
  4 17  2  0  0  0  0
  5 19  1  0  0  0  0
  6 21  1  0  0  0  0
  7 10  2  0  0  0  0
  7 20  1  0  0  0  0
  8 24  1  0  0  0  0
  9 24  2  0  0  0  0
 10 25  1  0  0  0  0
 11 12  2  0  0  0  0
 11 26  1  0  0  0  0
 12 27  1  0  0  0  0
 13 22  1  0  0  0  0
 13 25  2  0  0  0  0
 14 27  2  0  0  0  0
 14 28  1  0  0  0  0
 15 23  1  0  0  0  0
 15 58  2  0  0  0  0
 16 23  2  0  0  0  0
 16 60  1  0  0  0  0
 17 29  1  0  0  0  0
 18 29  1  0  0  0  0
 18 30  2  0  0  0  0
 18 31  1  0  0  0  0
 19 21  2  0  0  0  0
 19 36  1  0  0  0  0
 20 22  2  0  0  0  0
 20 37  1  0  0  0  0
 21 45  1  0  0  0  0
 22 38  1  0  0  0  0
 23 53  1  0  0  0  0
 24 74  1  0  0  0  0
 25 75  1  0  0  0  0
 26 28  2  0  0  0  0
 26 74  1  0  0  0  0
 27 76  1  0  0  0  0
 28 77  1  0  0  0  0
 29 59  2  0  0  0  0
 30 61  1  0  0  0  0
 30 64  1  0  0  0  0
 31 65  1  0  0  0  0
 31 69  2  0  0  0  0
 32 46  1  0  0  0  0
 32 66  1  0  0  0  0
 32 70  2  0  0  0  0
 33 54  1  0  0  0  0
 33 63  1  0  0  0  0
 33 71  2  0  0  0  0
 34 55  1  0  0  0  0
 34 62  1  0  0  0  0
 34 72  2  0  0  0  0
 35 56  1  0  0  0  0
 35 67  1  0  0  0  0
 35 73  2  0  0  0  0
 36 39  1  0  0  0  0
 37 46  1  0  0  0  0
 38 62  1  0  0  0  0
 39 41  1  0  0  0  0
 40 42  1  0  0  0  0
 40 43  1  0  0  0  0
 41 45  1  0  0  0  0
 42 47  1  0  0  0  0
 43 63  1  0  0  0  0
 44 47  1  0  0  0  0
 44 63  1  0  0  0  0
 45 66  1  0  0  0  0
 46 62  1  0  0  0  0
 47 61  1  0  0  0  0
 48 56  1  0  0  0  0
 49 57  1  0  0  0  0
 50 57  1  0  0  0  0
 51 57  1  0  0  0  0
 52 68  1  0  0  0  0
 53 75  1  0  0  0  0
 54 60  1  0  0  0  0
 55 57  1  0  0  0  0
 55 67  1  0  0  0  0
 56 68  1  0  0  0  0
 58 60  1  0  0  0  0
 59 61  1  0  0  0  0
M  CHG  1  68   1
M  ISO  4  33 100  53 101  54 100  75 101
M  END
> <Batch ID>
0054

> <Smiles>
CNC(C)C(=O)NC(C(=O)N1Cc2cc([101O:1][101CH2:1]c3cnn([100CH2:0][100C:0](=O)N4CCCC(n5nc(-c6ccc(Oc7ccc(F)cc7F)cc6)c(C(N)=O)c5N)C4)c3)ccc2CC1C(=O)NC1CCCc2ccccc21)C(C)(C)C

> <Shape>
0.293

> <Color>
0.090

> <Negative vol penalty>
0.000

$$$$

  -OEChem-04052317413D

 81 89  0     1  0  0  0  0  0999 V2000
  -21.7705  -12.5166   19.3022 C   0  0  0  0  0  0  0  0  0  0  0  0
  -21.7413  -13.7844   19.8741 C   0  0  0  0  0  0  0  0  0  0  0  0
  -29.4330  -29.0940   20.1102 C   0  0  0  0  0  0  0  0  0  0  0  0
  -29.0029  -26.9433   21.1233 C   0  0  0  0  0  0  0  0  0  0  0  0
  -22.9376  -11.7558   19.3555 C   0  0  0  0  0  0  0  0  0  0  0  0
  -22.8790  -14.2918   20.5007 C   0  0  0  0  0  0  0  0  0  0  0  0
  -23.8083  -19.1070   19.2378 C   0  0  0  0  0  0  0  0  0  0  0  0
  -30.7965  -28.9389   20.3596 C   0  0  0  0  0  0  0  0  0  0  0  0
  -30.3665  -26.7881   21.3727 C   0  0  0  0  0  0  0  0  0  0  0  0
  -23.0372  -20.0884   19.8592 C   0  0  0  0  0  0  0  0  0  0  0  0
  -34.4315  -28.9482   20.4051 C   0  0  0  0  0  0  0  0  0  0  0  0
  -35.3192  -29.2691   19.3782 C   0  0  0  0  0  0  0  0  0  0  0  0
  -24.8457  -20.5293   21.3936 C   0  0  0  0  0  0  0  0  0  0  0  0
  -34.2939  -27.5959   17.9689 C   0  0  0  0  0  0  0  0  0  0  0  0
  -19.9132  -24.0199   21.4460 C   0  0  0  0  0  0  0  0  0  0  0  0
  -28.5361  -28.0962   20.4921 C   0  0  0  0  0  0  0  0  0  0  0  0
  -26.4222  -27.8550   19.0848 C   0  0  0  0  0  0  0  0  0  0  0  0
  -24.0931  -12.2579   19.9746 C   0  0  0  0  0  0  0  0  0  0  0  0
  -25.1020  -18.8213   19.6974 C   0  0  0  0  0  0  0  0  0  0  0  0
  -24.0623  -13.5364   20.5636 C   0  0  0  0  0  0  0  0  0  0  0  0
  -25.6321  -19.5456   20.7747 C   0  0  0  0  0  0  0  0  0  0  0  0
  -31.2633  -27.7859   20.9908 C   0  0  0  0  0  0  0  0  0  0  0  0
  -23.5548  -20.7977   20.9391 C   0  0  0  0  0  0  0  0  0  0  0  0
  -33.4750  -27.9510   20.2140 C   0  0  0  0  0  0  0  0  0  0  0  0
  -35.2505  -28.5930   18.1601 C   0  0  0  0  0  0  0  0  0  0  0  0
  -33.4062  -27.2749   18.9959 C   0  0  0  0  0  0  0  0  0  0  0  0
  -27.1274  -28.2561   20.2352 C   0  0  0  0  0  0  0  0  0  0  0  0
  -20.8427  -23.0862   21.8078 C   0  0  0  0  0  0  0  0  0  0  0  0
  -25.1236  -28.2293   19.3301 C   0  0  0  0  0  0  0  0  0  0  0  0
  -20.4203  -24.3503   23.5753 C   0  0  0  0  0  0  0  0  0  0  0  0
  -26.8983  -27.2023   17.9003 C   0  0  0  0  0  0  0  0  0  0  0  0
  -26.5337  -16.2601   20.9196 C   0  0  0  0  0  0  0  0  0  0  0  0
  -29.1815  -18.1222   20.7105 C   0  0  0  0  0  0  0  0  0  0  0  0
  -30.9366  -21.2611   21.0013 C   0  0  0  0  0  0  0  0  0  0  0  0
  -20.7201  -28.5749   22.7412 C   0  0  0  0  0  0  0  0  0  0  0  0
  -25.3169  -11.3796   20.0489 C   0  0  0  0  0  0  0  0  0  0  0  0
  -25.9309  -17.7783   18.9993 C   0  0  0  0  0  0  0  0  0  0  0  0
  -27.0230  -19.2911   21.2935 C   0  0  0  0  0  0  0  0  0  0  0  0
  -26.5921  -12.1405   20.4028 C   0  0  0  0  0  0  0  0  0  0  0  0
  -23.1705  -31.1478   22.9707 C   0  0  0  0  0  0  0  0  0  0  0  0
  -26.3442  -13.0801   21.5785 C   0  0  0  0  0  0  0  0  0  0  0  0
  -24.3616  -30.5892   22.1903 C   0  0  0  0  0  0  0  0  0  0  0  0
  -22.4378  -30.0526   23.7425 C   0  0  0  0  0  0  0  0  0  0  0  0
  -23.2078  -28.3385   22.1479 C   0  0  0  0  0  0  0  0  0  0  0  0
  -25.2835  -14.1314   21.2304 C   0  0  1  0  0  0  0  0  0  0  0  0
  -27.0439  -17.2139   19.8768 C   0  0  1  0  0  0  0  0  0  0  0  0
  -23.9449  -29.3964   21.3089 C   0  0  2  0  0  0  0  0  0  0  0  0
  -20.4629  -24.8992   24.9536 C   0  0  0  0  0  0  0  0  0  0  0  0
  -33.3190  -21.8525   20.4801 C   0  0  0  0  0  0  0  0  0  0  0  0
  -17.3064  -25.4296   22.3630 C   0  0  0  0  0  0  0  0  0  0  0  0
  -29.6671  -17.5465   23.6673 C   0  0  0  0  0  0  0  0  0  0  0  0
  -31.2620  -19.4761   23.7094 C   0  0  0  0  0  0  0  0  0  0  0  0
  -31.7244  -17.5097   22.2457 C   0  0  0  0  0  0  0  0  0  0  0  0
  -30.1178  -23.4487   19.1839 C   0  0  0  0  0  0  0  0  0  0  0  0
  -21.4945  -21.9822   21.0282 C   0  0  0  0  0  0  0  0  0  1  0  0
  -19.1170  -27.0299   21.6448 C   0  0  0  0  0  0  0  0  0  0  0  0
  -29.8687  -19.1097   21.6224 C   0  0  1  0  0  0  0  0  0  0  0  0
  -31.8821  -21.8713   19.9824 C   0  0  2  0  0  0  0  0  0  0  0  0
  -18.7424  -25.9004   22.6175 C   0  0  2  0  0  0  0  0  0  0  0  0
  -30.6036  -18.4142   22.8029 C   0  0  0  0  0  0  0  0  0  0  0  0
  -26.3420  -28.8406   21.1438 N   0  0  0  0  0  0  0  0  0  0  0  0
  -19.6701  -24.7882   22.5590 N   0  0  0  0  0  0  0  0  0  0  0  0
  -25.1299  -28.8096   20.5644 N   0  0  0  0  0  0  0  0  0  0  0  0
  -21.1385  -23.3143   23.1302 N   0  3  0  0  0  0  0  0  0  0  0  0
  -27.7919  -18.2570   20.5816 N   0  0  0  0  0  0  0  0  0  0  0  0
  -22.0690  -28.9519   22.8490 N   0  0  0  0  0  0  0  0  0  0  0  0
  -23.9885  -28.1154   18.6083 N   0  0  0  0  0  0  0  0  0  0  0  0
  -28.2615  -26.8891   17.8121 N   0  0  0  0  0  0  0  0  0  0  0  0
  -25.8557  -15.1722   20.4035 N   0  0  0  0  0  0  0  0  0  0  0  0
  -30.7361  -19.9165   20.7708 N   0  0  0  0  0  0  0  0  0  0  0  0
  -20.4564  -27.5270   21.8677 N   0  0  0  0  0  0  0  0  0  0  0  0
  -31.5002  -23.2844   19.7025 N   0  3  0  0  0  0  0  0  0  0  0  0
  -26.1403  -26.9205   16.9413 O   0  0  0  0  0  0  0  0  0  0  0  0
  -26.7410  -16.4931   22.1047 O   0  0  0  0  0  0  0  0  0  0  0  0
  -29.8538  -17.2674   20.1284 O   0  0  0  0  0  0  0  0  0  0  0  0
  -30.4297  -21.9113   21.9128 O   0  0  0  0  0  0  0  0  0  0  0  0
  -19.8171  -29.1346   23.3723 O   0  0  0  0  0  0  0  0  0  0  0  0
  -32.5939  -27.6341   21.2342 O   0  0  0  0  0  0  0  0  0  0  0  0
  -22.8041  -21.7557   21.5478 O   0  0  0  0  0  0  0  0  0  1  0  0
  -36.1020  -28.9024   17.1736 F   0  0  0  0  0  0  0  0  0  0  0  0
  -32.4887  -26.3169   18.8059 F   0  0  0  0  0  0  0  0  0  0  0  0
  1  2  1  0  0  0  0
  1  5  2  0  0  0  0
  2  6  2  0  0  0  0
  3  8  2  0  0  0  0
  3 16  1  0  0  0  0
  4  9  1  0  0  0  0
  4 16  2  0  0  0  0
  5 18  1  0  0  0  0
  6 20  1  0  0  0  0
  7 10  2  0  0  0  0
  7 19  1  0  0  0  0
  8 22  1  0  0  0  0
  9 22  2  0  0  0  0
 10 23  1  0  0  0  0
 11 12  2  0  0  0  0
 11 24  1  0  0  0  0
 12 25  1  0  0  0  0
 13 21  1  0  0  0  0
 13 23  2  0  0  0  0
 14 25  2  0  0  0  0
 14 26  1  0  0  0  0
 15 28  2  0  0  0  0
 15 62  1  0  0  0  0
 16 27  1  0  0  0  0
 17 27  1  0  0  0  0
 17 29  2  0  0  0  0
 17 31  1  0  0  0  0
 18 20  2  0  0  0  0
 18 36  1  0  0  0  0
 19 21  2  0  0  0  0
 19 37  1  0  0  0  0
 20 45  1  0  0  0  0
 21 38  1  0  0  0  0
 22 78  1  0  0  0  0
 23 79  1  0  0  0  0
 24 26  2  0  0  0  0
 24 78  1  0  0  0  0
 25 80  1  0  0  0  0
 26 81  1  0  0  0  0
 27 61  2  0  0  0  0
 28 55  1  0  0  0  0
 28 64  1  0  0  0  0
 29 63  1  0  0  0  0
 29 67  1  0  0  0  0
 30 48  1  0  0  0  0
 30 62  1  0  0  0  0
 30 64  2  0  0  0  0
 31 68  1  0  0  0  0
 31 73  2  0  0  0  0
 32 46  1  0  0  0  0
 32 69  1  0  0  0  0
 32 74  2  0  0  0  0
 33 57  1  0  0  0  0
 33 65  1  0  0  0  0
 33 75  2  0  0  0  0
 34 58  1  0  0  0  0
 34 70  1  0  0  0  0
 34 76  2  0  0  0  0
 35 66  1  0  0  0  0
 35 71  1  0  0  0  0
 35 77  2  0  0  0  0
 36 39  1  0  0  0  0
 37 46  1  0  0  0  0
 38 65  1  0  0  0  0
 39 41  1  0  0  0  0
 40 42  1  0  0  0  0
 40 43  1  0  0  0  0
 41 45  1  0  0  0  0
 42 47  1  0  0  0  0
 43 66  1  0  0  0  0
 44 47  1  0  0  0  0
 44 66  1  0  0  0  0
 45 69  1  0  0  0  0
 46 65  1  0  0  0  0
 47 63  1  0  0  0  0
 49 58  1  0  0  0  0
 50 59  1  0  0  0  0
 51 60  1  0  0  0  0
 52 60  1  0  0  0  0
 53 60  1  0  0  0  0
 54 72  1  0  0  0  0
 55 79  1  0  0  0  0
 56 59  1  0  0  0  0
 56 71  1  0  0  0  0
 57 60  1  0  0  0  0
 57 70  1  0  0  0  0
 58 72  1  0  0  0  0
 59 62  1  0  0  0  0
 61 63  1  0  0  0  0
M  CHG  2  64   1  72   1
M  ISO  4  35 100  55 101  71 100  79 101
M  END
> <Batch ID>
0054

> <Smiles>
CNC(C)C(=O)NC(C(=O)N1Cc2cc([101O:1][101CH2:1]c3cn(C(C)C[100NH:0][100C:0](=O)N4CCCC(n5nc(-c6ccc(Oc7ccc(F)cc7F)cc6)c(C(N)=O)c5N)C4)c(C)n3)ccc2CC1C(=O)NC1CCCc2ccccc21)C(C)(C)C

> <Shape>
0.225

> <Color>
0.065

> <Negative vol penalty>
0.000

$$$$

  -OEChem-04052317413D

 80 88  0     1  0  0  0  0  0999 V2000
  -23.2126  -35.5239   24.7283 C   0  0  0  0  0  0  0  0  0  0  0  0
  -24.2426  -34.7021   24.2818 C   0  0  0  0  0  0  0  0  0  0  0  0
  -25.7104  -13.4761   21.4185 C   0  0  0  0  0  0  0  0  0  0  0  0
  -24.9412  -14.1351   19.2251 C   0  0  0  0  0  0  0  0  0  0  0  0
  -21.9728  -34.9733   25.0503 C   0  0  0  0  0  0  0  0  0  0  0  0
  -24.0336  -33.3290   24.1581 C   0  0  0  0  0  0  0  0  0  0  0  0
  -26.4325  -29.6062   19.9282 C   0  0  0  0  0  0  0  0  0  0  0  0
  -24.6894  -12.5287   21.4920 C   0  0  0  0  0  0  0  0  0  0  0  0
  -23.9201  -13.1876   19.2986 C   0  0  0  0  0  0  0  0  0  0  0  0
  -27.5248  -28.7402   19.9519 C   0  0  0  0  0  0  0  0  0  0  0  0
  -24.0737   -9.4312   20.2840 C   0  0  0  0  0  0  0  0  0  0  0  0
  -24.4037   -8.1571   20.7458 C   0  0  0  0  0  0  0  0  0  0  0  0
  -28.2249  -23.6008   16.7156 C   0  0  0  0  0  0  0  0  0  0  0  0
  -26.0494  -26.9032   20.4696 C   0  0  0  0  0  0  0  0  0  0  0  0
  -22.8361   -8.4111   22.5666 C   0  0  0  0  0  0  0  0  0  0  0  0
  -29.0124  -24.6989   16.9612 C   0  0  0  0  0  0  0  0  0  0  0  0
  -25.8363  -14.2794   20.2850 C   0  0  0  0  0  0  0  0  0  0  0  0
  -28.1887  -15.0721   19.6972 C   0  0  0  0  0  0  0  0  0  0  0  0
  -21.7456  -33.5941   24.9213 C   0  0  0  0  0  0  0  0  0  0  0  0
  -25.1396  -29.1284   20.1863 C   0  0  0  0  0  0  0  0  0  0  0  0
  -22.7900  -32.7592   24.4800 C   0  0  0  0  0  0  0  0  0  0  0  0
  -24.9421  -27.7648   20.4461 C   0  0  0  0  0  0  0  0  0  0  0  0
  -23.7942  -12.3844   20.4321 C   0  0  0  0  0  0  0  0  0  0  0  0
  -27.3338  -27.3890   20.2254 C   0  0  0  0  0  0  0  0  0  0  0  0
  -23.1250  -10.1954   20.9635 C   0  0  0  0  0  0  0  0  0  0  0  0
  -23.7849   -7.6470   21.8870 C   0  0  0  0  0  0  0  0  0  0  0  0
  -22.5062   -9.6853   22.1048 C   0  0  0  0  0  0  0  0  0  0  0  0
  -26.8905  -15.2586   20.2087 C   0  0  0  0  0  0  0  0  0  0  0  0
  -28.1791  -22.9183   17.9460 C   0  0  0  0  0  0  0  0  0  0  0  0
  -28.7969  -16.2940   19.8500 C   0  0  0  0  0  0  0  0  0  0  0  0
  -28.7909  -13.8991   19.1341 C   0  0  0  0  0  0  0  0  0  0  0  0
  -22.9346  -29.7079   22.4012 C   0  0  0  0  0  0  0  0  0  0  0  0
  -21.1187  -27.7641   20.5447 C   0  0  0  0  0  0  0  0  0  0  0  0
  -20.9908  -25.2672   18.2218 C   0  0  0  0  0  0  0  0  0  0  0  0
  -26.1800  -21.8042   20.4235 C   0  0  0  0  0  0  0  0  0  0  0  0
  -20.4032  -33.0385   25.3264 C   0  0  0  0  0  0  0  0  0  0  0  0
  -23.9685  -30.0707   20.1306 C   0  0  0  0  0  0  0  0  0  0  0  0
  -23.5718  -27.1981   20.7097 C   0  0  0  0  0  0  0  0  0  0  0  0
  -20.1484  -31.6246   24.8106 C   0  0  0  0  0  0  0  0  0  0  0  0
  -28.7243  -20.2097   22.5882 C   0  0  0  0  0  0  0  0  0  0  0  0
  -21.3654  -30.7387   25.0577 C   0  0  0  0  0  0  0  0  0  0  0  0
  -28.5939  -18.7321   22.2226 C   0  0  0  0  0  0  0  0  0  0  0  0
  -27.4115  -20.9611   22.3893 C   0  0  0  0  0  0  0  0  0  0  0  0
  -26.7073  -19.3425   20.6578 C   0  0  0  0  0  0  0  0  0  0  0  0
  -22.5944  -31.2684   24.3091 C   0  0  1  0  0  0  0  0  0  0  0  0
  -22.7602  -29.5690   20.9153 C   0  0  1  0  0  0  0  0  0  0  0  0
  -28.0250  -18.5664   20.8027 C   0  0  2  0  0  0  0  0  0  0  0  0
  -19.3635  -23.8636   16.9261 C   0  0  0  0  0  0  0  0  0  0  0  0
  -20.5678  -26.1009   23.0428 C   0  0  0  0  0  0  0  0  0  0  0  0
  -19.7682  -24.2548   21.5526 C   0  0  0  0  0  0  0  0  0  0  0  0
  -18.5822  -26.4494   21.5628 C   0  0  0  0  0  0  0  0  0  0  0  0
  -25.1312  -22.4530   18.2884 C   0  0  0  0  0  0  0  0  0  0  0  0
  -21.9974  -26.2848   15.6315 C   0  0  0  0  0  0  0  0  0  0  0  0
  -27.4684  -21.6647   18.2502 C   0  0  0  0  0  0  0  0  0  0  0  0
  -30.2482  -25.5849   19.0273 C   0  0  0  0  0  0  0  0  0  0  0  0
  -29.5016  -26.8603   19.4028 C   0  0  0  0  0  0  0  0  0  1  0  0
  -20.8623  -26.2777   20.4839 C   0  0  1  0  0  0  0  0  0  0  0  0
  -20.2032  -25.1315   16.9312 C   0  0  2  0  0  0  0  0  0  0  0  0
  -19.9713  -25.7814   21.6575 C   0  0  0  0  0  0  0  0  0  0  0  0
  -26.6852  -16.5012   20.6535 N   0  0  0  0  0  0  0  0  0  0  0  0
  -28.8818  -23.5314   18.9022 N   0  0  0  0  0  0  0  0  0  0  0  0
  -29.3766  -24.6107   18.2726 N   0  0  0  0  0  0  0  0  0  0  0  0
  -27.8625  -17.1065   20.4219 N   0  0  0  0  0  0  0  0  0  0  0  0
  -22.4593  -28.1606   20.6505 N   0  0  0  0  0  0  0  0  0  0  0  0
  -26.8710  -20.7515   21.0457 N   0  0  0  0  0  0  0  0  0  0  0  0
  -30.0344  -16.7420   19.5498 N   0  0  0  0  0  0  0  0  0  0  0  0
  -28.0247  -12.7284   19.0520 N   0  0  0  0  0  0  0  0  0  0  0  0
  -22.5178  -30.9252   22.9052 N   0  0  0  0  0  0  0  0  0  0  0  0
  -20.3090  -26.0127   19.1602 N   0  0  0  0  0  0  0  0  0  0  0  0
  -26.2464  -21.8736   19.0236 N   0  0  0  0  0  0  0  0  0  0  0  0
  -21.1272  -25.0880   15.7627 N   0  3  0  0  0  0  0  0  0  0  0  0
  -29.9788  -13.8848   18.7312 O   0  0  0  0  0  0  0  0  0  0  0  0
  -23.4106  -28.7789   23.0431 O   0  0  0  0  0  0  0  0  0  0  0  0
  -20.1651  -28.5449   20.4930 O   0  0  0  0  0  0  0  0  0  0  0  0
  -22.0983  -24.7593   18.3829 O   0  0  0  0  0  0  0  0  0  0  0  0
  -25.5482  -22.6401   21.0822 O   0  0  0  0  0  0  0  0  0  0  0  0
  -22.7979  -11.4598   20.5034 O   0  0  0  0  0  0  0  0  0  0  0  0
  -28.3983  -26.5416   20.2498 O   0  0  0  0  0  0  0  0  0  1  0  0
  -24.1007   -6.4228   22.3295 F   0  0  0  0  0  0  0  0  0  0  0  0
  -21.5931  -10.4142   22.7612 F   0  0  0  0  0  0  0  0  0  0  0  0
  1  2  1  0  0  0  0
  1  5  2  0  0  0  0
  2  6  2  0  0  0  0
  3  8  2  0  0  0  0
  3 17  1  0  0  0  0
  4  9  1  0  0  0  0
  4 17  2  0  0  0  0
  5 19  1  0  0  0  0
  6 21  1  0  0  0  0
  7 10  2  0  0  0  0
  7 20  1  0  0  0  0
  8 23  1  0  0  0  0
  9 23  2  0  0  0  0
 10 24  1  0  0  0  0
 11 12  2  0  0  0  0
 11 25  1  0  0  0  0
 12 26  1  0  0  0  0
 13 16  2  0  0  0  0
 13 29  1  0  0  0  0
 14 22  1  0  0  0  0
 14 24  2  0  0  0  0
 15 26  2  0  0  0  0
 15 27  1  0  0  0  0
 16 62  1  0  0  0  0
 17 28  1  0  0  0  0
 18 28  1  0  0  0  0
 18 30  2  0  0  0  0
 18 31  1  0  0  0  0
 19 21  2  0  0  0  0
 19 36  1  0  0  0  0
 20 22  2  0  0  0  0
 20 37  1  0  0  0  0
 21 45  1  0  0  0  0
 22 38  1  0  0  0  0
 23 77  1  0  0  0  0
 24 78  1  0  0  0  0
 25 27  2  0  0  0  0
 25 77  1  0  0  0  0
 26 79  1  0  0  0  0
 27 80  1  0  0  0  0
 28 60  2  0  0  0  0
 29 54  1  0  0  0  0
 29 61  2  0  0  0  0
 30 63  1  0  0  0  0
 30 66  1  0  0  0  0
 31 67  1  0  0  0  0
 31 72  2  0  0  0  0
 32 46  1  0  0  0  0
 32 68  1  0  0  0  0
 32 73  2  0  0  0  0
 33 57  1  0  0  0  0
 33 64  1  0  0  0  0
 33 74  2  0  0  0  0
 34 58  1  0  0  0  0
 34 69  1  0  0  0  0
 34 75  2  0  0  0  0
 35 65  1  0  0  0  0
 35 70  1  0  0  0  0
 35 76  2  0  0  0  0
 36 39  1  0  0  0  0
 37 46  1  0  0  0  0
 38 64  1  0  0  0  0
 39 41  1  0  0  0  0
 40 42  1  0  0  0  0
 40 43  1  0  0  0  0
 41 45  1  0  0  0  0
 42 47  1  0  0  0  0
 43 65  1  0  0  0  0
 44 47  1  0  0  0  0
 44 65  1  0  0  0  0
 45 68  1  0  0  0  0
 46 64  1  0  0  0  0
 47 63  1  0  0  0  0
 48 58  1  0  0  0  0
 49 59  1  0  0  0  0
 50 59  1  0  0  0  0
 51 59  1  0  0  0  0
 52 70  1  0  0  0  0
 53 71  1  0  0  0  0
 54 70  1  0  0  0  0
 55 56  1  0  0  0  0
 55 62  1  0  0  0  0
 56 78  1  0  0  0  0
 57 59  1  0  0  0  0
 57 69  1  0  0  0  0
 58 71  1  0  0  0  0
 60 63  1  0  0  0  0
 61 62  1  0  0  0  0
M  CHG  1  71   1
M  ISO  4  35 100  56 101  70 100  78 101
M  END
> <Batch ID>
0054

> <Smiles>
CNC(C)C(=O)NC(C(=O)N1Cc2cc([101O:1][101CH2:1]Cn3ccc(C[100N:0](C)[100C:0](=O)N4CCCC(n5nc(-c6ccc(Oc7ccc(F)cc7F)cc6)c(C(N)=O)c5N)C4)n3)ccc2CC1C(=O)NC1CCCc2ccccc21)C(C)(C)C

> <Shape>
0.260

> <Color>
0.107

> <Negative vol penalty>
0.000

$$$$

  -OEChem-04052317413D

 79 87  0     1  0  0  0  0  0999 V2000
  -26.3675  -28.0284    8.5389 C   0  0  0  0  0  0  0  0  0  0  0  0
  -25.9948  -26.8515    9.1804 C   0  0  0  0  0  0  0  0  0  0  0  0
  -23.0814   -9.8145   20.0173 C   0  0  0  0  0  0  0  0  0  0  0  0
  -23.7534   -9.9841   22.3317 C   0  0  0  0  0  0  0  0  0  0  0  0
  -27.4672  -28.7526    8.9971 C   0  0  0  0  0  0  0  0  0  0  0  0
  -26.7225  -26.3976   10.2799 C   0  0  0  0  0  0  0  0  0  0  0  0
  -25.8822  -22.8842   16.4659 C   0  0  0  0  0  0  0  0  0  0  0  0
  -22.3342   -8.6757   20.3177 C   0  0  0  0  0  0  0  0  0  0  0  0
  -23.0062   -8.8453   22.6322 C   0  0  0  0  0  0  0  0  0  0  0  0
  -26.4043  -21.7983   17.1673 C   0  0  0  0  0  0  0  0  0  0  0  0
  -23.3343   -5.4952   22.3156 C   0  0  0  0  0  0  0  0  0  0  0  0
  -23.9270   -4.5260   23.1249 C   0  0  0  0  0  0  0  0  0  0  0  0
  -28.2380  -23.1736   17.9193 C   0  0  0  0  0  0  0  0  0  0  0  0
  -22.1611   -4.8033   24.7503 C   0  0  0  0  0  0  0  0  0  0  0  0
  -29.2380  -18.0372   18.8992 C   0  0  0  0  0  0  0  0  0  0  0  0
  -28.1839  -17.3862   21.2640 C   0  0  0  0  0  0  0  0  0  0  0  0
  -23.7911  -10.4688   21.0243 C   0  0  0  0  0  0  0  0  0  0  0  0
  -24.1249  -12.9823   20.7441 C   0  0  0  0  0  0  0  0  0  0  0  0
  -28.2029  -28.3125   10.1087 C   0  0  0  0  0  0  0  0  0  0  0  0
  -26.5410  -24.1220   16.4770 C   0  0  0  0  0  0  0  0  0  0  0  0
  -27.8339  -27.1160   10.7526 C   0  0  0  0  0  0  0  0  0  0  0  0
  -27.7208  -24.2742   17.2193 C   0  0  0  0  0  0  0  0  0  0  0  0
  -22.2965   -8.1910   21.6251 C   0  0  0  0  0  0  0  0  0  0  0  0
  -27.5839  -21.9421   17.8919 C   0  0  0  0  0  0  0  0  0  0  0  0
  -22.1550   -6.1185   22.7236 C   0  0  0  0  0  0  0  0  0  0  0  0
  -23.3404   -4.1801   24.3422 C   0  0  0  0  0  0  0  0  0  0  0  0
  -21.5684   -5.7725   23.9409 C   0  0  0  0  0  0  0  0  0  0  0  0
  -24.5636  -11.6449   20.7145 C   0  0  0  0  0  0  0  0  0  0  0  0
  -28.0762  -18.6270   19.3462 C   0  0  0  0  0  0  0  0  0  0  0  0
  -29.3453  -16.7957   20.8168 C   0  0  0  0  0  0  0  0  0  0  0  0
  -25.2264  -13.7133   20.3716 C   0  0  0  0  0  0  0  0  0  0  0  0
  -22.8369  -13.5160   21.0785 C   0  0  0  0  0  0  0  0  0  0  0  0
  -27.8814  -25.9697   14.2650 C   0  0  0  0  0  0  0  0  0  0  0  0
  -30.7115  -14.7242   20.7976 C   0  0  0  0  0  0  0  0  0  0  0  0
  -28.1973  -28.0391   16.7428 C   0  0  0  0  0  0  0  0  0  0  0  0
  -28.4101  -28.5086   20.1164 C   0  0  0  0  0  0  0  0  0  0  0  0
  -29.4126  -29.1041   10.5383 C   0  0  0  0  0  0  0  0  0  0  0  0
  -25.9505  -25.2908   15.7369 C   0  0  0  0  0  0  0  0  0  0  0  0
  -28.4556  -25.5876   17.2800 C   0  0  0  0  0  0  0  0  0  0  0  0
  -29.9042  -28.7526   11.9401 C   0  0  0  0  0  0  0  0  0  0  0  0
  -29.6535  -12.2539   18.4274 C   0  0  0  0  0  0  0  0  0  0  0  0
  -29.9704  -27.2391   12.1187 C   0  0  0  0  0  0  0  0  0  0  0  0
  -28.2089  -11.9632   18.8325 C   0  0  0  0  0  0  0  0  0  0  0  0
  -30.5267  -12.5450   19.6439 C   0  0  0  0  0  0  0  0  0  0  0  0
  -28.5679  -13.3596   20.9173 C   0  0  0  0  0  0  0  0  0  0  0  0
  -28.5832  -26.6042   11.9637 C   0  0  1  0  0  0  0  0  0  0  0  0
  -26.9791  -26.3656   15.3993 C   0  0  1  0  0  0  0  0  0  0  0  0
  -27.6450  -13.0904   19.7156 C   0  0  2  0  0  0  0  0  0  0  0  0
  -31.0817  -16.3767   22.6061 C   0  0  0  0  0  0  0  0  0  0  0  0
  -28.7026  -30.3086   21.8402 C   0  0  0  0  0  0  0  0  0  0  0  0
  -31.1677  -28.2025   16.0646 C   0  0  0  0  0  0  0  0  0  0  0  0
  -31.5564  -29.2124   18.3223 C   0  0  0  0  0  0  0  0  0  0  0  0
  -30.1125  -30.3894   16.6632 C   0  0  0  0  0  0  0  0  0  0  0  0
  -25.7916  -27.9067   21.3576 C   0  0  0  0  0  0  0  0  0  0  0  0
  -27.3730  -19.6552   18.5097 C   0  0  0  0  0  0  0  0  0  1  0  0
  -30.0432  -15.7759   21.6470 C   0  0  1  0  0  0  0  0  0  0  0  0
  -29.2513  -28.2976   17.7922 C   0  0  1  0  0  0  0  0  0  0  0  0
  -27.7051  -29.4813   21.0445 C   0  0  2  0  0  0  0  0  0  0  0  0
  -30.5094  -29.0000   17.2080 C   0  0  0  0  0  0  0  0  0  0  0  0
  -27.5285  -18.3124   20.5367 N   0  0  0  0  0  0  0  0  0  0  0  0
  -29.8932  -17.1107   19.6263 N   0  0  0  0  0  0  0  0  0  0  0  0
  -25.8439  -11.5301   20.3517 N   0  0  0  0  0  0  0  0  0  0  0  0
  -26.2191  -12.8047   20.1498 N   0  0  0  0  0  0  0  0  0  0  0  0
  -27.8417  -26.6989   16.5347 N   0  0  0  0  0  0  0  0  0  0  0  0
  -29.9455  -13.6057   20.4688 N   0  0  0  0  0  0  0  0  0  0  0  0
  -25.4330  -15.0381   20.2153 N   0  0  0  0  0  0  0  0  0  0  0  0
  -21.8173  -12.6245   21.4392 N   0  0  0  0  0  0  0  0  0  0  0  0
  -27.8000  -26.8016   13.1646 N   0  0  0  0  0  0  0  0  0  0  0  0
  -28.5916  -29.0433   18.8585 N   0  0  0  0  0  0  0  0  0  0  0  0
  -26.8350  -28.7439   22.0037 N   0  3  0  0  0  0  0  0  0  0  0  0
  -22.5927  -14.7459   21.0423 O   0  0  0  0  0  0  0  0  0  0  0  0
  -28.5994  -24.9833   14.3801 O   0  0  0  0  0  0  0  0  0  0  0  0
  -31.8786  -14.8950   20.4357 O   0  0  0  0  0  0  0  0  0  0  0  0
  -27.7023  -28.9918   16.1354 O   0  0  0  0  0  0  0  0  0  0  0  0
  -28.7675  -27.3880   20.4729 O   0  0  0  0  0  0  0  0  0  0  0  0
  -21.5673   -7.0799   21.9186 O   0  0  0  0  0  0  0  0  0  0  0  0
  -28.0961  -20.8837   18.5769 O   0  0  0  0  0  0  0  0  0  1  0  0
  -23.9089   -3.2483   25.1186 F   0  0  0  0  0  0  0  0  0  0  0  0
  -20.4348   -6.3670   24.3377 F   0  0  0  0  0  0  0  0  0  0  0  0
  1  2  1  0  0  0  0
  1  5  2  0  0  0  0
  2  6  2  0  0  0  0
  3  8  2  0  0  0  0
  3 17  1  0  0  0  0
  4  9  1  0  0  0  0
  4 17  2  0  0  0  0
  5 19  1  0  0  0  0
  6 21  1  0  0  0  0
  7 10  2  0  0  0  0
  7 20  1  0  0  0  0
  8 23  1  0  0  0  0
  9 23  2  0  0  0  0
 10 24  1  0  0  0  0
 11 12  2  0  0  0  0
 11 25  1  0  0  0  0
 12 26  1  0  0  0  0
 13 22  1  0  0  0  0
 13 24  2  0  0  0  0
 14 26  2  0  0  0  0
 14 27  1  0  0  0  0
 15 29  1  0  0  0  0
 15 61  2  0  0  0  0
 16 30  2  0  0  0  0
 16 60  1  0  0  0  0
 17 28  1  0  0  0  0
 18 28  1  0  0  0  0
 18 31  2  0  0  0  0
 18 32  1  0  0  0  0
 19 21  2  0  0  0  0
 19 37  1  0  0  0  0
 20 22  2  0  0  0  0
 20 38  1  0  0  0  0
 21 46  1  0  0  0  0
 22 39  1  0  0  0  0
 23 76  1  0  0  0  0
 24 77  1  0  0  0  0
 25 27  2  0  0  0  0
 25 76  1  0  0  0  0
 26 78  1  0  0  0  0
 27 79  1  0  0  0  0
 28 62  2  0  0  0  0
 29 55  1  0  0  0  0
 29 60  2  0  0  0  0
 30 56  1  0  0  0  0
 30 61  1  0  0  0  0
 31 63  1  0  0  0  0
 31 66  1  0  0  0  0
 32 67  1  0  0  0  0
 32 71  2  0  0  0  0
 33 47  1  0  0  0  0
 33 68  1  0  0  0  0
 33 72  2  0  0  0  0
 34 56  1  0  0  0  0
 34 65  1  0  0  0  0
 34 73  2  0  0  0  0
 35 57  1  0  0  0  0
 35 64  1  0  0  0  0
 35 74  2  0  0  0  0
 36 58  1  0  0  0  0
 36 69  1  0  0  0  0
 36 75  2  0  0  0  0
 37 40  1  0  0  0  0
 38 47  1  0  0  0  0
 39 64  1  0  0  0  0
 40 42  1  0  0  0  0
 41 43  1  0  0  0  0
 41 44  1  0  0  0  0
 42 46  1  0  0  0  0
 43 48  1  0  0  0  0
 44 65  1  0  0  0  0
 45 48  1  0  0  0  0
 45 65  1  0  0  0  0
 46 68  1  0  0  0  0
 47 64  1  0  0  0  0
 48 63  1  0  0  0  0
 49 56  1  0  0  0  0
 50 58  1  0  0  0  0
 51 59  1  0  0  0  0
 52 59  1  0  0  0  0
 53 59  1  0  0  0  0
 54 70  1  0  0  0  0
 55 77  1  0  0  0  0
 57 59  1  0  0  0  0
 57 69  1  0  0  0  0
 58 70  1  0  0  0  0
 62 63  1  0  0  0  0
M  CHG  1  70   1
M  ISO  4  34 100  55 101  56 100  77 101
M  END
> <Batch ID>
0054

> <Smiles>
CNC(C)C(=O)NC(C(=O)N1Cc2cc([101O:1][101CH2:1]c3cnc([100CH:0](C)[100C:0](=O)N4CCCC(n5nc(-c6ccc(Oc7ccc(F)cc7F)cc6)c(C(N)=O)c5N)C4)cn3)ccc2CC1C(=O)NC1CCCc2ccccc21)C(C)(C)C

> <Shape>
0.245

> <Color>
0.219

> <Negative vol penalty>
0.000

$$$$

  -OEChem-04052317413D

 81 89  0     1  0  0  0  0  0999 V2000
  -29.5244  -22.2664   18.0228 C   0  0  0  0  0  0  0  0  0  0  0  0
  -28.6527  -22.0203   19.0788 C   0  0  0  0  0  0  0  0  0  0  0  0
  -27.5309  -12.4405   19.3183 C   0  0  0  0  0  0  0  0  0  0  0  0
  -25.9452  -13.3607   20.8918 C   0  0  0  0  0  0  0  0  0  0  0  0
  -29.9190  -23.5725   17.7360 C   0  0  0  0  0  0  0  0  0  0  0  0
  -28.1760  -23.0803   19.8493 C   0  0  0  0  0  0  0  0  0  0  0  0
  -23.2014  -22.7524   20.7383 C   0  0  0  0  0  0  0  0  0  0  0  0
  -25.9006  -19.4321   26.2717 C   0  0  0  0  0  0  0  0  0  0  0  0
  -27.1415  -11.1509   19.6800 C   0  0  0  0  0  0  0  0  0  0  0  0
  -25.5558  -12.0710   21.2536 C   0  0  0  0  0  0  0  0  0  0  0  0
  -22.7885  -21.8586   21.7255 C   0  0  0  0  0  0  0  0  0  0  0  0
  -23.5820   -9.6259   20.0101 C   0  0  0  0  0  0  0  0  0  0  0  0
  -22.2153   -9.3709   20.1228 C   0  0  0  0  0  0  0  0  0  0  0  0
  -27.2303  -19.4831   25.8685 C   0  0  0  0  0  0  0  0  0  0  0  0
  -22.5712  -23.6881   23.2826 C   0  0  0  0  0  0  0  0  0  0  0  0
  -22.5187   -8.7712   22.4435 C   0  0  0  0  0  0  0  0  0  0  0  0
  -25.4858  -21.3799   24.9714 C   0  0  0  0  0  0  0  0  0  0  0  0
  -26.9328  -13.5454   19.9242 C   0  0  0  0  0  0  0  0  0  0  0  0
  -26.7859  -15.6773   18.5309 C   0  0  0  0  0  0  0  0  0  0  0  0
  -29.4393  -24.6499   18.4973 C   0  0  0  0  0  0  0  0  0  0  0  0
  -23.3129  -24.1217   21.0195 C   0  0  0  0  0  0  0  0  0  0  0  0
  -28.5656  -24.4019   19.5732 C   0  0  0  0  0  0  0  0  0  0  0  0
  -22.9832  -24.5975   22.2966 C   0  0  0  0  0  0  0  0  0  0  0  0
  -25.0053  -20.3949   25.8191 C   0  0  0  0  0  0  0  0  0  0  0  0
  -26.1540  -10.9661   20.6476 C   0  0  0  0  0  0  0  0  0  0  0  0
  -22.4761  -22.3260   22.9987 C   0  0  0  0  0  0  0  0  0  0  0  0
  -24.4171   -9.4535   21.1140 C   0  0  0  0  0  0  0  0  0  0  0  0
  -21.6837   -8.9436   21.3395 C   0  0  0  0  0  0  0  0  0  0  0  0
  -23.8854   -9.0262   22.3307 C   0  0  0  0  0  0  0  0  0  0  0  0
  -27.3349  -14.8778   19.5514 C   0  0  0  0  0  0  0  0  0  0  0  0
  -27.6112  -20.5089   25.0184 C   0  0  0  0  0  0  0  0  0  0  0  0
  -27.5105  -16.8430   18.5807 C   0  0  0  0  0  0  0  0  0  0  0  0
  -25.7165  -15.3917   17.6196 C   0  0  0  0  0  0  0  0  0  0  0  0
  -25.6973  -26.2236   21.0247 C   0  0  0  0  0  0  0  0  0  0  0  0
  -23.3096  -28.3435   21.5970 C   0  0  0  0  0  0  0  0  0  0  0  0
  -20.1614  -28.9098   22.7866 C   0  0  0  0  0  0  0  0  0  0  0  0
  -30.5916  -19.5455   22.9458 C   0  0  0  0  0  0  0  0  0  0  0  0
  -29.9312  -26.0397   18.1790 C   0  0  0  0  0  0  0  0  0  0  0  0
  -23.7339  -25.0763   19.9361 C   0  0  0  0  0  0  0  0  0  0  0  0
  -23.0669  -26.0608   22.6436 C   0  0  0  0  0  0  0  0  0  0  0  0
  -29.0860  -27.1440   18.8086 C   0  0  0  0  0  0  0  0  0  0  0  0
  -31.8314  -18.5182   19.7703 C   0  0  0  0  0  0  0  0  0  0  0  0
  -28.8039  -26.8303   20.2745 C   0  0  0  0  0  0  0  0  0  0  0  0
  -30.7701  -17.5409   19.2620 C   0  0  0  0  0  0  0  0  0  0  0  0
  -32.0268  -18.4039   21.2805 C   0  0  0  0  0  0  0  0  0  0  0  0
  -29.7305  -17.5564   21.5681 C   0  0  0  0  0  0  0  0  0  0  0  0
  -28.0074  -25.5277   20.4165 C   0  0  1  0  0  0  0  0  0  0  0  0
  -24.3061  -26.3820   20.4795 C   0  0  1  0  0  0  0  0  0  0  0  0
  -29.4582  -17.6736   20.0586 C   0  0  2  0  0  0  0  0  0  0  0  0
  -18.4974  -30.7512   23.1576 C   0  0  0  0  0  0  0  0  0  0  0  0
  -24.8985  -29.2868   24.0251 C   0  0  0  0  0  0  0  0  0  0  0  0
  -22.8201  -30.4020   24.8647 C   0  0  0  0  0  0  0  0  0  0  0  0
  -23.8314  -31.1200   22.7003 C   0  0  0  0  0  0  0  0  0  0  0  0
  -18.1877  -27.6482   20.9778 C   0  0  0  0  0  0  0  0  0  0  0  0
  -23.5571  -20.3676   26.2382 C   0  0  0  0  0  0  0  0  0  0  0  0
  -29.0304  -20.5941   24.5652 C   0  0  0  0  0  0  0  0  0  0  0  0
  -22.6605  -19.5532   25.3030 C   0  0  0  0  0  0  0  0  0  0  0  0
  -22.5827  -20.1245   23.8920 C   0  0  0  0  0  0  0  0  0  1  0  0
  -22.6417  -28.8931   22.8343 C   0  0  1  0  0  0  0  0  0  0  0  0
  -18.9862  -29.6731   22.2029 C   0  0  2  0  0  0  0  0  0  0  0  0
  -23.5481  -29.8976   23.6004 C   0  0  0  0  0  0  0  0  0  0  0  0
  -26.7703  -21.4620   24.5579 N   0  0  0  0  0  0  0  0  0  0  0  0
  -28.3315  -15.4843   20.2017 N   0  0  0  0  0  0  0  0  0  0  0  0
  -28.4145  -16.6773   19.5884 N   0  0  0  0  0  0  0  0  0  0  0  0
  -23.4896  -26.9538   21.5522 N   0  0  0  0  0  0  0  0  0  0  0  0
  -30.7454  -18.5400   21.9771 N   0  0  0  0  0  0  0  0  0  0  0  0
  -27.4563  -17.9834   17.8603 N   0  0  0  0  0  0  0  0  0  0  0  0
  -25.0801  -14.1460   17.7056 N   0  0  0  0  0  0  0  0  0  0  0  0
  -26.6123  -25.7516   20.1031 N   0  0  0  0  0  0  0  0  0  0  0  0
  -21.3675  -29.4523   22.3961 N   0  0  0  0  0  0  0  0  0  0  0  0
  -29.3438  -19.6095   23.5537 N   0  0  0  0  0  0  0  0  0  0  0  0
  -17.8541  -28.7455   21.9221 N   0  3  0  0  0  0  0  0  0  0  0  0
  -25.3475  -16.2105   16.7438 O   0  0  0  0  0  0  0  0  0  0  0  0
  -25.9240  -26.5100   22.1944 O   0  0  0  0  0  0  0  0  0  0  0  0
  -23.6523  -29.1180   20.7001 O   0  0  0  0  0  0  0  0  0  0  0  0
  -20.0233  -27.9325   23.5189 O   0  0  0  0  0  0  0  0  0  0  0  0
  -31.4975  -20.3317   23.2429 O   0  0  0  0  0  0  0  0  0  0  0  0
  -25.7736   -9.7079   21.0007 O   0  0  0  0  0  0  0  0  0  0  0  0
  -22.0735  -21.4556   23.9642 O   0  0  0  0  0  0  0  0  0  1  0  0
  -20.3710   -8.7002   21.4481 F   0  0  0  0  0  0  0  0  0  0  0  0
  -24.6825   -8.8599   23.3951 F   0  0  0  0  0  0  0  0  0  0  0  0
  1  2  1  0  0  0  0
  1  5  2  0  0  0  0
  2  6  2  0  0  0  0
  3  9  2  0  0  0  0
  3 18  1  0  0  0  0
  4 10  1  0  0  0  0
  4 18  2  0  0  0  0
  5 20  1  0  0  0  0
  6 22  1  0  0  0  0
  7 11  2  0  0  0  0
  7 21  1  0  0  0  0
  8 14  2  0  0  0  0
  8 24  1  0  0  0  0
  9 25  1  0  0  0  0
 10 25  2  0  0  0  0
 11 26  1  0  0  0  0
 12 13  2  0  0  0  0
 12 27  1  0  0  0  0
 13 28  1  0  0  0  0
 14 31  1  0  0  0  0
 15 23  1  0  0  0  0
 15 26  2  0  0  0  0
 16 28  2  0  0  0  0
 16 29  1  0  0  0  0
 17 24  2  0  0  0  0
 17 62  1  0  0  0  0
 18 30  1  0  0  0  0
 19 30  1  0  0  0  0
 19 32  2  0  0  0  0
 19 33  1  0  0  0  0
 20 22  2  0  0  0  0
 20 38  1  0  0  0  0
 21 23  2  0  0  0  0
 21 39  1  0  0  0  0
 22 47  1  0  0  0  0
 23 40  1  0  0  0  0
 24 55  1  0  0  0  0
 25 78  1  0  0  0  0
 26 79  1  0  0  0  0
 27 29  2  0  0  0  0
 27 78  1  0  0  0  0
 28 80  1  0  0  0  0
 29 81  1  0  0  0  0
 30 63  2  0  0  0  0
 31 56  1  0  0  0  0
 31 62  2  0  0  0  0
 32 64  1  0  0  0  0
 32 67  1  0  0  0  0
 33 68  1  0  0  0  0
 33 73  2  0  0  0  0
 34 48  1  0  0  0  0
 34 69  1  0  0  0  0
 34 74  2  0  0  0  0
 35 59  1  0  0  0  0
 35 65  1  0  0  0  0
 35 75  2  0  0  0  0
 36 60  1  0  0  0  0
 36 70  1  0  0  0  0
 36 76  2  0  0  0  0
 37 66  1  0  0  0  0
 37 71  1  0  0  0  0
 37 77  2  0  0  0  0
 38 41  1  0  0  0  0
 39 48  1  0  0  0  0
 40 65  1  0  0  0  0
 41 43  1  0  0  0  0
 42 44  1  0  0  0  0
 42 45  1  0  0  0  0
 43 47  1  0  0  0  0
 44 49  1  0  0  0  0
 45 66  1  0  0  0  0
 46 49  1  0  0  0  0
 46 66  1  0  0  0  0
 47 69  1  0  0  0  0
 48 65  1  0  0  0  0
 49 64  1  0  0  0  0
 50 60  1  0  0  0  0
 51 61  1  0  0  0  0
 52 61  1  0  0  0  0
 53 61  1  0  0  0  0
 54 72  1  0  0  0  0
 55 57  1  0  0  0  0
 56 71  1  0  0  0  0
 57 58  1  0  0  0  0
 58 79  1  0  0  0  0
 59 61  1  0  0  0  0
 59 70  1  0  0  0  0
 60 72  1  0  0  0  0
 63 64  1  0  0  0  0
M  CHG  1  72   1
M  ISO  4  37 100  58 101  71 100  79 101
M  END
> <Batch ID>
0054

> <Smiles>
CNC(C)C(=O)NC(C(=O)N1Cc2cc([101O:1][101CH2:1]CCc3ccc(C[100NH:0][100C:0](=O)N4CCCC(n5nc(-c6ccc(Oc7ccc(F)cc7F)cc6)c(C(N)=O)c5N)C4)nc3)ccc2CC1C(=O)NC1CCCc2ccccc21)C(C)(C)C

> <Shape>
0.223

> <Color>
0.040

> <Negative vol penalty>
0.000

$$$$

  -OEChem-04052317413D

 82 90  0     1  0  0  0  0  0999 V2000
  -26.5561  -34.3099   25.6247 C   0  0  0  0  0  0  0  0  0  0  0  0
  -27.0083  -33.1292   25.0443 C   0  0  0  0  0  0  0  0  0  0  0  0
  -25.5067  -13.0461   21.5653 C   0  0  0  0  0  0  0  0  0  0  0  0
  -25.7605  -12.9502   19.1646 C   0  0  0  0  0  0  0  0  0  0  0  0
  -25.2134  -34.4432   25.9757 C   0  0  0  0  0  0  0  0  0  0  0  0
  -26.1181  -32.0806   24.8154 C   0  0  0  0  0  0  0  0  0  0  0  0
  -26.6845  -30.0182   20.2251 C   0  0  0  0  0  0  0  0  0  0  0  0
  -25.2270  -11.6799   21.5903 C   0  0  0  0  0  0  0  0  0  0  0  0
  -25.4808  -11.5839   19.1896 C   0  0  0  0  0  0  0  0  0  0  0  0
  -27.7529  -29.1400   20.0491 C   0  0  0  0  0  0  0  0  0  0  0  0
  -22.5914   -9.6652   20.9428 C   0  0  0  0  0  0  0  0  0  0  0  0
  -21.5182   -9.2384   21.7249 C   0  0  0  0  0  0  0  0  0  0  0  0
  -26.2491  -27.2703   20.2972 C   0  0  0  0  0  0  0  0  0  0  0  0
  -23.0157   -7.8617   23.0285 C   0  0  0  0  0  0  0  0  0  0  0  0
  -27.6793  -23.6130   22.2056 C   0  0  0  0  0  0  0  0  0  0  0  0
  -25.7735  -13.6813   20.3524 C   0  0  0  0  0  0  0  0  0  0  0  0
  -27.3252  -15.7044   20.4347 C   0  0  0  0  0  0  0  0  0  0  0  0
  -24.3043  -33.3993   25.7421 C   0  0  0  0  0  0  0  0  0  0  0  0
  -25.3899  -29.5282   20.4497 C   0  0  0  0  0  0  0  0  0  0  0  0
  -24.7622  -32.1996   25.1648 C   0  0  0  0  0  0  0  0  0  0  0  0
  -25.1655  -28.1443   20.4732 C   0  0  0  0  0  0  0  0  0  0  0  0
  -25.2140  -10.9487   20.4025 C   0  0  0  0  0  0  0  0  0  0  0  0
  -27.5358  -27.7658   20.0880 C   0  0  0  0  0  0  0  0  0  0  0  0
  -23.8767   -9.1902   21.2035 C   0  0  0  0  0  0  0  0  0  0  0  0
  -21.7303   -8.3367   22.7677 C   0  0  0  0  0  0  0  0  0  0  0  0
  -24.0889   -8.2885   22.2463 C   0  0  0  0  0  0  0  0  0  0  0  0
  -26.0620  -15.0928   20.3258 C   0  0  0  0  0  0  0  0  0  0  0  0
  -27.0633  -17.0502   20.3524 C   0  0  0  0  0  0  0  0  0  0  0  0
  -27.8960  -24.6866   20.4287 C   0  0  0  0  0  0  0  0  0  0  0  0
  -28.6197  -15.1093   20.5958 C   0  0  0  0  0  0  0  0  0  0  0  0
  -23.2882  -29.7498   22.8241 C   0  0  0  0  0  0  0  0  0  0  0  0
  -21.3501  -28.2027   20.7330 C   0  0  0  0  0  0  0  0  0  0  0  0
  -21.0651  -26.1604   18.0137 C   0  0  0  0  0  0  0  0  0  0  0  0
  -24.2642  -21.1123   17.5272 C   0  0  0  0  0  0  0  0  0  0  0  0
  -22.8720  -33.5721   26.1818 C   0  0  0  0  0  0  0  0  0  0  0  0
  -24.2437  -30.4887   20.6111 C   0  0  0  0  0  0  0  0  0  0  0  0
  -23.7914  -27.5674   20.6909 C   0  0  0  0  0  0  0  0  0  0  0  0
  -21.9177  -32.5542   25.5624 C   0  0  0  0  0  0  0  0  0  0  0  0
  -22.7024  -19.5899   20.5180 C   0  0  0  0  0  0  0  0  0  0  0  0
  -22.5034  -31.1488   25.6541 C   0  0  0  0  0  0  0  0  0  0  0  0
  -23.5026  -18.3001   20.6916 C   0  0  0  0  0  0  0  0  0  0  0  0
  -22.6563  -20.0369   19.0600 C   0  0  0  0  0  0  0  0  0  0  0  0
  -24.7975  -18.8876   18.6038 C   0  0  0  0  0  0  0  0  0  0  0  0
  -23.8221  -31.0489   24.8779 C   0  0  1  0  0  0  0  0  0  0  0  0
  -23.0531  -29.8801   21.3457 C   0  0  1  0  0  0  0  0  0  0  0  0
  -24.9027  -18.4350   20.0680 C   0  0  2  0  0  0  0  0  0  0  0  0
  -29.9274  -26.1870   17.4470 C   0  0  0  0  0  0  0  0  0  0  0  0
  -19.3516  -25.0416   16.5613 C   0  0  0  0  0  0  0  0  0  0  0  0
  -20.8505  -26.1343   22.9197 C   0  0  0  0  0  0  0  0  0  0  0  0
  -19.9442  -24.5981   21.1628 C   0  0  0  0  0  0  0  0  0  0  0  0
  -18.8198  -26.7793   21.6104 C   0  0  0  0  0  0  0  0  0  0  0  0
  -26.0936  -22.1010   16.2022 C   0  0  0  0  0  0  0  0  0  0  0  0
  -21.9989  -27.6008   15.6029 C   0  0  0  0  0  0  0  0  0  0  0  0
  -29.4980  -25.1806   18.5041 C   0  0  0  0  0  0  0  0  0  0  0  0
  -26.2013  -23.3790   19.0935 C   0  0  0  0  0  0  0  0  0  0  0  0
  -26.3809  -21.9305   18.6464 C   0  0  0  0  0  0  0  0  0  0  0  0
  -28.2847  -25.6418   19.3242 C   0  0  2  0  0  0  0  0  0  1  0  0
  -21.0511  -26.7560   20.4219 C   0  0  1  0  0  0  0  0  0  0  0  0
  -20.2252  -26.2715   16.7541 C   0  0  2  0  0  0  0  0  0  0  0  0
  -20.1927  -26.0775   21.5265 C   0  0  0  0  0  0  0  0  0  0  0  0
  -28.3685  -24.6544   21.6531 N   0  0  0  0  0  0  0  0  0  0  0  0
  -26.8102  -22.9989   21.4001 N   0  0  0  0  0  0  0  0  0  0  0  0
  -25.0711  -15.9774   20.1852 N   0  0  0  0  0  0  0  0  0  0  0  0
  -25.7117  -17.1586   20.2053 N   0  0  0  0  0  0  0  0  0  0  0  0
  -26.9683  -23.7048   20.2701 N   0  0  0  0  0  0  0  0  0  0  0  0
  -22.7041  -28.5473   20.8498 N   0  0  0  0  0  0  0  0  0  0  0  0
  -23.9972  -20.1150   18.4796 N   0  0  0  0  0  0  0  0  0  0  0  0
  -27.8596  -18.1396   20.3923 N   0  0  0  0  0  0  0  0  0  0  0  0
  -28.7092  -13.7122   20.6618 N   0  0  0  0  0  0  0  0  0  0  0  0
  -23.5658  -30.9462   23.4572 N   0  0  0  0  0  0  0  0  0  0  0  0
  -20.4404  -26.7412   19.0971 N   0  0  0  0  0  0  0  0  0  0  0  0
  -25.5757  -21.6078   17.4705 N   0  0  0  0  0  0  0  0  0  0  0  0
  -21.1020  -26.4174   15.5580 N   0  3  0  0  0  0  0  0  0  0  0  0
  -29.6642  -15.7968   20.6951 O   0  0  0  0  0  0  0  0  0  0  0  0
  -23.2212  -28.6457   23.3515 O   0  0  0  0  0  0  0  0  0  0  0  0
  -20.4168  -28.9992   20.8604 O   0  0  0  0  0  0  0  0  0  0  0  0
  -22.1638  -25.6099   18.0353 O   0  0  0  0  0  0  0  0  0  0  0  0
  -23.3785  -21.5424   16.7773 O   0  0  0  0  0  0  0  0  0  0  0  0
  -24.9413   -9.6155   20.4266 O   0  0  0  0  0  0  0  0  0  0  0  0
  -28.5770  -26.9064   19.9171 O   0  0  0  0  0  0  0  0  0  1  0  0
  -20.6999   -7.9282   23.5197 F   0  0  0  0  0  0  0  0  0  0  0  0
  -25.3216   -7.8296   22.5023 F   0  0  0  0  0  0  0  0  0  0  0  0
  1  2  1  0  0  0  0
  1  5  2  0  0  0  0
  2  6  2  0  0  0  0
  3  8  2  0  0  0  0
  3 16  1  0  0  0  0
  4  9  1  0  0  0  0
  4 16  2  0  0  0  0
  5 18  1  0  0  0  0
  6 20  1  0  0  0  0
  7 10  2  0  0  0  0
  7 19  1  0  0  0  0
  8 22  1  0  0  0  0
  9 22  2  0  0  0  0
 10 23  1  0  0  0  0
 11 12  2  0  0  0  0
 11 24  1  0  0  0  0
 12 25  1  0  0  0  0
 13 21  1  0  0  0  0
 13 23  2  0  0  0  0
 14 25  2  0  0  0  0
 14 26  1  0  0  0  0
 15 61  1  0  0  0  0
 15 62  2  0  0  0  0
 16 27  1  0  0  0  0
 17 27  1  0  0  0  0
 17 28  2  0  0  0  0
 17 30  1  0  0  0  0
 18 20  2  0  0  0  0
 18 35  1  0  0  0  0
 19 21  2  0  0  0  0
 19 36  1  0  0  0  0
 20 44  1  0  0  0  0
 21 37  1  0  0  0  0
 22 79  1  0  0  0  0
 23 80  1  0  0  0  0
 24 26  2  0  0  0  0
 24 79  1  0  0  0  0
 25 81  1  0  0  0  0
 26 82  1  0  0  0  0
 27 63  2  0  0  0  0
 28 64  1  0  0  0  0
 28 68  1  0  0  0  0
 29 57  1  0  0  0  0
 29 61  2  0  0  0  0
 29 65  1  0  0  0  0
 30 69  1  0  0  0  0
 30 74  2  0  0  0  0
 31 45  1  0  0  0  0
 31 70  1  0  0  0  0
 31 75  2  0  0  0  0
 32 58  1  0  0  0  0
 32 66  1  0  0  0  0
 32 76  2  0  0  0  0
 33 59  1  0  0  0  0
 33 71  1  0  0  0  0
 33 77  2  0  0  0  0
 34 67  1  0  0  0  0
 34 72  1  0  0  0  0
 34 78  2  0  0  0  0
 35 38  1  0  0  0  0
 36 45  1  0  0  0  0
 37 66  1  0  0  0  0
 38 40  1  0  0  0  0
 39 41  1  0  0  0  0
 39 42  1  0  0  0  0
 40 44  1  0  0  0  0
 41 46  1  0  0  0  0
 42 67  1  0  0  0  0
 43 46  1  0  0  0  0
 43 67  1  0  0  0  0
 44 70  1  0  0  0  0
 45 66  1  0  0  0  0
 46 64  1  0  0  0  0
 47 54  1  0  0  0  0
 48 59  1  0  0  0  0
 49 60  1  0  0  0  0
 50 60  1  0  0  0  0
 51 60  1  0  0  0  0
 52 72  1  0  0  0  0
 53 73  1  0  0  0  0
 54 57  1  0  0  0  0
 55 56  1  0  0  0  0
 55 65  1  0  0  0  0
 56 72  1  0  0  0  0
 57 80  1  0  0  0  0
 58 60  1  0  0  0  0
 58 71  1  0  0  0  0
 59 73  1  0  0  0  0
 62 65  1  0  0  0  0
 63 64  1  0  0  0  0
M  CHG  1  73   1
M  ISO  4  34 100  57 101  72 100  80 101
M  END
> <Batch ID>
0054

> <Smiles>
CC[101CH:1](c1ncnn1CC[100N:0](C)[100C:0](=O)N1CCCC(n2nc(-c3ccc(Oc4ccc(F)cc4F)cc3)c(C(N)=O)c2N)C1)[101O:1]c1ccc2c(c1)CN(C(=O)C(NC(=O)C(C)NC)C(C)(C)C)C(C(=O)NC1CCCc3ccccc31)C2

> <Shape>
0.250

> <Color>
0.085

> <Negative vol penalty>
0.000

$$$$

  -OEChem-04052317413D

 84 92  0     1  0  0  0  0  0999 V2000
  -24.6684  -22.2094   15.0479 C   0  0  0  0  0  0  0  0  0  0  0  0
  -25.3363  -21.0245   14.7554 C   0  0  0  0  0  0  0  0  0  0  0  0
  -26.5989  -28.9248   19.3346 C   0  0  0  0  0  0  0  0  0  0  0  0
  -25.8472  -27.0948   20.7213 C   0  0  0  0  0  0  0  0  0  0  0  0
  -24.4060  -22.5513   16.3739 C   0  0  0  0  0  0  0  0  0  0  0  0
  -25.7431  -20.1814   15.7888 C   0  0  0  0  0  0  0  0  0  0  0  0
  -26.6871  -13.2401   17.2868 C   0  0  0  0  0  0  0  0  0  0  0  0
  -25.4853  -29.6724   19.7175 C   0  0  0  0  0  0  0  0  0  0  0  0
  -24.7337  -27.8424   21.1043 C   0  0  0  0  0  0  0  0  0  0  0  0
  -27.6534  -12.3676   17.7854 C   0  0  0  0  0  0  0  0  0  0  0  0
  -23.0287  -32.1986   20.6112 C   0  0  0  0  0  0  0  0  0  0  0  0
  -23.2327  -33.5336   20.9602 C   0  0  0  0  0  0  0  0  0  0  0  0
  -27.0757  -13.0222   20.0342 C   0  0  0  0  0  0  0  0  0  0  0  0
  -24.7175  -32.8423   22.7363 C   0  0  0  0  0  0  0  0  0  0  0  0
  -30.1677  -14.0923   21.5793 C   0  0  0  0  0  0  0  0  0  0  0  0
  -31.2916  -13.2211   19.8957 C   0  0  0  0  0  0  0  0  0  0  0  0
  -26.7798  -27.6360   19.8364 C   0  0  0  0  0  0  0  0  0  0  0  0
  -29.1870  -26.8252   20.0727 C   0  0  0  0  0  0  0  0  0  0  0  0
  -24.8013  -21.7072   17.4236 C   0  0  0  0  0  0  0  0  0  0  0  0
  -25.9140  -14.0196   18.1592 C   0  0  0  0  0  0  0  0  0  0  0  0
  -25.4869  -20.5129   17.1302 C   0  0  0  0  0  0  0  0  0  0  0  0
  -26.0984  -13.9020   19.5442 C   0  0  0  0  0  0  0  0  0  0  0  0
  -24.5527  -29.1313   20.6024 C   0  0  0  0  0  0  0  0  0  0  0  0
  -27.8499  -12.2607   19.1591 C   0  0  0  0  0  0  0  0  0  0  0  0
  -23.6691  -31.1855   21.3248 C   0  0  0  0  0  0  0  0  0  0  0  0
  -24.0771  -33.8555   22.0227 C   0  0  0  0  0  0  0  0  0  0  0  0
  -24.5135  -31.5073   22.3873 C   0  0  0  0  0  0  0  0  0  0  0  0
  -27.9296  -26.8630   19.4408 C   0  0  0  0  0  0  0  0  0  0  0  0
  -31.1280  -14.9592   21.1135 C   0  0  0  0  0  0  0  0  0  0  0  0
  -29.9251  -25.9478   19.3165 C   0  0  0  0  0  0  0  0  0  0  0  0
  -29.6466  -27.5208   21.2391 C   0  0  0  0  0  0  0  0  0  0  0  0
  -25.5270  -17.1385   18.6351 C   0  0  0  0  0  0  0  0  0  0  0  0
  -23.2163  -16.1438   20.6829 C   0  0  0  0  0  0  0  0  0  0  0  0
  -21.9844  -13.6635   22.6772 C   0  0  0  0  0  0  0  0  0  0  0  0
  -29.3213  -21.0452   16.2975 C   0  0  0  0  0  0  0  0  0  0  0  0
  -24.5374  -22.1420   18.8435 C   0  0  0  0  0  0  0  0  0  0  0  0
  -24.8572  -14.9363   17.6067 C   0  0  0  0  0  0  0  0  0  0  0  0
  -25.2805  -14.7018   20.5240 C   0  0  0  0  0  0  0  0  0  0  0  0
  -24.6702  -21.0121   19.8612 C   0  0  0  0  0  0  0  0  0  0  0  0
  -29.6136  -24.2125   14.6976 C   0  0  0  0  0  0  0  0  0  0  0  0
  -25.9455  -20.2139   19.6093 C   0  0  0  0  0  0  0  0  0  0  0  0
  -29.3261  -25.2153   15.8164 C   0  0  0  0  0  0  0  0  0  0  0  0
  -28.7531  -22.9579   14.8294 C   0  0  0  0  0  0  0  0  0  0  0  0
  -28.5399  -23.2939   17.2616 C   0  0  0  0  0  0  0  0  0  0  0  0
  -25.9222  -19.5602   18.2224 C   0  0  1  0  0  0  0  0  0  0  0  0
  -24.4815  -16.0617   18.5657 C   0  0  1  0  0  0  0  0  0  0  0  0
  -29.4236  -24.5516   17.2032 C   0  0  2  0  0  0  0  0  0  0  0  0
  -20.1005  -13.1584   24.2562 C   0  0  0  0  0  0  0  0  0  0  0  0
  -30.3600  -10.5295   21.2190 C   0  0  0  0  0  0  0  0  0  0  0  0
  -24.5664  -17.8379   22.8317 C   0  0  0  0  0  0  0  0  0  0  0  0
  -23.2547  -16.5768   24.5514 C   0  0  0  0  0  0  0  0  0  0  0  0
  -22.0678  -17.9447   22.8359 C   0  0  0  0  0  0  0  0  0  0  0  0
  -21.0100  -11.4384   20.9866 C   0  0  0  0  0  0  0  0  0  0  0  0
  -29.0917  -17.0975   21.7826 C   0  0  0  0  0  0  0  0  0  0  0  0
  -31.4469  -16.3104   21.5989 C   0  0  0  0  0  0  0  0  0  0  0  0
  -29.9093  -18.9475   19.3950 C   0  0  0  0  0  0  0  0  0  0  0  0
  -29.8679  -19.2277   17.8966 C   0  0  0  0  0  0  0  0  0  0  0  0
  -30.3930  -17.5367   19.7052 C   0  0  0  0  0  0  0  0  0  0  0  0
  -23.1707  -15.7767   22.1465 C   0  0  1  0  0  0  0  0  0  0  0  0
  -20.5884  -13.0839   22.8177 C   0  0  2  0  0  0  0  0  0  0  0  0
  -29.4545  -11.7182   20.8889 C   0  0  1  0  0  0  0  0  0  1  0  0
  -23.2818  -17.0202   23.0731 C   0  0  0  0  0  0  0  0  0  0  0  0
  -31.8239  -14.4110   20.0653 N   0  0  0  0  0  0  0  0  0  0  0  0
  -27.8689  -26.0727   18.3657 N   0  0  0  0  0  0  0  0  0  0  0  0
  -30.2843  -12.9836   20.7891 N   0  0  0  0  0  0  0  0  0  0  0  0
  -29.0974  -25.5300   18.3163 N   0  0  0  0  0  0  0  0  0  0  0  0
  -24.2641  -15.5888   19.9345 N   0  0  0  0  0  0  0  0  0  0  0  0
  -28.8922  -22.3763   16.1667 N   0  0  0  0  0  0  0  0  0  0  0  0
  -31.1950  -25.5008   19.4161 N   0  0  0  0  0  0  0  0  0  0  0  0
  -28.7586  -28.3840   21.8955 N   0  0  0  0  0  0  0  0  0  0  0  0
  -25.0807  -18.3828   18.2326 N   0  0  0  0  0  0  0  0  0  0  0  0
  -21.9509  -14.9986   22.3343 N   0  0  0  0  0  0  0  0  0  0  0  0
  -29.4325  -20.5743   17.6001 N   0  0  0  0  0  0  0  0  0  0  0  0
  -20.5748  -11.6564   22.3902 N   0  3  0  0  0  0  0  0  0  0  0  0
  -30.4526  -17.3553   21.1969 N   0  3  1  0  0  0  0  0  0  0  0  0
  -30.8154  -27.3938   21.6765 O   0  0  0  0  0  0  0  0  0  0  0  0
  -26.6548  -16.8614   19.0262 O   0  0  0  0  0  0  0  0  0  0  0  0
  -22.3501  -16.8895   20.2191 O   0  0  0  0  0  0  0  0  0  0  0  0
  -23.0026  -12.9993   22.8575 O   0  0  0  0  0  0  0  0  0  0  0  0
  -29.5909  -20.3312   15.3257 O   0  0  0  0  0  0  0  0  0  0  0  0
  -23.4661  -29.8606   20.9765 O   0  0  0  0  0  0  0  0  0  0  0  0
  -28.7929  -11.4103   19.6484 O   0  0  0  0  0  0  0  0  0  1  0  0
  -24.2741  -35.1376   22.3568 F   0  0  0  0  0  0  0  0  0  0  0  0
  -25.1324  -30.5384   23.0758 F   0  0  0  0  0  0  0  0  0  0  0  0
  1  2  1  0  0  0  0
  1  5  2  0  0  0  0
  2  6  2  0  0  0  0
  3  8  2  0  0  0  0
  3 17  1  0  0  0  0
  4  9  1  0  0  0  0
  4 17  2  0  0  0  0
  5 19  1  0  0  0  0
  6 21  1  0  0  0  0
  7 10  2  0  0  0  0
  7 20  1  0  0  0  0
  8 23  1  0  0  0  0
  9 23  2  0  0  0  0
 10 24  1  0  0  0  0
 11 12  2  0  0  0  0
 11 25  1  0  0  0  0
 12 26  1  0  0  0  0
 13 22  1  0  0  0  0
 13 24  2  0  0  0  0
 14 26  2  0  0  0  0
 14 27  1  0  0  0  0
 15 29  2  0  0  0  0
 15 65  1  0  0  0  0
 16 63  2  0  0  0  0
 16 65  1  0  0  0  0
 17 28  1  0  0  0  0
 18 28  1  0  0  0  0
 18 30  2  0  0  0  0
 18 31  1  0  0  0  0
 19 21  2  0  0  0  0
 19 36  1  0  0  0  0
 20 22  2  0  0  0  0
 20 37  1  0  0  0  0
 21 45  1  0  0  0  0
 22 38  1  0  0  0  0
 23 81  1  0  0  0  0
 24 82  1  0  0  0  0
 25 27  2  0  0  0  0
 25 81  1  0  0  0  0
 26 83  1  0  0  0  0
 27 84  1  0  0  0  0
 28 64  2  0  0  0  0
 29 55  1  0  0  0  0
 29 63  1  0  0  0  0
 30 66  1  0  0  0  0
 30 69  1  0  0  0  0
 31 70  1  0  0  0  0
 31 76  2  0  0  0  0
 32 46  1  0  0  0  0
 32 71  1  0  0  0  0
 32 77  2  0  0  0  0
 33 59  1  0  0  0  0
 33 67  1  0  0  0  0
 33 78  2  0  0  0  0
 34 60  1  0  0  0  0
 34 72  1  0  0  0  0
 34 79  2  0  0  0  0
 35 68  1  0  0  0  0
 35 73  1  0  0  0  0
 35 80  2  0  0  0  0
 36 39  1  0  0  0  0
 37 46  1  0  0  0  0
 38 67  1  0  0  0  0
 39 41  1  0  0  0  0
 40 42  1  0  0  0  0
 40 43  1  0  0  0  0
 41 45  1  0  0  0  0
 42 47  1  0  0  0  0
 43 68  1  0  0  0  0
 44 47  1  0  0  0  0
 44 68  1  0  0  0  0
 45 71  1  0  0  0  0
 46 67  1  0  0  0  0
 47 66  1  0  0  0  0
 48 60  1  0  0  0  0
 49 61  1  0  0  0  0
 50 62  1  0  0  0  0
 51 62  1  0  0  0  0
 52 62  1  0  0  0  0
 53 74  1  0  0  0  0
 54 75  1  0  0  0  0
 55 75  1  0  0  0  0
 56 57  1  0  0  0  0
 56 58  1  0  0  0  0
 57 73  1  0  0  0  0
 58 75  1  0  0  0  0
 59 62  1  0  0  0  0
 59 72  1  0  0  0  0
 60 74  1  0  0  0  0
 61 65  1  0  0  0  0
 61 82  1  0  0  0  0
 64 66  1  0  0  0  0
M  CHG  2  74   1  75   1
M  ISO  4  35 100  61 101  73 100  82 101
M  END
> <Batch ID>
0054

> <Smiles>
CNC(C)C(=O)NC(C(=O)N1Cc2cc([101O:1][101CH:1](C)n3cnc(CN(C)CCC[100NH:0][100C:0](=O)N4CCCC(n5nc(-c6ccc(Oc7ccc(F)cc7F)cc6)c(C(N)=O)c5N)C4)c3)ccc2CC1C(=O)NC1CCCc2ccccc21)C(C)(C)C

> <Shape>
0.238

> <Color>
0.048

> <Negative vol penalty>
0.000

$$$$

  -OEChem-04052317413D

 84 92  0     1  0  0  0  0  0999 V2000
  -28.6676  -37.4510   23.8008 C   0  0  0  0  0  0  0  0  0  0  0  0
  -29.0670  -36.2673   23.1887 C   0  0  0  0  0  0  0  0  0  0  0  0
  -27.4130  -24.4864   27.9360 C   0  0  0  0  0  0  0  0  0  0  0  0
  -26.9217  -22.2645   28.7476 C   0  0  0  0  0  0  0  0  0  0  0  0
  -27.6295  -37.4375   24.7314 C   0  0  0  0  0  0  0  0  0  0  0  0
  -28.4291  -35.0690   23.5077 C   0  0  0  0  0  0  0  0  0  0  0  0
  -27.3116  -30.3755   19.7358 C   0  0  0  0  0  0  0  0  0  0  0  0
  -26.9228  -25.0288   29.1239 C   0  0  0  0  0  0  0  0  0  0  0  0
  -26.4315  -22.8068   29.9355 C   0  0  0  0  0  0  0  0  0  0  0  0
  -27.9726  -29.1669   19.5209 C   0  0  0  0  0  0  0  0  0  0  0  0
  -23.9087  -25.7099   30.4932 C   0  0  0  0  0  0  0  0  0  0  0  0
  -23.0597  -26.8127   30.3995 C   0  0  0  0  0  0  0  0  0  0  0  0
  -26.4517  -28.0719   21.0399 C   0  0  0  0  0  0  0  0  0  0  0  0
  -24.6168  -28.1222   31.7024 C   0  0  0  0  0  0  0  0  0  0  0  0
  -28.4550  -23.8544   19.1220 C   0  0  0  0  0  0  0  0  0  0  0  0
  -29.4768  -23.9934   21.2179 C   0  0  0  0  0  0  0  0  0  0  0  0
  -27.4124  -23.1043   27.7478 C   0  0  0  0  0  0  0  0  0  0  0  0
  -29.2421  -22.1507   26.2476 C   0  0  0  0  0  0  0  0  0  0  0  0
  -26.9722  -36.2400   25.0549 C   0  0  0  0  0  0  0  0  0  0  0  0
  -26.2206  -30.4437   20.6143 C   0  0  0  0  0  0  0  0  0  0  0  0
  -27.3821  -35.0393   24.4446 C   0  0  0  0  0  0  0  0  0  0  0  0
  -25.7770  -29.2821   21.2623 C   0  0  0  0  0  0  0  0  0  0  0  0
  -28.5492  -24.5066   20.3345 C   0  0  0  0  0  0  0  0  0  0  0  0
  -26.4321  -24.1890   30.1237 C   0  0  0  0  0  0  0  0  0  0  0  0
  -27.5445  -28.0155   20.1752 C   0  0  0  0  0  0  0  0  0  0  0  0
  -25.1117  -25.8133   31.1916 C   0  0  0  0  0  0  0  0  0  0  0  0
  -23.4137  -28.0188   31.0041 C   0  0  0  0  0  0  0  0  0  0  0  0
  -25.4658  -27.0195   31.7962 C   0  0  0  0  0  0  0  0  0  0  0  0
  -27.9181  -22.5434   26.5206 C   0  0  0  0  0  0  0  0  0  0  0  0
  -29.2030  -21.6864   24.9555 C   0  0  0  0  0  0  0  0  0  0  0  0
  -30.0719  -22.3782   19.7333 C   0  0  0  0  0  0  0  0  0  0  0  0
  -30.4035  -22.2009   27.0869 C   0  0  0  0  0  0  0  0  0  0  0  0
  -25.6140  -31.9954   23.3213 C   0  0  0  0  0  0  0  0  0  0  0  0
  -22.6531  -30.7308   22.9268 C   0  0  0  0  0  0  0  0  0  0  0  0
  -20.7071  -28.2805   21.5643 C   0  0  0  0  0  0  0  0  0  0  0  0
  -26.4329  -18.3868   21.2466 C   0  0  0  0  0  0  0  0  0  0  0  0
  -25.8870  -36.2675   26.1019 C   0  0  0  0  0  0  0  0  0  0  0  0
  -25.5016  -31.7496   20.8147 C   0  0  0  0  0  0  0  0  0  0  0  0
  -24.5982  -29.2979   22.1996 C   0  0  0  0  0  0  0  0  0  0  0  0
  -25.0130  -35.0160   26.1064 C   0  0  0  0  0  0  0  0  0  0  0  0
  -25.5929  -21.9867   21.4382 C   0  0  0  0  0  0  0  0  0  0  0  0
  -25.8775  -33.7609   26.0408 C   0  0  0  0  0  0  0  0  0  0  0  0
  -26.1743  -22.3929   22.7913 C   0  0  0  0  0  0  0  0  0  0  0  0
  -25.1932  -20.5146   21.4114 C   0  0  0  0  0  0  0  0  0  0  0  0
  -26.8712  -19.9917   23.1506 C   0  0  0  0  0  0  0  0  0  0  0  0
  -26.6982  -33.7234   24.7459 C   0  0  1  0  0  0  0  0  0  0  0  0
  -24.7235  -31.8082   22.1256 C   0  0  1  0  0  0  0  0  0  0  0  0
  -27.3272  -21.4578   23.1960 C   0  0  2  0  0  0  0  0  0  0  0  0
  -18.3281  -27.4902   21.4491 C   0  0  0  0  0  0  0  0  0  0  0  0
  -22.8895  -29.6141   25.7565 C   0  0  0  0  0  0  0  0  0  0  0  0
  -20.9739  -28.0874   25.2392 C   0  0  0  0  0  0  0  0  0  0  0  0
  -20.6440  -30.5596   25.1923 C   0  0  0  0  0  0  0  0  0  0  0  0
  -27.9299  -16.5678   20.5189 C   0  0  0  0  0  0  0  0  0  0  0  0
  -20.6140  -28.6221   18.6260 C   0  0  0  0  0  0  0  0  0  0  0  0
  -31.9101  -19.1234   20.3620 C   0  0  0  0  0  0  0  0  0  0  0  0
  -27.6964  -25.6944   20.6709 C   0  0  0  0  0  0  0  0  0  1  0  0
  -30.9155  -21.1943   19.4015 C   0  0  0  0  0  0  0  0  0  0  0  0
  -28.9468  -18.6567   21.3483 C   0  0  0  0  0  0  0  0  0  0  0  0
  -29.4436  -19.2991   20.0665 C   0  0  0  0  0  0  0  0  0  0  0  0
  -21.9722  -29.4511   23.3486 C   0  0  1  0  0  0  0  0  0  0  0  0
  -19.4017  -28.3437   20.7920 C   0  0  2  0  0  0  0  0  0  0  0  0
  -21.6434  -29.4278   24.8680 C   0  0  0  0  0  0  0  0  0  0  0  0
  -29.2037  -22.7832   18.7869 N   0  0  0  0  0  0  0  0  0  0  0  0
  -30.2577  -22.9265   20.9493 N   0  0  0  0  0  0  0  0  0  0  0  0
  -27.0978  -22.3461   25.4852 N   0  0  0  0  0  0  0  0  0  0  0  0
  -27.9085  -21.8243   24.5489 N   0  0  0  0  0  0  0  0  0  0  0  0
  -23.9322  -30.6001   22.3676 N   0  0  0  0  0  0  0  0  0  0  0  0
  -26.2936  -19.6515   21.8417 N   0  0  0  0  0  0  0  0  0  0  0  0
  -30.1500  -21.1779   24.1389 N   0  0  0  0  0  0  0  0  0  0  0  0
  -30.2670  -22.7068   28.3868 N   0  0  0  0  0  0  0  0  0  0  0  0
  -25.8673  -33.3177   23.6326 N   0  0  0  0  0  0  0  0  0  0  0  0
  -20.8072  -29.3041   22.4828 N   0  0  0  0  0  0  0  0  0  0  0  0
  -27.7331  -17.8703   21.1390 N   0  0  0  0  0  0  0  0  0  0  0  0
  -19.6008  -27.8572   19.3975 N   0  3  0  0  0  0  0  0  0  0  0  0
  -30.7221  -20.0502   20.3349 N   0  3  1  0  0  0  0  0  0  0  0  0
  -31.5322  -21.8241   26.6901 O   0  0  0  0  0  0  0  0  0  0  0  0
  -26.0387  -31.0130   23.9181 O   0  0  0  0  0  0  0  0  0  0  0  0
  -22.0685  -31.8060   23.0810 O   0  0  0  0  0  0  0  0  0  0  0  0
  -21.5518  -27.4081   21.3745 O   0  0  0  0  0  0  0  0  0  0  0  0
  -25.4521  -17.7597   20.8263 O   0  0  0  0  0  0  0  0  0  0  0  0
  -25.9539  -24.7179   31.2831 O   0  0  0  0  0  0  0  0  0  0  0  0
  -28.1883  -26.8346   19.9678 O   0  0  0  0  0  0  0  0  0  1  0  0
  -22.5990  -29.0781   30.9127 F   0  0  0  0  0  0  0  0  0  0  0  0
  -26.6208  -27.1252   32.4674 F   0  0  0  0  0  0  0  0  0  0  0  0
  1  2  1  0  0  0  0
  1  5  2  0  0  0  0
  2  6  2  0  0  0  0
  3  8  2  0  0  0  0
  3 17  1  0  0  0  0
  4  9  1  0  0  0  0
  4 17  2  0  0  0  0
  5 19  1  0  0  0  0
  6 21  1  0  0  0  0
  7 10  2  0  0  0  0
  7 20  1  0  0  0  0
  8 24  1  0  0  0  0
  9 24  2  0  0  0  0
 10 25  1  0  0  0  0
 11 12  2  0  0  0  0
 11 26  1  0  0  0  0
 12 27  1  0  0  0  0
 13 22  1  0  0  0  0
 13 25  2  0  0  0  0
 14 27  2  0  0  0  0
 14 28  1  0  0  0  0
 15 23  1  0  0  0  0
 15 63  2  0  0  0  0
 16 23  2  0  0  0  0
 16 64  1  0  0  0  0
 17 29  1  0  0  0  0
 18 29  1  0  0  0  0
 18 30  2  0  0  0  0
 18 32  1  0  0  0  0
 19 21  2  0  0  0  0
 19 37  1  0  0  0  0
 20 22  2  0  0  0  0
 20 38  1  0  0  0  0
 21 46  1  0  0  0  0
 22 39  1  0  0  0  0
 23 56  1  0  0  0  0
 24 81  1  0  0  0  0
 25 82  1  0  0  0  0
 26 28  2  0  0  0  0
 26 81  1  0  0  0  0
 27 83  1  0  0  0  0
 28 84  1  0  0  0  0
 29 65  2  0  0  0  0
 30 66  1  0  0  0  0
 30 69  1  0  0  0  0
 31 57  1  0  0  0  0
 31 63  1  0  0  0  0
 31 64  2  0  0  0  0
 32 70  1  0  0  0  0
 32 76  2  0  0  0  0
 33 47  1  0  0  0  0
 33 71  1  0  0  0  0
 33 77  2  0  0  0  0
 34 60  1  0  0  0  0
 34 67  1  0  0  0  0
 34 78  2  0  0  0  0
 35 61  1  0  0  0  0
 35 72  1  0  0  0  0
 35 79  2  0  0  0  0
 36 68  1  0  0  0  0
 36 73  1  0  0  0  0
 36 80  2  0  0  0  0
 37 40  1  0  0  0  0
 38 47  1  0  0  0  0
 39 67  1  0  0  0  0
 40 42  1  0  0  0  0
 41 43  1  0  0  0  0
 41 44  1  0  0  0  0
 42 46  1  0  0  0  0
 43 48  1  0  0  0  0
 44 68  1  0  0  0  0
 45 48  1  0  0  0  0
 45 68  1  0  0  0  0
 46 71  1  0  0  0  0
 47 67  1  0  0  0  0
 48 66  1  0  0  0  0
 49 61  1  0  0  0  0
 50 62  1  0  0  0  0
 51 62  1  0  0  0  0
 52 62  1  0  0  0  0
 53 73  1  0  0  0  0
 54 74  1  0  0  0  0
 55 75  1  0  0  0  0
 56 82  1  0  0  0  0
 57 75  1  0  0  0  0
 58 59  1  0  0  0  0
 58 73  1  0  0  0  0
 59 75  1  0  0  0  0
 60 62  1  0  0  0  0
 60 72  1  0  0  0  0
 61 74  1  0  0  0  0
 65 66  1  0  0  0  0
M  CHG  2  74   1  75   1
M  ISO  4  36 100  56 101  73 100  82 101
M  END
> <Batch ID>
0054

> <Smiles>
CNC(C)C(=O)NC(C(=O)N1Cc2cc([101O:1][101CH2:1]c3cnc(CN(C)CC[100N:0](C)[100C:0](=O)N4CCCC(n5nc(-c6ccc(Oc7ccc(F)cc7F)cc6)c(C(N)=O)c5N)C4)nc3)ccc2CC1C(=O)NC1CCCc2ccccc21)C(C)(C)C

> <Shape>
0.193

> <Color>
0.071

> <Negative vol penalty>
0.000

$$$$

  -OEChem-04052317413D

 83 91  0     1  0  0  0  0  0999 V2000
  -26.6721  -28.8173   23.7499 C   0  0  0  0  0  0  0  0  0  0  0  0
  -26.0947  -27.6674   23.2208 C   0  0  0  0  0  0  0  0  0  0  0  0
  -23.2581   -9.8547   19.8310 C   0  0  0  0  0  0  0  0  0  0  0  0
  -23.8326   -9.7820   22.1766 C   0  0  0  0  0  0  0  0  0  0  0  0
  -26.4852  -30.0449   23.1159 C   0  0  0  0  0  0  0  0  0  0  0  0
  -25.3291  -27.7447   22.0579 C   0  0  0  0  0  0  0  0  0  0  0  0
  -26.4192  -24.0547   18.7655 C   0  0  0  0  0  0  0  0  0  0  0  0
  -22.5540   -8.6583   19.9663 C   0  0  0  0  0  0  0  0  0  0  0  0
  -23.1285   -8.5855   22.3119 C   0  0  0  0  0  0  0  0  0  0  0  0
  -25.8859  -22.7927   19.0241 C   0  0  0  0  0  0  0  0  0  0  0  0
  -19.5425   -7.6586   21.1345 C   0  0  0  0  0  0  0  0  0  0  0  0
  -18.2820   -7.5777   20.5427 C   0  0  0  0  0  0  0  0  0  0  0  0
  -28.0173  -16.0164   16.0255 C   0  0  0  0  0  0  0  0  0  0  0  0
  -27.0547  -16.9614   15.7165 C   0  0  0  0  0  0  0  0  0  0  0  0
  -24.1385  -23.2078   17.4136 C   0  0  0  0  0  0  0  0  0  0  0  0
  -19.0390   -5.7299   19.1827 C   0  0  0  0  0  0  0  0  0  0  0  0
  -23.8974  -10.4166   20.9361 C   0  0  0  0  0  0  0  0  0  0  0  0
  -24.1238  -12.9574   20.9604 C   0  0  0  0  0  0  0  0  0  0  0  0
  -25.7249  -30.1357   21.9393 C   0  0  0  0  0  0  0  0  0  0  0  0
  -25.8088  -24.9084   17.8355 C   0  0  0  0  0  0  0  0  0  0  0  0
  -25.1308  -28.9749   21.4083 C   0  0  0  0  0  0  0  0  0  0  0  0
  -24.6675  -24.4791   17.1432 C   0  0  0  0  0  0  0  0  0  0  0  0
  -22.4892   -8.0237   21.2068 C   0  0  0  0  0  0  0  0  0  0  0  0
  -24.7438  -22.3702   18.3502 C   0  0  0  0  0  0  0  0  0  0  0  0
  -20.5514   -6.7752   20.7503 C   0  0  0  0  0  0  0  0  0  0  0  0
  -18.0303   -6.6134   19.5669 C   0  0  0  0  0  0  0  0  0  0  0  0
  -20.2996   -5.8108   19.7744 C   0  0  0  0  0  0  0  0  0  0  0  0
  -24.6254  -11.6522   20.7968 C   0  0  0  0  0  0  0  0  0  0  0  0
  -28.6238  -16.0929   17.2631 C   0  0  0  0  0  0  0  0  0  0  0  0
  -26.7624  -17.9202   16.6656 C   0  0  0  0  0  0  0  0  0  0  0  0
  -25.2034  -13.7725   20.7221 C   0  0  0  0  0  0  0  0  0  0  0  0
  -22.8004  -13.3941   21.2976 C   0  0  0  0  0  0  0  0  0  0  0  0
  -29.6542  -15.1248   17.6607 C   0  0  0  0  0  0  0  0  0  0  0  0
  -24.4484  -27.7776   17.9800 C   0  0  0  0  0  0  0  0  0  0  0  0
  -24.3145  -27.4463   14.7559 C   0  0  0  0  0  0  0  0  0  0  0  0
  -24.2602  -25.3572   12.0579 C   0  0  0  0  0  0  0  0  0  0  0  0
  -25.5116  -31.4923   21.3158 C   0  0  0  0  0  0  0  0  0  0  0  0
  -26.4118  -26.2561   17.5484 C   0  0  0  0  0  0  0  0  0  0  0  0
  -23.9861  -25.3497   16.1204 C   0  0  0  0  0  0  0  0  0  0  0  0
  -24.9974  -31.4287   19.8799 C   0  0  0  0  0  0  0  0  0  0  0  0
  -30.1187  -12.6894   20.2287 C   0  0  0  0  0  0  0  0  0  0  0  0
  -23.8507  -30.4290   19.7674 C   0  0  0  0  0  0  0  0  0  0  0  0
  -28.6907  -12.2930   20.6076 C   0  0  0  0  0  0  0  0  0  0  0  0
  -30.2458  -12.9788   18.7352 C   0  0  0  0  0  0  0  0  0  0  0  0
  -27.8539  -13.5832   18.5987 C   0  0  0  0  0  0  0  0  0  0  0  0
  -24.3142  -29.0142   20.1349 C   0  0  1  0  0  0  0  0  0  0  0  0
  -25.4114  -27.2446   16.9572 C   0  0  1  0  0  0  0  0  0  0  0  0
  -27.6712  -13.3322   20.1046 C   0  0  1  0  0  0  0  0  0  0  0  0
  -22.3355  -16.4951   14.8027 C   0  0  0  0  0  0  0  0  0  0  0  0
  -24.1080  -25.3780    9.5531 C   0  0  0  0  0  0  0  0  0  0  0  0
  -21.3267  -28.0360   14.9448 C   0  0  0  0  0  0  0  0  0  0  0  0
  -21.0709  -27.1226   12.6278 C   0  0  0  0  0  0  0  0  0  0  0  0
  -22.4879  -29.1372   13.0230 C   0  0  0  0  0  0  0  0  0  0  0  0
  -26.9033  -24.0571   11.7706 C   0  0  0  0  0  0  0  0  0  0  0  0
  -25.7249  -18.9660   16.3812 C   0  0  0  0  0  0  0  0  0  0  0  0
  -23.0630  -17.7308   15.3070 C   0  0  0  0  0  0  0  0  0  0  0  0
  -23.7598  -17.4572   16.6303 C   0  0  0  0  0  0  0  0  0  0  0  0
  -24.5830  -18.7619   18.5849 C   0  0  0  0  0  0  0  0  0  0  0  0
  -25.1325  -20.1141   18.9945 C   0  0  0  0  0  0  0  0  0  1  0  0
  -23.3155  -26.8716   13.7808 C   0  0  1  0  0  0  0  0  0  0  0  0
  -25.0395  -25.3738   10.7552 C   0  0  2  0  0  0  0  0  0  0  0  0
  -22.0617  -27.7760   13.6147 C   0  0  0  0  0  0  0  0  0  0  0  0
  -25.9226  -11.6344   20.4790 N   0  0  0  0  0  0  0  0  0  0  0  0
  -28.3178  -17.0422   18.1727 N   0  0  0  0  0  0  0  0  0  0  0  0
  -27.3718  -17.9709   17.8690 N   0  0  0  0  0  0  0  0  0  0  0  0
  -26.2452  -12.9384   20.4409 N   0  0  0  0  0  0  0  0  0  0  0  0
  -29.2457  -13.9579   18.3109 N   0  0  0  0  0  0  0  0  0  0  0  0
  -24.6100  -26.6612   15.8793 N   0  0  0  0  0  0  0  0  0  0  0  0
  -25.3536  -15.1140   20.7276 N   0  0  0  0  0  0  0  0  0  0  0  0
  -21.8107  -12.4246   21.5092 N   0  0  0  0  0  0  0  0  0  0  0  0
  -25.0544  -28.4245   19.0400 N   0  0  0  0  0  0  0  0  0  0  0  0
  -24.0469  -26.6306   12.5417 N   0  0  0  0  0  0  0  0  0  0  0  0
  -25.9202  -24.1751   10.6631 N   0  3  0  0  0  0  0  0  0  0  0  0
  -24.4259  -18.7234   17.1091 N   0  3  1  0  0  0  0  0  0  0  0  0
  -22.5005  -14.6084   21.3919 O   0  0  0  0  0  0  0  0  0  0  0  0
  -30.8164  -15.4286   17.3960 O   0  0  0  0  0  0  0  0  0  0  0  0
  -23.2445  -27.6152   17.8186 O   0  0  0  0  0  0  0  0  0  0  0  0
  -24.8195  -28.5479   14.5255 O   0  0  0  0  0  0  0  0  0  0  0  0
  -23.8757  -24.3186   12.5908 O   0  0  0  0  0  0  0  0  0  0  0  0
  -21.8020   -6.8563   21.3393 O   0  0  0  0  0  0  0  0  0  0  0  0
  -24.2209  -21.1391   18.6011 O   0  0  0  0  0  0  0  0  0  1  0  0
  -16.8193   -6.5348   18.9998 F   0  0  0  0  0  0  0  0  0  0  0  0
  -21.2644   -4.9586   19.4021 F   0  0  0  0  0  0  0  0  0  0  0  0
  1  2  1  0  0  0  0
  1  5  2  0  0  0  0
  2  6  2  0  0  0  0
  3  8  2  0  0  0  0
  3 17  1  0  0  0  0
  4  9  1  0  0  0  0
  4 17  2  0  0  0  0
  5 19  1  0  0  0  0
  6 21  1  0  0  0  0
  7 10  2  0  0  0  0
  7 20  1  0  0  0  0
  8 23  1  0  0  0  0
  9 23  2  0  0  0  0
 10 24  1  0  0  0  0
 11 12  2  0  0  0  0
 11 25  1  0  0  0  0
 12 26  1  0  0  0  0
 13 14  2  0  0  0  0
 13 29  1  0  0  0  0
 14 30  1  0  0  0  0
 15 22  1  0  0  0  0
 15 24  2  0  0  0  0
 16 26  2  0  0  0  0
 16 27  1  0  0  0  0
 17 28  1  0  0  0  0
 18 28  1  0  0  0  0
 18 31  2  0  0  0  0
 18 32  1  0  0  0  0
 19 21  2  0  0  0  0
 19 37  1  0  0  0  0
 20 22  2  0  0  0  0
 20 38  1  0  0  0  0
 21 46  1  0  0  0  0
 22 39  1  0  0  0  0
 23 80  1  0  0  0  0
 24 81  1  0  0  0  0
 25 27  2  0  0  0  0
 25 80  1  0  0  0  0
 26 82  1  0  0  0  0
 27 83  1  0  0  0  0
 28 63  2  0  0  0  0
 29 33  1  0  0  0  0
 29 64  2  0  0  0  0
 30 55  1  0  0  0  0
 30 65  2  0  0  0  0
 31 66  1  0  0  0  0
 31 69  1  0  0  0  0
 32 70  1  0  0  0  0
 32 75  2  0  0  0  0
 33 67  1  0  0  0  0
 33 76  2  0  0  0  0
 34 47  1  0  0  0  0
 34 71  1  0  0  0  0
 34 77  2  0  0  0  0
 35 60  1  0  0  0  0
 35 68  1  0  0  0  0
 35 78  2  0  0  0  0
 36 61  1  0  0  0  0
 36 72  1  0  0  0  0
 36 79  2  0  0  0  0
 37 40  1  0  0  0  0
 38 47  1  0  0  0  0
 39 68  1  0  0  0  0
 40 42  1  0  0  0  0
 41 43  1  0  0  0  0
 41 44  1  0  0  0  0
 42 46  1  0  0  0  0
 43 48  1  0  0  0  0
 44 67  1  0  0  0  0
 45 48  1  0  0  0  0
 45 67  1  0  0  0  0
 46 71  1  0  0  0  0
 47 68  1  0  0  0  0
 48 66  1  0  0  0  0
 49 56  1  0  0  0  0
 50 61  1  0  0  0  0
 51 62  1  0  0  0  0
 52 62  1  0  0  0  0
 53 62  1  0  0  0  0
 54 73  1  0  0  0  0
 55 74  1  0  0  0  0
 56 57  1  0  0  0  0
 57 74  1  0  0  0  0
 58 59  1  0  0  0  0
 58 74  1  0  0  0  0
 59 81  1  0  0  0  0
 60 62  1  0  0  0  0
 60 72  1  0  0  0  0
 61 73  1  0  0  0  0
 63 66  1  0  0  0  0
 64 65  1  0  0  0  0
M  CHG  2  73   1  74   1
M  ISO  4  29 100  33 100  59 101  81 101
M  END
> <Batch ID>
0054

> <Smiles>
CCCN(Cc1cc[100c:0]([100C:0](=O)N2CCCC(n3nc(-c4ccc(Oc5ccc(F)cc5F)cc4)c(C(N)=O)c3N)C2)nn1)C[101CH2:1][101O:1]c1ccc2c(c1)CN(C(=O)C(NC(=O)C(C)NC)C(C)(C)C)C(C(=O)NC1CCCc3ccccc31)C2

> <Shape>
0.173

> <Color>
0.175

> <Negative vol penalty>
0.000

$$$$

  -OEChem-04052317413D

 83 91  0     1  0  0  0  0  0999 V2000
  -19.9823  -20.6849   23.9647 C   0  0  0  0  0  0  0  0  0  0  0  0
  -21.3722  -20.6287   23.9476 C   0  0  0  0  0  0  0  0  0  0  0  0
  -27.5240  -13.2072   22.6102 C   0  0  0  0  0  0  0  0  0  0  0  0
  -26.8258  -12.9912   20.3074 C   0  0  0  0  0  0  0  0  0  0  0  0
  -19.3187  -21.7073   23.2877 C   0  0  0  0  0  0  0  0  0  0  0  0
  -22.0994  -21.5944   23.2526 C   0  0  0  0  0  0  0  0  0  0  0  0
  -27.5496  -23.9197   24.7997 C   0  0  0  0  0  0  0  0  0  0  0  0
  -26.9887  -11.9501   22.8904 C   0  0  0  0  0  0  0  0  0  0  0  0
  -26.2905  -11.7340   20.5876 C   0  0  0  0  0  0  0  0  0  0  0  0
  -28.8466  -23.6311   24.3774 C   0  0  0  0  0  0  0  0  0  0  0  0
  -24.4214   -8.6227   20.7772 C   0  0  0  0  0  0  0  0  0  0  0  0
  -23.1551   -8.3297   20.2709 C   0  0  0  0  0  0  0  0  0  0  0  0
  -28.7270  -25.4442   22.7908 C   0  0  0  0  0  0  0  0  0  0  0  0
  -22.2297  -10.1843   21.5124 C   0  0  0  0  0  0  0  0  0  0  0  0
  -30.5632  -22.5455   18.4810 C   0  0  0  0  0  0  0  0  0  0  0  0
  -27.4425  -13.7279   21.3186 C   0  0  0  0  0  0  0  0  0  0  0  0
  -29.3050  -15.3178   20.6039 C   0  0  0  0  0  0  0  0  0  0  0  0
  -20.0384  -22.6915   22.5921 C   0  0  0  0  0  0  0  0  0  0  0  0
  -26.8264  -24.9676   24.2121 C   0  0  0  0  0  0  0  0  0  0  0  0
  -21.4448  -22.6301   22.5645 C   0  0  0  0  0  0  0  0  0  0  0  0
  -27.4220  -25.7457   23.2092 C   0  0  0  0  0  0  0  0  0  0  0  0
  -26.3720  -11.2134   21.8792 C   0  0  0  0  0  0  0  0  0  0  0  0
  -29.4344  -24.3915   23.3708 C   0  0  0  0  0  0  0  0  0  0  0  0
  -24.5918   -9.6965   21.6511 C   0  0  0  0  0  0  0  0  0  0  0  0
  -22.0593   -9.1105   20.6385 C   0  0  0  0  0  0  0  0  0  0  0  0
  -23.4960  -10.4773   22.0186 C   0  0  0  0  0  0  0  0  0  0  0  0
  -27.9948  -15.0267   21.0286 C   0  0  0  0  0  0  0  0  0  0  0  0
  -29.6340  -22.8979   17.5434 C   0  0  0  0  0  0  0  0  0  0  0  0
  -29.3263  -16.6844   20.4683 C   0  0  0  0  0  0  0  0  0  0  0  0
  -30.9392  -24.6492   17.9038 C   0  0  0  0  0  0  0  0  0  0  0  0
  -30.4044  -14.4321   20.3540 C   0  0  0  0  0  0  0  0  0  0  0  0
  -24.1263  -25.1722   22.5474 C   0  0  0  0  0  0  0  0  0  0  0  0
  -24.6584  -28.3607   22.8177 C   0  0  0  0  0  0  0  0  0  0  0  0
  -26.8944  -30.8947   23.2931 C   0  0  0  0  0  0  0  0  0  0  0  0
  -26.9768  -21.4403   18.7344 C   0  0  0  0  0  0  0  0  0  0  0  0
  -19.2756  -23.7502   21.8358 C   0  0  0  0  0  0  0  0  0  0  0  0
  -25.4381  -25.2831   24.6975 C   0  0  0  0  0  0  0  0  0  0  0  0
  -26.6954  -26.8944   22.5603 C   0  0  0  0  0  0  0  0  0  0  0  0
  -20.1319  -24.9487   21.4352 C   0  0  0  0  0  0  0  0  0  0  0  0
  -25.9776  -20.1889   21.9143 C   0  0  0  0  0  0  0  0  0  0  0  0
  -21.4518  -24.4829   20.8287 C   0  0  0  0  0  0  0  0  0  0  0  0
  -26.5158  -18.7571   21.9295 C   0  0  0  0  0  0  0  0  0  0  0  0
  -25.4894  -20.5936   20.5251 C   0  0  0  0  0  0  0  0  0  0  0  0
  -27.0134  -18.9766   19.4591 C   0  0  0  0  0  0  0  0  0  0  0  0
  -22.2695  -23.6735   21.8425 C   0  0  1  0  0  0  0  0  0  0  0  0
  -24.6056  -26.0461   23.6718 C   0  0  1  0  0  0  0  0  0  0  0  0
  -27.5692  -18.5423   20.8261 C   0  0  2  0  0  0  0  0  0  0  0  0
  -32.3759  -26.2059   16.5625 C   0  0  0  0  0  0  0  0  0  0  0  0
  -27.0374  -33.3966   23.4259 C   0  0  0  0  0  0  0  0  0  0  0  0
  -33.6265  -22.7275   19.2273 C   0  0  0  0  0  0  0  0  0  0  0  0
  -24.4010  -28.5341   19.7823 C   0  0  0  0  0  0  0  0  0  0  0  0
  -25.4713  -30.7948   19.8904 C   0  0  0  0  0  0  0  0  0  0  0  0
  -23.2896  -30.3939   21.0314 C   0  0  0  0  0  0  0  0  0  0  0  0
  -27.9012  -30.8055   26.0747 C   0  0  0  0  0  0  0  0  0  0  0  0
  -28.5367  -22.1408   16.9356 C   0  0  0  0  0  0  0  0  0  0  0  0
  -31.5190  -26.0126   17.8142 C   0  0  0  0  0  0  0  0  0  0  0  0
  -32.1227  -23.4678   21.1137 C   0  0  0  0  0  0  0  0  0  0  0  0
  -31.0177  -24.4042   21.5962 C   0  0  0  0  0  0  0  0  0  1  0  0
  -25.3986  -29.3938   22.0030 C   0  0  1  0  0  0  0  0  0  0  0  0
  -26.8658  -32.1046   24.2095 C   0  0  2  0  0  0  0  0  0  0  0  0
  -32.5301  -23.7135   19.6481 C   0  0  2  0  0  0  0  0  0  0  0  0
  -24.6534  -29.7563   20.6874 C   0  0  0  0  0  0  0  0  0  0  0  0
  -27.2386  -16.1205   21.1548 N   0  0  0  0  0  0  0  0  0  0  0  0
  -31.3579  -23.6478   18.6844 N   0  0  0  0  0  0  0  0  0  0  0  0
  -28.0764  -17.1122   20.8073 N   0  0  0  0  0  0  0  0  0  0  0  0
  -29.8902  -24.2046   17.2043 N   0  3  0  0  0  0  0  0  0  0  0  0
  -25.3380  -27.1595   23.0649 N   0  0  0  0  0  0  0  0  0  0  0  0
  -26.5357  -20.3667   19.5254 N   0  0  0  0  0  0  0  0  0  0  0  0
  -30.2922  -17.5499   20.0935 N   0  0  0  0  0  0  0  0  0  0  0  0
  -30.2106  -13.0569   20.5426 N   0  0  0  0  0  0  0  0  0  0  0  0
  -22.9139  -24.5557   22.7916 N   0  0  0  0  0  0  0  0  0  0  0  0
  -25.6272  -30.5277   22.8921 N   0  0  0  0  0  0  0  0  0  0  0  0
  -27.9755  -21.1404   17.8160 N   0  0  0  0  0  0  0  0  0  0  0  0
  -27.9603  -32.0172   25.2172 N   0  3  0  0  0  0  0  0  0  0  0  0
  -31.5302  -14.8493   19.9907 O   0  0  0  0  0  0  0  0  0  0  0  0
  -24.8053  -25.0664   21.5329 O   0  0  0  0  0  0  0  0  0  0  0  0
  -23.5221  -28.6130   23.2259 O   0  0  0  0  0  0  0  0  0  0  0  0
  -27.9369  -30.3338   22.9628 O   0  0  0  0  0  0  0  0  0  0  0  0
  -26.5186  -22.5828   18.8425 O   0  0  0  0  0  0  0  0  0  0  0  0
  -25.8497   -9.9866   22.1522 O   0  0  0  0  0  0  0  0  0  0  0  0
  -30.7000  -24.1116   22.9563 O   0  0  0  0  0  0  0  0  0  1  0  0
  -20.8436   -8.8299   20.1510 F   0  0  0  0  0  0  0  0  0  0  0  0
  -23.6537  -11.5108   22.8569 F   0  0  0  0  0  0  0  0  0  0  0  0
  1  2  1  0  0  0  0
  1  5  2  0  0  0  0
  2  6  2  0  0  0  0
  3  8  2  0  0  0  0
  3 16  1  0  0  0  0
  4  9  1  0  0  0  0
  4 16  2  0  0  0  0
  5 18  1  0  0  0  0
  6 20  1  0  0  0  0
  7 10  2  0  0  0  0
  7 19  1  0  0  0  0
  8 22  1  0  0  0  0
  9 22  2  0  0  0  0
 10 23  1  0  0  0  0
 11 12  2  0  0  0  0
 11 24  1  0  0  0  0
 12 25  1  0  0  0  0
 13 21  1  0  0  0  0
 13 23  2  0  0  0  0
 14 25  2  0  0  0  0
 14 26  1  0  0  0  0
 15 28  2  0  0  0  0
 15 64  1  0  0  0  0
 16 27  1  0  0  0  0
 17 27  1  0  0  0  0
 17 29  2  0  0  0  0
 17 31  1  0  0  0  0
 18 20  2  0  0  0  0
 18 36  1  0  0  0  0
 19 21  2  0  0  0  0
 19 37  1  0  0  0  0
 20 45  1  0  0  0  0
 21 38  1  0  0  0  0
 22 80  1  0  0  0  0
 23 81  1  0  0  0  0
 24 26  2  0  0  0  0
 24 80  1  0  0  0  0
 25 82  1  0  0  0  0
 26 83  1  0  0  0  0
 27 63  2  0  0  0  0
 28 55  1  0  0  0  0
 28 66  1  0  0  0  0
 29 65  1  0  0  0  0
 29 69  1  0  0  0  0
 30 56  1  0  0  0  0
 30 64  1  0  0  0  0
 30 66  2  0  0  0  0
 31 70  1  0  0  0  0
 31 75  2  0  0  0  0
 32 46  1  0  0  0  0
 32 71  1  0  0  0  0
 32 76  2  0  0  0  0
 33 59  1  0  0  0  0
 33 67  1  0  0  0  0
 33 77  2  0  0  0  0
 34 60  1  0  0  0  0
 34 72  1  0  0  0  0
 34 78  2  0  0  0  0
 35 68  1  0  0  0  0
 35 73  1  0  0  0  0
 35 79  2  0  0  0  0
 36 39  1  0  0  0  0
 37 46  1  0  0  0  0
 38 67  1  0  0  0  0
 39 41  1  0  0  0  0
 40 42  1  0  0  0  0
 40 43  1  0  0  0  0
 41 45  1  0  0  0  0
 42 47  1  0  0  0  0
 43 68  1  0  0  0  0
 44 47  1  0  0  0  0
 44 68  1  0  0  0  0
 45 71  1  0  0  0  0
 46 67  1  0  0  0  0
 47 65  1  0  0  0  0
 48 56  1  0  0  0  0
 49 60  1  0  0  0  0
 50 61  1  0  0  0  0
 51 62  1  0  0  0  0
 52 62  1  0  0  0  0
 53 62  1  0  0  0  0
 54 74  1  0  0  0  0
 55 73  1  0  0  0  0
 57 58  1  0  0  0  0
 57 61  1  0  0  0  0
 58 81  1  0  0  0  0
 59 62  1  0  0  0  0
 59 72  1  0  0  0  0
 60 74  1  0  0  0  0
 61 64  1  0  0  0  0
 63 65  1  0  0  0  0
M  CHG  2  66   1  74   1
M  ISO  4  35 100  58 101  73 100  81 101
M  END
> <Batch ID>
0054

> <Smiles>
CCc1nc(C[100NH:0][100C:0](=O)N2CCCC(n3nc(-c4ccc(Oc5ccc(F)cc5F)cc4)c(C(N)=O)c3N)C2)cn1C(C)C[101CH2:1][101O:1]c1ccc2c(c1)CN(C(=O)C(NC(=O)C(C)NC)C(C)(C)C)C(C(=O)NC1CCCc3ccccc31)C2

> <Shape>
0.212

> <Color>
0.071

> <Negative vol penalty>
0.000

$$$$

  -OEChem-04052317413D

 85 93  0     1  0  0  0  0  0999 V2000
  -23.0837  -17.9877   26.8341 C   0  0  0  0  0  0  0  0  0  0  0  0
  -24.1484  -18.3141   26.0003 C   0  0  0  0  0  0  0  0  0  0  0  0
  -23.3637  -27.6205   20.7389 C   0  0  0  0  0  0  0  0  0  0  0  0
  -24.5486  -28.0073   22.8086 C   0  0  0  0  0  0  0  0  0  0  0  0
  -22.8264  -16.6529   27.1443 C   0  0  0  0  0  0  0  0  0  0  0  0
  -24.9572  -17.3059   25.4770 C   0  0  0  0  0  0  0  0  0  0  0  0
  -25.9292  -17.9562   20.5498 C   0  0  0  0  0  0  0  0  0  0  0  0
  -22.2371  -27.2222   21.4583 C   0  0  0  0  0  0  0  0  0  0  0  0
  -23.4219  -27.6090   23.5280 C   0  0  0  0  0  0  0  0  0  0  0  0
  -26.8983  -18.8995   20.2111 C   0  0  0  0  0  0  0  0  0  0  0  0
  -19.7112  -28.7011   23.1511 C   0  0  0  0  0  0  0  0  0  0  0  0
  -18.4738  -29.2030   22.7481 C   0  0  0  0  0  0  0  0  0  0  0  0
  -28.5101  -17.1291   19.9167 C   0  0  0  0  0  0  0  0  0  0  0  0
  -17.6901  -26.9524   22.3511 C   0  0  0  0  0  0  0  0  0  0  0  0
  -30.6404  -21.6176   17.9946 C   0  0  0  0  0  0  0  0  0  0  0  0
  -24.5195  -28.0131   21.4140 C   0  0  0  0  0  0  0  0  0  0  0  0
  -26.0038  -29.7270   20.2449 C   0  0  0  0  0  0  0  0  0  0  0  0
  -23.6266  -15.6272   26.6168 C   0  0  0  0  0  0  0  0  0  0  0  0
  -26.2467  -16.5908   20.5852 C   0  0  0  0  0  0  0  0  0  0  0  0
  -24.7112  -15.9563   25.7815 C   0  0  0  0  0  0  0  0  0  0  0  0
  -27.5426  -16.1702   20.2537 C   0  0  0  0  0  0  0  0  0  0  0  0
  -22.2662  -27.2164   22.8529 C   0  0  0  0  0  0  0  0  0  0  0  0
  -28.1897  -18.4863   19.8973 C   0  0  0  0  0  0  0  0  0  0  0  0
  -19.9381  -27.3248   23.1541 C   0  0  0  0  0  0  0  0  0  0  0  0
  -17.4632  -28.3287   22.3481 C   0  0  0  0  0  0  0  0  0  0  0  0
  -18.9276  -26.4505   22.7541 C   0  0  0  0  0  0  0  0  0  0  0  0
  -25.6838  -28.4241   20.6714 C   0  0  0  0  0  0  0  0  0  0  0  0
  -29.9075  -21.6223   19.1477 C   0  0  0  0  0  0  0  0  0  0  0  0
  -27.2011  -29.5883   19.5863 C   0  0  0  0  0  0  0  0  0  0  0  0
  -31.4638  -23.1870   19.3211 C   0  0  0  0  0  0  0  0  0  0  0  0
  -25.2833  -30.9530   20.4278 C   0  0  0  0  0  0  0  0  0  0  0  0
  -26.2666  -14.3501   22.8397 C   0  0  0  0  0  0  0  0  0  0  0  0
  -26.9428  -12.3939   20.3421 C   0  0  0  0  0  0  0  0  0  0  0  0
  -31.4973  -25.5241   20.1337 C   0  0  0  0  0  0  0  0  0  0  0  0
  -28.2063  -12.0502   17.1906 C   0  0  0  0  0  0  0  0  0  0  0  0
  -23.3385  -14.2023   27.0184 C   0  0  0  0  0  0  0  0  0  0  0  0
  -25.1830  -15.5836   20.9266 C   0  0  0  0  0  0  0  0  0  0  0  0
  -27.9291  -14.7145   20.2571 C   0  0  0  0  0  0  0  0  0  0  0  0
  -24.0146  -13.1682   26.1220 C   0  0  0  0  0  0  0  0  0  0  0  0
  -29.7569  -26.4310   17.0718 C   0  0  0  0  0  0  0  0  0  0  0  0
  -25.4760  -13.5378   25.8888 C   0  0  0  0  0  0  0  0  0  0  0  0
  -28.5222  -27.1438   17.6217 C   0  0  0  0  0  0  0  0  0  0  0  0
  -30.1844  -25.2742   17.9714 C   0  0  0  0  0  0  0  0  0  0  0  0
  -29.1852  -26.3843   19.9447 C   0  0  0  0  0  0  0  0  0  0  0  0
  -25.5961  -14.8893   25.1744 C   0  0  1  0  0  0  0  0  0  0  0  0
  -25.7521  -14.2611   21.4308 C   0  0  1  0  0  0  0  0  0  0  0  0
  -28.7396  -27.5769   19.0821 C   0  0  2  0  0  0  0  0  0  0  0  0
  -28.6600  -10.3229   15.4277 C   0  0  0  0  0  0  0  0  0  0  0  0
  -33.3930  -24.7009   18.7930 C   0  0  0  0  0  0  0  0  0  0  0  0
  -33.0654  -24.0198   21.1727 C   0  0  0  0  0  0  0  0  0  0  0  0
  -30.6162  -23.5617   24.2864 C   0  0  0  0  0  0  0  0  0  0  0  0
  -30.4373  -21.1012   24.7332 C   0  0  0  0  0  0  0  0  0  0  0  0
  -28.4768  -22.3560   23.8257 C   0  0  0  0  0  0  0  0  0  0  0  0
  -29.3665  -11.4227   21.9209 C   0  0  0  0  0  0  0  0  0  0  0  0
  -30.2758  -10.4575   19.7972 C   0  0  0  0  0  0  0  0  0  0  0  0
  -28.1140   -9.6219   20.7198 C   0  0  0  0  0  0  0  0  0  0  0  0
  -26.3999  -13.3789   15.2592 C   0  0  0  0  0  0  0  0  0  0  0  0
  -28.7401  -20.7755   19.5618 C   0  0  0  0  0  0  0  0  0  1  0  0
  -30.4395  -21.9404   22.3259 C   0  0  0  0  0  0  0  0  0  0  0  0
  -29.9684  -22.9562   21.2766 C   0  0  0  0  0  0  0  0  0  0  0  0
  -28.2073  -11.9190   19.6679 C   0  0  1  0  0  0  0  0  0  0  0  0
  -27.6664  -11.3435   15.9604 C   0  0  2  0  0  0  0  0  0  0  0  0
  -32.3123  -24.2913   19.8338 C   0  0  0  0  0  0  0  0  0  0  0  0
  -30.0133  -22.2377   23.7885 C   0  0  0  0  0  0  0  0  0  0  0  0
  -28.9844  -10.8829   20.5282 C   0  0  0  0  0  0  0  0  0  0  0  0
  -26.6035  -27.5240   20.3136 N   0  0  0  0  0  0  0  0  0  0  0  0
  -30.4392  -22.6026   19.9505 N   0  0  0  0  0  0  0  0  0  0  0  0
  -27.5131  -28.2624   19.6554 N   0  0  0  0  0  0  0  0  0  0  0  0
  -31.5960  -22.5957   18.1293 N   0  3  0  0  0  0  0  0  0  0  0  0
  -26.8555  -13.7686   20.6037 N   0  0  0  0  0  0  0  0  0  0  0  0
  -30.3543  -25.7221   19.3588 N   0  0  0  0  0  0  0  0  0  0  0  0
  -28.0069  -30.4725   18.9606 N   0  0  0  0  0  0  0  0  0  0  0  0
  -24.0700  -30.9167   21.1284 N   0  0  0  0  0  0  0  0  0  0  0  0
  -25.3152  -14.7413   23.7624 N   0  0  0  0  0  0  0  0  0  0  0  0
  -27.8089  -11.4259   18.3540 N   0  0  0  0  0  0  0  0  0  0  0  0
  -27.3807  -12.3295   14.8801 N   0  3  0  0  0  0  0  0  0  0  0  0
  -25.6949  -32.0455   19.9690 O   0  0  0  0  0  0  0  0  0  0  0  0
  -27.4395  -14.0823   23.0727 O   0  0  0  0  0  0  0  0  0  0  0  0
  -26.0619  -11.5763   20.6198 O   0  0  0  0  0  0  0  0  0  0  0  0
  -31.8686  -26.2882   21.0283 O   0  0  0  0  0  0  0  0  0  0  0  0
  -28.9133  -13.0535   17.1258 O   0  0  0  0  0  0  0  0  0  0  0  0
  -21.1669  -26.8280   23.5553 O   0  0  0  0  0  0  0  0  0  0  0  0
  -29.1377  -19.4050   19.5669 O   0  0  0  0  0  0  0  0  0  1  0  0
  -16.2745  -28.8108   21.9626 F   0  0  0  0  0  0  0  0  0  0  0  0
  -19.1393  -25.1272   22.7560 F   0  0  0  0  0  0  0  0  0  0  0  0
  1  2  1  0  0  0  0
  1  5  2  0  0  0  0
  2  6  2  0  0  0  0
  3  8  2  0  0  0  0
  3 16  1  0  0  0  0
  4  9  1  0  0  0  0
  4 16  2  0  0  0  0
  5 18  1  0  0  0  0
  6 20  1  0  0  0  0
  7 10  2  0  0  0  0
  7 19  1  0  0  0  0
  8 22  1  0  0  0  0
  9 22  2  0  0  0  0
 10 23  1  0  0  0  0
 11 12  2  0  0  0  0
 11 24  1  0  0  0  0
 12 25  1  0  0  0  0
 13 21  1  0  0  0  0
 13 23  2  0  0  0  0
 14 25  2  0  0  0  0
 14 26  1  0  0  0  0
 15 28  2  0  0  0  0
 15 69  1  0  0  0  0
 16 27  1  0  0  0  0
 17 27  1  0  0  0  0
 17 29  2  0  0  0  0
 17 31  1  0  0  0  0
 18 20  2  0  0  0  0
 18 36  1  0  0  0  0
 19 21  2  0  0  0  0
 19 37  1  0  0  0  0
 20 45  1  0  0  0  0
 21 38  1  0  0  0  0
 22 82  1  0  0  0  0
 23 83  1  0  0  0  0
 24 26  2  0  0  0  0
 24 82  1  0  0  0  0
 25 84  1  0  0  0  0
 26 85  1  0  0  0  0
 27 66  2  0  0  0  0
 28 58  1  0  0  0  0
 28 67  1  0  0  0  0
 29 68  1  0  0  0  0
 29 72  1  0  0  0  0
 30 63  1  0  0  0  0
 30 67  1  0  0  0  0
 30 69  2  0  0  0  0
 31 73  1  0  0  0  0
 31 77  2  0  0  0  0
 32 46  1  0  0  0  0
 32 74  1  0  0  0  0
 32 78  2  0  0  0  0
 33 61  1  0  0  0  0
 33 70  1  0  0  0  0
 33 79  2  0  0  0  0
 34 63  1  0  0  0  0
 34 71  1  0  0  0  0
 34 80  2  0  0  0  0
 35 62  1  0  0  0  0
 35 75  1  0  0  0  0
 35 81  2  0  0  0  0
 36 39  1  0  0  0  0
 37 46  1  0  0  0  0
 38 70  1  0  0  0  0
 39 41  1  0  0  0  0
 40 42  1  0  0  0  0
 40 43  1  0  0  0  0
 41 45  1  0  0  0  0
 42 47  1  0  0  0  0
 43 71  1  0  0  0  0
 44 47  1  0  0  0  0
 44 71  1  0  0  0  0
 45 74  1  0  0  0  0
 46 70  1  0  0  0  0
 47 68  1  0  0  0  0
 48 62  1  0  0  0  0
 49 63  1  0  0  0  0
 50 63  1  0  0  0  0
 51 64  1  0  0  0  0
 52 64  1  0  0  0  0
 53 64  1  0  0  0  0
 54 65  1  0  0  0  0
 55 65  1  0  0  0  0
 56 65  1  0  0  0  0
 57 76  1  0  0  0  0
 58 83  1  0  0  0  0
 59 60  1  0  0  0  0
 59 64  1  0  0  0  0
 60 67  1  0  0  0  0
 61 65  1  0  0  0  0
 61 75  1  0  0  0  0
 62 76  1  0  0  0  0
 66 68  1  0  0  0  0
M  CHG  2  69   1  76   1
M  ISO  4  34 100  58 101  63 100  83 101
M  END
> <Batch ID>
0054

> <Smiles>
CNC(C)C(=O)NC(C(=O)N1Cc2cc([101O:1][101CH2:1]c3cnc([100C:0](C)(C)[100C:0](=O)N4CCCC(n5nc(-c6ccc(Oc7ccc(F)cc7F)cc6)c(C(N)=O)c5N)C4)n3CCC(C)(C)C)ccc2CC1C(=O)NC1CCCc2ccccc21)C(C)(C)C

> <Shape>
0.247

> <Color>
0.046

> <Negative vol penalty>
0.000

$$$$

  -OEChem-04052317413D

 79 87  0     1  0  0  0  0  0999 V2000
  -24.3884  -37.0510   21.0594 C   0  0  0  0  0  0  0  0  0  0  0  0
  -25.2155  -36.2201   20.3106 C   0  0  0  0  0  0  0  0  0  0  0  0
  -26.8908  -12.8454   21.0360 C   0  0  0  0  0  0  0  0  0  0  0  0
  -26.8421  -13.0933   18.6332 C   0  0  0  0  0  0  0  0  0  0  0  0
  -24.0251  -36.6868   22.3553 C   0  0  0  0  0  0  0  0  0  0  0  0
  -25.6808  -35.0248   20.8576 C   0  0  0  0  0  0  0  0  0  0  0  0
  -26.6754  -29.7598   17.8919 C   0  0  0  0  0  0  0  0  0  0  0  0
  -26.2952  -11.5896   20.9185 C   0  0  0  0  0  0  0  0  0  0  0  0
  -26.2466  -11.8374   18.5157 C   0  0  0  0  0  0  0  0  0  0  0  0
  -27.8334  -29.1753   17.3809 C   0  0  0  0  0  0  0  0  0  0  0  0
  -23.1968  -10.3411   20.4035 C   0  0  0  0  0  0  0  0  0  0  0  0
  -22.1476  -10.0385   21.2713 C   0  0  0  0  0  0  0  0  0  0  0  0
  -28.0576  -27.8709   19.3978 C   0  0  0  0  0  0  0  0  0  0  0  0
  -23.4069   -8.1697   22.1423 C   0  0  0  0  0  0  0  0  0  0  0  0
  -28.8373  -23.1609   16.1539 C   0  0  0  0  0  0  0  0  0  0  0  0
  -30.4858  -24.6033   17.6802 C   0  0  0  0  0  0  0  0  0  0  0  0
  -27.1642  -13.5973   19.8933 C   0  0  0  0  0  0  0  0  0  0  0  0
  -29.1561  -15.1863   20.0160 C   0  0  0  0  0  0  0  0  0  0  0  0
  -24.4784  -35.4818   22.9150 C   0  0  0  0  0  0  0  0  0  0  0  0
  -26.2050  -29.4116   19.1662 C   0  0  0  0  0  0  0  0  0  0  0  0
  -25.3244  -34.6447   22.1627 C   0  0  0  0  0  0  0  0  0  0  0  0
  -26.8919  -28.4505   19.9215 C   0  0  0  0  0  0  0  0  0  0  0  0
  -25.9732  -11.0856   19.6584 C   0  0  0  0  0  0  0  0  0  0  0  0
  -28.5263  -28.2328   18.1351 C   0  0  0  0  0  0  0  0  0  0  0  0
  -24.3511   -9.5579   20.4050 C   0  0  0  0  0  0  0  0  0  0  0  0
  -22.2526   -8.9529   22.1407 C   0  0  0  0  0  0  0  0  0  0  0  0
  -24.4561   -8.4723   21.2745 C   0  0  0  0  0  0  0  0  0  0  0  0
  -27.7788  -14.8949   20.0140 C   0  0  0  0  0  0  0  0  0  0  0  0
  -29.2024  -22.7299   17.4103 C   0  0  0  0  0  0  0  0  0  0  0  0
  -30.1214  -25.0340   16.4236 C   0  0  0  0  0  0  0  0  0  0  0  0
  -29.2181  -16.5514   20.1547 C   0  0  0  0  0  0  0  0  0  0  0  0
  -30.2790  -14.3021   19.9025 C   0  0  0  0  0  0  0  0  0  0  0  0
  -25.7309  -30.9824   21.8886 C   0  0  0  0  0  0  0  0  0  0  0  0
  -27.3887  -21.6334   18.6999 C   0  0  0  0  0  0  0  0  0  0  0  0
  -24.4291  -28.1656   22.8339 C   0  0  0  0  0  0  0  0  0  0  0  0
  -24.2450  -24.7811   22.4368 C   0  0  0  0  0  0  0  0  0  0  0  0
  -24.0974  -35.1532   24.3368 C   0  0  0  0  0  0  0  0  0  0  0  0
  -24.9394  -30.0315   19.6920 C   0  0  0  0  0  0  0  0  0  0  0  0
  -26.4173  -28.0272   21.2868 C   0  0  0  0  0  0  0  0  0  0  0  0
  -24.3289  -33.6904   24.7069 C   0  0  0  0  0  0  0  0  0  0  0  0
  -25.6353  -19.9178   21.3119 C   0  0  0  0  0  0  0  0  0  0  0  0
  -25.7062  -33.2326   24.2377 C   0  0  0  0  0  0  0  0  0  0  0  0
  -26.1270  -18.4763   21.1876 C   0  0  0  0  0  0  0  0  0  0  0  0
  -25.5257  -20.5900   19.9469 C   0  0  0  0  0  0  0  0  0  0  0  0
  -27.2818  -19.1123   19.0227 C   0  0  0  0  0  0  0  0  0  0  0  0
  -25.8293  -33.3282   22.7122 C   0  0  1  0  0  0  0  0  0  0  0  0
  -24.8367  -29.9814   21.2133 C   0  0  1  0  0  0  0  0  0  0  0  0
  -27.4360  -18.4063   20.3814 C   0  0  2  0  0  0  0  0  0  0  0  0
  -23.1222  -22.7451   23.3811 C   0  0  0  0  0  0  0  0  0  0  0  0
  -26.3066  -28.2482   25.2377 C   0  0  0  0  0  0  0  0  0  0  0  0
  -25.8354  -25.8163   25.6011 C   0  0  0  0  0  0  0  0  0  0  0  0
  -23.9833  -27.4803   25.7544 C   0  0  0  0  0  0  0  0  0  0  0  0
  -22.9319  -24.1661   19.8568 C   0  0  0  0  0  0  0  0  0  0  0  0
  -28.6823  -21.4431   17.9487 C   0  0  0  0  0  0  0  0  0  0  0  0
  -30.6483  -26.3390   15.8779 C   0  0  0  0  0  0  0  0  0  0  0  0
  -29.7450  -27.5182   16.2219 C   0  0  0  0  0  0  0  0  0  1  0  0
  -24.9546  -26.9120   23.4905 C   0  0  1  0  0  0  0  0  0  0  0  0
  -23.0566  -23.8426   22.3304 C   0  0  2  0  0  0  0  0  0  0  0  0
  -25.2803  -27.1233   24.9960 C   0  0  0  0  0  0  0  0  0  0  0  0
  -30.0328  -23.4434   18.1962 N   0  0  0  0  0  0  0  0  0  0  0  0
  -29.2906  -24.3206   15.6379 N   0  0  0  0  0  0  0  0  0  0  0  0
  -27.0205  -15.9871   20.1415 N   0  0  0  0  0  0  0  0  0  0  0  0
  -27.9245  -16.9780   20.2250 N   0  0  0  0  0  0  0  0  0  0  0  0
  -25.1784  -28.6666   21.7598 N   0  0  0  0  0  0  0  0  0  0  0  0
  -26.7823  -20.4824   19.2034 N   0  0  0  0  0  0  0  0  0  0  0  0
  -30.2523  -17.4164   20.2222 N   0  0  0  0  0  0  0  0  0  0  0  0
  -30.0367  -12.9284   19.7664 N   0  0  0  0  0  0  0  0  0  0  0  0
  -25.1466  -32.2200   22.0796 N   0  0  0  0  0  0  0  0  0  0  0  0
  -23.9652  -25.8711   23.2335 N   0  0  0  0  0  0  0  0  0  0  0  0
  -23.0203  -23.2032   20.9847 N   0  3  0  0  0  0  0  0  0  0  0  0
  -31.4626  -14.7162   19.9376 O   0  0  0  0  0  0  0  0  0  0  0  0
  -26.8663  -30.6557   22.2138 O   0  0  0  0  0  0  0  0  0  0  0  0
  -26.9339  -22.7721   18.8367 O   0  0  0  0  0  0  0  0  0  0  0  0
  -23.3883  -28.6775   23.2537 O   0  0  0  0  0  0  0  0  0  0  0  0
  -25.3157  -24.5666   21.8729 O   0  0  0  0  0  0  0  0  0  0  0  0
  -25.3923   -9.8601   19.5434 O   0  0  0  0  0  0  0  0  0  0  0  0
  -29.6573  -27.6612   17.6390 O   0  0  0  0  0  0  0  0  0  1  0  0
  -21.2455   -8.6634   22.9751 F   0  0  0  0  0  0  0  0  0  0  0  0
  -25.5630   -7.7169   21.2814 F   0  0  0  0  0  0  0  0  0  0  0  0
  1  2  1  0  0  0  0
  1  5  2  0  0  0  0
  2  6  2  0  0  0  0
  3  8  2  0  0  0  0
  3 17  1  0  0  0  0
  4  9  1  0  0  0  0
  4 17  2  0  0  0  0
  5 19  1  0  0  0  0
  6 21  1  0  0  0  0
  7 10  2  0  0  0  0
  7 20  1  0  0  0  0
  8 23  1  0  0  0  0
  9 23  2  0  0  0  0
 10 24  1  0  0  0  0
 11 12  2  0  0  0  0
 11 25  1  0  0  0  0
 12 26  1  0  0  0  0
 13 22  1  0  0  0  0
 13 24  2  0  0  0  0
 14 26  2  0  0  0  0
 14 27  1  0  0  0  0
 15 29  2  0  0  0  0
 15 61  1  0  0  0  0
 16 30  1  0  0  0  0
 16 60  2  0  0  0  0
 17 28  1  0  0  0  0
 18 28  1  0  0  0  0
 18 31  2  0  0  0  0
 18 32  1  0  0  0  0
 19 21  2  0  0  0  0
 19 37  1  0  0  0  0
 20 22  2  0  0  0  0
 20 38  1  0  0  0  0
 21 46  1  0  0  0  0
 22 39  1  0  0  0  0
 23 76  1  0  0  0  0
 24 77  1  0  0  0  0
 25 27  2  0  0  0  0
 25 76  1  0  0  0  0
 26 78  1  0  0  0  0
 27 79  1  0  0  0  0
 28 62  2  0  0  0  0
 29 54  1  0  0  0  0
 29 60  1  0  0  0  0
 30 55  1  0  0  0  0
 30 61  2  0  0  0  0
 31 63  1  0  0  0  0
 31 66  1  0  0  0  0
 32 67  1  0  0  0  0
 32 71  2  0  0  0  0
 33 47  1  0  0  0  0
 33 68  1  0  0  0  0
 33 72  2  0  0  0  0
 34 54  1  0  0  0  0
 34 65  1  0  0  0  0
 34 73  2  0  0  0  0
 35 57  1  0  0  0  0
 35 64  1  0  0  0  0
 35 74  2  0  0  0  0
 36 58  1  0  0  0  0
 36 69  1  0  0  0  0
 36 75  2  0  0  0  0
 37 40  1  0  0  0  0
 38 47  1  0  0  0  0
 39 64  1  0  0  0  0
 40 42  1  0  0  0  0
 41 43  1  0  0  0  0
 41 44  1  0  0  0  0
 42 46  1  0  0  0  0
 43 48  1  0  0  0  0
 44 65  1  0  0  0  0
 45 48  1  0  0  0  0
 45 65  1  0  0  0  0
 46 68  1  0  0  0  0
 47 64  1  0  0  0  0
 48 63  1  0  0  0  0
 49 58  1  0  0  0  0
 50 59  1  0  0  0  0
 51 59  1  0  0  0  0
 52 59  1  0  0  0  0
 53 70  1  0  0  0  0
 55 56  1  0  0  0  0
 56 77  1  0  0  0  0
 57 59  1  0  0  0  0
 57 69  1  0  0  0  0
 58 70  1  0  0  0  0
 62 63  1  0  0  0  0
M  CHG  1  70   1
M  ISO  4  34 100  54 100  56 101  77 101
M  END
> <Batch ID>
0054

> <Smiles>
CNC(C)C(=O)NC(C(=O)N1Cc2cc([101O:1][101CH2:1]Cc3cnc([100CH2:0][100C:0](=O)N4CCCC(n5nc(-c6ccc(Oc7ccc(F)cc7F)cc6)c(C(N)=O)c5N)C4)cn3)ccc2CC1C(=O)NC1CCCc2ccccc21)C(C)(C)C

> <Shape>
0.229

> <Color>
0.089

> <Negative vol penalty>
0.000

$$$$

  -OEChem-04052317413D

 84 92  0     1  0  0  0  0  0999 V2000
  -27.2839  -17.4040   16.8611 C   0  0  0  0  0  0  0  0  0  0  0  0
  -26.5972  -18.6122   16.8233 C   0  0  0  0  0  0  0  0  0  0  0  0
  -23.7076  -18.3312   20.2939 C   0  0  0  0  0  0  0  0  0  0  0  0
  -23.2986  -17.1177   22.3426 C   0  0  0  0  0  0  0  0  0  0  0  0
  -28.2396  -17.1805   17.8500 C   0  0  0  0  0  0  0  0  0  0  0  0
  -26.8743  -19.6019   17.7670 C   0  0  0  0  0  0  0  0  0  0  0  0
  -24.2649  -25.0288   18.6988 C   0  0  0  0  0  0  0  0  0  0  0  0
  -24.6322  -17.3622   19.9044 C   0  0  0  0  0  0  0  0  0  0  0  0
  -24.2232  -16.1485   21.9531 C   0  0  0  0  0  0  0  0  0  0  0  0
  -23.2295  -25.5538   19.4708 C   0  0  0  0  0  0  0  0  0  0  0  0
  -24.3132  -13.4890   19.8699 C   0  0  0  0  0  0  0  0  0  0  0  0
  -23.9560  -12.1509   20.0358 C   0  0  0  0  0  0  0  0  0  0  0  0
  -24.8299  -26.2386   21.1408 C   0  0  0  0  0  0  0  0  0  0  0  0
  -25.8501  -11.8268   21.5003 C   0  0  0  0  0  0  0  0  0  0  0  0
  -20.4342  -28.0523   22.9409 C   0  0  0  0  0  0  0  0  0  0  0  0
  -23.0409  -18.2090   21.5131 C   0  0  0  0  0  0  0  0  0  0  0  0
  -20.7042  -19.2234   21.6485 C   0  0  0  0  0  0  0  0  0  0  0  0
  -28.5191  -18.1637   18.8135 C   0  0  0  0  0  0  0  0  0  0  0  0
  -25.5917  -25.0951   19.1478 C   0  0  0  0  0  0  0  0  0  0  0  0
  -27.8524  -19.4046   18.7585 C   0  0  0  0  0  0  0  0  0  0  0  0
  -25.8806  -25.7159   20.3714 C   0  0  0  0  0  0  0  0  0  0  0  0
  -24.8899  -16.2708   20.7339 C   0  0  0  0  0  0  0  0  0  0  0  0
  -23.5116  -26.1562   20.6933 C   0  0  0  0  0  0  0  0  0  0  0  0
  -25.4389  -13.9960   20.5192 C   0  0  0  0  0  0  0  0  0  0  0  0
  -24.7244  -11.3198   20.8510 C   0  0  0  0  0  0  0  0  0  0  0  0
  -26.2073  -13.1649   21.3343 C   0  0  0  0  0  0  0  0  0  0  0  0
  -22.0862  -19.2100   21.9162 C   0  0  0  0  0  0  0  0  0  0  0  0
  -19.1481  -28.3103   23.4520 C   0  0  0  0  0  0  0  0  0  0  0  0
  -20.2197  -27.1998   21.8856 C   0  0  0  0  0  0  0  0  0  0  0  0
  -20.2506  -20.3761   22.2418 C   0  0  0  0  0  0  0  0  0  0  0  0
  -19.9021  -18.2783   20.9280 C   0  0  0  0  0  0  0  0  0  0  0  0
  -27.8185  -22.9516   19.8900 C   0  0  0  0  0  0  0  0  0  0  0  0
  -29.6980  -25.5797   20.1780 C   0  0  0  0  0  0  0  0  0  0  0  0
  -29.9145  -28.9402   20.7319 C   0  0  0  0  0  0  0  0  0  0  0  0
  -20.0629  -23.7574   26.5404 C   0  0  0  0  0  0  0  0  0  0  0  0
  -29.5687  -17.8721   19.8568 C   0  0  0  0  0  0  0  0  0  0  0  0
  -26.7001  -24.5479   18.2909 C   0  0  0  0  0  0  0  0  0  0  0  0
  -27.2904  -25.8308   20.8890 C   0  0  0  0  0  0  0  0  0  0  0  0
  -29.4759  -18.7948   21.0677 C   0  0  0  0  0  0  0  0  0  0  0  0
  -22.7861  -24.2834   24.2156 C   0  0  0  0  0  0  0  0  0  0  0  0
  -29.3901  -20.2437   20.6117 C   0  0  0  0  0  0  0  0  0  0  0  0
  -22.7284  -23.0005   23.3843 C   0  0  0  0  0  0  0  0  0  0  0  0
  -22.4701  -24.0064   25.6824 C   0  0  0  0  0  0  0  0  0  0  0  0
  -21.1045  -22.0441   25.0838 C   0  0  0  0  0  0  0  0  0  0  0  0
  -28.1153  -20.4840   19.7930 C   0  0  1  0  0  0  0  0  0  0  0  0
  -27.9590  -24.2123   19.0846 C   0  0  1  0  0  0  0  0  0  0  0  0
  -21.3927  -22.2610   23.5871 C   0  0  2  0  0  0  0  0  0  0  0  0
  -31.5883  -30.7976   20.9460 C   0  0  0  0  0  0  0  0  0  0  0  0
  -30.4214  -24.6019   22.9763 C   0  0  0  0  0  0  0  0  0  0  0  0
  -31.2914  -26.8954   23.4772 C   0  0  0  0  0  0  0  0  0  0  0  0
  -32.3389  -25.5335   21.6686 C   0  0  0  0  0  0  0  0  0  0  0  0
  -18.1491  -26.1858   20.8862 C   0  0  0  0  0  0  0  0  0  0  0  0
  -28.7737  -30.3912   18.4184 C   0  0  0  0  0  0  0  0  0  0  0  0
  -17.2639  -29.3729   26.5514 C   0  0  0  0  0  0  0  0  0  0  0  0
  -18.7923  -29.1659   24.5964 C   0  0  0  0  0  0  0  0  0  0  0  0
  -21.1789  -26.5551   20.9287 C   0  0  0  0  0  0  0  0  0  1  0  0
  -18.2565  -26.4705   27.1695 C   0  0  0  0  0  0  0  0  0  0  0  0
  -19.1555  -25.5537   27.9920 C   0  0  0  0  0  0  0  0  0  0  0  0
  -19.0302  -27.6174   26.5319 C   0  0  0  0  0  0  0  0  0  0  0  0
  -30.0442  -26.5288   21.2998 C   0  0  1  0  0  0  0  0  0  0  0  0
  -30.6721  -30.0347   20.0020 C   0  0  2  0  0  0  0  0  0  0  0  0
  -30.9971  -25.8862   22.3469 C   0  0  0  0  0  0  0  0  0  0  0  0
  -22.4845  -20.2702   22.6244 N   0  0  0  0  0  0  0  0  0  0  0  0
  -18.1876  -27.6733   22.7768 N   0  0  0  0  0  0  0  0  0  0  0  0
  -18.8706  -27.0068   21.8306 N   0  0  0  0  0  0  0  0  0  0  0  0
  -21.3459  -20.9606   22.8065 N   0  0  0  0  0  0  0  0  0  0  0  0
  -28.3389  -25.2750   20.0177 N   0  0  0  0  0  0  0  0  0  0  0  0
  -21.1776  -23.3179   25.8072 N   0  0  0  0  0  0  0  0  0  0  0  0
  -19.0258  -20.9368   22.3302 N   0  0  0  0  0  0  0  0  0  0  0  0
  -20.5281  -17.1489   20.3830 N   0  0  0  0  0  0  0  0  0  0  0  0
  -28.1731  -21.8045   19.2060 N   0  0  0  0  0  0  0  0  0  0  0  0
  -30.5751  -27.7316   20.6676 N   0  0  0  0  0  0  0  0  0  0  0  0
  -20.2166  -24.9696   27.2021 N   0  0  0  0  0  0  0  0  0  0  0  0
  -29.7198  -31.0022   19.3871 N   0  3  0  0  0  0  0  0  0  0  0  0
  -18.0870  -28.4440   25.7015 N   0  3  1  0  0  0  0  0  0  0  0  0
  -18.6697  -18.4391   20.7579 O   0  0  0  0  0  0  0  0  0  0  0  0
  -27.4193  -23.0151   21.0469 O   0  0  0  0  0  0  0  0  0  0  0  0
  -30.5995  -25.1310   19.4655 O   0  0  0  0  0  0  0  0  0  0  0  0
  -28.8456  -29.1385   21.3051 O   0  0  0  0  0  0  0  0  0  0  0  0
  -19.0062  -23.1193   26.5970 O   0  0  0  0  0  0  0  0  0  0  0  0
  -25.7918  -15.3249   20.3541 O   0  0  0  0  0  0  0  0  0  0  0  0
  -22.5027  -26.6689   21.4492 O   0  0  0  0  0  0  0  0  0  1  0  0
  -24.3803  -10.0353   21.0114 F   0  0  0  0  0  0  0  0  0  0  0  0
  -27.2892  -13.6466   21.9615 F   0  0  0  0  0  0  0  0  0  0  0  0
  1  2  1  0  0  0  0
  1  5  2  0  0  0  0
  2  6  2  0  0  0  0
  3  8  2  0  0  0  0
  3 16  1  0  0  0  0
  4  9  1  0  0  0  0
  4 16  2  0  0  0  0
  5 18  1  0  0  0  0
  6 20  1  0  0  0  0
  7 10  2  0  0  0  0
  7 19  1  0  0  0  0
  8 22  1  0  0  0  0
  9 22  2  0  0  0  0
 10 23  1  0  0  0  0
 11 12  2  0  0  0  0
 11 24  1  0  0  0  0
 12 25  1  0  0  0  0
 13 21  1  0  0  0  0
 13 23  2  0  0  0  0
 14 25  2  0  0  0  0
 14 26  1  0  0  0  0
 15 28  1  0  0  0  0
 15 29  2  0  0  0  0
 16 27  1  0  0  0  0
 17 27  1  0  0  0  0
 17 30  2  0  0  0  0
 17 31  1  0  0  0  0
 18 20  2  0  0  0  0
 18 36  1  0  0  0  0
 19 21  2  0  0  0  0
 19 37  1  0  0  0  0
 20 45  1  0  0  0  0
 21 38  1  0  0  0  0
 22 81  1  0  0  0  0
 23 82  1  0  0  0  0
 24 26  2  0  0  0  0
 24 81  1  0  0  0  0
 25 83  1  0  0  0  0
 26 84  1  0  0  0  0
 27 63  2  0  0  0  0
 28 55  1  0  0  0  0
 28 64  2  0  0  0  0
 29 56  1  0  0  0  0
 29 65  1  0  0  0  0
 30 66  1  0  0  0  0
 30 69  1  0  0  0  0
 31 70  1  0  0  0  0
 31 76  2  0  0  0  0
 32 46  1  0  0  0  0
 32 71  1  0  0  0  0
 32 77  2  0  0  0  0
 33 60  1  0  0  0  0
 33 67  1  0  0  0  0
 33 78  2  0  0  0  0
 34 61  1  0  0  0  0
 34 72  1  0  0  0  0
 34 79  2  0  0  0  0
 35 68  1  0  0  0  0
 35 73  1  0  0  0  0
 35 80  2  0  0  0  0
 36 39  1  0  0  0  0
 37 46  1  0  0  0  0
 38 67  1  0  0  0  0
 39 41  1  0  0  0  0
 40 42  1  0  0  0  0
 40 43  1  0  0  0  0
 41 45  1  0  0  0  0
 42 47  1  0  0  0  0
 43 68  1  0  0  0  0
 44 47  1  0  0  0  0
 44 68  1  0  0  0  0
 45 71  1  0  0  0  0
 46 67  1  0  0  0  0
 47 66  1  0  0  0  0
 48 61  1  0  0  0  0
 49 62  1  0  0  0  0
 50 62  1  0  0  0  0
 51 62  1  0  0  0  0
 52 65  1  0  0  0  0
 53 74  1  0  0  0  0
 54 75  1  0  0  0  0
 55 75  1  0  0  0  0
 56 82  1  0  0  0  0
 57 58  1  0  0  0  0
 57 59  1  0  0  0  0
 58 73  1  0  0  0  0
 59 75  1  0  0  0  0
 60 62  1  0  0  0  0
 60 72  1  0  0  0  0
 61 74  1  0  0  0  0
 63 66  1  0  0  0  0
 64 65  1  0  0  0  0
M  CHG  2  74   1  75   1
M  ISO  4  35 100  56 101  73 100  82 101
M  END
> <Batch ID>
0054

> <Smiles>
CNC(C)C(=O)NC(C(=O)N1Cc2cc([101O:1][101CH2:1]c3cc(CN(C)CCC[100NH:0][100C:0](=O)N4CCCC(n5nc(-c6ccc(Oc7ccc(F)cc7F)cc6)c(C(N)=O)c5N)C4)nn3C)ccc2CC1C(=O)NC1CCCc2ccccc21)C(C)(C)C

> <Shape>
0.180

> <Color>
0.070

> <Negative vol penalty>
0.000

$$$$

  -OEChem-04052317413D

 85 93  0     1  0  0  0  0  0999 V2000
  -18.4882  -29.6835   26.2101 C   0  0  0  0  0  0  0  0  0  0  0  0
  -19.8733  -29.5746   26.2807 C   0  0  0  0  0  0  0  0  0  0  0  0
  -24.5379  -12.1520   20.4388 C   0  0  0  0  0  0  0  0  0  0  0  0
  -24.5435  -13.1782   22.6260 C   0  0  0  0  0  0  0  0  0  0  0  0
  -17.8139  -29.2561   25.0671 C   0  0  0  0  0  0  0  0  0  0  0  0
  -20.5849  -29.0373   25.2087 C   0  0  0  0  0  0  0  0  0  0  0  0
  -26.1673  -30.6818   23.3011 C   0  0  0  0  0  0  0  0  0  0  0  0
  -24.5354  -10.8893   21.0312 C   0  0  0  0  0  0  0  0  0  0  0  0
  -24.5409  -11.9154   23.2185 C   0  0  0  0  0  0  0  0  0  0  0  0
  -27.4317  -30.1367   23.5200 C   0  0  0  0  0  0  0  0  0  0  0  0
  -24.1628   -7.3966   21.9680 C   0  0  0  0  0  0  0  0  0  0  0  0
  -23.2875   -6.4405   21.4531 C   0  0  0  0  0  0  0  0  0  0  0  0
  -27.2700  -28.9387   21.4324 C   0  0  0  0  0  0  0  0  0  0  0  0
  -21.4138   -7.8717   21.9805 C   0  0  0  0  0  0  0  0  0  0  0  0
  -29.5113  -22.6043   23.7542 C   0  0  0  0  0  0  0  0  0  0  0  0
  -24.5421  -13.2965   21.2362 C   0  0  0  0  0  0  0  0  0  0  0  0
  -23.4251  -15.3743   20.2652 C   0  0  0  0  0  0  0  0  0  0  0  0
  -18.5185  -28.7222   23.9766 C   0  0  0  0  0  0  0  0  0  0  0  0
  -25.4389  -30.3504   22.1496 C   0  0  0  0  0  0  0  0  0  0  0  0
  -19.9193  -28.6011   24.0505 C   0  0  0  0  0  0  0  0  0  0  0  0
  -25.9976  -29.4830   21.2000 C   0  0  0  0  0  0  0  0  0  0  0  0
  -24.5368  -10.7709   22.4211 C   0  0  0  0  0  0  0  0  0  0  0  0
  -27.9820  -29.2628   22.5870 C   0  0  0  0  0  0  0  0  0  0  0  0
  -23.6636   -8.5903   22.4893 C   0  0  0  0  0  0  0  0  0  0  0  0
  -21.9130   -6.6780   21.4593 C   0  0  0  0  0  0  0  0  0  0  0  0
  -22.2892   -8.8278   22.4955 C   0  0  0  0  0  0  0  0  0  0  0  0
  -24.5453  -14.6013   20.6248 C   0  0  0  0  0  0  0  0  0  0  0  0
  -30.2635  -23.5955   23.1898 C   0  0  0  0  0  0  0  0  0  0  0  0
  -23.9574  -16.5205   19.7270 C   0  0  0  0  0  0  0  0  0  0  0  0
  -29.8059  -22.1057   21.6177 C   0  0  0  0  0  0  0  0  0  0  0  0
  -22.0284  -15.0826   20.4051 C   0  0  0  0  0  0  0  0  0  0  0  0
  -22.6575  -28.9171   21.5898 C   0  0  0  0  0  0  0  0  0  0  0  0
  -23.2820  -29.7648   18.5216 C   0  0  0  0  0  0  0  0  0  0  0  0
  -25.6022  -30.5878   16.1581 C   0  0  0  0  0  0  0  0  0  0  0  0
  -27.4146  -20.6446   19.7457 C   0  0  0  0  0  0  0  0  0  0  0  0
  -17.7416  -28.2300   22.7812 C   0  0  0  0  0  0  0  0  0  0  0  0
  -24.0875  -30.9678   21.9153 C   0  0  0  0  0  0  0  0  0  0  0  0
  -25.2651  -29.1111   19.9377 C   0  0  0  0  0  0  0  0  0  0  0  0
  -18.6040  -28.0182   21.5395 C   0  0  0  0  0  0  0  0  0  0  0  0
  -28.6899  -17.6490   18.3776 C   0  0  0  0  0  0  0  0  0  0  0  0
  -19.8768  -27.2573   21.8969 C   0  0  0  0  0  0  0  0  0  0  0  0
  -27.6318  -16.6395   18.8204 C   0  0  0  0  0  0  0  0  0  0  0  0
  -28.9945  -18.6778   19.4681 C   0  0  0  0  0  0  0  0  0  0  0  0
  -26.7363  -18.3632   20.4294 C   0  0  0  0  0  0  0  0  0  0  0  0
  -20.7286  -28.0465   22.8983 C   0  0  1  0  0  0  0  0  0  0  0  0
  -23.2190  -30.1588   20.9568 C   0  0  1  0  0  0  0  0  0  0  0  0
  -26.3685  -17.3546   19.3303 C   0  0  2  0  0  0  0  0  0  0  0  0
  -25.8138  -31.1913   13.7315 C   0  0  0  0  0  0  0  0  0  0  0  0
  -27.7578  -23.8515   20.1658 C   0  0  0  0  0  0  0  0  0  0  0  0
  -29.4270  -23.4038   18.3391 C   0  0  0  0  0  0  0  0  0  0  0  0
  -22.8629  -26.8400   17.7600 C   0  0  0  0  0  0  0  0  0  0  0  0
  -23.9929  -27.3187   15.5778 C   0  0  0  0  0  0  0  0  0  0  0  0
  -21.8677  -28.4868   16.1625 C   0  0  0  0  0  0  0  0  0  0  0  0
  -28.4662  -20.4832   22.9246 C   0  0  0  0  0  0  0  0  0  0  0  0
  -26.7575  -33.2363   16.7981 C   0  0  0  0  0  0  0  0  0  0  0  0
  -30.8556  -24.8528   23.7750 C   0  0  0  0  0  0  0  0  0  0  0  0
  -29.7587  -21.4188   20.3028 C   0  0  0  0  0  0  0  0  0  0  0  0
  -29.9295  -26.0711   23.6900 C   0  0  0  0  0  0  0  0  0  0  0  0
  -30.5761  -27.3526   24.2179 C   0  0  0  0  0  0  0  0  0  0  0  0
  -29.6142  -28.5312   24.1544 C   0  0  0  0  0  0  0  0  0  1  0  0
  -24.0016  -29.1225   17.3603 C   0  0  1  0  0  0  0  0  0  0  0  0
  -25.6536  -31.7201   15.1484 C   0  0  2  0  0  0  0  0  0  0  0  0
  -28.1990  -22.8836   19.0751 C   0  0  0  0  0  0  0  0  0  0  0  0
  -23.1945  -27.9473   16.7398 C   0  0  0  0  0  0  0  0  0  0  0  0
  -25.7019  -15.2052   20.3391 N   0  0  0  0  0  0  0  0  0  0  0  0
  -29.2422  -21.6962   22.7587 N   0  0  0  0  0  0  0  0  0  0  0  0
  -25.3113  -16.3699   19.7941 N   0  0  0  0  0  0  0  0  0  0  0  0
  -30.4305  -23.2610   21.8676 N   0  3  0  0  0  0  0  0  0  0  0  0
  -23.9443  -29.7359   19.7570 N   0  0  0  0  0  0  0  0  0  0  0  0
  -27.7583  -19.3016   19.9595 N   0  0  0  0  0  0  0  0  0  0  0  0
  -23.3947  -17.6322   19.2077 N   0  0  0  0  0  0  0  0  0  0  0  0
  -21.6556  -13.8595   20.9791 N   0  0  0  0  0  0  0  0  0  0  0  0
  -21.4456  -29.1084   22.2254 N   0  0  0  0  0  0  0  0  0  0  0  0
  -24.3063  -30.1984   16.4234 N   0  0  0  0  0  0  0  0  0  0  0  0
  -28.4659  -21.5672   19.6373 N   0  0  0  0  0  0  0  0  0  0  0  0
  -26.7992  -32.6263   15.4442 N   0  3  0  0  0  0  0  0  0  0  0  0
  -21.1373  -15.8757   20.0173 O   0  0  0  0  0  0  0  0  0  0  0  0
  -23.2772  -27.8632   21.5063 O   0  0  0  0  0  0  0  0  0  0  0  0
  -22.1762  -30.2797   18.3377 O   0  0  0  0  0  0  0  0  0  0  0  0
  -26.6110  -30.0952   16.6585 O   0  0  0  0  0  0  0  0  0  0  0  0
  -26.2325  -21.0027   19.6641 O   0  0  0  0  0  0  0  0  0  0  0  0
  -24.5340   -9.5389   22.9995 O   0  0  0  0  0  0  0  0  0  0  0  0
  -29.2157  -28.7288   22.7985 O   0  0  0  0  0  0  0  0  0  1  0  0
  -21.0726   -5.7604   20.9633 F   0  0  0  0  0  0  0  0  0  0  0  0
  -21.8038   -9.9732   22.9939 F   0  0  0  0  0  0  0  0  0  0  0  0
  1  2  1  0  0  0  0
  1  5  2  0  0  0  0
  2  6  2  0  0  0  0
  3  8  2  0  0  0  0
  3 16  1  0  0  0  0
  4  9  1  0  0  0  0
  4 16  2  0  0  0  0
  5 18  1  0  0  0  0
  6 20  1  0  0  0  0
  7 10  2  0  0  0  0
  7 19  1  0  0  0  0
  8 22  1  0  0  0  0
  9 22  2  0  0  0  0
 10 23  1  0  0  0  0
 11 12  2  0  0  0  0
 11 24  1  0  0  0  0
 12 25  1  0  0  0  0
 13 21  1  0  0  0  0
 13 23  2  0  0  0  0
 14 25  2  0  0  0  0
 14 26  1  0  0  0  0
 15 28  2  0  0  0  0
 15 66  1  0  0  0  0
 16 27  1  0  0  0  0
 17 27  1  0  0  0  0
 17 29  2  0  0  0  0
 17 31  1  0  0  0  0
 18 20  2  0  0  0  0
 18 36  1  0  0  0  0
 19 21  2  0  0  0  0
 19 37  1  0  0  0  0
 20 45  1  0  0  0  0
 21 38  1  0  0  0  0
 22 82  1  0  0  0  0
 23 83  1  0  0  0  0
 24 26  2  0  0  0  0
 24 82  1  0  0  0  0
 25 84  1  0  0  0  0
 26 85  1  0  0  0  0
 27 65  2  0  0  0  0
 28 56  1  0  0  0  0
 28 68  1  0  0  0  0
 29 67  1  0  0  0  0
 29 71  1  0  0  0  0
 30 57  1  0  0  0  0
 30 66  1  0  0  0  0
 30 68  2  0  0  0  0
 31 72  1  0  0  0  0
 31 77  2  0  0  0  0
 32 46  1  0  0  0  0
 32 73  1  0  0  0  0
 32 78  2  0  0  0  0
 33 61  1  0  0  0  0
 33 69  1  0  0  0  0
 33 79  2  0  0  0  0
 34 62  1  0  0  0  0
 34 74  1  0  0  0  0
 34 80  2  0  0  0  0
 35 70  1  0  0  0  0
 35 75  1  0  0  0  0
 35 81  2  0  0  0  0
 36 39  1  0  0  0  0
 37 46  1  0  0  0  0
 38 69  1  0  0  0  0
 39 41  1  0  0  0  0
 40 42  1  0  0  0  0
 40 43  1  0  0  0  0
 41 45  1  0  0  0  0
 42 47  1  0  0  0  0
 43 70  1  0  0  0  0
 44 47  1  0  0  0  0
 44 70  1  0  0  0  0
 45 73  1  0  0  0  0
 46 69  1  0  0  0  0
 47 67  1  0  0  0  0
 48 62  1  0  0  0  0
 49 63  1  0  0  0  0
 50 63  1  0  0  0  0
 51 64  1  0  0  0  0
 52 64  1  0  0  0  0
 53 64  1  0  0  0  0
 54 66  1  0  0  0  0
 55 76  1  0  0  0  0
 56 58  1  0  0  0  0
 57 75  1  0  0  0  0
 58 59  1  0  0  0  0
 59 60  1  0  0  0  0
 60 83  1  0  0  0  0
 61 64  1  0  0  0  0
 61 74  1  0  0  0  0
 62 76  1  0  0  0  0
 63 75  1  0  0  0  0
 65 67  1  0  0  0  0
M  CHG  2  68   1  76   1
M  ISO  4  35 100  60 101  75 100  83 101
M  END
> <Batch ID>
0054

> <Smiles>
CNC(C)C(=O)NC(C(=O)N1Cc2cc([101O:1][101CH2:1]CCCc3cn(C)c(C[100N:0](C(C)C)[100C:0](=O)N4CCCC(n5nc(-c6ccc(Oc7ccc(F)cc7F)cc6)c(C(N)=O)c5N)C4)n3)ccc2CC1C(=O)NC1CCCc2ccccc21)C(C)(C)C

> <Shape>
0.258

> <Color>
0.073

> <Negative vol penalty>
0.000

$$$$

  -OEChem-04052317413D

 85 93  0     1  0  0  0  0  0999 V2000
  -16.9207  -29.6919   24.5391 C   0  0  0  0  0  0  0  0  0  0  0  0
  -17.6148  -28.4921   24.6577 C   0  0  0  0  0  0  0  0  0  0  0  0
  -23.5070  -15.2505   20.3639 C   0  0  0  0  0  0  0  0  0  0  0  0
  -25.5675  -15.9642   21.4042 C   0  0  0  0  0  0  0  0  0  0  0  0
  -17.1554  -30.5267   23.4473 C   0  0  0  0  0  0  0  0  0  0  0  0
  -18.5434  -28.1259   23.6840 C   0  0  0  0  0  0  0  0  0  0  0  0
  -23.7686  -25.0516   24.5511 C   0  0  0  0  0  0  0  0  0  0  0  0
  -23.9955  -13.9460   20.2913 C   0  0  0  0  0  0  0  0  0  0  0  0
  -26.0560  -14.6597   21.3316 C   0  0  0  0  0  0  0  0  0  0  0  0
  -24.1036  -23.7076   24.3921 C   0  0  0  0  0  0  0  0  0  0  0  0
  -27.9872  -11.5899   21.0935 C   0  0  0  0  0  0  0  0  0  0  0  0
  -29.2979  -11.4122   20.6508 C   0  0  0  0  0  0  0  0  0  0  0  0
  -24.9643  -24.1887   22.1905 C   0  0  0  0  0  0  0  0  0  0  0  0
  -28.7294  -12.4572   18.5479 C   0  0  0  0  0  0  0  0  0  0  0  0
  -29.5005  -22.2129   20.7606 C   0  0  0  0  0  0  0  0  0  0  0  0
  -24.2930  -16.2596   20.9203 C   0  0  0  0  0  0  0  0  0  0  0  0
  -23.0570  -18.1840   22.0502 C   0  0  0  0  0  0  0  0  0  0  0  0
  -18.0943  -30.1751   22.4648 C   0  0  0  0  0  0  0  0  0  0  0  0
  -24.0194  -25.9738   23.5249 C   0  0  0  0  0  0  0  0  0  0  0  0
  -18.7899  -28.9562   22.5774 C   0  0  0  0  0  0  0  0  0  0  0  0
  -24.6339  -25.5443   22.3400 C   0  0  0  0  0  0  0  0  0  0  0  0
  -25.2700  -13.6506   20.7751 C   0  0  0  0  0  0  0  0  0  0  0  0
  -24.6989  -23.2754   23.2106 C   0  0  0  0  0  0  0  0  0  0  0  0
  -27.0475  -12.2013   20.2634 C   0  0  0  0  0  0  0  0  0  0  0  0
  -29.6691  -11.8458   19.3780 C   0  0  0  0  0  0  0  0  0  0  0  0
  -27.4187  -12.6349   18.9907 C   0  0  0  0  0  0  0  0  0  0  0  0
  -23.7892  -17.6075   20.9951 C   0  0  0  0  0  0  0  0  0  0  0  0
  -29.7787  -20.8952   21.0244 C   0  0  0  0  0  0  0  0  0  0  0  0
  -22.8192  -19.4728   21.6391 C   0  0  0  0  0  0  0  0  0  0  0  0
  -22.6301  -17.6063   23.2910 C   0  0  0  0  0  0  0  0  0  0  0  0
  -22.2133  -27.8640   21.7169 C   0  0  0  0  0  0  0  0  0  0  0  0
  -25.0841  -28.9586   20.6762 C   0  0  0  0  0  0  0  0  0  0  0  0
  -28.4173  -28.3780   20.2297 C   0  0  0  0  0  0  0  0  0  0  0  0
  -25.6473  -23.1247   17.8291 C   0  0  0  0  0  0  0  0  0  0  0  0
  -18.2796  -31.0875   21.2782 C   0  0  0  0  0  0  0  0  0  0  0  0
  -23.6765  -27.4249   23.7225 C   0  0  0  0  0  0  0  0  0  0  0  0
  -24.9428  -26.4981   21.2160 C   0  0  0  0  0  0  0  0  0  0  0  0
  -19.5523  -30.8037   20.4845 C   0  0  0  0  0  0  0  0  0  0  0  0
  -22.2429  -22.0934   17.6778 C   0  0  0  0  0  0  0  0  0  0  0  0
  -19.7027  -29.3065   20.2343 C   0  0  0  0  0  0  0  0  0  0  0  0
  -22.1871  -20.8788   18.6061 C   0  0  0  0  0  0  0  0  0  0  0  0
  -23.5610  -22.1563   16.9093 C   0  0  0  0  0  0  0  0  0  0  0  0
  -24.7156  -20.8872   18.6785 C   0  0  0  0  0  0  0  0  0  0  0  0
  -19.8231  -28.5359   21.5547 C   0  0  1  0  0  0  0  0  0  0  0  0
  -23.5080  -28.1832   22.4095 C   0  0  1  0  0  0  0  0  0  0  0  0
  -23.4279  -20.8114   19.5166 C   0  0  2  0  0  0  0  0  0  0  0  0
  -30.4981  -29.4453   19.3194 C   0  0  0  0  0  0  0  0  0  0  0  0
  -24.1303  -28.3889   17.8344 C   0  0  0  0  0  0  0  0  0  0  0  0
  -26.5103  -28.5584   17.0762 C   0  0  0  0  0  0  0  0  0  0  0  0
  -25.3865  -30.5347   18.1027 C   0  0  0  0  0  0  0  0  0  0  0  0
  -30.1837  -24.5520   18.7347 C   0  0  0  0  0  0  0  0  0  0  0  0
  -29.2142  -22.9690   17.0885 C   0  0  0  0  0  0  0  0  0  0  0  0
  -29.7584  -28.2837   22.8662 C   0  0  0  0  0  0  0  0  0  0  0  0
  -29.9751  -20.2143   22.3555 C   0  0  0  0  0  0  0  0  0  0  0  0
  -28.6821  -19.6608   22.9650 C   0  0  0  0  0  0  0  0  0  0  0  0
  -27.6572  -20.7522   23.2893 C   0  0  0  0  0  0  0  0  0  0  0  0
  -26.3750  -20.1536   23.8651 C   0  0  0  0  0  0  0  0  0  0  0  0
  -27.7401  -23.9726   18.8587 C   0  0  0  0  0  0  0  0  0  0  0  0
  -25.3658  -21.2330   24.2301 C   0  0  0  0  0  0  0  0  0  1  0  0
  -26.0350  -28.5784   19.5671 C   0  0  1  0  0  0  0  0  0  0  0  0
  -29.6386  -29.2195   20.5535 C   0  0  2  0  0  0  0  0  0  0  0  0
  -25.5081  -28.9965   18.1653 C   0  0  0  0  0  0  0  0  0  0  0  0
  -29.1569  -23.4044   18.5726 C   0  0  0  0  0  0  0  0  0  0  0  0
  -24.0024  -18.4600   19.9892 N   0  0  0  0  0  0  0  0  0  0  0  0
  -29.8638  -20.1997   19.8503 N   0  0  0  0  0  0  0  0  0  0  0  0
  -29.6460  -21.0517   18.8544 N   0  0  0  0  0  0  0  0  0  0  0  0
  -29.4286  -22.2582   19.4023 N   0  0  0  0  0  0  0  0  0  0  0  0
  -23.4004  -19.5853   20.4104 N   0  0  0  0  0  0  0  0  0  0  0  0
  -24.5828  -27.9056   21.4545 N   0  0  0  0  0  0  0  0  0  0  0  0
  -24.6978  -22.0896   17.8308 N   0  0  0  0  0  0  0  0  0  0  0  0
  -22.1716  -20.5093   22.2123 N   0  0  0  0  0  0  0  0  0  0  0  0
  -22.9594  -16.2696   23.5540 N   0  0  0  0  0  0  0  0  0  0  0  0
  -21.1577  -28.6701   22.0982 N   0  0  0  0  0  0  0  0  0  0  0  0
  -27.3257  -29.1608   19.9184 N   0  0  0  0  0  0  0  0  0  0  0  0
  -26.6895  -22.9866   18.7376 N   0  0  0  0  0  0  0  0  0  0  0  0
  -30.4716  -28.5462   21.5897 N   0  3  0  0  0  0  0  0  0  0  0  0
  -21.9618  -18.2513   24.1342 O   0  0  0  0  0  0  0  0  0  0  0  0
  -22.1753  -26.9548   20.8962 O   0  0  0  0  0  0  0  0  0  0  0  0
  -24.8022  -30.1468   20.8503 O   0  0  0  0  0  0  0  0  0  0  0  0
  -28.4314  -27.1492   20.2471 O   0  0  0  0  0  0  0  0  0  0  0  0
  -25.5689  -24.1025   17.0775 O   0  0  0  0  0  0  0  0  0  0  0  0
  -25.7469  -12.3778   20.7047 O   0  0  0  0  0  0  0  0  0  0  0  0
  -25.0262  -21.9640   23.0526 O   0  0  0  0  0  0  0  0  0  1  0  0
  -30.9282  -11.6764   18.9536 F   0  0  0  0  0  0  0  0  0  0  0  0
  -26.5206  -13.2240   18.1891 F   0  0  0  0  0  0  0  0  0  0  0  0
  1  2  1  0  0  0  0
  1  5  2  0  0  0  0
  2  6  2  0  0  0  0
  3  8  2  0  0  0  0
  3 16  1  0  0  0  0
  4  9  1  0  0  0  0
  4 16  2  0  0  0  0
  5 18  1  0  0  0  0
  6 20  1  0  0  0  0
  7 10  2  0  0  0  0
  7 19  1  0  0  0  0
  8 22  1  0  0  0  0
  9 22  2  0  0  0  0
 10 23  1  0  0  0  0
 11 12  2  0  0  0  0
 11 24  1  0  0  0  0
 12 25  1  0  0  0  0
 13 21  1  0  0  0  0
 13 23  2  0  0  0  0
 14 25  2  0  0  0  0
 14 26  1  0  0  0  0
 15 28  2  0  0  0  0
 15 67  1  0  0  0  0
 16 27  1  0  0  0  0
 17 27  1  0  0  0  0
 17 29  2  0  0  0  0
 17 30  1  0  0  0  0
 18 20  2  0  0  0  0
 18 35  1  0  0  0  0
 19 21  2  0  0  0  0
 19 36  1  0  0  0  0
 20 44  1  0  0  0  0
 21 37  1  0  0  0  0
 22 82  1  0  0  0  0
 23 83  1  0  0  0  0
 24 26  2  0  0  0  0
 24 82  1  0  0  0  0
 25 84  1  0  0  0  0
 26 85  1  0  0  0  0
 27 64  2  0  0  0  0
 28 54  1  0  0  0  0
 28 65  1  0  0  0  0
 29 68  1  0  0  0  0
 29 71  1  0  0  0  0
 30 72  1  0  0  0  0
 30 77  2  0  0  0  0
 31 45  1  0  0  0  0
 31 73  1  0  0  0  0
 31 78  2  0  0  0  0
 32 60  1  0  0  0  0
 32 69  1  0  0  0  0
 32 79  2  0  0  0  0
 33 61  1  0  0  0  0
 33 74  1  0  0  0  0
 33 80  2  0  0  0  0
 34 70  1  0  0  0  0
 34 75  1  0  0  0  0
 34 81  2  0  0  0  0
 35 38  1  0  0  0  0
 36 45  1  0  0  0  0
 37 69  1  0  0  0  0
 38 40  1  0  0  0  0
 39 41  1  0  0  0  0
 39 42  1  0  0  0  0
 40 44  1  0  0  0  0
 41 46  1  0  0  0  0
 42 70  1  0  0  0  0
 43 46  1  0  0  0  0
 43 70  1  0  0  0  0
 44 73  1  0  0  0  0
 45 69  1  0  0  0  0
 46 68  1  0  0  0  0
 47 61  1  0  0  0  0
 48 62  1  0  0  0  0
 49 62  1  0  0  0  0
 50 62  1  0  0  0  0
 51 63  1  0  0  0  0
 52 63  1  0  0  0  0
 53 76  1  0  0  0  0
 54 55  1  0  0  0  0
 55 56  1  0  0  0  0
 56 57  1  0  0  0  0
 57 59  1  0  0  0  0
 58 63  1  0  0  0  0
 58 75  1  0  0  0  0
 59 83  1  0  0  0  0
 60 62  1  0  0  0  0
 60 74  1  0  0  0  0
 61 76  1  0  0  0  0
 63 67  1  0  0  0  0
 64 68  1  0  0  0  0
 65 66  2  0  0  0  0
 66 67  1  0  0  0  0
M  CHG  1  76   1
M  ISO  4  34 100  59 101  75 100  83 101
M  END
> <Batch ID>
0054

> <Smiles>
CNC(C)C(=O)NC(C(=O)N1Cc2cc([101O:1][101CH2:1]CCCCc3cn(C(C)(C)C[100NH:0][100C:0](=O)N4CCCC(n5nc(-c6ccc(Oc7ccc(F)cc7F)cc6)c(C(N)=O)c5N)C4)nn3)ccc2CC1C(=O)NC1CCCc2ccccc21)C(C)(C)C

> <Shape>
0.207

> <Color>
0.078

> <Negative vol penalty>
0.000

$$$$

  -OEChem-04052317413D

 83 91  0     1  0  0  0  0  0999 V2000
  -28.7138  -24.4241   14.8451 C   0  0  0  0  0  0  0  0  0  0  0  0
  -28.1199  -23.5709   15.7698 C   0  0  0  0  0  0  0  0  0  0  0  0
  -24.7389  -11.9815   20.3001 C   0  0  0  0  0  0  0  0  0  0  0  0
  -25.2127  -12.6809   22.5635 C   0  0  0  0  0  0  0  0  0  0  0  0
  -28.9358  -25.7607   15.1739 C   0  0  0  0  0  0  0  0  0  0  0  0
  -27.7487  -24.0538   17.0242 C   0  0  0  0  0  0  0  0  0  0  0  0
  -22.8991  -22.3320   20.3442 C   0  0  0  0  0  0  0  0  0  0  0  0
  -24.8831  -10.6478   20.6820 C   0  0  0  0  0  0  0  0  0  0  0  0
  -25.3569  -11.3472   22.9455 C   0  0  0  0  0  0  0  0  0  0  0  0
  -22.7591  -21.4427   21.4087 C   0  0  0  0  0  0  0  0  0  0  0  0
  -24.7710   -7.0432   21.1402 C   0  0  0  0  0  0  0  0  0  0  0  0
  -23.8161   -6.1324   20.6883 C   0  0  0  0  0  0  0  0  0  0  0  0
  -22.9399  -23.2809   22.9603 C   0  0  0  0  0  0  0  0  0  0  0  0
  -22.0863   -7.3858   21.8170 C   0  0  0  0  0  0  0  0  0  0  0  0
  -26.9328  -19.0596   25.0182 C   0  0  0  0  0  0  0  0  0  0  0  0
  -27.2863  -20.9991   23.2181 C   0  0  0  0  0  0  0  0  0  0  0  0
  -24.9038  -12.9981   21.2408 C   0  0  0  0  0  0  0  0  0  0  0  0
  -23.5738  -15.1411   20.8580 C   0  0  0  0  0  0  0  0  0  0  0  0
  -28.5583  -26.2625   16.4294 C   0  0  0  0  0  0  0  0  0  0  0  0
  -23.0718  -23.7034   20.5804 C   0  0  0  0  0  0  0  0  0  0  0  0
  -27.9671  -25.3980   17.3705 C   0  0  0  0  0  0  0  0  0  0  0  0
  -23.0793  -24.1859   21.8969 C   0  0  0  0  0  0  0  0  0  0  0  0
  -25.1920  -10.3306   22.0047 C   0  0  0  0  0  0  0  0  0  0  0  0
  -22.7824  -21.9167   22.7171 C   0  0  0  0  0  0  0  0  0  0  0  0
  -24.3835   -8.1253   21.9306 C   0  0  0  0  0  0  0  0  0  0  0  0
  -22.4738   -6.3037   21.0266 C   0  0  0  0  0  0  0  0  0  0  0  0
  -23.0412   -8.2966   22.2689 C   0  0  0  0  0  0  0  0  0  0  0  0
  -24.7555  -14.3761   20.8468 C   0  0  0  0  0  0  0  0  0  0  0  0
  -25.9628  -20.0131   24.8009 C   0  0  0  0  0  0  0  0  0  0  0  0
  -28.2568  -20.0460   23.4358 C   0  0  0  0  0  0  0  0  0  0  0  0
  -23.9597  -16.3759   20.3966 C   0  0  0  0  0  0  0  0  0  0  0  0
  -22.2460  -14.7688   21.2505 C   0  0  0  0  0  0  0  0  0  0  0  0
  -25.3657  -25.8149   19.9612 C   0  0  0  0  0  0  0  0  0  0  0  0
  -23.1943  -27.9287   21.1184 C   0  0  0  0  0  0  0  0  0  0  0  0
  -20.4554  -28.4898   23.0754 C   0  0  0  0  0  0  0  0  0  0  0  0
  -29.0424  -19.3493   20.3630 C   0  0  0  0  0  0  0  0  0  0  0  0
  -28.8616  -27.7032   16.7565 C   0  0  0  0  0  0  0  0  0  0  0  0
  -23.1946  -24.6530   19.4204 C   0  0  0  0  0  0  0  0  0  0  0  0
  -23.2416  -25.6515   22.2035 C   0  0  0  0  0  0  0  0  0  0  0  0
  -28.0976  -28.2261   17.9702 C   0  0  0  0  0  0  0  0  0  0  0  0
  -27.1760  -18.4901   17.5693 C   0  0  0  0  0  0  0  0  0  0  0  0
  -28.1731  -27.2264   19.1198 C   0  0  0  0  0  0  0  0  0  0  0  0
  -26.2255  -17.4085   18.0808 C   0  0  0  0  0  0  0  0  0  0  0  0
  -28.5685  -18.3167   18.1640 C   0  0  0  0  0  0  0  0  0  0  0  0
  -27.6411  -17.2394   20.1890 C   0  0  0  0  0  0  0  0  0  0  0  0
  -27.5279  -25.8904   18.7324 C   0  0  1  0  0  0  0  0  0  0  0  0
  -23.8802  -25.9643   19.7917 C   0  0  1  0  0  0  0  0  0  0  0  0
  -26.2135  -17.3678   19.6189 C   0  0  2  0  0  0  0  0  0  0  0  0
  -31.9010  -18.2433   21.7143 C   0  0  0  0  0  0  0  0  0  0  0  0
  -18.9329  -30.3268   23.8532 C   0  0  0  0  0  0  0  0  0  0  0  0
  -25.3495  -28.8933   23.0509 C   0  0  0  0  0  0  0  0  0  0  0  0
  -23.5512  -30.0054   24.3917 C   0  0  0  0  0  0  0  0  0  0  0  0
  -23.9674  -30.7140   22.0364 C   0  0  0  0  0  0  0  0  0  0  0  0
  -18.0895  -27.2092   21.8420 C   0  0  0  0  0  0  0  0  0  0  0  0
  -24.6714  -19.9827   25.5788 C   0  0  0  0  0  0  0  0  0  0  0  0
  -29.5315  -20.0758   22.6675 C   0  0  0  0  0  0  0  0  0  0  0  0
  -23.5688  -19.1590   24.9100 C   0  0  0  0  0  0  0  0  0  0  0  0
  -30.4358  -17.9093   21.9089 C   0  0  0  0  0  0  0  0  0  0  0  0
  -23.1274  -19.7213   23.5638 C   0  0  0  0  0  0  0  0  0  1  0  0
  -22.8644  -28.4833   22.4831 C   0  0  1  0  0  0  0  0  0  0  0  0
  -19.1654  -29.2448   22.8101 C   0  0  2  0  0  0  0  0  0  0  0  0
  -23.9320  -29.4961   22.9852 C   0  0  0  0  0  0  0  0  0  0  0  0
  -26.1219  -20.9998   23.8968 N   0  0  0  0  0  0  0  0  0  0  0  0
  -28.0974  -19.0591   24.3398 N   0  0  0  0  0  0  0  0  0  0  0  0
  -25.8129  -15.0670   20.4125 N   0  0  0  0  0  0  0  0  0  0  0  0
  -25.2969  -16.2791   20.1464 N   0  0  0  0  0  0  0  0  0  0  0  0
  -23.3643  -26.5395   21.0356 N   0  0  0  0  0  0  0  0  0  0  0  0
  -28.5189  -18.2768   19.6258 N   0  0  0  0  0  0  0  0  0  0  0  0
  -23.2821  -17.5240   20.1844 N   0  0  0  0  0  0  0  0  0  0  0  0
  -22.0245  -13.4601   21.7005 N   0  0  0  0  0  0  0  0  0  0  0  0
  -26.0854  -25.9889   18.7945 N   0  0  0  0  0  0  0  0  0  0  0  0
  -21.5173  -29.0347   22.3850 N   0  0  0  0  0  0  0  0  0  0  0  0
  -29.5774  -19.0584   21.6270 N   0  0  0  0  0  0  0  0  0  0  0  0
  -18.0042  -28.3110   22.8348 N   0  3  0  0  0  0  0  0  0  0  0  0
  -21.2812  -15.5681   21.1880 O   0  0  0  0  0  0  0  0  0  0  0  0
  -25.8250  -25.5620   21.0688 O   0  0  0  0  0  0  0  0  0  0  0  0
  -23.2904  -28.6990   20.1597 O   0  0  0  0  0  0  0  0  0  0  0  0
  -20.5157  -27.5165   23.8235 O   0  0  0  0  0  0  0  0  0  0  0  0
  -29.0396  -20.5029   19.9144 O   0  0  0  0  0  0  0  0  0  0  0  0
  -25.3326   -9.0292   22.3778 O   0  0  0  0  0  0  0  0  0  0  0  0
  -22.6467  -21.0507   23.7581 O   0  0  0  0  0  0  0  0  0  1  0  0
  -21.5568   -5.4298   20.5913 F   0  0  0  0  0  0  0  0  0  0  0  0
  -22.6628   -9.3349   23.0270 F   0  0  0  0  0  0  0  0  0  0  0  0
  1  2  1  0  0  0  0
  1  5  2  0  0  0  0
  2  6  2  0  0  0  0
  3  8  2  0  0  0  0
  3 17  1  0  0  0  0
  4  9  1  0  0  0  0
  4 17  2  0  0  0  0
  5 19  1  0  0  0  0
  6 21  1  0  0  0  0
  7 10  2  0  0  0  0
  7 20  1  0  0  0  0
  8 23  1  0  0  0  0
  9 23  2  0  0  0  0
 10 24  1  0  0  0  0
 11 12  2  0  0  0  0
 11 25  1  0  0  0  0
 12 26  1  0  0  0  0
 13 22  1  0  0  0  0
 13 24  2  0  0  0  0
 14 26  2  0  0  0  0
 14 27  1  0  0  0  0
 15 29  2  0  0  0  0
 15 64  1  0  0  0  0
 16 30  1  0  0  0  0
 16 63  2  0  0  0  0
 17 28  1  0  0  0  0
 18 28  1  0  0  0  0
 18 31  2  0  0  0  0
 18 32  1  0  0  0  0
 19 21  2  0  0  0  0
 19 37  1  0  0  0  0
 20 22  2  0  0  0  0
 20 38  1  0  0  0  0
 21 46  1  0  0  0  0
 22 39  1  0  0  0  0
 23 80  1  0  0  0  0
 24 81  1  0  0  0  0
 25 27  2  0  0  0  0
 25 80  1  0  0  0  0
 26 82  1  0  0  0  0
 27 83  1  0  0  0  0
 28 65  2  0  0  0  0
 29 55  1  0  0  0  0
 29 63  1  0  0  0  0
 30 56  1  0  0  0  0
 30 64  2  0  0  0  0
 31 66  1  0  0  0  0
 31 69  1  0  0  0  0
 32 70  1  0  0  0  0
 32 75  2  0  0  0  0
 33 47  1  0  0  0  0
 33 71  1  0  0  0  0
 33 76  2  0  0  0  0
 34 60  1  0  0  0  0
 34 67  1  0  0  0  0
 34 77  2  0  0  0  0
 35 61  1  0  0  0  0
 35 72  1  0  0  0  0
 35 78  2  0  0  0  0
 36 68  1  0  0  0  0
 36 73  1  0  0  0  0
 36 79  2  0  0  0  0
 37 40  1  0  0  0  0
 38 47  1  0  0  0  0
 39 67  1  0  0  0  0
 40 42  1  0  0  0  0
 41 43  1  0  0  0  0
 41 44  1  0  0  0  0
 42 46  1  0  0  0  0
 43 48  1  0  0  0  0
 44 68  1  0  0  0  0
 45 48  1  0  0  0  0
 45 68  1  0  0  0  0
 46 71  1  0  0  0  0
 47 67  1  0  0  0  0
 48 66  1  0  0  0  0
 49 58  1  0  0  0  0
 50 61  1  0  0  0  0
 51 62  1  0  0  0  0
 52 62  1  0  0  0  0
 53 62  1  0  0  0  0
 54 74  1  0  0  0  0
 55 57  1  0  0  0  0
 56 73  1  0  0  0  0
 57 59  1  0  0  0  0
 58 73  1  0  0  0  0
 59 81  1  0  0  0  0
 60 62  1  0  0  0  0
 60 72  1  0  0  0  0
 61 74  1  0  0  0  0
 65 66  1  0  0  0  0
M  CHG  1  74   1
M  ISO  4  36 100  59 101  73 100  81 101
M  END
> <Batch ID>
0054

> <Smiles>
CC[100N:0](Cc1cnc(CC[101CH2:1][101O:1]c2ccc3c(c2)CN(C(=O)C(NC(=O)C(C)NC)C(C)(C)C)C(C(=O)NC2CCCc4ccccc42)C3)cn1)[100C:0](=O)N1CCCC(n2nc(-c3ccc(Oc4ccc(F)cc4F)cc3)c(C(N)=O)c2N)C1

> <Shape>
0.211

> <Color>
0.067

> <Negative vol penalty>
0.000

$$$$

  -OEChem-04052317413D

 81 89  0     1  0  0  0  0  0999 V2000
  -27.6016   -9.1523   20.0308 C   0  0  0  0  0  0  0  0  0  0  0  0
  -28.1325  -10.3806   19.6501 C   0  0  0  0  0  0  0  0  0  0  0  0
  -22.6999  -27.3273   23.3166 C   0  0  0  0  0  0  0  0  0  0  0  0
  -22.7116  -26.7160   20.9793 C   0  0  0  0  0  0  0  0  0  0  0  0
  -26.3058   -9.0822   20.5404 C   0  0  0  0  0  0  0  0  0  0  0  0
  -27.3674  -11.5393   19.7777 C   0  0  0  0  0  0  0  0  0  0  0  0
  -29.3847  -17.1459   21.1927 C   0  0  0  0  0  0  0  0  0  0  0  0
  -21.6167  -28.1761   23.0892 C   0  0  0  0  0  0  0  0  0  0  0  0
  -21.6283  -27.5648   20.7519 C   0  0  0  0  0  0  0  0  0  0  0  0
  -29.6878  -18.2590   20.4098 C   0  0  0  0  0  0  0  0  0  0  0  0
  -18.2719  -27.8924   22.6836 C   0  0  0  0  0  0  0  0  0  0  0  0
  -17.2131  -27.8495   23.5907 C   0  0  0  0  0  0  0  0  0  0  0  0
  -27.4831  -19.1450   20.8266 C   0  0  0  0  0  0  0  0  0  0  0  0
  -17.5571  -30.1855   24.1026 C   0  0  0  0  0  0  0  0  0  0  0  0
  -23.2474  -26.5972   22.2616 C   0  0  0  0  0  0  0  0  0  0  0  0
  -24.3205  -24.3593   22.8514 C   0  0  0  0  0  0  0  0  0  0  0  0
  -25.5278  -10.2419   20.6834 C   0  0  0  0  0  0  0  0  0  0  0  0
  -28.1226  -17.0185   21.7905 C   0  0  0  0  0  0  0  0  0  0  0  0
  -26.0594  -11.4844   20.2884 C   0  0  0  0  0  0  0  0  0  0  0  0
  -27.1674  -18.0305   21.6187 C   0  0  0  0  0  0  0  0  0  0  0  0
  -21.0809  -28.2949   21.8069 C   0  0  0  0  0  0  0  0  0  0  0  0
  -28.7359  -19.2574   20.2243 C   0  0  0  0  0  0  0  0  0  0  0  0
  -18.9733  -29.0818   22.4861 C   0  0  0  0  0  0  0  0  0  0  0  0
  -16.8557  -28.9960   24.3002 C   0  0  0  0  0  0  0  0  0  0  0  0
  -18.6159  -30.2283   23.1956 C   0  0  0  0  0  0  0  0  0  0  0  0
  -24.3667  -25.7206   22.4958 C   0  0  0  0  0  0  0  0  0  0  0  0
  -28.5082  -22.4251   18.4186 C   0  0  0  0  0  0  0  0  0  0  0  0
  -28.1468  -22.6285   17.1033 C   0  0  0  0  0  0  0  0  0  0  0  0
  -25.6383  -23.9865   22.9547 C   0  0  0  0  0  0  0  0  0  0  0  0
  -29.7358  -24.1958   18.0094 C   0  0  0  0  0  0  0  0  0  0  0  0
  -23.1876  -23.5079   23.0689 C   0  0  0  0  0  0  0  0  0  0  0  0
  -25.7300  -14.9388   21.5579 C   0  0  0  0  0  0  0  0  0  0  0  0
  -24.4931  -16.6824   23.9976 C   0  0  0  0  0  0  0  0  0  0  0  0
  -24.3834  -19.6558   25.6691 C   0  0  0  0  0  0  0  0  0  0  0  0
  -30.6622  -25.9378   20.5818 C   0  0  0  0  0  0  0  0  0  0  0  0
  -24.1152  -10.1099   21.1949 C   0  0  0  0  0  0  0  0  0  0  0  0
  -27.8205  -15.8245   22.6540 C   0  0  0  0  0  0  0  0  0  0  0  0
  -25.8047  -17.9512   22.2554 C   0  0  0  0  0  0  0  0  0  0  0  0
  -23.5054  -11.4339   21.6483 C   0  0  0  0  0  0  0  0  0  0  0  0
  -29.9652  -25.7328   23.9727 C   0  0  0  0  0  0  0  0  0  0  0  0
  -23.7659  -12.5238   20.6134 C   0  0  0  0  0  0  0  0  0  0  0  0
  -28.4461  -25.5770   24.0269 C   0  0  0  0  0  0  0  0  0  0  0  0
  -30.3712  -26.7414   22.9048 C   0  0  0  0  0  0  0  0  0  0  0  0
  -28.3455  -26.2460   21.5736 C   0  0  0  0  0  0  0  0  0  0  0  0
  -25.2694  -12.7669   20.4348 C   0  0  1  0  0  0  0  0  0  0  0  0
  -26.3262  -15.5510   22.7938 C   0  0  1  0  0  0  0  0  0  0  0  0
  -27.8774  -25.2335   22.6390 C   0  0  2  0  0  0  0  0  0  0  0  0
  -27.2147  -21.8704   16.2446 C   0  0  0  0  0  0  0  0  0  0  0  0
  -30.8723  -28.4446   18.3700 C   0  0  0  0  0  0  0  0  0  0  0  0
  -23.2498  -20.7897   27.5995 C   0  0  0  0  0  0  0  0  0  0  0  0
  -21.9628  -16.9997   22.3223 C   0  0  0  0  0  0  0  0  0  0  0  0
  -21.2781  -18.8716   23.8373 C   0  0  0  0  0  0  0  0  0  0  0  0
  -21.5578  -16.5678   24.7521 C   0  0  0  0  0  0  0  0  0  0  0  0
  -26.9519  -20.0861   27.0749 C   0  0  0  0  0  0  0  0  0  0  0  0
  -28.0067  -21.3292   19.3124 C   0  0  0  0  0  0  0  0  0  1  0  0
  -30.6888  -25.3114   18.1976 C   0  0  0  0  0  0  0  0  0  0  0  0
  -29.7637  -27.5131   18.8166 C   0  0  0  0  0  0  0  0  0  0  0  0
  -23.6055  -17.8993   24.0994 C   0  0  1  0  0  0  0  0  0  0  0  0
  -24.4575  -19.9823   27.1498 C   0  0  2  0  0  0  0  0  0  0  0  0
  -22.1259  -17.5854   23.7390 C   0  0  0  0  0  0  0  0  0  0  0  0
  -25.6151  -26.1815   22.3810 N   0  0  0  0  0  0  0  0  0  0  0  0
  -29.4196  -23.3226   18.9398 N   0  0  0  0  0  0  0  0  0  0  0  0
  -26.3655  -25.1037   22.6662 N   0  0  0  0  0  0  0  0  0  0  0  0
  -25.5550  -16.7611   23.0855 N   0  0  0  0  0  0  0  0  0  0  0  0
  -29.8095  -26.3872   21.6010 N   0  0  0  0  0  0  0  0  0  0  0  0
  -26.2345  -22.8153   23.2632 N   0  0  0  0  0  0  0  0  0  0  0  0
  -21.9045  -24.0522   22.9209 N   0  0  0  0  0  0  0  0  0  0  0  0
  -25.7871  -13.5584   21.5302 N   0  0  0  0  0  0  0  0  0  0  0  0
  -23.7930  -18.4299   25.4454 N   0  0  0  0  0  0  0  0  0  0  0  0
  -30.2878  -26.2226   19.2600 N   0  0  0  0  0  0  0  0  0  0  0  0
  -25.6868  -20.7711   27.4454 N   0  3  0  0  0  0  0  0  0  0  0  0
  -23.3093  -22.3044   23.4012 O   0  0  0  0  0  0  0  0  0  0  0  0
  -25.2523  -15.6649   20.6941 O   0  0  0  0  0  0  0  0  0  0  0  0
  -24.2573  -15.7009   24.7067 O   0  0  0  0  0  0  0  0  0  0  0  0
  -24.8036  -20.4141   24.7980 O   0  0  0  0  0  0  0  0  0  0  0  0
  -31.7051  -25.3223   20.8378 O   0  0  0  0  0  0  0  0  0  0  0  0
  -20.0237  -29.1229   21.5846 O   0  0  0  0  0  0  0  0  0  0  0  0
  -29.0290  -20.3446   19.4601 O   0  0  0  0  0  0  0  0  0  1  0  0
  -15.8380  -28.9551   25.1700 F   0  0  0  0  0  0  0  0  0  0  0  0
  -19.2854  -31.3741   23.0092 F   0  0  0  0  0  0  0  0  0  0  0  0
  -28.9742  -23.9974   16.4844 S   0  0  0  0  0  0  0  0  0  0  0  0
  1  2  1  0  0  0  0
  1  5  2  0  0  0  0
  2  6  2  0  0  0  0
  3  8  2  0  0  0  0
  3 15  1  0  0  0  0
  4  9  1  0  0  0  0
  4 15  2  0  0  0  0
  5 17  1  0  0  0  0
  6 19  1  0  0  0  0
  7 10  2  0  0  0  0
  7 18  1  0  0  0  0
  8 21  1  0  0  0  0
  9 21  2  0  0  0  0
 10 22  1  0  0  0  0
 11 12  2  0  0  0  0
 11 23  1  0  0  0  0
 12 24  1  0  0  0  0
 13 20  1  0  0  0  0
 13 22  2  0  0  0  0
 14 24  2  0  0  0  0
 14 25  1  0  0  0  0
 15 26  1  0  0  0  0
 16 26  1  0  0  0  0
 16 29  2  0  0  0  0
 16 31  1  0  0  0  0
 17 19  2  0  0  0  0
 17 36  1  0  0  0  0
 18 20  2  0  0  0  0
 18 37  1  0  0  0  0
 19 45  1  0  0  0  0
 20 38  1  0  0  0  0
 21 77  1  0  0  0  0
 22 78  1  0  0  0  0
 23 25  2  0  0  0  0
 23 77  1  0  0  0  0
 24 79  1  0  0  0  0
 25 80  1  0  0  0  0
 26 61  2  0  0  0  0
 27 28  2  0  0  0  0
 27 55  1  0  0  0  0
 27 62  1  0  0  0  0
 28 48  1  0  0  0  0
 28 81  1  0  0  0  0
 29 63  1  0  0  0  0
 29 66  1  0  0  0  0
 30 56  1  0  0  0  0
 30 62  2  0  0  0  0
 30 81  1  0  0  0  0
 31 67  1  0  0  0  0
 31 72  2  0  0  0  0
 32 46  1  0  0  0  0
 32 68  1  0  0  0  0
 32 73  2  0  0  0  0
 33 58  1  0  0  0  0
 33 64  1  0  0  0  0
 33 74  2  0  0  0  0
 34 59  1  0  0  0  0
 34 69  1  0  0  0  0
 34 75  2  0  0  0  0
 35 65  1  0  0  0  0
 35 70  1  0  0  0  0
 35 76  2  0  0  0  0
 36 39  1  0  0  0  0
 37 46  1  0  0  0  0
 38 64  1  0  0  0  0
 39 41  1  0  0  0  0
 40 42  1  0  0  0  0
 40 43  1  0  0  0  0
 41 45  1  0  0  0  0
 42 47  1  0  0  0  0
 43 65  1  0  0  0  0
 44 47  1  0  0  0  0
 44 65  1  0  0  0  0
 45 68  1  0  0  0  0
 46 64  1  0  0  0  0
 47 63  1  0  0  0  0
 49 57  1  0  0  0  0
 50 59  1  0  0  0  0
 51 60  1  0  0  0  0
 52 60  1  0  0  0  0
 53 60  1  0  0  0  0
 54 71  1  0  0  0  0
 55 78  1  0  0  0  0
 56 70  1  0  0  0  0
 57 70  1  0  0  0  0
 58 60  1  0  0  0  0
 58 69  1  0  0  0  0
 59 71  1  0  0  0  0
 61 63  1  0  0  0  0
M  CHG  1  71   1
M  ISO  4  35 100  55 101  70 100  78 101
M  END
> <Batch ID>
0054

> <Smiles>
CC[100N:0](Cc1nc([101CH2:1][101O:1]c2ccc3c(c2)CN(C(=O)C(NC(=O)C(C)NC)C(C)(C)C)C(C(=O)NC2CCCc4ccccc42)C3)c(C)s1)[100C:0](=O)N1CCCC(n2nc(-c3ccc(Oc4ccc(F)cc4F)cc3)c(C(N)=O)c2N)C1

> <Shape>
0.196

> <Color>
0.065

> <Negative vol penalty>
0.000

$$$$

  -OEChem-04052317413D

 89 97  0     1  0  0  0  0  0999 V2000
  -13.6921  -16.9376   21.4367 C   0  0  0  0  0  0  0  0  0  0  0  0
  -14.9824  -17.0885   21.9343 C   0  0  0  0  0  0  0  0  0  0  0  0
  -23.1240   -9.8818   19.9000 C   0  0  0  0  0  0  0  0  0  0  0  0
  -23.7939   -9.8727   22.2212 C   0  0  0  0  0  0  0  0  0  0  0  0
  -13.3612  -17.4652   20.1893 C   0  0  0  0  0  0  0  0  0  0  0  0
  -15.9430  -17.7661   21.1842 C   0  0  0  0  0  0  0  0  0  0  0  0
  -18.6384  -21.0255   23.9691 C   0  0  0  0  0  0  0  0  0  0  0  0
  -22.3617   -8.7338   20.1154 C   0  0  0  0  0  0  0  0  0  0  0  0
  -23.0316   -8.7247   22.4367 C   0  0  0  0  0  0  0  0  0  0  0  0
  -19.6487  -20.4949   24.7702 C   0  0  0  0  0  0  0  0  0  0  0  0
  -20.9741   -5.9982   23.6824 C   0  0  0  0  0  0  0  0  0  0  0  0
  -20.1724   -5.9558   24.8230 C   0  0  0  0  0  0  0  0  0  0  0  0
  -21.2853  -21.1281   23.1150 C   0  0  0  0  0  0  0  0  0  0  0  0
  -18.9729   -7.9064   24.0525 C   0  0  0  0  0  0  0  0  0  0  0  0
  -29.0546  -18.0963   20.6751 C   0  0  0  0  0  0  0  0  0  0  0  0
  -23.8402  -10.4513   20.9529 C   0  0  0  0  0  0  0  0  0  0  0  0
  -24.2067  -12.9740   20.8579 C   0  0  0  0  0  0  0  0  0  0  0  0
  -14.3155  -18.1581   19.4278 C   0  0  0  0  0  0  0  0  0  0  0  0
  -18.9433  -21.6026   22.7280 C   0  0  0  0  0  0  0  0  0  0  0  0
  -15.6249  -18.3023   19.9249 C   0  0  0  0  0  0  0  0  0  0  0  0
  -20.2774  -21.6676   22.3012 C   0  0  0  0  0  0  0  0  0  0  0  0
  -22.3155   -8.1552   21.3838 C   0  0  0  0  0  0  0  0  0  0  0  0
  -20.9720  -20.5436   24.3418 C   0  0  0  0  0  0  0  0  0  0  0  0
  -20.7753   -6.9948   22.7268 C   0  0  0  0  0  0  0  0  0  0  0  0
  -19.1718   -6.9099   25.0081 C   0  0  0  0  0  0  0  0  0  0  0  0
  -19.7747   -7.9488   22.9118 C   0  0  0  0  0  0  0  0  0  0  0  0
  -24.6283  -11.6369   20.7308 C   0  0  0  0  0  0  0  0  0  0  0  0
  -29.3418  -17.4908   21.8786 C   0  0  0  0  0  0  0  0  0  0  0  0
  -26.9795  -18.6595   21.4538 C   0  0  0  0  0  0  0  0  0  0  0  0
  -27.2664  -18.0533   22.6570 C   0  0  0  0  0  0  0  0  0  0  0  0
  -25.3182  -13.7161   20.5409 C   0  0  0  0  0  0  0  0  0  0  0  0
  -22.9250  -13.4985   21.2294 C   0  0  0  0  0  0  0  0  0  0  0  0
  -18.1743  -20.9683   19.7098 C   0  0  0  0  0  0  0  0  0  0  0  0
  -19.7488  -23.7452   19.1338 C   0  0  0  0  0  0  0  0  0  0  0  0
  -22.0826  -26.0174   20.1522 C   0  0  0  0  0  0  0  0  0  0  0  0
  -30.7100  -14.7501   20.8010 C   0  0  0  0  0  0  0  0  0  0  0  0
  -13.9238  -18.6697   18.0641 C   0  0  0  0  0  0  0  0  0  0  0  0
  -17.8451  -22.1945   21.8878 C   0  0  0  0  0  0  0  0  0  0  0  0
  -20.6597  -22.2947   20.9863 C   0  0  0  0  0  0  0  0  0  0  0  0
  -14.8978  -19.6993   17.4970 C   0  0  0  0  0  0  0  0  0  0  0  0
  -29.7291  -12.3505   18.4976 C   0  0  0  0  0  0  0  0  0  0  0  0
  -16.3370  -19.2241   17.6690 C   0  0  0  0  0  0  0  0  0  0  0  0
  -28.2796  -12.0490   18.8756 C   0  0  0  0  0  0  0  0  0  0  0  0
  -30.5931  -12.5159   19.7421 C   0  0  0  0  0  0  0  0  0  0  0  0
  -28.6517  -13.2879   21.0673 C   0  0  0  0  0  0  0  0  0  0  0  0
  -16.6878  -19.0525   19.1519 C   0  0  1  0  0  0  0  0  0  0  0  0
  -18.2121  -22.2968   20.4106 C   0  0  1  0  0  0  0  0  0  0  0  0
  -27.7299  -13.1118   19.8431 C   0  0  2  0  0  0  0  0  0  0  0  0
  -25.4403  -19.6352   19.7317 C   0  0  0  0  0  0  0  0  0  0  0  0
  -32.0964  -14.6583   23.8490 C   0  0  0  0  0  0  0  0  0  0  0  0
  -23.1777  -28.1645   19.4534 C   0  0  0  0  0  0  0  0  0  0  0  0
  -21.4430  -22.2186   17.1067 C   0  0  0  0  0  0  0  0  0  0  0  0
  -23.0815  -24.1110   17.1553 C   0  0  0  0  0  0  0  0  0  0  0  0
  -20.7461  -24.5053   16.3723 C   0  0  0  0  0  0  0  0  0  0  0  0
  -21.0859  -27.4407   22.5480 C   0  0  0  0  0  0  0  0  0  0  0  0
  -24.3389  -15.3195   25.6394 C   0  0  0  0  0  0  0  0  0  0  0  0
  -25.6632  -19.3142   21.2076 C   0  0  0  0  0  0  0  0  0  0  0  0
  -26.2666  -18.0238   23.7767 C   0  0  0  0  0  0  0  0  0  0  0  0
  -30.6637  -16.8437   22.1020 C   0  0  0  0  0  0  0  0  0  0  0  0
  -22.8479  -18.0578   26.1663 C   0  0  0  0  0  0  0  0  0  0  0  0
  -30.6730  -14.7046   23.3311 C   0  0  0  0  0  0  0  0  0  0  0  0
  -25.5868  -16.6708   23.9609 C   0  0  0  0  0  0  0  0  0  0  0  0
  -23.4245  -17.5049   24.8716 C   0  0  0  0  0  0  0  0  0  0  0  0
  -21.6136  -18.9284   25.9652 C   0  0  0  0  0  0  0  0  0  1  0  0
  -21.1799  -24.1202   18.8331 C   0  0  1  0  0  0  0  0  0  0  0  0
  -22.0415  -27.5323   20.2421 C   0  0  2  0  0  0  0  0  0  0  0  0
  -21.6055  -23.7252   17.3908 C   0  0  0  0  0  0  0  0  0  0  0  0
  -27.8682  -18.6916   20.4411 N   0  0  0  0  0  0  0  0  0  0  0  0
  -25.9077  -11.5325   20.3616 N   0  0  0  0  0  0  0  0  0  0  0  0
  -28.4529  -17.4584   22.8911 N   0  0  0  0  0  0  0  0  0  0  0  0
  -26.2996  -12.8135   20.2540 N   0  0  0  0  0  0  0  0  0  0  0  0
  -19.5494  -22.8540   20.1977 N   0  0  0  0  0  0  0  0  0  0  0  0
  -30.0388  -13.5288   20.6408 N   0  0  0  0  0  0  0  0  0  0  0  0
  -25.5420  -15.0461   20.4823 N   0  0  0  0  0  0  0  0  0  0  0  0
  -21.8935  -12.5962   21.5228 N   0  0  0  0  0  0  0  0  0  0  0  0
  -16.9451  -20.3391   19.7626 N   0  0  0  0  0  0  0  0  0  0  0  0
  -21.2976  -25.5455   19.1216 N   0  0  0  0  0  0  0  0  0  0  0  0
  -30.5885  -15.3908   22.0433 N   0  0  0  0  0  0  0  0  0  0  0  0
  -22.1545  -27.9701   21.6621 N   0  3  0  0  0  0  0  0  0  0  0  0
  -24.6463  -16.7113   25.1414 N   0  3  1  0  0  0  0  0  0  0  0  0
  -22.6966  -14.7307   21.2831 O   0  0  0  0  0  0  0  0  0  0  0  0
  -19.1850  -20.5460   19.1604 O   0  0  0  0  0  0  0  0  0  0  0  0
  -18.8409  -24.2308   18.4545 O   0  0  0  0  0  0  0  0  0  0  0  0
  -22.7478  -25.3226   20.9172 O   0  0  0  0  0  0  0  0  0  0  0  0
  -31.3875  -15.2387   19.8875 O   0  0  0  0  0  0  0  0  0  0  0  0
  -21.5715   -7.0350   21.5945 O   0  0  0  0  0  0  0  0  0  0  0  0
  -21.9600  -20.0258   25.1214 O   0  0  0  0  0  0  0  0  0  1  0  0
  -18.4010   -6.8681   26.1027 F   0  0  0  0  0  0  0  0  0  0  0  0
  -19.5781   -8.9078   21.9967 F   0  0  0  0  0  0  0  0  0  0  0  0
  1  2  1  0  0  0  0
  1  5  2  0  0  0  0
  2  6  2  0  0  0  0
  3  8  2  0  0  0  0
  3 16  1  0  0  0  0
  4  9  1  0  0  0  0
  4 16  2  0  0  0  0
  5 18  1  0  0  0  0
  6 20  1  0  0  0  0
  7 10  2  0  0  0  0
  7 19  1  0  0  0  0
  8 22  1  0  0  0  0
  9 22  2  0  0  0  0
 10 23  1  0  0  0  0
 11 12  2  0  0  0  0
 11 24  1  0  0  0  0
 12 25  1  0  0  0  0
 13 21  1  0  0  0  0
 13 23  2  0  0  0  0
 14 25  2  0  0  0  0
 14 26  1  0  0  0  0
 15 28  1  0  0  0  0
 15 68  2  0  0  0  0
 16 27  1  0  0  0  0
 17 27  1  0  0  0  0
 17 31  2  0  0  0  0
 17 32  1  0  0  0  0
 18 20  2  0  0  0  0
 18 37  1  0  0  0  0
 19 21  2  0  0  0  0
 19 38  1  0  0  0  0
 20 46  1  0  0  0  0
 21 39  1  0  0  0  0
 22 86  1  0  0  0  0
 23 87  1  0  0  0  0
 24 26  2  0  0  0  0
 24 86  1  0  0  0  0
 25 88  1  0  0  0  0
 26 89  1  0  0  0  0
 27 69  2  0  0  0  0
 28 59  1  0  0  0  0
 28 70  2  0  0  0  0
 29 30  2  0  0  0  0
 29 57  1  0  0  0  0
 29 68  1  0  0  0  0
 30 58  1  0  0  0  0
 30 70  1  0  0  0  0
 31 71  1  0  0  0  0
 31 74  1  0  0  0  0
 32 75  1  0  0  0  0
 32 81  2  0  0  0  0
 33 47  1  0  0  0  0
 33 76  1  0  0  0  0
 33 82  2  0  0  0  0
 34 65  1  0  0  0  0
 34 72  1  0  0  0  0
 34 83  2  0  0  0  0
 35 66  1  0  0  0  0
 35 77  1  0  0  0  0
 35 84  2  0  0  0  0
 36 73  1  0  0  0  0
 36 78  1  0  0  0  0
 36 85  2  0  0  0  0
 37 40  1  0  0  0  0
 38 47  1  0  0  0  0
 39 72  1  0  0  0  0
 40 42  1  0  0  0  0
 41 43  1  0  0  0  0
 41 44  1  0  0  0  0
 42 46  1  0  0  0  0
 43 48  1  0  0  0  0
 44 73  1  0  0  0  0
 45 48  1  0  0  0  0
 45 73  1  0  0  0  0
 46 76  1  0  0  0  0
 47 72  1  0  0  0  0
 48 71  1  0  0  0  0
 49 57  1  0  0  0  0
 50 61  1  0  0  0  0
 51 66  1  0  0  0  0
 52 67  1  0  0  0  0
 53 67  1  0  0  0  0
 54 67  1  0  0  0  0
 55 79  1  0  0  0  0
 56 80  1  0  0  0  0
 58 62  1  0  0  0  0
 59 78  1  0  0  0  0
 60 63  1  0  0  0  0
 60 64  1  0  0  0  0
 61 78  1  0  0  0  0
 62 80  1  0  0  0  0
 63 80  1  0  0  0  0
 64 87  1  0  0  0  0
 65 67  1  0  0  0  0
 65 77  1  0  0  0  0
 66 79  1  0  0  0  0
 69 71  1  0  0  0  0
M  CHG  2  79   1  80   1
M  ISO  4  36 100  64 101  78 100  87 101
M  END
> <Batch ID>
0054

> <Smiles>
CCc1ncc(C[100N:0](CC)[100C:0](=O)N2CCCC(n3nc(-c4ccc(Oc5ccc(F)cc5F)cc4)c(C(N)=O)c3N)C2)nc1CCN(C)CC[101CH2:1][101O:1]c1ccc2c(c1)CN(C(=O)C(NC(=O)C(C)NC)C(C)(C)C)C(C(=O)NC1CCCc3ccccc31)C2

> <Shape>
0.190

> <Color>
0.177

> <Negative vol penalty>
0.000

$$$$

  -OEChem-04052317413D

 81 89  0     1  0  0  0  0  0999 V2000
  -17.3711  -32.0535   21.9973 C   0  0  0  0  0  0  0  0  0  0  0  0
  -18.5907  -32.1654   21.3373 C   0  0  0  0  0  0  0  0  0  0  0  0
  -25.5325  -16.4654   21.6219 C   0  0  0  0  0  0  0  0  0  0  0  0
  -24.9872  -16.9502   19.3187 C   0  0  0  0  0  0  0  0  0  0  0  0
  -17.2611  -31.2378   23.1226 C   0  0  0  0  0  0  0  0  0  0  0  0
  -19.7013  -31.4625   21.8031 C   0  0  0  0  0  0  0  0  0  0  0  0
  -25.6312  -28.2008   19.4550 C   0  0  0  0  0  0  0  0  0  0  0  0
  -24.3477  -15.7406   21.7498 C   0  0  0  0  0  0  0  0  0  0  0  0
  -23.8024  -16.2253   19.4466 C   0  0  0  0  0  0  0  0  0  0  0  0
  -27.0082  -28.1818   19.6729 C   0  0  0  0  0  0  0  0  0  0  0  0
  -23.2002  -12.6739   20.9061 C   0  0  0  0  0  0  0  0  0  0  0  0
  -23.2637  -11.4356   21.5450 C   0  0  0  0  0  0  0  0  0  0  0  0
  -26.6804  -26.7409   21.5796 C   0  0  0  0  0  0  0  0  0  0  0  0
  -21.7047  -12.2181   23.2166 C   0  0  0  0  0  0  0  0  0  0  0  0
  -32.0316  -25.9561   19.3847 C   0  0  0  0  0  0  0  0  0  0  0  0
  -31.8774  -25.8993   21.5823 C   0  0  0  0  0  0  0  0  0  0  0  0
  -25.8523  -17.0703   20.4063 C   0  0  0  0  0  0  0  0  0  0  0  0
  -28.3333  -17.3301   19.8727 C   0  0  0  0  0  0  0  0  0  0  0  0
  -18.3684  -30.5170   23.5967 C   0  0  0  0  0  0  0  0  0  0  0  0
  -24.7662  -27.4977   20.3057 C   0  0  0  0  0  0  0  0  0  0  0  0
  -19.6063  -30.6374   22.9366 C   0  0  0  0  0  0  0  0  0  0  0  0
  -25.2931  -26.7505   21.3688 C   0  0  0  0  0  0  0  0  0  0  0  0
  -23.4827  -15.6204   20.6622 C   0  0  0  0  0  0  0  0  0  0  0  0
  -27.5327  -27.4541   20.7370 C   0  0  0  0  0  0  0  0  0  0  0  0
  -22.3891  -13.6844   21.4225 C   0  0  0  0  0  0  0  0  0  0  0  0
  -22.5159  -11.2077   22.7002 C   0  0  0  0  0  0  0  0  0  0  0  0
  -21.6413  -13.4565   22.5777 C   0  0  0  0  0  0  0  0  0  0  0  0
  -27.0757  -17.8197   20.2736 C   0  0  0  0  0  0  0  0  0  0  0  0
  -32.4437  -24.7442   19.8866 C   0  0  0  0  0  0  0  0  0  0  0  0
  -29.1567  -18.4289   19.9081 C   0  0  0  0  0  0  0  0  0  0  0  0
  -28.7223  -16.0011   19.5013 C   0  0  0  0  0  0  0  0  0  0  0  0
  -22.3926  -28.3073   22.2588 C   0  0  0  0  0  0  0  0  0  0  0  0
  -22.0528  -25.0941   22.5459 C   0  0  0  0  0  0  0  0  0  0  0  0
  -23.4741  -21.9993   22.3252 C   0  0  0  0  0  0  0  0  0  0  0  0
  -29.7289  -23.8147   18.4014 C   0  0  0  0  0  0  0  0  0  0  0  0
  -18.2127  -29.6849   24.8449 C   0  0  0  0  0  0  0  0  0  0  0  0
  -23.2855  -27.5066   20.0412 C   0  0  0  0  0  0  0  0  0  0  0  0
  -24.4089  -25.9622   22.2989 C   0  0  0  0  0  0  0  0  0  0  0  0
  -19.3437  -28.6809   25.0527 C   0  0  0  0  0  0  0  0  0  0  0  0
  -28.4308  -23.0427   21.8236 C   0  0  0  0  0  0  0  0  0  0  0  0
  -20.6974  -29.3486   24.8325 C   0  0  0  0  0  0  0  0  0  0  0  0
  -28.0075  -21.5846   21.6527 C   0  0  0  0  0  0  0  0  0  0  0  0
  -28.3331  -23.8036   20.5068 C   0  0  0  0  0  0  0  0  0  0  0  0
  -28.6934  -21.7259   19.2146 C   0  0  0  0  0  0  0  0  0  0  0  0
  -20.8276  -29.8714   23.3968 C   0  0  1  0  0  0  0  0  0  0  0  0
  -22.4558  -27.1718   21.2768 C   0  0  1  0  0  0  0  0  0  0  0  0
  -28.7957  -20.9125   20.5156 C   0  0  2  0  0  0  0  0  0  0  0  0
  -22.9575  -19.5661   22.6572 C   0  0  0  0  0  0  0  0  0  0  0  0
  -22.2318  -25.4711   25.5684 C   0  0  0  0  0  0  0  0  0  0  0  0
  -22.6656  -23.0143   25.7791 C   0  0  0  0  0  0  0  0  0  0  0  0
  -20.5071  -23.8204   24.8233 C   0  0  0  0  0  0  0  0  0  0  0  0
  -31.2797  -23.3699   16.4529 C   0  0  0  0  0  0  0  0  0  0  0  0
  -24.0288  -21.3748   19.4859 C   0  0  0  0  0  0  0  0  0  0  0  0
  -32.9383  -23.5733   19.1467 C   0  0  0  0  0  0  0  0  0  0  0  0
  -31.1493  -28.1015   20.4835 C   0  0  0  0  0  0  0  0  0  0  0  0
  -31.8386  -22.5795   18.7222 C   0  0  0  0  0  0  0  0  0  0  0  0
  -29.6899  -28.1817   20.0491 C   0  0  0  0  0  0  0  0  0  1  0  0
  -22.6243  -24.0359   23.4584 C   0  0  1  0  0  0  0  0  0  0  0  0
  -22.9993  -20.7176   21.6647 C   0  0  2  0  0  0  0  0  0  0  0  0
  -22.0240  -24.1018   24.8911 C   0  0  0  0  0  0  0  0  0  0  0  0
  -32.3449  -24.7151   21.2552 N   0  0  0  0  0  0  0  0  0  0  0  0
  -27.0939  -19.1276   20.5441 N   0  0  0  0  0  0  0  0  0  0  0  0
  -31.6715  -26.6854   20.4828 N   0  0  0  0  0  0  0  0  0  0  0  0
  -28.3729  -19.4692   20.3127 N   0  0  0  0  0  0  0  0  0  0  0  0
  -22.9675  -26.0075   22.0027 N   0  0  0  0  0  0  0  0  0  0  0  0
  -29.0694  -23.1248   19.4320 N   0  0  0  0  0  0  0  0  0  0  0  0
  -30.4674  -18.5970   19.6324 N   0  0  0  0  0  0  0  0  0  0  0  0
  -27.7509  -14.9909   19.5195 N   0  0  0  0  0  0  0  0  0  0  0  0
  -21.1156  -28.7834   22.4869 N   0  0  0  0  0  0  0  0  0  0  0  0
  -22.4186  -22.7596   22.7824 N   0  0  0  0  0  0  0  0  0  0  0  0
  -30.8584  -23.1990   17.8415 N   0  0  0  0  0  0  0  0  0  0  0  0
  -23.9112  -20.3420   20.5473 N   0  3  0  0  0  0  0  0  0  0  0  0
  -29.9002  -15.7143   19.1792 O   0  0  0  0  0  0  0  0  0  0  0  0
  -23.4258  -28.7199   22.7726 O   0  0  0  0  0  0  0  0  0  0  0  0
  -20.8407  -25.1054   22.3176 O   0  0  0  0  0  0  0  0  0  0  0  0
  -24.6626  -22.2945   22.4287 O   0  0  0  0  0  0  0  0  0  0  0  0
  -29.3248  -24.9127   17.9977 O   0  0  0  0  0  0  0  0  0  0  0  0
  -22.3266  -14.9130   20.7867 O   0  0  0  0  0  0  0  0  0  0  0  0
  -28.8763  -27.4343   20.9524 O   0  0  0  0  0  0  0  0  0  1  0  0
  -22.5757  -10.0180   23.3127 F   0  0  0  0  0  0  0  0  0  0  0  0
  -20.8593  -14.4230   23.0779 F   0  0  0  0  0  0  0  0  0  0  0  0
  1  2  1  0  0  0  0
  1  5  2  0  0  0  0
  2  6  2  0  0  0  0
  3  8  2  0  0  0  0
  3 17  1  0  0  0  0
  4  9  1  0  0  0  0
  4 17  2  0  0  0  0
  5 19  1  0  0  0  0
  6 21  1  0  0  0  0
  7 10  2  0  0  0  0
  7 20  1  0  0  0  0
  8 23  1  0  0  0  0
  9 23  2  0  0  0  0
 10 24  1  0  0  0  0
 11 12  2  0  0  0  0
 11 25  1  0  0  0  0
 12 26  1  0  0  0  0
 13 22  1  0  0  0  0
 13 24  2  0  0  0  0
 14 26  2  0  0  0  0
 14 27  1  0  0  0  0
 15 29  2  0  0  0  0
 15 63  1  0  0  0  0
 16 61  2  0  0  0  0
 16 63  1  0  0  0  0
 17 28  1  0  0  0  0
 18 28  1  0  0  0  0
 18 30  2  0  0  0  0
 18 31  1  0  0  0  0
 19 21  2  0  0  0  0
 19 36  1  0  0  0  0
 20 22  2  0  0  0  0
 20 37  1  0  0  0  0
 21 45  1  0  0  0  0
 22 38  1  0  0  0  0
 23 78  1  0  0  0  0
 24 79  1  0  0  0  0
 25 27  2  0  0  0  0
 25 78  1  0  0  0  0
 26 80  1  0  0  0  0
 27 81  1  0  0  0  0
 28 62  2  0  0  0  0
 29 54  1  0  0  0  0
 29 61  1  0  0  0  0
 30 64  1  0  0  0  0
 30 67  1  0  0  0  0
 31 68  1  0  0  0  0
 31 73  2  0  0  0  0
 32 46  1  0  0  0  0
 32 69  1  0  0  0  0
 32 74  2  0  0  0  0
 33 58  1  0  0  0  0
 33 65  1  0  0  0  0
 33 75  2  0  0  0  0
 34 59  1  0  0  0  0
 34 70  1  0  0  0  0
 34 76  2  0  0  0  0
 35 66  1  0  0  0  0
 35 71  1  0  0  0  0
 35 77  2  0  0  0  0
 36 39  1  0  0  0  0
 37 46  1  0  0  0  0
 38 65  1  0  0  0  0
 39 41  1  0  0  0  0
 40 42  1  0  0  0  0
 40 43  1  0  0  0  0
 41 45  1  0  0  0  0
 42 47  1  0  0  0  0
 43 66  1  0  0  0  0
 44 47  1  0  0  0  0
 44 66  1  0  0  0  0
 45 69  1  0  0  0  0
 46 65  1  0  0  0  0
 47 64  1  0  0  0  0
 48 59  1  0  0  0  0
 49 60  1  0  0  0  0
 50 60  1  0  0  0  0
 51 60  1  0  0  0  0
 52 71  1  0  0  0  0
 53 72  1  0  0  0  0
 54 56  1  0  0  0  0
 55 57  1  0  0  0  0
 55 63  1  0  0  0  0
 56 71  1  0  0  0  0
 57 79  1  0  0  0  0
 58 60  1  0  0  0  0
 58 70  1  0  0  0  0
 59 72  1  0  0  0  0
 62 64  1  0  0  0  0
M  CHG  1  72   1
M  ISO  4  35 100  57 101  71 100  79 101
M  END
> <Batch ID>
0054

> <Smiles>
CNC(C)C(=O)NC(C(=O)N1Cc2cc([101O:1][101CH2:1]Cn3cnc(CC[100N:0](C)[100C:0](=O)N4CCCC(n5nc(-c6ccc(Oc7ccc(F)cc7F)cc6)c(C(N)=O)c5N)C4)c3)ccc2CC1C(=O)NC1CCCc2ccccc21)C(C)(C)C

> <Shape>
0.229

> <Color>
0.066

> <Negative vol penalty>
0.000

$$$$

  -OEChem-04052317413D

 79 87  0     1  0  0  0  0  0999 V2000
  -17.2840  -26.3131   21.7661 C   0  0  0  0  0  0  0  0  0  0  0  0
  -18.5843  -25.8710   21.5446 C   0  0  0  0  0  0  0  0  0  0  0  0
  -24.0285  -13.4328   19.8331 C   0  0  0  0  0  0  0  0  0  0  0  0
  -25.9371  -13.8793   21.2455 C   0  0  0  0  0  0  0  0  0  0  0  0
  -17.0616  -27.5832   22.2965 C   0  0  0  0  0  0  0  0  0  0  0  0
  -19.6631  -26.6993   21.8524 C   0  0  0  0  0  0  0  0  0  0  0  0
  -23.3627  -24.2460   24.2894 C   0  0  0  0  0  0  0  0  0  0  0  0
  -24.2691  -12.0631   19.9408 C   0  0  0  0  0  0  0  0  0  0  0  0
  -26.1777  -12.5096   21.3534 C   0  0  0  0  0  0  0  0  0  0  0  0
  -24.2068  -23.4434   23.5231 C   0  0  0  0  0  0  0  0  0  0  0  0
  -23.7336   -9.6106   22.2061 C   0  0  0  0  0  0  0  0  0  0  0  0
  -22.6420   -8.7781   22.4530 C   0  0  0  0  0  0  0  0  0  0  0  0
  -25.8671  -25.1934   23.5300 C   0  0  0  0  0  0  0  0  0  0  0  0
  -23.0727   -7.6007   20.3877 C   0  0  0  0  0  0  0  0  0  0  0  0
  -27.2769  -21.2835   19.9494 C   0  0  0  0  0  0  0  0  0  0  0  0
  -24.8625  -14.3409   20.4854 C   0  0  0  0  0  0  0  0  0  0  0  0
  -23.8082  -16.5465   21.2143 C   0  0  0  0  0  0  0  0  0  0  0  0
  -18.1385  -28.4238   22.6199 C   0  0  0  0  0  0  0  0  0  0  0  0
  -23.7608  -25.5347   24.6732 C   0  0  0  0  0  0  0  0  0  0  0  0
  -19.4549  -27.9823   22.3863 C   0  0  0  0  0  0  0  0  0  0  0  0
  -25.0272  -26.0094   24.3033 C   0  0  0  0  0  0  0  0  0  0  0  0
  -25.3437  -11.6015   20.7010 C   0  0  0  0  0  0  0  0  0  0  0  0
  -25.4580  -23.9182   23.1409 C   0  0  0  0  0  0  0  0  0  0  0  0
  -24.4947   -9.4382   21.0499 C   0  0  0  0  0  0  0  0  0  0  0  0
  -22.3116   -7.7732   21.5439 C   0  0  0  0  0  0  0  0  0  0  0  0
  -24.1643   -8.4332   20.1408 C   0  0  0  0  0  0  0  0  0  0  0  0
  -24.6148  -15.7560   20.3740 C   0  0  0  0  0  0  0  0  0  0  0  0
  -26.8610  -21.1302   21.2419 C   0  0  0  0  0  0  0  0  0  0  0  0
  -23.9021  -17.8121   20.6889 C   0  0  0  0  0  0  0  0  0  0  0  0
  -28.4811  -19.6689   20.8676 C   0  0  0  0  0  0  0  0  0  0  0  0
  -23.0427  -16.1706   22.3668 C   0  0  0  0  0  0  0  0  0  0  0  0
  -22.6753  -28.4725   24.1303 C   0  0  0  0  0  0  0  0  0  0  0  0
  -28.1155  -20.4541   17.3157 C   0  0  0  0  0  0  0  0  0  0  0  0
  -24.9822  -29.2976   26.2563 C   0  0  0  0  0  0  0  0  0  0  0  0
  -27.9446  -28.5227   27.7631 C   0  0  0  0  0  0  0  0  0  0  0  0
  -17.8472  -29.8065   23.1469 C   0  0  0  0  0  0  0  0  0  0  0  0
  -22.8494  -26.3777   25.5223 C   0  0  0  0  0  0  0  0  0  0  0  0
  -25.5101  -27.3778   24.7067 C   0  0  0  0  0  0  0  0  0  0  0  0
  -19.0549  -30.4780   23.7957 C   0  0  0  0  0  0  0  0  0  0  0  0
  -24.6265  -20.1209   16.5703 C   0  0  0  0  0  0  0  0  0  0  0  0
  -20.2903  -30.3208   22.9148 C   0  0  0  0  0  0  0  0  0  0  0  0
  -24.1610  -19.0158   17.5176 C   0  0  0  0  0  0  0  0  0  0  0  0
  -26.0512  -19.8755   16.0835 C   0  0  0  0  0  0  0  0  0  0  0  0
  -26.5837  -18.5944   18.1322 C   0  0  0  0  0  0  0  0  0  0  0  0
  -20.6518  -28.8420   22.7304 C   0  0  1  0  0  0  0  0  0  0  0  0
  -23.1503  -27.8700   25.4222 C   0  0  1  0  0  0  0  0  0  0  0  0
  -25.1601  -18.8198   18.6716 C   0  0  2  0  0  0  0  0  0  0  0  0
  -29.4708  -18.5829   21.0773 C   0  0  0  0  0  0  0  0  0  0  0  0
  -30.2542  -21.0642   18.4244 C   0  0  0  0  0  0  0  0  0  0  0  0
  -29.5982  -29.4093   29.4295 C   0  0  0  0  0  0  0  0  0  0  0  0
  -26.0246  -31.2661   24.1710 C   0  0  0  0  0  0  0  0  0  0  0  0
  -28.1584  -31.4076   25.4728 C   0  0  0  0  0  0  0  0  0  0  0  0
  -26.0130  -32.1382   26.5149 C   0  0  0  0  0  0  0  0  0  0  0  0
  -27.5545  -26.2026   29.5586 C   0  0  0  0  0  0  0  0  0  0  0  0
  -25.8039  -21.8418   22.0341 C   0  0  0  0  0  0  0  0  0  1  0  0
  -29.0061  -20.1887   18.5034 C   0  0  1  0  0  0  0  0  0  0  0  0
  -26.4414  -29.6721   26.1588 C   0  0  1  0  0  0  0  0  0  0  0  0
  -28.3680  -28.5398   29.2208 C   0  0  2  0  0  0  0  0  0  0  0  0
  -26.6498  -31.0959   25.5700 C   0  0  0  0  0  0  0  0  0  0  0  0
  -25.1793  -16.4602   19.3894 N   0  0  0  0  0  0  0  0  0  0  0  0
  -28.2802  -20.3671   19.7453 N   0  0  0  0  0  0  0  0  0  0  0  0
  -24.7268  -17.7067   19.6078 N   0  0  0  0  0  0  0  0  0  0  0  0
  -27.6229  -20.1245   21.7859 N   0  3  0  0  0  0  0  0  0  0  0  0
  -24.5801  -28.1667   25.5315 N   0  0  0  0  0  0  0  0  0  0  0  0
  -26.9655  -19.6719   17.2087 N   0  0  0  0  0  0  0  0  0  0  0  0
  -23.3587  -18.9937   21.0509 N   0  0  0  0  0  0  0  0  0  0  0  0
  -23.0574  -14.8283   22.7699 N   0  0  0  0  0  0  0  0  0  0  0  0
  -21.3182  -28.3337   23.9102 N   0  0  0  0  0  0  0  0  0  0  0  0
  -26.9996  -29.4902   27.4944 N   0  0  0  0  0  0  0  0  0  0  0  0
  -28.6840  -27.1593   29.6846 N   0  3  0  0  0  0  0  0  0  0  0  0
  -22.3526  -16.9972   23.0101 O   0  0  0  0  0  0  0  0  0  0  0  0
  -23.4802  -29.0238   23.3887 O   0  0  0  0  0  0  0  0  0  0  0  0
  -28.4327  -21.3329   16.5099 O   0  0  0  0  0  0  0  0  0  0  0  0
  -24.2284  -29.9790   26.9556 O   0  0  0  0  0  0  0  0  0  0  0  0
  -28.4087  -27.7327   26.9439 O   0  0  0  0  0  0  0  0  0  0  0  0
  -25.5786  -10.2650   20.8066 O   0  0  0  0  0  0  0  0  0  0  0  0
  -26.2836  -23.1371   22.3924 O   0  0  0  0  0  0  0  0  0  1  0  0
  -21.2642   -6.9728   21.7819 F   0  0  0  0  0  0  0  0  0  0  0  0
  -24.8925   -8.2620   19.0290 F   0  0  0  0  0  0  0  0  0  0  0  0
  1  2  1  0  0  0  0
  1  5  2  0  0  0  0
  2  6  2  0  0  0  0
  3  8  2  0  0  0  0
  3 16  1  0  0  0  0
  4  9  1  0  0  0  0
  4 16  2  0  0  0  0
  5 18  1  0  0  0  0
  6 20  1  0  0  0  0
  7 10  2  0  0  0  0
  7 19  1  0  0  0  0
  8 22  1  0  0  0  0
  9 22  2  0  0  0  0
 10 23  1  0  0  0  0
 11 12  2  0  0  0  0
 11 24  1  0  0  0  0
 12 25  1  0  0  0  0
 13 21  1  0  0  0  0
 13 23  2  0  0  0  0
 14 25  2  0  0  0  0
 14 26  1  0  0  0  0
 15 28  2  0  0  0  0
 15 61  1  0  0  0  0
 16 27  1  0  0  0  0
 17 27  1  0  0  0  0
 17 29  2  0  0  0  0
 17 31  1  0  0  0  0
 18 20  2  0  0  0  0
 18 36  1  0  0  0  0
 19 21  2  0  0  0  0
 19 37  1  0  0  0  0
 20 45  1  0  0  0  0
 21 38  1  0  0  0  0
 22 76  1  0  0  0  0
 23 77  1  0  0  0  0
 24 26  2  0  0  0  0
 24 76  1  0  0  0  0
 25 78  1  0  0  0  0
 26 79  1  0  0  0  0
 27 60  2  0  0  0  0
 28 55  1  0  0  0  0
 28 63  1  0  0  0  0
 29 62  1  0  0  0  0
 29 66  1  0  0  0  0
 30 48  1  0  0  0  0
 30 61  1  0  0  0  0
 30 63  2  0  0  0  0
 31 67  1  0  0  0  0
 31 71  2  0  0  0  0
 32 46  1  0  0  0  0
 32 68  1  0  0  0  0
 32 72  2  0  0  0  0
 33 56  1  0  0  0  0
 33 65  1  0  0  0  0
 33 73  2  0  0  0  0
 34 57  1  0  0  0  0
 34 64  1  0  0  0  0
 34 74  2  0  0  0  0
 35 58  1  0  0  0  0
 35 69  1  0  0  0  0
 35 75  2  0  0  0  0
 36 39  1  0  0  0  0
 37 46  1  0  0  0  0
 38 64  1  0  0  0  0
 39 41  1  0  0  0  0
 40 42  1  0  0  0  0
 40 43  1  0  0  0  0
 41 45  1  0  0  0  0
 42 47  1  0  0  0  0
 43 65  1  0  0  0  0
 44 47  1  0  0  0  0
 44 65  1  0  0  0  0
 45 68  1  0  0  0  0
 46 64  1  0  0  0  0
 47 62  1  0  0  0  0
 49 56  1  0  0  0  0
 50 58  1  0  0  0  0
 51 59  1  0  0  0  0
 52 59  1  0  0  0  0
 53 59  1  0  0  0  0
 54 70  1  0  0  0  0
 55 77  1  0  0  0  0
 56 61  1  0  0  0  0
 57 59  1  0  0  0  0
 57 69  1  0  0  0  0
 58 70  1  0  0  0  0
 60 62  1  0  0  0  0
M  CHG  2  63   1  70   1
M  ISO  4  33 100  55 101  56 100  77 101
M  END
> <Batch ID>
0054

> <Smiles>
CNC(C)C(=O)NC(C(=O)N1Cc2cc([101O:1][101CH2:1]c3cn([100CH:0](C)[100C:0](=O)N4CCCC(n5nc(-c6ccc(Oc7ccc(F)cc7F)cc6)c(C(N)=O)c5N)C4)c(C)n3)ccc2CC1C(=O)NC1CCCc2ccccc21)C(C)(C)C

> <Shape>
0.206

> <Color>
0.080

> <Negative vol penalty>
0.000

$$$$

  -OEChem-04052317413D

 83 91  0     1  0  0  0  0  0999 V2000
  -24.0180  -36.3345   21.2786 C   0  0  0  0  0  0  0  0  0  0  0  0
  -24.8574  -35.2375   21.4446 C   0  0  0  0  0  0  0  0  0  0  0  0
  -27.0129  -12.7561   20.9255 C   0  0  0  0  0  0  0  0  0  0  0  0
  -27.2140  -12.7472   18.5179 C   0  0  0  0  0  0  0  0  0  0  0  0
  -22.7016  -36.2789   21.7344 C   0  0  0  0  0  0  0  0  0  0  0  0
  -24.3810  -34.0845   22.0675 C   0  0  0  0  0  0  0  0  0  0  0  0
  -25.7225  -29.8587   19.6206 C   0  0  0  0  0  0  0  0  0  0  0  0
  -26.3761  -11.5161   20.8770 C   0  0  0  0  0  0  0  0  0  0  0  0
  -26.5772  -11.5071   18.4693 C   0  0  0  0  0  0  0  0  0  0  0  0
  -27.0293  -29.4069   19.7997 C   0  0  0  0  0  0  0  0  0  0  0  0
  -24.3754   -8.5179   21.3583 C   0  0  0  0  0  0  0  0  0  0  0  0
  -23.2337   -8.3424   22.1401 C   0  0  0  0  0  0  0  0  0  0  0  0
  -26.2426  -27.7865   21.4043 C   0  0  0  0  0  0  0  0  0  0  0  0
  -22.1474  -10.1487   20.9592 C   0  0  0  0  0  0  0  0  0  0  0  0
  -28.6179  -25.4124   18.3655 C   0  0  0  0  0  0  0  0  0  0  0  0
  -30.2899  -26.4147   20.1894 C   0  0  0  0  0  0  0  0  0  0  0  0
  -27.4318  -13.3718   19.7460 C   0  0  0  0  0  0  0  0  0  0  0  0
  -29.4711  -14.8956   19.9098 C   0  0  0  0  0  0  0  0  0  0  0  0
  -22.2060  -35.1211   22.3546 C   0  0  0  0  0  0  0  0  0  0  0  0
  -24.6657  -29.2842   20.3413 C   0  0  0  0  0  0  0  0  0  0  0  0
  -23.0570  -34.0138   22.5333 C   0  0  0  0  0  0  0  0  0  0  0  0
  -24.9231  -28.2311   21.2306 C   0  0  0  0  0  0  0  0  0  0  0  0
  -26.1583  -10.8916   19.6489 C   0  0  0  0  0  0  0  0  0  0  0  0
  -27.2899  -28.3725   20.6937 C   0  0  0  0  0  0  0  0  0  0  0  0
  -24.4032   -9.5089   20.3770 C   0  0  0  0  0  0  0  0  0  0  0  0
  -22.1197   -9.1578   21.9405 C   0  0  0  0  0  0  0  0  0  0  0  0
  -23.2892  -10.3243   20.1775 C   0  0  0  0  0  0  0  0  0  0  0  0
  -28.0891  -14.6530   19.7955 C   0  0  0  0  0  0  0  0  0  0  0  0
  -29.8991  -24.9243   18.4996 C   0  0  0  0  0  0  0  0  0  0  0  0
  -29.0088  -26.9029   20.0551 C   0  0  0  0  0  0  0  0  0  1  0  0
  -29.5803  -16.2647   19.9130 C   0  0  0  0  0  0  0  0  0  0  0  0
  -30.5589  -13.9664   20.0045 C   0  0  0  0  0  0  0  0  0  0  0  0
  -22.5571  -30.3534   22.4660 C   0  0  0  0  0  0  0  0  0  0  0  0
  -21.3086  -27.3768   22.1441 C   0  0  0  0  0  0  0  0  0  0  0  0
  -21.7979  -24.1049   21.3063 C   0  0  0  0  0  0  0  0  0  0  0  0
  -26.7457  -20.7295   17.2457 C   0  0  0  0  0  0  0  0  0  0  0  0
  -20.7898  -35.1250   22.8733 C   0  0  0  0  0  0  0  0  0  0  0  0
  -23.2582  -29.7650   20.1170 C   0  0  0  0  0  0  0  0  0  0  0  0
  -23.8210  -27.5670   22.0135 C   0  0  0  0  0  0  0  0  0  0  0  0
  -20.2521  -33.7312   23.1868 C   0  0  0  0  0  0  0  0  0  0  0  0
  -26.5215  -20.0179   20.8713 C   0  0  0  0  0  0  0  0  0  0  0  0
  -21.2771  -32.9303   23.9836 C   0  0  0  0  0  0  0  0  0  0  0  0
  -26.9653  -18.5583   20.9523 C   0  0  0  0  0  0  0  0  0  0  0  0
  -25.8815  -20.3422   19.5249 C   0  0  0  0  0  0  0  0  0  0  0  0
  -27.1786  -18.5409   18.4354 C   0  0  0  0  0  0  0  0  0  0  0  0
  -22.5698  -32.7363   23.1819 C   0  0  1  0  0  0  0  0  0  0  0  0
  -22.3272  -29.4538   21.2847 C   0  0  1  0  0  0  0  0  0  0  0  0
  -27.8697  -18.1930   19.7624 C   0  0  2  0  0  0  0  0  0  0  0  0
  -20.6003  -21.9033   21.1809 C   0  0  0  0  0  0  0  0  0  0  0  0
  -21.4875  -27.1095   25.1783 C   0  0  0  0  0  0  0  0  0  0  0  0
  -21.1978  -24.6374   24.9077 C   0  0  0  0  0  0  0  0  0  0  0  0
  -19.3903  -26.1911   24.1719 C   0  0  0  0  0  0  0  0  0  0  0  0
  -27.9942  -21.5857   15.2995 C   0  0  0  0  0  0  0  0  0  0  0  0
  -22.2456  -23.8958   18.3883 C   0  0  0  0  0  0  0  0  0  0  0  0
  -30.1250  -22.1199   19.4259 C   0  0  0  0  0  0  0  0  0  0  0  0
  -30.3824  -23.8204   17.6251 C   0  0  0  0  0  0  0  0  0  0  0  0
  -29.2278  -20.3003   17.0059 C   0  0  0  0  0  0  0  0  0  0  0  0
  -30.2712  -21.4011   17.0460 C   0  0  0  0  0  0  0  0  0  0  0  0
  -21.5252  -26.0472   22.8254 C   0  0  1  0  0  0  0  0  0  0  0  0
  -21.0004  -23.1607   20.4249 C   0  0  2  0  0  0  0  0  0  0  0  0
  -20.9214  -26.0099   24.2577 C   0  0  0  0  0  0  0  0  0  0  0  0
  -30.7581  -25.4165   19.4142 N   0  0  0  0  0  0  0  0  0  0  0  0
  -28.1498  -26.4105   19.1407 N   0  0  0  0  0  0  0  0  0  0  0  0
  -27.3718  -15.7778   19.7309 N   0  0  0  0  0  0  0  0  0  0  0  0
  -28.3066  -16.7405   19.8050 N   0  0  0  0  0  0  0  0  0  0  0  0
  -22.4626  -28.0767   21.7640 N   0  0  0  0  0  0  0  0  0  0  0  0
  -26.7435  -19.9454   18.4111 N   0  0  0  0  0  0  0  0  0  0  0  0
  -30.6405  -17.0961   19.9978 N   0  0  0  0  0  0  0  0  0  0  0  0
  -30.2698  -12.5951   19.9862 N   0  0  0  0  0  0  0  0  0  0  0  0
  -22.3975  -31.6977   22.1889 N   0  0  0  0  0  0  0  0  0  0  0  0
  -20.9876  -25.0342   21.9237 N   0  0  0  0  0  0  0  0  0  0  0  0
  -27.9389  -20.7771   16.5091 N   0  0  0  0  0  0  0  0  0  0  0  0
  -21.8043  -22.7586   19.2362 N   0  3  0  0  0  0  0  0  0  0  0  0
  -29.8313  -22.4862   17.9942 N   0  3  1  0  0  0  0  0  0  0  0  0
  -31.7505  -14.3411   20.1190 O   0  0  0  0  0  0  0  0  0  0  0  0
  -22.8556  -29.8641   23.5491 O   0  0  0  0  0  0  0  0  0  0  0  0
  -20.1579  -27.7763   21.9496 O   0  0  0  0  0  0  0  0  0  0  0  0
  -23.0173  -24.0238   21.4372 O   0  0  0  0  0  0  0  0  0  0  0  0
  -25.7415  -21.3592   16.8895 O   0  0  0  0  0  0  0  0  0  0  0  0
  -25.5372   -9.6814   19.6011 O   0  0  0  0  0  0  0  0  0  0  0  0
  -28.5645  -27.9300   20.8709 O   0  0  0  0  0  0  0  0  0  1  0  0
  -21.0227   -8.9881   22.6903 F   0  0  0  0  0  0  0  0  0  0  0  0
  -23.3096  -11.2772   19.2355 F   0  0  0  0  0  0  0  0  0  0  0  0
  1  2  1  0  0  0  0
  1  5  2  0  0  0  0
  2  6  2  0  0  0  0
  3  8  2  0  0  0  0
  3 17  1  0  0  0  0
  4  9  1  0  0  0  0
  4 17  2  0  0  0  0
  5 19  1  0  0  0  0
  6 21  1  0  0  0  0
  7 10  2  0  0  0  0
  7 20  1  0  0  0  0
  8 23  1  0  0  0  0
  9 23  2  0  0  0  0
 10 24  1  0  0  0  0
 11 12  2  0  0  0  0
 11 25  1  0  0  0  0
 12 26  1  0  0  0  0
 13 22  1  0  0  0  0
 13 24  2  0  0  0  0
 14 26  2  0  0  0  0
 14 27  1  0  0  0  0
 15 29  2  0  0  0  0
 15 63  1  0  0  0  0
 16 30  1  0  0  0  0
 16 62  2  0  0  0  0
 17 28  1  0  0  0  0
 18 28  1  0  0  0  0
 18 31  2  0  0  0  0
 18 32  1  0  0  0  0
 19 21  2  0  0  0  0
 19 37  1  0  0  0  0
 20 22  2  0  0  0  0
 20 38  1  0  0  0  0
 21 46  1  0  0  0  0
 22 39  1  0  0  0  0
 23 80  1  0  0  0  0
 24 81  1  0  0  0  0
 25 27  2  0  0  0  0
 25 80  1  0  0  0  0
 26 82  1  0  0  0  0
 27 83  1  0  0  0  0
 28 64  2  0  0  0  0
 29 56  1  0  0  0  0
 29 62  1  0  0  0  0
 30 63  2  0  0  0  0
 30 81  1  0  0  0  0
 31 65  1  0  0  0  0
 31 68  1  0  0  0  0
 32 69  1  0  0  0  0
 32 75  2  0  0  0  0
 33 47  1  0  0  0  0
 33 70  1  0  0  0  0
 33 76  2  0  0  0  0
 34 59  1  0  0  0  0
 34 66  1  0  0  0  0
 34 77  2  0  0  0  0
 35 60  1  0  0  0  0
 35 71  1  0  0  0  0
 35 78  2  0  0  0  0
 36 67  1  0  0  0  0
 36 72  1  0  0  0  0
 36 79  2  0  0  0  0
 37 40  1  0  0  0  0
 38 47  1  0  0  0  0
 39 66  1  0  0  0  0
 40 42  1  0  0  0  0
 41 43  1  0  0  0  0
 41 44  1  0  0  0  0
 42 46  1  0  0  0  0
 43 48  1  0  0  0  0
 44 67  1  0  0  0  0
 45 48  1  0  0  0  0
 45 67  1  0  0  0  0
 46 70  1  0  0  0  0
 47 66  1  0  0  0  0
 48 65  1  0  0  0  0
 49 60  1  0  0  0  0
 50 61  1  0  0  0  0
 51 61  1  0  0  0  0
 52 61  1  0  0  0  0
 53 72  1  0  0  0  0
 54 73  1  0  0  0  0
 55 74  1  0  0  0  0
 56 74  1  0  0  0  0
 57 58  1  0  0  0  0
 57 72  1  0  0  0  0
 58 74  1  0  0  0  0
 59 61  1  0  0  0  0
 59 71  1  0  0  0  0
 60 73  1  0  0  0  0
 64 65  1  0  0  0  0
M  CHG  2  73   1  74   1
M  ISO  4  30 101  36 100  72 100  81 101
M  END
> <Batch ID>
0054

> <Smiles>
CNC(C)C(=O)NC(C(=O)N1Cc2cc([101O:1][101c:1]3cnc(CN(C)CC[100N:0](C)[100C:0](=O)N4CCCC(n5nc(-c6ccc(Oc7ccc(F)cc7F)cc6)c(C(N)=O)c5N)C4)cn3)ccc2CC1C(=O)NC1CCCc2ccccc21)C(C)(C)C

> <Shape>
0.265

> <Color>
0.096

> <Negative vol penalty>
0.000

$$$$

  -OEChem-04052317413D

 86 94  0     1  0  0  0  0  0999 V2000
  -17.8328  -30.7780   25.3354 C   0  0  0  0  0  0  0  0  0  0  0  0
  -19.2146  -30.9244   25.3814 C   0  0  0  0  0  0  0  0  0  0  0  0
  -24.5133   -8.9045   21.4873 C   0  0  0  0  0  0  0  0  0  0  0  0
  -23.6213  -10.5748   22.9879 C   0  0  0  0  0  0  0  0  0  0  0  0
  -17.2568  -29.9265   24.3950 C   0  0  0  0  0  0  0  0  0  0  0  0
  -20.0201  -30.2286   24.4792 C   0  0  0  0  0  0  0  0  0  0  0  0
  -26.0874  -29.8903   24.0311 C   0  0  0  0  0  0  0  0  0  0  0  0
  -24.1780   -7.9050   22.4006 C   0  0  0  0  0  0  0  0  0  0  0  0
  -23.2860   -9.5752   23.9011 C   0  0  0  0  0  0  0  0  0  0  0  0
  -27.1106  -29.0731   24.5096 C   0  0  0  0  0  0  0  0  0  0  0  0
  -21.4010   -6.2224   23.3439 C   0  0  0  0  0  0  0  0  0  0  0  0
  -20.7817   -5.0743   22.8501 C   0  0  0  0  0  0  0  0  0  0  0  0
  -27.0693  -27.8236   22.4465 C   0  0  0  0  0  0  0  0  0  0  0  0
  -22.6075   -3.7303   23.6850 C   0  0  0  0  0  0  0  0  0  0  0  0
  -31.9118  -23.2774   22.9964 C   0  0  0  0  0  0  0  0  0  0  0  0
  -24.2350  -10.2395   21.7810 C   0  0  0  0  0  0  0  0  0  0  0  0
  -23.7790  -11.7785   19.7983 C   0  0  0  0  0  0  0  0  0  0  0  0
  -18.0572  -29.2107   23.4895 C   0  0  0  0  0  0  0  0  0  0  0  0
  -25.5390  -29.6731   22.7589 C   0  0  0  0  0  0  0  0  0  0  0  0
  -19.4562  -29.3828   23.5070 C   0  0  0  0  0  0  0  0  0  0  0  0
  -26.0409  -28.6411   21.9532 C   0  0  0  0  0  0  0  0  0  0  0  0
  -23.5643   -8.2403   23.6075 C   0  0  0  0  0  0  0  0  0  0  0  0
  -27.5998  -28.0378   23.7184 C   0  0  0  0  0  0  0  0  0  0  0  0
  -22.6236   -6.1245   24.0083 C   0  0  0  0  0  0  0  0  0  0  0  0
  -21.3849   -3.8282   23.0206 C   0  0  0  0  0  0  0  0  0  0  0  0
  -23.2268   -4.8784   24.1788 C   0  0  0  0  0  0  0  0  0  0  0  0
  -24.5816  -11.2725   20.8382 C   0  0  0  0  0  0  0  0  0  0  0  0
  -31.5588  -24.5085   22.4119 C   0  0  0  0  0  0  0  0  0  0  0  0
  -31.3663  -22.3324   22.1622 C   0  0  0  0  0  0  0  0  0  0  0  0
  -24.5589  -12.7361   19.1974 C   0  0  0  0  0  0  0  0  0  0  0  0
  -22.4473  -11.4153   19.4101 C   0  0  0  0  0  0  0  0  0  0  0  0
  -22.6546  -28.9150   21.6592 C   0  0  0  0  0  0  0  0  0  0  0  0
  -24.0551  -29.4001   18.7738 C   0  0  0  0  0  0  0  0  0  0  0  0
  -26.9218  -29.4989   16.9247 C   0  0  0  0  0  0  0  0  0  0  0  0
  -28.8586  -16.1413   21.0749 C   0  0  0  0  0  0  0  0  0  0  0  0
  -17.3808  -28.3088   22.4873 C   0  0  0  0  0  0  0  0  0  0  0  0
  -24.4540  -30.5802   22.2468 C   0  0  0  0  0  0  0  0  0  0  0  0
  -25.5002  -28.3789   20.5721 C   0  0  0  0  0  0  0  0  0  0  0  0
  -18.3296  -27.2837   21.8747 C   0  0  0  0  0  0  0  0  0  0  0  0
  -29.1201  -13.8859   18.3699 C   0  0  0  0  0  0  0  0  0  0  0  0
  -19.5948  -27.9733   21.3865 C   0  0  0  0  0  0  0  0  0  0  0  0
  -27.9009  -12.9942   18.6005 C   0  0  0  0  0  0  0  0  0  0  0  0
  -29.8204  -14.2517   19.6799 C   0  0  0  0  0  0  0  0  0  0  0  0
  -27.7014  -13.9572   20.9231 C   0  0  0  0  0  0  0  0  0  0  0  0
  -20.3543  -28.6127   22.5558 C   0  0  1  0  0  0  0  0  0  0  0  0
  -23.6172  -29.9454   21.1403 C   0  0  1  0  0  0  0  0  0  0  0  0
  -26.9448  -13.6244   19.6279 C   0  0  2  0  0  0  0  0  0  0  0  0
  -27.7449  -29.8853   14.5858 C   0  0  0  0  0  0  0  0  0  0  0  0
  -23.0851  -26.6195   17.9756 C   0  0  0  0  0  0  0  0  0  0  0  0
  -24.7016  -26.6803   16.0647 C   0  0  0  0  0  0  0  0  0  0  0  0
  -22.8579  -28.3559   16.1902 C   0  0  0  0  0  0  0  0  0  0  0  0
  -30.0218  -22.4772   20.0442 C   0  0  0  0  0  0  0  0  0  0  0  0
  -31.3750  -16.1516   21.3435 C   0  0  0  0  0  0  0  0  0  0  0  0
  -28.5463  -31.8284   17.7573 C   0  0  0  0  0  0  0  0  0  0  0  0
  -29.6382  -20.7759   23.9994 C   0  0  0  0  0  0  0  0  0  0  0  0
  -31.8940  -25.8917   22.9099 C   0  0  0  0  0  0  0  0  0  0  0  0
  -31.3834  -20.8595   22.2251 C   0  0  0  0  0  0  0  0  0  0  0  0
  -30.8494  -26.4722   23.8655 C   0  0  0  0  0  0  0  0  0  0  0  0
  -30.1079  -18.2632   21.1970 C   0  0  0  0  0  0  0  0  0  0  0  0
  -30.1236  -18.7508   22.6337 C   0  0  0  0  0  0  0  0  0  0  0  0
  -29.4859  -26.6791   23.2162 C   0  0  0  0  0  0  0  0  0  1  0  0
  -24.8065  -28.5348   17.7911 C   0  0  1  0  0  0  0  0  0  0  0  0
  -27.4467  -30.5224   15.9341 C   0  0  2  0  0  0  0  0  0  0  0  0
  -23.8719  -27.5511   17.0322 C   0  0  0  0  0  0  0  0  0  0  0  0
  -25.7797  -11.8600   20.8973 N   0  0  0  0  0  0  0  0  0  0  0  0
  -30.8445  -24.3621   21.2928 N   0  0  0  0  0  0  0  0  0  0  0  0
  -30.7443  -23.0278   21.1674 N   0  0  0  0  0  0  0  0  0  0  0  0
  -25.7357  -12.7449   19.8869 N   0  0  0  0  0  0  0  0  0  0  0  0
  -24.4356  -29.2891   20.1187 N   0  0  0  0  0  0  0  0  0  0  0  0
  -28.8640  -14.8051   20.6483 N   0  0  0  0  0  0  0  0  0  0  0  0
  -24.3462  -13.5629   18.1517 N   0  0  0  0  0  0  0  0  0  0  0  0
  -21.7902  -10.4119   20.1352 N   0  0  0  0  0  0  0  0  0  0  0  0
  -21.4272  -29.4288   22.0319 N   0  0  0  0  0  0  0  0  0  0  0  0
  -25.5439  -29.4476   16.9242 N   0  0  0  0  0  0  0  0  0  0  0  0
  -30.0915  -16.8099   21.1079 N   0  0  0  0  0  0  0  0  0  0  0  0
  -28.6998  -31.1447   16.4473 N   0  3  0  0  0  0  0  0  0  0  0  0
  -30.0867  -20.2545   22.6614 N   0  3  1  0  0  0  0  0  0  0  0  0
  -21.8638  -11.9529   18.4386 O   0  0  0  0  0  0  0  0  0  0  0  0
  -22.9994  -27.7404   21.7158 O   0  0  0  0  0  0  0  0  0  0  0  0
  -23.1682  -30.1522   18.3623 O   0  0  0  0  0  0  0  0  0  0  0  0
  -27.6603  -28.8109   17.6260 O   0  0  0  0  0  0  0  0  0  0  0  0
  -27.8108  -16.7052   21.4160 O   0  0  0  0  0  0  0  0  0  0  0  0
  -23.2368   -7.2651   24.4987 O   0  0  0  0  0  0  0  0  0  0  0  0
  -28.5980  -27.2383   24.1833 O   0  0  0  0  0  0  0  0  0  1  0  0
  -20.7894   -2.7256   22.5476 F   0  0  0  0  0  0  0  0  0  0  0  0
  -24.4008   -4.7779   24.8173 F   0  0  0  0  0  0  0  0  0  0  0  0
  1  2  1  0  0  0  0
  1  5  2  0  0  0  0
  2  6  2  0  0  0  0
  3  8  2  0  0  0  0
  3 16  1  0  0  0  0
  4  9  1  0  0  0  0
  4 16  2  0  0  0  0
  5 18  1  0  0  0  0
  6 20  1  0  0  0  0
  7 10  2  0  0  0  0
  7 19  1  0  0  0  0
  8 22  1  0  0  0  0
  9 22  2  0  0  0  0
 10 23  1  0  0  0  0
 11 12  2  0  0  0  0
 11 24  1  0  0  0  0
 12 25  1  0  0  0  0
 13 21  1  0  0  0  0
 13 23  2  0  0  0  0
 14 25  2  0  0  0  0
 14 26  1  0  0  0  0
 15 28  1  0  0  0  0
 15 29  2  0  0  0  0
 16 27  1  0  0  0  0
 17 27  1  0  0  0  0
 17 30  2  0  0  0  0
 17 31  1  0  0  0  0
 18 20  2  0  0  0  0
 18 36  1  0  0  0  0
 19 21  2  0  0  0  0
 19 37  1  0  0  0  0
 20 45  1  0  0  0  0
 21 38  1  0  0  0  0
 22 83  1  0  0  0  0
 23 84  1  0  0  0  0
 24 26  2  0  0  0  0
 24 83  1  0  0  0  0
 25 85  1  0  0  0  0
 26 86  1  0  0  0  0
 27 65  2  0  0  0  0
 28 56  1  0  0  0  0
 28 66  2  0  0  0  0
 29 57  1  0  0  0  0
 29 67  1  0  0  0  0
 30 68  1  0  0  0  0
 30 71  1  0  0  0  0
 31 72  1  0  0  0  0
 31 78  2  0  0  0  0
 32 46  1  0  0  0  0
 32 73  1  0  0  0  0
 32 79  2  0  0  0  0
 33 62  1  0  0  0  0
 33 69  1  0  0  0  0
 33 80  2  0  0  0  0
 34 63  1  0  0  0  0
 34 74  1  0  0  0  0
 34 81  2  0  0  0  0
 35 70  1  0  0  0  0
 35 75  1  0  0  0  0
 35 82  2  0  0  0  0
 36 39  1  0  0  0  0
 37 46  1  0  0  0  0
 38 69  1  0  0  0  0
 39 41  1  0  0  0  0
 40 42  1  0  0  0  0
 40 43  1  0  0  0  0
 41 45  1  0  0  0  0
 42 47  1  0  0  0  0
 43 70  1  0  0  0  0
 44 47  1  0  0  0  0
 44 70  1  0  0  0  0
 45 73  1  0  0  0  0
 46 69  1  0  0  0  0
 47 68  1  0  0  0  0
 48 63  1  0  0  0  0
 49 64  1  0  0  0  0
 50 64  1  0  0  0  0
 51 64  1  0  0  0  0
 52 67  1  0  0  0  0
 53 75  1  0  0  0  0
 54 76  1  0  0  0  0
 55 77  1  0  0  0  0
 56 58  1  0  0  0  0
 57 77  1  0  0  0  0
 58 61  1  0  0  0  0
 59 60  1  0  0  0  0
 59 75  1  0  0  0  0
 60 77  1  0  0  0  0
 61 84  1  0  0  0  0
 62 64  1  0  0  0  0
 62 74  1  0  0  0  0
 63 76  1  0  0  0  0
 65 68  1  0  0  0  0
 66 67  1  0  0  0  0
M  CHG  2  76   1  77   1
M  ISO  4  35 100  61 101  75 100  84 101
M  END
> <Batch ID>
0054

> <Smiles>
CNC(C)C(=O)NC(C(=O)N1Cc2cc([101O:1][101CH2:1]CCc3cc(CN(C)CC[100N:0](C)[100C:0](=O)N4CCCC(n5nc(-c6ccc(Oc7ccc(F)cc7F)cc6)c(C(N)=O)c5N)C4)n(C)n3)ccc2CC1C(=O)NC1CCCc2ccccc21)C(C)(C)C

> <Shape>
0.271

> <Color>
0.085

> <Negative vol penalty>
0.000

$$$$

  -OEChem-04052317413D

 83 91  0     1  0  0  0  0  0999 V2000
  -15.0290  -27.4175   24.9041 C   0  0  0  0  0  0  0  0  0  0  0  0
  -15.4623  -26.5736   23.8865 C   0  0  0  0  0  0  0  0  0  0  0  0
  -26.4797  -12.5230   20.1270 C   0  0  0  0  0  0  0  0  0  0  0  0
  -24.8013  -14.2113   20.5390 C   0  0  0  0  0  0  0  0  0  0  0  0
  -15.6549  -28.6476   25.1020 C   0  0  0  0  0  0  0  0  0  0  0  0
  -16.5211  -26.9599   23.0654 C   0  0  0  0  0  0  0  0  0  0  0  0
  -20.7929  -23.3224   20.6106 C   0  0  0  0  0  0  0  0  0  0  0  0
  -25.7343  -11.6022   20.8632 C   0  0  0  0  0  0  0  0  0  0  0  0
  -24.0558  -13.2904   21.2752 C   0  0  0  0  0  0  0  0  0  0  0  0
  -20.9247  -22.7517   19.3454 C   0  0  0  0  0  0  0  0  0  0  0  0
  -21.5352  -11.2841   22.9602 C   0  0  0  0  0  0  0  0  0  0  0  0
  -20.1614  -11.2258   22.7263 C   0  0  0  0  0  0  0  0  0  0  0  0
  -22.3545  -24.5763   18.6779 C   0  0  0  0  0  0  0  0  0  0  0  0
  -20.5789  -10.6591   20.4151 C   0  0  0  0  0  0  0  0  0  0  0  0
  -24.8761  -19.3631   17.4009 C   0  0  0  0  0  0  0  0  0  0  0  0
  -26.0133  -13.8276   19.9649 C   0  0  0  0  0  0  0  0  0  0  0  0
  -26.6975  -15.0320   17.8227 C   0  0  0  0  0  0  0  0  0  0  0  0
  -16.7282  -29.0449   24.2890 C   0  0  0  0  0  0  0  0  0  0  0  0
  -21.4332  -24.5320   20.9160 C   0  0  0  0  0  0  0  0  0  0  0  0
  -17.1610  -28.1970   23.2517 C   0  0  0  0  0  0  0  0  0  0  0  0
  -22.2314  -25.1590   19.9486 C   0  0  0  0  0  0  0  0  0  0  0  0
  -24.5224  -11.9859   21.4373 C   0  0  0  0  0  0  0  0  0  0  0  0
  -21.7032  -23.3802   18.3779 C   0  0  0  0  0  0  0  0  0  0  0  0
  -22.4310  -11.0300   21.9215 C   0  0  0  0  0  0  0  0  0  0  0  0
  -19.6832  -10.9132   21.4537 C   0  0  0  0  0  0  0  0  0  0  0  0
  -21.9528  -10.7175   20.6490 C   0  0  0  0  0  0  0  0  0  0  0  0
  -26.7831  -14.7794   19.2050 C   0  0  0  0  0  0  0  0  0  0  0  0
  -25.9190  -20.3501   18.9720 C   0  0  0  0  0  0  0  0  0  0  0  0
  -25.4487  -21.3524   18.1567 C   0  0  0  0  0  0  0  0  0  0  0  0
  -27.6292  -16.0151   17.5949 C   0  0  0  0  0  0  0  0  0  0  0  0
  -25.8513  -14.4316   16.8331 C   0  0  0  0  0  0  0  0  0  0  0  0
  -20.4563  -27.4356   21.7636 C   0  0  0  0  0  0  0  0  0  0  0  0
  -23.6347  -27.9749   22.1233 C   0  0  0  0  0  0  0  0  0  0  0  0
  -26.8311  -27.1217   21.2856 C   0  0  0  0  0  0  0  0  0  0  0  0
  -30.0093  -20.0043   21.5899 C   0  0  0  0  0  0  0  0  0  0  0  0
  -17.3424  -30.4044   24.5109 C   0  0  0  0  0  0  0  0  0  0  0  0
  -21.3027  -25.1208   22.2940 C   0  0  0  0  0  0  0  0  0  0  0  0
  -22.9559  -26.4485   20.2326 C   0  0  0  0  0  0  0  0  0  0  0  0
  -18.7012  -30.5762   23.8367 C   0  0  0  0  0  0  0  0  0  0  0  0
  -31.7678  -17.7268   19.2613 C   0  0  0  0  0  0  0  0  0  0  0  0
  -18.6523  -30.0668   22.3997 C   0  0  0  0  0  0  0  0  0  0  0  0
  -30.6912  -16.6956   18.9273 C   0  0  0  0  0  0  0  0  0  0  0  0
  -31.5617  -18.3339   20.6457 C   0  0  0  0  0  0  0  0  0  0  0  0
  -29.1327  -17.8892   20.5170 C   0  0  0  0  0  0  0  0  0  0  0  0
  -18.3224  -28.5698   22.3560 C   0  0  1  0  0  0  0  0  0  0  0  0
  -21.5829  -26.6199   22.3321 C   0  0  1  0  0  0  0  0  0  0  0  0
  -29.2847  -17.2922   19.1099 C   0  0  2  0  0  0  0  0  0  0  0  0
  -25.5653  -22.8195   18.2348 C   0  0  0  0  0  0  0  0  0  0  0  0
  -29.3396  -27.1398   21.3530 C   0  0  0  0  0  0  0  0  0  0  0  0
  -23.3049  -30.3912   20.2895 C   0  0  0  0  0  0  0  0  0  0  0  0
  -25.7906  -30.4166   19.9914 C   0  0  0  0  0  0  0  0  0  0  0  0
  -24.8040  -30.7702   22.2551 C   0  0  0  0  0  0  0  0  0  0  0  0
  -28.7068  -22.0546   22.0130 C   0  0  0  0  0  0  0  0  0  0  0  0
  -26.9042  -25.0713   23.4185 C   0  0  0  0  0  0  0  0  0  0  0  0
  -26.7083  -20.4701   20.2081 C   0  0  0  0  0  0  0  0  0  0  0  0
  -22.5960  -20.9362   15.8755 C   0  0  0  0  0  0  0  0  0  0  0  0
  -24.0691  -21.3356   15.9857 C   0  0  0  0  0  0  0  0  0  0  0  0
  -28.2065  -20.7512   19.9791 C   0  0  0  0  0  0  0  0  0  0  0  0
  -21.7534  -21.4034   17.0566 C   0  0  0  0  0  0  0  0  0  1  0  0
  -24.7448  -28.4626   21.2239 C   0  0  1  0  0  0  0  0  0  0  0  0
  -28.0636  -26.8745   22.1367 C   0  0  2  0  0  0  0  0  0  0  0  0
  -24.6460  -29.9869   20.9337 C   0  0  0  0  0  0  0  0  0  0  0  0
  -25.5595  -19.1142   18.4959 N   0  0  0  0  0  0  0  0  0  0  0  0
  -27.6972  -15.5406   19.8126 N   0  0  0  0  0  0  0  0  0  0  0  0
  -24.7831  -20.7047   17.1544 N   0  0  0  0  0  0  0  0  0  0  0  0
  -28.1945  -16.2810   18.8073 N   0  0  0  0  0  0  0  0  0  0  0  0
  -22.7920  -26.9880   21.5926 N   0  0  0  0  0  0  0  0  0  0  0  0
  -30.2037  -18.8544   20.8071 N   0  0  0  0  0  0  0  0  0  0  0  0
  -28.0119  -16.6693   16.4778 N   0  0  0  0  0  0  0  0  0  0  0  0
  -24.9512  -13.4367   17.2383 N   0  0  0  0  0  0  0  0  0  0  0  0
  -19.4916  -27.7847   22.6893 N   0  0  0  0  0  0  0  0  0  0  0  0
  -25.9934  -28.0549   21.8589 N   0  0  0  0  0  0  0  0  0  0  0  0
  -28.9418  -20.8443   21.2385 N   0  0  0  0  0  0  0  0  0  0  0  0
  -28.0895  -25.4626   22.6129 N   0  3  0  0  0  0  0  0  0  0  0  0
  -25.9038  -14.7559   15.6225 O   0  0  0  0  0  0  0  0  0  0  0  0
  -20.4626  -27.7278   20.5736 O   0  0  0  0  0  0  0  0  0  0  0  0
  -23.5238  -28.4470   23.2575 O   0  0  0  0  0  0  0  0  0  0  0  0
  -26.6332  -26.5475   20.2172 O   0  0  0  0  0  0  0  0  0  0  0  0
  -30.7537  -20.2701   22.5423 O   0  0  0  0  0  0  0  0  0  0  0  0
  -23.7946  -11.0875   22.1556 O   0  0  0  0  0  0  0  0  0  0  0  0
  -21.8330  -22.8257   17.1420 O   0  0  0  0  0  0  0  0  0  1  0  0
  -18.3639  -10.8557   21.2296 F   0  0  0  0  0  0  0  0  0  0  0  0
  -22.8085  -10.4712   19.6475 F   0  0  0  0  0  0  0  0  0  0  0  0
  1  2  1  0  0  0  0
  1  5  2  0  0  0  0
  2  6  2  0  0  0  0
  3  8  2  0  0  0  0
  3 16  1  0  0  0  0
  4  9  1  0  0  0  0
  4 16  2  0  0  0  0
  5 18  1  0  0  0  0
  6 20  1  0  0  0  0
  7 10  2  0  0  0  0
  7 19  1  0  0  0  0
  8 22  1  0  0  0  0
  9 22  2  0  0  0  0
 10 23  1  0  0  0  0
 11 12  2  0  0  0  0
 11 24  1  0  0  0  0
 12 25  1  0  0  0  0
 13 21  1  0  0  0  0
 13 23  2  0  0  0  0
 14 25  2  0  0  0  0
 14 26  1  0  0  0  0
 15 63  2  0  0  0  0
 15 65  1  0  0  0  0
 16 27  1  0  0  0  0
 17 27  1  0  0  0  0
 17 30  2  0  0  0  0
 17 31  1  0  0  0  0
 18 20  2  0  0  0  0
 18 36  1  0  0  0  0
 19 21  2  0  0  0  0
 19 37  1  0  0  0  0
 20 45  1  0  0  0  0
 21 38  1  0  0  0  0
 22 80  1  0  0  0  0
 23 81  1  0  0  0  0
 24 26  2  0  0  0  0
 24 80  1  0  0  0  0
 25 82  1  0  0  0  0
 26 83  1  0  0  0  0
 27 64  2  0  0  0  0
 28 29  2  0  0  0  0
 28 55  1  0  0  0  0
 28 63  1  0  0  0  0
 29 48  1  0  0  0  0
 29 65  1  0  0  0  0
 30 66  1  0  0  0  0
 30 69  1  0  0  0  0
 31 70  1  0  0  0  0
 31 75  2  0  0  0  0
 32 46  1  0  0  0  0
 32 71  1  0  0  0  0
 32 76  2  0  0  0  0
 33 60  1  0  0  0  0
 33 67  1  0  0  0  0
 33 77  2  0  0  0  0
 34 61  1  0  0  0  0
 34 72  1  0  0  0  0
 34 78  2  0  0  0  0
 35 68  1  0  0  0  0
 35 73  1  0  0  0  0
 35 79  2  0  0  0  0
 36 39  1  0  0  0  0
 37 46  1  0  0  0  0
 38 67  1  0  0  0  0
 39 41  1  0  0  0  0
 40 42  1  0  0  0  0
 40 43  1  0  0  0  0
 41 45  1  0  0  0  0
 42 47  1  0  0  0  0
 43 68  1  0  0  0  0
 44 47  1  0  0  0  0
 44 68  1  0  0  0  0
 45 71  1  0  0  0  0
 46 67  1  0  0  0  0
 47 66  1  0  0  0  0
 49 61  1  0  0  0  0
 50 62  1  0  0  0  0
 51 62  1  0  0  0  0
 52 62  1  0  0  0  0
 53 73  1  0  0  0  0
 54 74  1  0  0  0  0
 55 58  1  0  0  0  0
 56 57  1  0  0  0  0
 56 59  1  0  0  0  0
 57 65  1  0  0  0  0
 58 73  1  0  0  0  0
 59 81  1  0  0  0  0
 60 62  1  0  0  0  0
 60 72  1  0  0  0  0
 61 74  1  0  0  0  0
 64 66  1  0  0  0  0
M  CHG  1  74   1
M  ISO  4  35 100  59 101  73 100  81 101
M  END
> <Batch ID>
0054

> <Smiles>
CNC(C)C(=O)NC(C(=O)N1Cc2cc([101O:1][101CH2:1]CCn3cnc(CC[100N:0](C)[100C:0](=O)N4CCCC(n5nc(-c6ccc(Oc7ccc(F)cc7F)cc6)c(C(N)=O)c5N)C4)c3C)ccc2CC1C(=O)NC1CCCc2ccccc21)C(C)(C)C

> <Shape>
0.217

> <Color>
0.054

> <Negative vol penalty>
0.000

$$$$

  -OEChem-04052317413D

 83 91  0     1  0  0  0  0  0999 V2000
  -29.0952  -32.2235   15.3205 C   0  0  0  0  0  0  0  0  0  0  0  0
  -28.8833  -30.8595   15.1470 C   0  0  0  0  0  0  0  0  0  0  0  0
  -23.9095   -9.6520   22.2863 C   0  0  0  0  0  0  0  0  0  0  0  0
  -23.0463  -10.1178   20.0784 C   0  0  0  0  0  0  0  0  0  0  0  0
  -28.9855  -32.7889   16.5902 C   0  0  0  0  0  0  0  0  0  0  0  0
  -28.5626  -30.0599   16.2435 C   0  0  0  0  0  0  0  0  0  0  0  0
  -24.7405  -24.2602   17.9960 C   0  0  0  0  0  0  0  0  0  0  0  0
  -23.2266   -8.4358   22.2967 C   0  0  0  0  0  0  0  0  0  0  0  0
  -22.3635   -8.9016   20.0887 C   0  0  0  0  0  0  0  0  0  0  0  0
  -24.8809  -23.0322   18.6410 C   0  0  0  0  0  0  0  0  0  0  0  0
  -23.6305   -5.3411   20.9956 C   0  0  0  0  0  0  0  0  0  0  0  0
  -24.3205   -4.2141   21.4421 C   0  0  0  0  0  0  0  0  0  0  0  0
  -24.6406  -24.1321   20.7745 C   0  0  0  0  0  0  0  0  0  0  0  0
  -22.6928   -3.9148   23.2022 C   0  0  0  0  0  0  0  0  0  0  0  0
  -28.5056  -19.4075   19.4781 C   0  0  0  0  0  0  0  0  0  0  0  0
  -28.4395  -21.0088   20.8788 C   0  0  0  0  0  0  0  0  0  0  0  0
  -23.8193  -10.4931   21.1772 C   0  0  0  0  0  0  0  0  0  0  0  0
  -25.8326  -11.9866   20.7043 C   0  0  0  0  0  0  0  0  0  0  0  0
  -28.6539  -31.9975   17.7012 C   0  0  0  0  0  0  0  0  0  0  0  0
  -24.5596  -25.4369   18.7372 C   0  0  0  0  0  0  0  0  0  0  0  0
  -28.4497  -30.6150   17.5295 C   0  0  0  0  0  0  0  0  0  0  0  0
  -24.4955  -25.3734   20.1364 C   0  0  0  0  0  0  0  0  0  0  0  0
  -22.4536   -8.0605   21.1979 C   0  0  0  0  0  0  0  0  0  0  0  0
  -24.8339  -22.9684   20.0305 C   0  0  0  0  0  0  0  0  0  0  0  0
  -22.4717   -5.7551   21.6525 C   0  0  0  0  0  0  0  0  0  0  0  0
  -23.8516   -3.5009   22.5453 C   0  0  0  0  0  0  0  0  0  0  0  0
  -22.0028   -5.0419   22.7557 C   0  0  0  0  0  0  0  0  0  0  0  0
  -24.5240  -11.7498   21.1661 C   0  0  0  0  0  0  0  0  0  0  0  0
  -27.3796  -19.1868   20.2357 C   0  0  0  0  0  0  0  0  0  0  0  0
  -26.0312  -13.3301   20.9092 C   0  0  0  0  0  0  0  0  0  0  0  0
  -26.7836  -11.0737   20.1404 C   0  0  0  0  0  0  0  0  0  0  0  0
  -26.1969  -28.1381   19.0925 C   0  0  0  0  0  0  0  0  0  0  0  0
  -23.5996  -29.0284   20.8198 C   0  0  0  0  0  0  0  0  0  0  0  0
  -20.8922  -28.0897   22.6733 C   0  0  0  0  0  0  0  0  0  0  0  0
  -23.8581  -18.4703   20.2303 C   0  0  0  0  0  0  0  0  0  0  0  0
  -28.5931  -32.6453   19.0618 C   0  0  0  0  0  0  0  0  0  0  0  0
  -24.3829  -26.7501   18.0253 C   0  0  0  0  0  0  0  0  0  0  0  0
  -24.2830  -26.6048   20.9772 C   0  0  0  0  0  0  0  0  0  0  0  0
  -27.8817  -31.7942   20.1105 C   0  0  0  0  0  0  0  0  0  0  0  0
  -23.3187  -16.7163   23.4898 C   0  0  0  0  0  0  0  0  0  0  0  0
  -28.3773  -30.3526   20.0537 C   0  0  0  0  0  0  0  0  0  0  0  0
  -23.6332  -15.2729   23.0997 C   0  0  0  0  0  0  0  0  0  0  0  0
  -22.7816  -17.5046   22.3013 C   0  0  0  0  0  0  0  0  0  0  0  0
  -24.0036  -16.0535   20.7146 C   0  0  0  0  0  0  0  0  0  0  0  0
  -28.0758  -29.7189   18.6903 C   0  0  1  0  0  0  0  0  0  0  0  0
  -24.7181  -27.9539   18.9004 C   0  0  1  0  0  0  0  0  0  0  0  0
  -24.5688  -15.2241   21.8797 C   0  0  2  0  0  0  0  0  0  0  0  0
  -27.5968  -19.1379   23.9783 C   0  0  0  0  0  0  0  0  0  0  0  0
  -25.1320  -17.5483   17.3492 C   0  0  0  0  0  0  0  0  0  0  0  0
  -18.9773  -29.0425   23.9857 C   0  0  0  0  0  0  0  0  0  0  0  0
  -25.5070  -29.7134   23.1007 C   0  0  0  0  0  0  0  0  0  0  0  0
  -23.5380  -29.7383   24.6469 C   0  0  0  0  0  0  0  0  0  0  0  0
  -23.6578  -31.3615   22.7566 C   0  0  0  0  0  0  0  0  0  0  0  0
  -18.8926  -26.8063   20.9087 C   0  0  0  0  0  0  0  0  0  0  0  0
  -26.3634  -18.1216   20.1913 C   0  0  0  0  0  0  0  0  0  0  0  0
  -26.9098  -20.4530   23.6300 C   0  0  0  0  0  0  0  0  0  0  0  0
  -25.1515  -18.8273   18.1616 C   0  0  0  0  0  0  0  0  0  0  0  0
  -25.5588  -21.7868   21.9630 C   0  0  0  0  0  0  0  0  0  1  0  0
  -23.1932  -28.9245   22.2700 C   0  0  1  0  0  0  0  0  0  0  0  0
  -19.4403  -28.5309   22.6305 C   0  0  2  0  0  0  0  0  0  0  0  0
  -26.3068  -20.4658   22.2096 C   0  0  1  0  0  0  0  0  0  0  0  0
  -23.9800  -29.9113   23.1781 C   0  0  0  0  0  0  0  0  0  0  0  0
  -29.1611  -20.5431   19.8837 N   0  0  0  0  0  0  0  0  0  0  0  0
  -23.9330  -12.8543   21.6296 N   0  0  0  0  0  0  0  0  0  0  0  0
  -27.3508  -20.2204   21.1290 N   0  0  0  0  0  0  0  0  0  0  0  0
  -24.8746  -13.7981   21.4601 N   0  0  0  0  0  0  0  0  0  0  0  0
  -24.1219  -27.8660   20.2350 N   0  0  0  0  0  0  0  0  0  0  0  0
  -23.6790  -17.4166   21.1417 N   0  0  0  0  0  0  0  0  0  0  0  0
  -27.0805  -14.1450   20.6701 N   0  0  0  0  0  0  0  0  0  0  0  0
  -26.4167   -9.7283   20.0008 N   0  0  0  0  0  0  0  0  0  0  0  0
  -26.6822  -29.3375   18.6073 N   0  0  0  0  0  0  0  0  0  0  0  0
  -21.7461  -29.1068   22.3025 N   0  0  0  0  0  0  0  0  0  0  0  0
  -25.1043  -18.5575   19.5916 N   0  0  0  0  0  0  0  0  0  0  0  0
  -18.5644  -27.3923   22.2338 N   0  3  0  0  0  0  0  0  0  0  0  0
  -27.9309  -11.4371   19.7864 O   0  0  0  0  0  0  0  0  0  0  0  0
  -26.8492  -27.2579   19.6416 O   0  0  0  0  0  0  0  0  0  0  0  0
  -23.4522  -30.0993   20.2257 O   0  0  0  0  0  0  0  0  0  0  0  0
  -21.2347  -26.9573   23.0061 O   0  0  0  0  0  0  0  0  0  0  0  0
  -22.9525  -19.2800   19.9932 O   0  0  0  0  0  0  0  0  0  0  0  0
  -21.7874   -6.8737   21.2076 O   0  0  0  0  0  0  0  0  0  0  0  0
  -24.9714  -21.7711   20.6626 O   0  0  0  0  0  0  0  0  0  1  0  0
  -24.5135   -2.4177   22.9730 F   0  0  0  0  0  0  0  0  0  0  0  0
  -20.8894   -5.4340   23.3901 F   0  0  0  0  0  0  0  0  0  0  0  0
  1  2  1  0  0  0  0
  1  5  2  0  0  0  0
  2  6  2  0  0  0  0
  3  8  2  0  0  0  0
  3 17  1  0  0  0  0
  4  9  1  0  0  0  0
  4 17  2  0  0  0  0
  5 19  1  0  0  0  0
  6 21  1  0  0  0  0
  7 10  2  0  0  0  0
  7 20  1  0  0  0  0
  8 23  1  0  0  0  0
  9 23  2  0  0  0  0
 10 24  1  0  0  0  0
 11 12  2  0  0  0  0
 11 25  1  0  0  0  0
 12 26  1  0  0  0  0
 13 22  1  0  0  0  0
 13 24  2  0  0  0  0
 14 26  2  0  0  0  0
 14 27  1  0  0  0  0
 15 29  2  0  0  0  0
 15 63  1  0  0  0  0
 16 63  2  0  0  0  0
 16 65  1  0  0  0  0
 17 28  1  0  0  0  0
 18 28  1  0  0  0  0
 18 30  2  0  0  0  0
 18 31  1  0  0  0  0
 19 21  2  0  0  0  0
 19 36  1  0  0  0  0
 20 22  2  0  0  0  0
 20 37  1  0  0  0  0
 21 45  1  0  0  0  0
 22 38  1  0  0  0  0
 23 80  1  0  0  0  0
 24 81  1  0  0  0  0
 25 27  2  0  0  0  0
 25 80  1  0  0  0  0
 26 82  1  0  0  0  0
 27 83  1  0  0  0  0
 28 64  2  0  0  0  0
 29 55  1  0  0  0  0
 29 65  1  0  0  0  0
 30 66  1  0  0  0  0
 30 69  1  0  0  0  0
 31 70  1  0  0  0  0
 31 75  2  0  0  0  0
 32 46  1  0  0  0  0
 32 71  1  0  0  0  0
 32 76  2  0  0  0  0
 33 59  1  0  0  0  0
 33 67  1  0  0  0  0
 33 77  2  0  0  0  0
 34 60  1  0  0  0  0
 34 72  1  0  0  0  0
 34 78  2  0  0  0  0
 35 68  1  0  0  0  0
 35 73  1  0  0  0  0
 35 79  2  0  0  0  0
 36 39  1  0  0  0  0
 37 46  1  0  0  0  0
 38 67  1  0  0  0  0
 39 41  1  0  0  0  0
 40 42  1  0  0  0  0
 40 43  1  0  0  0  0
 41 45  1  0  0  0  0
 42 47  1  0  0  0  0
 43 68  1  0  0  0  0
 44 47  1  0  0  0  0
 44 68  1  0  0  0  0
 45 71  1  0  0  0  0
 46 67  1  0  0  0  0
 47 66  1  0  0  0  0
 48 56  1  0  0  0  0
 49 57  1  0  0  0  0
 50 60  1  0  0  0  0
 51 62  1  0  0  0  0
 52 62  1  0  0  0  0
 53 62  1  0  0  0  0
 54 74  1  0  0  0  0
 55 73  1  0  0  0  0
 56 61  1  0  0  0  0
 57 73  1  0  0  0  0
 58 61  1  0  0  0  0
 58 81  1  0  0  0  0
 59 62  1  0  0  0  0
 59 72  1  0  0  0  0
 60 74  1  0  0  0  0
 61 65  1  0  0  0  0
 64 66  1  0  0  0  0
M  CHG  1  74   1
M  ISO  4  35 100  58 101  73 100  81 101
M  END
> <Batch ID>
0054

> <Smiles>
CCC(n1cncc1C[100N:0](CC)[100C:0](=O)N1CCCC(n2nc(-c3ccc(Oc4ccc(F)cc4F)cc3)c(C(N)=O)c2N)C1)[101CH2:1][101O:1]c1ccc2c(c1)CN(C(=O)C(NC(=O)C(C)NC)C(C)(C)C)C(C(=O)NC1CCCc3ccccc31)C2

> <Shape>
0.237

> <Color>
0.089

> <Negative vol penalty>
0.000

$$$$

  -OEChem-04052317413D

 82 90  0     1  0  0  0  0  0999 V2000
  -27.7807  -20.7290   12.0529 C   0  0  0  0  0  0  0  0  0  0  0  0
  -27.7919  -20.6007   13.4381 C   0  0  0  0  0  0  0  0  0  0  0  0
  -23.1212   -9.9572   19.7930 C   0  0  0  0  0  0  0  0  0  0  0  0
  -23.8140   -9.8844   22.1064 C   0  0  0  0  0  0  0  0  0  0  0  0
  -28.3958  -21.8257   11.4506 C   0  0  0  0  0  0  0  0  0  0  0  0
  -28.4192  -21.5685   14.2218 C   0  0  0  0  0  0  0  0  0  0  0  0
  -25.6417  -22.9178   18.2355 C   0  0  0  0  0  0  0  0  0  0  0  0
  -22.3845   -8.7872   19.9767 C   0  0  0  0  0  0  0  0  0  0  0  0
  -23.0772   -8.7143   22.2901 C   0  0  0  0  0  0  0  0  0  0  0  0
  -25.6350  -22.0493   19.3262 C   0  0  0  0  0  0  0  0  0  0  0  0
  -21.0879   -5.9059   23.4622 C   0  0  0  0  0  0  0  0  0  0  0  0
  -20.2985   -5.8089   24.6081 C   0  0  0  0  0  0  0  0  0  0  0  0
  -27.2540  -23.4472   20.4415 C   0  0  0  0  0  0  0  0  0  0  0  0
  -19.0521   -7.7590   23.9145 C   0  0  0  0  0  0  0  0  0  0  0  0
  -30.0339  -19.2755   19.1193 C   0  0  0  0  0  0  0  0  0  0  0  0
  -23.8360  -10.5059   20.8578 C   0  0  0  0  0  0  0  0  0  0  0  0
  -24.1503  -13.0374   20.8443 C   0  0  0  0  0  0  0  0  0  0  0  0
  -29.0226  -22.8125   12.2278 C   0  0  0  0  0  0  0  0  0  0  0  0
  -26.4642  -24.0536   18.2351 C   0  0  0  0  0  0  0  0  0  0  0  0
  -29.0445  -22.6788   13.6292 C   0  0  0  0  0  0  0  0  0  0  0  0
  -27.2674  -24.3298   19.3507 C   0  0  0  0  0  0  0  0  0  0  0  0
  -22.3625   -8.1657   21.2253 C   0  0  0  0  0  0  0  0  0  0  0  0
  -26.4434  -22.3124   20.4282 C   0  0  0  0  0  0  0  0  0  0  0  0
  -20.8595   -6.9295   22.5425 C   0  0  0  0  0  0  0  0  0  0  0  0
  -19.2806   -6.7354   24.8342 C   0  0  0  0  0  0  0  0  0  0  0  0
  -19.8416   -7.8560   22.7687 C   0  0  0  0  0  0  0  0  0  0  0  0
  -24.5976  -11.7142   20.6685 C   0  0  0  0  0  0  0  0  0  0  0  0
  -29.0769  -19.0240   21.0038 C   0  0  0  0  0  0  0  0  0  0  0  0
  -29.3632  -17.7529   20.5645 C   0  0  0  0  0  0  0  0  0  0  0  0
  -25.2433  -13.8124   20.5423 C   0  0  0  0  0  0  0  0  0  0  0  0
  -22.8619  -13.5226   21.2449 C   0  0  0  0  0  0  0  0  0  0  0  0
  -28.8819  -25.0716   16.4401 C   0  0  0  0  0  0  0  0  0  0  0  0
  -28.5908  -27.7461   18.2524 C   0  0  0  0  0  0  0  0  0  0  0  0
  -27.5569  -29.1641   21.1794 C   0  0  0  0  0  0  0  0  0  0  0  0
  -30.8198  -14.5630   21.3522 C   0  0  0  0  0  0  0  0  0  0  0  0
  -29.7152  -23.9556   11.5291 C   0  0  0  0  0  0  0  0  0  0  0  0
  -26.4399  -24.9948   17.0621 C   0  0  0  0  0  0  0  0  0  0  0  0
  -28.1533  -25.5466   19.4082 C   0  0  0  0  0  0  0  0  0  0  0  0
  -30.0331  -25.1301   12.4510 C   0  0  0  0  0  0  0  0  0  0  0  0
  -29.6673  -12.6138   18.4241 C   0  0  0  0  0  0  0  0  0  0  0  0
  -30.6590  -24.6344   13.7507 C   0  0  0  0  0  0  0  0  0  0  0  0
  -28.2306  -12.2596   18.8043 C   0  0  0  0  0  0  0  0  0  0  0  0
  -30.5520  -12.7920   19.6542 C   0  0  0  0  0  0  0  0  0  0  0  0
  -28.5882  -13.4223   21.0181 C   0  0  0  0  0  0  0  0  0  0  0  0
  -29.6932  -23.7205   14.5147 C   0  0  1  0  0  0  0  0  0  0  0  0
  -27.7010  -25.8463   16.9530 C   0  0  1  0  0  0  0  0  0  0  0  0
  -27.6595  -13.2815   19.8027 C   0  0  2  0  0  0  0  0  0  0  0  0
  -27.4878  -31.3630   22.3866 C   0  0  0  0  0  0  0  0  0  0  0  0
  -31.5638  -27.4877   18.8881 C   0  0  0  0  0  0  0  0  0  0  0  0
  -31.2248  -29.0822   20.7884 C   0  0  0  0  0  0  0  0  0  0  0  0
  -30.7907  -29.8248   18.4469 C   0  0  0  0  0  0  0  0  0  0  0  0
  -30.4778  -16.8993   18.4785 C   0  0  0  0  0  0  0  0  0  0  0  0
  -31.1812  -16.7226   22.4859 C   0  0  0  0  0  0  0  0  0  0  0  0
  -24.5994  -29.1432   21.2886 C   0  0  0  0  0  0  0  0  0  0  0  0
  -28.3994  -19.4438   22.2838 C   0  0  0  0  0  0  0  0  0  0  0  0
  -29.1203  -16.4280   21.1624 C   0  0  0  0  0  0  0  0  0  0  0  0
  -26.8827  -19.2407   22.2732 C   0  0  0  0  0  0  0  0  0  0  0  0
  -26.1671  -20.0904   21.2295 C   0  0  0  0  0  0  0  0  0  1  0  0
  -29.1810  -28.2226   19.5576 C   0  0  1  0  0  0  0  0  0  0  0  0
  -26.7428  -30.4141   21.4607 C   0  0  2  0  0  0  0  0  0  0  0  0
  -30.6750  -28.6303   19.4187 C   0  0  0  0  0  0  0  0  0  0  0  0
  -29.4967  -19.9672   20.0996 N   0  0  0  0  0  0  0  0  0  0  0  0
  -25.8752  -11.6486   20.2844 N   0  0  0  0  0  0  0  0  0  0  0  0
  -29.9757  -17.9301   19.3559 N   0  0  0  0  0  0  0  0  0  0  0  0
  -26.2399  -12.9403   20.2163 N   0  0  0  0  0  0  0  0  0  0  0  0
  -28.0992  -26.4332   18.2341 N   0  0  0  0  0  0  0  0  0  0  0  0
  -29.9647  -13.7355   20.6060 N   0  0  0  0  0  0  0  0  0  0  0  0
  -25.4394  -15.1479   20.5264 N   0  0  0  0  0  0  0  0  0  0  0  0
  -21.8518  -12.5899   21.5173 N   0  0  0  0  0  0  0  0  0  0  0  0
  -28.6856  -24.5058   15.1947 N   0  0  0  0  0  0  0  0  0  0  0  0
  -28.3111  -29.2932   20.0324 N   0  0  0  0  0  0  0  0  0  0  0  0
  -30.3278  -15.8241   21.7215 N   0  0  0  0  0  0  0  0  0  0  0  0
  -25.4459  -30.0545   22.1010 N   0  3  0  0  0  0  0  0  0  0  0  0
  -22.6091  -14.7474   21.3422 O   0  0  0  0  0  0  0  0  0  0  0  0
  -29.8965  -24.9942   17.1229 O   0  0  0  0  0  0  0  0  0  0  0  0
  -28.5603  -28.5131   17.2868 O   0  0  0  0  0  0  0  0  0  0  0  0
  -27.5295  -28.1737   21.9066 O   0  0  0  0  0  0  0  0  0  0  0  0
  -31.9616  -14.1993   21.6621 O   0  0  0  0  0  0  0  0  0  0  0  0
  -21.6436   -7.0240   21.4050 O   0  0  0  0  0  0  0  0  0  0  0  0
  -26.4393  -21.4660   21.4937 O   0  0  0  0  0  0  0  0  0  1  0  0
  -18.5216   -6.6412   25.9339 F   0  0  0  0  0  0  0  0  0  0  0  0
  -19.6166   -8.8408   21.8881 F   0  0  0  0  0  0  0  0  0  0  0  0
  1  2  1  0  0  0  0
  1  5  2  0  0  0  0
  2  6  2  0  0  0  0
  3  8  2  0  0  0  0
  3 16  1  0  0  0  0
  4  9  1  0  0  0  0
  4 16  2  0  0  0  0
  5 18  1  0  0  0  0
  6 20  1  0  0  0  0
  7 10  2  0  0  0  0
  7 19  1  0  0  0  0
  8 22  1  0  0  0  0
  9 22  2  0  0  0  0
 10 23  1  0  0  0  0
 11 12  2  0  0  0  0
 11 24  1  0  0  0  0
 12 25  1  0  0  0  0
 13 21  1  0  0  0  0
 13 23  2  0  0  0  0
 14 25  2  0  0  0  0
 14 26  1  0  0  0  0
 15 62  2  0  0  0  0
 15 64  1  0  0  0  0
 16 27  1  0  0  0  0
 17 27  1  0  0  0  0
 17 30  2  0  0  0  0
 17 31  1  0  0  0  0
 18 20  2  0  0  0  0
 18 36  1  0  0  0  0
 19 21  2  0  0  0  0
 19 37  1  0  0  0  0
 20 45  1  0  0  0  0
 21 38  1  0  0  0  0
 22 79  1  0  0  0  0
 23 80  1  0  0  0  0
 24 26  2  0  0  0  0
 24 79  1  0  0  0  0
 25 81  1  0  0  0  0
 26 82  1  0  0  0  0
 27 63  2  0  0  0  0
 28 29  2  0  0  0  0
 28 55  1  0  0  0  0
 28 62  1  0  0  0  0
 29 56  1  0  0  0  0
 29 64  1  0  0  0  0
 30 65  1  0  0  0  0
 30 68  1  0  0  0  0
 31 69  1  0  0  0  0
 31 74  2  0  0  0  0
 32 46  1  0  0  0  0
 32 70  1  0  0  0  0
 32 75  2  0  0  0  0
 33 59  1  0  0  0  0
 33 66  1  0  0  0  0
 33 76  2  0  0  0  0
 34 60  1  0  0  0  0
 34 71  1  0  0  0  0
 34 77  2  0  0  0  0
 35 67  1  0  0  0  0
 35 72  1  0  0  0  0
 35 78  2  0  0  0  0
 36 39  1  0  0  0  0
 37 46  1  0  0  0  0
 38 66  1  0  0  0  0
 39 41  1  0  0  0  0
 40 42  1  0  0  0  0
 40 43  1  0  0  0  0
 41 45  1  0  0  0  0
 42 47  1  0  0  0  0
 43 67  1  0  0  0  0
 44 47  1  0  0  0  0
 44 67  1  0  0  0  0
 45 70  1  0  0  0  0
 46 66  1  0  0  0  0
 47 65  1  0  0  0  0
 48 60  1  0  0  0  0
 49 61  1  0  0  0  0
 50 61  1  0  0  0  0
 51 61  1  0  0  0  0
 52 64  1  0  0  0  0
 53 72  1  0  0  0  0
 54 73  1  0  0  0  0
 55 57  1  0  0  0  0
 56 72  1  0  0  0  0
 57 58  1  0  0  0  0
 58 80  1  0  0  0  0
 59 61  1  0  0  0  0
 59 71  1  0  0  0  0
 60 73  1  0  0  0  0
 63 65  1  0  0  0  0
M  CHG  1  73   1
M  ISO  4  35 100  58 101  72 100  80 101
M  END
> <Batch ID>
0054

> <Smiles>
CNC(C)C(=O)NC(C(=O)N1Cc2cc([101O:1][101CH2:1]CCc3ncn(C)c3C[100N:0](C)[100C:0](=O)N3CCCC(n4nc(-c5ccc(Oc6ccc(F)cc6F)cc5)c(C(N)=O)c4N)C3)ccc2CC1C(=O)NC1CCCc2ccccc21)C(C)(C)C

> <Shape>
0.269

> <Color>
0.192

> <Negative vol penalty>
0.000

$$$$

  -OEChem-04052317413D

 85 93  0     1  0  0  0  0  0999 V2000
  -22.5785  -28.8159   23.6218 C   0  0  0  0  0  0  0  0  0  0  0  0
  -23.0661  -27.5432   23.3427 C   0  0  0  0  0  0  0  0  0  0  0  0
  -20.1402  -23.6499   18.4458 C   0  0  0  0  0  0  0  0  0  0  0  0
  -20.4875  -23.4383   20.8273 C   0  0  0  0  0  0  0  0  0  0  0  0
  -23.1123  -29.9248   22.9665 C   0  0  0  0  0  0  0  0  0  0  0  0
  -24.0871  -27.3786   22.4073 C   0  0  0  0  0  0  0  0  0  0  0  0
  -28.6004  -23.2424   22.5733 C   0  0  0  0  0  0  0  0  0  0  0  0
  -18.9403  -24.3212   18.6804 C   0  0  0  0  0  0  0  0  0  0  0  0
  -19.2876  -24.1097   21.0620 C   0  0  0  0  0  0  0  0  0  0  0  0
  -28.7652  -22.0082   21.9461 C   0  0  0  0  0  0  0  0  0  0  0  0
  -18.1788  -27.3021   21.0551 C   0  0  0  0  0  0  0  0  0  0  0  0
  -18.1760  -28.2996   22.0301 C   0  0  0  0  0  0  0  0  0  0  0  0
  -30.0500  -23.0720   20.2035 C   0  0  0  0  0  0  0  0  0  0  0  0
  -16.4930  -27.0855   23.2673 C   0  0  0  0  0  0  0  0  0  0  0  0
  -31.6542  -17.4715   17.7649 C   0  0  0  0  0  0  0  0  0  0  0  0
  -29.2761  -18.6441   18.0768 C   0  0  0  0  0  0  0  0  0  0  0  0
  -20.9138  -23.2084   19.5193 C   0  0  0  0  0  0  0  0  0  0  0  0
  -23.4336  -23.0833   19.1416 C   0  0  0  0  0  0  0  0  0  0  0  0
  -24.1469  -29.7747   22.0298 C   0  0  0  0  0  0  0  0  0  0  0  0
  -29.1509  -24.4043   22.0135 C   0  0  0  0  0  0  0  0  0  0  0  0
  -24.6343  -28.4865   21.7379 C   0  0  0  0  0  0  0  0  0  0  0  0
  -29.8930  -24.3193   20.8268 C   0  0  0  0  0  0  0  0  0  0  0  0
  -18.5140  -24.5511   19.9885 C   0  0  0  0  0  0  0  0  0  0  0  0
  -29.4876  -21.9233   20.7595 C   0  0  0  0  0  0  0  0  0  0  0  0
  -17.3387  -26.1963   21.1862 C   0  0  0  0  0  0  0  0  0  0  0  0
  -17.3331  -28.1913   23.1361 C   0  0  0  0  0  0  0  0  0  0  0  0
  -16.4958  -26.0880   22.2923 C   0  0  0  0  0  0  0  0  0  0  0  0
  -22.1532  -22.5143   19.2776 C   0  0  0  0  0  0  0  0  0  0  0  0
  -30.4885  -16.8110   17.4448 C   0  0  0  0  0  0  0  0  0  0  0  0
  -30.4416  -19.3045   18.3976 C   0  0  0  0  0  0  0  0  0  0  0  0
  -24.2647  -22.0112   18.9260 C   0  0  0  0  0  0  0  0  0  0  0  0
  -23.8359  -24.4581   19.2046 C   0  0  0  0  0  0  0  0  0  0  0  0
  -27.9662  -27.1321   20.8913 C   0  0  0  0  0  0  0  0  0  0  0  0
  -31.0981  -27.9455   20.6619 C   0  0  0  0  0  0  0  0  0  0  0  0
  -34.3430  -26.9264   20.3821 C   0  0  0  0  0  0  0  0  0  0  0  0
  -24.9405  -16.6256   20.6436 C   0  0  0  0  0  0  0  0  0  0  0  0
  -24.6596  -30.9982   21.3122 C   0  0  0  0  0  0  0  0  0  0  0  0
  -28.9869  -25.7239   22.7165 C   0  0  0  0  0  0  0  0  0  0  0  0
  -30.5213  -25.5340   20.1957 C   0  0  0  0  0  0  0  0  0  0  0  0
  -25.9968  -30.7768   20.6099 C   0  0  0  0  0  0  0  0  0  0  0  0
  -23.6253  -17.3664   17.3544 C   0  0  0  0  0  0  0  0  0  0  0  0
  -25.9757  -29.4717   19.8207 C   0  0  0  0  0  0  0  0  0  0  0  0
  -23.2348  -18.8376   17.5072 C   0  0  0  0  0  0  0  0  0  0  0  0
  -23.3433  -16.5839   18.6336 C   0  0  0  0  0  0  0  0  0  0  0  0
  -23.6030  -18.6130   20.0080 C   0  0  0  0  0  0  0  0  0  0  0  0
  -25.7581  -28.2698   20.7478 C   0  0  1  0  0  0  0  0  0  0  0  0
  -29.1547  -26.9214   21.7862 C   0  0  1  0  0  0  0  0  0  0  0  0
  -23.8847  -19.4630   18.7557 C   0  0  2  0  0  0  0  0  0  0  0  0
  -36.6784  -27.8219   20.1782 C   0  0  0  0  0  0  0  0  0  0  0  0
  -30.5755  -28.6351   17.7360 C   0  0  0  0  0  0  0  0  0  0  0  0
  -33.0502  -28.5984   17.3578 C   0  0  0  0  0  0  0  0  0  0  0  0
  -32.0564  -30.2510   18.9402 C   0  0  0  0  0  0  0  0  0  0  0  0
  -35.1850  -25.6293   22.9055 C   0  0  0  0  0  0  0  0  0  0  0  0
  -30.1062  -13.3384   19.2724 C   0  0  0  0  0  0  0  0  0  0  0  0
  -30.5288  -15.4207   16.9141 C   0  0  0  0  0  0  0  0  0  0  0  0
  -30.4010  -20.7059   18.9321 C   0  0  0  0  0  0  0  0  0  1  0  0
  -27.6388  -14.6921   20.6356 C   0  0  0  0  0  0  0  0  0  0  0  0
  -26.2129  -14.5587   21.1594 C   0  0  0  0  0  0  0  0  0  0  0  0
  -29.3020  -14.5765   17.2672 C   0  0  0  0  0  0  0  0  0  0  0  0
  -27.7734  -14.2069   19.1979 C   0  0  0  0  0  0  0  0  0  0  0  0
  -32.1621  -27.8125   19.5993 C   0  0  1  0  0  0  0  0  0  0  0  0
  -35.5967  -27.3392   21.1320 C   0  0  2  0  0  0  0  0  0  0  0  0
  -31.9477  -28.8015   18.4189 C   0  0  0  0  0  0  0  0  0  0  0  0
  -29.2786  -17.3855   17.5947 N   0  0  0  0  0  0  0  0  0  0  0  0
  -31.6516  -18.7300   18.2474 N   0  0  0  0  0  0  0  0  0  0  0  0
  -22.1648  -21.1841   19.1582 N   0  0  0  0  0  0  0  0  0  0  0  0
  -23.4626  -20.9082   18.9449 N   0  0  0  0  0  0  0  0  0  0  0  0
  -30.3275  -26.8023   20.9176 N   0  0  0  0  0  0  0  0  0  0  0  0
  -24.0054  -17.2210   19.7808 N   0  0  0  0  0  0  0  0  0  0  0  0
  -25.5959  -21.9139   18.7240 N   0  0  0  0  0  0  0  0  0  0  0  0
  -22.8541  -25.4317   19.4335 N   0  0  0  0  0  0  0  0  0  0  0  0
  -26.9850  -27.9361   21.4391 N   0  0  0  0  0  0  0  0  0  0  0  0
  -33.4422  -27.9655   20.2821 N   0  0  0  0  0  0  0  0  0  0  0  0
  -25.2621  -15.3031   20.3638 N   0  0  0  0  0  0  0  0  0  0  0  0
  -36.1363  -26.1894   21.9114 N   0  3  0  0  0  0  0  0  0  0  0  0
  -29.1954  -14.4166   18.7385 N   0  3  1  0  0  0  0  0  0  0  0  0
  -25.0282  -24.8140   19.0458 O   0  0  0  0  0  0  0  0  0  0  0  0
  -27.9420  -26.6055   19.7850 O   0  0  0  0  0  0  0  0  0  0  0  0
  -30.9605  -29.0218   21.2487 O   0  0  0  0  0  0  0  0  0  0  0  0
  -34.1808  -25.7963   19.9270 O   0  0  0  0  0  0  0  0  0  0  0  0
  -25.4552  -17.2298   21.5908 O   0  0  0  0  0  0  0  0  0  0  0  0
  -17.3432  -25.2064   20.2178 O   0  0  0  0  0  0  0  0  0  0  0  0
  -29.6493  -20.7199   20.1450 O   0  0  0  0  0  0  0  0  0  1  0  0
  -17.3316  -29.1485   24.0731 F   0  0  0  0  0  0  0  0  0  0  0  0
  -15.6873  -25.0275   22.4243 F   0  0  0  0  0  0  0  0  0  0  0  0
  1  2  1  0  0  0  0
  1  5  2  0  0  0  0
  2  6  2  0  0  0  0
  3  8  2  0  0  0  0
  3 17  1  0  0  0  0
  4  9  1  0  0  0  0
  4 17  2  0  0  0  0
  5 19  1  0  0  0  0
  6 21  1  0  0  0  0
  7 10  2  0  0  0  0
  7 20  1  0  0  0  0
  8 23  1  0  0  0  0
  9 23  2  0  0  0  0
 10 24  1  0  0  0  0
 11 12  2  0  0  0  0
 11 25  1  0  0  0  0
 12 26  1  0  0  0  0
 13 22  1  0  0  0  0
 13 24  2  0  0  0  0
 14 26  2  0  0  0  0
 14 27  1  0  0  0  0
 15 29  2  0  0  0  0
 15 65  1  0  0  0  0
 16 30  1  0  0  0  0
 16 64  2  0  0  0  0
 17 28  1  0  0  0  0
 18 28  1  0  0  0  0
 18 31  2  0  0  0  0
 18 32  1  0  0  0  0
 19 21  2  0  0  0  0
 19 37  1  0  0  0  0
 20 22  2  0  0  0  0
 20 38  1  0  0  0  0
 21 46  1  0  0  0  0
 22 39  1  0  0  0  0
 23 82  1  0  0  0  0
 24 83  1  0  0  0  0
 25 27  2  0  0  0  0
 25 82  1  0  0  0  0
 26 84  1  0  0  0  0
 27 85  1  0  0  0  0
 28 66  2  0  0  0  0
 29 55  1  0  0  0  0
 29 64  1  0  0  0  0
 30 56  1  0  0  0  0
 30 65  2  0  0  0  0
 31 67  1  0  0  0  0
 31 70  1  0  0  0  0
 32 71  1  0  0  0  0
 32 77  2  0  0  0  0
 33 47  1  0  0  0  0
 33 72  1  0  0  0  0
 33 78  2  0  0  0  0
 34 61  1  0  0  0  0
 34 68  1  0  0  0  0
 34 79  2  0  0  0  0
 35 62  1  0  0  0  0
 35 73  1  0  0  0  0
 35 80  2  0  0  0  0
 36 69  1  0  0  0  0
 36 74  1  0  0  0  0
 36 81  2  0  0  0  0
 37 40  1  0  0  0  0
 38 47  1  0  0  0  0
 39 68  1  0  0  0  0
 40 42  1  0  0  0  0
 41 43  1  0  0  0  0
 41 44  1  0  0  0  0
 42 46  1  0  0  0  0
 43 48  1  0  0  0  0
 44 69  1  0  0  0  0
 45 48  1  0  0  0  0
 45 69  1  0  0  0  0
 46 72  1  0  0  0  0
 47 68  1  0  0  0  0
 48 67  1  0  0  0  0
 49 62  1  0  0  0  0
 50 63  1  0  0  0  0
 51 63  1  0  0  0  0
 52 63  1  0  0  0  0
 53 75  1  0  0  0  0
 54 76  1  0  0  0  0
 55 59  1  0  0  0  0
 56 83  1  0  0  0  0
 57 58  1  0  0  0  0
 57 60  1  0  0  0  0
 58 74  1  0  0  0  0
 59 76  1  0  0  0  0
 60 76  1  0  0  0  0
 61 63  1  0  0  0  0
 61 73  1  0  0  0  0
 62 75  1  0  0  0  0
 66 67  1  0  0  0  0
M  CHG  2  75   1  76   1
M  ISO  4  36 100  56 101  74 100  83 101
M  END
> <Batch ID>
0054

> <Smiles>
CNC(C)C(=O)NC(C(=O)N1Cc2cc([101O:1][101CH2:1]c3cnc(CCN(C)CCC[100NH:0][100C:0](=O)N4CCCC(n5nc(-c6ccc(Oc7ccc(F)cc7F)cc6)c(C(N)=O)c5N)C4)cn3)ccc2CC1C(=O)NC1CCCc2ccccc21)C(C)(C)C

> <Shape>
0.185

> <Color>
0.059

> <Negative vol penalty>
0.000

$$$$

  -OEChem-04052317413D

 79 87  0     1  0  0  0  0  0999 V2000
  -19.0259  -28.2135   23.1395 C   0  0  0  0  0  0  0  0  0  0  0  0
  -19.4627  -26.9229   23.4204 C   0  0  0  0  0  0  0  0  0  0  0  0
  -22.5059  -15.5351   21.9185 C   0  0  0  0  0  0  0  0  0  0  0  0
  -22.7647  -15.8135   19.5326 C   0  0  0  0  0  0  0  0  0  0  0  0
  -19.5191  -28.8877   22.0233 C   0  0  0  0  0  0  0  0  0  0  0  0
  -20.3924  -26.3053   22.5845 C   0  0  0  0  0  0  0  0  0  0  0  0
  -25.8528  -21.6721   22.7674 C   0  0  0  0  0  0  0  0  0  0  0  0
  -21.4894  -16.4902   21.9198 C   0  0  0  0  0  0  0  0  0  0  0  0
  -21.7480  -16.7686   19.5338 C   0  0  0  0  0  0  0  0  0  0  0  0
  -26.2909  -20.4989   22.1546 C   0  0  0  0  0  0  0  0  0  0  0  0
  -21.4004  -20.0359   20.3302 C   0  0  0  0  0  0  0  0  0  0  0  0
  -21.6129  -21.2096   19.6070 C   0  0  0  0  0  0  0  0  0  0  0  0
  -27.1333  -21.7899   20.2991 C   0  0  0  0  0  0  0  0  0  0  0  0
  -19.6816  -20.7178   18.2413 C   0  0  0  0  0  0  0  0  0  0  0  0
  -29.3951  -17.3683   18.9641 C   0  0  0  0  0  0  0  0  0  0  0  0
  -28.2308  -16.4329   17.3436 C   0  0  0  0  0  0  0  0  0  0  0  0
  -23.1436  -15.1968   20.7249 C   0  0  0  0  0  0  0  0  0  0  0  0
  -24.0554  -12.8210   20.5457 C   0  0  0  0  0  0  0  0  0  0  0  0
  -20.4626  -28.2817   21.1787 C   0  0  0  0  0  0  0  0  0  0  0  0
  -26.0423  -22.9141   22.1445 C   0  0  0  0  0  0  0  0  0  0  0  0
  -20.8977  -26.9715   21.4551 C   0  0  0  0  0  0  0  0  0  0  0  0
  -26.6990  -22.9776   20.9073 C   0  0  0  0  0  0  0  0  0  0  0  0
  -21.1104  -17.1069   20.7274 C   0  0  0  0  0  0  0  0  0  0  0  0
  -26.9287  -20.5574   20.9189 C   0  0  0  0  0  0  0  0  0  0  0  0
  -20.3285  -19.2032   20.0088 C   0  0  0  0  0  0  0  0  0  0  0  0
  -20.7535  -21.5506   18.5626 C   0  0  0  0  0  0  0  0  0  0  0  0
  -19.4691  -19.5441   18.9644 C   0  0  0  0  0  0  0  0  0  0  0  0
  -24.1942  -14.2107   20.7231 C   0  0  0  0  0  0  0  0  0  0  0  0
  -28.3708  -18.1843   18.5450 C   0  0  0  0  0  0  0  0  0  0  0  0
  -25.3374  -12.3348   20.6271 C   0  0  0  0  0  0  0  0  0  0  0  0
  -22.8734  -12.0396   20.3268 C   0  0  0  0  0  0  0  0  0  0  0  0
  -24.1145  -25.1969   21.0601 C   0  0  0  0  0  0  0  0  0  0  0  0
  -26.9031  -26.7827   20.5792 C   0  0  0  0  0  0  0  0  0  0  0  0
  -30.6761  -14.9104   19.6387 C   0  0  0  0  0  0  0  0  0  0  0  0
  -30.2750  -26.6272   20.0764 C   0  0  0  0  0  0  0  0  0  0  0  0
  -20.9314  -29.0322   19.9574 C   0  0  0  0  0  0  0  0  0  0  0  0
  -25.5877  -24.1728   22.8312 C   0  0  0  0  0  0  0  0  0  0  0  0
  -26.9449  -24.2878   20.2063 C   0  0  0  0  0  0  0  0  0  0  0  0
  -22.1958  -28.4487   19.3320 C   0  0  0  0  0  0  0  0  0  0  0  0
  -29.5797  -13.2543   22.6212 C   0  0  0  0  0  0  0  0  0  0  0  0
  -22.0796  -26.9328   19.2085 C   0  0  0  0  0  0  0  0  0  0  0  0
  -28.0597  -13.2110   22.4697 C   0  0  0  0  0  0  0  0  0  0  0  0
  -30.1637  -14.5326   22.0281 C   0  0  0  0  0  0  0  0  0  0  0  0
  -28.2710  -14.7226   20.4459 C   0  0  0  0  0  0  0  0  0  0  0  0
  -21.9239  -26.2774   20.5861 C   0  0  1  0  0  0  0  0  0  0  0  0
  -25.3743  -25.3357   21.8670 C   0  0  1  0  0  0  0  0  0  0  0  0
  -27.6436  -13.4332   21.0047 C   0  0  2  0  0  0  0  0  0  0  0  0
  -32.2768  -28.0874   19.6792 C   0  0  0  0  0  0  0  0  0  0  0  0
  -31.3449  -15.2862   17.2862 C   0  0  0  0  0  0  0  0  0  0  0  0
  -29.4590  -13.7629   17.8756 C   0  0  0  0  0  0  0  0  0  0  0  0
  -26.0226  -27.1991   17.6876 C   0  0  0  0  0  0  0  0  0  0  0  0
  -28.3899  -27.7888   17.1250 C   0  0  0  0  0  0  0  0  0  0  0  0
  -27.1088  -29.1887   18.7442 C   0  0  0  0  0  0  0  0  0  0  0  0
  -31.5942  -25.6913   22.5548 C   0  0  0  0  0  0  0  0  0  0  0  0
  -28.0025  -19.5473   19.0528 C   0  0  0  0  0  0  0  0  0  1  0  0
  -27.8908  -26.8880   19.4424 C   0  0  1  0  0  0  0  0  0  0  0  0
  -31.4253  -27.3790   20.7213 C   0  0  2  0  0  0  0  0  0  0  0  0
  -30.1503  -15.0915   18.2370 C   0  0  0  0  0  0  0  0  0  0  0  0
  -27.3468  -27.7411   18.2618 C   0  0  0  0  0  0  0  0  0  0  0  0
  -27.6496  -17.5961   17.5363 N   0  0  0  0  0  0  0  0  0  0  0  0
  -25.4641  -14.5832   20.9038 N   0  0  0  0  0  0  0  0  0  0  0  0
  -29.2923  -16.2500   18.1857 N   0  0  0  0  0  0  0  0  0  0  0  0
  -26.1350  -13.4204   20.8404 N   0  0  0  0  0  0  0  0  0  0  0  0
  -26.4762  -25.4901   20.9151 N   0  0  0  0  0  0  0  0  0  0  0  0
  -29.7272  -14.7191   20.6432 N   0  0  0  0  0  0  0  0  0  0  0  0
  -25.8489  -11.0888   20.5365 N   0  0  0  0  0  0  0  0  0  0  0  0
  -21.6378  -12.6986   20.2705 N   0  0  0  0  0  0  0  0  0  0  0  0
  -23.2014  -26.2141   21.2630 N   0  0  0  0  0  0  0  0  0  0  0  0
  -29.1298  -27.3934   20.0236 N   0  0  0  0  0  0  0  0  0  0  0  0
  -32.2974  -26.4391   21.4808 N   0  3  0  0  0  0  0  0  0  0  0  0
  -22.9101  -10.7920   20.2018 O   0  0  0  0  0  0  0  0  0  0  0  0
  -23.9813  -24.2387   20.3078 O   0  0  0  0  0  0  0  0  0  0  0  0
  -26.5296  -27.8089   21.1528 O   0  0  0  0  0  0  0  0  0  0  0  0
  -31.8943  -14.9354   19.8326 O   0  0  0  0  0  0  0  0  0  0  0  0
  -30.3826  -25.4767   19.6576 O   0  0  0  0  0  0  0  0  0  0  0  0
  -20.1183  -18.0387   20.7282 O   0  0  0  0  0  0  0  0  0  0  0  0
  -27.3567  -19.4138   20.3183 O   0  0  0  0  0  0  0  0  0  1  0  0
  -20.9569  -22.6784   17.8692 F   0  0  0  0  0  0  0  0  0  0  0  0
  -18.4369  -18.7487   18.6518 F   0  0  0  0  0  0  0  0  0  0  0  0
  1  2  1  0  0  0  0
  1  5  2  0  0  0  0
  2  6  2  0  0  0  0
  3  8  2  0  0  0  0
  3 17  1  0  0  0  0
  4  9  1  0  0  0  0
  4 17  2  0  0  0  0
  5 19  1  0  0  0  0
  6 21  1  0  0  0  0
  7 10  2  0  0  0  0
  7 20  1  0  0  0  0
  8 23  1  0  0  0  0
  9 23  2  0  0  0  0
 10 24  1  0  0  0  0
 11 12  2  0  0  0  0
 11 25  1  0  0  0  0
 12 26  1  0  0  0  0
 13 22  1  0  0  0  0
 13 24  2  0  0  0  0
 14 26  2  0  0  0  0
 14 27  1  0  0  0  0
 15 29  2  0  0  0  0
 15 62  1  0  0  0  0
 16 60  2  0  0  0  0
 16 62  1  0  0  0  0
 17 28  1  0  0  0  0
 18 28  1  0  0  0  0
 18 30  2  0  0  0  0
 18 31  1  0  0  0  0
 19 21  2  0  0  0  0
 19 36  1  0  0  0  0
 20 22  2  0  0  0  0
 20 37  1  0  0  0  0
 21 45  1  0  0  0  0
 22 38  1  0  0  0  0
 23 76  1  0  0  0  0
 24 77  1  0  0  0  0
 25 27  2  0  0  0  0
 25 76  1  0  0  0  0
 26 78  1  0  0  0  0
 27 79  1  0  0  0  0
 28 61  2  0  0  0  0
 29 55  1  0  0  0  0
 29 60  1  0  0  0  0
 30 63  1  0  0  0  0
 30 66  1  0  0  0  0
 31 67  1  0  0  0  0
 31 71  2  0  0  0  0
 32 46  1  0  0  0  0
 32 68  1  0  0  0  0
 32 72  2  0  0  0  0
 33 56  1  0  0  0  0
 33 64  1  0  0  0  0
 33 73  2  0  0  0  0
 34 58  1  0  0  0  0
 34 65  1  0  0  0  0
 34 74  2  0  0  0  0
 35 57  1  0  0  0  0
 35 69  1  0  0  0  0
 35 75  2  0  0  0  0
 36 39  1  0  0  0  0
 37 46  1  0  0  0  0
 38 64  1  0  0  0  0
 39 41  1  0  0  0  0
 40 42  1  0  0  0  0
 40 43  1  0  0  0  0
 41 45  1  0  0  0  0
 42 47  1  0  0  0  0
 43 65  1  0  0  0  0
 44 47  1  0  0  0  0
 44 65  1  0  0  0  0
 45 68  1  0  0  0  0
 46 64  1  0  0  0  0
 47 63  1  0  0  0  0
 48 57  1  0  0  0  0
 49 58  1  0  0  0  0
 50 58  1  0  0  0  0
 51 59  1  0  0  0  0
 52 59  1  0  0  0  0
 53 59  1  0  0  0  0
 54 70  1  0  0  0  0
 55 77  1  0  0  0  0
 56 59  1  0  0  0  0
 56 69  1  0  0  0  0
 57 70  1  0  0  0  0
 58 62  1  0  0  0  0
 61 63  1  0  0  0  0
M  CHG  1  70   1
M  ISO  4  34 100  55 101  58 100  77 101
M  END
> <Batch ID>
0054

> <Smiles>
CNC(C)C(=O)NC(C(=O)N1Cc2cc([101O:1][101CH2:1]c3cn([100C:0](C)(C)[100C:0](=O)N4CCCC(n5nc(-c6ccc(Oc7ccc(F)cc7F)cc6)c(C(N)=O)c5N)C4)cn3)ccc2CC1C(=O)NC1CCCc2ccccc21)C(C)(C)C

> <Shape>
0.201

> <Color>
0.079

> <Negative vol penalty>
0.000

$$$$

  -OEChem-04052317413D

 80 88  0     1  0  0  0  0  0999 V2000
  -18.4478  -32.5018   20.6104 C   0  0  0  0  0  0  0  0  0  0  0  0
  -19.6978  -32.1711   20.0971 C   0  0  0  0  0  0  0  0  0  0  0  0
  -26.8839  -14.0007   21.4933 C   0  0  0  0  0  0  0  0  0  0  0  0
  -25.1717  -14.0213   19.7888 C   0  0  0  0  0  0  0  0  0  0  0  0
  -18.1143  -32.1429   21.9158 C   0  0  0  0  0  0  0  0  0  0  0  0
  -20.6156  -31.4822   20.8893 C   0  0  0  0  0  0  0  0  0  0  0  0
  -24.6764  -27.2948   19.0236 C   0  0  0  0  0  0  0  0  0  0  0  0
  -26.1380  -13.0819   22.2315 C   0  0  0  0  0  0  0  0  0  0  0  0
  -24.4258  -13.1025   20.5270 C   0  0  0  0  0  0  0  0  0  0  0  0
  -26.0363  -27.3741   18.7265 C   0  0  0  0  0  0  0  0  0  0  0  0
  -22.2381  -10.4881   21.7908 C   0  0  0  0  0  0  0  0  0  0  0  0
  -21.6730   -9.4117   21.1069 C   0  0  0  0  0  0  0  0  0  0  0  0
  -26.5616  -26.6242   20.9583 C   0  0  0  0  0  0  0  0  0  0  0  0
  -23.8746   -8.6937   20.4179 C   0  0  0  0  0  0  0  0  0  0  0  0
  -30.1060  -23.7461   18.2024 C   0  0  0  0  0  0  0  0  0  0  0  0
  -26.4007  -14.4705   20.2719 C   0  0  0  0  0  0  0  0  0  0  0  0
  -28.1415  -15.1364   18.5301 C   0  0  0  0  0  0  0  0  0  0  0  0
  -19.0249  -31.4408   22.7211 C   0  0  0  0  0  0  0  0  0  0  0  0
  -24.2484  -26.8894   20.2960 C   0  0  0  0  0  0  0  0  0  0  0  0
  -20.2945  -31.1148   22.2071 C   0  0  0  0  0  0  0  0  0  0  0  0
  -25.1957  -26.5381   21.2682 C   0  0  0  0  0  0  0  0  0  0  0  0
  -24.9090  -12.6328   21.7484 C   0  0  0  0  0  0  0  0  0  0  0  0
  -26.9791  -27.0416   19.6947 C   0  0  0  0  0  0  0  0  0  0  0  0
  -23.6214  -10.6673   21.7882 C   0  0  0  0  0  0  0  0  0  0  0  0
  -22.4912   -8.5145   20.4205 C   0  0  0  0  0  0  0  0  0  0  0  0
  -24.4396   -9.7701   21.1018 C   0  0  0  0  0  0  0  0  0  0  0  0
  -27.1705  -15.4201   19.5092 C   0  0  0  0  0  0  0  0  0  0  0  0
  -30.3398  -22.9088   19.2658 C   0  0  0  0  0  0  0  0  0  0  0  0
  -30.2620  -25.0407   18.7330 C   0  0  0  0  0  0  0  0  0  0  0  0
  -28.5747  -16.3698   18.1087 C   0  0  0  0  0  0  0  0  0  0  0  0
  -28.6099  -13.8712   18.0449 C   0  0  0  0  0  0  0  0  0  0  0  0
  -30.3144  -21.4414   19.3012 C   0  0  0  0  0  0  0  0  0  0  0  0
  -22.5795  -28.2432   22.6381 C   0  0  0  0  0  0  0  0  0  0  0  0
  -22.7890  -25.2914   23.9667 C   0  0  0  0  0  0  0  0  0  0  0  0
  -24.4553  -22.3205   24.1771 C   0  0  0  0  0  0  0  0  0  0  0  0
  -18.6369  -31.1159   24.1419 C   0  0  0  0  0  0  0  0  0  0  0  0
  -22.7775  -26.7834   20.5922 C   0  0  0  0  0  0  0  0  0  0  0  0
  -24.7877  -26.0775   22.6430 C   0  0  0  0  0  0  0  0  0  0  0  0
  -19.5270  -30.0583   24.7897 C   0  0  0  0  0  0  0  0  0  0  0  0
  -26.7275  -20.9929   18.9849 C   0  0  0  0  0  0  0  0  0  0  0  0
  -20.9981  -30.3660   24.5288 C   0  0  0  0  0  0  0  0  0  0  0  0
  -26.6065  -19.4693   19.0325 C   0  0  0  0  0  0  0  0  0  0  0  0
  -27.8393  -21.4911   19.9032 C   0  0  0  0  0  0  0  0  0  0  0  0
  -29.0542  -19.3490   19.6831 C   0  0  0  0  0  0  0  0  0  0  0  0
  -21.3080  -30.3462   23.0271 C   0  0  1  0  0  0  0  0  0  0  0  0
  -22.4619  -26.8518   22.0832 C   0  0  1  0  0  0  0  0  0  0  0  0
  -27.9617  -18.7939   18.7527 C   0  0  1  0  0  0  0  0  0  0  0  0
  -24.9186  -19.9550   24.8750 C   0  0  0  0  0  0  0  0  0  0  0  0
  -29.8706  -23.7908   22.6784 C   0  0  0  0  0  0  0  0  0  0  0  0
  -32.3324  -23.7339   22.0930 C   0  0  0  0  0  0  0  0  0  0  0  0
  -23.9168  -26.6326   26.4645 C   0  0  0  0  0  0  0  0  0  0  0  0
  -24.7210  -24.3862   27.2228 C   0  0  0  0  0  0  0  0  0  0  0  0
  -22.2798  -24.7965   26.9153 C   0  0  0  0  0  0  0  0  0  0  0  0
  -22.9060  -21.2245   21.9061 C   0  0  0  0  0  0  0  0  0  0  0  0
  -30.1192  -26.3555   18.0055 C   0  0  0  0  0  0  0  0  0  0  0  0
  -28.6927  -26.8922   18.0524 C   0  0  0  0  0  0  0  0  0  1  0  0
  -23.7691  -24.5980   24.8819 C   0  0  1  0  0  0  0  0  0  0  0  0
  -23.9631  -20.8849   24.1436 C   0  0  2  0  0  0  0  0  0  0  0  0
  -30.9225  -23.3104   21.6767 C   0  0  0  0  0  0  0  0  0  0  0  0
  -23.6797  -25.1138   26.3459 C   0  0  0  0  0  0  0  0  0  0  0  0
  -26.9969  -16.7308   19.6987 N   0  0  0  0  0  0  0  0  0  0  0  0
  -30.5710  -25.0317   20.0323 N   0  0  0  0  0  0  0  0  0  0  0  0
  -30.6110  -23.7212   20.3273 N   0  0  0  0  0  0  0  0  0  0  0  0
  -27.8647  -17.2817   18.8330 N   0  0  0  0  0  0  0  0  0  0  0  0
  -29.1050  -20.8101   19.6021 N   0  0  0  0  0  0  0  0  0  0  0  0
  -23.3380  -25.9964   22.8863 N   0  0  0  0  0  0  0  0  0  0  0  0
  -29.4898  -16.7524   17.1930 N   0  0  0  0  0  0  0  0  0  0  0  0
  -28.0580  -12.7021   18.5863 N   0  0  0  0  0  0  0  0  0  0  0  0
  -21.4161  -28.9837   22.5513 N   0  0  0  0  0  0  0  0  0  0  0  0
  -23.5219  -23.1676   24.7362 N   0  0  0  0  0  0  0  0  0  0  0  0
  -23.8347  -20.4141   22.7354 N   0  3  0  0  0  0  0  0  0  0  0  0
  -29.5035  -13.7798   17.1693 O   0  0  0  0  0  0  0  0  0  0  0  0
  -31.3763  -20.8742   19.0486 O   0  0  0  0  0  0  0  0  0  0  0  0
  -23.6464  -28.6167   23.1114 O   0  0  0  0  0  0  0  0  0  0  0  0
  -21.5804  -25.2045   24.1977 O   0  0  0  0  0  0  0  0  0  0  0  0
  -25.5591  -22.6563   23.7534 O   0  0  0  0  0  0  0  0  0  0  0  0
  -24.1809  -11.7360   22.4684 O   0  0  0  0  0  0  0  0  0  0  0  0
  -28.3071  -27.1187   19.4075 O   0  0  0  0  0  0  0  0  0  1  0  0
  -21.9486   -7.4801   19.7650 F   0  0  0  0  0  0  0  0  0  0  0  0
  -25.7694   -9.9364   21.0968 F   0  0  0  0  0  0  0  0  0  0  0  0
  1  2  1  0  0  0  0
  1  5  2  0  0  0  0
  2  6  2  0  0  0  0
  3  8  2  0  0  0  0
  3 16  1  0  0  0  0
  4  9  1  0  0  0  0
  4 16  2  0  0  0  0
  5 18  1  0  0  0  0
  6 20  1  0  0  0  0
  7 10  2  0  0  0  0
  7 19  1  0  0  0  0
  8 22  1  0  0  0  0
  9 22  2  0  0  0  0
 10 23  1  0  0  0  0
 11 12  2  0  0  0  0
 11 24  1  0  0  0  0
 12 25  1  0  0  0  0
 13 21  1  0  0  0  0
 13 23  2  0  0  0  0
 14 25  2  0  0  0  0
 14 26  1  0  0  0  0
 15 28  2  0  0  0  0
 15 29  1  0  0  0  0
 16 27  1  0  0  0  0
 17 27  1  0  0  0  0
 17 30  2  0  0  0  0
 17 31  1  0  0  0  0
 18 20  2  0  0  0  0
 18 36  1  0  0  0  0
 19 21  2  0  0  0  0
 19 37  1  0  0  0  0
 20 45  1  0  0  0  0
 21 38  1  0  0  0  0
 22 77  1  0  0  0  0
 23 78  1  0  0  0  0
 24 26  2  0  0  0  0
 24 77  1  0  0  0  0
 25 79  1  0  0  0  0
 26 80  1  0  0  0  0
 27 61  2  0  0  0  0
 28 32  1  0  0  0  0
 28 63  1  0  0  0  0
 29 55  1  0  0  0  0
 29 62  2  0  0  0  0
 30 64  1  0  0  0  0
 30 67  1  0  0  0  0
 31 68  1  0  0  0  0
 31 72  2  0  0  0  0
 32 65  1  0  0  0  0
 32 73  2  0  0  0  0
 33 46  1  0  0  0  0
 33 69  1  0  0  0  0
 33 74  2  0  0  0  0
 34 57  1  0  0  0  0
 34 66  1  0  0  0  0
 34 75  2  0  0  0  0
 35 58  1  0  0  0  0
 35 70  1  0  0  0  0
 35 76  2  0  0  0  0
 36 39  1  0  0  0  0
 37 46  1  0  0  0  0
 38 66  1  0  0  0  0
 39 41  1  0  0  0  0
 40 42  1  0  0  0  0
 40 43  1  0  0  0  0
 41 45  1  0  0  0  0
 42 47  1  0  0  0  0
 43 65  1  0  0  0  0
 44 47  1  0  0  0  0
 44 65  1  0  0  0  0
 45 69  1  0  0  0  0
 46 66  1  0  0  0  0
 47 64  1  0  0  0  0
 48 58  1  0  0  0  0
 49 59  1  0  0  0  0
 50 59  1  0  0  0  0
 51 60  1  0  0  0  0
 52 60  1  0  0  0  0
 53 60  1  0  0  0  0
 54 71  1  0  0  0  0
 55 56  1  0  0  0  0
 56 78  1  0  0  0  0
 57 60  1  0  0  0  0
 57 70  1  0  0  0  0
 58 71  1  0  0  0  0
 59 63  1  0  0  0  0
 61 64  1  0  0  0  0
 62 63  1  0  0  0  0
M  CHG  1  71   1
M  ISO  4  28 100  32 100  56 101  78 101
M  END
> <Batch ID>
0054

> <Smiles>
CNC(C)C(=O)NC(C(=O)N1Cc2cc([101O:1][101CH2:1]Cc3c[100c:0]([100C:0](=O)N4CCCC(n5nc(-c6ccc(Oc7ccc(F)cc7F)cc6)c(C(N)=O)c5N)C4)n(C(C)C)n3)ccc2CC1C(=O)NC1CCCc2ccccc21)C(C)(C)C

> <Shape>
0.219

> <Color>
0.085

> <Negative vol penalty>
0.000

$$$$

  -OEChem-04052317413D

 86 94  0     1  0  0  0  0  0999 V2000
  -28.3111  -37.8841   22.9327 C   0  0  0  0  0  0  0  0  0  0  0  0
  -28.7541  -36.6929   22.3668 C   0  0  0  0  0  0  0  0  0  0  0  0
  -26.0943  -12.4004   21.6158 C   0  0  0  0  0  0  0  0  0  0  0  0
  -25.3276  -13.0926   19.4317 C   0  0  0  0  0  0  0  0  0  0  0  0
  -27.3385  -37.8607   23.9314 C   0  0  0  0  0  0  0  0  0  0  0  0
  -28.2255  -35.4775   22.8001 C   0  0  0  0  0  0  0  0  0  0  0  0
  -27.2073  -30.4852   19.4021 C   0  0  0  0  0  0  0  0  0  0  0  0
  -25.1058  -11.4169   21.6511 C   0  0  0  0  0  0  0  0  0  0  0  0
  -24.3392  -12.1090   19.4670 C   0  0  0  0  0  0  0  0  0  0  0  0
  -27.9381  -29.3126   19.2153 C   0  0  0  0  0  0  0  0  0  0  0  0
  -21.7870  -11.2425   22.2668 C   0  0  0  0  0  0  0  0  0  0  0  0
  -21.0543  -11.1031   23.4455 C   0  0  0  0  0  0  0  0  0  0  0  0
  -26.6001  -28.2180   20.8979 C   0  0  0  0  0  0  0  0  0  0  0  0
  -21.8202   -8.8211   23.6518 C   0  0  0  0  0  0  0  0  0  0  0  0
  -26.2051  -13.2383   20.5061 C   0  0  0  0  0  0  0  0  0  0  0  0
  -28.5352  -14.1270   19.9689 C   0  0  0  0  0  0  0  0  0  0  0  0
  -26.7907  -36.6450   24.3703 C   0  0  0  0  0  0  0  0  0  0  0  0
  -26.1729  -30.5363   20.3475 C   0  0  0  0  0  0  0  0  0  0  0  0
  -27.2456  -35.4377   23.8065 C   0  0  0  0  0  0  0  0  0  0  0  0
  -25.8561  -29.3917   21.0929 C   0  0  0  0  0  0  0  0  0  0  0  0
  -24.2283  -11.2711   20.5767 C   0  0  0  0  0  0  0  0  0  0  0  0
  -27.6364  -28.1797   19.9653 C   0  0  0  0  0  0  0  0  0  0  0  0
  -22.5363  -10.1711   21.7806 C   0  0  0  0  0  0  0  0  0  0  0  0
  -21.0709   -9.8924   24.1380 C   0  0  0  0  0  0  0  0  0  0  0  0
  -22.5529   -8.9604   22.4731 C   0  0  0  0  0  0  0  0  0  0  0  0
  -27.2256  -14.2548   20.4694 C   0  0  0  0  0  0  0  0  0  0  0  0
  -31.2579  -23.9648   19.2583 C   0  0  0  0  0  0  0  0  0  0  0  0
  -30.7271  -23.5014   18.0727 C   0  0  0  0  0  0  0  0  0  0  0  0
  -29.0990  -15.3645   20.1623 C   0  0  0  0  0  0  0  0  0  0  0  0
  -30.0334  -25.7092   18.7411 C   0  0  0  0  0  0  0  0  0  0  0  0
  -29.1840  -12.9913   19.3817 C   0  0  0  0  0  0  0  0  0  0  0  0
  -25.6317  -32.2153   22.9917 C   0  0  0  0  0  0  0  0  0  0  0  0
  -22.7497  -30.7309   22.8775 C   0  0  0  0  0  0  0  0  0  0  0  0
  -20.9008  -28.0720   21.8010 C   0  0  0  0  0  0  0  0  0  0  0  0
  -28.3895  -20.9755   19.5880 C   0  0  0  0  0  0  0  0  0  0  0  0
  -25.7757  -36.6669   25.4857 C   0  0  0  0  0  0  0  0  0  0  0  0
  -25.3766  -31.8009   20.5180 C   0  0  0  0  0  0  0  0  0  0  0  0
  -24.7418  -29.3886   22.1062 C   0  0  0  0  0  0  0  0  0  0  0  0
  -24.9957  -35.3621   25.6251 C   0  0  0  0  0  0  0  0  0  0  0  0
  -27.4884  -19.3609   22.7946 C   0  0  0  0  0  0  0  0  0  0  0  0
  -25.9419  -34.1666   25.5759 C   0  0  0  0  0  0  0  0  0  0  0  0
  -27.3802  -17.8872   22.4067 C   0  0  0  0  0  0  0  0  0  0  0  0
  -27.1722  -20.2814   21.6197 C   0  0  0  0  0  0  0  0  0  0  0  0
  -27.8804  -18.5364   20.0173 C   0  0  0  0  0  0  0  0  0  0  0  0
  -26.6784  -34.1009   24.2324 C   0  0  1  0  0  0  0  0  0  0  0  0
  -24.6820  -31.8915   21.8732 C   0  0  1  0  0  0  0  0  0  0  0  0
  -28.2382  -17.5820   21.1665 C   0  0  2  0  0  0  0  0  0  0  0  0
  -32.1997  -23.2360   20.1325 C   0  0  0  0  0  0  0  0  0  0  0  0
  -18.5821  -27.1172   21.8967 C   0  0  0  0  0  0  0  0  0  0  0  0
  -23.2465  -29.8180   25.7463 C   0  0  0  0  0  0  0  0  0  0  0  0
  -21.4159  -28.1352   25.4540 C   0  0  0  0  0  0  0  0  0  0  0  0
  -20.9075  -30.5713   25.2816 C   0  0  0  0  0  0  0  0  0  0  0  0
  -28.4975  -21.6870   16.9389 C   0  0  0  0  0  0  0  0  0  0  0  0
  -30.6444  -19.9799   19.5253 C   0  0  0  0  0  0  0  0  0  0  0  0
  -20.5952  -28.2159   18.8608 C   0  0  0  0  0  0  0  0  0  0  0  0
  -30.9345  -22.2162   17.3755 C   0  0  0  0  0  0  0  0  0  0  0  0
  -29.3911  -27.0634   18.8115 C   0  0  0  0  0  0  0  0  0  1  0  0
  -22.1906  -29.4382   23.4210 C   0  0  1  0  0  0  0  0  0  0  0  0
  -19.5474  -27.9969   21.1176 C   0  0  2  0  0  0  0  0  0  0  0  0
  -21.9625  -29.4910   24.9581 C   0  0  0  0  0  0  0  0  0  0  0  0
  -29.8155  -21.1238   17.5029 C   0  0  2  0  0  0  0  0  0  0  0  0
  -30.1690  -19.8465   16.7341 C   0  0  0  0  0  0  0  0  0  0  0  0
  -26.9724  -15.4770   20.9450 N   0  0  0  0  0  0  0  0  0  0  0  0
  -30.8615  -25.2308   19.6429 N   0  0  0  0  0  0  0  0  0  0  0  0
  -28.1306  -16.1284   20.7444 N   0  0  0  0  0  0  0  0  0  0  0  0
  -23.9963  -30.6510   22.2409 N   0  0  0  0  0  0  0  0  0  0  0  0
  -27.9705  -19.9416   20.4414 N   0  0  0  0  0  0  0  0  0  0  0  0
  -30.3236  -15.8627   19.8895 N   0  0  0  0  0  0  0  0  0  0  0  0
  -28.4598  -11.7977   19.2585 N   0  0  0  0  0  0  0  0  0  0  0  0
  -25.8090  -33.5690   23.2050 N   0  0  0  0  0  0  0  0  0  0  0  0
  -20.9861  -29.1572   22.6474 N   0  0  0  0  0  0  0  0  0  0  0  0
  -29.6046  -20.7928   18.9105 N   0  0  0  0  0  0  0  0  0  0  0  0
  -19.6910  -27.4358   19.7444 N   0  3  0  0  0  0  0  0  0  0  0  0
  -30.3762  -13.0289   18.9932 O   0  0  0  0  0  0  0  0  0  0  0  0
  -26.1630  -31.3044   23.6159 O   0  0  0  0  0  0  0  0  0  0  0  0
  -22.1007  -31.7720   23.0066 O   0  0  0  0  0  0  0  0  0  0  0  0
  -21.7919  -27.2482   21.6065 O   0  0  0  0  0  0  0  0  0  0  0  0
  -27.7206  -22.0074   19.4473 O   0  0  0  0  0  0  0  0  0  0  0  0
  -23.2638  -10.3114   20.6107 O   0  0  0  0  0  0  0  0  0  0  0  0
  -28.3485  -27.0340   19.7855 O   0  0  0  0  0  0  0  0  0  1  0  0
  -20.3684   -9.7592   25.2707 F   0  0  0  0  0  0  0  0  0  0  0  0
  -23.2718   -7.9280   22.0115 F   0  0  0  0  0  0  0  0  0  0  0  0
  -30.3252  -20.0942   15.4143 F   0  0  0  0  0  0  0  0  0  0  0  0
  -29.1942  -18.9154   16.8568 F   0  0  0  0  0  0  0  0  0  0  0  0
  -31.3119  -19.2825   17.1818 F   0  0  0  0  0  0  0  0  0  0  0  0
  -29.6867  -24.6900   17.4047 S   0  0  0  0  0  0  0  0  0  0  0  0
  1  2  1  0  0  0  0
  1  5  2  0  0  0  0
  2  6  2  0  0  0  0
  3  8  2  0  0  0  0
  3 15  1  0  0  0  0
  4  9  1  0  0  0  0
  4 15  2  0  0  0  0
  5 17  1  0  0  0  0
  6 19  1  0  0  0  0
  7 10  2  0  0  0  0
  7 18  1  0  0  0  0
  8 21  1  0  0  0  0
  9 21  2  0  0  0  0
 10 22  1  0  0  0  0
 11 12  2  0  0  0  0
 11 23  1  0  0  0  0
 12 24  1  0  0  0  0
 13 20  1  0  0  0  0
 13 22  2  0  0  0  0
 14 24  2  0  0  0  0
 14 25  1  0  0  0  0
 15 26  1  0  0  0  0
 16 26  1  0  0  0  0
 16 29  2  0  0  0  0
 16 31  1  0  0  0  0
 17 19  2  0  0  0  0
 17 36  1  0  0  0  0
 18 20  2  0  0  0  0
 18 37  1  0  0  0  0
 19 45  1  0  0  0  0
 20 38  1  0  0  0  0
 21 79  1  0  0  0  0
 22 80  1  0  0  0  0
 23 25  2  0  0  0  0
 23 79  1  0  0  0  0
 24 81  1  0  0  0  0
 25 82  1  0  0  0  0
 26 63  2  0  0  0  0
 27 28  2  0  0  0  0
 27 48  1  0  0  0  0
 27 64  1  0  0  0  0
 28 56  1  0  0  0  0
 28 86  1  0  0  0  0
 29 65  1  0  0  0  0
 29 68  1  0  0  0  0
 30 57  1  0  0  0  0
 30 64  2  0  0  0  0
 30 86  1  0  0  0  0
 31 69  1  0  0  0  0
 31 74  2  0  0  0  0
 32 46  1  0  0  0  0
 32 70  1  0  0  0  0
 32 75  2  0  0  0  0
 33 58  1  0  0  0  0
 33 66  1  0  0  0  0
 33 76  2  0  0  0  0
 34 59  1  0  0  0  0
 34 71  1  0  0  0  0
 34 77  2  0  0  0  0
 35 67  1  0  0  0  0
 35 72  1  0  0  0  0
 35 78  2  0  0  0  0
 36 39  1  0  0  0  0
 37 46  1  0  0  0  0
 38 66  1  0  0  0  0
 39 41  1  0  0  0  0
 40 42  1  0  0  0  0
 40 43  1  0  0  0  0
 41 45  1  0  0  0  0
 42 47  1  0  0  0  0
 43 67  1  0  0  0  0
 44 47  1  0  0  0  0
 44 67  1  0  0  0  0
 45 70  1  0  0  0  0
 46 66  1  0  0  0  0
 47 65  1  0  0  0  0
 49 59  1  0  0  0  0
 50 60  1  0  0  0  0
 51 60  1  0  0  0  0
 52 60  1  0  0  0  0
 53 61  1  0  0  0  0
 54 72  1  0  0  0  0
 55 73  1  0  0  0  0
 56 61  1  0  0  0  0
 57 80  1  0  0  0  0
 58 60  1  0  0  0  0
 58 71  1  0  0  0  0
 59 73  1  0  0  0  0
 61 62  1  0  0  0  0
 61 72  1  0  0  0  0
 62 83  1  0  0  0  0
 62 84  1  0  0  0  0
 62 85  1  0  0  0  0
 63 65  1  0  0  0  0
M  CHG  1  73   1
M  ISO  4  35 100  57 101  72 100  80 101
M  END
> <Batch ID>
0054

> <Smiles>
CNC(C)C(=O)NC(C(=O)N1Cc2cc([101O:1][101CH2:1]c3nc(C)c(CC(C)([100N:0](C)[100C:0](=O)N4CCCC(n5nc(-c6ccc(Oc7ccc(F)cc7F)cc6)c(C(N)=O)c5N)C4)C(F)(F)F)s3)ccc2CC1C(=O)NC1CCCc2ccccc21)C(C)(C)C

> <Shape>
0.338

> <Color>
0.095

> <Negative vol penalty>
0.000

$$$$

  -OEChem-04052317413D

 85 93  0     1  0  0  0  0  0999 V2000
  -17.5723  -32.6892   22.0095 C   0  0  0  0  0  0  0  0  0  0  0  0
  -18.7325  -32.6974   21.2419 C   0  0  0  0  0  0  0  0  0  0  0  0
  -27.2842  -18.0991   21.5988 C   0  0  0  0  0  0  0  0  0  0  0  0
  -28.0712  -17.1013   19.5441 C   0  0  0  0  0  0  0  0  0  0  0  0
  -17.5430  -31.9966   23.2192 C   0  0  0  0  0  0  0  0  0  0  0  0
  -19.8646  -32.0139   21.6842 C   0  0  0  0  0  0  0  0  0  0  0  0
  -25.5028  -28.3575   19.2028 C   0  0  0  0  0  0  0  0  0  0  0  0
  -26.2661  -17.1484   21.6706 C   0  0  0  0  0  0  0  0  0  0  0  0
  -27.0532  -16.1505   19.6159 C   0  0  0  0  0  0  0  0  0  0  0  0
  -26.8927  -28.3207   19.3057 C   0  0  0  0  0  0  0  0  0  0  0  0
  -26.4385  -13.2838   21.2966 C   0  0  0  0  0  0  0  0  0  0  0  0
  -26.7767  -11.9542   21.0451 C   0  0  0  0  0  0  0  0  0  0  0  0
  -26.7011  -27.0929   21.3733 C   0  0  0  0  0  0  0  0  0  0  0  0
  -25.2211  -11.9082   19.1970 C   0  0  0  0  0  0  0  0  0  0  0  0
  -33.5541  -27.2595   21.4794 C   0  0  0  0  0  0  0  0  0  0  0  0
  -28.1868  -18.0756   20.5355 C   0  0  0  0  0  0  0  0  0  0  0  0
  -30.5333  -18.9600   21.0038 C   0  0  0  0  0  0  0  0  0  0  0  0
  -18.6722  -31.2962   23.6719 C   0  0  0  0  0  0  0  0  0  0  0  0
  -24.7001  -27.7707   20.1916 C   0  0  0  0  0  0  0  0  0  0  0  0
  -19.8508  -31.3124   22.9017 C   0  0  0  0  0  0  0  0  0  0  0  0
  -25.3013  -27.1213   21.2793 C   0  0  0  0  0  0  0  0  0  0  0  0
  -26.1506  -16.1740   20.6792 C   0  0  0  0  0  0  0  0  0  0  0  0
  -27.4921  -27.6909   20.3925 C   0  0  0  0  0  0  0  0  0  0  0  0
  -25.4915  -13.9256   20.4985 C   0  0  0  0  0  0  0  0  0  0  0  0
  -26.1680  -11.2664   19.9953 C   0  0  0  0  0  0  0  0  0  0  0  0
  -24.8829  -13.2378   19.4487 C   0  0  0  0  0  0  0  0  0  0  0  0
  -29.2383  -19.0578   20.4605 C   0  0  0  0  0  0  0  0  0  0  0  0
  -32.7578  -28.0551   20.6855 C   0  0  0  0  0  0  0  0  0  0  0  0
  -31.6886  -26.2876   22.3765 C   0  0  0  0  0  0  0  0  0  0  0  0
  -30.8922  -27.0838   21.5832 C   0  0  0  0  0  0  0  0  0  0  0  0
  -31.1400  -20.1434   20.6605 C   0  0  0  0  0  0  0  0  0  0  0  0
  -31.1341  -17.8945   21.7519 C   0  0  0  0  0  0  0  0  0  0  0  0
  -22.5205  -28.8449   22.2408 C   0  0  0  0  0  0  0  0  0  0  0  0
  -22.1415  -25.6893   22.8896 C   0  0  0  0  0  0  0  0  0  0  0  0
  -23.4753  -22.5480   22.8757 C   0  0  0  0  0  0  0  0  0  0  0  0
  -32.3384  -23.9690   16.9355 C   0  0  0  0  0  0  0  0  0  0  0  0
  -18.6076  -30.6013   25.0089 C   0  0  0  0  0  0  0  0  0  0  0  0
  -23.2027  -27.7956   20.0522 C   0  0  0  0  0  0  0  0  0  0  0  0
  -24.4847  -26.4585   22.3573 C   0  0  0  0  0  0  0  0  0  0  0  0
  -19.7317  -29.5914   25.2253 C   0  0  0  0  0  0  0  0  0  0  0  0
  -29.2085  -24.3895   18.7031 C   0  0  0  0  0  0  0  0  0  0  0  0
  -21.0747  -30.1933   24.8241 C   0  0  0  0  0  0  0  0  0  0  0  0
  -29.0472  -23.0202   19.3659 C   0  0  0  0  0  0  0  0  0  0  0  0
  -29.8149  -24.2608   17.3089 C   0  0  0  0  0  0  0  0  0  0  0  0
  -30.9572  -22.1670   17.9293 C   0  0  0  0  0  0  0  0  0  0  0  0
  -21.0914  -30.5622   23.3358 C   0  0  1  0  0  0  0  0  0  0  0  0
  -22.4758  -27.6134   21.3811 C   0  0  1  0  0  0  0  0  0  0  0  0
  -30.3698  -22.2311   19.3509 C   0  0  2  0  0  0  0  0  0  0  0  0
  -31.1004  -25.2982   23.3237 C   0  0  0  0  0  0  0  0  0  0  0  0
  -22.9399  -20.1778   23.5022 C   0  0  0  0  0  0  0  0  0  0  0  0
  -22.5877  -26.3685   25.8306 C   0  0  0  0  0  0  0  0  0  0  0  0
  -22.9881  -23.9347   26.2600 C   0  0  0  0  0  0  0  0  0  0  0  0
  -20.7721  -24.7012   25.4088 C   0  0  0  0  0  0  0  0  0  0  0  0
  -23.7707  -21.6201   20.0809 C   0  0  0  0  0  0  0  0  0  0  0  0
  -35.2684  -29.3772   18.1743 C   0  0  0  0  0  0  0  0  0  0  0  0
  -33.3676  -29.0359   19.7463 C   0  0  0  0  0  0  0  0  0  0  0  0
  -29.3954  -26.9922   21.6355 C   0  0  0  0  0  0  0  0  0  1  0  0
  -34.3280  -26.6248   17.0234 C   0  0  0  0  0  0  0  0  0  0  0  0
  -33.5902  -25.8605   15.9294 C   0  0  0  0  0  0  0  0  0  0  0  0
  -33.4775  -27.7363   17.6250 C   0  0  0  0  0  0  0  0  0  0  0  0
  -22.7678  -24.7139   23.8568 C   0  0  1  0  0  0  0  0  0  0  0  0
  -22.9195  -21.2198   22.3948 C   0  0  2  0  0  0  0  0  0  0  0  0
  -22.2946  -24.9436   25.3199 C   0  0  0  0  0  0  0  0  0  0  0  0
  -33.0337  -26.3613   22.3391 N   0  0  0  0  0  0  0  0  0  0  0  0
  -29.0334  -20.2123   19.8208 N   0  0  0  0  0  0  0  0  0  0  0  0
  -31.4125  -27.9816   20.7232 N   0  0  0  0  0  0  0  0  0  0  0  0
  -30.2077  -20.8507   19.9600 N   0  0  0  0  0  0  0  0  0  0  0  0
  -23.0243  -26.5152   22.1794 N   0  0  0  0  0  0  0  0  0  0  0  0
  -31.0806  -23.5160   17.3670 N   0  0  0  0  0  0  0  0  0  0  0  0
  -32.3747  -20.6376   20.8926 N   0  0  0  0  0  0  0  0  0  0  0  0
  -30.3698  -16.7498   22.0159 N   0  0  0  0  0  0  0  0  0  0  0  0
  -21.2778  -29.3789   22.5238 N   0  0  0  0  0  0  0  0  0  0  0  0
  -22.4788  -23.3816   23.3375 N   0  0  0  0  0  0  0  0  0  0  0  0
  -32.3681  -25.2546   16.4093 N   0  0  0  0  0  0  0  0  0  0  0  0
  -23.7239  -20.7054   21.2505 N   0  3  0  0  0  0  0  0  0  0  0  0
  -34.2550  -28.4088   18.7264 N   0  3  1  0  0  0  0  0  0  0  0  0
  -32.3084  -17.9627   22.1877 O   0  0  0  0  0  0  0  0  0  0  0  0
  -23.6023  -29.2776   22.6206 O   0  0  0  0  0  0  0  0  0  0  0  0
  -20.9147  -25.7124   22.7635 O   0  0  0  0  0  0  0  0  0  0  0  0
  -24.6741  -22.8176   22.8481 O   0  0  0  0  0  0  0  0  0  0  0  0
  -33.3612  -23.2803   17.0181 O   0  0  0  0  0  0  0  0  0  0  0  0
  -25.1574  -15.2460   20.7490 O   0  0  0  0  0  0  0  0  0  0  0  0
  -28.8485  -27.6542   20.4957 O   0  0  0  0  0  0  0  0  0  1  0  0
  -26.4940   -9.9900   19.7528 F   0  0  0  0  0  0  0  0  0  0  0  0
  -23.9733  -13.8495   18.6777 F   0  0  0  0  0  0  0  0  0  0  0  0
  1  2  1  0  0  0  0
  1  5  2  0  0  0  0
  2  6  2  0  0  0  0
  3  8  2  0  0  0  0
  3 16  1  0  0  0  0
  4  9  1  0  0  0  0
  4 16  2  0  0  0  0
  5 18  1  0  0  0  0
  6 20  1  0  0  0  0
  7 10  2  0  0  0  0
  7 19  1  0  0  0  0
  8 22  1  0  0  0  0
  9 22  2  0  0  0  0
 10 23  1  0  0  0  0
 11 12  2  0  0  0  0
 11 24  1  0  0  0  0
 12 25  1  0  0  0  0
 13 21  1  0  0  0  0
 13 23  2  0  0  0  0
 14 25  2  0  0  0  0
 14 26  1  0  0  0  0
 15 28  1  0  0  0  0
 15 64  2  0  0  0  0
 16 27  1  0  0  0  0
 17 27  1  0  0  0  0
 17 31  2  0  0  0  0
 17 32  1  0  0  0  0
 18 20  2  0  0  0  0
 18 37  1  0  0  0  0
 19 21  2  0  0  0  0
 19 38  1  0  0  0  0
 20 46  1  0  0  0  0
 21 39  1  0  0  0  0
 22 82  1  0  0  0  0
 23 83  1  0  0  0  0
 24 26  2  0  0  0  0
 24 82  1  0  0  0  0
 25 84  1  0  0  0  0
 26 85  1  0  0  0  0
 27 65  2  0  0  0  0
 28 56  1  0  0  0  0
 28 66  2  0  0  0  0
 29 30  2  0  0  0  0
 29 49  1  0  0  0  0
 29 64  1  0  0  0  0
 30 57  1  0  0  0  0
 30 66  1  0  0  0  0
 31 67  1  0  0  0  0
 31 70  1  0  0  0  0
 32 71  1  0  0  0  0
 32 77  2  0  0  0  0
 33 47  1  0  0  0  0
 33 72  1  0  0  0  0
 33 78  2  0  0  0  0
 34 61  1  0  0  0  0
 34 68  1  0  0  0  0
 34 79  2  0  0  0  0
 35 62  1  0  0  0  0
 35 73  1  0  0  0  0
 35 80  2  0  0  0  0
 36 69  1  0  0  0  0
 36 74  1  0  0  0  0
 36 81  2  0  0  0  0
 37 40  1  0  0  0  0
 38 47  1  0  0  0  0
 39 68  1  0  0  0  0
 40 42  1  0  0  0  0
 41 43  1  0  0  0  0
 41 44  1  0  0  0  0
 42 46  1  0  0  0  0
 43 48  1  0  0  0  0
 44 69  1  0  0  0  0
 45 48  1  0  0  0  0
 45 69  1  0  0  0  0
 46 72  1  0  0  0  0
 47 68  1  0  0  0  0
 48 67  1  0  0  0  0
 50 62  1  0  0  0  0
 51 63  1  0  0  0  0
 52 63  1  0  0  0  0
 53 63  1  0  0  0  0
 54 75  1  0  0  0  0
 55 76  1  0  0  0  0
 56 76  1  0  0  0  0
 57 83  1  0  0  0  0
 58 59  1  0  0  0  0
 58 60  1  0  0  0  0
 59 74  1  0  0  0  0
 60 76  1  0  0  0  0
 61 63  1  0  0  0  0
 61 73  1  0  0  0  0
 62 75  1  0  0  0  0
 65 67  1  0  0  0  0
M  CHG  2  75   1  76   1
M  ISO  4  36 100  57 101  74 100  83 101
M  END
> <Batch ID>
0054

> <Smiles>
CNC(C)C(=O)NC(C(=O)N1Cc2cc([101O:1][101CH2:1]c3nc(CN(C)CCC[100NH:0][100C:0](=O)N4CCCC(n5nc(-c6ccc(Oc7ccc(F)cc7F)cc6)c(C(N)=O)c5N)C4)cnc3C)ccc2CC1C(=O)NC1CCCc2ccccc21)C(C)(C)C

> <Shape>
0.201

> <Color>
0.089

> <Negative vol penalty>
0.000

$$$$

  -OEChem-04052317413D

 86 94  0     1  0  0  0  0  0999 V2000
  -37.3754  -26.0323   13.0780 C   0  0  0  0  0  0  0  0  0  0  0  0
  -37.8073  -25.0787   13.9943 C   0  0  0  0  0  0  0  0  0  0  0  0
  -23.1972   -9.8545   19.9390 C   0  0  0  0  0  0  0  0  0  0  0  0
  -23.8899   -9.9204   22.2526 C   0  0  0  0  0  0  0  0  0  0  0  0
  -36.3689  -26.9304   13.4304 C   0  0  0  0  0  0  0  0  0  0  0  0
  -37.2335  -25.0233   15.2640 C   0  0  0  0  0  0  0  0  0  0  0  0
  -36.2064  -20.0074   18.6243 C   0  0  0  0  0  0  0  0  0  0  0  0
  -22.4956   -8.6739   20.1826 C   0  0  0  0  0  0  0  0  0  0  0  0
  -23.1883   -8.7398   22.4963 C   0  0  0  0  0  0  0  0  0  0  0  0
  -36.9132  -19.4197   19.6725 C   0  0  0  0  0  0  0  0  0  0  0  0
  -20.2251   -5.8366   20.2788 C   0  0  0  0  0  0  0  0  0  0  0  0
  -18.9371   -5.7276   19.7545 C   0  0  0  0  0  0  0  0  0  0  0  0
  -35.4911  -20.5521   21.2583 C   0  0  0  0  0  0  0  0  0  0  0  0
  -18.2531   -7.6600   21.0332 C   0  0  0  0  0  0  0  0  0  0  0  0
  -23.8945  -10.4778   20.9739 C   0  0  0  0  0  0  0  0  0  0  0  0
  -24.1331  -13.0136   20.8312 C   0  0  0  0  0  0  0  0  0  0  0  0
  -35.7757  -26.8798   14.7018 C   0  0  0  0  0  0  0  0  0  0  0  0
  -35.1418  -20.8819   18.8857 C   0  0  0  0  0  0  0  0  0  0  0  0
  -36.2190  -25.9224   15.6342 C   0  0  0  0  0  0  0  0  0  0  0  0
  -34.7708  -21.1476   20.2116 C   0  0  0  0  0  0  0  0  0  0  0  0
  -22.4911   -8.1165   21.4613 C   0  0  0  0  0  0  0  0  0  0  0  0
  -36.5575  -19.6942   20.9897 C   0  0  0  0  0  0  0  0  0  0  0  0
  -20.5270   -6.8572   21.1804 C   0  0  0  0  0  0  0  0  0  0  0  0
  -17.9511   -6.6393   20.1317 C   0  0  0  0  0  0  0  0  0  0  0  0
  -19.5410   -7.7689   21.5575 C   0  0  0  0  0  0  0  0  0  0  0  0
  -24.6199  -11.6971   20.7227 C   0  0  0  0  0  0  0  0  0  0  0  0
  -25.2028  -13.8044   20.4893 C   0  0  0  0  0  0  0  0  0  0  0  0
  -33.3097  -15.8923   24.4259 C   0  0  0  0  0  0  0  0  0  0  0  0
  -33.8975  -17.4576   25.6755 C   0  0  0  0  0  0  0  0  0  0  0  0
  -22.8306  -13.4799   21.2074 C   0  0  0  0  0  0  0  0  0  0  0  0
  -34.5529  -23.9450   18.2736 C   0  0  0  0  0  0  0  0  0  0  0  0
  -31.6399  -23.2286   19.5079 C   0  0  0  0  0  0  0  0  0  0  0  0
  -29.7624  -21.2095   21.5191 C   0  0  0  0  0  0  0  0  0  0  0  0
  -30.8696  -14.1320   20.9337 C   0  0  0  0  0  0  0  0  0  0  0  0
  -34.7241  -27.9020   15.0534 C   0  0  0  0  0  0  0  0  0  0  0  0
  -34.3724  -21.4868   17.7436 C   0  0  0  0  0  0  0  0  0  0  0  0
  -33.6227  -22.0634   20.5454 C   0  0  0  0  0  0  0  0  0  0  0  0
  -33.9070  -27.5349   16.2895 C   0  0  0  0  0  0  0  0  0  0  0  0
  -29.3876  -13.1244   17.9648 C   0  0  0  0  0  0  0  0  0  0  0  0
  -34.8238  -27.0715   17.4171 C   0  0  0  0  0  0  0  0  0  0  0  0
  -27.9556  -12.7759   18.3686 C   0  0  0  0  0  0  0  0  0  0  0  0
  -30.3815  -12.6451   19.0160 C   0  0  0  0  0  0  0  0  0  0  0  0
  -28.6851  -12.8447   20.8058 C   0  0  0  0  0  0  0  0  0  0  0  0
  -35.6039  -25.8148   17.0127 C   0  0  1  0  0  0  0  0  0  0  0  0
  -33.6343  -22.7646   18.1307 C   0  0  1  0  0  0  0  0  0  0  0  0
  -27.6347  -13.3089   19.7760 C   0  0  2  0  0  0  0  0  0  0  0  0
  -34.4604  -18.1719   28.0120 C   0  0  0  0  0  0  0  0  0  0  0  0
  -27.0613  -13.8425   23.7202 C   0  0  0  0  0  0  0  0  0  0  0  0
  -27.4183  -20.8954   22.3582 C   0  0  0  0  0  0  0  0  0  0  0  0
  -32.0149  -25.5722   21.4256 C   0  0  0  0  0  0  0  0  0  0  0  0
  -30.1534  -24.6411   22.8170 C   0  0  0  0  0  0  0  0  0  0  0  0
  -29.7130  -25.3638   20.4704 C   0  0  0  0  0  0  0  0  0  0  0  0
  -29.5614  -18.5214   20.2972 C   0  0  0  0  0  0  0  0  0  0  0  0
  -32.4440  -14.9373   23.7241 C   0  0  0  0  0  0  0  0  0  0  0  0
  -33.9820  -18.5890   26.6164 C   0  0  0  0  0  0  0  0  0  0  0  0
  -28.1041  -14.4905   22.8202 C   0  0  0  0  0  0  0  0  0  0  0  0
  -37.1196  -17.6460   23.9017 C   0  0  0  0  0  0  0  0  0  0  0  0
  -36.4353  -17.2954   25.2248 C   0  0  0  0  0  0  0  0  0  0  0  0
  -31.3392  -15.5889   22.8662 C   0  0  0  0  0  0  0  0  0  0  0  0
  -29.5078  -13.9470   23.0588 C   0  0  0  0  0  0  0  0  0  0  0  0
  -36.5269  -18.8749   23.2222 C   0  0  0  0  0  0  0  0  0  1  0  0
  -31.0301  -23.2467   20.8888 C   0  0  1  0  0  0  0  0  0  0  0  0
  -28.4317  -20.5158   21.2897 C   0  0  2  0  0  0  0  0  0  0  0  0
  -30.7508  -24.6902   21.3945 C   0  0  0  0  0  0  0  0  0  0  0  0
  -25.8992  -11.6501   20.3416 N   0  0  0  0  0  0  0  0  0  0  0  0
  -32.8122  -16.8322   25.2824 N   0  0  0  0  0  0  0  0  0  0  0  0
  -34.6346  -15.8966   24.2643 N   0  0  0  0  0  0  0  0  0  0  0  0
  -26.2253  -12.9469   20.2075 N   0  0  0  0  0  0  0  0  0  0  0  0
  -34.9861  -16.9069   25.0743 N   0  0  0  0  0  0  0  0  0  0  0  0
  -32.9052  -22.6355   19.3941 N   0  0  0  0  0  0  0  0  0  0  0  0
  -30.0433  -13.1658   20.3409 N   0  0  0  0  0  0  0  0  0  0  0  0
  -25.3591  -15.1426   20.4051 N   0  0  0  0  0  0  0  0  0  0  0  0
  -21.8485  -12.5327   21.5276 N   0  0  0  0  0  0  0  0  0  0  0  0
  -34.7571  -24.6444   17.0995 N   0  0  0  0  0  0  0  0  0  0  0  0
  -29.8460  -22.3969   20.8232 N   0  0  0  0  0  0  0  0  0  0  0  0
  -30.5062  -14.5923   22.2082 N   0  0  0  0  0  0  0  0  0  0  0  0
  -28.6080  -19.0362   21.3136 N   0  3  0  0  0  0  0  0  0  0  0  0
  -22.5413  -14.7000   21.2422 O   0  0  0  0  0  0  0  0  0  0  0  0
  -35.0393  -24.2030   19.3684 O   0  0  0  0  0  0  0  0  0  0  0  0
  -31.0135  -23.7163   18.5638 O   0  0  0  0  0  0  0  0  0  0  0  0
  -30.6384  -20.7462   22.2460 O   0  0  0  0  0  0  0  0  0  0  0  0
  -31.8814  -14.5555   20.3599 O   0  0  0  0  0  0  0  0  0  0  0  0
  -21.8064   -6.9646   21.6995 O   0  0  0  0  0  0  0  0  0  0  0  0
  -37.2461  -19.1224   22.0148 O   0  0  0  0  0  0  0  0  0  1  0  0
  -16.7148   -6.5354   19.6269 F   0  0  0  0  0  0  0  0  0  0  0  0
  -19.8255   -8.7523   22.4224 F   0  0  0  0  0  0  0  0  0  0  0  0
  1  2  1  0  0  0  0
  1  5  2  0  0  0  0
  2  6  2  0  0  0  0
  3  8  2  0  0  0  0
  3 15  1  0  0  0  0
  4  9  1  0  0  0  0
  4 15  2  0  0  0  0
  5 17  1  0  0  0  0
  6 19  1  0  0  0  0
  7 10  2  0  0  0  0
  7 18  1  0  0  0  0
  8 21  1  0  0  0  0
  9 21  2  0  0  0  0
 10 22  1  0  0  0  0
 11 12  2  0  0  0  0
 11 23  1  0  0  0  0
 12 24  1  0  0  0  0
 13 20  1  0  0  0  0
 13 22  2  0  0  0  0
 14 24  2  0  0  0  0
 14 25  1  0  0  0  0
 15 26  1  0  0  0  0
 16 26  1  0  0  0  0
 16 27  2  0  0  0  0
 16 30  1  0  0  0  0
 17 19  2  0  0  0  0
 17 35  1  0  0  0  0
 18 20  2  0  0  0  0
 18 36  1  0  0  0  0
 19 44  1  0  0  0  0
 20 37  1  0  0  0  0
 21 83  1  0  0  0  0
 22 84  1  0  0  0  0
 23 25  2  0  0  0  0
 23 83  1  0  0  0  0
 24 85  1  0  0  0  0
 25 86  1  0  0  0  0
 26 65  2  0  0  0  0
 27 68  1  0  0  0  0
 27 72  1  0  0  0  0
 28 54  1  0  0  0  0
 28 66  1  0  0  0  0
 28 67  2  0  0  0  0
 29 55  1  0  0  0  0
 29 66  2  0  0  0  0
 29 69  1  0  0  0  0
 30 73  1  0  0  0  0
 30 78  2  0  0  0  0
 31 45  1  0  0  0  0
 31 74  1  0  0  0  0
 31 79  2  0  0  0  0
 32 62  1  0  0  0  0
 32 70  1  0  0  0  0
 32 80  2  0  0  0  0
 33 63  1  0  0  0  0
 33 75  1  0  0  0  0
 33 81  2  0  0  0  0
 34 71  1  0  0  0  0
 34 76  1  0  0  0  0
 34 82  2  0  0  0  0
 35 38  1  0  0  0  0
 36 45  1  0  0  0  0
 37 70  1  0  0  0  0
 38 40  1  0  0  0  0
 39 41  1  0  0  0  0
 39 42  1  0  0  0  0
 40 44  1  0  0  0  0
 41 46  1  0  0  0  0
 42 71  1  0  0  0  0
 43 46  1  0  0  0  0
 43 71  1  0  0  0  0
 44 74  1  0  0  0  0
 45 70  1  0  0  0  0
 46 68  1  0  0  0  0
 47 55  1  0  0  0  0
 48 56  1  0  0  0  0
 49 63  1  0  0  0  0
 50 64  1  0  0  0  0
 51 64  1  0  0  0  0
 52 64  1  0  0  0  0
 53 77  1  0  0  0  0
 54 59  1  0  0  0  0
 56 60  1  0  0  0  0
 57 58  1  0  0  0  0
 57 61  1  0  0  0  0
 58 69  1  0  0  0  0
 59 76  1  0  0  0  0
 60 76  1  0  0  0  0
 61 84  1  0  0  0  0
 62 64  1  0  0  0  0
 62 75  1  0  0  0  0
 63 77  1  0  0  0  0
 65 68  1  0  0  0  0
 67 69  1  0  0  0  0
M  CHG  1  77   1
M  ISO  4  34 100  61 101  76 100  84 101
M  END
> <Batch ID>
0054

> <Smiles>
CCC[100N:0](CCc1nc(CC)n(CC[101CH2:1][101O:1]c2ccc3c(c2)CN(C(=O)C(NC(=O)C(C)NC)C(C)(C)C)C(C(=O)NC2CCCc4ccccc42)C3)n1)[100C:0](=O)N1CCCC(n2nc(-c3ccc(Oc4ccc(F)cc4F)cc3)c(C(N)=O)c2N)C1

> <Shape>
0.185

> <Color>
0.189

> <Negative vol penalty>
0.000

$$$$

  -OEChem-04052317413D

 84 92  0     1  0  0  0  0  0999 V2000
  -16.5874  -24.7658   22.7728 C   0  0  0  0  0  0  0  0  0  0  0  0
  -17.5211  -24.3943   21.8107 C   0  0  0  0  0  0  0  0  0  0  0  0
  -26.8632  -12.4434   20.9859 C   0  0  0  0  0  0  0  0  0  0  0  0
  -25.7252  -13.9547   19.4832 C   0  0  0  0  0  0  0  0  0  0  0  0
  -16.6586  -26.0279   23.3609 C   0  0  0  0  0  0  0  0  0  0  0  0
  -18.5260  -25.2853   21.4354 C   0  0  0  0  0  0  0  0  0  0  0  0
  -23.0711  -23.0726   21.1341 C   0  0  0  0  0  0  0  0  0  0  0  0
  -25.9447  -11.4413   20.6737 C   0  0  0  0  0  0  0  0  0  0  0  0
  -24.8067  -12.9525   19.1710 C   0  0  0  0  0  0  0  0  0  0  0  0
  -23.3335  -22.3091   19.9975 C   0  0  0  0  0  0  0  0  0  0  0  0
  -22.7790  -10.6130   21.5202 C   0  0  0  0  0  0  0  0  0  0  0  0
  -22.2507   -9.8679   22.5744 C   0  0  0  0  0  0  0  0  0  0  0  0
  -24.5773  -24.1491   19.0561 C   0  0  0  0  0  0  0  0  0  0  0  0
  -23.1557   -7.8500   21.6015 C   0  0  0  0  0  0  0  0  0  0  0  0
  -26.7535  -13.7002   20.3907 C   0  0  0  0  0  0  0  0  0  0  0  0
  -28.9201  -15.0060   20.0618 C   0  0  0  0  0  0  0  0  0  0  0  0
  -17.6706  -26.9312   22.9997 C   0  0  0  0  0  0  0  0  0  0  0  0
  -23.5515  -24.3861   21.2358 C   0  0  0  0  0  0  0  0  0  0  0  0
  -18.6100  -26.5612   22.0183 C   0  0  0  0  0  0  0  0  0  0  0  0
  -24.3218  -24.9263   20.1961 C   0  0  0  0  0  0  0  0  0  0  0  0
  -24.9164  -11.6957   19.7662 C   0  0  0  0  0  0  0  0  0  0  0  0
  -24.0842  -22.8483   18.9570 C   0  0  0  0  0  0  0  0  0  0  0  0
  -23.4955   -9.9767   20.5066 C   0  0  0  0  0  0  0  0  0  0  0  0
  -22.4391   -8.4864   22.6150 C   0  0  0  0  0  0  0  0  0  0  0  0
  -23.6839   -8.5952   20.5473 C   0  0  0  0  0  0  0  0  0  0  0  0
  -27.7017  -14.7360   20.7132 C   0  0  0  0  0  0  0  0  0  0  0  0
  -29.4432  -16.0782   20.7425 C   0  0  0  0  0  0  0  0  0  0  0  0
  -28.5348  -20.6257   20.1186 C   0  0  0  0  0  0  0  0  0  0  0  0
  -27.3672  -20.1953   18.4427 C   0  0  0  0  0  0  0  0  0  0  0  0
  -29.5249  -14.3467   18.9414 C   0  0  0  0  0  0  0  0  0  0  0  0
  -22.2047  -27.2518   21.5144 C   0  0  0  0  0  0  0  0  0  0  0  0
  -25.2770  -28.2305   21.8689 C   0  0  0  0  0  0  0  0  0  0  0  0
  -28.5896  -27.6409   21.2984 C   0  0  0  0  0  0  0  0  0  0  0  0
  -27.2189  -20.8853   23.3935 C   0  0  0  0  0  0  0  0  0  0  0  0
  -17.6787  -28.3019   23.6287 C   0  0  0  0  0  0  0  0  0  0  0  0
  -23.2823  -25.1873   22.4800 C   0  0  0  0  0  0  0  0  0  0  0  0
  -24.8777  -26.3244   20.2650 C   0  0  0  0  0  0  0  0  0  0  0  0
  -18.9982  -29.0477   23.4470 C   0  0  0  0  0  0  0  0  0  0  0  0
  -28.7631  -18.0558   25.2132 C   0  0  0  0  0  0  0  0  0  0  0  0
  -19.4724  -28.9490   22.0006 C   0  0  0  0  0  0  0  0  0  0  0  0
  -28.6885  -16.9223   24.1916 C   0  0  0  0  0  0  0  0  0  0  0  0
  -27.6436  -19.0731   25.0144 C   0  0  0  0  0  0  0  0  0  0  0  0
  -27.4986  -18.4962   22.6143 C   0  0  0  0  0  0  0  0  0  0  0  0
  -19.7296  -27.4906   21.6026 C   0  0  1  0  0  0  0  0  0  0  0  0
  -23.3862  -26.6927   22.2554 C   0  0  1  0  0  0  0  0  0  0  0  0
  -28.6401  -17.4783   22.7578 C   0  0  2  0  0  0  0  0  0  0  0  0
  -31.0725  -27.9771   21.4390 C   0  0  0  0  0  0  0  0  0  0  0  0
  -30.1068  -18.5105   16.9114 C   0  0  0  0  0  0  0  0  0  0  0  0
  -30.1003  -20.9645   16.2915 C   0  0  0  0  0  0  0  0  0  0  0  0
  -24.7684  -30.2285   19.6196 C   0  0  0  0  0  0  0  0  0  0  0  0
  -27.2469  -30.5049   19.3989 C   0  0  0  0  0  0  0  0  0  0  0  0
  -26.1091  -31.1272   21.5299 C   0  0  0  0  0  0  0  0  0  0  0  0
  -27.4225  -22.8967   21.9821 C   0  0  0  0  0  0  0  0  0  0  0  0
  -28.7859  -26.0214   23.7678 C   0  0  0  0  0  0  0  0  0  0  0  0
  -28.8928  -20.9759   21.4981 C   0  0  0  0  0  0  0  0  0  0  0  0
  -26.2621  -19.9353   17.4504 C   0  0  0  0  0  0  0  0  0  0  0  0
  -26.0269  -21.0897   16.4738 C   0  0  0  0  0  0  0  0  0  0  0  0
  -25.5611  -22.3713   17.1549 C   0  0  0  0  0  0  0  0  0  1  0  0
  -26.3693  -28.6847   20.9311 C   0  0  1  0  0  0  0  0  0  0  0  0
  -29.7961  -27.6995   22.2179 C   0  0  2  0  0  0  0  0  0  0  0  0
  -29.2829  -19.7982   16.8503 C   0  0  0  0  0  0  0  0  0  0  0  0
  -26.1115  -30.1106   20.3674 C   0  0  0  0  0  0  0  0  0  0  0  0
  -27.4648  -15.5693   21.7298 N   0  0  0  0  0  0  0  0  0  0  0  0
  -27.2368  -20.5172   19.7087 N   0  0  0  0  0  0  0  0  0  0  0  0
  -29.4602  -20.3912   19.1858 N   0  0  0  0  0  0  0  0  0  0  0  0
  -28.5416  -16.3734   21.7223 N   0  0  0  0  0  0  0  0  0  0  0  0
  -28.6871  -20.1183   18.1237 N   0  0  0  0  0  0  0  0  0  0  0  0
  -24.5820  -27.0702   21.4994 N   0  0  0  0  0  0  0  0  0  0  0  0
  -27.5930  -19.5527   23.6329 N   0  0  0  0  0  0  0  0  0  0  0  0
  -30.5819  -16.7877   20.5925 N   0  0  0  0  0  0  0  0  0  0  0  0
  -28.8524  -13.2624   18.3614 N   0  0  0  0  0  0  0  0  0  0  0  0
  -20.9929  -27.0348   22.1420 N   0  0  0  0  0  0  0  0  0  0  0  0
  -27.6215  -28.5507   21.6676 N   0  0  0  0  0  0  0  0  0  0  0  0
  -27.7710  -21.5118   22.2660 N   0  0  0  0  0  0  0  0  0  0  0  0
  -29.9589  -26.4071   22.9418 N   0  3  0  0  0  0  0  0  0  0  0  0
  -30.6368  -14.6980   18.4789 O   0  0  0  0  0  0  0  0  0  0  0  0
  -22.3797  -27.8381   20.4527 O   0  0  0  0  0  0  0  0  0  0  0  0
  -25.0534  -28.8773   22.8953 O   0  0  0  0  0  0  0  0  0  0  0  0
  -28.5151  -26.8681   20.3456 O   0  0  0  0  0  0  0  0  0  0  0  0
  -26.4437  -21.4839   24.1501 O   0  0  0  0  0  0  0  0  0  0  0  0
  -24.0201  -10.7180   19.4612 O   0  0  0  0  0  0  0  0  0  0  0  0
  -24.3413  -22.1055   17.8461 O   0  0  0  0  0  0  0  0  0  1  0  0
  -21.9330   -7.7711   23.6282 F   0  0  0  0  0  0  0  0  0  0  0  0
  -24.3725   -7.9785   19.5771 F   0  0  0  0  0  0  0  0  0  0  0  0
  1  2  1  0  0  0  0
  1  5  2  0  0  0  0
  2  6  2  0  0  0  0
  3  8  2  0  0  0  0
  3 15  1  0  0  0  0
  4  9  1  0  0  0  0
  4 15  2  0  0  0  0
  5 17  1  0  0  0  0
  6 19  1  0  0  0  0
  7 10  2  0  0  0  0
  7 18  1  0  0  0  0
  8 21  1  0  0  0  0
  9 21  2  0  0  0  0
 10 22  1  0  0  0  0
 11 12  2  0  0  0  0
 11 23  1  0  0  0  0
 12 24  1  0  0  0  0
 13 20  1  0  0  0  0
 13 22  2  0  0  0  0
 14 24  2  0  0  0  0
 14 25  1  0  0  0  0
 15 26  1  0  0  0  0
 16 26  1  0  0  0  0
 16 27  2  0  0  0  0
 16 30  1  0  0  0  0
 17 19  2  0  0  0  0
 17 35  1  0  0  0  0
 18 20  2  0  0  0  0
 18 36  1  0  0  0  0
 19 44  1  0  0  0  0
 20 37  1  0  0  0  0
 21 81  1  0  0  0  0
 22 82  1  0  0  0  0
 23 25  2  0  0  0  0
 23 81  1  0  0  0  0
 24 83  1  0  0  0  0
 25 84  1  0  0  0  0
 26 63  2  0  0  0  0
 27 66  1  0  0  0  0
 27 70  1  0  0  0  0
 28 55  1  0  0  0  0
 28 64  1  0  0  0  0
 28 65  2  0  0  0  0
 29 56  1  0  0  0  0
 29 64  2  0  0  0  0
 29 67  1  0  0  0  0
 30 71  1  0  0  0  0
 30 76  2  0  0  0  0
 31 45  1  0  0  0  0
 31 72  1  0  0  0  0
 31 77  2  0  0  0  0
 32 59  1  0  0  0  0
 32 68  1  0  0  0  0
 32 78  2  0  0  0  0
 33 60  1  0  0  0  0
 33 73  1  0  0  0  0
 33 79  2  0  0  0  0
 34 69  1  0  0  0  0
 34 74  1  0  0  0  0
 34 80  2  0  0  0  0
 35 38  1  0  0  0  0
 36 45  1  0  0  0  0
 37 68  1  0  0  0  0
 38 40  1  0  0  0  0
 39 41  1  0  0  0  0
 39 42  1  0  0  0  0
 40 44  1  0  0  0  0
 41 46  1  0  0  0  0
 42 69  1  0  0  0  0
 43 46  1  0  0  0  0
 43 69  1  0  0  0  0
 44 72  1  0  0  0  0
 45 68  1  0  0  0  0
 46 66  1  0  0  0  0
 47 60  1  0  0  0  0
 48 61  1  0  0  0  0
 49 61  1  0  0  0  0
 50 62  1  0  0  0  0
 51 62  1  0  0  0  0
 52 62  1  0  0  0  0
 53 74  1  0  0  0  0
 54 75  1  0  0  0  0
 55 74  1  0  0  0  0
 56 57  1  0  0  0  0
 57 58  1  0  0  0  0
 58 82  1  0  0  0  0
 59 62  1  0  0  0  0
 59 73  1  0  0  0  0
 60 75  1  0  0  0  0
 61 67  1  0  0  0  0
 63 66  1  0  0  0  0
 65 67  1  0  0  0  0
M  CHG  1  75   1
M  ISO  4  34 100  58 101  74 100  82 101
M  END
> <Batch ID>
0054

> <Smiles>
CNC(C)C(=O)NC(C(=O)N1Cc2cc([101O:1][101CH2:1]CCc3nc(C[100N:0](C)[100C:0](=O)N4CCCC(n5nc(-c6ccc(Oc7ccc(F)cc7F)cc6)c(C(N)=O)c5N)C4)nn3C(C)C)ccc2CC1C(=O)NC1CCCc2ccccc21)C(C)(C)C

> <Shape>
0.236

> <Color>
0.072

> <Negative vol penalty>
0.000

$$$$

  -OEChem-04052317413D

 81 89  0     1  0  0  0  0  0999 V2000
  -23.6566  -29.9933   20.6116 C   0  0  0  0  0  0  0  0  0  0  0  0
  -24.2951  -28.7788   20.3819 C   0  0  0  0  0  0  0  0  0  0  0  0
  -23.2169   -9.7441   20.7860 C   0  0  0  0  0  0  0  0  0  0  0  0
  -23.8825  -10.3944   23.0156 C   0  0  0  0  0  0  0  0  0  0  0  0
  -24.2524  -30.9480   21.4347 C   0  0  0  0  0  0  0  0  0  0  0  0
  -25.5303  -28.5187   20.9743 C   0  0  0  0  0  0  0  0  0  0  0  0
  -25.7902  -23.8692   22.9642 C   0  0  0  0  0  0  0  0  0  0  0  0
  -22.5142   -8.6601   21.3119 C   0  0  0  0  0  0  0  0  0  0  0  0
  -23.1797   -9.3103   23.5415 C   0  0  0  0  0  0  0  0  0  0  0  0
  -25.9983  -22.8098   22.0820 C   0  0  0  0  0  0  0  0  0  0  0  0
  -19.9673   -8.5312   24.2447 C   0  0  0  0  0  0  0  0  0  0  0  0
  -19.1661   -8.7613   25.3630 C   0  0  0  0  0  0  0  0  0  0  0  0
  -28.3384  -22.7899   22.6676 C   0  0  0  0  0  0  0  0  0  0  0  0
  -20.4594   -7.1538   26.6203 C   0  0  0  0  0  0  0  0  0  0  0  0
  -29.2197  -18.6911   22.8358 C   0  0  0  0  0  0  0  0  0  0  0  0
  -23.9012  -10.6112   21.6379 C   0  0  0  0  0  0  0  0  0  0  0  0
  -24.1380  -13.0301   20.8627 C   0  0  0  0  0  0  0  0  0  0  0  0
  -25.4910  -30.6956   22.0453 C   0  0  0  0  0  0  0  0  0  0  0  0
  -26.8584  -24.4049   23.6978 C   0  0  0  0  0  0  0  0  0  0  0  0
  -26.1439  -29.4715   21.8053 C   0  0  0  0  0  0  0  0  0  0  0  0
  -28.1407  -23.8544   23.5603 C   0  0  0  0  0  0  0  0  0  0  0  0
  -22.4955   -8.4432   22.6896 C   0  0  0  0  0  0  0  0  0  0  0  0
  -27.2731  -22.2719   21.9315 C   0  0  0  0  0  0  0  0  0  0  0  0
  -21.0146   -7.6124   24.3141 C   0  0  0  0  0  0  0  0  0  0  0  0
  -19.4121   -8.0726   26.5508 C   0  0  0  0  0  0  0  0  0  0  0  0
  -21.2606   -6.9237   25.5019 C   0  0  0  0  0  0  0  0  0  0  0  0
  -24.6278  -11.7309   21.0952 C   0  0  0  0  0  0  0  0  0  0  0  0
  -29.6402  -18.4525   21.5579 C   0  0  0  0  0  0  0  0  0  0  0  0
  -25.2105  -13.7137   20.3441 C   0  0  0  0  0  0  0  0  0  0  0  0
  -28.2555  -20.1790   21.5103 C   0  0  0  0  0  0  0  0  0  1  0  0
  -22.8305  -13.5706   21.0949 C   0  0  0  0  0  0  0  0  0  0  0  0
  -28.2687  -27.2493   23.8546 C   0  0  0  0  0  0  0  0  0  0  0  0
  -29.9077  -25.8685   26.2897 C   0  0  0  0  0  0  0  0  0  0  0  0
  -31.0413  -23.0066   27.7633 C   0  0  0  0  0  0  0  0  0  0  0  0
  -30.6329  -15.0323   20.4068 C   0  0  0  0  0  0  0  0  0  0  0  0
  -26.1181  -31.7770   22.8891 C   0  0  0  0  0  0  0  0  0  0  0  0
  -26.6123  -25.5302   24.6651 C   0  0  0  0  0  0  0  0  0  0  0  0
  -29.3172  -24.3802   24.3399 C   0  0  0  0  0  0  0  0  0  0  0  0
  -27.2520  -31.2745   23.7791 C   0  0  0  0  0  0  0  0  0  0  0  0
  -29.6969  -12.0474   18.7065 C   0  0  0  0  0  0  0  0  0  0  0  0
  -28.1999  -30.3827   22.9834 C   0  0  0  0  0  0  0  0  0  0  0  0
  -28.2572  -11.8031   19.1620 C   0  0  0  0  0  0  0  0  0  0  0  0
  -30.5544  -12.6243   19.8308 C   0  0  0  0  0  0  0  0  0  0  0  0
  -28.5683  -13.5939   20.9213 C   0  0  0  0  0  0  0  0  0  0  0  0
  -27.4729  -29.1424   22.4498 C   0  0  1  0  0  0  0  0  0  0  0  0
  -27.8700  -26.3348   24.9782 C   0  0  1  0  0  0  0  0  0  0  0  0
  -27.6510  -13.0647   19.8056 C   0  0  2  0  0  0  0  0  0  0  0  0
  -32.3853  -22.1987   29.7225 C   0  0  0  0  0  0  0  0  0  0  0  0
  -28.5532  -18.6531   17.0088 C   0  0  0  0  0  0  0  0  0  0  0  0
  -26.8753  -18.6377   18.8663 C   0  0  0  0  0  0  0  0  0  0  0  0
  -32.4755  -26.7070   24.8708 C   0  0  0  0  0  0  0  0  0  0  0  0
  -33.7222  -25.0921   26.3220 C   0  0  0  0  0  0  0  0  0  0  0  0
  -32.5078  -27.0118   27.3528 C   0  0  0  0  0  0  0  0  0  0  0  0
  -28.7471  -21.4934   28.8612 C   0  0  0  0  0  0  0  0  0  0  0  0
  -30.5556  -17.4330   21.0312 C   0  0  0  0  0  0  0  0  0  0  0  0
  -29.1845  -19.5084   19.3218 C   0  0  0  0  0  0  0  0  0  0  0  0
  -31.1876  -25.0761   26.4030 C   0  0  1  0  0  0  0  0  0  0  0  0
  -30.9945  -22.5283   29.2032 C   0  0  2  0  0  0  0  0  0  0  0  0
  -28.3577  -18.4895   18.5177 C   0  0  0  0  0  0  0  0  0  0  0  0
  -32.4517  -25.9629   26.2209 C   0  0  0  0  0  0  0  0  0  0  0  0
  -25.9115  -11.5948   20.7522 N   0  0  0  0  0  0  0  0  0  0  0  0
  -29.0279  -19.3878   20.7589 N   0  0  0  0  0  0  0  0  0  0  0  0
  -26.2374  -12.8172   20.2989 N   0  0  0  0  0  0  0  0  0  0  0  0
  -28.3635  -19.7642   22.7767 N   0  3  0  0  0  0  0  0  0  0  0  0
  -29.0269  -25.4853   25.2683 N   0  0  0  0  0  0  0  0  0  0  0  0
  -29.9245  -13.8194   20.3972 N   0  0  0  0  0  0  0  0  0  0  0  0
  -25.3659  -14.9881   19.9269 N   0  0  0  0  0  0  0  0  0  0  0  0
  -21.8460  -12.7306   21.6329 N   0  0  0  0  0  0  0  0  0  0  0  0
  -27.2969  -28.1670   23.5043 N   0  0  0  0  0  0  0  0  0  0  0  0
  -31.1251  -24.3807   27.6840 N   0  0  0  0  0  0  0  0  0  0  0  0
  -29.9606  -16.1173   20.9559 N   0  0  0  0  0  0  0  0  0  0  0  0
  -30.1490  -21.3063   29.3159 N   0  3  0  0  0  0  0  0  0  0  0  0
  -22.5391  -14.7588   20.8177 O   0  0  0  0  0  0  0  0  0  0  0  0
  -29.3766  -27.1319   23.3443 O   0  0  0  0  0  0  0  0  0  0  0  0
  -29.6939  -26.7887   27.0828 O   0  0  0  0  0  0  0  0  0  0  0  0
  -31.0107  -22.2380   26.8047 O   0  0  0  0  0  0  0  0  0  0  0  0
  -31.7776  -15.1415   19.9544 O   0  0  0  0  0  0  0  0  0  0  0  0
  -21.8096   -7.3856   23.2032 O   0  0  0  0  0  0  0  0  0  0  0  0
  -27.4791  -21.2383   21.0707 O   0  0  0  0  0  0  0  0  0  1  0  0
  -18.6436   -8.2948   27.6251 F   0  0  0  0  0  0  0  0  0  0  0  0
  -22.2660   -6.0407   25.5750 F   0  0  0  0  0  0  0  0  0  0  0  0
  1  2  1  0  0  0  0
  1  5  2  0  0  0  0
  2  6  2  0  0  0  0
  3  8  2  0  0  0  0
  3 16  1  0  0  0  0
  4  9  1  0  0  0  0
  4 16  2  0  0  0  0
  5 18  1  0  0  0  0
  6 20  1  0  0  0  0
  7 10  2  0  0  0  0
  7 19  1  0  0  0  0
  8 22  1  0  0  0  0
  9 22  2  0  0  0  0
 10 23  1  0  0  0  0
 11 12  2  0  0  0  0
 11 24  1  0  0  0  0
 12 25  1  0  0  0  0
 13 21  1  0  0  0  0
 13 23  2  0  0  0  0
 14 25  2  0  0  0  0
 14 26  1  0  0  0  0
 15 28  2  0  0  0  0
 15 64  1  0  0  0  0
 16 27  1  0  0  0  0
 17 27  1  0  0  0  0
 17 29  2  0  0  0  0
 17 31  1  0  0  0  0
 18 20  2  0  0  0  0
 18 36  1  0  0  0  0
 19 21  2  0  0  0  0
 19 37  1  0  0  0  0
 20 45  1  0  0  0  0
 21 38  1  0  0  0  0
 22 78  1  0  0  0  0
 23 79  1  0  0  0  0
 24 26  2  0  0  0  0
 24 78  1  0  0  0  0
 25 80  1  0  0  0  0
 26 81  1  0  0  0  0
 27 61  2  0  0  0  0
 28 55  1  0  0  0  0
 28 62  1  0  0  0  0
 29 63  1  0  0  0  0
 29 67  1  0  0  0  0
 30 62  1  0  0  0  0
 30 64  2  0  0  0  0
 30 79  1  0  0  0  0
 31 68  1  0  0  0  0
 31 73  2  0  0  0  0
 32 46  1  0  0  0  0
 32 69  1  0  0  0  0
 32 74  2  0  0  0  0
 33 57  1  0  0  0  0
 33 65  1  0  0  0  0
 33 75  2  0  0  0  0
 34 58  1  0  0  0  0
 34 70  1  0  0  0  0
 34 76  2  0  0  0  0
 35 66  1  0  0  0  0
 35 71  1  0  0  0  0
 35 77  2  0  0  0  0
 36 39  1  0  0  0  0
 37 46  1  0  0  0  0
 38 65  1  0  0  0  0
 39 41  1  0  0  0  0
 40 42  1  0  0  0  0
 40 43  1  0  0  0  0
 41 45  1  0  0  0  0
 42 47  1  0  0  0  0
 43 66  1  0  0  0  0
 44 47  1  0  0  0  0
 44 66  1  0  0  0  0
 45 69  1  0  0  0  0
 46 65  1  0  0  0  0
 47 63  1  0  0  0  0
 48 58  1  0  0  0  0
 49 59  1  0  0  0  0
 50 59  1  0  0  0  0
 51 60  1  0  0  0  0
 52 60  1  0  0  0  0
 53 60  1  0  0  0  0
 54 72  1  0  0  0  0
 55 71  1  0  0  0  0
 56 59  1  0  0  0  0
 56 62  1  0  0  0  0
 57 60  1  0  0  0  0
 57 70  1  0  0  0  0
 58 72  1  0  0  0  0
 61 63  1  0  0  0  0
M  CHG  2  64   1  72   1
M  ISO  4  30 101  35 100  71 100  79 101
M  END
> <Batch ID>
0054

> <Smiles>
CNC(C)C(=O)NC(C(=O)N1Cc2cc([101O:1][101c:1]3ncc(C[100NH:0][100C:0](=O)N4CCCC(n5nc(-c6ccc(Oc7ccc(F)cc7F)cc6)c(C(N)=O)c5N)C4)n3CC(C)C)ccc2CC1C(=O)NC1CCCc2ccccc21)C(C)(C)C

> <Shape>
0.249

> <Color>
0.168

> <Negative vol penalty>
0.000

$$$$

  -OEChem-04052317413D

 85 93  0     1  0  0  0  0  0999 V2000
  -19.3049  -20.9978   26.9128 C   0  0  0  0  0  0  0  0  0  0  0  0
  -19.8855  -20.8669   25.6553 C   0  0  0  0  0  0  0  0  0  0  0  0
  -26.4200  -12.6284   21.7655 C   0  0  0  0  0  0  0  0  0  0  0  0
  -25.7769  -13.8847   19.8046 C   0  0  0  0  0  0  0  0  0  0  0  0
  -18.9036  -22.2535   27.3668 C   0  0  0  0  0  0  0  0  0  0  0  0
  -20.0640  -21.9917   24.8506 C   0  0  0  0  0  0  0  0  0  0  0  0
  -24.6426  -22.1284   22.6912 C   0  0  0  0  0  0  0  0  0  0  0  0
  -25.1927  -11.9661   21.7438 C   0  0  0  0  0  0  0  0  0  0  0  0
  -24.5495  -13.2223   19.7828 C   0  0  0  0  0  0  0  0  0  0  0  0
  -24.8476  -21.3104   21.5809 C   0  0  0  0  0  0  0  0  0  0  0  0
  -23.7637   -9.4243   20.0320 C   0  0  0  0  0  0  0  0  0  0  0  0
  -23.7696   -8.0420   20.2186 C   0  0  0  0  0  0  0  0  0  0  0  0
  -24.5137  -23.2076   20.1290 C   0  0  0  0  0  0  0  0  0  0  0  0
  -22.3785   -8.3004   22.1770 C   0  0  0  0  0  0  0  0  0  0  0  0
  -26.7121  -13.5878   20.7959 C   0  0  0  0  0  0  0  0  0  0  0  0
  -29.1694  -13.8801   20.1761 C   0  0  0  0  0  0  0  0  0  0  0  0
  -19.0862  -23.3955   26.5711 C   0  0  0  0  0  0  0  0  0  0  0  0
  -24.3603  -23.4922   22.5280 C   0  0  0  0  0  0  0  0  0  0  0  0
  -19.6635  -23.2636   25.2938 C   0  0  0  0  0  0  0  0  0  0  0  0
  -24.3080  -24.0413   21.2389 C   0  0  0  0  0  0  0  0  0  0  0  0
  -24.2574  -12.2630   20.7525 C   0  0  0  0  0  0  0  0  0  0  0  0
  -24.7804  -21.8494   20.2995 C   0  0  0  0  0  0  0  0  0  0  0  0
  -23.0653  -10.2447   20.9179 C   0  0  0  0  0  0  0  0  0  0  0  0
  -23.0770   -7.4801   21.2911 C   0  0  0  0  0  0  0  0  0  0  0  0
  -22.3726   -9.6828   21.9904 C   0  0  0  0  0  0  0  0  0  0  0  0
  -27.9796  -14.2727   20.8181 C   0  0  0  0  0  0  0  0  0  0  0  0
  -30.0757  -14.8585   20.5046 C   0  0  0  0  0  0  0  0  0  0  0  0
  -29.8050  -22.3072   19.4991 C   0  0  0  0  0  0  0  0  0  0  0  0
  -28.5374  -20.9758   18.5101 C   0  0  0  0  0  0  0  0  0  0  0  0
  -29.4318  -12.7337   19.3561 C   0  0  0  0  0  0  0  0  0  0  0  0
  -21.9089  -25.3787   23.2596 C   0  0  0  0  0  0  0  0  0  0  0  0
  -23.8997  -27.7168   22.2146 C   0  0  0  0  0  0  0  0  0  0  0  0
  -26.5758  -28.5967   20.2881 C   0  0  0  0  0  0  0  0  0  0  0  0
  -31.5309  -20.0013   21.1332 C   0  0  0  0  0  0  0  0  0  0  0  0
  -18.5932  -24.7249   27.0854 C   0  0  0  0  0  0  0  0  0  0  0  0
  -24.1681  -24.3666   23.7367 C   0  0  0  0  0  0  0  0  0  0  0  0
  -24.0283  -25.5035   21.0104 C   0  0  0  0  0  0  0  0  0  0  0  0
  -19.1599  -25.9206   26.3242 C   0  0  0  0  0  0  0  0  0  0  0  0
  -29.8199  -18.5990   23.8861 C   0  0  0  0  0  0  0  0  0  0  0  0
  -19.0709  -25.6863   24.8195 C   0  0  0  0  0  0  0  0  0  0  0  0
  -29.2721  -17.3092   23.2768 C   0  0  0  0  0  0  0  0  0  0  0  0
  -29.7349  -19.7758   22.9123 C   0  0  0  0  0  0  0  0  0  0  0  0
  -29.8152  -18.2213   20.9889 C   0  0  0  0  0  0  0  0  0  0  0  0
  -19.8966  -24.4636   24.4017 C   0  0  1  0  0  0  0  0  0  0  0  0
  -23.3786  -25.6368   23.4358 C   0  0  1  0  0  0  0  0  0  0  0  0
  -29.9442  -17.0103   21.9255 C   0  0  2  0  0  0  0  0  0  0  0  0
  -27.9435  -30.5875   19.6077 C   0  0  0  0  0  0  0  0  0  0  0  0
  -33.3336  -22.4391   19.9560 C   0  0  0  0  0  0  0  0  0  0  0  0
  -33.4941  -22.8474   22.4321 C   0  0  0  0  0  0  0  0  0  0  0  0
  -21.6652  -28.6073   20.3372 C   0  0  0  0  0  0  0  0  0  0  0  0
  -23.3629  -29.9281   19.0560 C   0  0  0  0  0  0  0  0  0  0  0  0
  -22.9032  -30.4762   21.4457 C   0  0  0  0  0  0  0  0  0  0  0  0
  -29.6709  -21.1150   16.2608 C   0  0  0  0  0  0  0  0  0  0  0  0
  -29.0420  -27.4453   21.4504 C   0  0  0  0  0  0  0  0  0  0  0  0
  -30.3832  -23.1216   20.5744 C   0  0  0  0  0  0  0  0  0  0  0  0
  -27.4690  -19.9925   18.1038 C   0  0  0  0  0  0  0  0  0  0  0  0
  -26.3371  -20.6164   17.2847 C   0  0  0  0  0  0  0  0  0  0  0  0
  -30.7987  -22.3223   21.8272 C   0  0  0  0  0  0  0  0  0  0  0  0
  -25.5420  -21.6649   18.0541 C   0  0  0  0  0  0  0  0  0  1  0  0
  -24.1778  -28.3671   20.8808 C   0  0  1  0  0  0  0  0  0  0  0  0
  -27.8029  -29.4370   20.5921 C   0  0  2  0  0  0  0  0  0  0  0  0
  -33.1678  -21.8327   21.3438 C   0  0  0  0  0  0  0  0  0  0  0  0
  -23.0306  -29.3167   20.4338 C   0  0  0  0  0  0  0  0  0  0  0  0
  -28.1147  -15.4115   21.5028 N   0  0  0  0  0  0  0  0  0  0  0  0
  -28.7121  -21.5123   19.6955 N   0  0  0  0  0  0  0  0  0  0  0  0
  -30.3174  -22.2963   18.2668 N   0  0  0  0  0  0  0  0  0  0  0  0
  -29.4001  -15.7429   21.2930 N   0  0  0  0  0  0  0  0  0  0  0  0
  -29.4885  -21.4373   17.6543 N   0  0  0  0  0  0  0  0  0  0  0  0
  -23.8411  -26.3160   22.2238 N   0  0  0  0  0  0  0  0  0  0  0  0
  -30.3453  -19.4320   21.6208 N   0  0  0  0  0  0  0  0  0  0  0  0
  -31.3767  -15.0398   20.1932 N   0  0  0  0  0  0  0  0  0  0  0  0
  -28.3883  -11.8285   19.1194 N   0  0  0  0  0  0  0  0  0  0  0  0
  -21.3045  -24.7958   24.3571 N   0  0  0  0  0  0  0  0  0  0  0  0
  -25.4773  -29.0180   21.0071 N   0  0  0  0  0  0  0  0  0  0  0  0
  -31.8165  -21.3195   21.5192 N   0  0  0  0  0  0  0  0  0  0  0  0
  -29.0345  -28.6012   20.5173 N   0  3  0  0  0  0  0  0  0  0  0  0
  -30.5628  -12.5097   18.8618 O   0  0  0  0  0  0  0  0  0  0  0  0
  -21.3633  -25.6870   22.2066 O   0  0  0  0  0  0  0  0  0  0  0  0
  -23.7473  -28.4254   23.2127 O   0  0  0  0  0  0  0  0  0  0  0  0
  -26.5893  -27.6624   19.4896 O   0  0  0  0  0  0  0  0  0  0  0  0
  -32.2901  -19.3699   20.3868 O   0  0  0  0  0  0  0  0  0  0  0  0
  -23.0597  -11.6168   20.7308 O   0  0  0  0  0  0  0  0  0  0  0  0
  -24.9794  -21.0531   19.2141 O   0  0  0  0  0  0  0  0  0  1  0  0
  -23.0815   -6.1525   21.4693 F   0  0  0  0  0  0  0  0  0  0  0  0
  -21.6988  -10.4657   22.8441 F   0  0  0  0  0  0  0  0  0  0  0  0
  1  2  1  0  0  0  0
  1  5  2  0  0  0  0
  2  6  2  0  0  0  0
  3  8  2  0  0  0  0
  3 15  1  0  0  0  0
  4  9  1  0  0  0  0
  4 15  2  0  0  0  0
  5 17  1  0  0  0  0
  6 19  1  0  0  0  0
  7 10  2  0  0  0  0
  7 18  1  0  0  0  0
  8 21  1  0  0  0  0
  9 21  2  0  0  0  0
 10 22  1  0  0  0  0
 11 12  2  0  0  0  0
 11 23  1  0  0  0  0
 12 24  1  0  0  0  0
 13 20  1  0  0  0  0
 13 22  2  0  0  0  0
 14 24  2  0  0  0  0
 14 25  1  0  0  0  0
 15 26  1  0  0  0  0
 16 26  1  0  0  0  0
 16 27  2  0  0  0  0
 16 30  1  0  0  0  0
 17 19  2  0  0  0  0
 17 35  1  0  0  0  0
 18 20  2  0  0  0  0
 18 36  1  0  0  0  0
 19 44  1  0  0  0  0
 20 37  1  0  0  0  0
 21 82  1  0  0  0  0
 22 83  1  0  0  0  0
 23 25  2  0  0  0  0
 23 82  1  0  0  0  0
 24 84  1  0  0  0  0
 25 85  1  0  0  0  0
 26 64  2  0  0  0  0
 27 67  1  0  0  0  0
 27 71  1  0  0  0  0
 28 55  1  0  0  0  0
 28 65  1  0  0  0  0
 28 66  2  0  0  0  0
 29 56  1  0  0  0  0
 29 65  2  0  0  0  0
 29 68  1  0  0  0  0
 30 72  1  0  0  0  0
 30 77  2  0  0  0  0
 31 45  1  0  0  0  0
 31 73  1  0  0  0  0
 31 78  2  0  0  0  0
 32 60  1  0  0  0  0
 32 69  1  0  0  0  0
 32 79  2  0  0  0  0
 33 61  1  0  0  0  0
 33 74  1  0  0  0  0
 33 80  2  0  0  0  0
 34 70  1  0  0  0  0
 34 75  1  0  0  0  0
 34 81  2  0  0  0  0
 35 38  1  0  0  0  0
 36 45  1  0  0  0  0
 37 69  1  0  0  0  0
 38 40  1  0  0  0  0
 39 41  1  0  0  0  0
 39 42  1  0  0  0  0
 40 44  1  0  0  0  0
 41 46  1  0  0  0  0
 42 70  1  0  0  0  0
 43 46  1  0  0  0  0
 43 70  1  0  0  0  0
 44 73  1  0  0  0  0
 45 69  1  0  0  0  0
 46 67  1  0  0  0  0
 47 61  1  0  0  0  0
 48 62  1  0  0  0  0
 49 62  1  0  0  0  0
 50 63  1  0  0  0  0
 51 63  1  0  0  0  0
 52 63  1  0  0  0  0
 53 68  1  0  0  0  0
 54 76  1  0  0  0  0
 55 58  1  0  0  0  0
 56 57  1  0  0  0  0
 57 59  1  0  0  0  0
 58 75  1  0  0  0  0
 59 83  1  0  0  0  0
 60 63  1  0  0  0  0
 60 74  1  0  0  0  0
 61 76  1  0  0  0  0
 62 75  1  0  0  0  0
 64 67  1  0  0  0  0
 66 68  1  0  0  0  0
M  CHG  1  76   1
M  ISO  4  34 100  59 101  75 100  83 101
M  END
> <Batch ID>
0054

> <Smiles>
CNC(C)C(=O)NC(C(=O)N1Cc2cc([101O:1][101CH2:1]CCc3nc(CC[100N:0](C(C)C)[100C:0](=O)N4CCCC(n5nc(-c6ccc(Oc7ccc(F)cc7F)cc6)c(C(N)=O)c5N)C4)nn3C)ccc2CC1C(=O)NC1CCCc2ccccc21)C(C)(C)C

> <Shape>
0.224

> <Color>
0.068

> <Negative vol penalty>
0.000

$$$$

  -OEChem-04052317413D

 85 93  0     1  0  0  0  0  0999 V2000
  -26.6304  -37.9951   22.2706 C   0  0  0  0  0  0  0  0  0  0  0  0
  -27.2890  -37.0256   21.5212 C   0  0  0  0  0  0  0  0  0  0  0  0
  -25.1564  -15.3977   22.0168 C   0  0  0  0  0  0  0  0  0  0  0  0
  -25.2881  -14.3987   19.8209 C   0  0  0  0  0  0  0  0  0  0  0  0
  -25.8849  -37.6231   23.3886 C   0  0  0  0  0  0  0  0  0  0  0  0
  -27.2035  -35.6836   21.8899 C   0  0  0  0  0  0  0  0  0  0  0  0
  -27.0701  -29.1101   19.0459 C   0  0  0  0  0  0  0  0  0  0  0  0
  -24.2493  -14.4137   22.4101 C   0  0  0  0  0  0  0  0  0  0  0  0
  -24.3810  -13.4147   20.2142 C   0  0  0  0  0  0  0  0  0  0  0  0
  -27.7073  -27.8751   19.1575 C   0  0  0  0  0  0  0  0  0  0  0  0
  -24.4368  -10.5525   22.0101 C   0  0  0  0  0  0  0  0  0  0  0  0
  -24.7267   -9.2318   21.6675 C   0  0  0  0  0  0  0  0  0  0  0  0
  -26.3258  -27.3412   21.0616 C   0  0  0  0  0  0  0  0  0  0  0  0
  -22.6685   -9.1067   20.4084 C   0  0  0  0  0  0  0  0  0  0  0  0
  -29.8125  -21.4414   21.2553 C   0  0  0  0  0  0  0  0  0  0  0  0
  -25.6757  -15.3902   20.7222 C   0  0  0  0  0  0  0  0  0  0  0  0
  -28.0154  -16.3608   20.4199 C   0  0  0  0  0  0  0  0  0  0  0  0
  -25.7823  -36.2747   23.7656 C   0  0  0  0  0  0  0  0  0  0  0  0
  -26.0617  -29.4750   19.9495 C   0  0  0  0  0  0  0  0  0  0  0  0
  -26.4570  -35.2933   23.0147 C   0  0  0  0  0  0  0  0  0  0  0  0
  -25.6756  -28.5803   20.9577 C   0  0  0  0  0  0  0  0  0  0  0  0
  -23.8617  -13.4222   21.5088 C   0  0  0  0  0  0  0  0  0  0  0  0
  -27.3373  -26.9916   20.1672 C   0  0  0  0  0  0  0  0  0  0  0  0
  -23.2627  -11.1503   21.5519 C   0  0  0  0  0  0  0  0  0  0  0  0
  -23.8426   -8.5089   20.8666 C   0  0  0  0  0  0  0  0  0  0  0  0
  -22.3786  -10.4274   20.7511 C   0  0  0  0  0  0  0  0  0  0  0  0
  -26.6123  -16.4067   20.3152 C   0  0  0  0  0  0  0  0  0  0  0  0
  -30.1977  -22.5628   20.5542 C   0  0  0  0  0  0  0  0  0  0  0  0
  -27.9608  -22.5501   22.0112 C   0  0  0  0  0  0  0  0  0  0  0  0
  -28.3463  -23.6718   21.3108 C   0  0  0  0  0  0  0  0  0  0  0  0
  -28.4380  -17.5594   19.8991 C   0  0  0  0  0  0  0  0  0  0  0  0
  -28.8612  -15.3272   20.9414 C   0  0  0  0  0  0  0  0  0  0  0  0
  -25.7009  -31.7966   22.0904 C   0  0  0  0  0  0  0  0  0  0  0  0
  -22.7145  -30.5579   22.3538 C   0  0  0  0  0  0  0  0  0  0  0  0
  -20.6510  -27.8658   21.9781 C   0  0  0  0  0  0  0  0  0  0  0  0
  -27.9107  -21.2449   15.6030 C   0  0  0  0  0  0  0  0  0  0  0  0
  -25.0037  -35.9260   25.0093 C   0  0  0  0  0  0  0  0  0  0  0  0
  -25.3656  -30.7998   19.7991 C   0  0  0  0  0  0  0  0  0  0  0  0
  -24.5848  -28.9159   21.9406 C   0  0  0  0  0  0  0  0  0  0  0  0
  -24.6565  -34.4432   25.1147 C   0  0  0  0  0  0  0  0  0  0  0  0
  -25.8610  -21.7177   18.6489 C   0  0  0  0  0  0  0  0  0  0  0  0
  -25.8783  -33.5853   24.8017 C   0  0  0  0  0  0  0  0  0  0  0  0
  -25.9379  -20.3465   19.3182 C   0  0  0  0  0  0  0  0  0  0  0  0
  -26.0110  -21.6185   17.1338 C   0  0  0  0  0  0  0  0  0  0  0  0
  -27.3170  -19.5316   17.3651 C   0  0  0  0  0  0  0  0  0  0  0  0
  -26.3679  -33.8246   23.3684 C   0  0  1  0  0  0  0  0  0  0  0  0
  -24.7072  -31.2787   21.0894 C   0  0  1  0  0  0  0  0  0  0  0  0
  -27.2159  -19.6010   18.8963 C   0  0  2  0  0  0  0  0  0  0  0  0
  -26.7136  -22.5340   22.8275 C   0  0  0  0  0  0  0  0  0  0  0  0
  -18.2699  -27.1471   22.3117 C   0  0  0  0  0  0  0  0  0  0  0  0
  -23.1999  -30.3531   25.3592 C   0  0  0  0  0  0  0  0  0  0  0  0
  -21.2433  -28.7973   25.4987 C   0  0  0  0  0  0  0  0  0  0  0  0
  -20.9146  -31.1453   24.7232 C   0  0  0  0  0  0  0  0  0  0  0  0
  -30.0678  -21.4107   14.4203 C   0  0  0  0  0  0  0  0  0  0  0  0
  -20.2974  -27.2956   19.0956 C   0  0  0  0  0  0  0  0  0  0  0  0
  -32.8442  -21.1426   18.2441 C   0  0  0  0  0  0  0  0  0  0  0  0
  -31.4471  -22.5555   19.7450 C   0  0  0  0  0  0  0  0  0  0  0  0
  -27.5289  -24.9297   21.3368 C   0  0  0  0  0  0  0  0  0  1  0  0
  -30.0815  -20.6955   16.7812 C   0  0  0  0  0  0  0  0  0  0  0  0
  -30.6078  -21.9325   17.4849 C   0  0  0  0  0  0  0  0  0  0  0  0
  -22.0717  -29.4886   23.2038 C   0  0  1  0  0  0  0  0  0  0  0  0
  -19.2822  -27.7276   21.3364 C   0  0  2  0  0  0  0  0  0  0  0  0
  -21.8793  -29.9403   24.6791 C   0  0  0  0  0  0  0  0  0  0  0  0
  -28.6870  -21.4149   21.9963 N   0  0  0  0  0  0  0  0  0  0  0  0
  -26.1728  -17.5444   19.7707 N   0  0  0  0  0  0  0  0  0  0  0  0
  -29.4716  -23.6982   20.5694 N   0  0  0  0  0  0  0  0  0  0  0  0
  -27.3063  -18.2246   19.5287 N   0  0  0  0  0  0  0  0  0  0  0  0
  -23.9385  -30.2258   21.7562 N   0  0  0  0  0  0  0  0  0  0  0  0
  -27.2107  -20.8681   16.7610 N   0  0  0  0  0  0  0  0  0  0  0  0
  -29.6634  -18.0988   19.7264 N   0  0  0  0  0  0  0  0  0  0  0  0
  -28.2627  -14.1607   21.4370 N   0  0  0  0  0  0  0  0  0  0  0  0
  -25.5239  -33.1261   22.4228 N   0  0  0  0  0  0  0  0  0  0  0  0
  -20.8341  -29.1177   22.5262 N   0  0  0  0  0  0  0  0  0  0  0  0
  -29.2965  -21.0260   15.5938 N   0  0  0  0  0  0  0  0  0  0  0  0
  -19.3556  -26.8326   20.1471 N   0  3  0  0  0  0  0  0  0  0  0  0
  -31.4501  -21.5272   18.6665 N   0  3  1  0  0  0  0  0  0  0  0  0
  -30.1097  -15.4416   20.9822 O   0  0  0  0  0  0  0  0  0  0  0  0
  -26.5634  -31.0452   22.5300 O   0  0  0  0  0  0  0  0  0  0  0  0
  -22.1477  -31.6453   22.2191 O   0  0  0  0  0  0  0  0  0  0  0  0
  -21.4740  -26.9531   21.9949 O   0  0  0  0  0  0  0  0  0  0  0  0
  -27.3314  -21.7571   14.6365 O   0  0  0  0  0  0  0  0  0  0  0  0
  -22.9768  -12.4618   21.8923 O   0  0  0  0  0  0  0  0  0  0  0  0
  -27.9581  -25.7858   20.2789 O   0  0  0  0  0  0  0  0  0  1  0  0
  -24.1218   -7.2412   20.5364 F   0  0  0  0  0  0  0  0  0  0  0  0
  -21.2497  -10.9967   20.3069 F   0  0  0  0  0  0  0  0  0  0  0  0
  1  2  1  0  0  0  0
  1  5  2  0  0  0  0
  2  6  2  0  0  0  0
  3  8  2  0  0  0  0
  3 16  1  0  0  0  0
  4  9  1  0  0  0  0
  4 16  2  0  0  0  0
  5 18  1  0  0  0  0
  6 20  1  0  0  0  0
  7 10  2  0  0  0  0
  7 19  1  0  0  0  0
  8 22  1  0  0  0  0
  9 22  2  0  0  0  0
 10 23  1  0  0  0  0
 11 12  2  0  0  0  0
 11 24  1  0  0  0  0
 12 25  1  0  0  0  0
 13 21  1  0  0  0  0
 13 23  2  0  0  0  0
 14 25  2  0  0  0  0
 14 26  1  0  0  0  0
 15 28  1  0  0  0  0
 15 64  2  0  0  0  0
 16 27  1  0  0  0  0
 17 27  1  0  0  0  0
 17 31  2  0  0  0  0
 17 32  1  0  0  0  0
 18 20  2  0  0  0  0
 18 37  1  0  0  0  0
 19 21  2  0  0  0  0
 19 38  1  0  0  0  0
 20 46  1  0  0  0  0
 21 39  1  0  0  0  0
 22 82  1  0  0  0  0
 23 83  1  0  0  0  0
 24 26  2  0  0  0  0
 24 82  1  0  0  0  0
 25 84  1  0  0  0  0
 26 85  1  0  0  0  0
 27 65  2  0  0  0  0
 28 57  1  0  0  0  0
 28 66  2  0  0  0  0
 29 30  2  0  0  0  0
 29 49  1  0  0  0  0
 29 64  1  0  0  0  0
 30 58  1  0  0  0  0
 30 66  1  0  0  0  0
 31 67  1  0  0  0  0
 31 70  1  0  0  0  0
 32 71  1  0  0  0  0
 32 77  2  0  0  0  0
 33 47  1  0  0  0  0
 33 72  1  0  0  0  0
 33 78  2  0  0  0  0
 34 61  1  0  0  0  0
 34 68  1  0  0  0  0
 34 79  2  0  0  0  0
 35 62  1  0  0  0  0
 35 73  1  0  0  0  0
 35 80  2  0  0  0  0
 36 69  1  0  0  0  0
 36 74  1  0  0  0  0
 36 81  2  0  0  0  0
 37 40  1  0  0  0  0
 38 47  1  0  0  0  0
 39 68  1  0  0  0  0
 40 42  1  0  0  0  0
 41 43  1  0  0  0  0
 41 44  1  0  0  0  0
 42 46  1  0  0  0  0
 43 48  1  0  0  0  0
 44 69  1  0  0  0  0
 45 48  1  0  0  0  0
 45 69  1  0  0  0  0
 46 72  1  0  0  0  0
 47 68  1  0  0  0  0
 48 67  1  0  0  0  0
 50 62  1  0  0  0  0
 51 63  1  0  0  0  0
 52 63  1  0  0  0  0
 53 63  1  0  0  0  0
 54 74  1  0  0  0  0
 55 75  1  0  0  0  0
 56 76  1  0  0  0  0
 57 76  1  0  0  0  0
 58 83  1  0  0  0  0
 59 60  1  0  0  0  0
 59 74  1  0  0  0  0
 60 76  1  0  0  0  0
 61 63  1  0  0  0  0
 61 73  1  0  0  0  0
 62 75  1  0  0  0  0
 65 67  1  0  0  0  0
M  CHG  2  75   1  76   1
M  ISO  4  36 100  58 101  74 100  83 101
M  END
> <Batch ID>
0054

> <Smiles>
CNC(C)C(=O)NC(C(=O)N1Cc2cc([101O:1][101CH2:1]c3nc(CN(C)CC[100N:0](C)[100C:0](=O)N4CCCC(n5nc(-c6ccc(Oc7ccc(F)cc7F)cc6)c(C(N)=O)c5N)C4)cnc3C)ccc2CC1C(=O)NC1CCCc2ccccc21)C(C)(C)C

> <Shape>
0.311

> <Color>
0.069

> <Negative vol penalty>
0.000

$$$$

  -OEChem-04052317413D

 81 89  0     1  0  0  0  0  0999 V2000
  -26.6157  -32.4983   26.6309 C   0  0  0  0  0  0  0  0  0  0  0  0
  -26.7331  -31.1665   27.0154 C   0  0  0  0  0  0  0  0  0  0  0  0
  -23.1794   -9.6737   20.0344 C   0  0  0  0  0  0  0  0  0  0  0  0
  -23.8848   -9.8745   22.3364 C   0  0  0  0  0  0  0  0  0  0  0  0
  -26.2224  -32.8155   25.3314 C   0  0  0  0  0  0  0  0  0  0  0  0
  -26.4561  -30.1510   26.1008 C   0  0  0  0  0  0  0  0  0  0  0  0
  -29.2319  -24.7073   25.6918 C   0  0  0  0  0  0  0  0  0  0  0  0
  -22.4973   -8.4977   20.3460 C   0  0  0  0  0  0  0  0  0  0  0  0
  -23.2026   -8.6985   22.6481 C   0  0  0  0  0  0  0  0  0  0  0  0
  -28.8842  -23.4398   26.1571 C   0  0  0  0  0  0  0  0  0  0  0  0
  -20.0124   -7.7537   23.2402 C   0  0  0  0  0  0  0  0  0  0  0  0
  -19.2323   -7.7457   24.3965 C   0  0  0  0  0  0  0  0  0  0  0  0
  -27.9370  -22.9150   24.0015 C   0  0  0  0  0  0  0  0  0  0  0  0
  -20.5653   -5.9365   25.2834 C   0  0  0  0  0  0  0  0  0  0  0  0
  -28.2638  -18.5195   24.3052 C   0  0  0  0  0  0  0  0  0  0  0  0
  -30.8547  -17.9351   24.0356 C   0  0  0  0  0  0  0  0  0  0  0  0
  -23.8733  -10.3621   21.0296 C   0  0  0  0  0  0  0  0  0  0  0  0
  -24.0727  -12.8898   20.7490 C   0  0  0  0  0  0  0  0  0  0  0  0
  -25.9498  -31.8034   24.3976 C   0  0  0  0  0  0  0  0  0  0  0  0
  -28.9244  -25.0927   24.3790 C   0  0  0  0  0  0  0  0  0  0  0  0
  -26.0575  -30.4549   24.7880 C   0  0  0  0  0  0  0  0  0  0  0  0
  -28.2841  -24.1870   23.5212 C   0  0  0  0  0  0  0  0  0  0  0  0
  -22.5088   -8.0100   21.6528 C   0  0  0  0  0  0  0  0  0  0  0  0
  -28.2341  -22.5445   25.3128 C   0  0  0  0  0  0  0  0  0  0  0  0
  -21.0690   -6.8529   23.1055 C   0  0  0  0  0  0  0  0  0  0  0  0
  -19.5087   -6.8372   25.4181 C   0  0  0  0  0  0  0  0  0  0  0  0
  -21.3454   -5.9444   24.1271 C   0  0  0  0  0  0  0  0  0  0  0  0
  -24.5786  -11.5767   20.7083 C   0  0  0  0  0  0  0  0  0  0  0  0
  -29.1430  -18.6873   25.3522 C   0  0  0  0  0  0  0  0  0  0  0  0
  -29.9755  -17.7666   22.9887 C   0  0  0  0  0  0  0  0  0  0  0  0
  -25.1282  -13.6768   20.3578 C   0  0  0  0  0  0  0  0  0  0  0  0
  -22.7654  -13.3564   21.1084 C   0  0  0  0  0  0  0  0  0  0  0  0
  -27.1231  -27.3615   23.0709 C   0  0  0  0  0  0  0  0  0  0  0  0
  -28.4275  -26.2624   20.3118 C   0  0  0  0  0  0  0  0  0  0  0  0
  -29.9073  -23.6871   18.6311 C   0  0  0  0  0  0  0  0  0  0  0  0
  -30.5388  -15.0257   20.5832 C   0  0  0  0  0  0  0  0  0  0  0  0
  -25.4822  -32.1950   23.0183 C   0  0  0  0  0  0  0  0  0  0  0  0
  -29.3301  -26.4539   23.8842 C   0  0  0  0  0  0  0  0  0  0  0  0
  -27.9497  -24.5447   22.0969 C   0  0  0  0  0  0  0  0  0  0  0  0
  -25.5696  -31.0606   22.0006 C   0  0  0  0  0  0  0  0  0  0  0  0
  -29.5947  -12.4283   18.3384 C   0  0  0  0  0  0  0  0  0  0  0  0
  -24.9955  -29.7738   22.5849 C   0  0  0  0  0  0  0  0  0  0  0  0
  -28.1669  -12.0796   18.7623 C   0  0  0  0  0  0  0  0  0  0  0  0
  -30.4699  -12.7802   19.5394 C   0  0  0  0  0  0  0  0  0  0  0  0
  -28.4980  -13.4872   20.8378 C   0  0  0  0  0  0  0  0  0  0  0  0
  -25.7897  -29.3251   23.8175 C   0  0  1  0  0  0  0  0  0  0  0  0
  -28.5085  -26.9240   22.6877 C   0  0  1  0  0  0  0  0  0  0  0  0
  -27.5628  -13.1795   19.6558 C   0  0  2  0  0  0  0  0  0  0  0  0
  -30.2173  -18.2412   20.5234 C   0  0  0  0  0  0  0  0  0  0  0  0
  -30.8263  -23.0754   16.3775 C   0  0  0  0  0  0  0  0  0  0  0  0
  -25.5875  -25.9409   19.2437 C   0  0  0  0  0  0  0  0  0  0  0  0
  -26.5089  -24.4788   17.4322 C   0  0  0  0  0  0  0  0  0  0  0  0
  -27.2247  -26.8630   17.5932 C   0  0  0  0  0  0  0  0  0  0  0  0
  -32.6152  -23.2246   19.7321 C   0  0  0  0  0  0  0  0  0  0  0  0
  -28.6589  -19.2090   26.6833 C   0  0  0  0  0  0  0  0  0  0  0  0
  -28.7262  -20.7299   26.7691 C   0  0  0  0  0  0  0  0  0  1  0  0
  -30.4530  -17.2524   21.6757 C   0  0  2  0  0  0  0  0  0  0  0  0
  -28.0600  -25.1999   19.3044 C   0  0  1  0  0  0  0  0  0  0  0  0
  -31.1457  -23.6358   17.7547 C   0  0  2  0  0  0  0  0  0  0  0  0
  -26.8497  -25.6143   18.4207 C   0  0  0  0  0  0  0  0  0  0  0  0
  -30.4543  -18.3984   25.2362 N   0  0  0  0  0  0  0  0  0  0  0  0
  -28.6642  -18.0558   23.1047 N   0  0  0  0  0  0  0  0  0  0  0  0
  -25.8562  -11.5282   20.3216 N   0  0  0  0  0  0  0  0  0  0  0  0
  -26.1618  -12.8206   20.1156 N   0  0  0  0  0  0  0  0  0  0  0  0
  -28.3612  -25.8897   21.6618 N   0  0  0  0  0  0  0  0  0  0  0  0
  -29.8411  -13.8302   20.3445 N   0  0  0  0  0  0  0  0  0  0  0  0
  -25.2636  -15.0107   20.2007 N   0  0  0  0  0  0  0  0  0  0  0  0
  -21.7997  -12.4134   21.4857 N   0  0  0  0  0  0  0  0  0  0  0  0
  -27.0302  -28.6959   23.4178 N   0  0  0  0  0  0  0  0  0  0  0  0
  -29.2769  -24.9109   18.5534 N   0  0  0  0  0  0  0  0  0  0  0  0
  -29.8683  -15.9707   21.3501 N   0  0  0  0  0  0  0  0  0  0  0  0
  -32.1888  -22.7757   18.3817 N   0  3  0  0  0  0  0  0  0  0  0  0
  -22.4579  -14.5722   21.0794 O   0  0  0  0  0  0  0  0  0  0  0  0
  -26.2059  -26.5490   23.0517 O   0  0  0  0  0  0  0  0  0  0  0  0
  -28.7680  -27.3798   19.9153 O   0  0  0  0  0  0  0  0  0  0  0  0
  -29.5342  -22.7353   19.3133 O   0  0  0  0  0  0  0  0  0  0  0  0
  -31.6730  -15.2376   20.1407 O   0  0  0  0  0  0  0  0  0  0  0  0
  -21.8430   -6.8626   21.9573 O   0  0  0  0  0  0  0  0  0  0  0  0
  -27.8931  -21.3070   25.7645 O   0  0  0  0  0  0  0  0  0  1  0  0
  -18.7605   -6.8307   26.5290 F   0  0  0  0  0  0  0  0  0  0  0  0
  -22.3599   -5.0775   24.0040 F   0  0  0  0  0  0  0  0  0  0  0  0
  1  2  1  0  0  0  0
  1  5  2  0  0  0  0
  2  6  2  0  0  0  0
  3  8  2  0  0  0  0
  3 17  1  0  0  0  0
  4  9  1  0  0  0  0
  4 17  2  0  0  0  0
  5 19  1  0  0  0  0
  6 21  1  0  0  0  0
  7 10  2  0  0  0  0
  7 20  1  0  0  0  0
  8 23  1  0  0  0  0
  9 23  2  0  0  0  0
 10 24  1  0  0  0  0
 11 12  2  0  0  0  0
 11 25  1  0  0  0  0
 12 26  1  0  0  0  0
 13 22  1  0  0  0  0
 13 24  2  0  0  0  0
 14 26  2  0  0  0  0
 14 27  1  0  0  0  0
 15 29  1  0  0  0  0
 15 62  2  0  0  0  0
 16 30  2  0  0  0  0
 16 61  1  0  0  0  0
 17 28  1  0  0  0  0
 18 28  1  0  0  0  0
 18 31  2  0  0  0  0
 18 32  1  0  0  0  0
 19 21  2  0  0  0  0
 19 37  1  0  0  0  0
 20 22  2  0  0  0  0
 20 38  1  0  0  0  0
 21 46  1  0  0  0  0
 22 39  1  0  0  0  0
 23 78  1  0  0  0  0
 24 79  1  0  0  0  0
 25 27  2  0  0  0  0
 25 78  1  0  0  0  0
 26 80  1  0  0  0  0
 27 81  1  0  0  0  0
 28 63  2  0  0  0  0
 29 55  1  0  0  0  0
 29 61  2  0  0  0  0
 30 57  1  0  0  0  0
 30 62  1  0  0  0  0
 31 64  1  0  0  0  0
 31 67  1  0  0  0  0
 32 68  1  0  0  0  0
 32 73  2  0  0  0  0
 33 47  1  0  0  0  0
 33 69  1  0  0  0  0
 33 74  2  0  0  0  0
 34 58  1  0  0  0  0
 34 65  1  0  0  0  0
 34 75  2  0  0  0  0
 35 59  1  0  0  0  0
 35 70  1  0  0  0  0
 35 76  2  0  0  0  0
 36 66  1  0  0  0  0
 36 71  1  0  0  0  0
 36 77  2  0  0  0  0
 37 40  1  0  0  0  0
 38 47  1  0  0  0  0
 39 65  1  0  0  0  0
 40 42  1  0  0  0  0
 41 43  1  0  0  0  0
 41 44  1  0  0  0  0
 42 46  1  0  0  0  0
 43 48  1  0  0  0  0
 44 66  1  0  0  0  0
 45 48  1  0  0  0  0
 45 66  1  0  0  0  0
 46 69  1  0  0  0  0
 47 65  1  0  0  0  0
 48 64  1  0  0  0  0
 49 57  1  0  0  0  0
 50 59  1  0  0  0  0
 51 60  1  0  0  0  0
 52 60  1  0  0  0  0
 53 60  1  0  0  0  0
 54 72  1  0  0  0  0
 55 56  1  0  0  0  0
 56 79  1  0  0  0  0
 57 71  1  0  0  0  0
 58 60  1  0  0  0  0
 58 70  1  0  0  0  0
 59 72  1  0  0  0  0
 63 64  1  0  0  0  0
M  CHG  1  72   1
M  ISO  4  36 100  56 101  71 100  79 101
M  END
> <Batch ID>
0054

> <Smiles>
CNC(C)C(=O)NC(C(=O)N1Cc2cc([101O:1][101CH2:1]Cc3cnc(C(C)[100NH:0][100C:0](=O)N4CCCC(n5nc(-c6ccc(Oc7ccc(F)cc7F)cc6)c(C(N)=O)c5N)C4)cn3)ccc2CC1C(=O)NC1CCCc2ccccc21)C(C)(C)C

> <Shape>
0.309

> <Color>
0.208

> <Negative vol penalty>
0.000

$$$$

  -OEChem-04052317413D

 82 90  0     1  0  0  0  0  0999 V2000
  -18.2563  -28.5506   23.8764 C   0  0  0  0  0  0  0  0  0  0  0  0
  -18.9708  -27.3644   23.7426 C   0  0  0  0  0  0  0  0  0  0  0  0
  -23.1394   -9.8454   19.9217 C   0  0  0  0  0  0  0  0  0  0  0  0
  -23.9151   -9.8485   22.2097 C   0  0  0  0  0  0  0  0  0  0  0  0
  -18.3277  -29.5224   22.8792 C   0  0  0  0  0  0  0  0  0  0  0  0
  -19.7563  -27.1489   22.6108 C   0  0  0  0  0  0  0  0  0  0  0  0
  -25.0784  -24.1306   22.3437 C   0  0  0  0  0  0  0  0  0  0  0  0
  -22.4200   -8.6758   20.1671 C   0  0  0  0  0  0  0  0  0  0  0  0
  -23.1957   -8.6790   22.4552 C   0  0  0  0  0  0  0  0  0  0  0  0
  -25.3995  -22.8268   21.9684 C   0  0  0  0  0  0  0  0  0  0  0  0
  -19.9881   -7.8129   23.0732 C   0  0  0  0  0  0  0  0  0  0  0  0
  -19.2403   -7.7485   24.2489 C   0  0  0  0  0  0  0  0  0  0  0  0
  -25.9376  -23.6046   19.7492 C   0  0  0  0  0  0  0  0  0  0  0  0
  -20.5246   -5.8299   24.9607 C   0  0  0  0  0  0  0  0  0  0  0  0
  -23.8870  -10.4317   20.9430 C   0  0  0  0  0  0  0  0  0  0  0  0
  -24.1783  -12.9640   20.8416 C   0  0  0  0  0  0  0  0  0  0  0  0
  -19.1221  -29.3227   21.7392 C   0  0  0  0  0  0  0  0  0  0  0  0
  -25.1742  -25.1812   21.4199 C   0  0  0  0  0  0  0  0  0  0  0  0
  -19.8374  -28.1184   21.5968 C   0  0  0  0  0  0  0  0  0  0  0  0
  -25.6196  -24.9212   20.1160 C   0  0  0  0  0  0  0  0  0  0  0  0
  -22.4482   -8.0926   21.4339 C   0  0  0  0  0  0  0  0  0  0  0  0
  -25.8264  -22.5632   20.6702 C   0  0  0  0  0  0  0  0  0  0  0  0
  -21.0041   -6.8858   22.8412 C   0  0  0  0  0  0  0  0  0  0  0  0
  -19.5086   -6.7570   25.1926 C   0  0  0  0  0  0  0  0  0  0  0  0
  -21.2724   -5.8943   23.7849 C   0  0  0  0  0  0  0  0  0  0  0  0
  -24.6307  -11.6396   20.6899 C   0  0  0  0  0  0  0  0  0  0  0  0
  -25.2530  -13.7378   20.4771 C   0  0  0  0  0  0  0  0  0  0  0  0
  -26.2297  -17.6532   17.8727 C   0  0  0  0  0  0  0  0  0  0  0  0
  -28.1410  -17.8301   19.0357 C   0  0  0  0  0  0  0  0  0  0  0  0
  -26.8383  -19.6331   18.7369 C   0  0  0  0  0  0  0  0  0  0  0  0
  -22.9010  -13.4513   21.2735 C   0  0  0  0  0  0  0  0  0  0  0  0
  -23.1151  -27.2354   20.1375 C   0  0  0  0  0  0  0  0  0  0  0  0
  -25.8012  -28.5288   18.8590 C   0  0  0  0  0  0  0  0  0  0  0  0
  -29.0434  -28.0986   17.8845 C   0  0  0  0  0  0  0  0  0  0  0  0
  -30.8481  -14.5556   21.0626 C   0  0  0  0  0  0  0  0  0  0  0  0
  -19.1306  -30.3821   20.6657 C   0  0  0  0  0  0  0  0  0  0  0  0
  -24.8497  -26.5862   21.8480 C   0  0  0  0  0  0  0  0  0  0  0  0
  -25.7589  -26.0170   19.0922 C   0  0  0  0  0  0  0  0  0  0  0  0
  -20.2814  -30.2347   19.6736 C   0  0  0  0  0  0  0  0  0  0  0  0
  -29.6088  -12.5091   18.2382 C   0  0  0  0  0  0  0  0  0  0  0  0
  -20.4083  -28.7856   19.2146 C   0  0  0  0  0  0  0  0  0  0  0  0
  -28.1898  -12.1556   18.6804 C   0  0  0  0  0  0  0  0  0  0  0  0
  -30.5353  -12.7316   19.4296 C   0  0  0  0  0  0  0  0  0  0  0  0
  -28.6161  -13.3881   20.8437 C   0  0  0  0  0  0  0  0  0  0  0  0
  -20.7201  -27.8582   20.3954 C   0  0  1  0  0  0  0  0  0  0  0  0
  -24.4915  -27.4992   20.6795 C   0  0  1  0  0  0  0  0  0  0  0  0
  -27.6458  -13.2032   19.6674 C   0  0  2  0  0  0  0  0  0  0  0  0
  -25.2633  -16.8260   17.0952 C   0  0  0  0  0  0  0  0  0  0  0  0
  -30.9660  -29.3273   16.8399 C   0  0  0  0  0  0  0  0  0  0  0  0
  -24.4621  -28.2968   16.1272 C   0  0  0  0  0  0  0  0  0  0  0  0
  -26.7102  -28.6241   15.0749 C   0  0  0  0  0  0  0  0  0  0  0  0
  -25.7246  -30.4244   16.4927 C   0  0  0  0  0  0  0  0  0  0  0  0
  -31.2309  -16.7515   22.1167 C   0  0  0  0  0  0  0  0  0  0  0  0
  -30.7429  -27.7084   20.2758 C   0  0  0  0  0  0  0  0  0  0  0  0
  -29.3736  -17.2066   19.5965 C   0  0  0  0  0  0  0  0  0  0  0  0
  -26.5704  -21.0932   18.9551 C   0  0  0  0  0  0  0  0  0  1  0  0
  -29.1266  -16.4009   20.8778 C   0  0  0  0  0  0  0  0  0  0  0  0
  -26.5899  -28.3171   17.5894 C   0  0  1  0  0  0  0  0  0  0  0  0
  -30.2906  -28.9248   18.1417 C   0  0  2  0  0  0  0  0  0  0  0  0
  -25.8673  -28.8944   16.3395 C   0  0  0  0  0  0  0  0  0  0  0  0
  -25.8942  -11.5721   20.2622 N   0  0  0  0  0  0  0  0  0  0  0  0
  -27.3172  -17.0240   18.3471 N   0  0  0  0  0  0  0  0  0  0  0  0
  -25.9242  -18.9516   18.0275 N   0  0  0  0  0  0  0  0  0  0  0  0
  -27.9677  -19.1408   19.2707 N   0  0  0  0  0  0  0  0  0  0  0  0
  -26.2450  -12.8638   20.1419 N   0  0  0  0  0  0  0  0  0  0  0  0
  -25.4237  -27.3731   19.5573 N   0  0  0  0  0  0  0  0  0  0  0  0
  -29.9742  -13.6992   20.3730 N   0  0  0  0  0  0  0  0  0  0  0  0
  -25.4367  -15.0737   20.4137 N   0  0  0  0  0  0  0  0  0  0  0  0
  -21.9095  -12.5197   21.6101 N   0  0  0  0  0  0  0  0  0  0  0  0
  -22.1166  -27.9584   20.7617 N   0  0  0  0  0  0  0  0  0  0  0  0
  -27.9120  -28.8848   17.8306 N   0  0  0  0  0  0  0  0  0  0  0  0
  -30.3586  -15.8236   21.4110 N   0  0  0  0  0  0  0  0  0  0  0  0
  -31.2670  -28.1487   18.9574 N   0  3  0  0  0  0  0  0  0  0  0  0
  -22.6410  -14.6765   21.3427 O   0  0  0  0  0  0  0  0  0  0  0  0
  -22.9701  -26.4362   19.2199 O   0  0  0  0  0  0  0  0  0  0  0  0
  -25.5361  -29.6777   19.2218 O   0  0  0  0  0  0  0  0  0  0  0  0
  -29.0706  -26.8782   17.7417 O   0  0  0  0  0  0  0  0  0  0  0  0
  -32.0034  -14.2104   21.3420 O   0  0  0  0  0  0  0  0  0  0  0  0
  -21.7462   -6.9515   21.6738 O   0  0  0  0  0  0  0  0  0  0  0  0
  -26.1398  -21.2914   20.3011 O   0  0  0  0  0  0  0  0  0  1  0  0
  -18.7914   -6.6963   26.3223 F   0  0  0  0  0  0  0  0  0  0  0  0
  -22.2480   -5.0015   23.5681 F   0  0  0  0  0  0  0  0  0  0  0  0
  1  2  1  0  0  0  0
  1  5  2  0  0  0  0
  2  6  2  0  0  0  0
  3  8  2  0  0  0  0
  3 15  1  0  0  0  0
  4  9  1  0  0  0  0
  4 15  2  0  0  0  0
  5 17  1  0  0  0  0
  6 19  1  0  0  0  0
  7 10  2  0  0  0  0
  7 18  1  0  0  0  0
  8 21  1  0  0  0  0
  9 21  2  0  0  0  0
 10 22  1  0  0  0  0
 11 12  2  0  0  0  0
 11 23  1  0  0  0  0
 12 24  1  0  0  0  0
 13 20  1  0  0  0  0
 13 22  2  0  0  0  0
 14 24  2  0  0  0  0
 14 25  1  0  0  0  0
 15 26  1  0  0  0  0
 16 26  1  0  0  0  0
 16 27  2  0  0  0  0
 16 31  1  0  0  0  0
 17 19  2  0  0  0  0
 17 36  1  0  0  0  0
 18 20  2  0  0  0  0
 18 37  1  0  0  0  0
 19 45  1  0  0  0  0
 20 38  1  0  0  0  0
 21 79  1  0  0  0  0
 22 80  1  0  0  0  0
 23 25  2  0  0  0  0
 23 79  1  0  0  0  0
 24 81  1  0  0  0  0
 25 82  1  0  0  0  0
 26 61  2  0  0  0  0
 27 65  1  0  0  0  0
 27 68  1  0  0  0  0
 28 48  1  0  0  0  0
 28 62  1  0  0  0  0
 28 63  2  0  0  0  0
 29 55  1  0  0  0  0
 29 62  2  0  0  0  0
 29 64  1  0  0  0  0
 30 56  1  0  0  0  0
 30 63  1  0  0  0  0
 30 64  2  0  0  0  0
 31 69  1  0  0  0  0
 31 74  2  0  0  0  0
 32 46  1  0  0  0  0
 32 70  1  0  0  0  0
 32 75  2  0  0  0  0
 33 58  1  0  0  0  0
 33 66  1  0  0  0  0
 33 76  2  0  0  0  0
 34 59  1  0  0  0  0
 34 71  1  0  0  0  0
 34 77  2  0  0  0  0
 35 67  1  0  0  0  0
 35 72  1  0  0  0  0
 35 78  2  0  0  0  0
 36 39  1  0  0  0  0
 37 46  1  0  0  0  0
 38 66  1  0  0  0  0
 39 41  1  0  0  0  0
 40 42  1  0  0  0  0
 40 43  1  0  0  0  0
 41 45  1  0  0  0  0
 42 47  1  0  0  0  0
 43 67  1  0  0  0  0
 44 47  1  0  0  0  0
 44 67  1  0  0  0  0
 45 70  1  0  0  0  0
 46 66  1  0  0  0  0
 47 65  1  0  0  0  0
 49 59  1  0  0  0  0
 50 60  1  0  0  0  0
 51 60  1  0  0  0  0
 52 60  1  0  0  0  0
 53 72  1  0  0  0  0
 54 73  1  0  0  0  0
 55 57  1  0  0  0  0
 56 80  1  0  0  0  0
 57 72  1  0  0  0  0
 58 60  1  0  0  0  0
 58 71  1  0  0  0  0
 59 73  1  0  0  0  0
 61 65  1  0  0  0  0
M  CHG  1  73   1
M  ISO  4  35 100  56 101  72 100  80 101
M  END
> <Batch ID>
0054

> <Smiles>
CNC(C)C(=O)NC(C(=O)N1Cc2cc([101O:1][101CH2:1]c3nc(C)nc(CC[100N:0](C)[100C:0](=O)N4CCCC(n5nc(-c6ccc(Oc7ccc(F)cc7F)cc6)c(C(N)=O)c5N)C4)n3)ccc2CC1C(=O)NC1CCCc2ccccc21)C(C)(C)C

> <Shape>
0.281

> <Color>
0.188

> <Negative vol penalty>
0.000

$$$$

  -OEChem-04052317413D

 78 86  0     1  0  0  0  0  0999 V2000
  -24.7236  -23.7640   23.5707 C   0  0  0  0  0  0  0  0  0  0  0  0
  -25.9040  -23.0287   23.5339 C   0  0  0  0  0  0  0  0  0  0  0  0
  -22.9983   -9.8969   19.9865 C   0  0  0  0  0  0  0  0  0  0  0  0
  -23.7582   -9.9384   22.2795 C   0  0  0  0  0  0  0  0  0  0  0  0
  -24.7625  -25.1291   23.8516 C   0  0  0  0  0  0  0  0  0  0  0  0
  -27.1242  -23.6583   23.7770 C   0  0  0  0  0  0  0  0  0  0  0  0
  -30.0986  -20.9940   26.8914 C   0  0  0  0  0  0  0  0  0  0  0  0
  -22.2399   -8.7583   20.2584 C   0  0  0  0  0  0  0  0  0  0  0  0
  -22.9997   -8.7998   22.5514 C   0  0  0  0  0  0  0  0  0  0  0  0
  -30.7773  -19.9048   26.3467 C   0  0  0  0  0  0  0  0  0  0  0  0
  -23.2486   -5.4643   22.0582 C   0  0  0  0  0  0  0  0  0  0  0  0
  -23.8511   -4.4453   22.7959 C   0  0  0  0  0  0  0  0  0  0  0  0
  -32.7777  -21.2426   26.1797 C   0  0  0  0  0  0  0  0  0  0  0  0
  -22.1520   -4.6732   24.4984 C   0  0  0  0  0  0  0  0  0  0  0  0
  -31.1222  -17.9844   21.4736 C   0  0  0  0  0  0  0  0  0  0  0  0
  -23.7575  -10.4870   20.9970 C   0  0  0  0  0  0  0  0  0  0  0  0
  -24.1312  -13.0048   20.8285 C   0  0  0  0  0  0  0  0  0  0  0  0
  -25.9829  -25.7739   24.1078 C   0  0  0  0  0  0  0  0  0  0  0  0
  -30.7524  -22.2209   27.0746 C   0  0  0  0  0  0  0  0  0  0  0  0
  -27.1796  -25.0336   24.0603 C   0  0  0  0  0  0  0  0  0  0  0  0
  -32.1058  -22.3451   26.7294 C   0  0  0  0  0  0  0  0  0  0  0  0
  -22.2406   -8.2097   21.5409 C   0  0  0  0  0  0  0  0  0  0  0  0
  -32.1163  -20.0298   25.9881 C   0  0  0  0  0  0  0  0  0  0  0  0
  -22.0979   -6.0879   22.5406 C   0  0  0  0  0  0  0  0  0  0  0  0
  -23.3028   -4.0497   24.0160 C   0  0  0  0  0  0  0  0  0  0  0  0
  -21.5496   -5.6923   23.7607 C   0  0  0  0  0  0  0  0  0  0  0  0
  -24.5416  -11.6629   20.7166 C   0  0  0  0  0  0  0  0  0  0  0  0
  -25.2328  -13.7333   20.4511 C   0  0  0  0  0  0  0  0  0  0  0  0
  -32.7680  -17.8405   22.7495 C   0  0  0  0  0  0  0  0  0  0  0  0
  -22.8674  -13.5446   21.2371 C   0  0  0  0  0  0  0  0  0  0  0  0
  -30.3567  -25.1646   25.9423 C   0  0  0  0  0  0  0  0  0  0  0  0
  -30.7490  -14.6216   20.7194 C   0  0  0  0  0  0  0  0  0  0  0  0
  -32.7007  -25.8781   28.0681 C   0  0  0  0  0  0  0  0  0  0  0  0
  -35.3597  -24.8034   29.9178 C   0  0  0  0  0  0  0  0  0  0  0  0
  -25.9794  -27.2608   24.3603 C   0  0  0  0  0  0  0  0  0  0  0  0
  -30.0135  -23.3785   27.6882 C   0  0  0  0  0  0  0  0  0  0  0  0
  -32.8589  -23.6347   26.9246 C   0  0  0  0  0  0  0  0  0  0  0  0
  -27.2774  -27.7771   24.9758 C   0  0  0  0  0  0  0  0  0  0  0  0
  -29.5552  -12.2923   18.2720 C   0  0  0  0  0  0  0  0  0  0  0  0
  -28.4831  -27.2051   24.2370 C   0  0  0  0  0  0  0  0  0  0  0  0
  -28.1210  -12.0082   18.7164 C   0  0  0  0  0  0  0  0  0  0  0  0
  -30.4782  -12.5064   19.4676 C   0  0  0  0  0  0  0  0  0  0  0  0
  -28.5843  -13.2919   20.8524 C   0  0  0  0  0  0  0  0  0  0  0  0
  -28.5204  -25.6758   24.3430 C   0  0  1  0  0  0  0  0  0  0  0  0
  -30.6365  -24.7301   27.3532 C   0  0  1  0  0  0  0  0  0  0  0  0
  -27.6126  -13.1000   19.6745 C   0  0  2  0  0  0  0  0  0  0  0  0
  -37.0986  -25.6249   31.5299 C   0  0  0  0  0  0  0  0  0  0  0  0
  -34.2303  -27.1610   25.7607 C   0  0  0  0  0  0  0  0  0  0  0  0
  -36.2896  -27.0993   27.1832 C   0  0  0  0  0  0  0  0  0  0  0  0
  -34.3151  -28.4406   27.9077 C   0  0  0  0  0  0  0  0  0  0  0  0
  -34.4011  -22.9934   32.0541 C   0  0  0  0  0  0  0  0  0  0  0  0
  -34.0096  -18.0928   23.5699 C   0  0  0  0  0  0  0  0  0  0  0  0
  -30.1335  -15.6415   21.6440 C   0  0  0  0  0  0  0  0  0  0  0  0
  -33.8371  -19.2564   24.5400 C   0  0  0  0  0  0  0  0  0  1  0  0
  -34.2091  -25.9172   28.0231 C   0  0  1  0  0  0  0  0  0  0  0  0
  -35.7178  -25.0057   31.3791 C   0  0  2  0  0  0  0  0  0  0  0  0
  -34.7466  -27.1306   27.2131 C   0  0  0  0  0  0  0  0  0  0  0  0
  -32.1684  -18.7090   21.9687 N   0  0  0  0  0  0  0  0  0  0  0  0
  -25.8051  -11.5430   20.3005 N   0  0  0  0  0  0  0  0  0  0  0  0
  -32.1007  -16.6559   22.7137 N   0  0  0  0  0  0  0  0  0  0  0  0
  -31.0367  -16.7222   21.8991 N   0  0  0  0  0  0  0  0  0  0  0  0
  -26.1982  -12.8190   20.1476 N   0  0  0  0  0  0  0  0  0  0  0  0
  -32.0910  -24.7395   27.5223 N   0  0  0  0  0  0  0  0  0  0  0  0
  -29.9491  -13.5350   20.3650 N   0  0  0  0  0  0  0  0  0  0  0  0
  -25.4600  -15.0604   20.3525 N   0  0  0  0  0  0  0  0  0  0  0  0
  -21.8440  -12.6550   21.5915 N   0  0  0  0  0  0  0  0  0  0  0  0
  -29.0119  -25.2711   25.6427 N   0  0  0  0  0  0  0  0  0  0  0  0
  -34.6601  -25.8776   29.4100 N   0  0  0  0  0  0  0  0  0  0  0  0
  -35.7061  -23.7018   32.1006 N   0  3  0  0  0  0  0  0  0  0  0  0
  -22.6467  -14.7790   21.2706 O   0  0  0  0  0  0  0  0  0  0  0  0
  -31.2916  -25.3881   25.1823 O   0  0  0  0  0  0  0  0  0  0  0  0
  -31.9052  -14.7889   20.3226 O   0  0  0  0  0  0  0  0  0  0  0  0
  -32.0862  -26.8197   28.5755 O   0  0  0  0  0  0  0  0  0  0  0  0
  -35.6728  -23.7951   29.2887 O   0  0  0  0  0  0  0  0  0  0  0  0
  -21.5005   -7.0988   21.8067 O   0  0  0  0  0  0  0  0  0  0  0  0
  -32.7810  -18.9685   25.4556 O   0  0  0  0  0  0  0  0  0  1  0  0
  -23.8806   -3.0701   24.7236 F   0  0  0  0  0  0  0  0  0  0  0  0
  -20.4435   -6.2868   24.2287 F   0  0  0  0  0  0  0  0  0  0  0  0
  1  2  1  0  0  0  0
  1  5  2  0  0  0  0
  2  6  2  0  0  0  0
  3  8  2  0  0  0  0
  3 16  1  0  0  0  0
  4  9  1  0  0  0  0
  4 16  2  0  0  0  0
  5 18  1  0  0  0  0
  6 20  1  0  0  0  0
  7 10  2  0  0  0  0
  7 19  1  0  0  0  0
  8 22  1  0  0  0  0
  9 22  2  0  0  0  0
 10 23  1  0  0  0  0
 11 12  2  0  0  0  0
 11 24  1  0  0  0  0
 12 25  1  0  0  0  0
 13 21  1  0  0  0  0
 13 23  2  0  0  0  0
 14 25  2  0  0  0  0
 14 26  1  0  0  0  0
 15 58  2  0  0  0  0
 15 61  1  0  0  0  0
 16 27  1  0  0  0  0
 17 27  1  0  0  0  0
 17 28  2  0  0  0  0
 17 30  1  0  0  0  0
 18 20  2  0  0  0  0
 18 35  1  0  0  0  0
 19 21  2  0  0  0  0
 19 36  1  0  0  0  0
 20 44  1  0  0  0  0
 21 37  1  0  0  0  0
 22 75  1  0  0  0  0
 23 76  1  0  0  0  0
 24 26  2  0  0  0  0
 24 75  1  0  0  0  0
 25 77  1  0  0  0  0
 26 78  1  0  0  0  0
 27 59  2  0  0  0  0
 28 62  1  0  0  0  0
 28 65  1  0  0  0  0
 29 52  1  0  0  0  0
 29 58  1  0  0  0  0
 29 60  2  0  0  0  0
 30 66  1  0  0  0  0
 30 70  2  0  0  0  0
 31 45  1  0  0  0  0
 31 67  1  0  0  0  0
 31 71  2  0  0  0  0
 32 53  1  0  0  0  0
 32 64  1  0  0  0  0
 32 72  2  0  0  0  0
 33 55  1  0  0  0  0
 33 63  1  0  0  0  0
 33 73  2  0  0  0  0
 34 56  1  0  0  0  0
 34 68  1  0  0  0  0
 34 74  2  0  0  0  0
 35 38  1  0  0  0  0
 36 45  1  0  0  0  0
 37 63  1  0  0  0  0
 38 40  1  0  0  0  0
 39 41  1  0  0  0  0
 39 42  1  0  0  0  0
 40 44  1  0  0  0  0
 41 46  1  0  0  0  0
 42 64  1  0  0  0  0
 43 46  1  0  0  0  0
 43 64  1  0  0  0  0
 44 67  1  0  0  0  0
 45 63  1  0  0  0  0
 46 62  1  0  0  0  0
 47 56  1  0  0  0  0
 48 57  1  0  0  0  0
 49 57  1  0  0  0  0
 50 57  1  0  0  0  0
 51 69  1  0  0  0  0
 52 54  1  0  0  0  0
 53 61  1  0  0  0  0
 54 76  1  0  0  0  0
 55 57  1  0  0  0  0
 55 68  1  0  0  0  0
 56 69  1  0  0  0  0
 59 62  1  0  0  0  0
 60 61  1  0  0  0  0
M  CHG  1  69   1
M  ISO  4  32 100  53 100  54 101  76 101
M  END
> <Batch ID>
0054

> <Smiles>
CNC(C)C(=O)NC(C(=O)N1Cc2cc([101O:1][101CH2:1]Cc3ncn([100CH2:0][100C:0](=O)N4CCCC(n5nc(-c6ccc(Oc7ccc(F)cc7F)cc6)c(C(N)=O)c5N)C4)n3)ccc2CC1C(=O)NC1CCCc2ccccc21)C(C)(C)C

> <Shape>
0.178

> <Color>
0.200

> <Negative vol penalty>
0.000

$$$$

  -OEChem-04052317413D

 82 90  0     1  0  0  0  0  0999 V2000
  -23.7983   -8.3214   20.9368 C   0  0  0  0  0  0  0  0  0  0  0  0
  -24.9417   -9.0610   20.6520 C   0  0  0  0  0  0  0  0  0  0  0  0
  -24.9573  -28.9679   23.1021 C   0  0  0  0  0  0  0  0  0  0  0  0
  -24.2244  -27.0077   21.8947 C   0  0  0  0  0  0  0  0  0  0  0  0
  -22.5766   -8.9693   21.1144 C   0  0  0  0  0  0  0  0  0  0  0  0
  -24.8637  -10.4491   20.5436 C   0  0  0  0  0  0  0  0  0  0  0  0
  -29.1329  -14.5165   22.1979 C   0  0  0  0  0  0  0  0  0  0  0  0
  -23.6906  -29.5327   22.9541 C   0  0  0  0  0  0  0  0  0  0  0  0
  -22.9576  -27.5725   21.7468 C   0  0  0  0  0  0  0  0  0  0  0  0
  -30.1041  -15.2045   21.4720 C   0  0  0  0  0  0  0  0  0  0  0  0
  -19.4254  -28.3444   21.3641 C   0  0  0  0  0  0  0  0  0  0  0  0
  -18.3192  -27.5307   21.6083 C   0  0  0  0  0  0  0  0  0  0  0  0
  -30.9298  -20.0492   21.0190 C   0  0  0  0  0  0  0  0  0  0  0  0
  -28.6235  -17.1012   21.3002 C   0  0  0  0  0  0  0  0  0  0  0  0
  -19.0760  -27.1823   23.8762 C   0  0  0  0  0  0  0  0  0  0  0  0
  -30.3793  -21.2924   21.2133 C   0  0  0  0  0  0  0  0  0  0  0  0
  -25.2242  -27.7054   22.5723 C   0  0  0  0  0  0  0  0  0  0  0  0
  -26.9816  -26.3041   23.7788 C   0  0  0  0  0  0  0  0  0  0  0  0
  -22.4855  -10.3668   21.0177 C   0  0  0  0  0  0  0  0  0  0  0  0
  -27.8934  -15.1125   22.4715 C   0  0  0  0  0  0  0  0  0  0  0  0
  -23.6394  -11.1162   20.7188 C   0  0  0  0  0  0  0  0  0  0  0  0
  -27.6391  -16.4196   22.0319 C   0  0  0  0  0  0  0  0  0  0  0  0
  -22.6907  -28.8351   22.2765 C   0  0  0  0  0  0  0  0  0  0  0  0
  -29.8485  -16.4960   21.0205 C   0  0  0  0  0  0  0  0  0  0  0  0
  -20.3571  -28.5771   22.3759 C   0  0  0  0  0  0  0  0  0  0  0  0
  -18.1445  -26.9496   22.8643 C   0  0  0  0  0  0  0  0  0  0  0  0
  -20.1823  -27.9960   23.6319 C   0  0  0  0  0  0  0  0  0  0  0  0
  -26.5328  -27.1216   22.7243 C   0  0  0  0  0  0  0  0  0  0  0  0
  -30.1677  -19.4856   19.9782 C   0  0  0  0  0  0  0  0  0  0  0  0
  -28.2850  -26.0137   23.4573 C   0  0  0  0  0  0  0  0  0  0  0  0
  -26.2828  -25.8478   24.9446 C   0  0  0  0  0  0  0  0  0  0  0  0
  -24.8733  -14.4469   21.7368 C   0  0  0  0  0  0  0  0  0  0  0  0
  -24.2500  -16.9293   23.7297 C   0  0  0  0  0  0  0  0  0  0  0  0
  -25.3462  -19.8027   25.2091 C   0  0  0  0  0  0  0  0  0  0  0  0
  -30.9723  -26.1615   17.9532 C   0  0  0  0  0  0  0  0  0  0  0  0
  -21.1340  -11.0184   21.1709 C   0  0  0  0  0  0  0  0  0  0  0  0
  -26.8663  -14.3670   23.2787 C   0  0  0  0  0  0  0  0  0  0  0  0
  -26.3322  -17.1118   22.3167 C   0  0  0  0  0  0  0  0  0  0  0  0
  -21.2075  -12.5243   21.4100 C   0  0  0  0  0  0  0  0  0  0  0  0
  -32.0548  -27.7720   21.1053 C   0  0  0  0  0  0  0  0  0  0  0  0
  -22.1800  -13.1735   20.4305 C   0  0  0  0  0  0  0  0  0  0  0  0
  -30.7716  -27.7777   21.9343 C   0  0  0  0  0  0  0  0  0  0  0  0
  -31.7632  -27.8127   19.6083 C   0  0  0  0  0  0  0  0  0  0  0  0
  -29.5650  -26.7407   19.9723 C   0  0  0  0  0  0  0  0  0  0  0  0
  -23.5999  -12.6256   20.6179 C   0  0  1  0  0  0  0  0  0  0  0  0
  -25.4461  -14.8783   23.0572 C   0  0  1  0  0  0  0  0  0  0  0  0
  -29.8227  -26.6533   21.4841 C   0  0  2  0  0  0  0  0  0  0  0  0
  -31.3079  -18.1385   18.1815 C   0  0  0  0  0  0  0  0  0  0  0  0
  -24.5982  -21.6306   26.7573 C   0  0  0  0  0  0  0  0  0  0  0  0
  -22.6112  -18.1667   21.4729 C   0  0  0  0  0  0  0  0  0  0  0  0
  -22.6952  -20.3468   22.7011 C   0  0  0  0  0  0  0  0  0  0  0  0
  -21.5825  -18.3723   23.7431 C   0  0  0  0  0  0  0  0  0  0  0  0
  -30.7191  -24.1528   16.5458 C   0  0  0  0  0  0  0  0  0  0  0  0
  -27.4491  -19.1477   27.1859 C   0  0  0  0  0  0  0  0  0  0  0  0
  -28.8520  -23.4184   18.9433 C   0  0  0  0  0  0  0  0  0  0  0  0
  -28.4830  -22.5261   20.1361 C   0  0  0  0  0  0  0  0  0  0  0  0
  -30.2848  -23.9467   18.9654 C   0  0  0  0  0  0  0  0  0  0  0  0
  -30.3330  -18.1198   19.3519 C   0  0  1  0  0  0  0  0  0  1  0  0
  -24.1039  -18.4227   23.5640 C   0  0  1  0  0  0  0  0  0  0  0  0
  -25.2883  -20.2797   26.6491 C   0  0  2  0  0  0  0  0  0  0  0  0
  -22.7722  -18.8136   22.8631 C   0  0  0  0  0  0  0  0  0  0  0  0
  -27.4746  -27.3370   21.8020 N   0  0  0  0  0  0  0  0  0  0  0  0
  -29.2062  -20.3036   19.5419 N   0  0  0  0  0  0  0  0  0  0  0  0
  -29.3604  -21.3938   20.3124 N   0  0  0  0  0  0  0  0  0  0  0  0
  -28.5282  -26.6505   22.2759 N   0  0  0  0  0  0  0  0  0  0  0  0
  -25.3575  -16.3391   23.1043 N   0  0  0  0  0  0  0  0  0  0  0  0
  -30.8255  -26.7604   19.2151 N   0  0  0  0  0  0  0  0  0  0  0  0
  -29.2353  -25.2784   24.0727 N   0  0  0  0  0  0  0  0  0  0  0  0
  -24.9486  -26.2396   25.1200 N   0  0  0  0  0  0  0  0  0  0  0  0
  -24.2250  -13.2273   21.7762 N   0  0  0  0  0  0  0  0  0  0  0  0
  -24.2709  -18.9992   24.8937 N   0  0  0  0  0  0  0  0  0  0  0  0
  -30.5756  -24.8212   17.8313 N   0  0  0  0  0  0  0  0  0  0  0  0
  -26.6639  -20.4086   27.2078 N   0  3  0  0  0  0  0  0  0  0  0  0
  -26.8305  -25.1279   25.8137 O   0  0  0  0  0  0  0  0  0  0  0  0
  -25.0082  -15.1680   20.7552 O   0  0  0  0  0  0  0  0  0  0  0  0
  -23.4164  -16.3103   24.3956 O   0  0  0  0  0  0  0  0  0  0  0  0
  -26.2525  -20.1149   24.4399 O   0  0  0  0  0  0  0  0  0  0  0  0
  -31.4407  -26.7861   16.9928 O   0  0  0  0  0  0  0  0  0  0  0  0
  -21.4544  -29.3858   22.1322 O   0  0  0  0  0  0  0  0  0  0  0  0
  -30.7946  -17.1696   20.3112 O   0  0  0  0  0  0  0  0  0  1  0  0
  -17.0813  -26.1695   23.0992 F   0  0  0  0  0  0  0  0  0  0  0  0
  -21.0733  -28.2169   24.6082 F   0  0  0  0  0  0  0  0  0  0  0  0
  1  2  1  0  0  0  0
  1  5  2  0  0  0  0
  2  6  2  0  0  0  0
  3  8  2  0  0  0  0
  3 17  1  0  0  0  0
  4  9  1  0  0  0  0
  4 17  2  0  0  0  0
  5 19  1  0  0  0  0
  6 21  1  0  0  0  0
  7 10  2  0  0  0  0
  7 20  1  0  0  0  0
  8 23  1  0  0  0  0
  9 23  2  0  0  0  0
 10 24  1  0  0  0  0
 11 12  2  0  0  0  0
 11 25  1  0  0  0  0
 12 26  1  0  0  0  0
 13 16  2  0  0  0  0
 13 29  1  0  0  0  0
 14 22  1  0  0  0  0
 14 24  2  0  0  0  0
 15 26  2  0  0  0  0
 15 27  1  0  0  0  0
 16 64  1  0  0  0  0
 17 28  1  0  0  0  0
 18 28  1  0  0  0  0
 18 30  2  0  0  0  0
 18 31  1  0  0  0  0
 19 21  2  0  0  0  0
 19 36  1  0  0  0  0
 20 22  2  0  0  0  0
 20 37  1  0  0  0  0
 21 45  1  0  0  0  0
 22 38  1  0  0  0  0
 23 79  1  0  0  0  0
 24 80  1  0  0  0  0
 25 27  2  0  0  0  0
 25 79  1  0  0  0  0
 26 81  1  0  0  0  0
 27 82  1  0  0  0  0
 28 62  2  0  0  0  0
 29 58  1  0  0  0  0
 29 63  2  0  0  0  0
 30 65  1  0  0  0  0
 30 68  1  0  0  0  0
 31 69  1  0  0  0  0
 31 74  2  0  0  0  0
 32 46  1  0  0  0  0
 32 70  1  0  0  0  0
 32 75  2  0  0  0  0
 33 59  1  0  0  0  0
 33 66  1  0  0  0  0
 33 76  2  0  0  0  0
 34 60  1  0  0  0  0
 34 71  1  0  0  0  0
 34 77  2  0  0  0  0
 35 67  1  0  0  0  0
 35 72  1  0  0  0  0
 35 78  2  0  0  0  0
 36 39  1  0  0  0  0
 37 46  1  0  0  0  0
 38 66  1  0  0  0  0
 39 41  1  0  0  0  0
 40 42  1  0  0  0  0
 40 43  1  0  0  0  0
 41 45  1  0  0  0  0
 42 47  1  0  0  0  0
 43 67  1  0  0  0  0
 44 47  1  0  0  0  0
 44 67  1  0  0  0  0
 45 70  1  0  0  0  0
 46 66  1  0  0  0  0
 47 65  1  0  0  0  0
 48 58  1  0  0  0  0
 49 60  1  0  0  0  0
 50 61  1  0  0  0  0
 51 61  1  0  0  0  0
 52 61  1  0  0  0  0
 53 72  1  0  0  0  0
 54 73  1  0  0  0  0
 55 56  1  0  0  0  0
 55 57  1  0  0  0  0
 56 64  1  0  0  0  0
 57 72  1  0  0  0  0
 58 80  1  0  0  0  0
 59 61  1  0  0  0  0
 59 71  1  0  0  0  0
 60 73  1  0  0  0  0
 62 65  1  0  0  0  0
 63 64  1  0  0  0  0
M  CHG  1  73   1
M  ISO  4  35 100  58 101  72 100  80 101
M  END
> <Batch ID>
0054

> <Smiles>
CNC(C)C(=O)NC(C(=O)N1Cc2cc([101O:1][101CH:1](C)c3ccn(CCC[100N:0](C)[100C:0](=O)N4CCCC(n5nc(-c6ccc(Oc7ccc(F)cc7F)cc6)c(C(N)=O)c5N)C4)n3)ccc2CC1C(=O)NC1CCCc2ccccc21)C(C)(C)C

> <Shape>
0.236

> <Color>
0.072

> <Negative vol penalty>
0.000

$$$$

  -OEChem-04052317413D

 80 88  0     1  0  0  0  0  0999 V2000
  -17.3434  -31.7518   23.4836 C   0  0  0  0  0  0  0  0  0  0  0  0
  -18.5539  -32.1775   22.9461 C   0  0  0  0  0  0  0  0  0  0  0  0
  -29.5793  -17.7112   20.1320 C   0  0  0  0  0  0  0  0  0  0  0  0
  -27.3047  -18.2776   20.7172 C   0  0  0  0  0  0  0  0  0  0  0  0
  -17.2759  -30.5431   24.1753 C   0  0  0  0  0  0  0  0  0  0  0  0
  -19.6978  -31.3952   23.1008 C   0  0  0  0  0  0  0  0  0  0  0  0
  -25.7637  -29.6442   19.7163 C   0  0  0  0  0  0  0  0  0  0  0  0
  -29.3376  -16.3821   20.4791 C   0  0  0  0  0  0  0  0  0  0  0  0
  -27.0630  -16.9484   21.0643 C   0  0  0  0  0  0  0  0  0  0  0  0
  -27.1409  -29.5983   19.9286 C   0  0  0  0  0  0  0  0  0  0  0  0
  -29.2143  -12.7699   20.8691 C   0  0  0  0  0  0  0  0  0  0  0  0
  -29.6729  -11.7793   20.0008 C   0  0  0  0  0  0  0  0  0  0  0  0
  -26.8880  -27.4906   21.0743 C   0  0  0  0  0  0  0  0  0  0  0  0
  -28.2971  -12.6895   18.2356 C   0  0  0  0  0  0  0  0  0  0  0  0
  -33.6537  -26.2481   23.7805 C   0  0  0  0  0  0  0  0  0  0  0  0
  -33.9342  -28.1943   22.9654 C   0  0  0  0  0  0  0  0  0  0  0  0
  -28.5628  -18.6591   20.2511 C   0  0  0  0  0  0  0  0  0  0  0  0
  -28.6348  -20.6272   18.6297 C   0  0  0  0  0  0  0  0  0  0  0  0
  -18.4174  -29.7410   24.3303 C   0  0  0  0  0  0  0  0  0  0  0  0
  -24.9356  -28.6172   20.1918 C   0  0  0  0  0  0  0  0  0  0  0  0
  -19.6457  -30.1753   23.7964 C   0  0  0  0  0  0  0  0  0  0  0  0
  -25.5009  -27.5245   20.8645 C   0  0  0  0  0  0  0  0  0  0  0  0
  -28.0795  -16.0006   20.9452 C   0  0  0  0  0  0  0  0  0  0  0  0
  -27.7029  -28.5229   20.6102 C   0  0  0  0  0  0  0  0  0  0  0  0
  -28.2970  -13.7203   20.4207 C   0  0  0  0  0  0  0  0  0  0  0  0
  -29.2143  -11.7391   18.6841 C   0  0  0  0  0  0  0  0  0  0  0  0
  -27.8385  -13.6801   19.1040 C   0  0  0  0  0  0  0  0  0  0  0  0
  -28.8120  -20.0324   19.8933 C   0  0  0  0  0  0  0  0  0  0  0  0
  -33.3508  -26.1340   22.4441 C   0  0  0  0  0  0  0  0  0  0  0  0
  -29.0068  -21.9368   18.8116 C   0  0  0  0  0  0  0  0  0  0  0  0
  -28.1750  -20.0478   17.4015 C   0  0  0  0  0  0  0  0  0  0  0  0
  -32.9213  -24.9517   21.6872 C   0  0  0  0  0  0  0  0  0  0  0  0
  -22.5347  -28.4516   22.2683 C   0  0  0  0  0  0  0  0  0  0  0  0
  -22.3459  -25.3906   21.2114 C   0  0  0  0  0  0  0  0  0  0  0  0
  -23.9086  -22.7227   19.7668 C   0  0  0  0  0  0  0  0  0  0  0  0
  -18.3055  -28.4651   25.1268 C   0  0  0  0  0  0  0  0  0  0  0  0
  -23.4551  -28.6684   19.9312 C   0  0  0  0  0  0  0  0  0  0  0  0
  -24.6580  -26.3865   21.3773 C   0  0  0  0  0  0  0  0  0  0  0  0
  -19.4827  -27.5149   24.9234 C   0  0  0  0  0  0  0  0  0  0  0  0
  -29.4414  -24.9339   22.7150 C   0  0  0  0  0  0  0  0  0  0  0  0
  -20.8030  -28.2732   25.0163 C   0  0  0  0  0  0  0  0  0  0  0  0
  -28.9128  -23.7035   21.9767 C   0  0  0  0  0  0  0  0  0  0  0  0
  -30.8761  -24.7238   23.1892 C   0  0  0  0  0  0  0  0  0  0  0  0
  -31.3009  -23.1132   21.3620 C   0  0  0  0  0  0  0  0  0  0  0  0
  -20.9031  -29.3427   23.9220 C   0  0  1  0  0  0  0  0  0  0  0  0
  -22.6467  -27.8211   20.9090 C   0  0  1  0  0  0  0  0  0  0  0  0
  -29.8637  -23.2847   20.8402 C   0  0  1  0  0  0  0  0  0  0  0  0
  -23.5070  -20.3465   19.0671 C   0  0  0  0  0  0  0  0  0  0  0  0
  -31.7562  -27.9678   18.5661 C   0  0  0  0  0  0  0  0  0  0  0  0
  -22.5190  -24.5056   24.1264 C   0  0  0  0  0  0  0  0  0  0  0  0
  -23.0674  -22.1993   23.3209 C   0  0  0  0  0  0  0  0  0  0  0  0
  -20.8700  -23.2300   22.7450 C   0  0  0  0  0  0  0  0  0  0  0  0
  -24.4806  -23.3395   16.9293 C   0  0  0  0  0  0  0  0  0  0  0  0
  -31.2854  -29.3243   20.6657 C   0  0  0  0  0  0  0  0  0  0  0  0
  -33.3394  -27.8237   20.5029 C   0  0  0  0  0  0  0  0  0  0  0  0
  -29.8211  -29.5624   20.3133 C   0  0  0  0  0  0  0  0  0  1  0  0
  -22.9695  -24.0780   21.6203 C   0  0  1  0  0  0  0  0  0  0  0  0
  -23.4913  -21.8038   18.6328 C   0  0  2  0  0  0  0  0  0  0  0  0
  -31.8602  -28.0123   20.0950 C   0  0  2  0  0  0  0  0  0  0  0  0
  -22.3724  -23.5254   22.9453 C   0  0  0  0  0  0  0  0  0  0  0  0
  -34.0160  -27.5331   24.0986 N   0  0  0  0  0  0  0  0  0  0  0  0
  -29.2617  -20.8934   20.8101 N   0  0  0  0  0  0  0  0  0  0  0  0
  -33.5352  -27.3888   21.9353 N   0  0  0  0  0  0  0  0  0  0  0  0
  -29.3704  -22.0426   20.1218 N   0  0  0  0  0  0  0  0  0  0  0  0
  -31.7375  -24.3172   22.0717 N   0  0  0  0  0  0  0  0  0  0  0  0
  -23.2148  -26.4855   21.1033 N   0  0  0  0  0  0  0  0  0  0  0  0
  -29.0552  -22.9967   17.9768 N   0  0  0  0  0  0  0  0  0  0  0  0
  -27.8344  -18.6883   17.3904 N   0  0  0  0  0  0  0  0  0  0  0  0
  -21.2379  -28.7360   22.6514 N   0  0  0  0  0  0  0  0  0  0  0  0
  -22.8207  -23.1821   20.4785 N   0  0  0  0  0  0  0  0  0  0  0  0
  -24.4153  -21.9588   17.4738 N   0  3  0  0  0  0  0  0  0  0  0  0
  -28.0849  -20.7120   16.3412 O   0  0  0  0  0  0  0  0  0  0  0  0
  -33.6453  -24.6140   20.7518 O   0  0  0  0  0  0  0  0  0  0  0  0
  -23.5496  -28.6629   22.9218 O   0  0  0  0  0  0  0  0  0  0  0  0
  -21.1336  -25.4408   20.9890 O   0  0  0  0  0  0  0  0  0  0  0  0
  -25.0825  -23.0018   20.0003 O   0  0  0  0  0  0  0  0  0  0  0  0
  -27.8432  -14.7037   21.2837 O   0  0  0  0  0  0  0  0  0  0  0  0
  -29.0467  -28.4759   20.8194 O   0  0  0  0  0  0  0  0  0  1  0  0
  -29.6560  -10.7886   17.8500 F   0  0  0  0  0  0  0  0  0  0  0  0
  -26.9582  -14.5912   18.6671 F   0  0  0  0  0  0  0  0  0  0  0  0
  1  2  1  0  0  0  0
  1  5  2  0  0  0  0
  2  6  2  0  0  0  0
  3  8  2  0  0  0  0
  3 17  1  0  0  0  0
  4  9  1  0  0  0  0
  4 17  2  0  0  0  0
  5 19  1  0  0  0  0
  6 21  1  0  0  0  0
  7 10  2  0  0  0  0
  7 20  1  0  0  0  0
  8 23  1  0  0  0  0
  9 23  2  0  0  0  0
 10 24  1  0  0  0  0
 11 12  2  0  0  0  0
 11 25  1  0  0  0  0
 12 26  1  0  0  0  0
 13 22  1  0  0  0  0
 13 24  2  0  0  0  0
 14 26  2  0  0  0  0
 14 27  1  0  0  0  0
 15 29  2  0  0  0  0
 15 61  1  0  0  0  0
 16 61  2  0  0  0  0
 16 63  1  0  0  0  0
 17 28  1  0  0  0  0
 18 28  1  0  0  0  0
 18 30  2  0  0  0  0
 18 31  1  0  0  0  0
 19 21  2  0  0  0  0
 19 36  1  0  0  0  0
 20 22  2  0  0  0  0
 20 37  1  0  0  0  0
 21 45  1  0  0  0  0
 22 38  1  0  0  0  0
 23 77  1  0  0  0  0
 24 78  1  0  0  0  0
 25 27  2  0  0  0  0
 25 77  1  0  0  0  0
 26 79  1  0  0  0  0
 27 80  1  0  0  0  0
 28 62  2  0  0  0  0
 29 32  1  0  0  0  0
 29 63  1  0  0  0  0
 30 64  1  0  0  0  0
 30 67  1  0  0  0  0
 31 68  1  0  0  0  0
 31 72  2  0  0  0  0
 32 65  1  0  0  0  0
 32 73  2  0  0  0  0
 33 46  1  0  0  0  0
 33 69  1  0  0  0  0
 33 74  2  0  0  0  0
 34 57  1  0  0  0  0
 34 66  1  0  0  0  0
 34 75  2  0  0  0  0
 35 58  1  0  0  0  0
 35 70  1  0  0  0  0
 35 76  2  0  0  0  0
 36 39  1  0  0  0  0
 37 46  1  0  0  0  0
 38 66  1  0  0  0  0
 39 41  1  0  0  0  0
 40 42  1  0  0  0  0
 40 43  1  0  0  0  0
 41 45  1  0  0  0  0
 42 47  1  0  0  0  0
 43 65  1  0  0  0  0
 44 47  1  0  0  0  0
 44 65  1  0  0  0  0
 45 69  1  0  0  0  0
 46 66  1  0  0  0  0
 47 64  1  0  0  0  0
 48 58  1  0  0  0  0
 49 59  1  0  0  0  0
 50 60  1  0  0  0  0
 51 60  1  0  0  0  0
 52 60  1  0  0  0  0
 53 71  1  0  0  0  0
 54 56  1  0  0  0  0
 54 59  1  0  0  0  0
 55 59  1  0  0  0  0
 55 63  1  0  0  0  0
 56 78  1  0  0  0  0
 57 60  1  0  0  0  0
 57 70  1  0  0  0  0
 58 71  1  0  0  0  0
 62 64  1  0  0  0  0
M  CHG  1  71   1
M  ISO  4  29 100  32 100  56 101  78 101
M  END
> <Batch ID>
0054

> <Smiles>
CNC(C)C(=O)NC(C(=O)N1Cc2cc([101O:1][101CH2:1]CC(C)Cn3cnc[100c:0]3[100C:0](=O)N3CCCC(n4nc(-c5ccc(Oc6ccc(F)cc6F)cc5)c(C(N)=O)c4N)C3)ccc2CC1C(=O)NC1CCCc2ccccc21)C(C)(C)C

> <Shape>
0.216

> <Color>
0.079

> <Negative vol penalty>
0.000

$$$$

  -OEChem-04052317413D

 85 93  0     1  0  0  0  0  0999 V2000
  -36.4602  -10.8974   28.4883 C   0  0  0  0  0  0  0  0  0  0  0  0
  -35.7424  -12.0000   28.0363 C   0  0  0  0  0  0  0  0  0  0  0  0
  -23.1532   -9.8635   19.9573 C   0  0  0  0  0  0  0  0  0  0  0  0
  -23.7975   -9.9673   22.2834 C   0  0  0  0  0  0  0  0  0  0  0  0
  -35.8934   -9.6250   28.4267 C   0  0  0  0  0  0  0  0  0  0  0  0
  -34.4576  -11.8307   27.5213 C   0  0  0  0  0  0  0  0  0  0  0  0
  -29.7421  -15.7032   28.0442 C   0  0  0  0  0  0  0  0  0  0  0  0
  -22.4320   -8.6964   20.2091 C   0  0  0  0  0  0  0  0  0  0  0  0
  -23.0762   -8.8003   22.5353 C   0  0  0  0  0  0  0  0  0  0  0  0
  -29.2163  -16.6629   27.1803 C   0  0  0  0  0  0  0  0  0  0  0  0
  -23.4918   -5.4728   22.1043 C   0  0  0  0  0  0  0  0  0  0  0  0
  -24.1007   -4.4905   22.8853 C   0  0  0  0  0  0  0  0  0  0  0  0
  -27.5828  -15.0645   26.4085 C   0  0  0  0  0  0  0  0  0  0  0  0
  -22.3121   -4.6658   24.5001 C   0  0  0  0  0  0  0  0  0  0  0  0
  -28.0999  -17.0459   21.9826 C   0  0  0  0  0  0  0  0  0  0  0  0
  -30.2080  -17.9872   22.3383 C   0  0  0  0  0  0  0  0  0  0  0  0
  -23.8360  -10.4989   20.9944 C   0  0  0  0  0  0  0  0  0  0  0  0
  -24.1092  -13.0283   20.8068 C   0  0  0  0  0  0  0  0  0  0  0  0
  -34.5973   -9.4413   27.9197 C   0  0  0  0  0  0  0  0  0  0  0  0
  -29.1982  -14.4115   28.0888 C   0  0  0  0  0  0  0  0  0  0  0  0
  -33.8735  -10.5545   27.4516 C   0  0  0  0  0  0  0  0  0  0  0  0
  -28.1019  -14.0910   27.2756 C   0  0  0  0  0  0  0  0  0  0  0  0
  -28.8665  -18.1888   22.0853 C   0  0  0  0  0  0  0  0  0  0  0  0
  -22.3934   -8.1648   21.4981 C   0  0  0  0  0  0  0  0  0  0  0  0
  -28.1383  -16.3428   26.3602 C   0  0  0  0  0  0  0  0  0  0  0  0
  -22.2932   -6.0517   22.5212 C   0  0  0  0  0  0  0  0  0  0  0  0
  -23.5108   -4.0870   24.0832 C   0  0  0  0  0  0  0  0  0  0  0  0
  -21.7033   -5.6482   23.7191 C   0  0  0  0  0  0  0  0  0  0  0  0
  -24.5817  -11.7042   20.7348 C   0  0  0  0  0  0  0  0  0  0  0  0
  -25.1956  -13.7992   20.4723 C   0  0  0  0  0  0  0  0  0  0  0  0
  -29.9168  -15.7329   22.3595 C   0  0  0  0  0  0  0  0  0  0  0  0
  -22.8048  -13.5177   21.1457 C   0  0  0  0  0  0  0  0  0  0  0  0
  -30.2995  -11.4918   27.4833 C   0  0  0  0  0  0  0  0  0  0  0  0
  -27.4059  -10.5843   28.6348 C   0  0  0  0  0  0  0  0  0  0  0  0
  -30.9612  -13.8373   21.1816 C   0  0  0  0  0  0  0  0  0  0  0  0
  -24.1450  -11.3906   29.2375 C   0  0  0  0  0  0  0  0  0  0  0  0
  -34.0449   -8.0408   27.8293 C   0  0  0  0  0  0  0  0  0  0  0  0
  -29.7598  -13.3956   29.0455 C   0  0  0  0  0  0  0  0  0  0  0  0
  -27.4687  -12.7246   27.3004 C   0  0  0  0  0  0  0  0  0  0  0  0
  -32.5340   -7.9946   27.6164 C   0  0  0  0  0  0  0  0  0  0  0  0
  -29.4242  -13.0139   18.0512 C   0  0  0  0  0  0  0  0  0  0  0  0
  -32.1190   -8.9725   26.5218 C   0  0  0  0  0  0  0  0  0  0  0  0
  -27.9808  -12.6898   18.4342 C   0  0  0  0  0  0  0  0  0  0  0  0
  -30.4026  -12.5690   19.1338 C   0  0  0  0  0  0  0  0  0  0  0  0
  -28.6591  -12.7996   20.8741 C   0  0  0  0  0  0  0  0  0  0  0  0
  -32.4676  -10.4146   26.9092 C   0  0  1  0  0  0  0  0  0  0  0  0
  -29.4561  -11.9577   28.6363 C   0  0  1  0  0  0  0  0  0  0  0  0
  -27.6356  -13.2603   19.8212 C   0  0  2  0  0  0  0  0  0  0  0  0
  -22.0150  -10.4300   30.1528 C   0  0  0  0  0  0  0  0  0  0  0  0
  -27.0207   -8.9919   26.0607 C   0  0  0  0  0  0  0  0  0  0  0  0
  -24.5785   -8.8531   26.5942 C   0  0  0  0  0  0  0  0  0  0  0  0
  -26.2502   -7.8253   28.1343 C   0  0  0  0  0  0  0  0  0  0  0  0
  -24.0176  -13.4200   31.3879 C   0  0  0  0  0  0  0  0  0  0  0  0
  -25.3541  -19.6361   23.1466 C   0  0  0  0  0  0  0  0  0  0  0  0
  -28.2783  -19.5619   21.9343 C   0  0  0  0  0  0  0  0  0  0  0  0
  -27.7846  -20.1687   23.2438 C   0  0  0  0  0  0  0  0  0  0  0  0
  -26.5874  -19.4369   25.3009 C   0  0  0  0  0  0  0  0  0  0  0  0
  -27.7199  -18.6423   25.9209 C   0  0  0  0  0  0  0  0  0  1  0  0
  -26.0431  -10.3429   28.0317 C   0  0  1  0  0  0  0  0  0  0  0  0
  -23.2761  -11.2185   30.4703 C   0  0  2  0  0  0  0  0  0  0  0  0
  -30.5002  -14.3695   22.5151 C   0  0  0  0  0  0  0  0  0  0  0  0
  -25.9861   -9.0286   27.2031 C   0  0  0  0  0  0  0  0  0  0  0  0
  -28.5941  -15.7975   22.1147 N   0  0  0  0  0  0  0  0  0  0  0  0
  -30.7689  -16.7685   22.4818 N   0  0  0  0  0  0  0  0  0  0  0  0
  -25.8681  -11.6342   20.3821 N   0  0  0  0  0  0  0  0  0  0  0  0
  -26.2131  -12.9240   20.2294 N   0  0  0  0  0  0  0  0  0  0  0  0
  -28.0575  -11.7639   28.2480 N   0  0  0  0  0  0  0  0  0  0  0  0
  -30.0274  -13.1135   20.4399 N   0  0  0  0  0  0  0  0  0  0  0  0
  -25.3702  -15.1335   20.3651 N   0  0  0  0  0  0  0  0  0  0  0  0
  -21.8045  -12.5889   21.4635 N   0  0  0  0  0  0  0  0  0  0  0  0
  -31.5047  -10.9298   27.8589 N   0  0  0  0  0  0  0  0  0  0  0  0
  -25.0926  -10.3940   29.1373 N   0  0  0  0  0  0  0  0  0  0  0  0
  -22.8754  -12.5480   31.0114 N   0  3  0  0  0  0  0  0  0  0  0  0
  -26.6688  -19.3339   23.8220 N   0  3  1  0  0  0  0  0  0  0  0  0
  -22.5300  -14.7416   21.1503 O   0  0  0  0  0  0  0  0  0  0  0  0
  -29.8867  -11.6306   26.3379 O   0  0  0  0  0  0  0  0  0  0  0  0
  -27.8718   -9.7602   29.4256 O   0  0  0  0  0  0  0  0  0  0  0  0
  -32.1163  -14.0618   20.8107 O   0  0  0  0  0  0  0  0  0  0  0  0
  -23.9954  -12.3145   28.4409 O   0  0  0  0  0  0  0  0  0  0  0  0
  -21.6896   -7.0262   21.7443 O   0  0  0  0  0  0  0  0  0  0  0  0
  -27.6235  -17.2775   25.5157 O   0  0  0  0  0  0  0  0  0  1  0  0
  -24.0948   -3.1426   24.8324 F   0  0  0  0  0  0  0  0  0  0  0  0
  -20.5512   -6.1998   24.1242 F   0  0  0  0  0  0  0  0  0  0  0  0
  -31.5629  -14.3460   23.3839 F   0  0  0  0  0  0  0  0  0  0  0  0
  -29.6119  -13.4739   23.0573 F   0  0  0  0  0  0  0  0  0  0  0  0
  1  2  1  0  0  0  0
  1  5  2  0  0  0  0
  2  6  2  0  0  0  0
  3  8  2  0  0  0  0
  3 17  1  0  0  0  0
  4  9  1  0  0  0  0
  4 17  2  0  0  0  0
  5 19  1  0  0  0  0
  6 21  1  0  0  0  0
  7 10  2  0  0  0  0
  7 20  1  0  0  0  0
  8 24  1  0  0  0  0
  9 24  2  0  0  0  0
 10 25  1  0  0  0  0
 11 12  2  0  0  0  0
 11 26  1  0  0  0  0
 12 27  1  0  0  0  0
 13 22  1  0  0  0  0
 13 25  2  0  0  0  0
 14 27  2  0  0  0  0
 14 28  1  0  0  0  0
 15 23  1  0  0  0  0
 15 63  2  0  0  0  0
 16 23  2  0  0  0  0
 16 64  1  0  0  0  0
 17 29  1  0  0  0  0
 18 29  1  0  0  0  0
 18 30  2  0  0  0  0
 18 32  1  0  0  0  0
 19 21  2  0  0  0  0
 19 37  1  0  0  0  0
 20 22  2  0  0  0  0
 20 38  1  0  0  0  0
 21 46  1  0  0  0  0
 22 39  1  0  0  0  0
 23 55  1  0  0  0  0
 24 80  1  0  0  0  0
 25 81  1  0  0  0  0
 26 28  2  0  0  0  0
 26 80  1  0  0  0  0
 27 82  1  0  0  0  0
 28 83  1  0  0  0  0
 29 65  2  0  0  0  0
 30 66  1  0  0  0  0
 30 69  1  0  0  0  0
 31 61  1  0  0  0  0
 31 63  1  0  0  0  0
 31 64  2  0  0  0  0
 32 70  1  0  0  0  0
 32 75  2  0  0  0  0
 33 47  1  0  0  0  0
 33 71  1  0  0  0  0
 33 76  2  0  0  0  0
 34 59  1  0  0  0  0
 34 67  1  0  0  0  0
 34 77  2  0  0  0  0
 35 61  1  0  0  0  0
 35 68  1  0  0  0  0
 35 78  2  0  0  0  0
 36 60  1  0  0  0  0
 36 72  1  0  0  0  0
 36 79  2  0  0  0  0
 37 40  1  0  0  0  0
 38 47  1  0  0  0  0
 39 67  1  0  0  0  0
 40 42  1  0  0  0  0
 41 43  1  0  0  0  0
 41 44  1  0  0  0  0
 42 46  1  0  0  0  0
 43 48  1  0  0  0  0
 44 68  1  0  0  0  0
 45 48  1  0  0  0  0
 45 68  1  0  0  0  0
 46 71  1  0  0  0  0
 47 67  1  0  0  0  0
 48 66  1  0  0  0  0
 49 60  1  0  0  0  0
 50 62  1  0  0  0  0
 51 62  1  0  0  0  0
 52 62  1  0  0  0  0
 53 73  1  0  0  0  0
 54 74  1  0  0  0  0
 55 56  1  0  0  0  0
 56 74  1  0  0  0  0
 57 58  1  0  0  0  0
 57 74  1  0  0  0  0
 58 81  1  0  0  0  0
 59 62  1  0  0  0  0
 59 72  1  0  0  0  0
 60 73  1  0  0  0  0
 61 84  1  0  0  0  0
 61 85  1  0  0  0  0
 65 66  1  0  0  0  0
M  CHG  2  73   1  74   1
M  ISO  4  35 100  58 101  61 100  81 101
M  END
> <Batch ID>
0054

> <Smiles>
CNC(C)C(=O)NC(C(=O)N1Cc2cc([101O:1][101CH2:1]CN(C)CCc3cnc([100C:0](F)(F)[100C:0](=O)N4CCCC(n5nc(-c6ccc(Oc7ccc(F)cc7F)cc6)c(C(N)=O)c5N)C4)nc3)ccc2CC1C(=O)NC1CCCc2ccccc21)C(C)(C)C

> <Shape>
0.178

> <Color>
0.180

> <Negative vol penalty>
0.000

$$$$

  -OEChem-04052317413D

 81 89  0     1  0  0  0  0  0999 V2000
  -17.7452  -32.0397   20.5583 C   0  0  0  0  0  0  0  0  0  0  0  0
  -19.0336  -31.9612   20.0392 C   0  0  0  0  0  0  0  0  0  0  0  0
  -27.1700  -18.0460   21.6877 C   0  0  0  0  0  0  0  0  0  0  0  0
  -28.3254  -17.0932   19.7919 C   0  0  0  0  0  0  0  0  0  0  0  0
  -17.5012  -31.6552   21.8760 C   0  0  0  0  0  0  0  0  0  0  0  0
  -20.0789  -31.4991   20.8381 C   0  0  0  0  0  0  0  0  0  0  0  0
  -24.9084  -28.1941   19.0331 C   0  0  0  0  0  0  0  0  0  0  0  0
  -26.1697  -17.0820   21.5626 C   0  0  0  0  0  0  0  0  0  0  0  0
  -27.3251  -16.1291   19.6668 C   0  0  0  0  0  0  0  0  0  0  0  0
  -26.2205  -28.5451   18.7184 C   0  0  0  0  0  0  0  0  0  0  0  0
  -25.2606  -13.1962   19.0715 C   0  0  0  0  0  0  0  0  0  0  0  0
  -25.6550  -11.8747   18.8625 C   0  0  0  0  0  0  0  0  0  0  0  0
  -26.9031  -27.9814   20.9624 C   0  0  0  0  0  0  0  0  0  0  0  0
  -26.8571  -11.9022   20.9581 C   0  0  0  0  0  0  0  0  0  0  0  0
  -29.2866  -26.8375   15.0547 C   0  0  0  0  0  0  0  0  0  0  0  0
  -28.2478  -18.0517   20.8023 C   0  0  0  0  0  0  0  0  0  0  0  0
  -30.4599  -18.9560   21.6947 C   0  0  0  0  0  0  0  0  0  0  0  0
  -18.5423  -31.1791   22.6885 C   0  0  0  0  0  0  0  0  0  0  0  0
  -24.5813  -27.7436   20.3202 C   0  0  0  0  0  0  0  0  0  0  0  0
  -19.8488  -31.1092   22.1684 C   0  0  0  0  0  0  0  0  0  0  0  0
  -25.5866  -27.6228   21.2901 C   0  0  0  0  0  0  0  0  0  0  0  0
  -26.2472  -16.1235   20.5522 C   0  0  0  0  0  0  0  0  0  0  0  0
  -27.2175  -28.4416   19.6840 C   0  0  0  0  0  0  0  0  0  0  0  0
  -25.6645  -13.8708   20.2237 C   0  0  0  0  0  0  0  0  0  0  0  0
  -26.4533  -11.2277   19.8058 C   0  0  0  0  0  0  0  0  0  0  0  0
  -26.4628  -13.2237   21.1670 C   0  0  0  0  0  0  0  0  0  0  0  0
  -29.2811  -19.0476   20.9306 C   0  0  0  0  0  0  0  0  0  0  0  0
  -30.3813  -26.9179   15.8684 C   0  0  0  0  0  0  0  0  0  0  0  0
  -31.1003  -20.1524   21.4827 C   0  0  0  0  0  0  0  0  0  0  0  0
  -30.1907  -24.8210   15.1849 C   0  0  0  0  0  0  0  0  0  0  0  0
  -30.9336  -17.8852   22.5222 C   0  0  0  0  0  0  0  0  0  0  0  0
  -22.6820  -28.7858   22.6461 C   0  0  0  0  0  0  0  0  0  0  0  0
  -31.9754  -23.8699   17.2129 C   0  0  0  0  0  0  0  0  0  0  0  0
  -23.5067  -25.9787   24.0468 C   0  0  0  0  0  0  0  0  0  0  0  0
  -25.7540  -23.4242   24.3136 C   0  0  0  0  0  0  0  0  0  0  0  0
  -18.2385  -30.8198   24.1214 C   0  0  0  0  0  0  0  0  0  0  0  0
  -23.1662  -27.3435   20.6358 C   0  0  0  0  0  0  0  0  0  0  0  0
  -25.2912  -27.1254   22.6807 C   0  0  0  0  0  0  0  0  0  0  0  0
  -19.3323  -29.9875   24.7856 C   0  0  0  0  0  0  0  0  0  0  0  0
  -29.7129  -24.6362   19.9554 C   0  0  0  0  0  0  0  0  0  0  0  0
  -20.7061  -30.5859   24.5002 C   0  0  0  0  0  0  0  0  0  0  0  0
  -29.4623  -23.2475   20.5419 C   0  0  0  0  0  0  0  0  0  0  0  0
  -29.8657  -24.5851   18.4374 C   0  0  0  0  0  0  0  0  0  0  0  0
  -30.6743  -22.2491   18.5551 C   0  0  0  0  0  0  0  0  0  0  0  0
  -21.0044  -30.5898   22.9960 C   0  0  1  0  0  0  0  0  0  0  0  0
  -22.8521  -27.3857   22.1281 C   0  0  1  0  0  0  0  0  0  0  0  0
  -30.5448  -22.2529   20.0875 C   0  0  2  0  0  0  0  0  0  0  0  0
  -30.4272  -23.3706   14.9786 C   0  0  0  0  0  0  0  0  0  0  0  0
  -33.3856  -25.4192   15.8765 C   0  0  0  0  0  0  0  0  0  0  0  0
  -26.7017  -21.2258   25.0660 C   0  0  0  0  0  0  0  0  0  0  0  0
  -24.3469  -27.5920   26.4966 C   0  0  0  0  0  0  0  0  0  0  0  0
  -25.6038  -25.5823   27.3025 C   0  0  0  0  0  0  0  0  0  0  0  0
  -23.1287  -25.4696   27.0127 C   0  0  0  0  0  0  0  0  0  0  0  0
  -24.4521  -21.9697   22.0891 C   0  0  0  0  0  0  0  0  0  0  0  0
  -30.9701  -28.0968   16.6014 C   0  0  0  0  0  0  0  0  0  0  0  0
  -30.4062  -28.2899   18.0107 C   0  0  0  0  0  0  0  0  0  0  0  0
  -28.9151  -28.6055   18.0265 C   0  0  0  0  0  0  0  0  0  1  0  0
  -32.1002  -25.2780   16.6879 C   0  0  1  0  0  0  0  0  0  0  0  0
  -24.6147  -25.5285   24.9681 C   0  0  1  0  0  0  0  0  0  0  0  0
  -25.5698  -21.9174   24.3222 C   0  0  2  0  0  0  0  0  0  0  0  0
  -24.4291  -26.0543   26.4194 C   0  0  0  0  0  0  0  0  0  0  0  0
  -29.1763  -20.2103   20.2817 N   0  0  0  0  0  0  0  0  0  0  0  0
  -30.9210  -25.6558   15.9315 N   0  0  0  0  0  0  0  0  0  0  0  0
  -30.2974  -20.8604   20.6376 N   0  0  0  0  0  0  0  0  0  0  0  0
  -29.1928  -25.5290   14.6460 N   0  3  0  0  0  0  0  0  0  0  0  0
  -23.8912  -26.7524   22.9426 N   0  0  0  0  0  0  0  0  0  0  0  0
  -30.8865  -23.6064   18.0443 N   0  0  0  0  0  0  0  0  0  0  0  0
  -32.2663  -20.6573   21.9386 N   0  0  0  0  0  0  0  0  0  0  0  0
  -30.1516  -16.7270   22.6287 N   0  0  0  0  0  0  0  0  0  0  0  0
  -21.3898  -29.2668   22.5538 N   0  0  0  0  0  0  0  0  0  0  0  0
  -24.6686  -24.0745   24.8616 N   0  0  0  0  0  0  0  0  0  0  0  0
  -25.5335  -21.3920   22.9281 N   0  3  0  0  0  0  0  0  0  0  0  0
  -32.0102  -17.9600   23.1616 O   0  0  0  0  0  0  0  0  0  0  0  0
  -23.6510  -29.3850   23.0975 O   0  0  0  0  0  0  0  0  0  0  0  0
  -32.8227  -23.0315   16.8948 O   0  0  0  0  0  0  0  0  0  0  0  0
  -22.3438  -25.6498   24.2938 O   0  0  0  0  0  0  0  0  0  0  0  0
  -26.7616  -23.9696   23.8689 O   0  0  0  0  0  0  0  0  0  0  0  0
  -25.2715  -15.1825   20.4300 O   0  0  0  0  0  0  0  0  0  0  0  0
  -28.4989  -28.7842   19.3797 O   0  0  0  0  0  0  0  0  0  1  0  0
  -26.8307   -9.9582   19.6058 F   0  0  0  0  0  0  0  0  0  0  0  0
  -26.8529  -13.8662   22.2764 F   0  0  0  0  0  0  0  0  0  0  0  0
  1  2  1  0  0  0  0
  1  5  2  0  0  0  0
  2  6  2  0  0  0  0
  3  8  2  0  0  0  0
  3 16  1  0  0  0  0
  4  9  1  0  0  0  0
  4 16  2  0  0  0  0
  5 18  1  0  0  0  0
  6 20  1  0  0  0  0
  7 10  2  0  0  0  0
  7 19  1  0  0  0  0
  8 22  1  0  0  0  0
  9 22  2  0  0  0  0
 10 23  1  0  0  0  0
 11 12  2  0  0  0  0
 11 24  1  0  0  0  0
 12 25  1  0  0  0  0
 13 21  1  0  0  0  0
 13 23  2  0  0  0  0
 14 25  2  0  0  0  0
 14 26  1  0  0  0  0
 15 28  2  0  0  0  0
 15 65  1  0  0  0  0
 16 27  1  0  0  0  0
 17 27  1  0  0  0  0
 17 29  2  0  0  0  0
 17 31  1  0  0  0  0
 18 20  2  0  0  0  0
 18 36  1  0  0  0  0
 19 21  2  0  0  0  0
 19 37  1  0  0  0  0
 20 45  1  0  0  0  0
 21 38  1  0  0  0  0
 22 78  1  0  0  0  0
 23 79  1  0  0  0  0
 24 26  2  0  0  0  0
 24 78  1  0  0  0  0
 25 80  1  0  0  0  0
 26 81  1  0  0  0  0
 27 62  2  0  0  0  0
 28 55  1  0  0  0  0
 28 63  1  0  0  0  0
 29 64  1  0  0  0  0
 29 68  1  0  0  0  0
 30 48  1  0  0  0  0
 30 63  1  0  0  0  0
 30 65  2  0  0  0  0
 31 69  1  0  0  0  0
 31 73  2  0  0  0  0
 32 46  1  0  0  0  0
 32 70  1  0  0  0  0
 32 74  2  0  0  0  0
 33 58  1  0  0  0  0
 33 67  1  0  0  0  0
 33 75  2  0  0  0  0
 34 59  1  0  0  0  0
 34 66  1  0  0  0  0
 34 76  2  0  0  0  0
 35 60  1  0  0  0  0
 35 71  1  0  0  0  0
 35 77  2  0  0  0  0
 36 39  1  0  0  0  0
 37 46  1  0  0  0  0
 38 66  1  0  0  0  0
 39 41  1  0  0  0  0
 40 42  1  0  0  0  0
 40 43  1  0  0  0  0
 41 45  1  0  0  0  0
 42 47  1  0  0  0  0
 43 67  1  0  0  0  0
 44 47  1  0  0  0  0
 44 67  1  0  0  0  0
 45 70  1  0  0  0  0
 46 66  1  0  0  0  0
 47 64  1  0  0  0  0
 49 58  1  0  0  0  0
 50 60  1  0  0  0  0
 51 61  1  0  0  0  0
 52 61  1  0  0  0  0
 53 61  1  0  0  0  0
 54 72  1  0  0  0  0
 55 56  1  0  0  0  0
 56 57  1  0  0  0  0
 57 79  1  0  0  0  0
 58 63  1  0  0  0  0
 59 61  1  0  0  0  0
 59 71  1  0  0  0  0
 60 72  1  0  0  0  0
 62 64  1  0  0  0  0
M  CHG  2  65   1  72   1
M  ISO  4  33 100  57 101  58 100  79 101
M  END
> <Batch ID>
0054

> <Smiles>
CNC(C)C(=O)NC(C(=O)N1Cc2cc([101O:1][101CH2:1]CCc3cnc(C)n3[100CH:0](C)[100C:0](=O)N3CCCC(n4nc(-c5ccc(Oc6ccc(F)cc6F)cc5)c(C(N)=O)c4N)C3)ccc2CC1C(=O)NC1CCCc2ccccc21)C(C)(C)C

> <Shape>
0.181

> <Color>
0.094

> <Negative vol penalty>
0.000

$$$$

  -OEChem-04052317413D

 85 93  0     1  0  0  0  0  0999 V2000
  -30.7237  -27.7157   16.0629 C   0  0  0  0  0  0  0  0  0  0  0  0
  -29.3662  -27.4704   16.2433 C   0  0  0  0  0  0  0  0  0  0  0  0
  -24.7246  -12.4162   21.5784 C   0  0  0  0  0  0  0  0  0  0  0  0
  -26.5144  -12.6513   19.9727 C   0  0  0  0  0  0  0  0  0  0  0  0
  -31.5038  -28.1372   17.1388 C   0  0  0  0  0  0  0  0  0  0  0  0
  -28.7883  -27.6454   17.5002 C   0  0  0  0  0  0  0  0  0  0  0  0
  -23.1232  -29.6369   18.7025 C   0  0  0  0  0  0  0  0  0  0  0  0
  -24.1666  -11.3966   20.8073 C   0  0  0  0  0  0  0  0  0  0  0  0
  -25.9565  -11.6316   19.2016 C   0  0  0  0  0  0  0  0  0  0  0  0
  -21.9401  -28.9681   19.0138 C   0  0  0  0  0  0  0  0  0  0  0  0
  -24.7121   -8.1049   20.2593 C   0  0  0  0  0  0  0  0  0  0  0  0
  -24.2790   -6.9554   20.9200 C   0  0  0  0  0  0  0  0  0  0  0  0
  -22.3663  -29.3198   21.3619 C   0  0  0  0  0  0  0  0  0  0  0  0
  -22.0356   -7.3331   20.1067 C   0  0  0  0  0  0  0  0  0  0  0  0
  -21.5218  -23.5980   21.6346 C   0  0  0  0  0  0  0  0  0  0  0  0
  -23.5572  -24.9358   20.5413 C   0  0  0  0  0  0  0  0  0  0  0  0
  -25.8985  -13.0436   21.1611 C   0  0  0  0  0  0  0  0  0  0  0  0
  -27.4207  -13.9614   22.9909 C   0  0  0  0  0  0  0  0  0  0  0  0
  -30.9332  -28.3267   18.4073 C   0  0  0  0  0  0  0  0  0  0  0  0
  -23.9435  -30.1435   19.7207 C   0  0  0  0  0  0  0  0  0  0  0  0
  -29.5618  -28.0685   18.5945 C   0  0  0  0  0  0  0  0  0  0  0  0
  -23.5579  -29.9969   21.0608 C   0  0  0  0  0  0  0  0  0  0  0  0
  -24.7826  -11.0043   19.6189 C   0  0  0  0  0  0  0  0  0  0  0  0
  -21.5630  -28.8069   20.3438 C   0  0  0  0  0  0  0  0  0  0  0  0
  -23.8069   -8.8686   19.5223 C   0  0  0  0  0  0  0  0  0  0  0  0
  -22.9408   -6.5695   20.8437 C   0  0  0  0  0  0  0  0  0  0  0  0
  -22.4687   -8.4827   19.4460 C   0  0  0  0  0  0  0  0  0  0  0  0
  -26.4750  -14.0973   21.9570 C   0  0  0  0  0  0  0  0  0  0  0  0
  -21.3059  -24.7368   20.8901 C   0  0  0  0  0  0  0  0  0  0  0  0
  -23.7733  -23.7975   21.2864 C   0  0  0  0  0  0  0  0  0  0  0  0
  -27.6422  -15.2457   23.4246 C   0  0  0  0  0  0  0  0  0  0  0  0
  -28.0433  -12.7799   23.5126 C   0  0  0  0  0  0  0  0  0  0  0  0
  -26.9229  -29.5944   20.6827 C   0  0  0  0  0  0  0  0  0  0  0  0
  -26.3268  -32.0882   22.6696 C   0  0  0  0  0  0  0  0  0  0  0  0
  -24.0247  -33.9881   24.3243 C   0  0  0  0  0  0  0  0  0  0  0  0
  -27.2827  -20.4402   20.8762 C   0  0  0  0  0  0  0  0  0  0  0  0
  -31.8263  -28.7379   19.5510 C   0  0  0  0  0  0  0  0  0  0  0  0
  -25.2030  -30.8859   19.3673 C   0  0  0  0  0  0  0  0  0  0  0  0
  -24.3932  -30.5399   22.1903 C   0  0  0  0  0  0  0  0  0  0  0  0
  -31.0609  -29.2600   20.7642 C   0  0  0  0  0  0  0  0  0  0  0  0
  -25.5131  -19.5057   23.7860 C   0  0  0  0  0  0  0  0  0  0  0  0
  -29.8938  -28.3359   21.0973 C   0  0  0  0  0  0  0  0  0  0  0  0
  -25.6442  -17.9838   23.7442 C   0  0  0  0  0  0  0  0  0  0  0  0
  -25.2788  -20.1006   22.3962 C   0  0  0  0  0  0  0  0  0  0  0  0
  -26.4180  -18.1688   21.3508 C   0  0  0  0  0  0  0  0  0  0  0  0
  -28.8933  -28.2707   19.9370 C   0  0  1  0  0  0  0  0  0  0  0  0
  -26.2207  -30.9107   20.5036 C   0  0  1  0  0  0  0  0  0  0  0  0
  -26.7138  -17.5515   22.7263 C   0  0  2  0  0  0  0  0  0  0  0  0
  -23.8419  -35.9316   25.9012 C   0  0  0  0  0  0  0  0  0  0  0  0
  -27.5599  -23.8682   19.5227 C   0  0  0  0  0  0  0  0  0  0  0  0
  -28.5803  -23.2894   21.7470 C   0  0  0  0  0  0  0  0  0  0  0  0
  -27.1911  -30.2921   24.9798 C   0  0  0  0  0  0  0  0  0  0  0  0
  -26.1066  -31.9106   26.5522 C   0  0  0  0  0  0  0  0  0  0  0  0
  -28.0153  -32.6488   25.1258 C   0  0  0  0  0  0  0  0  0  0  0  0
  -22.4772  -35.5797   22.3671 C   0  0  0  0  0  0  0  0  0  0  0  0
  -19.9070  -25.2563   20.6739 C   0  0  0  0  0  0  0  0  0  0  0  0
  -25.1544  -23.2843   21.4995 C   0  0  0  0  0  0  0  0  0  0  0  0
  -19.4460  -26.2480   21.7441 C   0  0  0  0  0  0  0  0  0  0  0  0
  -25.6158  -22.2904   20.4253 C   0  0  0  0  0  0  0  0  0  0  0  0
  -20.3709  -27.4506   21.8914 C   0  0  0  0  0  0  0  0  0  1  0  0
  -25.7599  -32.2347   24.0611 C   0  0  1  0  0  0  0  0  0  0  0  0
  -23.8599  -35.4923   24.4454 C   0  0  2  0  0  0  0  0  0  0  0  0
  -28.0408  -22.7436   20.4312 C   0  0  0  0  0  0  0  0  0  0  0  0
  -26.7532  -31.7595   25.1587 C   0  0  0  0  0  0  0  0  0  0  0  0
  -22.3196  -25.4259   20.3298 N   0  0  0  0  0  0  0  0  0  0  0  0
  -22.7594  -23.1082   21.8463 N   0  0  0  0  0  0  0  0  0  0  0  0
  -26.1201  -15.3676   21.7466 N   0  0  0  0  0  0  0  0  0  0  0  0
  -26.8465  -16.0417   22.6543 N   0  0  0  0  0  0  0  0  0  0  0  0
  -25.6190  -31.2527   21.7940 N   0  0  0  0  0  0  0  0  0  0  0  0
  -26.2930  -19.6253   21.4454 N   0  0  0  0  0  0  0  0  0  0  0  0
  -28.4380  -15.7604   24.3859 N   0  0  0  0  0  0  0  0  0  0  0  0
  -27.7018  -11.5416   22.9519 N   0  0  0  0  0  0  0  0  0  0  0  0
  -28.0648  -29.4571   19.9168 N   0  0  0  0  0  0  0  0  0  0  0  0
  -25.3491  -33.6286   24.1899 N   0  0  0  0  0  0  0  0  0  0  0  0
  -26.9663  -21.7930   20.6802 N   0  0  0  0  0  0  0  0  0  0  0  0
  -22.5849  -35.9266   23.8075 N   0  3  0  0  0  0  0  0  0  0  0  0
  -28.8653  -12.8195   24.4593 O   0  0  0  0  0  0  0  0  0  0  0  0
  -26.4635  -28.7653   21.4594 O   0  0  0  0  0  0  0  0  0  0  0  0
  -27.3556  -32.6985   22.3684 O   0  0  0  0  0  0  0  0  0  0  0  0
  -23.0741  -33.2096   24.3504 O   0  0  0  0  0  0  0  0  0  0  0  0
  -28.3867  -19.9836   20.5526 O   0  0  0  0  0  0  0  0  0  0  0  0
  -24.2386  -10.0092   18.8663 O   0  0  0  0  0  0  0  0  0  0  0  0
  -20.4091  -28.1540   20.6504 O   0  0  0  0  0  0  0  0  0  1  0  0
  -22.5254   -5.4647   21.4770 F   0  0  0  0  0  0  0  0  0  0  0  0
  -21.5946   -9.2117   18.7386 F   0  0  0  0  0  0  0  0  0  0  0  0
  1  2  1  0  0  0  0
  1  5  2  0  0  0  0
  2  6  2  0  0  0  0
  3  8  2  0  0  0  0
  3 17  1  0  0  0  0
  4  9  1  0  0  0  0
  4 17  2  0  0  0  0
  5 19  1  0  0  0  0
  6 21  1  0  0  0  0
  7 10  2  0  0  0  0
  7 20  1  0  0  0  0
  8 23  1  0  0  0  0
  9 23  2  0  0  0  0
 10 24  1  0  0  0  0
 11 12  2  0  0  0  0
 11 25  1  0  0  0  0
 12 26  1  0  0  0  0
 13 22  1  0  0  0  0
 13 24  2  0  0  0  0
 14 26  2  0  0  0  0
 14 27  1  0  0  0  0
 15 29  1  0  0  0  0
 15 66  2  0  0  0  0
 16 30  2  0  0  0  0
 16 65  1  0  0  0  0
 17 28  1  0  0  0  0
 18 28  1  0  0  0  0
 18 31  2  0  0  0  0
 18 32  1  0  0  0  0
 19 21  2  0  0  0  0
 19 37  1  0  0  0  0
 20 22  2  0  0  0  0
 20 38  1  0  0  0  0
 21 46  1  0  0  0  0
 22 39  1  0  0  0  0
 23 82  1  0  0  0  0
 24 83  1  0  0  0  0
 25 27  2  0  0  0  0
 25 82  1  0  0  0  0
 26 84  1  0  0  0  0
 27 85  1  0  0  0  0
 28 67  2  0  0  0  0
 29 56  1  0  0  0  0
 29 65  2  0  0  0  0
 30 57  1  0  0  0  0
 30 66  1  0  0  0  0
 31 68  1  0  0  0  0
 31 71  1  0  0  0  0
 32 72  1  0  0  0  0
 32 77  2  0  0  0  0
 33 47  1  0  0  0  0
 33 73  1  0  0  0  0
 33 78  2  0  0  0  0
 34 61  1  0  0  0  0
 34 69  1  0  0  0  0
 34 79  2  0  0  0  0
 35 62  1  0  0  0  0
 35 74  1  0  0  0  0
 35 80  2  0  0  0  0
 36 70  1  0  0  0  0
 36 75  1  0  0  0  0
 36 81  2  0  0  0  0
 37 40  1  0  0  0  0
 38 47  1  0  0  0  0
 39 69  1  0  0  0  0
 40 42  1  0  0  0  0
 41 43  1  0  0  0  0
 41 44  1  0  0  0  0
 42 46  1  0  0  0  0
 43 48  1  0  0  0  0
 44 70  1  0  0  0  0
 45 48  1  0  0  0  0
 45 70  1  0  0  0  0
 46 73  1  0  0  0  0
 47 69  1  0  0  0  0
 48 68  1  0  0  0  0
 49 62  1  0  0  0  0
 50 63  1  0  0  0  0
 51 63  1  0  0  0  0
 52 64  1  0  0  0  0
 53 64  1  0  0  0  0
 54 64  1  0  0  0  0
 55 76  1  0  0  0  0
 56 58  1  0  0  0  0
 57 59  1  0  0  0  0
 58 60  1  0  0  0  0
 59 75  1  0  0  0  0
 60 83  1  0  0  0  0
 61 64  1  0  0  0  0
 61 74  1  0  0  0  0
 62 76  1  0  0  0  0
 63 75  1  0  0  0  0
 67 68  1  0  0  0  0
M  CHG  1  76   1
M  ISO  4  36 100  60 101  75 100  83 101
M  END
> <Batch ID>
0054

> <Smiles>
CNC(C)C(=O)NC(C(=O)N1Cc2cc([101O:1][101CH2:1]CCc3cnc(CC[100N:0](C(C)C)[100C:0](=O)N4CCCC(n5nc(-c6ccc(Oc7ccc(F)cc7F)cc6)c(C(N)=O)c5N)C4)cn3)ccc2CC1C(=O)NC1CCCc2ccccc21)C(C)(C)C

> <Shape>
0.241

> <Color>
0.069

> <Negative vol penalty>
0.000

$$$$

  -OEChem-04052317413D

 84 92  0     1  0  0  0  0  0999 V2000
  -28.8930  -25.0212   16.5050 C   0  0  0  0  0  0  0  0  0  0  0  0
  -27.7565  -25.0014   17.3071 C   0  0  0  0  0  0  0  0  0  0  0  0
  -25.1867  -13.4578   22.9861 C   0  0  0  0  0  0  0  0  0  0  0  0
  -25.0467  -14.7487   20.9487 C   0  0  0  0  0  0  0  0  0  0  0  0
  -30.0090  -25.7591   16.8974 C   0  0  0  0  0  0  0  0  0  0  0  0
  -27.7357  -25.7187   18.5027 C   0  0  0  0  0  0  0  0  0  0  0  0
  -23.4293  -28.3055   19.1415 C   0  0  0  0  0  0  0  0  0  0  0  0
  -24.2175  -12.5817   22.4976 C   0  0  0  0  0  0  0  0  0  0  0  0
  -24.0775  -13.8725   20.4601 C   0  0  0  0  0  0  0  0  0  0  0  0
  -22.3111  -27.5866   19.5618 C   0  0  0  0  0  0  0  0  0  0  0  0
  -24.0680   -9.9881   20.3333 C   0  0  0  0  0  0  0  0  0  0  0  0
  -24.2952   -8.6203   20.4849 C   0  0  0  0  0  0  0  0  0  0  0  0
  -22.6738  -28.3541   21.8198 C   0  0  0  0  0  0  0  0  0  0  0  0
  -22.2702   -8.4284   21.7887 C   0  0  0  0  0  0  0  0  0  0  0  0
  -22.0926  -24.9565   25.3822 C   0  0  0  0  0  0  0  0  0  0  0  0
  -22.9227  -22.4664   24.8945 C   0  0  0  0  0  0  0  0  0  0  0  0
  -25.6013  -14.5414   22.2116 C   0  0  0  0  0  0  0  0  0  0  0  0
  -27.9972  -15.3468   22.5563 C   0  0  0  0  0  0  0  0  0  0  0  0
  -29.9984  -26.4937   18.0937 C   0  0  0  0  0  0  0  0  0  0  0  0
  -24.1857  -29.0465   20.0607 C   0  0  0  0  0  0  0  0  0  0  0  0
  -28.8530  -26.4661   18.9121 C   0  0  0  0  0  0  0  0  0  0  0  0
  -23.7996  -29.0836   21.4082 C   0  0  0  0  0  0  0  0  0  0  0  0
  -23.6630  -12.7890   21.2346 C   0  0  0  0  0  0  0  0  0  0  0  0
  -21.9348  -27.6085   20.9016 C   0  0  0  0  0  0  0  0  0  0  0  0
  -22.9419  -10.5761   20.9095 C   0  0  0  0  0  0  0  0  0  0  0  0
  -23.3963   -7.8404   21.2125 C   0  0  0  0  0  0  0  0  0  0  0  0
  -22.0431   -9.7963   21.6372 C   0  0  0  0  0  0  0  0  0  0  0  0
  -26.6021  -15.4471   22.7159 C   0  0  0  0  0  0  0  0  0  0  0  0
  -21.3207  -24.0801   24.6516 C   0  0  0  0  0  0  0  0  0  0  0  0
  -23.6950  -23.3429   25.6244 C   0  0  0  0  0  0  0  0  0  0  0  0
  -28.4978  -16.4430   23.2154 C   0  0  0  0  0  0  0  0  0  0  0  0
  -28.7713  -14.3519   21.8733 C   0  0  0  0  0  0  0  0  0  0  0  0
  -27.1919  -28.9472   21.0888 C   0  0  0  0  0  0  0  0  0  0  0  0
  -26.3389  -31.6625   22.6451 C   0  0  0  0  0  0  0  0  0  0  0  0
  -23.8479  -33.5780   23.9763 C   0  0  0  0  0  0  0  0  0  0  0  0
  -26.3731  -21.7044   24.4032 C   0  0  0  0  0  0  0  0  0  0  0  0
  -31.2456  -27.2383   18.4994 C   0  0  0  0  0  0  0  0  0  0  0  0
  -25.3737  -29.8381   19.5867 C   0  0  0  0  0  0  0  0  0  0  0  0
  -24.5662  -29.8800   22.4312 C   0  0  0  0  0  0  0  0  0  0  0  0
  -31.0076  -28.2729   19.5963 C   0  0  0  0  0  0  0  0  0  0  0  0
  -27.5341  -19.4146   26.8282 C   0  0  0  0  0  0  0  0  0  0  0  0
  -30.1636  -27.6768   20.7184 C   0  0  0  0  0  0  0  0  0  0  0  0
  -27.5553  -18.1123   26.0291 C   0  0  0  0  0  0  0  0  0  0  0  0
  -26.3110  -20.2719   26.4974 C   0  0  0  0  0  0  0  0  0  0  0  0
  -26.1658  -19.2413   24.2525 C   0  0  0  0  0  0  0  0  0  0  0  0
  -28.7831  -27.2513   20.2039 C   0  0  1  0  0  0  0  0  0  0  0  0
  -26.3707  -30.1440   20.7002 C   0  0  1  0  0  0  0  0  0  0  0  0
  -27.4156  -18.3892   24.5222 C   0  0  2  0  0  0  0  0  0  0  0  0
  -23.4632  -35.7256   25.2162 C   0  0  0  0  0  0  0  0  0  0  0  0
  -25.5614  -24.7662   23.6650 C   0  0  0  0  0  0  0  0  0  0  0  0
  -26.7844  -25.0823   25.8393 C   0  0  0  0  0  0  0  0  0  0  0  0
  -27.3412  -30.3561   25.2139 C   0  0  0  0  0  0  0  0  0  0  0  0
  -26.0898  -32.0978   26.5055 C   0  0  0  0  0  0  0  0  0  0  0  0
  -27.9372  -32.7728   24.9712 C   0  0  0  0  0  0  0  0  0  0  0  0
  -22.1806  -34.6759   21.7915 C   0  0  0  0  0  0  0  0  0  0  0  0
  -19.9813  -24.5094   24.1082 C   0  0  0  0  0  0  0  0  0  0  0  0
  -25.0172  -22.9189   26.1614 C   0  0  0  0  0  0  0  0  0  0  0  0
  -20.0524  -25.1214   22.7075 C   0  0  0  0  0  0  0  0  0  0  0  0
  -20.8577  -26.4144   22.6537 C   0  0  0  0  0  0  0  0  0  1  0  0
  -25.7440  -31.9784   23.9961 C   0  0  1  0  0  0  0  0  0  0  0  0
  -23.5402  -35.0593   23.8514 C   0  0  2  0  0  0  0  0  0  0  0  0
  -26.5379  -24.1509   24.6595 C   0  0  0  0  0  0  0  0  0  0  0  0
  -26.7645  -31.7846   25.1530 C   0  0  0  0  0  0  0  0  0  0  0  0
  -21.7217  -22.8193   24.3949 N   0  0  0  0  0  0  0  0  0  0  0  0
  -23.2937  -24.6037   25.8815 N   0  0  0  0  0  0  0  0  0  0  0  0
  -26.2396  -16.5219   23.4212 N   0  0  0  0  0  0  0  0  0  0  0  0
  -27.4143  -17.1070   23.7108 N   0  0  0  0  0  0  0  0  0  0  0  0
  -25.7238  -30.6322   21.9197 N   0  0  0  0  0  0  0  0  0  0  0  0
  -26.1886  -20.4719   25.0469 N   0  0  0  0  0  0  0  0  0  0  0  0
  -29.7546  -16.8938   23.4139 N   0  0  0  0  0  0  0  0  0  0  0  0
  -28.0976  -13.2930   21.2496 N   0  0  0  0  0  0  0  0  0  0  0  0
  -27.9236  -28.4054   20.0493 N   0  0  0  0  0  0  0  0  0  0  0  0
  -25.2018  -33.3292   23.8976 N   0  0  0  0  0  0  0  0  0  0  0  0
  -26.0475  -22.8617   25.1263 N   0  0  0  0  0  0  0  0  0  0  0  0
  -22.2377  -35.2609   23.1558 N   0  3  0  0  0  0  0  0  0  0  0  0
  -30.0244  -14.3917   21.8317 O   0  0  0  0  0  0  0  0  0  0  0  0
  -27.1649  -28.5460   22.2464 O   0  0  0  0  0  0  0  0  0  0  0  0
  -27.3090  -32.3108   22.2449 O   0  0  0  0  0  0  0  0  0  0  0  0
  -22.9748  -32.7272   24.1323 O   0  0  0  0  0  0  0  0  0  0  0  0
  -26.7980  -21.7685   23.2424 O   0  0  0  0  0  0  0  0  0  0  0  0
  -22.7174  -11.9341   20.7575 O   0  0  0  0  0  0  0  0  0  0  0  0
  -20.8442  -26.9072   21.3145 O   0  0  0  0  0  0  0  0  0  1  0  0
  -23.6138   -6.5266   21.3566 F   0  0  0  0  0  0  0  0  0  0  0  0
  -20.9589  -10.3553   22.1920 F   0  0  0  0  0  0  0  0  0  0  0  0
  1  2  1  0  0  0  0
  1  5  2  0  0  0  0
  2  6  2  0  0  0  0
  3  8  2  0  0  0  0
  3 17  1  0  0  0  0
  4  9  1  0  0  0  0
  4 17  2  0  0  0  0
  5 19  1  0  0  0  0
  6 21  1  0  0  0  0
  7 10  2  0  0  0  0
  7 20  1  0  0  0  0
  8 23  1  0  0  0  0
  9 23  2  0  0  0  0
 10 24  1  0  0  0  0
 11 12  2  0  0  0  0
 11 25  1  0  0  0  0
 12 26  1  0  0  0  0
 13 22  1  0  0  0  0
 13 24  2  0  0  0  0
 14 26  2  0  0  0  0
 14 27  1  0  0  0  0
 15 29  1  0  0  0  0
 15 65  2  0  0  0  0
 16 30  2  0  0  0  0
 16 64  1  0  0  0  0
 17 28  1  0  0  0  0
 18 28  1  0  0  0  0
 18 31  2  0  0  0  0
 18 32  1  0  0  0  0
 19 21  2  0  0  0  0
 19 37  1  0  0  0  0
 20 22  2  0  0  0  0
 20 38  1  0  0  0  0
 21 46  1  0  0  0  0
 22 39  1  0  0  0  0
 23 81  1  0  0  0  0
 24 82  1  0  0  0  0
 25 27  2  0  0  0  0
 25 81  1  0  0  0  0
 26 83  1  0  0  0  0
 27 84  1  0  0  0  0
 28 66  2  0  0  0  0
 29 56  1  0  0  0  0
 29 64  2  0  0  0  0
 30 57  1  0  0  0  0
 30 65  1  0  0  0  0
 31 67  1  0  0  0  0
 31 70  1  0  0  0  0
 32 71  1  0  0  0  0
 32 76  2  0  0  0  0
 33 47  1  0  0  0  0
 33 72  1  0  0  0  0
 33 77  2  0  0  0  0
 34 60  1  0  0  0  0
 34 68  1  0  0  0  0
 34 78  2  0  0  0  0
 35 61  1  0  0  0  0
 35 73  1  0  0  0  0
 35 79  2  0  0  0  0
 36 69  1  0  0  0  0
 36 74  1  0  0  0  0
 36 80  2  0  0  0  0
 37 40  1  0  0  0  0
 38 47  1  0  0  0  0
 39 68  1  0  0  0  0
 40 42  1  0  0  0  0
 41 43  1  0  0  0  0
 41 44  1  0  0  0  0
 42 46  1  0  0  0  0
 43 48  1  0  0  0  0
 44 69  1  0  0  0  0
 45 48  1  0  0  0  0
 45 69  1  0  0  0  0
 46 72  1  0  0  0  0
 47 68  1  0  0  0  0
 48 67  1  0  0  0  0
 49 61  1  0  0  0  0
 50 62  1  0  0  0  0
 51 62  1  0  0  0  0
 52 63  1  0  0  0  0
 53 63  1  0  0  0  0
 54 63  1  0  0  0  0
 55 75  1  0  0  0  0
 56 58  1  0  0  0  0
 57 74  1  0  0  0  0
 58 59  1  0  0  0  0
 59 82  1  0  0  0  0
 60 63  1  0  0  0  0
 60 73  1  0  0  0  0
 61 75  1  0  0  0  0
 62 74  1  0  0  0  0
 66 67  1  0  0  0  0
M  CHG  1  75   1
M  ISO  4  36 100  59 101  74 100  82 101
M  END
> <Batch ID>
0054

> <Smiles>
CNC(C)C(=O)NC(C(=O)N1Cc2cc([101O:1][101CH2:1]CCc3cnc(C[100N:0](C(C)C)[100C:0](=O)N4CCCC(n5nc(-c6ccc(Oc7ccc(F)cc7F)cc6)c(C(N)=O)c5N)C4)cn3)ccc2CC1C(=O)NC1CCCc2ccccc21)C(C)(C)C

> <Shape>
0.247

> <Color>
0.070

> <Negative vol penalty>
0.000

$$$$

  -OEChem-04052317413D

 81 89  0     1  0  0  0  0  0999 V2000
  -21.4577  -11.7682   37.2293 C   0  0  0  0  0  0  0  0  0  0  0  0
  -22.2879  -12.7479   36.6940 C   0  0  0  0  0  0  0  0  0  0  0  0
  -23.2886   -9.7995   19.9131 C   0  0  0  0  0  0  0  0  0  0  0  0
  -23.7398   -9.9399   22.2824 C   0  0  0  0  0  0  0  0  0  0  0  0
  -21.1398  -10.6383   36.4768 C   0  0  0  0  0  0  0  0  0  0  0  0
  -22.8014  -12.5977   35.4063 C   0  0  0  0  0  0  0  0  0  0  0  0
  -24.7014  -16.4447   29.6698 C   0  0  0  0  0  0  0  0  0  0  0  0
  -22.5624   -8.6269   20.1209 C   0  0  0  0  0  0  0  0  0  0  0  0
  -23.0136   -8.7673   22.4902 C   0  0  0  0  0  0  0  0  0  0  0  0
  -25.7771  -16.6238   28.8012 C   0  0  0  0  0  0  0  0  0  0  0  0
  -20.9750   -6.0069   23.6911 C   0  0  0  0  0  0  0  0  0  0  0  0
  -20.0736   -5.9814   24.7552 C   0  0  0  0  0  0  0  0  0  0  0  0
  -28.5407  -16.3427   24.1122 C   0  0  0  0  0  0  0  0  0  0  0  0
  -25.0959  -14.6680   27.5641 C   0  0  0  0  0  0  0  0  0  0  0  0
  -18.8637   -7.8285   23.7746 C   0  0  0  0  0  0  0  0  0  0  0  0
  -29.8331  -16.2207   23.6637 C   0  0  0  0  0  0  0  0  0  0  0  0
  -23.8774  -10.4560   20.9939 C   0  0  0  0  0  0  0  0  0  0  0  0
  -24.1365  -12.9861   20.7955 C   0  0  0  0  0  0  0  0  0  0  0  0
  -21.6419  -10.4788   35.1756 C   0  0  0  0  0  0  0  0  0  0  0  0
  -23.8196  -15.3678   29.4983 C   0  0  0  0  0  0  0  0  0  0  0  0
  -22.4910  -11.4640   34.6363 C   0  0  0  0  0  0  0  0  0  0  0  0
  -24.0083  -14.4790   28.4304 C   0  0  0  0  0  0  0  0  0  0  0  0
  -22.4249   -8.1108   21.4094 C   0  0  0  0  0  0  0  0  0  0  0  0
  -25.9762  -15.7337   27.7499 C   0  0  0  0  0  0  0  0  0  0  0  0
  -20.8208   -6.9432   22.6687 C   0  0  0  0  0  0  0  0  0  0  0  0
  -19.0179   -6.8922   24.7970 C   0  0  0  0  0  0  0  0  0  0  0  0
  -19.7651   -7.8540   22.7105 C   0  0  0  0  0  0  0  0  0  0  0  0
  -24.6282  -11.6671   20.7799 C   0  0  0  0  0  0  0  0  0  0  0  0
  -28.3912  -15.2976   25.0435 C   0  0  0  0  0  0  0  0  0  0  0  0
  -25.2378  -13.7661   20.5404 C   0  0  0  0  0  0  0  0  0  0  0  0
  -22.8034  -13.4635   21.0206 C   0  0  0  0  0  0  0  0  0  0  0  0
  -22.9941  -12.8444   31.2460 C   0  0  0  0  0  0  0  0  0  0  0  0
  -20.8309  -12.3961   28.8707 C   0  0  0  0  0  0  0  0  0  0  0  0
  -19.9451  -12.9346   25.6192 C   0  0  0  0  0  0  0  0  0  0  0  0
  -31.1091  -12.9236   21.3589 C   0  0  0  0  0  0  0  0  0  0  0  0
  -21.3086   -9.2177   34.4184 C   0  0  0  0  0  0  0  0  0  0  0  0
  -22.6486  -15.2039   30.4280 C   0  0  0  0  0  0  0  0  0  0  0  0
  -23.0786  -13.3185   28.1908 C   0  0  0  0  0  0  0  0  0  0  0  0
  -21.5914   -9.3135   32.9214 C   0  0  0  0  0  0  0  0  0  0  0  0
  -29.4595  -13.6632   18.2915 C   0  0  0  0  0  0  0  0  0  0  0  0
  -22.9682   -9.9227   32.6761 C   0  0  0  0  0  0  0  0  0  0  0  0
  -27.9899  -13.3545   18.5828 C   0  0  0  0  0  0  0  0  0  0  0  0
  -30.3930  -12.6838   18.9996 C   0  0  0  0  0  0  0  0  0  0  0  0
  -28.7068  -12.2541   20.7448 C   0  0  0  0  0  0  0  0  0  0  0  0
  -23.0477  -11.3489   33.2338 C   0  0  1  0  0  0  0  0  0  0  0  0
  -22.1110  -13.7767   30.4659 C   0  0  1  0  0  0  0  0  0  0  0  0
  -27.7286  -13.2492   20.0974 C   0  0  2  0  0  0  0  0  0  0  0  0
  -18.1390  -12.4120   23.9571 C   0  0  0  0  0  0  0  0  0  0  0  0
  -21.9127   -9.5568   28.5915 C   0  0  0  0  0  0  0  0  0  0  0  0
  -20.7785   -9.4183   26.3638 C   0  0  0  0  0  0  0  0  0  0  0  0
  -19.4240   -9.7452   28.4329 C   0  0  0  0  0  0  0  0  0  0  0  0
  -32.5691  -15.4093   23.1722 C   0  0  0  0  0  0  0  0  0  0  0  0
  -32.4164  -14.7368   25.5555 C   0  0  0  0  0  0  0  0  0  0  0  0
  -19.3064  -15.7992   25.2381 C   0  0  0  0  0  0  0  0  0  0  0  0
  -27.1699  -14.9564   25.8455 C   0  0  0  0  0  0  0  0  0  1  0  0
  -31.6714  -13.1371   23.7666 C   0  0  0  0  0  0  0  0  0  0  0  0
  -20.8262  -11.6568   27.5545 C   0  0  1  0  0  0  0  0  0  0  0  0
  -18.6435  -13.4034   24.9942 C   0  0  2  0  0  0  0  0  0  0  0  0
  -20.7542  -10.1149   27.7411 C   0  0  0  0  0  0  0  0  0  0  0  0
  -31.6978  -14.6315   24.1888 C   0  0  0  0  0  0  0  0  0  0  0  0
  -25.9397  -11.6086   20.5341 N   0  0  0  0  0  0  0  0  0  0  0  0
  -29.5001  -14.5656   25.1794 N   0  0  0  0  0  0  0  0  0  0  0  0
  -30.3587  -15.1514   24.3275 N   0  0  0  0  0  0  0  0  0  0  0  0
  -26.2815  -12.9006   20.3929 N   0  0  0  0  0  0  0  0  0  0  0  0
  -21.9519  -13.1970   29.1307 N   0  0  0  0  0  0  0  0  0  0  0  0
  -30.0940  -12.6322   20.4327 N   0  0  0  0  0  0  0  0  0  0  0  0
  -25.4056  -15.1011   20.4301 N   0  0  0  0  0  0  0  0  0  0  0  0
  -21.7910  -12.5265   21.2682 N   0  0  0  0  0  0  0  0  0  0  0  0
  -22.3802  -12.2767   32.3461 N   0  0  0  0  0  0  0  0  0  0  0  0
  -19.7267  -12.2165   26.7759 N   0  0  0  0  0  0  0  0  0  0  0  0
  -30.7396  -12.8579   22.6967 N   0  0  0  0  0  0  0  0  0  0  0  0
  -18.8341  -14.7232   24.3290 N   0  3  0  0  0  0  0  0  0  0  0  0
  -22.5154  -14.6840   20.9865 O   0  0  0  0  0  0  0  0  0  0  0  0
  -24.1466  -12.6530   30.8763 O   0  0  0  0  0  0  0  0  0  0  0  0
  -19.8718  -12.2733   29.6367 O   0  0  0  0  0  0  0  0  0  0  0  0
  -21.0452  -13.1777   25.1283 O   0  0  0  0  0  0  0  0  0  0  0  0
  -32.2580  -13.2255   21.0185 O   0  0  0  0  0  0  0  0  0  0  0  0
  -21.7161   -6.9667   21.6125 O   0  0  0  0  0  0  0  0  0  0  0  0
  -27.0258  -15.9058   26.9010 O   0  0  0  0  0  0  0  0  0  1  0  0
  -18.1515   -6.8665   25.8182 F   0  0  0  0  0  0  0  0  0  0  0  0
  -19.6112   -8.7551   21.7306 F   0  0  0  0  0  0  0  0  0  0  0  0
  1  2  1  0  0  0  0
  1  5  2  0  0  0  0
  2  6  2  0  0  0  0
  3  8  2  0  0  0  0
  3 17  1  0  0  0  0
  4  9  1  0  0  0  0
  4 17  2  0  0  0  0
  5 19  1  0  0  0  0
  6 21  1  0  0  0  0
  7 10  2  0  0  0  0
  7 20  1  0  0  0  0
  8 23  1  0  0  0  0
  9 23  2  0  0  0  0
 10 24  1  0  0  0  0
 11 12  2  0  0  0  0
 11 25  1  0  0  0  0
 12 26  1  0  0  0  0
 13 16  2  0  0  0  0
 13 29  1  0  0  0  0
 14 22  1  0  0  0  0
 14 24  2  0  0  0  0
 15 26  2  0  0  0  0
 15 27  1  0  0  0  0
 16 63  1  0  0  0  0
 17 28  1  0  0  0  0
 18 28  1  0  0  0  0
 18 30  2  0  0  0  0
 18 31  1  0  0  0  0
 19 21  2  0  0  0  0
 19 36  1  0  0  0  0
 20 22  2  0  0  0  0
 20 37  1  0  0  0  0
 21 45  1  0  0  0  0
 22 38  1  0  0  0  0
 23 78  1  0  0  0  0
 24 79  1  0  0  0  0
 25 27  2  0  0  0  0
 25 78  1  0  0  0  0
 26 80  1  0  0  0  0
 27 81  1  0  0  0  0
 28 61  2  0  0  0  0
 29 55  1  0  0  0  0
 29 62  2  0  0  0  0
 30 64  1  0  0  0  0
 30 67  1  0  0  0  0
 31 68  1  0  0  0  0
 31 73  2  0  0  0  0
 32 46  1  0  0  0  0
 32 69  1  0  0  0  0
 32 74  2  0  0  0  0
 33 57  1  0  0  0  0
 33 65  1  0  0  0  0
 33 75  2  0  0  0  0
 34 58  1  0  0  0  0
 34 70  1  0  0  0  0
 34 76  2  0  0  0  0
 35 66  1  0  0  0  0
 35 71  1  0  0  0  0
 35 77  2  0  0  0  0
 36 39  1  0  0  0  0
 37 46  1  0  0  0  0
 38 65  1  0  0  0  0
 39 41  1  0  0  0  0
 40 42  1  0  0  0  0
 40 43  1  0  0  0  0
 41 45  1  0  0  0  0
 42 47  1  0  0  0  0
 43 66  1  0  0  0  0
 44 47  1  0  0  0  0
 44 66  1  0  0  0  0
 45 69  1  0  0  0  0
 46 65  1  0  0  0  0
 47 64  1  0  0  0  0
 48 58  1  0  0  0  0
 49 59  1  0  0  0  0
 50 59  1  0  0  0  0
 51 59  1  0  0  0  0
 52 60  1  0  0  0  0
 53 60  1  0  0  0  0
 54 72  1  0  0  0  0
 55 79  1  0  0  0  0
 56 60  1  0  0  0  0
 56 71  1  0  0  0  0
 57 59  1  0  0  0  0
 57 70  1  0  0  0  0
 58 72  1  0  0  0  0
 60 63  1  0  0  0  0
 61 64  1  0  0  0  0
 62 63  1  0  0  0  0
M  CHG  1  72   1
M  ISO  4  35 100  55 101  71 100  79 101
M  END
> <Batch ID>
0054

> <Smiles>
CNC(C)C(=O)NC(C(=O)N1Cc2cc([101O:1][101CH2:1]c3ccn(C(C)(C)C[100NH:0][100C:0](=O)N4CCCC(n5nc(-c6ccc(Oc7ccc(F)cc7F)cc6)c(C(N)=O)c5N)C4)n3)ccc2CC1C(=O)NC1CCCc2ccccc21)C(C)(C)C

> <Shape>
0.134

> <Color>
0.174

> <Negative vol penalty>
0.000

$$$$

  -OEChem-04052317413D

 82 90  0     1  0  0  0  0  0999 V2000
  -16.5255  -29.3431   23.0263 C   0  0  0  0  0  0  0  0  0  0  0  0
  -17.4727  -29.2611   22.0108 C   0  0  0  0  0  0  0  0  0  0  0  0
  -25.6857  -14.4900   21.1243 C   0  0  0  0  0  0  0  0  0  0  0  0
  -25.6081  -14.5527   18.7104 C   0  0  0  0  0  0  0  0  0  0  0  0
  -16.9341  -29.3612   24.3593 C   0  0  0  0  0  0  0  0  0  0  0  0
  -18.8293  -29.1983   22.3275 C   0  0  0  0  0  0  0  0  0  0  0  0
  -24.9784  -26.3499   20.0056 C   0  0  0  0  0  0  0  0  0  0  0  0
  -24.6708  -13.5332   21.1321 C   0  0  0  0  0  0  0  0  0  0  0  0
  -24.5933  -13.5958   18.7182 C   0  0  0  0  0  0  0  0  0  0  0  0
  -26.2830  -26.7208   19.6826 C   0  0  0  0  0  0  0  0  0  0  0  0
  -24.3806  -10.2056   20.6066 C   0  0  0  0  0  0  0  0  0  0  0  0
  -24.5365   -9.1022   21.4455 C   0  0  0  0  0  0  0  0  0  0  0  0
  -26.8676  -26.6796   22.0226 C   0  0  0  0  0  0  0  0  0  0  0  0
  -22.5076   -9.7024   22.6119 C   0  0  0  0  0  0  0  0  0  0  0  0
  -29.6813  -24.8071   16.3512 C   0  0  0  0  0  0  0  0  0  0  0  0
  -26.1543  -14.9999   19.9135 C   0  0  0  0  0  0  0  0  0  0  0  0
  -28.5898  -15.7566   19.8540 C   0  0  0  0  0  0  0  0  0  0  0  0
  -18.2957  -29.2889   24.6928 C   0  0  0  0  0  0  0  0  0  0  0  0
  -24.6052  -26.1514   21.3426 C   0  0  0  0  0  0  0  0  0  0  0  0
  -19.2565  -29.2168   23.6661 C   0  0  0  0  0  0  0  0  0  0  0  0
  -25.5583  -26.3037   22.3597 C   0  0  0  0  0  0  0  0  0  0  0  0
  -24.1247  -13.0860   19.9291 C   0  0  0  0  0  0  0  0  0  0  0  0
  -27.2271  -26.8885   20.6914 C   0  0  0  0  0  0  0  0  0  0  0  0
  -23.2883  -11.0575   20.7704 C   0  0  0  0  0  0  0  0  0  0  0  0
  -23.6000   -8.8505   22.4481 C   0  0  0  0  0  0  0  0  0  0  0  0
  -22.3518  -10.8058   21.7731 C   0  0  0  0  0  0  0  0  0  0  0  0
  -27.2022  -15.9888   19.9048 C   0  0  0  0  0  0  0  0  0  0  0  0
  -29.4120  -23.4787   16.1788 C   0  0  0  0  0  0  0  0  0  0  0  0
  -29.1485  -17.0112   19.8678 C   0  0  0  0  0  0  0  0  0  0  0  0
  -30.8694  -23.6712   17.8340 C   0  0  0  0  0  0  0  0  0  0  0  0
  -29.3092  -14.5176   19.7991 C   0  0  0  0  0  0  0  0  0  0  0  0
  -22.5157  -27.5120   23.3140 C   0  0  0  0  0  0  0  0  0  0  0  0
  -23.4254  -25.1178   25.3046 C   0  0  0  0  0  0  0  0  0  0  0  0
  -25.8030  -22.8380   26.1973 C   0  0  0  0  0  0  0  0  0  0  0  0
  -27.1174  -22.3977   18.2212 C   0  0  0  0  0  0  0  0  0  0  0  0
  -18.6918  -29.3595   26.1464 C   0  0  0  0  0  0  0  0  0  0  0  0
  -23.2008  -25.7255   21.6724 C   0  0  0  0  0  0  0  0  0  0  0  0
  -25.2136  -26.0828   23.8091 C   0  0  0  0  0  0  0  0  0  0  0  0
  -20.1273  -28.9115   26.4090 C   0  0  0  0  0  0  0  0  0  0  0  0
  -28.3307  -21.4575   21.4338 C   0  0  0  0  0  0  0  0  0  0  0  0
  -21.0786  -29.5506   25.4023 C   0  0  0  0  0  0  0  0  0  0  0  0
  -28.3042  -19.9284   21.4016 C   0  0  0  0  0  0  0  0  0  0  0  0
  -27.1496  -22.0584   20.6749 C   0  0  0  0  0  0  0  0  0  0  0  0
  -26.9706  -20.0515   19.2557 C   0  0  0  0  0  0  0  0  0  0  0  0
  -20.7359  -29.1220   23.9704 C   0  0  1  0  0  0  0  0  0  0  0  0
  -22.7992  -26.0509   23.1077 C   0  0  1  0  0  0  0  0  0  0  0  0
  -28.1727  -19.4000   19.9605 C   0  0  2  0  0  0  0  0  0  0  0  0
  -31.7978  -23.3203   18.9375 C   0  0  0  0  0  0  0  0  0  0  0  0
  -26.8361  -20.9136   27.4329 C   0  0  0  0  0  0  0  0  0  0  0  0
  -24.0244  -27.2550   27.3983 C   0  0  0  0  0  0  0  0  0  0  0  0
  -25.3512  -25.5477   28.6604 C   0  0  0  0  0  0  0  0  0  0  0  0
  -22.9082  -25.2032   28.2919 C   0  0  0  0  0  0  0  0  0  0  0  0
  -24.7213  -20.8694   24.2703 C   0  0  0  0  0  0  0  0  0  0  0  0
  -28.5302  -22.7840   15.2373 C   0  0  0  0  0  0  0  0  0  0  0  0
  -30.5151  -26.6553   19.2193 C   0  0  0  0  0  0  0  0  0  0  0  0
  -31.1650  -26.1820   17.9173 C   0  0  0  0  0  0  0  0  0  0  0  0
  -27.0874  -22.5751   15.7460 C   0  0  0  0  0  0  0  0  0  0  0  0
  -29.0045  -26.8283   19.1124 C   0  0  0  0  0  0  0  0  0  1  0  0
  -24.5035  -24.9459   26.3474 C   0  0  1  0  0  0  0  0  0  0  0  0
  -25.7095  -21.3559   26.5121 C   0  0  2  0  0  0  0  0  0  0  0  0
  -24.2031  -25.7441   27.6474 C   0  0  0  0  0  0  0  0  0  0  0  0
  -26.8981  -17.2887   19.9478 N   0  0  0  0  0  0  0  0  0  0  0  0
  -30.5855  -24.8970   17.3819 N   0  0  0  0  0  0  0  0  0  0  0  0
  -28.1025  -17.8846   19.9242 N   0  0  0  0  0  0  0  0  0  0  0  0
  -30.1608  -22.7993   17.1093 N   0  3  0  0  0  0  0  0  0  0  0  0
  -23.8258  -25.6735   24.0813 N   0  0  0  0  0  0  0  0  0  0  0  0
  -27.0824  -21.5174   19.3152 N   0  0  0  0  0  0  0  0  0  0  0  0
  -30.4277  -17.4415   19.8371 N   0  0  0  0  0  0  0  0  0  0  0  0
  -28.5795  -13.3210   19.7923 N   0  0  0  0  0  0  0  0  0  0  0  0
  -21.2210  -27.7829   23.7138 N   0  0  0  0  0  0  0  0  0  0  0  0
  -24.6507  -23.5086   26.5492 N   0  0  0  0  0  0  0  0  0  0  0  0
  -27.0554  -21.8019   16.9675 N   0  0  0  0  0  0  0  0  0  0  0  0
  -25.7853  -20.5543   25.2580 N   0  3  0  0  0  0  0  0  0  0  0  0
  -30.5626  -14.4725   19.7740 O   0  0  0  0  0  0  0  0  0  0  0  0
  -23.4061  -28.3327   23.1259 O   0  0  0  0  0  0  0  0  0  0  0  0
  -22.2720  -24.7652   25.5635 O   0  0  0  0  0  0  0  0  0  0  0  0
  -26.8000  -23.3504   25.6933 O   0  0  0  0  0  0  0  0  0  0  0  0
  -27.2034  -23.6235   18.3520 O   0  0  0  0  0  0  0  0  0  0  0  0
  -23.1345  -12.1521   19.9363 O   0  0  0  0  0  0  0  0  0  0  0  0
  -28.5010  -27.2511   20.3789 O   0  0  0  0  0  0  0  0  0  1  0  0
  -23.7490   -7.7900   23.2526 F   0  0  0  0  0  0  0  0  0  0  0  0
  -21.2997  -11.6200   21.9345 F   0  0  0  0  0  0  0  0  0  0  0  0
  1  2  1  0  0  0  0
  1  5  2  0  0  0  0
  2  6  2  0  0  0  0
  3  8  2  0  0  0  0
  3 16  1  0  0  0  0
  4  9  1  0  0  0  0
  4 16  2  0  0  0  0
  5 18  1  0  0  0  0
  6 20  1  0  0  0  0
  7 10  2  0  0  0  0
  7 19  1  0  0  0  0
  8 22  1  0  0  0  0
  9 22  2  0  0  0  0
 10 23  1  0  0  0  0
 11 12  2  0  0  0  0
 11 24  1  0  0  0  0
 12 25  1  0  0  0  0
 13 21  1  0  0  0  0
 13 23  2  0  0  0  0
 14 25  2  0  0  0  0
 14 26  1  0  0  0  0
 15 28  2  0  0  0  0
 15 63  1  0  0  0  0
 16 27  1  0  0  0  0
 17 27  1  0  0  0  0
 17 29  2  0  0  0  0
 17 31  1  0  0  0  0
 18 20  2  0  0  0  0
 18 36  1  0  0  0  0
 19 21  2  0  0  0  0
 19 37  1  0  0  0  0
 20 45  1  0  0  0  0
 21 38  1  0  0  0  0
 22 79  1  0  0  0  0
 23 80  1  0  0  0  0
 24 26  2  0  0  0  0
 24 79  1  0  0  0  0
 25 81  1  0  0  0  0
 26 82  1  0  0  0  0
 27 62  2  0  0  0  0
 28 54  1  0  0  0  0
 28 65  1  0  0  0  0
 29 64  1  0  0  0  0
 29 68  1  0  0  0  0
 30 48  1  0  0  0  0
 30 63  1  0  0  0  0
 30 65  2  0  0  0  0
 31 69  1  0  0  0  0
 31 74  2  0  0  0  0
 32 46  1  0  0  0  0
 32 70  1  0  0  0  0
 32 75  2  0  0  0  0
 33 59  1  0  0  0  0
 33 66  1  0  0  0  0
 33 76  2  0  0  0  0
 34 60  1  0  0  0  0
 34 71  1  0  0  0  0
 34 77  2  0  0  0  0
 35 67  1  0  0  0  0
 35 72  1  0  0  0  0
 35 78  2  0  0  0  0
 36 39  1  0  0  0  0
 37 46  1  0  0  0  0
 38 66  1  0  0  0  0
 39 41  1  0  0  0  0
 40 42  1  0  0  0  0
 40 43  1  0  0  0  0
 41 45  1  0  0  0  0
 42 47  1  0  0  0  0
 43 67  1  0  0  0  0
 44 47  1  0  0  0  0
 44 67  1  0  0  0  0
 45 70  1  0  0  0  0
 46 66  1  0  0  0  0
 47 64  1  0  0  0  0
 49 60  1  0  0  0  0
 50 61  1  0  0  0  0
 51 61  1  0  0  0  0
 52 61  1  0  0  0  0
 53 73  1  0  0  0  0
 54 57  1  0  0  0  0
 55 56  1  0  0  0  0
 55 58  1  0  0  0  0
 56 63  1  0  0  0  0
 57 72  1  0  0  0  0
 58 80  1  0  0  0  0
 59 61  1  0  0  0  0
 59 71  1  0  0  0  0
 60 73  1  0  0  0  0
 62 64  1  0  0  0  0
M  CHG  2  65   1  73   1
M  ISO  4  35 100  58 101  72 100  80 101
M  END
> <Batch ID>
0054

> <Smiles>
CNC(C)C(=O)NC(C(=O)N1Cc2cc([101O:1][101CH2:1]CCn3cc(CC[100NH:0][100C:0](=O)N4CCCC(n5nc(-c6ccc(Oc7ccc(F)cc7F)cc6)c(C(N)=O)c5N)C4)nc3C)ccc2CC1C(=O)NC1CCCc2ccccc21)C(C)(C)C

> <Shape>
0.227

> <Color>
0.080

> <Negative vol penalty>
0.000

$$$$

  -OEChem-04052317413D

 84 92  0     1  0  0  0  0  0999 V2000
  -23.7060  -24.0786   11.5750 C   0  0  0  0  0  0  0  0  0  0  0  0
  -23.8600  -22.7758   12.0380 C   0  0  0  0  0  0  0  0  0  0  0  0
  -28.3853  -26.6548   19.6290 C   0  0  0  0  0  0  0  0  0  0  0  0
  -28.5792  -25.7086   21.8435 C   0  0  0  0  0  0  0  0  0  0  0  0
  -23.7041  -25.1420   12.4767 C   0  0  0  0  0  0  0  0  0  0  0  0
  -24.0132  -22.5357   13.4030 C   0  0  0  0  0  0  0  0  0  0  0  0
  -21.9279  -17.7132   16.5496 C   0  0  0  0  0  0  0  0  0  0  0  0
  -27.8560  -27.8241   20.1749 C   0  0  0  0  0  0  0  0  0  0  0  0
  -28.0499  -26.8780   22.3895 C   0  0  0  0  0  0  0  0  0  0  0  0
  -22.5401  -16.5352   16.9755 C   0  0  0  0  0  0  0  0  0  0  0  0
  -26.1185  -30.9213   20.9574 C   0  0  0  0  0  0  0  0  0  0  0  0
  -24.9981  -31.4777   20.3403 C   0  0  0  0  0  0  0  0  0  0  0  0
  -22.9500  -17.5351   19.1322 C   0  0  0  0  0  0  0  0  0  0  0  0
  -23.7589  -29.4463   20.7588 C   0  0  0  0  0  0  0  0  0  0  0  0
  -24.0064  -12.8375   20.4860 C   0  0  0  0  0  0  0  0  0  0  0  0
  -28.7469  -25.5970   20.4633 C   0  0  0  0  0  0  0  0  0  0  0  0
  -30.6499  -24.1009   19.6584 C   0  0  0  0  0  0  0  0  0  0  0  0
  -23.8476  -24.9140   13.8544 C   0  0  0  0  0  0  0  0  0  0  0  0
  -21.8318  -18.8166   17.4097 C   0  0  0  0  0  0  0  0  0  0  0  0
  -24.0145  -23.5972   14.3239 C   0  0  0  0  0  0  0  0  0  0  0  0
  -22.3339  -18.7251   18.7156 C   0  0  0  0  0  0  0  0  0  0  0  0
  -27.6883  -27.9358   21.5551 C   0  0  0  0  0  0  0  0  0  0  0  0
  -23.0538  -16.4470   18.2660 C   0  0  0  0  0  0  0  0  0  0  0  0
  -26.0591  -29.6274   21.4752 C   0  0  0  0  0  0  0  0  0  0  0  0
  -23.8183  -30.7402   20.2410 C   0  0  0  0  0  0  0  0  0  0  0  0
  -24.8793  -28.8899   21.3759 C   0  0  0  0  0  0  0  0  0  0  0  0
  -29.2932  -24.3886   19.8999 C   0  0  0  0  0  0  0  0  0  0  0  0
  -24.6810  -11.6557   20.7153 C   0  0  0  0  0  0  0  0  0  0  0  0
  -24.7999  -13.9472   20.2782 C   0  0  0  0  0  0  0  0  0  0  0  0
  -30.6424  -22.8373   19.1201 C   0  0  0  0  0  0  0  0  0  0  0  0
  -26.6880  -12.7057   20.5248 C   0  0  0  0  0  0  0  0  0  0  0  0
  -31.8129  -24.9040   19.8992 C   0  0  0  0  0  0  0  0  0  0  0  0
  -22.9322  -21.7984   17.3646 C   0  0  0  0  0  0  0  0  0  0  0  0
  -28.8784  -17.6283   19.3001 C   0  0  0  0  0  0  0  0  0  0  0  0
  -21.1007  -22.1005   20.0249 C   0  0  0  0  0  0  0  0  0  0  0  0
  -19.5668  -20.5904   22.6731 C   0  0  0  0  0  0  0  0  0  0  0  0
  -23.8867  -26.0993   14.7862 C   0  0  0  0  0  0  0  0  0  0  0  0
  -21.1447  -20.0710   16.9439 C   0  0  0  0  0  0  0  0  0  0  0  0
  -22.2379  -19.8742   19.6845 C   0  0  0  0  0  0  0  0  0  0  0  0
  -23.6790  -25.7286   16.2524 C   0  0  0  0  0  0  0  0  0  0  0  0
  -26.8277  -19.9862   17.4394 C   0  0  0  0  0  0  0  0  0  0  0  0
  -24.5414  -24.5274   16.6267 C   0  0  0  0  0  0  0  0  0  0  0  0
  -27.3853  -21.3242   17.9230 C   0  0  0  0  0  0  0  0  0  0  0  0
  -26.8340  -18.9406   18.5515 C   0  0  0  0  0  0  0  0  0  0  0  0
  -28.7347  -20.0717   19.6618 C   0  0  0  0  0  0  0  0  0  0  0  0
  -24.1585  -23.2942   15.7996 C   0  0  1  0  0  0  0  0  0  0  0  0
  -21.5605  -21.3084   17.7334 C   0  0  1  0  0  0  0  0  0  0  0  0
  -28.7739  -21.1451   18.5613 C   0  0  2  0  0  0  0  0  0  0  0  0
  -23.9078  -10.4014   20.9502 C   0  0  0  0  0  0  0  0  0  0  0  0
  -18.1756  -21.1025   24.6979 C   0  0  0  0  0  0  0  0  0  0  0  0
  -23.5810  -23.1467   21.4615 C   0  0  0  0  0  0  0  0  0  0  0  0
  -22.4087  -22.7377   23.6357 C   0  0  0  0  0  0  0  0  0  0  0  0
  -21.4683  -24.3711   22.0016 C   0  0  0  0  0  0  0  0  0  0  0  0
  -17.3194  -18.9341   21.6910 C   0  0  0  0  0  0  0  0  0  0  0  0
  -28.6233  -13.8385   16.9590 C   0  0  0  0  0  0  0  0  0  0  0  0
  -24.1567  -15.2777   20.0188 C   0  0  0  0  0  0  0  0  0  1  0  0
  -28.1774  -12.6325   20.5426 C   0  0  0  0  0  0  0  0  0  0  0  0
  -28.2096  -16.3749   18.7946 C   0  0  0  0  0  0  0  0  0  0  0  0
  -28.8242  -12.6869   19.1577 C   0  0  0  0  0  0  0  0  0  0  0  0
  -29.0903  -15.1589   19.0183 C   0  0  0  0  0  0  0  0  0  0  0  0
  -21.3223  -21.8966   21.5042 C   0  0  1  0  0  0  0  0  0  0  0  0
  -18.1591  -20.7156   23.2272 C   0  0  2  0  0  0  0  0  0  0  0  0
  -22.1988  -23.0169   22.1321 C   0  0  0  0  0  0  0  0  0  0  0  0
  -28.4827  -23.3884   19.5439 N   0  0  0  0  0  0  0  0  0  0  0  0
  -26.0260  -11.5532   20.7417 N   0  0  0  0  0  0  0  0  0  0  0  0
  -26.1487  -13.9173   20.2909 N   0  0  0  0  0  0  0  0  0  0  0  0
  -29.3327  -22.4598   19.0733 N   0  0  0  0  0  0  0  0  0  0  0  0
  -21.5628  -21.0814   19.1801 N   0  0  0  0  0  0  0  0  0  0  0  0
  -28.1679  -18.8198   19.1521 N   0  0  0  0  0  0  0  0  0  0  0  0
  -31.6285  -22.0235   18.6868 N   0  0  0  0  0  0  0  0  0  0  0  0
  -31.6413  -26.1780   20.4578 N   0  0  0  0  0  0  0  0  0  0  0  0
  -22.9452  -22.6969   16.3149 N   0  0  0  0  0  0  0  0  0  0  0  0
  -19.9974  -21.7690   22.1016 N   0  0  0  0  0  0  0  0  0  0  0  0
  -17.4313  -19.4224   23.0896 N   0  3  0  0  0  0  0  0  0  0  0  0
  -28.4236  -13.9292   18.4520 N   0  3  1  0  0  0  0  0  0  0  0  0
  -32.9688  -24.5103   19.6120 O   0  0  0  0  0  0  0  0  0  0  0  0
  -23.9064  -21.3925   17.9873 O   0  0  0  0  0  0  0  0  0  0  0  0
  -29.9997  -17.5492   19.8085 O   0  0  0  0  0  0  0  0  0  0  0  0
  -20.5321  -23.1229   19.6338 O   0  0  0  0  0  0  0  0  0  0  0  0
  -20.2206  -19.5521   22.7439 O   0  0  0  0  0  0  0  0  0  0  0  0
  -27.1720  -29.0767   22.0882 O   0  0  0  0  0  0  0  0  0  0  0  0
  -23.6524  -15.2986   18.6840 O   0  0  0  0  0  0  0  0  0  1  0  0
  -22.7420  -31.2752   19.6498 F   0  0  0  0  0  0  0  0  0  0  0  0
  -24.8158  -27.6469   21.8724 F   0  0  0  0  0  0  0  0  0  0  0  0
  1  2  1  0  0  0  0
  1  5  2  0  0  0  0
  2  6  2  0  0  0  0
  3  8  2  0  0  0  0
  3 16  1  0  0  0  0
  4  9  1  0  0  0  0
  4 16  2  0  0  0  0
  5 18  1  0  0  0  0
  6 20  1  0  0  0  0
  7 10  2  0  0  0  0
  7 19  1  0  0  0  0
  8 22  1  0  0  0  0
  9 22  2  0  0  0  0
 10 23  1  0  0  0  0
 11 12  2  0  0  0  0
 11 24  1  0  0  0  0
 12 25  1  0  0  0  0
 13 21  1  0  0  0  0
 13 23  2  0  0  0  0
 14 25  2  0  0  0  0
 14 26  1  0  0  0  0
 15 28  2  0  0  0  0
 15 29  1  0  0  0  0
 16 27  1  0  0  0  0
 17 27  1  0  0  0  0
 17 30  2  0  0  0  0
 17 32  1  0  0  0  0
 18 20  2  0  0  0  0
 18 37  1  0  0  0  0
 19 21  2  0  0  0  0
 19 38  1  0  0  0  0
 20 46  1  0  0  0  0
 21 39  1  0  0  0  0
 22 81  1  0  0  0  0
 23 82  1  0  0  0  0
 24 26  2  0  0  0  0
 24 81  1  0  0  0  0
 25 83  1  0  0  0  0
 26 84  1  0  0  0  0
 27 64  2  0  0  0  0
 28 49  1  0  0  0  0
 28 65  1  0  0  0  0
 29 56  1  0  0  0  0
 29 66  2  0  0  0  0
 30 67  1  0  0  0  0
 30 70  1  0  0  0  0
 31 57  1  0  0  0  0
 31 65  2  0  0  0  0
 31 66  1  0  0  0  0
 32 71  1  0  0  0  0
 32 76  2  0  0  0  0
 33 47  1  0  0  0  0
 33 72  1  0  0  0  0
 33 77  2  0  0  0  0
 34 58  1  0  0  0  0
 34 69  1  0  0  0  0
 34 78  2  0  0  0  0
 35 61  1  0  0  0  0
 35 68  1  0  0  0  0
 35 79  2  0  0  0  0
 36 62  1  0  0  0  0
 36 73  1  0  0  0  0
 36 80  2  0  0  0  0
 37 40  1  0  0  0  0
 38 47  1  0  0  0  0
 39 68  1  0  0  0  0
 40 42  1  0  0  0  0
 41 43  1  0  0  0  0
 41 44  1  0  0  0  0
 42 46  1  0  0  0  0
 43 48  1  0  0  0  0
 44 69  1  0  0  0  0
 45 48  1  0  0  0  0
 45 69  1  0  0  0  0
 46 72  1  0  0  0  0
 47 68  1  0  0  0  0
 48 67  1  0  0  0  0
 50 62  1  0  0  0  0
 51 63  1  0  0  0  0
 52 63  1  0  0  0  0
 53 63  1  0  0  0  0
 54 74  1  0  0  0  0
 55 75  1  0  0  0  0
 56 82  1  0  0  0  0
 57 59  1  0  0  0  0
 58 60  1  0  0  0  0
 59 75  1  0  0  0  0
 60 75  1  0  0  0  0
 61 63  1  0  0  0  0
 61 73  1  0  0  0  0
 62 74  1  0  0  0  0
 64 67  1  0  0  0  0
M  CHG  2  74   1  75   1
M  ISO  4  34 100  56 101  58 100  82 101
M  END
> <Batch ID>
0054

> <Smiles>
CNC(C)C(=O)NC(C(=O)N1Cc2cc([101O:1][101CH2:1]c3cc(C)nc(CCN(C)C[100CH2:0][100C:0](=O)N4CCCC(n5nc(-c6ccc(Oc7ccc(F)cc7F)cc6)c(C(N)=O)c5N)C4)n3)ccc2CC1C(=O)NC1CCCc2ccccc21)C(C)(C)C

> <Shape>
0.188

> <Color>
0.080

> <Negative vol penalty>
0.000

$$$$

  -OEChem-04052317413D

 82 90  0     1  0  0  0  0  0999 V2000
  -32.4818  -25.7819   16.9926 C   0  0  0  0  0  0  0  0  0  0  0  0
  -31.3065  -25.2132   17.4731 C   0  0  0  0  0  0  0  0  0  0  0  0
  -24.7905  -12.0992   21.3293 C   0  0  0  0  0  0  0  0  0  0  0  0
  -25.0596  -13.5178   23.2664 C   0  0  0  0  0  0  0  0  0  0  0  0
  -33.0618  -26.8556   17.6670 C   0  0  0  0  0  0  0  0  0  0  0  0
  -30.7111  -25.7173   18.6289 C   0  0  0  0  0  0  0  0  0  0  0  0
  -25.6984  -26.2584   18.1546 C   0  0  0  0  0  0  0  0  0  0  0  0
  -24.9795  -10.9718   22.1286 C   0  0  0  0  0  0  0  0  0  0  0  0
  -25.2485  -12.3904   24.0657 C   0  0  0  0  0  0  0  0  0  0  0  0
  -24.9204  -25.1067   18.2648 C   0  0  0  0  0  0  0  0  0  0  0  0
  -23.1595   -9.1211   24.2955 C   0  0  0  0  0  0  0  0  0  0  0  0
  -22.2890   -8.0461   24.1163 C   0  0  0  0  0  0  0  0  0  0  0  0
  -24.3950  -25.6872   20.5465 C   0  0  0  0  0  0  0  0  0  0  0  0
  -24.1588   -6.6277   23.5424 C   0  0  0  0  0  0  0  0  0  0  0  0
  -23.6703  -20.3543   22.7576 C   0  0  0  0  0  0  0  0  0  0  0  0
  -24.8306  -13.3722   21.8982 C   0  0  0  0  0  0  0  0  0  0  0  0
  -23.4164  -15.1745   20.7759 C   0  0  0  0  0  0  0  0  0  0  0  0
  -32.4680  -27.3792   18.8262 C   0  0  0  0  0  0  0  0  0  0  0  0
  -25.8396  -27.1290   19.2449 C   0  0  0  0  0  0  0  0  0  0  0  0
  -31.2845  -26.7981   19.3202 C   0  0  0  0  0  0  0  0  0  0  0  0
  -25.1733  -26.8506   20.4468 C   0  0  0  0  0  0  0  0  0  0  0  0
  -25.2085  -11.1174   23.4968 C   0  0  0  0  0  0  0  0  0  0  0  0
  -24.2709  -24.8195   19.4618 C   0  0  0  0  0  0  0  0  0  0  0  0
  -24.5297   -8.9495   24.0981 C   0  0  0  0  0  0  0  0  0  0  0  0
  -22.7886   -6.7994   23.7398 C   0  0  0  0  0  0  0  0  0  0  0  0
  -25.0293   -7.7027   23.7216 C   0  0  0  0  0  0  0  0  0  0  0  0
  -24.6360  -14.5372   21.0729 C   0  0  0  0  0  0  0  0  0  0  0  0
  -24.8656  -20.0875   23.3633 C   0  0  0  0  0  0  0  0  0  0  0  0
  -23.7664  -16.2229   19.9606 C   0  0  0  0  0  0  0  0  0  0  0  0
  -25.2603  -20.4996   21.2243 C   0  0  0  0  0  0  0  0  0  0  0  0
  -22.0860  -14.8480   21.1992 C   0  0  0  0  0  0  0  0  0  0  0  0
  -28.2830  -28.1293   21.0148 C   0  0  0  0  0  0  0  0  0  0  0  0
  -26.0366  -30.0706   22.3215 C   0  0  0  0  0  0  0  0  0  0  0  0
  -22.7389  -30.6526   22.9798 C   0  0  0  0  0  0  0  0  0  0  0  0
  -28.3675  -19.9358   19.6029 C   0  0  0  0  0  0  0  0  0  0  0  0
  -33.1574  -28.5103   19.5475 C   0  0  0  0  0  0  0  0  0  0  0  0
  -26.6608  -28.3810   19.1014 C   0  0  0  0  0  0  0  0  0  0  0  0
  -25.2761  -27.7634   21.6404 C   0  0  0  0  0  0  0  0  0  0  0  0
  -32.2612  -29.2264   20.5546 C   0  0  0  0  0  0  0  0  0  0  0  0
  -27.6505  -17.2950   17.1102 C   0  0  0  0  0  0  0  0  0  0  0  0
  -31.5102  -28.2150   21.4147 C   0  0  0  0  0  0  0  0  0  0  0  0
  -26.7433  -16.3419   17.8863 C   0  0  0  0  0  0  0  0  0  0  0  0
  -28.6054  -18.0465   18.0328 C   0  0  0  0  0  0  0  0  0  0  0  0
  -27.0190  -17.8200   19.9160 C   0  0  0  0  0  0  0  0  0  0  0  0
  -30.5953  -27.3328   20.5568 C   0  0  1  0  0  0  0  0  0  0  0  0
  -27.1506  -28.9306   20.4376 C   0  0  1  0  0  0  0  0  0  0  0  0
  -26.0128  -17.0815   19.0206 C   0  0  2  0  0  0  0  0  0  0  0  0
  -25.1942  -19.7530   24.7514 C   0  0  0  0  0  0  0  0  0  0  0  0
  -21.2147  -32.3037   24.0970 C   0  0  0  0  0  0  0  0  0  0  0  0
  -26.8696  -28.9894   25.0504 C   0  0  0  0  0  0  0  0  0  0  0  0
  -24.7423  -29.9171   25.9897 C   0  0  0  0  0  0  0  0  0  0  0  0
  -26.4368  -31.4519   24.9918 C   0  0  0  0  0  0  0  0  0  0  0  0
  -27.8655  -22.1294   20.6109 C   0  0  0  0  0  0  0  0  0  0  0  0
  -21.3206  -31.2322   20.4478 C   0  0  0  0  0  0  0  0  0  0  0  0
  -25.9763  -20.6924   19.9387 C   0  0  0  0  0  0  0  0  0  0  0  0
  -22.0666  -22.1738   20.7353 C   0  0  0  0  0  0  0  0  0  0  0  0
  -22.9164  -20.9498   20.3867 C   0  0  0  0  0  0  0  0  0  0  0  0
  -22.8741  -23.4633   20.8276 C   0  0  0  0  0  0  0  0  0  1  0  0
  -25.0693  -29.9611   23.4753 C   0  0  1  0  0  0  0  0  0  0  0  0
  -21.8772  -31.8883   22.7927 C   0  0  2  0  0  0  0  0  0  0  0  0
  -25.7789  -30.0615   24.8551 C   0  0  0  0  0  0  0  0  0  0  0  0
  -25.6826  -15.1310   20.4933 N   0  0  0  0  0  0  0  0  0  0  0  0
  -23.9444  -20.6062   21.4349 N   0  0  0  0  0  0  0  0  0  0  0  0
  -25.1216  -16.1524   19.8238 N   0  0  0  0  0  0  0  0  0  0  0  0
  -25.8319  -20.1841   22.3911 N   0  3  0  0  0  0  0  0  0  0  0  0
  -26.0959  -28.9719   21.4526 N   0  0  0  0  0  0  0  0  0  0  0  0
  -27.8892  -18.7042   19.1263 N   0  0  0  0  0  0  0  0  0  0  0  0
  -23.0441  -17.1889   19.3544 N   0  0  0  0  0  0  0  0  0  0  0  0
  -21.9045  -13.7384   22.0360 N   0  0  0  0  0  0  0  0  0  0  0  0
  -29.3930  -28.0527   20.1953 N   0  0  0  0  0  0  0  0  0  0  0  0
  -24.0502  -30.9809   23.2519 N   0  0  0  0  0  0  0  0  0  0  0  0
  -27.4199  -20.8348   20.1154 N   0  0  0  0  0  0  0  0  0  0  0  0
  -20.8100  -31.6278   21.7856 N   0  3  0  0  0  0  0  0  0  0  0  0
  -21.0859  -15.5105   20.8326 O   0  0  0  0  0  0  0  0  0  0  0  0
  -28.1595  -27.6196   22.1224 O   0  0  0  0  0  0  0  0  0  0  0  0
  -26.7094  -31.0963   22.1917 O   0  0  0  0  0  0  0  0  0  0  0  0
  -22.2926  -29.5105   22.8970 O   0  0  0  0  0  0  0  0  0  0  0  0
  -29.5715  -20.2197   19.5634 O   0  0  0  0  0  0  0  0  0  0  0  0
  -25.3927  -10.0175   24.2771 O   0  0  0  0  0  0  0  0  0  0  0  0
  -23.5115  -23.6957   19.5722 O   0  0  0  0  0  0  0  0  0  1  0  0
  -21.9527   -5.7667   23.5692 F   0  0  0  0  0  0  0  0  0  0  0  0
  -26.3447   -7.5314   23.5316 F   0  0  0  0  0  0  0  0  0  0  0  0
  1  2  1  0  0  0  0
  1  5  2  0  0  0  0
  2  6  2  0  0  0  0
  3  8  2  0  0  0  0
  3 16  1  0  0  0  0
  4  9  1  0  0  0  0
  4 16  2  0  0  0  0
  5 18  1  0  0  0  0
  6 20  1  0  0  0  0
  7 10  2  0  0  0  0
  7 19  1  0  0  0  0
  8 22  1  0  0  0  0
  9 22  2  0  0  0  0
 10 23  1  0  0  0  0
 11 12  2  0  0  0  0
 11 24  1  0  0  0  0
 12 25  1  0  0  0  0
 13 21  1  0  0  0  0
 13 23  2  0  0  0  0
 14 25  2  0  0  0  0
 14 26  1  0  0  0  0
 15 28  2  0  0  0  0
 15 63  1  0  0  0  0
 16 27  1  0  0  0  0
 17 27  1  0  0  0  0
 17 29  2  0  0  0  0
 17 31  1  0  0  0  0
 18 20  2  0  0  0  0
 18 36  1  0  0  0  0
 19 21  2  0  0  0  0
 19 37  1  0  0  0  0
 20 45  1  0  0  0  0
 21 38  1  0  0  0  0
 22 79  1  0  0  0  0
 23 80  1  0  0  0  0
 24 26  2  0  0  0  0
 24 79  1  0  0  0  0
 25 81  1  0  0  0  0
 26 82  1  0  0  0  0
 27 62  2  0  0  0  0
 28 48  1  0  0  0  0
 28 65  1  0  0  0  0
 29 64  1  0  0  0  0
 29 68  1  0  0  0  0
 30 55  1  0  0  0  0
 30 63  1  0  0  0  0
 30 65  2  0  0  0  0
 31 69  1  0  0  0  0
 31 74  2  0  0  0  0
 32 46  1  0  0  0  0
 32 70  1  0  0  0  0
 32 75  2  0  0  0  0
 33 59  1  0  0  0  0
 33 66  1  0  0  0  0
 33 76  2  0  0  0  0
 34 60  1  0  0  0  0
 34 71  1  0  0  0  0
 34 77  2  0  0  0  0
 35 67  1  0  0  0  0
 35 72  1  0  0  0  0
 35 78  2  0  0  0  0
 36 39  1  0  0  0  0
 37 46  1  0  0  0  0
 38 66  1  0  0  0  0
 39 41  1  0  0  0  0
 40 42  1  0  0  0  0
 40 43  1  0  0  0  0
 41 45  1  0  0  0  0
 42 47  1  0  0  0  0
 43 67  1  0  0  0  0
 44 47  1  0  0  0  0
 44 67  1  0  0  0  0
 45 70  1  0  0  0  0
 46 66  1  0  0  0  0
 47 64  1  0  0  0  0
 49 60  1  0  0  0  0
 50 61  1  0  0  0  0
 51 61  1  0  0  0  0
 52 61  1  0  0  0  0
 53 72  1  0  0  0  0
 54 73  1  0  0  0  0
 55 72  1  0  0  0  0
 56 57  1  0  0  0  0
 56 58  1  0  0  0  0
 57 63  1  0  0  0  0
 58 80  1  0  0  0  0
 59 61  1  0  0  0  0
 59 71  1  0  0  0  0
 60 73  1  0  0  0  0
 62 64  1  0  0  0  0
M  CHG  2  65   1  73   1
M  ISO  4  35 100  58 101  72 100  80 101
M  END
> <Batch ID>
0054

> <Smiles>
CNC(C)C(=O)NC(C(=O)N1Cc2cc([101O:1][101CH2:1]CCn3cc(C)nc3C[100N:0](C)[100C:0](=O)N3CCCC(n4nc(-c5ccc(Oc6ccc(F)cc6F)cc5)c(C(N)=O)c4N)C3)ccc2CC1C(=O)NC1CCCc2ccccc21)C(C)(C)C

> <Shape>
0.218

> <Color>
0.065

> <Negative vol penalty>
0.000

$$$$

  -OEChem-04052317413D

 83 91  0     1  0  0  0  0  0999 V2000
  -25.9737  -22.1564   13.9661 C   0  0  0  0  0  0  0  0  0  0  0  0
  -25.1382  -22.0007   15.0663 C   0  0  0  0  0  0  0  0  0  0  0  0
  -26.3046  -14.6703   21.8411 C   0  0  0  0  0  0  0  0  0  0  0  0
  -25.9289  -13.7722   19.6299 C   0  0  0  0  0  0  0  0  0  0  0  0
  -26.7756  -23.2908   13.8596 C   0  0  0  0  0  0  0  0  0  0  0  0
  -25.0952  -22.9850   16.0544 C   0  0  0  0  0  0  0  0  0  0  0  0
  -21.6944  -22.4733   19.5723 C   0  0  0  0  0  0  0  0  0  0  0  0
  -25.2327  -13.9218   22.3273 C   0  0  0  0  0  0  0  0  0  0  0  0
  -24.8570  -13.0236   20.1161 C   0  0  0  0  0  0  0  0  0  0  0  0
  -21.7824  -21.5039   20.5705 C   0  0  0  0  0  0  0  0  0  0  0  0
  -22.2477  -10.6001   20.8483 C   0  0  0  0  0  0  0  0  0  0  0  0
  -22.1542   -9.2663   20.4512 C   0  0  0  0  0  0  0  0  0  0  0  0
  -22.4805  -23.1949   22.1428 C   0  0  0  0  0  0  0  0  0  0  0  0
  -24.3094   -8.8187   21.4472 C   0  0  0  0  0  0  0  0  0  0  0  0
  -26.8341  -19.4960   23.0865 C   0  0  0  0  0  0  0  0  0  0  0  0
  -26.3446  -20.9824   20.9235 C   0  0  0  0  0  0  0  0  0  0  0  0
  -26.6527  -14.5955   20.4924 C   0  0  0  0  0  0  0  0  0  0  0  0
  -29.1094  -14.9755   19.9198 C   0  0  0  0  0  0  0  0  0  0  0  0
  -26.7511  -24.2830   14.8536 C   0  0  0  0  0  0  0  0  0  0  0  0
  -22.0098  -23.8112   19.8497 C   0  0  0  0  0  0  0  0  0  0  0  0
  -25.8792  -24.1485   15.9531 C   0  0  0  0  0  0  0  0  0  0  0  0
  -22.3932  -24.1798   21.1471 C   0  0  0  0  0  0  0  0  0  0  0  0
  -24.5089  -13.0984   21.4648 C   0  0  0  0  0  0  0  0  0  0  0  0
  -22.1783  -21.8641   21.8552 C   0  0  0  0  0  0  0  0  0  0  0  0
  -23.3721  -11.0433   21.5447 C   0  0  0  0  0  0  0  0  0  0  0  0
  -23.1850   -8.3756   20.7507 C   0  0  0  0  0  0  0  0  0  0  0  0
  -24.4029  -10.1526   21.8442 C   0  0  0  0  0  0  0  0  0  0  0  0
  -27.7595  -15.3689   19.9895 C   0  0  0  0  0  0  0  0  0  0  0  0
  -25.5556  -19.6322   22.5920 C   0  0  0  0  0  0  0  0  0  0  0  0
  -27.6230  -20.8469   21.4183 C   0  0  0  0  0  0  0  0  0  0  0  0
  -29.7542  -16.0566   19.3702 C   0  0  0  0  0  0  0  0  0  0  0  0
  -29.7254  -13.7430   20.3162 C   0  0  0  0  0  0  0  0  0  0  0  0
  -24.1903  -25.8676   18.7913 C   0  0  0  0  0  0  0  0  0  0  0  0
  -22.5377  -27.9668   20.6310 C   0  0  0  0  0  0  0  0  0  0  0  0
  -20.4497  -28.4767   23.2819 C   0  0  0  0  0  0  0  0  0  0  0  0
  -28.6515  -21.7751   19.3514 C   0  0  0  0  0  0  0  0  0  0  0  0
  -27.6339  -25.4943   14.6841 C   0  0  0  0  0  0  0  0  0  0  0  0
  -21.8841  -24.8495   18.7687 C   0  0  0  0  0  0  0  0  0  0  0  0
  -22.7231  -25.6060   21.5015 C   0  0  0  0  0  0  0  0  0  0  0  0
  -27.8492  -26.2598   15.9856 C   0  0  0  0  0  0  0  0  0  0  0  0
  -29.0376  -19.7640   16.4446 C   0  0  0  0  0  0  0  0  0  0  0  0
  -26.5127  -26.5132   16.6668 C   0  0  0  0  0  0  0  0  0  0  0  0
  -28.8725  -18.3593   17.0234 C   0  0  0  0  0  0  0  0  0  0  0  0
  -28.0751  -20.7642   17.0859 C   0  0  0  0  0  0  0  0  0  0  0  0
  -27.9772  -19.3940   19.1444 C   0  0  0  0  0  0  0  0  0  0  0  0
  -25.8385  -25.1914   17.0554 C   0  0  1  0  0  0  0  0  0  0  0  0
  -22.7251  -26.0942   19.0349 C   0  0  1  0  0  0  0  0  0  0  0  0
  -28.9718  -18.3794   18.5589 C   0  0  1  0  0  0  0  0  0  0  0  0
  -19.3047  -30.3047   24.5644 C   0  0  0  0  0  0  0  0  0  0  0  0
  -31.0803  -22.1373   20.8311 C   0  0  0  0  0  0  0  0  0  0  0  0
  -29.3318  -23.6068   21.8832 C   0  0  0  0  0  0  0  0  0  0  0  0
  -25.1812  -28.6715   21.9819 C   0  0  0  0  0  0  0  0  0  0  0  0
  -23.8723  -29.7419   23.8282 C   0  0  0  0  0  0  0  0  0  0  0  0
  -23.7000  -30.6289   21.5031 C   0  0  0  0  0  0  0  0  0  0  0  0
  -17.7665  -27.4072   22.6370 C   0  0  0  0  0  0  0  0  0  0  0  0
  -24.3970  -18.9403   23.2647 C   0  0  0  0  0  0  0  0  0  0  0  0
  -23.7270  -19.7796   24.3546 C   0  0  0  0  0  0  0  0  0  0  0  0
  -23.2344  -21.1336   23.8569 C   0  0  0  0  0  0  0  0  0  1  0  0
  -22.6134  -28.4175   22.0698 C   0  0  1  0  0  0  0  0  0  0  0  0
  -19.1860  -29.3058   23.4238 C   0  0  2  0  0  0  0  0  0  0  0  0
  -29.7376  -22.1769   21.5501 C   0  0  0  0  0  0  0  0  0  0  0  0
  -23.8375  -29.3377   22.3389 C   0  0  0  0  0  0  0  0  0  0  0  0
  -25.2879  -20.3775   21.5015 N   0  0  0  0  0  0  0  0  0  0  0  0
  -27.8907  -20.1012   22.5087 N   0  0  0  0  0  0  0  0  0  0  0  0
  -27.5575  -16.6036   19.5218 N   0  0  0  0  0  0  0  0  0  0  0  0
  -28.7890  -16.9954   19.1530 N   0  0  0  0  0  0  0  0  0  0  0  0
  -22.5912  -26.5835   20.4085 N   0  0  0  0  0  0  0  0  0  0  0  0
  -28.1766  -20.7186   18.5515 N   0  0  0  0  0  0  0  0  0  0  0  0
  -31.0469  -16.2863   19.0565 N   0  0  0  0  0  0  0  0  0  0  0  0
  -28.9166  -12.7374   20.8629 N   0  0  0  0  0  0  0  0  0  0  0  0
  -24.4908  -25.4630   17.5046 N   0  0  0  0  0  0  0  0  0  0  0  0
  -21.3256  -29.0322   22.3733 N   0  0  0  0  0  0  0  0  0  0  0  0
  -28.7007  -21.5282   20.7403 N   0  0  0  0  0  0  0  0  0  0  0  0
  -18.0150  -28.4237   23.6915 N   0  3  0  0  0  0  0  0  0  0  0  0
  -30.9591  -13.5456   20.2046 O   0  0  0  0  0  0  0  0  0  0  0  0
  -24.9893  -26.0481   19.7027 O   0  0  0  0  0  0  0  0  0  0  0  0
  -22.4276  -28.8106   19.7379 O   0  0  0  0  0  0  0  0  0  0  0  0
  -20.6422  -27.4419   23.9164 O   0  0  0  0  0  0  0  0  0  0  0  0
  -29.0273  -22.8466   18.8609 O   0  0  0  0  0  0  0  0  0  0  0  0
  -23.4631  -12.3677   21.9389 O   0  0  0  0  0  0  0  0  0  0  0  0
  -22.2657  -20.9198   22.8312 O   0  0  0  0  0  0  0  0  0  1  0  0
  -23.0944   -7.0943   20.3707 F   0  0  0  0  0  0  0  0  0  0  0  0
  -25.4850  -10.5723   22.5140 F   0  0  0  0  0  0  0  0  0  0  0  0
  1  2  1  0  0  0  0
  1  5  2  0  0  0  0
  2  6  2  0  0  0  0
  3  8  2  0  0  0  0
  3 17  1  0  0  0  0
  4  9  1  0  0  0  0
  4 17  2  0  0  0  0
  5 19  1  0  0  0  0
  6 21  1  0  0  0  0
  7 10  2  0  0  0  0
  7 20  1  0  0  0  0
  8 23  1  0  0  0  0
  9 23  2  0  0  0  0
 10 24  1  0  0  0  0
 11 12  2  0  0  0  0
 11 25  1  0  0  0  0
 12 26  1  0  0  0  0
 13 22  1  0  0  0  0
 13 24  2  0  0  0  0
 14 26  2  0  0  0  0
 14 27  1  0  0  0  0
 15 29  1  0  0  0  0
 15 64  2  0  0  0  0
 16 30  2  0  0  0  0
 16 63  1  0  0  0  0
 17 28  1  0  0  0  0
 18 28  1  0  0  0  0
 18 31  2  0  0  0  0
 18 32  1  0  0  0  0
 19 21  2  0  0  0  0
 19 37  1  0  0  0  0
 20 22  2  0  0  0  0
 20 38  1  0  0  0  0
 21 46  1  0  0  0  0
 22 39  1  0  0  0  0
 23 80  1  0  0  0  0
 24 81  1  0  0  0  0
 25 27  2  0  0  0  0
 25 80  1  0  0  0  0
 26 82  1  0  0  0  0
 27 83  1  0  0  0  0
 28 65  2  0  0  0  0
 29 56  1  0  0  0  0
 29 63  2  0  0  0  0
 30 64  1  0  0  0  0
 30 73  1  0  0  0  0
 31 66  1  0  0  0  0
 31 69  1  0  0  0  0
 32 70  1  0  0  0  0
 32 75  2  0  0  0  0
 33 47  1  0  0  0  0
 33 71  1  0  0  0  0
 33 76  2  0  0  0  0
 34 59  1  0  0  0  0
 34 67  1  0  0  0  0
 34 77  2  0  0  0  0
 35 60  1  0  0  0  0
 35 72  1  0  0  0  0
 35 78  2  0  0  0  0
 36 68  1  0  0  0  0
 36 73  1  0  0  0  0
 36 79  2  0  0  0  0
 37 40  1  0  0  0  0
 38 47  1  0  0  0  0
 39 67  1  0  0  0  0
 40 42  1  0  0  0  0
 41 43  1  0  0  0  0
 41 44  1  0  0  0  0
 42 46  1  0  0  0  0
 43 48  1  0  0  0  0
 44 68  1  0  0  0  0
 45 48  1  0  0  0  0
 45 68  1  0  0  0  0
 46 71  1  0  0  0  0
 47 67  1  0  0  0  0
 48 66  1  0  0  0  0
 49 60  1  0  0  0  0
 50 61  1  0  0  0  0
 51 61  1  0  0  0  0
 52 62  1  0  0  0  0
 53 62  1  0  0  0  0
 54 62  1  0  0  0  0
 55 74  1  0  0  0  0
 56 57  1  0  0  0  0
 57 58  1  0  0  0  0
 58 81  1  0  0  0  0
 59 62  1  0  0  0  0
 59 72  1  0  0  0  0
 60 74  1  0  0  0  0
 61 73  1  0  0  0  0
 65 66  1  0  0  0  0
M  CHG  1  74   1
M  ISO  4  36 100  58 101  73 100  81 101
M  END
> <Batch ID>
0054

> <Smiles>
CNC(C)C(=O)NC(C(=O)N1Cc2cc([101O:1][101CH2:1]CCc3cnc([100N:0](C(C)C)[100C:0](=O)N4CCCC(n5nc(-c6ccc(Oc7ccc(F)cc7F)cc6)c(C(N)=O)c5N)C4)cn3)ccc2CC1C(=O)NC1CCCc2ccccc21)C(C)(C)C

> <Shape>
0.226

> <Color>
0.057

> <Negative vol penalty>
0.000

$$$$

  -OEChem-04052317413D

 85 93  0     1  0  0  0  0  0999 V2000
  -22.2873  -32.0456   24.1116 C   0  0  0  0  0  0  0  0  0  0  0  0
  -22.1858  -30.6739   23.9029 C   0  0  0  0  0  0  0  0  0  0  0  0
  -24.3605   -9.4702   21.4022 C   0  0  0  0  0  0  0  0  0  0  0  0
  -24.8904  -10.6505   23.4426 C   0  0  0  0  0  0  0  0  0  0  0  0
  -22.9738  -32.8402   23.1943 C   0  0  0  0  0  0  0  0  0  0  0  0
  -22.7698  -30.0961   22.7761 C   0  0  0  0  0  0  0  0  0  0  0  0
  -25.2907  -25.8402   23.8609 C   0  0  0  0  0  0  0  0  0  0  0  0
  -24.1006   -8.3143   22.1383 C   0  0  0  0  0  0  0  0  0  0  0  0
  -24.6305   -9.4946   24.1788 C   0  0  0  0  0  0  0  0  0  0  0  0
  -24.5354  -24.6842   24.0534 C   0  0  0  0  0  0  0  0  0  0  0  0
  -21.5875   -7.0813   24.0349 C   0  0  0  0  0  0  0  0  0  0  0  0
  -20.4376   -6.3571   23.7201 C   0  0  0  0  0  0  0  0  0  0  0  0
  -25.0527  -23.9792   21.8051 C   0  0  0  0  0  0  0  0  0  0  0  0
  -21.7954   -4.4278   23.1992 C   0  0  0  0  0  0  0  0  0  0  0  0
  -25.6515  -19.3280   24.3483 C   0  0  0  0  0  0  0  0  0  0  0  0
  -24.7555  -10.6383   22.0543 C   0  0  0  0  0  0  0  0  0  0  0  0
  -24.1088  -12.8438   20.9475 C   0  0  0  0  0  0  0  0  0  0  0  0
  -23.5747  -32.2705   22.0607 C   0  0  0  0  0  0  0  0  0  0  0  0
  -25.9248  -26.0800   22.6334 C   0  0  0  0  0  0  0  0  0  0  0  0
  -23.4637  -30.8840   21.8421 C   0  0  0  0  0  0  0  0  0  0  0  0
  -25.8176  -25.1377   21.6005 C   0  0  0  0  0  0  0  0  0  0  0  0
  -24.2356   -8.3264   23.5266 C   0  0  0  0  0  0  0  0  0  0  0  0
  -24.4139  -23.7549   23.0244 C   0  0  0  0  0  0  0  0  0  0  0  0
  -22.8413   -6.4787   23.9317 C   0  0  0  0  0  0  0  0  0  0  0  0
  -20.5416   -5.0304   23.3023 C   0  0  0  0  0  0  0  0  0  0  0  0
  -22.9452   -5.1520   23.5139 C   0  0  0  0  0  0  0  0  0  0  0  0
  -25.0246  -11.8325   21.2944 C   0  0  0  0  0  0  0  0  0  0  0  0
  -24.4809  -19.8651   23.7800 C   0  0  0  0  0  0  0  0  0  0  0  0
  -26.3216  -18.7674   23.2885 C   0  0  0  0  0  0  0  0  0  0  0  0
  -24.8526  -13.7496   20.2313 C   0  0  0  0  0  0  0  0  0  0  0  0
  -22.7108  -12.9546   21.2459 C   0  0  0  0  0  0  0  0  0  0  0  0
  -25.7020  -28.3253   20.3944 C   0  0  0  0  0  0  0  0  0  0  0  0
  -28.2367  -26.7542   19.1179 C   0  0  0  0  0  0  0  0  0  0  0  0
  -30.0078  -23.8496   18.8472 C   0  0  0  0  0  0  0  0  0  0  0  0
  -30.9190  -14.6046   20.3107 C   0  0  0  0  0  0  0  0  0  0  0  0
  -24.2657  -33.1765   21.0727 C   0  0  0  0  0  0  0  0  0  0  0  0
  -26.7579  -27.3189   22.4507 C   0  0  0  0  0  0  0  0  0  0  0  0
  -26.4954  -25.3384   20.2706 C   0  0  0  0  0  0  0  0  0  0  0  0
  -25.1767  -32.4336   20.0988 C   0  0  0  0  0  0  0  0  0  0  0  0
  -28.6930  -14.0569   17.4043 C   0  0  0  0  0  0  0  0  0  0  0  0
  -24.4663  -31.2083   19.5323 C   0  0  0  0  0  0  0  0  0  0  0  0
  -27.4507  -13.4427   18.0473 C   0  0  0  0  0  0  0  0  0  0  0  0
  -29.9556  -13.7516   18.2045 C   0  0  0  0  0  0  0  0  0  0  0  0
  -28.6291  -13.5328   20.2798 C   0  0  0  0  0  0  0  0  0  0  0  0
  -24.1049  -30.2167   20.6448 C   0  0  1  0  0  0  0  0  0  0  0  0
  -26.9373  -27.7079   20.9865 C   0  0  1  0  0  0  0  0  0  0  0  0
  -27.3331  -13.8611   19.5233 C   0  0  2  0  0  0  0  0  0  0  0  0
  -32.0103  -22.8630   17.7010 C   0  0  0  0  0  0  0  0  0  0  0  0
  -26.6560  -26.5769   16.5141 C   0  0  0  0  0  0  0  0  0  0  0  0
  -28.2532  -24.8085   15.7463 C   0  0  0  0  0  0  0  0  0  0  0  0
  -29.0822  -27.1115   16.2273 C   0  0  0  0  0  0  0  0  0  0  0  0
  -25.8196  -18.5946   20.8324 C   0  0  0  0  0  0  0  0  0  0  0  0
  -31.8061  -16.0624   22.0904 C   0  0  0  0  0  0  0  0  0  0  0  0
  -31.3426  -23.2707   21.4244 C   0  0  0  0  0  0  0  0  0  0  0  0
  -26.6433  -15.9501   24.1509 C   0  0  0  0  0  0  0  0  0  0  0  0
  -23.3687  -20.6004   24.4876 C   0  0  0  0  0  0  0  0  0  0  0  0
  -27.6087  -18.0510   23.2263 C   0  0  0  0  0  0  0  0  0  0  0  0
  -29.4010  -16.1988   21.5584 C   0  0  0  0  0  0  0  0  0  0  0  0
  -28.8075  -15.8900   22.9203 C   0  0  0  0  0  0  0  0  0  0  0  0
  -23.6078  -22.1056   24.5363 C   0  0  0  0  0  0  0  0  0  1  0  0
  -28.4073  -25.6110   18.1469 C   0  0  1  0  0  0  0  0  0  0  0  0
  -31.4952  -23.5636   18.9486 C   0  0  2  0  0  0  0  0  0  0  0  0
  -28.0852  -26.0238   16.6829 C   0  0  0  0  0  0  0  0  0  0  0  0
  -26.2560  -12.0727   20.8362 N   0  0  0  0  0  0  0  0  0  0  0  0
  -24.4085  -19.6640   22.4616 N   0  0  0  0  0  0  0  0  0  0  0  0
  -25.5422  -18.9943   22.1925 N   0  0  0  0  0  0  0  0  0  0  0  0
  -26.1192  -13.2452   20.1940 N   0  0  0  0  0  0  0  0  0  0  0  0
  -27.2936  -26.5684   20.1386 N   0  0  0  0  0  0  0  0  0  0  0  0
  -29.8011  -14.1191   19.6124 N   0  0  0  0  0  0  0  0  0  0  0  0
  -24.5401  -14.9203   19.6361 N   0  0  0  0  0  0  0  0  0  0  0  0
  -22.1042  -11.9352   21.9923 N   0  0  0  0  0  0  0  0  0  0  0  0
  -25.2726  -29.4637   21.0495 N   0  0  0  0  0  0  0  0  0  0  0  0
  -29.7632  -25.1089   18.3416 N   0  0  0  0  0  0  0  0  0  0  0  0
  -30.6783  -15.5218   21.3448 N   0  0  0  0  0  0  0  0  0  0  0  0
  -31.7764  -22.6941   20.1258 N   0  3  0  0  0  0  0  0  0  0  0  0
  -27.4731  -16.5705   23.0602 N   0  3  1  0  0  0  0  0  0  0  0  0
  -22.0165  -13.9206   20.8481 O   0  0  0  0  0  0  0  0  0  0  0  0
  -25.1781  -27.8080   19.4148 O   0  0  0  0  0  0  0  0  0  0  0  0
  -28.9204  -27.7717   18.9803 O   0  0  0  0  0  0  0  0  0  0  0  0
  -29.1488  -23.0358   19.1795 O   0  0  0  0  0  0  0  0  0  0  0  0
  -32.0674  -14.2462   20.0197 O   0  0  0  0  0  0  0  0  0  0  0  0
  -23.9818   -7.1988   24.2453 O   0  0  0  0  0  0  0  0  0  0  0  0
  -23.6768  -22.6261   23.2094 O   0  0  0  0  0  0  0  0  0  1  0  0
  -19.4372   -4.3346   23.0016 F   0  0  0  0  0  0  0  0  0  0  0  0
  -24.1469   -4.5674   23.4140 F   0  0  0  0  0  0  0  0  0  0  0  0
  1  2  1  0  0  0  0
  1  5  2  0  0  0  0
  2  6  2  0  0  0  0
  3  8  2  0  0  0  0
  3 16  1  0  0  0  0
  4  9  1  0  0  0  0
  4 16  2  0  0  0  0
  5 18  1  0  0  0  0
  6 20  1  0  0  0  0
  7 10  2  0  0  0  0
  7 19  1  0  0  0  0
  8 22  1  0  0  0  0
  9 22  2  0  0  0  0
 10 23  1  0  0  0  0
 11 12  2  0  0  0  0
 11 24  1  0  0  0  0
 12 25  1  0  0  0  0
 13 21  1  0  0  0  0
 13 23  2  0  0  0  0
 14 25  2  0  0  0  0
 14 26  1  0  0  0  0
 15 28  1  0  0  0  0
 15 29  2  0  0  0  0
 16 27  1  0  0  0  0
 17 27  1  0  0  0  0
 17 30  2  0  0  0  0
 17 31  1  0  0  0  0
 18 20  2  0  0  0  0
 18 36  1  0  0  0  0
 19 21  2  0  0  0  0
 19 37  1  0  0  0  0
 20 45  1  0  0  0  0
 21 38  1  0  0  0  0
 22 82  1  0  0  0  0
 23 83  1  0  0  0  0
 24 26  2  0  0  0  0
 24 82  1  0  0  0  0
 25 84  1  0  0  0  0
 26 85  1  0  0  0  0
 27 64  2  0  0  0  0
 28 56  1  0  0  0  0
 28 65  2  0  0  0  0
 29 57  1  0  0  0  0
 29 66  1  0  0  0  0
 30 67  1  0  0  0  0
 30 70  1  0  0  0  0
 31 71  1  0  0  0  0
 31 77  2  0  0  0  0
 32 46  1  0  0  0  0
 32 72  1  0  0  0  0
 32 78  2  0  0  0  0
 33 61  1  0  0  0  0
 33 68  1  0  0  0  0
 33 79  2  0  0  0  0
 34 62  1  0  0  0  0
 34 73  1  0  0  0  0
 34 80  2  0  0  0  0
 35 69  1  0  0  0  0
 35 74  1  0  0  0  0
 35 81  2  0  0  0  0
 36 39  1  0  0  0  0
 37 46  1  0  0  0  0
 38 68  1  0  0  0  0
 39 41  1  0  0  0  0
 40 42  1  0  0  0  0
 40 43  1  0  0  0  0
 41 45  1  0  0  0  0
 42 47  1  0  0  0  0
 43 69  1  0  0  0  0
 44 47  1  0  0  0  0
 44 69  1  0  0  0  0
 45 72  1  0  0  0  0
 46 68  1  0  0  0  0
 47 67  1  0  0  0  0
 48 62  1  0  0  0  0
 49 63  1  0  0  0  0
 50 63  1  0  0  0  0
 51 63  1  0  0  0  0
 52 66  1  0  0  0  0
 53 74  1  0  0  0  0
 54 75  1  0  0  0  0
 55 76  1  0  0  0  0
 56 60  1  0  0  0  0
 57 76  1  0  0  0  0
 58 59  1  0  0  0  0
 58 74  1  0  0  0  0
 59 76  1  0  0  0  0
 60 83  1  0  0  0  0
 61 63  1  0  0  0  0
 61 73  1  0  0  0  0
 62 75  1  0  0  0  0
 64 67  1  0  0  0  0
 65 66  1  0  0  0  0
M  CHG  2  75   1  76   1
M  ISO  4  35 100  60 101  74 100  83 101
M  END
> <Batch ID>
0054

> <Smiles>
CNC(C)C(=O)NC(C(=O)N1Cc2cc([101O:1][101CH2:1]Cc3cc(CN(C)CC[100N:0](C)[100C:0](=O)N4CCCC(n5nc(-c6ccc(Oc7ccc(F)cc7F)cc6)c(C(N)=O)c5N)C4)n(C)n3)ccc2CC1C(=O)NC1CCCc2ccccc21)C(C)(C)C

> <Shape>
0.253

> <Color>
0.118

> <Negative vol penalty>
0.000

$$$$

  -OEChem-04052317413D

 83 91  0     1  0  0  0  0  0999 V2000
  -21.9008  -25.2191   18.3336 C   0  0  0  0  0  0  0  0  0  0  0  0
  -22.5866  -24.0210   18.1609 C   0  0  0  0  0  0  0  0  0  0  0  0
  -26.2373  -25.8067   20.5657 C   0  0  0  0  0  0  0  0  0  0  0  0
  -27.2834  -25.7939   22.7434 C   0  0  0  0  0  0  0  0  0  0  0  0
  -21.5380  -25.6350   19.6139 C   0  0  0  0  0  0  0  0  0  0  0  0
  -22.9109  -23.2387   19.2688 C   0  0  0  0  0  0  0  0  0  0  0  0
  -23.1097  -17.1232   19.5260 C   0  0  0  0  0  0  0  0  0  0  0  0
  -25.3646  -26.8084   20.9907 C   0  0  0  0  0  0  0  0  0  0  0  0
  -26.4107  -26.7957   23.1685 C   0  0  0  0  0  0  0  0  0  0  0  0
  -24.1636  -16.2145   19.4405 C   0  0  0  0  0  0  0  0  0  0  0  0
  -25.4553  -30.1552   21.4639 C   0  0  0  0  0  0  0  0  0  0  0  0
  -25.2400  -31.2341   20.6065 C   0  0  0  0  0  0  0  0  0  0  0  0
  -24.2853  -16.1384   21.8485 C   0  0  0  0  0  0  0  0  0  0  0  0
  -22.8839  -30.7045   20.5317 C   0  0  0  0  0  0  0  0  0  0  0  0
  -27.0982  -12.1259   19.0935 C   0  0  0  0  0  0  0  0  0  0  0  0
  -27.1966  -25.2994   21.4420 C   0  0  0  0  0  0  0  0  0  0  0  0
  -29.3582  -24.4340   20.3996 C   0  0  0  0  0  0  0  0  0  0  0  0
  -21.8495  -24.8527   20.7371 C   0  0  0  0  0  0  0  0  0  0  0  0
  -22.6420  -17.5553   20.7754 C   0  0  0  0  0  0  0  0  0  0  0  0
  -22.5531  -23.6453   20.5655 C   0  0  0  0  0  0  0  0  0  0  0  0
  -23.2236  -17.0506   21.9472 C   0  0  0  0  0  0  0  0  0  0  0  0
  -25.4514  -27.3029   22.2921 C   0  0  0  0  0  0  0  0  0  0  0  0
  -24.7535  -15.7242   20.6018 C   0  0  0  0  0  0  0  0  0  0  0  0
  -24.3849  -29.3509   21.8552 C   0  0  0  0  0  0  0  0  0  0  0  0
  -23.9544  -31.5088   20.1404 C   0  0  0  0  0  0  0  0  0  0  0  0
  -23.0993  -29.6256   21.3891 C   0  0  0  0  0  0  0  0  0  0  0  0
  -28.0980  -24.2642   21.0037 C   0  0  0  0  0  0  0  0  0  0  0  0
  -27.3232  -13.4566   19.3360 C   0  0  0  0  0  0  0  0  0  0  0  0
  -29.8074  -23.1553   20.1772 C   0  0  0  0  0  0  0  0  0  0  0  0
  -29.4841  -12.9770   19.7835 C   0  0  0  0  0  0  0  0  0  0  0  0
  -30.0599  -25.6398   20.0691 C   0  0  0  0  0  0  0  0  0  0  0  0
  -22.4701  -20.3618   22.2579 C   0  0  0  0  0  0  0  0  0  0  0  0
  -20.8461  -18.6476   24.4820 C   0  0  0  0  0  0  0  0  0  0  0  0
  -20.2096  -15.6101   25.9018 C   0  0  0  0  0  0  0  0  0  0  0  0
  -30.6649  -18.0426   21.9300 C   0  0  0  0  0  0  0  0  0  0  0  0
  -21.4781  -25.3668   22.1055 C   0  0  0  0  0  0  0  0  0  0  0  0
  -21.4866  -18.5154   20.8509 C   0  0  0  0  0  0  0  0  0  0  0  0
  -22.7451  -17.4674   23.3131 C   0  0  0  0  0  0  0  0  0  0  0  0
  -21.5298  -24.2967   23.1929 C   0  0  0  0  0  0  0  0  0  0  0  0
  -27.4057  -18.7153   20.5080 C   0  0  0  0  0  0  0  0  0  0  0  0
  -22.8190  -23.4884   23.0855 C   0  0  0  0  0  0  0  0  0  0  0  0
  -27.4037  -20.2444   20.4617 C   0  0  0  0  0  0  0  0  0  0  0  0
  -28.1077  -18.2011   21.7613 C   0  0  0  0  0  0  0  0  0  0  0  0
  -29.5005  -20.2301   21.8911 C   0  0  0  0  0  0  0  0  0  0  0  0
  -22.9010  -22.7570   21.7402 C   0  0  1  0  0  0  0  0  0  0  0  0
  -21.4306  -19.2804   22.1696 C   0  0  1  0  0  0  0  0  0  0  0  0
  -28.8248  -20.8120   20.6362 C   0  0  2  0  0  0  0  0  0  0  0  0
  -18.8646  -14.5308   27.7248 C   0  0  0  0  0  0  0  0  0  0  0  0
  -22.7997  -19.7300   26.5609 C   0  0  0  0  0  0  0  0  0  0  0  0
  -22.0289  -17.9297   28.1208 C   0  0  0  0  0  0  0  0  0  0  0  0
  -20.4154  -19.6514   27.3114 C   0  0  0  0  0  0  0  0  0  0  0  0
  -18.7399  -13.9141   23.9724 C   0  0  0  0  0  0  0  0  0  0  0  0
  -31.4817  -14.9050   18.2740 C   0  0  0  0  0  0  0  0  0  0  0  0
  -26.2079  -14.4530   19.2145 C   0  0  0  0  0  0  0  0  0  1  0  0
  -30.8475  -13.4301   20.1774 C   0  0  0  0  0  0  0  0  0  0  0  0
  -31.6893  -15.7828   21.9596 C   0  0  0  0  0  0  0  0  0  0  0  0
  -32.2361  -15.4571   20.5822 C   0  0  0  0  0  0  0  0  0  0  0  0
  -21.2262  -17.8655   25.7160 C   0  0  1  0  0  0  0  0  0  0  0  0
  -18.9063  -14.9162   26.2543 C   0  0  2  0  0  0  0  0  0  0  0  0
  -21.6281  -18.7875   26.9017 C   0  0  0  0  0  0  0  0  0  0  0  0
  -28.0932  -11.2272   19.2036 N   0  0  0  0  0  0  0  0  0  0  0  0
  -27.7678  -22.9789   21.1553 N   0  0  0  0  0  0  0  0  0  0  0  0
  -28.5324  -13.9176   19.6898 N   0  0  0  0  0  0  0  0  0  0  0  0
  -29.3216  -11.6584   19.5580 N   0  0  0  0  0  0  0  0  0  0  0  0
  -28.8270  -22.3295   20.6432 N   0  0  0  0  0  0  0  0  0  0  0  0
  -21.6168  -18.4129   23.3345 N   0  0  0  0  0  0  0  0  0  0  0  0
  -29.4618  -18.7643   21.8580 N   0  0  0  0  0  0  0  0  0  0  0  0
  -30.9414  -22.6679   19.6305 N   0  0  0  0  0  0  0  0  0  0  0  0
  -29.4543  -26.8683   20.3665 N   0  0  0  0  0  0  0  0  0  0  0  0
  -22.0587  -21.5802   21.7524 N   0  0  0  0  0  0  0  0  0  0  0  0
  -20.1015  -16.9811   26.0014 N   0  0  0  0  0  0  0  0  0  0  0  0
  -30.5406  -16.6590   21.8997 N   0  0  0  0  0  0  0  0  0  0  0  0
  -18.7410  -13.6795   25.4394 N   0  3  0  0  0  0  0  0  0  0  0  0
  -31.1583  -14.8208   19.7432 N   0  3  1  0  0  0  0  0  0  0  0  0
  -31.1834  -25.6284   19.5113 O   0  0  0  0  0  0  0  0  0  0  0  0
  -23.5638  -20.1097   22.7498 O   0  0  0  0  0  0  0  0  0  0  0  0
  -19.8957  -19.4323   24.5324 O   0  0  0  0  0  0  0  0  0  0  0  0
  -21.2234  -14.9971   25.5747 O   0  0  0  0  0  0  0  0  0  0  0  0
  -31.7694  -18.5910   22.0099 O   0  0  0  0  0  0  0  0  0  0  0  0
  -24.6002  -28.2805   22.7071 O   0  0  0  0  0  0  0  0  0  0  0  0
  -25.7828  -14.8377   20.5213 O   0  0  0  0  0  0  0  0  0  1  0  0
  -23.7475  -32.5459   19.3183 F   0  0  0  0  0  0  0  0  0  0  0  0
  -22.0668  -28.8572   21.7625 F   0  0  0  0  0  0  0  0  0  0  0  0
  1  2  1  0  0  0  0
  1  5  2  0  0  0  0
  2  6  2  0  0  0  0
  3  8  2  0  0  0  0
  3 16  1  0  0  0  0
  4  9  1  0  0  0  0
  4 16  2  0  0  0  0
  5 18  1  0  0  0  0
  6 20  1  0  0  0  0
  7 10  2  0  0  0  0
  7 19  1  0  0  0  0
  8 22  1  0  0  0  0
  9 22  2  0  0  0  0
 10 23  1  0  0  0  0
 11 12  2  0  0  0  0
 11 24  1  0  0  0  0
 12 25  1  0  0  0  0
 13 21  1  0  0  0  0
 13 23  2  0  0  0  0
 14 25  2  0  0  0  0
 14 26  1  0  0  0  0
 15 28  1  0  0  0  0
 15 61  2  0  0  0  0
 16 27  1  0  0  0  0
 17 27  1  0  0  0  0
 17 29  2  0  0  0  0
 17 31  1  0  0  0  0
 18 20  2  0  0  0  0
 18 36  1  0  0  0  0
 19 21  2  0  0  0  0
 19 37  1  0  0  0  0
 20 45  1  0  0  0  0
 21 38  1  0  0  0  0
 22 80  1  0  0  0  0
 23 81  1  0  0  0  0
 24 26  2  0  0  0  0
 24 80  1  0  0  0  0
 25 82  1  0  0  0  0
 26 83  1  0  0  0  0
 27 62  2  0  0  0  0
 28 54  1  0  0  0  0
 28 63  2  0  0  0  0
 29 65  1  0  0  0  0
 29 68  1  0  0  0  0
 30 55  1  0  0  0  0
 30 63  1  0  0  0  0
 30 64  2  0  0  0  0
 31 69  1  0  0  0  0
 31 75  2  0  0  0  0
 32 46  1  0  0  0  0
 32 70  1  0  0  0  0
 32 76  2  0  0  0  0
 33 58  1  0  0  0  0
 33 66  1  0  0  0  0
 33 77  2  0  0  0  0
 34 59  1  0  0  0  0
 34 71  1  0  0  0  0
 34 78  2  0  0  0  0
 35 67  1  0  0  0  0
 35 72  1  0  0  0  0
 35 79  2  0  0  0  0
 36 39  1  0  0  0  0
 37 46  1  0  0  0  0
 38 66  1  0  0  0  0
 39 41  1  0  0  0  0
 40 42  1  0  0  0  0
 40 43  1  0  0  0  0
 41 45  1  0  0  0  0
 42 47  1  0  0  0  0
 43 67  1  0  0  0  0
 44 47  1  0  0  0  0
 44 67  1  0  0  0  0
 45 70  1  0  0  0  0
 46 66  1  0  0  0  0
 47 65  1  0  0  0  0
 48 59  1  0  0  0  0
 49 60  1  0  0  0  0
 50 60  1  0  0  0  0
 51 60  1  0  0  0  0
 52 73  1  0  0  0  0
 53 74  1  0  0  0  0
 54 81  1  0  0  0  0
 55 74  1  0  0  0  0
 56 57  1  0  0  0  0
 56 72  1  0  0  0  0
 57 74  1  0  0  0  0
 58 60  1  0  0  0  0
 58 71  1  0  0  0  0
 59 73  1  0  0  0  0
 61 64  1  0  0  0  0
 62 65  1  0  0  0  0
M  CHG  2  73   1  74   1
M  ISO  4  35 100  54 101  72 100  81 101
M  END
> <Batch ID>
0054

> <Smiles>
CNC(C)C(=O)NC(C(=O)N1Cc2cc([101O:1][101CH2:1]c3cnnc(CN(C)CC[100NH:0][100C:0](=O)N4CCCC(n5nc(-c6ccc(Oc7ccc(F)cc7F)cc6)c(C(N)=O)c5N)C4)n3)ccc2CC1C(=O)NC1CCCc2ccccc21)C(C)(C)C

> <Shape>
0.196

> <Color>
0.051

> <Negative vol penalty>
0.000

$$$$

  -OEChem-04052317413D

 83 91  0     1  0  0  0  0  0999 V2000
  -20.7281  -21.6697   18.5676 C   0  0  0  0  0  0  0  0  0  0  0  0
  -21.2855  -20.4154   18.3403 C   0  0  0  0  0  0  0  0  0  0  0  0
  -26.4453  -25.9000   17.6527 C   0  0  0  0  0  0  0  0  0  0  0  0
  -26.0165  -25.5312   20.0016 C   0  0  0  0  0  0  0  0  0  0  0  0
  -21.1959  -22.4594   19.6171 C   0  0  0  0  0  0  0  0  0  0  0  0
  -22.3118  -19.9506   19.1619 C   0  0  0  0  0  0  0  0  0  0  0  0
  -23.3024  -14.1616   20.8974 C   0  0  0  0  0  0  0  0  0  0  0  0
  -25.6101  -27.0169   17.6756 C   0  0  0  0  0  0  0  0  0  0  0  0
  -25.1813  -26.6482   20.0245 C   0  0  0  0  0  0  0  0  0  0  0  0
  -24.1675  -13.1756   20.4248 C   0  0  0  0  0  0  0  0  0  0  0  0
  -25.5209  -30.0079   20.1556 C   0  0  0  0  0  0  0  0  0  0  0  0
  -25.6618  -30.8989   21.2195 C   0  0  0  0  0  0  0  0  0  0  0  0
  -25.7661  -13.7691   22.1311 C   0  0  0  0  0  0  0  0  0  0  0  0
  -23.3638  -30.5058   21.8532 C   0  0  0  0  0  0  0  0  0  0  0  0
  -29.7885  -14.2191   18.8788 C   0  0  0  0  0  0  0  0  0  0  0  0
  -26.6485  -25.1571   18.8157 C   0  0  0  0  0  0  0  0  0  0  0  0
  -28.8960  -23.9716   19.0407 C   0  0  0  0  0  0  0  0  0  0  0  0
  -22.2219  -21.9999   20.4579 C   0  0  0  0  0  0  0  0  0  0  0  0
  -23.6678  -14.9673   21.9853 C   0  0  0  0  0  0  0  0  0  0  0  0
  -22.7947  -20.7354   20.2228 C   0  0  0  0  0  0  0  0  0  0  0  0
  -24.9028  -14.7628   22.6171 C   0  0  0  0  0  0  0  0  0  0  0  0
  -24.9781  -27.3910   18.8615 C   0  0  0  0  0  0  0  0  0  0  0  0
  -25.4008  -12.9812   21.0399 C   0  0  0  0  0  0  0  0  0  0  0  0
  -24.3014  -29.3659   19.9404 C   0  0  0  0  0  0  0  0  0  0  0  0
  -24.5833  -31.1479   22.0683 C   0  0  0  0  0  0  0  0  0  0  0  0
  -23.2228  -29.6148   20.7892 C   0  0  0  0  0  0  0  0  0  0  0  0
  -27.5107  -24.0029   18.7925 C   0  0  0  0  0  0  0  0  0  0  0  0
  -30.3674  -13.1796   19.5625 C   0  0  0  0  0  0  0  0  0  0  0  0
  -29.2408  -22.6499   18.8970 C   0  0  0  0  0  0  0  0  0  0  0  0
  -29.7912  -25.0416   19.3717 C   0  0  0  0  0  0  0  0  0  0  0  0
  -24.1449  -18.0811   22.4102 C   0  0  0  0  0  0  0  0  0  0  0  0
  -24.4562  -17.2127   25.5201 C   0  0  0  0  0  0  0  0  0  0  0  0
  -25.1804  -14.7661   27.7864 C   0  0  0  0  0  0  0  0  0  0  0  0
  -27.8999  -17.2886   20.2295 C   0  0  0  0  0  0  0  0  0  0  0  0
  -22.7269  -22.9089   21.5504 C   0  0  0  0  0  0  0  0  0  0  0  0
  -22.7121  -16.0086   22.4999 C   0  0  0  0  0  0  0  0  0  0  0  0
  -25.3339  -15.5876   23.8013 C   0  0  0  0  0  0  0  0  0  0  0  0
  -23.5609  -22.1875   22.6059 C   0  0  0  0  0  0  0  0  0  0  0  0
  -26.6387  -18.7309   17.0624 C   0  0  0  0  0  0  0  0  0  0  0  0
  -24.5837  -21.2703   21.9430 C   0  0  0  0  0  0  0  0  0  0  0  0
  -26.8056  -20.2323   17.2903 C   0  0  0  0  0  0  0  0  0  0  0  0
  -26.4275  -17.9783   18.3726 C   0  0  0  0  0  0  0  0  0  0  0  0
  -27.6537  -19.7290   19.6159 C   0  0  0  0  0  0  0  0  0  0  0  0
  -23.8926  -20.1859   21.1076 C   0  0  1  0  0  0  0  0  0  0  0  0
  -23.4032  -17.1153   23.2904 C   0  0  1  0  0  0  0  0  0  0  0  0
  -27.9147  -20.5109   18.3197 C   0  0  2  0  0  0  0  0  0  0  0  0
  -25.3888  -14.3667   30.2551 C   0  0  0  0  0  0  0  0  0  0  0  0
  -31.6827  -16.9874   17.7359 C   0  0  0  0  0  0  0  0  0  0  0  0
  -27.1435  -18.6579   25.5245 C   0  0  0  0  0  0  0  0  0  0  0  0
  -27.7136  -17.4447   27.6391 C   0  0  0  0  0  0  0  0  0  0  0  0
  -25.7686  -19.0056   27.5844 C   0  0  0  0  0  0  0  0  0  0  0  0
  -29.5774  -16.8099   21.9720 C   0  0  0  0  0  0  0  0  0  0  0  0
  -23.0294  -12.7336   27.7567 C   0  0  0  0  0  0  0  0  0  0  0  0
  -29.9095  -11.7477   19.6788 C   0  0  0  0  0  0  0  0  0  0  0  0
  -28.3909  -11.5781   19.5973 C   0  0  0  0  0  0  0  0  0  0  0  0
  -30.3666  -17.6363   19.7857 C   0  0  0  0  0  0  0  0  0  0  0  0
  -27.6456  -12.2546   20.7420 C   0  0  0  0  0  0  0  0  0  1  0  0
  -25.6042  -16.7785   26.3990 C   0  0  1  0  0  0  0  0  0  0  0  0
  -24.4650  -14.3179   29.0480 C   0  0  2  0  0  0  0  0  0  0  0  0
  -30.5030  -16.6188   18.6419 C   0  0  2  0  0  0  0  0  0  0  0  0
  -26.5504  -17.9573   26.7633 C   0  0  0  0  0  0  0  0  0  0  0  0
  -27.0096  -22.7969   18.5122 N   0  0  0  0  0  0  0  0  0  0  0  0
  -31.5071  -13.6143   20.1804 N   0  0  0  0  0  0  0  0  0  0  0  0
  -31.6564  -14.9044   19.9008 N   0  0  0  0  0  0  0  0  0  0  0  0
  -30.6248  -15.2652   19.1204 N   0  0  0  0  0  0  0  0  0  0  0  0
  -28.0860  -21.9954   18.5833 N   0  0  0  0  0  0  0  0  0  0  0  0
  -24.3673  -16.5974   24.2633 N   0  0  0  0  0  0  0  0  0  0  0  0
  -27.4716  -18.2946   19.3478 N   0  0  0  0  0  0  0  0  0  0  0  0
  -30.4161  -21.9953   19.0094 N   0  0  0  0  0  0  0  0  0  0  0  0
  -29.2712  -26.3386   19.4796 N   0  0  0  0  0  0  0  0  0  0  0  0
  -23.3769  -19.1398   21.9643 N   0  0  0  0  0  0  0  0  0  0  0  0
  -25.0067  -16.1137   27.5520 N   0  0  0  0  0  0  0  0  0  0  0  0
  -29.2340  -17.3415   20.6608 N   0  0  0  0  0  0  0  0  0  0  0  0
  -23.9674  -12.9217   28.8932 N   0  3  0  0  0  0  0  0  0  0  0  0
  -31.0189  -24.8556   19.5498 O   0  0  0  0  0  0  0  0  0  0  0  0
  -25.3268  -17.8814   22.1556 O   0  0  0  0  0  0  0  0  0  0  0  0
  -23.6633  -18.0612   25.9361 O   0  0  0  0  0  0  0  0  0  0  0  0
  -25.8316  -13.9982   27.0814 O   0  0  0  0  0  0  0  0  0  0  0  0
  -27.1361  -16.3887   20.6020 O   0  0  0  0  0  0  0  0  0  0  0  0
  -24.1632  -28.4810   18.8843 O   0  0  0  0  0  0  0  0  0  0  0  0
  -26.2473  -12.0200   20.5802 O   0  0  0  0  0  0  0  0  0  1  0  0
  -24.7193  -32.0023   23.0908 F   0  0  0  0  0  0  0  0  0  0  0  0
  -22.0491  -29.0001   20.5883 F   0  0  0  0  0  0  0  0  0  0  0  0
  1  2  1  0  0  0  0
  1  5  2  0  0  0  0
  2  6  2  0  0  0  0
  3  8  2  0  0  0  0
  3 16  1  0  0  0  0
  4  9  1  0  0  0  0
  4 16  2  0  0  0  0
  5 18  1  0  0  0  0
  6 20  1  0  0  0  0
  7 10  2  0  0  0  0
  7 19  1  0  0  0  0
  8 22  1  0  0  0  0
  9 22  2  0  0  0  0
 10 23  1  0  0  0  0
 11 12  2  0  0  0  0
 11 24  1  0  0  0  0
 12 25  1  0  0  0  0
 13 21  1  0  0  0  0
 13 23  2  0  0  0  0
 14 25  2  0  0  0  0
 14 26  1  0  0  0  0
 15 28  2  0  0  0  0
 15 65  1  0  0  0  0
 16 27  1  0  0  0  0
 17 27  1  0  0  0  0
 17 29  2  0  0  0  0
 17 30  1  0  0  0  0
 18 20  2  0  0  0  0
 18 35  1  0  0  0  0
 19 21  2  0  0  0  0
 19 36  1  0  0  0  0
 20 44  1  0  0  0  0
 21 37  1  0  0  0  0
 22 80  1  0  0  0  0
 23 81  1  0  0  0  0
 24 26  2  0  0  0  0
 24 80  1  0  0  0  0
 25 82  1  0  0  0  0
 26 83  1  0  0  0  0
 27 62  2  0  0  0  0
 28 54  1  0  0  0  0
 28 63  1  0  0  0  0
 29 66  1  0  0  0  0
 29 69  1  0  0  0  0
 30 70  1  0  0  0  0
 30 75  2  0  0  0  0
 31 45  1  0  0  0  0
 31 71  1  0  0  0  0
 31 76  2  0  0  0  0
 32 58  1  0  0  0  0
 32 67  1  0  0  0  0
 32 77  2  0  0  0  0
 33 59  1  0  0  0  0
 33 72  1  0  0  0  0
 33 78  2  0  0  0  0
 34 68  1  0  0  0  0
 34 73  1  0  0  0  0
 34 79  2  0  0  0  0
 35 38  1  0  0  0  0
 36 45  1  0  0  0  0
 37 67  1  0  0  0  0
 38 40  1  0  0  0  0
 39 41  1  0  0  0  0
 39 42  1  0  0  0  0
 40 44  1  0  0  0  0
 41 46  1  0  0  0  0
 42 68  1  0  0  0  0
 43 46  1  0  0  0  0
 43 68  1  0  0  0  0
 44 71  1  0  0  0  0
 45 67  1  0  0  0  0
 46 66  1  0  0  0  0
 47 59  1  0  0  0  0
 48 60  1  0  0  0  0
 49 61  1  0  0  0  0
 50 61  1  0  0  0  0
 51 61  1  0  0  0  0
 52 73  1  0  0  0  0
 53 74  1  0  0  0  0
 54 55  1  0  0  0  0
 55 57  1  0  0  0  0
 56 60  1  0  0  0  0
 56 73  1  0  0  0  0
 57 81  1  0  0  0  0
 58 61  1  0  0  0  0
 58 72  1  0  0  0  0
 59 74  1  0  0  0  0
 60 65  1  0  0  0  0
 62 66  1  0  0  0  0
 63 64  2  0  0  0  0
 64 65  1  0  0  0  0
M  CHG  1  74   1
M  ISO  4  34 100  57 101  73 100  81 101
M  END
> <Batch ID>
0054

> <Smiles>
CNC(C)C(=O)NC(C(=O)N1Cc2cc([101O:1][101CH2:1]CCc3cn(C(C)C[100N:0](C)[100C:0](=O)N4CCCC(n5nc(-c6ccc(Oc7ccc(F)cc7F)cc6)c(C(N)=O)c5N)C4)nn3)ccc2CC1C(=O)NC1CCCc2ccccc21)C(C)(C)C

> <Shape>
0.200

> <Color>
0.074

> <Negative vol penalty>
0.000

$$$$

  -OEChem-04052317413D

 84 92  0     1  0  0  0  0  0999 V2000
  -18.8772  -32.6108   19.4393 C   0  0  0  0  0  0  0  0  0  0  0  0
  -20.1837  -32.2012   19.1933 C   0  0  0  0  0  0  0  0  0  0  0  0
  -28.0774  -14.0677   19.8658 C   0  0  0  0  0  0  0  0  0  0  0  0
  -27.3165  -14.5127   22.1153 C   0  0  0  0  0  0  0  0  0  0  0  0
  -18.3048  -32.3962   20.6924 C   0  0  0  0  0  0  0  0  0  0  0  0
  -20.9190  -31.5775   20.2007 C   0  0  0  0  0  0  0  0  0  0  0  0
  -25.0729  -27.1304   19.5116 C   0  0  0  0  0  0  0  0  0  0  0  0
  -27.3137  -12.9008   19.8383 C   0  0  0  0  0  0  0  0  0  0  0  0
  -26.5528  -13.3458   22.0878 C   0  0  0  0  0  0  0  0  0  0  0  0
  -26.4659  -27.1483   19.4568 C   0  0  0  0  0  0  0  0  0  0  0  0
  -23.5922  -12.3381   20.8070 C   0  0  0  0  0  0  0  0  0  0  0  0
  -22.2852  -12.4093   21.2887 C   0  0  0  0  0  0  0  0  0  0  0  0
  -26.5590  -26.6214   21.8090 C   0  0  0  0  0  0  0  0  0  0  0  0
  -22.8103  -10.7453   22.9598 C   0  0  0  0  0  0  0  0  0  0  0  0
  -28.0788  -14.8736   21.0043 C   0  0  0  0  0  0  0  0  0  0  0  0
  -30.2635  -16.1850   20.8826 C   0  0  0  0  0  0  0  0  0  0  0  0
  -19.0301  -31.7609   21.7126 C   0  0  0  0  0  0  0  0  0  0  0  0
  -24.4113  -26.8682   20.7199 C   0  0  0  0  0  0  0  0  0  0  0  0
  -20.3562  -31.3553   21.4690 C   0  0  0  0  0  0  0  0  0  0  0  0
  -25.1576  -26.5982   21.8759 C   0  0  0  0  0  0  0  0  0  0  0  0
  -30.7154  -24.3494   16.1845 C   0  0  0  0  0  0  0  0  0  0  0  0
  -26.5514  -12.5398   20.9493 C   0  0  0  0  0  0  0  0  0  0  0  0
  -27.2092  -26.8966   20.6063 C   0  0  0  0  0  0  0  0  0  0  0  0
  -24.5084  -11.4704   21.4016 C   0  0  0  0  0  0  0  0  0  0  0  0
  -21.8942  -11.6130   22.3651 C   0  0  0  0  0  0  0  0  0  0  0  0
  -24.1174  -10.6740   22.4780 C   0  0  0  0  0  0  0  0  0  0  0  0
  -28.8679  -16.0788   21.0335 C   0  0  0  0  0  0  0  0  0  0  0  0
  -30.0276  -23.3329   15.5535 C   0  0  0  0  0  0  0  0  0  0  0  0
  -30.5793  -24.4001   17.5567 C   0  0  0  0  0  0  0  0  0  0  0  0
  -30.5188  -17.5305   20.9875 C   0  0  0  0  0  0  0  0  0  0  0  0
  -29.2108  -22.5852   17.5386 C   0  0  0  0  0  0  0  0  0  0  0  0
  -31.2417  -15.1592   20.6668 C   0  0  0  0  0  0  0  0  0  0  0  0
  -22.4119  -28.4935   22.5812 C   0  0  0  0  0  0  0  0  0  0  0  0
  -22.2648  -25.6907   24.2075 C   0  0  0  0  0  0  0  0  0  0  0  0
  -23.7469  -22.7211   25.0025 C   0  0  0  0  0  0  0  0  0  0  0  0
  -26.6816  -22.2171   20.0658 C   0  0  0  0  0  0  0  0  0  0  0  0
  -18.3851  -31.5932   23.0656 C   0  0  0  0  0  0  0  0  0  0  0  0
  -22.9082  -26.8261   20.7564 C   0  0  0  0  0  0  0  0  0  0  0  0
  -24.4956  -26.2913   23.1935 C   0  0  0  0  0  0  0  0  0  0  0  0
  -19.1038  -30.5886   23.9626 C   0  0  0  0  0  0  0  0  0  0  0  0
  -28.8371  -21.5276   22.9949 C   0  0  0  0  0  0  0  0  0  0  0  0
  -20.6090  -30.8349   23.9410 C   0  0  0  0  0  0  0  0  0  0  0  0
  -29.1439  -20.0391   22.8397 C   0  0  0  0  0  0  0  0  0  0  0  0
  -27.4932  -21.8975   22.3746 C   0  0  0  0  0  0  0  0  0  0  0  0
  -27.6625  -20.0034   20.7941 C   0  0  0  0  0  0  0  0  0  0  0  0
  -21.1775  -30.6532   22.5285 C   0  0  1  0  0  0  0  0  0  0  0  0
  -22.3379  -27.0552   22.1527 C   0  0  1  0  0  0  0  0  0  0  0  0
  -29.0310  -19.6063   21.3676 C   0  0  2  0  0  0  0  0  0  0  0  0
  -31.5503  -25.3255   15.4340 C   0  0  0  0  0  0  0  0  0  0  0  0
  -30.1000  -23.1786   14.0697 C   0  0  0  0  0  0  0  0  0  0  0  0
  -23.9842  -20.4306   25.9997 C   0  0  0  0  0  0  0  0  0  0  0  0
  -22.9881  -27.2573   26.7240 C   0  0  0  0  0  0  0  0  0  0  0  0
  -23.5549  -25.0838   27.8300 C   0  0  0  0  0  0  0  0  0  0  0  0
  -21.2246  -25.5144   27.0510 C   0  0  0  0  0  0  0  0  0  0  0  0
  -26.4039  -22.9759   17.7363 C   0  0  0  0  0  0  0  0  0  0  0  0
  -22.5790  -21.4312   22.6085 C   0  0  0  0  0  0  0  0  0  0  0  0
  -31.2830  -25.4679   18.3556 C   0  0  0  0  0  0  0  0  0  0  0  0
  -28.3775  -21.6038   18.2909 C   0  0  0  0  0  0  0  0  0  0  0  0
  -30.5263  -25.8937   19.6156 C   0  0  0  0  0  0  0  0  0  0  0  0
  -29.1779  -26.5403   19.3205 C   0  0  0  0  0  0  0  0  0  1  0  0
  -23.0396  -25.0739   25.3470 C   0  0  1  0  0  0  0  0  0  0  0  0
  -23.2107  -21.3010   25.0215 C   0  0  2  0  0  0  0  0  0  0  0  0
  -22.7146  -25.7400   26.7137 C   0  0  0  0  0  0  0  0  0  0  0  0
  -28.2779  -17.2625   21.2202 N   0  0  0  0  0  0  0  0  0  0  0  0
  -29.2632  -22.4299   16.2019 N   0  0  0  0  0  0  0  0  0  0  0  0
  -29.8322  -23.5310   18.2686 N   0  0  0  0  0  0  0  0  0  0  0  0
  -29.3078  -18.1252   21.1874 N   0  0  0  0  0  0  0  0  0  0  0  0
  -23.0236  -26.2680   23.1795 N   0  0  0  0  0  0  0  0  0  0  0  0
  -27.3962  -21.4365   20.9892 N   0  0  0  0  0  0  0  0  0  0  0  0
  -31.6588  -18.2511   20.9274 N   0  0  0  0  0  0  0  0  0  0  0  0
  -31.8385  -14.5594   21.7842 N   0  0  0  0  0  0  0  0  0  0  0  0
  -21.3128  -29.2468   22.2152 N   0  0  0  0  0  0  0  0  0  0  0  0
  -22.7645  -23.6419   25.2997 N   0  0  0  0  0  0  0  0  0  0  0  0
  -27.1058  -22.1749   18.7290 N   0  0  0  0  0  0  0  0  0  0  0  0
  -23.3136  -20.6903   23.6660 N   0  3  0  0  0  0  0  0  0  0  0  0
  -31.5886  -14.7970   19.5171 O   0  0  0  0  0  0  0  0  0  0  0  0
  -23.3928  -28.8900   23.1994 O   0  0  0  0  0  0  0  0  0  0  0  0
  -21.0319  -25.6551   24.2254 O   0  0  0  0  0  0  0  0  0  0  0  0
  -24.9206  -22.9867   24.7529 O   0  0  0  0  0  0  0  0  0  0  0  0
  -25.7253  -22.9196   20.4179 O   0  0  0  0  0  0  0  0  0  0  0  0
  -25.8059  -11.4014   20.9227 O   0  0  0  0  0  0  0  0  0  0  0  0
  -28.5690  -26.9141   20.5558 O   0  0  0  0  0  0  0  0  0  1  0  0
  -20.6394  -11.6826   22.8286 F   0  0  0  0  0  0  0  0  0  0  0  0
  -24.9934   -9.8394   23.0541 F   0  0  0  0  0  0  0  0  0  0  0  0
  1  2  1  0  0  0  0
  1  5  2  0  0  0  0
  2  6  2  0  0  0  0
  3  8  2  0  0  0  0
  3 15  1  0  0  0  0
  4  9  1  0  0  0  0
  4 15  2  0  0  0  0
  5 17  1  0  0  0  0
  6 19  1  0  0  0  0
  7 10  2  0  0  0  0
  7 18  1  0  0  0  0
  8 22  1  0  0  0  0
  9 22  2  0  0  0  0
 10 23  1  0  0  0  0
 11 12  2  0  0  0  0
 11 24  1  0  0  0  0
 12 25  1  0  0  0  0
 13 20  1  0  0  0  0
 13 23  2  0  0  0  0
 14 25  2  0  0  0  0
 14 26  1  0  0  0  0
 15 27  1  0  0  0  0
 16 27  1  0  0  0  0
 16 30  2  0  0  0  0
 16 32  1  0  0  0  0
 17 19  2  0  0  0  0
 17 37  1  0  0  0  0
 18 20  2  0  0  0  0
 18 38  1  0  0  0  0
 19 46  1  0  0  0  0
 20 39  1  0  0  0  0
 21 28  1  0  0  0  0
 21 29  2  0  0  0  0
 21 49  1  0  0  0  0
 22 81  1  0  0  0  0
 23 82  1  0  0  0  0
 24 26  2  0  0  0  0
 24 81  1  0  0  0  0
 25 83  1  0  0  0  0
 26 84  1  0  0  0  0
 27 64  2  0  0  0  0
 28 50  1  0  0  0  0
 28 65  2  0  0  0  0
 29 57  1  0  0  0  0
 29 66  1  0  0  0  0
 30 67  1  0  0  0  0
 30 70  1  0  0  0  0
 31 58  1  0  0  0  0
 31 65  1  0  0  0  0
 31 66  2  0  0  0  0
 32 71  1  0  0  0  0
 32 76  2  0  0  0  0
 33 47  1  0  0  0  0
 33 72  1  0  0  0  0
 33 77  2  0  0  0  0
 34 61  1  0  0  0  0
 34 68  1  0  0  0  0
 34 78  2  0  0  0  0
 35 62  1  0  0  0  0
 35 73  1  0  0  0  0
 35 79  2  0  0  0  0
 36 69  1  0  0  0  0
 36 74  1  0  0  0  0
 36 80  2  0  0  0  0
 37 40  1  0  0  0  0
 38 47  1  0  0  0  0
 39 68  1  0  0  0  0
 40 42  1  0  0  0  0
 41 43  1  0  0  0  0
 41 44  1  0  0  0  0
 42 46  1  0  0  0  0
 43 48  1  0  0  0  0
 44 69  1  0  0  0  0
 45 48  1  0  0  0  0
 45 69  1  0  0  0  0
 46 72  1  0  0  0  0
 47 68  1  0  0  0  0
 48 67  1  0  0  0  0
 51 62  1  0  0  0  0
 52 63  1  0  0  0  0
 53 63  1  0  0  0  0
 54 63  1  0  0  0  0
 55 74  1  0  0  0  0
 56 75  1  0  0  0  0
 57 59  1  0  0  0  0
 58 74  1  0  0  0  0
 59 60  1  0  0  0  0
 60 82  1  0  0  0  0
 61 63  1  0  0  0  0
 61 73  1  0  0  0  0
 62 75  1  0  0  0  0
 64 67  1  0  0  0  0
M  CHG  1  75   1
M  ISO  4  36 100  60 101  74 100  82 101
M  END
> <Batch ID>
0054

> <Smiles>
CNC(C)C(=O)NC(C(=O)N1Cc2cc([101O:1][101CH2:1]CCc3nc(C[100N:0](C)[100C:0](=O)N4CCCC(n5nc(-c6ccc(Oc7ccc(F)cc7F)cc6)c(C(N)=O)c5N)C4)nc(C)c3C)ccc2CC1C(=O)NC1CCCc2ccccc21)C(C)(C)C

> <Shape>
0.221

> <Color>
0.091

> <Negative vol penalty>
0.000

$$$$

  -OEChem-04052317413D

 84 92  0     1  0  0  0  0  0999 V2000
  -28.8483  -11.5948   19.3743 C   0  0  0  0  0  0  0  0  0  0  0  0
  -28.8131  -12.8449   18.7649 C   0  0  0  0  0  0  0  0  0  0  0  0
  -21.8000  -26.5836   20.9300 C   0  0  0  0  0  0  0  0  0  0  0  0
  -22.0220  -28.9826   21.1105 C   0  0  0  0  0  0  0  0  0  0  0  0
  -27.7545  -11.1513   20.1164 C   0  0  0  0  0  0  0  0  0  0  0  0
  -27.6834  -13.6518   18.8963 C   0  0  0  0  0  0  0  0  0  0  0  0
  -28.8476  -18.4712   19.9270 C   0  0  0  0  0  0  0  0  0  0  0  0
  -20.4233  -26.6964   21.1236 C   0  0  0  0  0  0  0  0  0  0  0  0
  -20.6453  -29.0954   21.3041 C   0  0  0  0  0  0  0  0  0  0  0  0
  -29.2806  -19.2630   18.8642 C   0  0  0  0  0  0  0  0  0  0  0  0
  -18.4406  -28.6590   23.8299 C   0  0  0  0  0  0  0  0  0  0  0  0
  -17.9963  -29.5018   24.8487 C   0  0  0  0  0  0  0  0  0  0  0  0
  -27.0738  -20.2211   18.6869 C   0  0  0  0  0  0  0  0  0  0  0  0
  -16.7932  -30.8282   23.2269 C   0  0  0  0  0  0  0  0  0  0  0  0
  -30.2340  -24.1165   16.7795 C   0  0  0  0  0  0  0  0  0  0  0  0
  -29.8771  -23.7254   19.0547 C   0  0  0  0  0  0  0  0  0  0  0  0
  -22.5994  -27.7267   20.9235 C   0  0  0  0  0  0  0  0  0  0  0  0
  -24.7134  -27.6392   19.4984 C   0  0  0  0  0  0  0  0  0  0  0  0
  -26.6147  -11.9571   20.2650 C   0  0  0  0  0  0  0  0  0  0  0  0
  -27.5194  -18.5407   20.3713 C   0  0  0  0  0  0  0  0  0  0  0  0
  -26.5728  -13.2180   19.6399 C   0  0  0  0  0  0  0  0  0  0  0  0
  -26.6272  -19.4311   19.7571 C   0  0  0  0  0  0  0  0  0  0  0  0
  -30.3293  -24.5847   18.0741 C   0  0  0  0  0  0  0  0  0  0  0  0
  -19.8459  -27.9523   21.3106 C   0  0  0  0  0  0  0  0  0  0  0  0
  -28.3929  -20.1360   18.2421 C   0  0  0  0  0  0  0  0  0  0  0  0
  -18.0612  -28.9009   22.5096 C   0  0  0  0  0  0  0  0  0  0  0  0
  -17.1726  -30.5864   24.5472 C   0  0  0  0  0  0  0  0  0  0  0  0
  -17.2375  -29.9854   22.2080 C   0  0  0  0  0  0  0  0  0  0  0  0
  -24.0217  -27.6107   20.7241 C   0  0  0  0  0  0  0  0  0  0  0  0
  -26.0340  -27.4917   19.8458 C   0  0  0  0  0  0  0  0  0  0  0  0
  -29.3293  -22.1598   17.5005 C   0  0  0  0  0  0  0  0  0  1  0  0
  -24.2074  -27.7859   18.1649 C   0  0  0  0  0  0  0  0  0  0  0  0
  -25.1014  -16.4847   20.5438 C   0  0  0  0  0  0  0  0  0  0  0  0
  -23.6423  -18.9311   22.0956 C   0  0  0  0  0  0  0  0  0  0  0  0
  -23.4361  -22.2901   22.6624 C   0  0  0  0  0  0  0  0  0  0  0  0
  -30.3794  -28.7639   23.1084 C   0  0  0  0  0  0  0  0  0  0  0  0
  -25.4381  -11.4151   21.0375 C   0  0  0  0  0  0  0  0  0  0  0  0
  -27.0750  -17.6995   21.5363 C   0  0  0  0  0  0  0  0  0  0  0  0
  -25.1962  -19.5580   20.2095 C   0  0  0  0  0  0  0  0  0  0  0  0
  -24.4279  -12.4865   21.4397 C   0  0  0  0  0  0  0  0  0  0  0  0
  -28.1557  -26.2339   24.2620 C   0  0  0  0  0  0  0  0  0  0  0  0
  -24.1165  -13.3976   20.2566 C   0  0  0  0  0  0  0  0  0  0  0  0
  -26.9372  -26.3732   23.3478 C   0  0  0  0  0  0  0  0  0  0  0  0
  -28.7751  -27.5912   24.5875 C   0  0  0  0  0  0  0  0  0  0  0  0
  -27.8934  -28.5554   22.4979 C   0  0  0  0  0  0  0  0  0  0  0  0
  -25.3752  -14.1325   19.7800 C   0  0  1  0  0  0  0  0  0  0  0  0
  -25.5661  -17.4772   21.5717 C   0  0  1  0  0  0  0  0  0  0  0  0
  -27.2677  -27.2087   22.0964 C   0  0  2  0  0  0  0  0  0  0  0  0
  -22.6604  -24.4299   23.7193 C   0  0  0  0  0  0  0  0  0  0  0  0
  -21.3433  -18.6551   20.1086 C   0  0  0  0  0  0  0  0  0  0  0  0
  -20.5473  -20.9192   20.8216 C   0  0  0  0  0  0  0  0  0  0  0  0
  -20.6355  -19.0526   22.4741 C   0  0  0  0  0  0  0  0  0  0  0  0
  -25.4816  -22.1144   24.7941 C   0  0  0  0  0  0  0  0  0  0  0  0
  -34.3377  -27.5033   18.6747 C   0  0  0  0  0  0  0  0  0  0  0  0
  -30.8819  -25.9237   18.3910 C   0  0  0  0  0  0  0  0  0  0  0  0
  -32.3344  -29.3637   20.1930 C   0  0  0  0  0  0  0  0  0  0  0  0
  -31.8657  -29.9556   21.5178 C   0  0  0  0  0  0  0  0  0  0  0  0
  -32.3956  -25.9454   18.6319 C   0  0  0  0  0  0  0  0  0  0  0  0
  -32.4328  -27.8443   20.2423 C   0  0  0  0  0  0  0  0  0  0  0  0
  -22.7915  -20.1062   21.6780 C   0  0  1  0  0  0  0  0  0  0  0  0
  -23.3437  -23.0908   23.9488 C   0  0  2  0  0  0  0  0  0  0  0  0
  -21.3558  -19.6797   21.2605 C   0  0  0  0  0  0  0  0  0  0  0  0
  -29.7373  -22.9046   16.4554 N   0  0  0  0  0  0  0  0  0  0  0  0
  -29.3691  -22.5012   18.8026 N   0  0  0  0  0  0  0  0  0  0  0  0
  -24.8355  -27.4570   21.7720 N   0  0  0  0  0  0  0  0  0  0  0  0
  -26.0523  -27.3875   21.2056 N   0  0  0  0  0  0  0  0  0  0  0  0
  -24.8078  -18.7098   21.3484 N   0  0  0  0  0  0  0  0  0  0  0  0
  -29.0661  -28.3324   23.3579 N   0  0  0  0  0  0  0  0  0  0  0  0
  -27.1697  -27.4421   19.1178 N   0  0  0  0  0  0  0  0  0  0  0  0
  -22.8244  -27.9266   17.9868 N   0  0  0  0  0  0  0  0  0  0  0  0
  -25.6814  -15.2363   20.6646 N   0  0  0  0  0  0  0  0  0  0  0  0
  -22.8348  -21.0554   22.7850 N   0  0  0  0  0  0  0  0  0  0  0  0
  -30.5698  -29.4538   21.9174 N   0  0  0  0  0  0  0  0  0  0  0  0
  -24.7049  -23.3460   24.4991 N   0  3  0  0  0  0  0  0  0  0  0  0
  -32.8531  -27.3338   18.8858 N   0  3  1  0  0  0  0  0  0  0  0  0
  -24.9579  -27.7757   17.1598 O   0  0  0  0  0  0  0  0  0  0  0  0
  -24.2765  -16.8257   19.7042 O   0  0  0  0  0  0  0  0  0  0  0  0
  -23.2894  -18.2395   23.0542 O   0  0  0  0  0  0  0  0  0  0  0  0
  -23.9836  -22.7188   21.6490 O   0  0  0  0  0  0  0  0  0  0  0  0
  -31.3140  -28.5455   23.8866 O   0  0  0  0  0  0  0  0  0  0  0  0
  -18.5025  -28.0628   21.4993 O   0  0  0  0  0  0  0  0  0  0  0  0
  -28.8128  -20.9094   17.2041 O   0  0  0  0  0  0  0  0  0  1  0  0
  -16.7448  -31.3947   25.5259 F   0  0  0  0  0  0  0  0  0  0  0  0
  -16.8688  -30.2222   20.9416 F   0  0  0  0  0  0  0  0  0  0  0  0
  1  2  1  0  0  0  0
  1  5  2  0  0  0  0
  2  6  2  0  0  0  0
  3  8  2  0  0  0  0
  3 17  1  0  0  0  0
  4  9  1  0  0  0  0
  4 17  2  0  0  0  0
  5 19  1  0  0  0  0
  6 21  1  0  0  0  0
  7 10  2  0  0  0  0
  7 20  1  0  0  0  0
  8 24  1  0  0  0  0
  9 24  2  0  0  0  0
 10 25  1  0  0  0  0
 11 12  2  0  0  0  0
 11 26  1  0  0  0  0
 12 27  1  0  0  0  0
 13 22  1  0  0  0  0
 13 25  2  0  0  0  0
 14 27  2  0  0  0  0
 14 28  1  0  0  0  0
 15 23  1  0  0  0  0
 15 63  2  0  0  0  0
 16 23  2  0  0  0  0
 16 64  1  0  0  0  0
 17 29  1  0  0  0  0
 18 29  1  0  0  0  0
 18 30  2  0  0  0  0
 18 32  1  0  0  0  0
 19 21  2  0  0  0  0
 19 37  1  0  0  0  0
 20 22  2  0  0  0  0
 20 38  1  0  0  0  0
 21 46  1  0  0  0  0
 22 39  1  0  0  0  0
 23 55  1  0  0  0  0
 24 81  1  0  0  0  0
 25 82  1  0  0  0  0
 26 28  2  0  0  0  0
 26 81  1  0  0  0  0
 27 83  1  0  0  0  0
 28 84  1  0  0  0  0
 29 65  2  0  0  0  0
 30 66  1  0  0  0  0
 30 69  1  0  0  0  0
 31 63  1  0  0  0  0
 31 64  2  0  0  0  0
 31 82  1  0  0  0  0
 32 70  1  0  0  0  0
 32 76  2  0  0  0  0
 33 47  1  0  0  0  0
 33 71  1  0  0  0  0
 33 77  2  0  0  0  0
 34 60  1  0  0  0  0
 34 67  1  0  0  0  0
 34 78  2  0  0  0  0
 35 61  1  0  0  0  0
 35 72  1  0  0  0  0
 35 79  2  0  0  0  0
 36 68  1  0  0  0  0
 36 73  1  0  0  0  0
 36 80  2  0  0  0  0
 37 40  1  0  0  0  0
 38 47  1  0  0  0  0
 39 67  1  0  0  0  0
 40 42  1  0  0  0  0
 41 43  1  0  0  0  0
 41 44  1  0  0  0  0
 42 46  1  0  0  0  0
 43 48  1  0  0  0  0
 44 68  1  0  0  0  0
 45 48  1  0  0  0  0
 45 68  1  0  0  0  0
 46 71  1  0  0  0  0
 47 67  1  0  0  0  0
 48 66  1  0  0  0  0
 49 61  1  0  0  0  0
 50 62  1  0  0  0  0
 51 62  1  0  0  0  0
 52 62  1  0  0  0  0
 53 74  1  0  0  0  0
 54 75  1  0  0  0  0
 55 58  1  0  0  0  0
 56 57  1  0  0  0  0
 56 59  1  0  0  0  0
 57 73  1  0  0  0  0
 58 75  1  0  0  0  0
 59 75  1  0  0  0  0
 60 62  1  0  0  0  0
 60 72  1  0  0  0  0
 61 74  1  0  0  0  0
 65 66  1  0  0  0  0
M  CHG  2  74   1  75   1
M  ISO  4  31 101  36 100  73 100  82 101
M  END
> <Batch ID>
0054

> <Smiles>
CNC(C)C(=O)NC(C(=O)N1Cc2cc([101O:1][101c:1]3ncc(CCN(C)CCC[100NH:0][100C:0](=O)N4CCCC(n5nc(-c6ccc(Oc7ccc(F)cc7F)cc6)c(C(N)=O)c5N)C4)cn3)ccc2CC1C(=O)NC1CCCc2ccccc21)C(C)(C)C

> <Shape>
0.216

> <Color>
0.068

> <Negative vol penalty>
0.000

$$$$

  -OEChem-04052317413D

 78 86  0     1  0  0  0  0  0999 V2000
  -24.8598  -35.2196   22.8847 C   0  0  0  0  0  0  0  0  0  0  0  0
  -25.5978  -34.0574   22.6850 C   0  0  0  0  0  0  0  0  0  0  0  0
  -25.4726  -13.3758   21.9571 C   0  0  0  0  0  0  0  0  0  0  0  0
  -26.6651  -13.2777   19.8582 C   0  0  0  0  0  0  0  0  0  0  0  0
  -23.5753  -35.1448   23.4216 C   0  0  0  0  0  0  0  0  0  0  0  0
  -25.0520  -32.8195   23.0232 C   0  0  0  0  0  0  0  0  0  0  0  0
  -25.8227  -29.3150   19.4498 C   0  0  0  0  0  0  0  0  0  0  0  0
  -25.1101  -12.0365   21.8137 C   0  0  0  0  0  0  0  0  0  0  0  0
  -26.3026  -11.9384   19.7148 C   0  0  0  0  0  0  0  0  0  0  0  0
  -27.0882  -28.7329   19.3912 C   0  0  0  0  0  0  0  0  0  0  0  0
  -22.8232  -10.2470   20.0840 C   0  0  0  0  0  0  0  0  0  0  0  0
  -21.4984   -9.9027   20.3522 C   0  0  0  0  0  0  0  0  0  0  0  0
  -26.2505  -26.8067   20.5775 C   0  0  0  0  0  0  0  0  0  0  0  0
  -22.2413   -8.3993   22.0915 C   0  0  0  0  0  0  0  0  0  0  0  0
  -29.2092  -23.8072   19.0094 C   0  0  0  0  0  0  0  0  0  0  0  0
  -26.2501  -13.9964   20.9793 C   0  0  0  0  0  0  0  0  0  0  0  0
  -27.7766  -15.8864   21.7573 C   0  0  0  0  0  0  0  0  0  0  0  0
  -23.0098  -33.9046   23.7575 C   0  0  0  0  0  0  0  0  0  0  0  0
  -24.7624  -28.6509   20.0832 C   0  0  0  0  0  0  0  0  0  0  0  0
  -23.7592  -32.7281   23.5663 C   0  0  0  0  0  0  0  0  0  0  0  0
  -24.9719  -27.3814   20.6405 C   0  0  0  0  0  0  0  0  0  0  0  0
  -25.5251  -11.3178   20.6926 C   0  0  0  0  0  0  0  0  0  0  0  0
  -27.3030  -27.4799   19.9577 C   0  0  0  0  0  0  0  0  0  0  0  0
  -23.8571   -9.6674   20.8194 C   0  0  0  0  0  0  0  0  0  0  0  0
  -21.2075   -8.9789   21.3559 C   0  0  0  0  0  0  0  0  0  0  0  0
  -23.5661   -8.7436   21.8232 C   0  0  0  0  0  0  0  0  0  0  0  0
  -26.6244  -15.3800   21.1266 C   0  0  0  0  0  0  0  0  0  0  0  0
  -29.6199  -24.8095   18.1669 C   0  0  0  0  0  0  0  0  0  0  0  0
  -27.6665  -17.2496   21.6301 C   0  0  0  0  0  0  0  0  0  0  0  0
  -28.8504  -15.1872   22.4005 C   0  0  0  0  0  0  0  0  0  0  0  0
  -22.9043  -29.2694   22.5869 C   0  0  0  0  0  0  0  0  0  0  0  0
  -26.5288  -21.7207   18.4671 C   0  0  0  0  0  0  0  0  0  0  0  0
  -21.3560  -26.5930   21.6061 C   0  0  0  0  0  0  0  0  0  0  0  0
  -21.4731  -23.6382   19.9026 C   0  0  0  0  0  0  0  0  0  0  0  0
  -21.6359  -33.8778   24.3790 C   0  0  0  0  0  0  0  0  0  0  0  0
  -23.3968  -29.2807   20.1144 C   0  0  0  0  0  0  0  0  0  0  0  0
  -23.8619  -26.6181   21.3141 C   0  0  0  0  0  0  0  0  0  0  0  0
  -20.9865  -32.4964   24.3620 C   0  0  0  0  0  0  0  0  0  0  0  0
  -23.7907  -20.1235   20.1380 C   0  0  0  0  0  0  0  0  0  0  0  0
  -21.9770  -31.4351   24.8302 C   0  0  0  0  0  0  0  0  0  0  0  0
  -24.3696  -18.7767   20.5692 C   0  0  0  0  0  0  0  0  0  0  0  0
  -24.3631  -20.5740   18.7977 C   0  0  0  0  0  0  0  0  0  0  0  0
  -26.4372  -19.2844   19.1936 C   0  0  0  0  0  0  0  0  0  0  0  0
  -23.1922  -31.3647   23.8975 C   0  0  1  0  0  0  0  0  0  0  0  0
  -22.5150  -28.7399   21.2357 C   0  0  1  0  0  0  0  0  0  0  0  0
  -25.9083  -18.8072   20.5577 C   0  0  2  0  0  0  0  0  0  0  0  0
  -20.0625  -21.6493   19.3090 C   0  0  0  0  0  0  0  0  0  0  0  0
  -21.6977  -25.5087   24.4376 C   0  0  0  0  0  0  0  0  0  0  0  0
  -21.1538  -23.2295   23.5556 C   0  0  0  0  0  0  0  0  0  0  0  0
  -19.4626  -25.0574   23.4103 C   0  0  0  0  0  0  0  0  0  0  0  0
  -21.7149  -24.1857   17.0042 C   0  0  0  0  0  0  0  0  0  0  0  0
  -30.3286  -26.0999   18.4997 C   0  0  0  0  0  0  0  0  0  0  0  0
  -28.0336  -21.6387   18.5184 C   0  0  0  0  0  0  0  0  0  0  0  0
  -29.3558  -27.2399   18.7811 C   0  0  0  0  0  0  0  0  0  1  0  0
  -21.4852  -25.1168   21.8945 C   0  0  1  0  0  0  0  0  0  0  0  0
  -20.5344  -23.0289   18.8768 C   0  0  2  0  0  0  0  0  0  0  0  0
  -20.9714  -24.7431   23.3136 C   0  0  0  0  0  0  0  0  0  0  0  0
  -25.8400  -16.3430   20.6354 N   0  0  0  0  0  0  0  0  0  0  0  0
  -29.2949  -24.4885   16.8782 N   0  0  0  0  0  0  0  0  0  0  0  0
  -28.6880  -23.3067   16.8925 N   0  0  0  0  0  0  0  0  0  0  0  0
  -28.6375  -22.9000   18.1713 N   0  0  0  0  0  0  0  0  0  0  0  0
  -26.5004  -17.4683   20.9575 N   0  0  0  0  0  0  0  0  0  0  0  0
  -22.5462  -27.2786   21.3246 N   0  0  0  0  0  0  0  0  0  0  0  0
  -25.8269  -20.5680   18.8204 N   0  0  0  0  0  0  0  0  0  0  0  0
  -28.4544  -18.2705   22.0293 N   0  0  0  0  0  0  0  0  0  0  0  0
  -28.8060  -13.7870   22.4416 N   0  0  0  0  0  0  0  0  0  0  0  0
  -22.8585  -30.6469   22.6860 N   0  0  0  0  0  0  0  0  0  0  0  0
  -20.7967  -24.4270   20.8089 N   0  0  0  0  0  0  0  0  0  0  0  0
  -21.2196  -22.9001   17.5597 N   0  3  0  0  0  0  0  0  0  0  0  0
  -29.8122  -15.7870   22.9378 O   0  0  0  0  0  0  0  0  0  0  0  0
  -23.2212  -28.4861   23.4744 O   0  0  0  0  0  0  0  0  0  0  0  0
  -25.9948  -22.7793   18.1259 O   0  0  0  0  0  0  0  0  0  0  0  0
  -20.2394  -27.1170   21.6227 O   0  0  0  0  0  0  0  0  0  0  0  0
  -22.6846  -23.4317   19.9022 O   0  0  0  0  0  0  0  0  0  0  0  0
  -25.1718  -10.0109   20.5525 O   0  0  0  0  0  0  0  0  0  0  0  0
  -28.5374  -26.9097   19.9025 O   0  0  0  0  0  0  0  0  0  1  0  0
  -19.9351   -8.6494   21.6144 F   0  0  0  0  0  0  0  0  0  0  0  0
  -24.5550   -8.1844   22.5339 F   0  0  0  0  0  0  0  0  0  0  0  0
  1  2  1  0  0  0  0
  1  5  2  0  0  0  0
  2  6  2  0  0  0  0
  3  8  2  0  0  0  0
  3 16  1  0  0  0  0
  4  9  1  0  0  0  0
  4 16  2  0  0  0  0
  5 18  1  0  0  0  0
  6 20  1  0  0  0  0
  7 10  2  0  0  0  0
  7 19  1  0  0  0  0
  8 22  1  0  0  0  0
  9 22  2  0  0  0  0
 10 23  1  0  0  0  0
 11 12  2  0  0  0  0
 11 24  1  0  0  0  0
 12 25  1  0  0  0  0
 13 21  1  0  0  0  0
 13 23  2  0  0  0  0
 14 25  2  0  0  0  0
 14 26  1  0  0  0  0
 15 28  2  0  0  0  0
 15 61  1  0  0  0  0
 16 27  1  0  0  0  0
 17 27  1  0  0  0  0
 17 29  2  0  0  0  0
 17 30  1  0  0  0  0
 18 20  2  0  0  0  0
 18 35  1  0  0  0  0
 19 21  2  0  0  0  0
 19 36  1  0  0  0  0
 20 44  1  0  0  0  0
 21 37  1  0  0  0  0
 22 75  1  0  0  0  0
 23 76  1  0  0  0  0
 24 26  2  0  0  0  0
 24 75  1  0  0  0  0
 25 77  1  0  0  0  0
 26 78  1  0  0  0  0
 27 58  2  0  0  0  0
 28 52  1  0  0  0  0
 28 59  1  0  0  0  0
 29 62  1  0  0  0  0
 29 65  1  0  0  0  0
 30 66  1  0  0  0  0
 30 70  2  0  0  0  0
 31 45  1  0  0  0  0
 31 67  1  0  0  0  0
 31 71  2  0  0  0  0
 32 53  1  0  0  0  0
 32 64  1  0  0  0  0
 32 72  2  0  0  0  0
 33 55  1  0  0  0  0
 33 63  1  0  0  0  0
 33 73  2  0  0  0  0
 34 56  1  0  0  0  0
 34 68  1  0  0  0  0
 34 74  2  0  0  0  0
 35 38  1  0  0  0  0
 36 45  1  0  0  0  0
 37 63  1  0  0  0  0
 38 40  1  0  0  0  0
 39 41  1  0  0  0  0
 39 42  1  0  0  0  0
 40 44  1  0  0  0  0
 41 46  1  0  0  0  0
 42 64  1  0  0  0  0
 43 46  1  0  0  0  0
 43 64  1  0  0  0  0
 44 67  1  0  0  0  0
 45 63  1  0  0  0  0
 46 62  1  0  0  0  0
 47 56  1  0  0  0  0
 48 57  1  0  0  0  0
 49 57  1  0  0  0  0
 50 57  1  0  0  0  0
 51 69  1  0  0  0  0
 52 54  1  0  0  0  0
 53 61  1  0  0  0  0
 54 76  1  0  0  0  0
 55 57  1  0  0  0  0
 55 68  1  0  0  0  0
 56 69  1  0  0  0  0
 58 62  1  0  0  0  0
 59 60  2  0  0  0  0
 60 61  1  0  0  0  0
M  CHG  1  69   1
M  ISO  4  32 100  53 100  54 101  76 101
M  END
> <Batch ID>
0054

> <Smiles>
CNC(C)C(=O)NC(C(=O)N1Cc2cc([101O:1][101CH2:1]Cc3cn([100CH2:0][100C:0](=O)N4CCCC(n5nc(-c6ccc(Oc7ccc(F)cc7F)cc6)c(C(N)=O)c5N)C4)nn3)ccc2CC1C(=O)NC1CCCc2ccccc21)C(C)(C)C

> <Shape>
0.237

> <Color>
0.085

> <Negative vol penalty>
0.000

$$$$

  -OEChem-04052317413D

 82 90  0     1  0  0  0  0  0999 V2000
  -16.8090  -29.0625   24.1819 C   0  0  0  0  0  0  0  0  0  0  0  0
  -17.4173  -28.1638   23.3115 C   0  0  0  0  0  0  0  0  0  0  0  0
  -26.2474  -12.4209   19.8362 C   0  0  0  0  0  0  0  0  0  0  0  0
  -24.8712  -14.1023   20.8925 C   0  0  0  0  0  0  0  0  0  0  0  0
  -17.3076  -30.3587   24.3045 C   0  0  0  0  0  0  0  0  0  0  0  0
  -18.5241  -28.5613   22.5621 C   0  0  0  0  0  0  0  0  0  0  0  0
  -22.2188  -25.0981   22.5671 C   0  0  0  0  0  0  0  0  0  0  0  0
  -25.6395  -11.4350   20.6135 C   0  0  0  0  0  0  0  0  0  0  0  0
  -24.2632  -13.1165   21.6697 C   0  0  0  0  0  0  0  0  0  0  0  0
  -22.0580  -23.9943   21.7307 C   0  0  0  0  0  0  0  0  0  0  0  0
  -24.1960   -8.4295   22.0620 C   0  0  0  0  0  0  0  0  0  0  0  0
  -23.8036   -7.2520   21.4254 C   0  0  0  0  0  0  0  0  0  0  0  0
  -23.5234  -25.0165   20.1099 C   0  0  0  0  0  0  0  0  0  0  0  0
  -26.1973  -20.7553   17.6814 C   0  0  0  0  0  0  0  0  0  0  0  0
  -22.3448   -8.5212   19.9769 C   0  0  0  0  0  0  0  0  0  0  0  0
  -25.1909  -20.5854   20.2121 C   0  0  0  0  0  0  0  0  0  0  0  0
  -25.8633  -13.7546   19.9758 C   0  0  0  0  0  0  0  0  0  0  0  0
  -26.0803  -15.2325   17.9079 C   0  0  0  0  0  0  0  0  0  0  0  0
  -18.4270  -30.7693   23.5634 C   0  0  0  0  0  0  0  0  0  0  0  0
  -23.0258  -26.1761   22.1757 C   0  0  0  0  0  0  0  0  0  0  0  0
  -19.0374  -29.8647   22.6738 C   0  0  0  0  0  0  0  0  0  0  0  0
  -23.6948  -26.1317   20.9442 C   0  0  0  0  0  0  0  0  0  0  0  0
  -24.8213  -20.6730   17.8642 C   0  0  0  0  0  0  0  0  0  0  0  0
  -24.3005  -20.5861   19.1505 C   0  0  0  0  0  0  0  0  0  0  0  0
  -24.6473  -11.7828   21.5302 C   0  0  0  0  0  0  0  0  0  0  0  0
  -22.7080  -23.9547   20.5006 C   0  0  0  0  0  0  0  0  0  0  0  0
  -23.6626   -9.6528   21.6561 C   0  0  0  0  0  0  0  0  0  0  0  0
  -22.8781   -7.2979   20.3829 C   0  0  0  0  0  0  0  0  0  0  0  0
  -22.7370   -9.6987   20.6136 C   0  0  0  0  0  0  0  0  0  0  0  0
  -26.4914  -14.7735   19.1736 C   0  0  0  0  0  0  0  0  0  0  0  0
  -27.0028  -20.7472   18.8088 C   0  0  0  0  0  0  0  0  0  0  0  0
  -27.0014  -16.1959   17.5762 C   0  0  0  0  0  0  0  0  0  0  0  0
  -24.9655  -14.8245   17.1038 C   0  0  0  0  0  0  0  0  0  0  0  0
  -22.5256  -29.2643   21.6134 C   0  0  0  0  0  0  0  0  0  0  0  0
  -25.7548  -29.3331   21.3132 C   0  0  0  0  0  0  0  0  0  0  0  0
  -28.6392  -27.6356   20.6461 C   0  0  0  0  0  0  0  0  0  0  0  0
  -30.0713  -20.2987   20.5471 C   0  0  0  0  0  0  0  0  0  0  0  0
  -18.9010  -32.1951   23.6943 C   0  0  0  0  0  0  0  0  0  0  0  0
  -23.2103  -27.3475   23.1010 C   0  0  0  0  0  0  0  0  0  0  0  0
  -24.5885  -27.2542   20.4863 C   0  0  0  0  0  0  0  0  0  0  0  0
  -20.3064  -32.4227   23.1436 C   0  0  0  0  0  0  0  0  0  0  0  0
  -31.5933  -17.2918   19.0163 C   0  0  0  0  0  0  0  0  0  0  0  0
  -20.4555  -31.7685   21.7737 C   0  0  0  0  0  0  0  0  0  0  0  0
  -30.3953  -16.3577   18.8544 C   0  0  0  0  0  0  0  0  0  0  0  0
  -31.4074  -18.2555   20.1843 C   0  0  0  0  0  0  0  0  0  0  0  0
  -28.9494  -18.1108   19.9575 C   0  0  0  0  0  0  0  0  0  0  0  0
  -20.2550  -30.2508   21.8624 C   0  0  1  0  0  0  0  0  0  0  0  0
  -23.6463  -28.6177   22.3773 C   0  0  1  0  0  0  0  0  0  0  0  0
  -29.0845  -17.1580   18.7603 C   0  0  2  0  0  0  0  0  0  0  0  0
  -23.9258  -20.6797   16.6699 C   0  0  0  0  0  0  0  0  0  0  0  0
  -31.1179  -27.9685   20.4387 C   0  0  0  0  0  0  0  0  0  0  0  0
  -25.3483  -30.6439   18.5880 C   0  0  0  0  0  0  0  0  0  0  0  0
  -27.7271  -30.0856   18.0424 C   0  0  0  0  0  0  0  0  0  0  0  0
  -27.2115  -31.6143   19.9449 C   0  0  0  0  0  0  0  0  0  0  0  0
  -29.0648  -22.5396   20.3351 C   0  0  0  0  0  0  0  0  0  0  0  0
  -29.1951  -25.7415   22.8511 C   0  0  0  0  0  0  0  0  0  0  0  0
  -22.8158  -20.4941   19.4065 C   0  0  0  0  0  0  0  0  0  0  0  0
  -28.4841  -20.8336   18.6505 C   0  0  0  0  0  0  0  0  0  0  0  0
  -22.3117  -21.6179   20.3054 C   0  0  0  0  0  0  0  0  0  1  0  0
  -26.7268  -29.1436   20.1738 C   0  0  1  0  0  0  0  0  0  0  0  0
  -29.9739  -27.5945   21.3683 C   0  0  2  0  0  0  0  0  0  0  0  0
  -26.7351  -30.3514   19.1948 C   0  0  0  0  0  0  0  0  0  0  0  0
  -26.5335  -20.6639   20.0739 N   0  0  0  0  0  0  0  0  0  0  0  0
  -27.5883  -15.3941   19.6160 N   0  0  0  0  0  0  0  0  0  0  0  0
  -27.8744  -16.2529   18.6226 N   0  0  0  0  0  0  0  0  0  0  0  0
  -24.7319  -28.3805   21.4236 N   0  0  0  0  0  0  0  0  0  0  0  0
  -30.1344  -18.9712   20.0927 N   0  0  0  0  0  0  0  0  0  0  0  0
  -27.1417  -16.9912   16.4945 N   0  0  0  0  0  0  0  0  0  0  0  0
  -24.1187  -13.8217   17.5953 N   0  0  0  0  0  0  0  0  0  0  0  0
  -21.4409  -29.6146   22.3946 N   0  0  0  0  0  0  0  0  0  0  0  0
  -28.0212  -28.8604   20.7844 N   0  0  0  0  0  0  0  0  0  0  0  0
  -29.1588  -21.1511   19.9072 N   0  0  0  0  0  0  0  0  0  0  0  0
  -30.2311  -26.2277   21.9039 N   0  3  0  0  0  0  0  0  0  0  0  0
  -24.7369  -15.3227   15.9755 O   0  0  0  0  0  0  0  0  0  0  0  0
  -22.6373  -29.4343   20.4049 O   0  0  0  0  0  0  0  0  0  0  0  0
  -25.9019  -30.2870   22.0813 O   0  0  0  0  0  0  0  0  0  0  0  0
  -28.1916  -26.6782   20.0186 O   0  0  0  0  0  0  0  0  0  0  0  0
  -30.7963  -20.7017   21.4658 O   0  0  0  0  0  0  0  0  0  0  0  0
  -24.0537  -10.8210   22.2886 O   0  0  0  0  0  0  0  0  0  0  0  0
  -22.5523  -22.8788   19.6821 O   0  0  0  0  0  0  0  0  0  1  0  0
  -22.5026   -6.1672   19.7706 F   0  0  0  0  0  0  0  0  0  0  0  0
  -22.2221  -10.8711   20.2184 F   0  0  0  0  0  0  0  0  0  0  0  0
  1  2  1  0  0  0  0
  1  5  2  0  0  0  0
  2  6  2  0  0  0  0
  3  8  2  0  0  0  0
  3 17  1  0  0  0  0
  4  9  1  0  0  0  0
  4 17  2  0  0  0  0
  5 19  1  0  0  0  0
  6 21  1  0  0  0  0
  7 10  2  0  0  0  0
  7 20  1  0  0  0  0
  8 25  1  0  0  0  0
  9 25  2  0  0  0  0
 10 26  1  0  0  0  0
 11 12  2  0  0  0  0
 11 27  1  0  0  0  0
 12 28  1  0  0  0  0
 13 22  1  0  0  0  0
 13 26  2  0  0  0  0
 14 23  1  0  0  0  0
 14 31  2  0  0  0  0
 15 28  2  0  0  0  0
 15 29  1  0  0  0  0
 16 24  1  0  0  0  0
 16 63  2  0  0  0  0
 17 30  1  0  0  0  0
 18 30  1  0  0  0  0
 18 32  2  0  0  0  0
 18 33  1  0  0  0  0
 19 21  2  0  0  0  0
 19 38  1  0  0  0  0
 20 22  2  0  0  0  0
 20 39  1  0  0  0  0
 21 47  1  0  0  0  0
 22 40  1  0  0  0  0
 23 24  2  0  0  0  0
 23 50  1  0  0  0  0
 24 57  1  0  0  0  0
 25 79  1  0  0  0  0
 26 80  1  0  0  0  0
 27 29  2  0  0  0  0
 27 79  1  0  0  0  0
 28 81  1  0  0  0  0
 29 82  1  0  0  0  0
 30 64  2  0  0  0  0
 31 58  1  0  0  0  0
 31 63  1  0  0  0  0
 32 65  1  0  0  0  0
 32 68  1  0  0  0  0
 33 69  1  0  0  0  0
 33 74  2  0  0  0  0
 34 48  1  0  0  0  0
 34 70  1  0  0  0  0
 34 75  2  0  0  0  0
 35 60  1  0  0  0  0
 35 66  1  0  0  0  0
 35 76  2  0  0  0  0
 36 61  1  0  0  0  0
 36 71  1  0  0  0  0
 36 77  2  0  0  0  0
 37 67  1  0  0  0  0
 37 72  1  0  0  0  0
 37 78  2  0  0  0  0
 38 41  1  0  0  0  0
 39 48  1  0  0  0  0
 40 66  1  0  0  0  0
 41 43  1  0  0  0  0
 42 44  1  0  0  0  0
 42 45  1  0  0  0  0
 43 47  1  0  0  0  0
 44 49  1  0  0  0  0
 45 67  1  0  0  0  0
 46 49  1  0  0  0  0
 46 67  1  0  0  0  0
 47 70  1  0  0  0  0
 48 66  1  0  0  0  0
 49 65  1  0  0  0  0
 51 61  1  0  0  0  0
 52 62  1  0  0  0  0
 53 62  1  0  0  0  0
 54 62  1  0  0  0  0
 55 72  1  0  0  0  0
 56 73  1  0  0  0  0
 57 59  1  0  0  0  0
 58 72  1  0  0  0  0
 59 80  1  0  0  0  0
 60 62  1  0  0  0  0
 60 71  1  0  0  0  0
 61 73  1  0  0  0  0
 64 65  1  0  0  0  0
M  CHG  1  73   1
M  ISO  4  37 100  59 101  72 100  80 101
M  END
> <Batch ID>
0054

> <Smiles>
CNC(C)C(=O)NC(C(=O)N1Cc2cc([101O:1][101CH2:1]Cc3cnc(C[100N:0](C)[100C:0](=O)N4CCCC(n5nc(-c6ccc(Oc7ccc(F)cc7F)cc6)c(C(N)=O)c5N)C4)cc3C)ccc2CC1C(=O)NC1CCCc2ccccc21)C(C)(C)C

> <Shape>
0.249

> <Color>
0.089

> <Negative vol penalty>
0.000

$$$$

  -OEChem-04052317413D

 84 92  0     1  0  0  0  0  0999 V2000
  -27.2146  -28.7784   18.4290 C   0  0  0  0  0  0  0  0  0  0  0  0
  -26.5706  -27.5731   18.6851 C   0  0  0  0  0  0  0  0  0  0  0  0
  -29.6128  -23.5879   19.7400 C   0  0  0  0  0  0  0  0  0  0  0  0
  -28.0390  -22.9890   21.4725 C   0  0  0  0  0  0  0  0  0  0  0  0
  -26.8674  -29.9173   19.1526 C   0  0  0  0  0  0  0  0  0  0  0  0
  -25.5710  -27.5090   19.6566 C   0  0  0  0  0  0  0  0  0  0  0  0
  -23.0780  -23.2836   20.0226 C   0  0  0  0  0  0  0  0  0  0  0  0
  -29.4720  -24.9340   20.0774 C   0  0  0  0  0  0  0  0  0  0  0  0
  -27.8983  -24.3351   21.8100 C   0  0  0  0  0  0  0  0  0  0  0  0
  -23.6380  -22.1214   20.5513 C   0  0  0  0  0  0  0  0  0  0  0  0
  -27.3984  -27.5827   23.3662 C   0  0  0  0  0  0  0  0  0  0  0  0
  -27.4195  -27.9183   24.7199 C   0  0  0  0  0  0  0  0  0  0  0  0
  -22.4200  -22.4754   22.6033 C   0  0  0  0  0  0  0  0  0  0  0  0
  -29.6435  -26.9944   24.9141 C   0  0  0  0  0  0  0  0  0  0  0  0
  -28.8962  -22.6154   20.4375 C   0  0  0  0  0  0  0  0  0  0  0  0
  -29.9700  -20.3084   20.6165 C   0  0  0  0  0  0  0  0  0  0  0  0
  -25.8717  -29.8634   20.1418 C   0  0  0  0  0  0  0  0  0  0  0  0
  -22.1917  -24.0575   20.7855 C   0  0  0  0  0  0  0  0  0  0  0  0
  -25.1897  -28.6529   20.3809 C   0  0  0  0  0  0  0  0  0  0  0  0
  -21.8482  -23.6455   22.0810 C   0  0  0  0  0  0  0  0  0  0  0  0
  -28.6148  -25.3076   21.1124 C   0  0  0  0  0  0  0  0  0  0  0  0
  -23.3113  -21.7187   21.8429 C   0  0  0  0  0  0  0  0  0  0  0  0
  -28.4997  -26.9528   22.7864 C   0  0  0  0  0  0  0  0  0  0  0  0
  -28.5421  -27.6242   25.4938 C   0  0  0  0  0  0  0  0  0  0  0  0
  -29.6223  -26.6587   23.5604 C   0  0  0  0  0  0  0  0  0  0  0  0
  -29.0407  -21.2248   20.0890 C   0  0  0  0  0  0  0  0  0  0  0  0
  -29.6988  -19.1305   19.9642 C   0  0  0  0  0  0  0  0  0  0  0  0
  -25.2243  -18.6345   22.2614 C   0  0  0  0  0  0  0  0  0  0  0  0
  -26.2629  -17.4390   23.6212 C   0  0  0  0  0  0  0  0  0  0  0  0
  -30.9873  -20.5042   21.6077 C   0  0  0  0  0  0  0  0  0  0  0  0
  -22.2043  -27.0323   21.9053 C   0  0  0  0  0  0  0  0  0  0  0  0
  -19.1819  -26.2869   22.8173 C   0  0  0  0  0  0  0  0  0  0  0  0
  -25.9711  -15.4064   18.0867 C   0  0  0  0  0  0  0  0  0  0  0  0
  -16.9134  -23.8699   23.6289 C   0  0  0  0  0  0  0  0  0  0  0  0
  -25.5300  -31.1280   20.8896 C   0  0  0  0  0  0  0  0  0  0  0  0
  -21.5756  -25.2941   20.1909 C   0  0  0  0  0  0  0  0  0  0  0  0
  -20.8861  -24.4302   22.9337 C   0  0  0  0  0  0  0  0  0  0  0  0
  -24.7819  -30.8647   22.1924 C   0  0  0  0  0  0  0  0  0  0  0  0
  -26.7775  -18.1730   15.9570 C   0  0  0  0  0  0  0  0  0  0  0  0
  -23.6183  -29.9173   21.9412 C   0  0  0  0  0  0  0  0  0  0  0  0
  -27.4875  -19.1510   16.8923 C   0  0  0  0  0  0  0  0  0  0  0  0
  -25.6669  -17.4164   16.6790 C   0  0  0  0  0  0  0  0  0  0  0  0
  -26.8305  -17.6768   18.8469 C   0  0  0  0  0  0  0  0  0  0  0  0
  -24.1207  -28.5524   21.4540 C   0  0  1  0  0  0  0  0  0  0  0  0
  -21.0831  -26.2819   21.2441 C   0  0  1  0  0  0  0  0  0  0  0  0
  -27.9800  -18.4398   18.1651 C   0  0  2  0  0  0  0  0  0  0  0  0
  -27.1325  -16.8881   24.6761 C   0  0  0  0  0  0  0  0  0  0  0  0
  -27.9018  -13.0475   18.1869 C   0  0  0  0  0  0  0  0  0  0  0  0
  -14.5342  -23.5697   24.3681 C   0  0  0  0  0  0  0  0  0  0  0  0
  -19.9493  -27.1667   25.6363 C   0  0  0  0  0  0  0  0  0  0  0  0
  -17.9154  -25.9792   26.4855 C   0  0  0  0  0  0  0  0  0  0  0  0
  -17.6711  -27.8907   24.9015 C   0  0  0  0  0  0  0  0  0  0  0  0
  -16.2366  -22.3073   21.2083 C   0  0  0  0  0  0  0  0  0  0  0  0
  -24.1615  -14.4164   20.0486 C   0  0  0  0  0  0  0  0  0  0  0  0
  -24.7566  -19.8566   21.5272 C   0  0  0  0  0  0  0  0  0  1  0  0
  -26.8177  -13.3245   19.2206 C   0  0  0  0  0  0  0  0  0  0  0  0
  -25.2624  -15.2400   22.8955 C   0  0  0  0  0  0  0  0  0  0  0  0
  -25.9631  -14.4964   21.7661 C   0  0  0  0  0  0  0  0  0  0  0  0
  -18.5560  -25.6807   24.0500 C   0  0  1  0  0  0  0  0  0  0  0  0
  -26.5212  -14.8154   19.3603 C   0  0  2  0  0  0  0  0  0  0  0  0
  -15.4813  -23.6411   23.1804 C   0  0  2  0  0  0  0  0  0  0  0  0
  -18.5426  -26.6654   25.2532 C   0  0  0  0  0  0  0  0  0  0  0  0
  -28.2392  -20.6763   19.1720 N   0  0  0  0  0  0  0  0  0  0  0  0
  -26.1429  -18.6982   23.2697 N   0  0  0  0  0  0  0  0  0  0  0  0
  -24.7684  -17.4151   21.9669 N   0  0  0  0  0  0  0  0  0  0  0  0
  -28.6641  -19.4025   19.1183 N   0  0  0  0  0  0  0  0  0  0  0  0
  -25.4483  -16.6691   22.8508 N   0  0  0  0  0  0  0  0  0  0  0  0
  -20.3150  -25.6353   22.3100 N   0  0  0  0  0  0  0  0  0  0  0  0
  -26.1701  -16.7736   17.8942 N   0  0  0  0  0  0  0  0  0  0  0  0
  -30.2469  -17.8990   20.0374 N   0  0  0  0  0  0  0  0  0  0  0  0
  -31.1299  -21.7773   22.1762 N   0  0  0  0  0  0  0  0  0  0  0  0
  -22.9898  -27.7571   21.0294 N   0  0  0  0  0  0  0  0  0  0  0  0
  -17.2347  -25.2106   23.6479 N   0  0  0  0  0  0  0  0  0  0  0  0
  -15.3750  -22.3656   22.4171 N   0  3  0  0  0  0  0  0  0  0  0  0
  -25.4944  -14.9985   20.4512 N   0  3  1  0  0  0  0  0  0  0  0  0
  -31.7582  -19.5819   21.9663 O   0  0  0  0  0  0  0  0  0  0  0  0
  -22.3455  -26.9604   23.1205 O   0  0  0  0  0  0  0  0  0  0  0  0
  -18.6796  -27.2972   22.3185 O   0  0  0  0  0  0  0  0  0  0  0  0
  -25.3850  -14.6726   17.2866 O   0  0  0  0  0  0  0  0  0  0  0  0
  -17.6702  -22.9513   23.9355 O   0  0  0  0  0  0  0  0  0  0  0  0
  -28.4775  -26.6210   21.4422 O   0  0  0  0  0  0  0  0  0  0  0  0
  -23.8570  -20.5851   22.3616 O   0  0  0  0  0  0  0  0  0  1  0  0
  -28.5629  -27.9479   26.7934 F   0  0  0  0  0  0  0  0  0  0  0  0
  -30.6838  -26.0548   23.0088 F   0  0  0  0  0  0  0  0  0  0  0  0
  1  2  1  0  0  0  0
  1  5  2  0  0  0  0
  2  6  2  0  0  0  0
  3  8  2  0  0  0  0
  3 15  1  0  0  0  0
  4  9  1  0  0  0  0
  4 15  2  0  0  0  0
  5 17  1  0  0  0  0
  6 19  1  0  0  0  0
  7 10  2  0  0  0  0
  7 18  1  0  0  0  0
  8 21  1  0  0  0  0
  9 21  2  0  0  0  0
 10 22  1  0  0  0  0
 11 12  2  0  0  0  0
 11 23  1  0  0  0  0
 12 24  1  0  0  0  0
 13 20  1  0  0  0  0
 13 22  2  0  0  0  0
 14 24  2  0  0  0  0
 14 25  1  0  0  0  0
 15 26  1  0  0  0  0
 16 26  1  0  0  0  0
 16 27  2  0  0  0  0
 16 30  1  0  0  0  0
 17 19  2  0  0  0  0
 17 35  1  0  0  0  0
 18 20  2  0  0  0  0
 18 36  1  0  0  0  0
 19 44  1  0  0  0  0
 20 37  1  0  0  0  0
 21 81  1  0  0  0  0
 22 82  1  0  0  0  0
 23 25  2  0  0  0  0
 23 81  1  0  0  0  0
 24 83  1  0  0  0  0
 25 84  1  0  0  0  0
 26 63  2  0  0  0  0
 27 66  1  0  0  0  0
 27 70  1  0  0  0  0
 28 55  1  0  0  0  0
 28 64  1  0  0  0  0
 28 65  2  0  0  0  0
 29 47  1  0  0  0  0
 29 64  2  0  0  0  0
 29 67  1  0  0  0  0
 30 71  1  0  0  0  0
 30 76  2  0  0  0  0
 31 45  1  0  0  0  0
 31 72  1  0  0  0  0
 31 77  2  0  0  0  0
 32 59  1  0  0  0  0
 32 68  1  0  0  0  0
 32 78  2  0  0  0  0
 33 60  1  0  0  0  0
 33 69  1  0  0  0  0
 33 79  2  0  0  0  0
 34 61  1  0  0  0  0
 34 73  1  0  0  0  0
 34 80  2  0  0  0  0
 35 38  1  0  0  0  0
 36 45  1  0  0  0  0
 37 68  1  0  0  0  0
 38 40  1  0  0  0  0
 39 41  1  0  0  0  0
 39 42  1  0  0  0  0
 40 44  1  0  0  0  0
 41 46  1  0  0  0  0
 42 69  1  0  0  0  0
 43 46  1  0  0  0  0
 43 69  1  0  0  0  0
 44 72  1  0  0  0  0
 45 68  1  0  0  0  0
 46 66  1  0  0  0  0
 48 56  1  0  0  0  0
 49 61  1  0  0  0  0
 50 62  1  0  0  0  0
 51 62  1  0  0  0  0
 52 62  1  0  0  0  0
 53 74  1  0  0  0  0
 54 75  1  0  0  0  0
 55 82  1  0  0  0  0
 56 60  1  0  0  0  0
 57 58  1  0  0  0  0
 57 67  1  0  0  0  0
 58 75  1  0  0  0  0
 59 62  1  0  0  0  0
 59 73  1  0  0  0  0
 60 75  1  0  0  0  0
 61 74  1  0  0  0  0
 63 66  1  0  0  0  0
 65 67  1  0  0  0  0
M  CHG  2  74   1  75   1
M  ISO  4  33 100  55 101  60 100  82 101
M  END
> <Batch ID>
0054

> <Smiles>
CC[100CH:0]([100C:0](=O)N1CCCC(n2nc(-c3ccc(Oc4ccc(F)cc4F)cc3)c(C(N)=O)c2N)C1)N(C)CCn1nc([101CH2:1][101O:1]c2ccc3c(c2)CN(C(=O)C(NC(=O)C(C)NC)C(C)(C)C)C(C(=O)NC2CCCc4ccccc42)C3)nc1C

> <Shape>
0.178

> <Color>
0.065

> <Negative vol penalty>
0.000

$$$$

  -OEChem-04052317413D

 82 90  0     1  0  0  0  0  0999 V2000
  -20.6668  -24.9198   16.1549 C   0  0  0  0  0  0  0  0  0  0  0  0
  -20.8280  -25.7799   17.2365 C   0  0  0  0  0  0  0  0  0  0  0  0
  -25.1697  -15.3692   23.3421 C   0  0  0  0  0  0  0  0  0  0  0  0
  -25.5890  -16.5150   21.2569 C   0  0  0  0  0  0  0  0  0  0  0  0
  -21.5630  -23.8695   15.9613 C   0  0  0  0  0  0  0  0  0  0  0  0
  -21.8850  -25.5893   18.1258 C   0  0  0  0  0  0  0  0  0  0  0  0
  -24.3108  -29.9787   19.2834 C   0  0  0  0  0  0  0  0  0  0  0  0
  -25.5836  -14.1685   22.7656 C   0  0  0  0  0  0  0  0  0  0  0  0
  -26.0029  -15.3143   20.6803 C   0  0  0  0  0  0  0  0  0  0  0  0
  -23.7179  -30.8400   20.2057 C   0  0  0  0  0  0  0  0  0  0  0  0
  -27.5121  -12.6178   18.7646 C   0  0  0  0  0  0  0  0  0  0  0  0
  -28.6754  -12.6341   17.9951 C   0  0  0  0  0  0  0  0  0  0  0  0
  -25.1401  -29.9522   21.9399 C   0  0  0  0  0  0  0  0  0  0  0  0
  -29.9344  -13.3882   19.9143 C   0  0  0  0  0  0  0  0  0  0  0  0
  -19.2729  -26.0127   21.8905 C   0  0  0  0  0  0  0  0  0  0  0  0
  -19.4914  -27.2050   24.2691 C   0  0  0  0  0  0  0  0  0  0  0  0
  -25.1724  -16.5425   22.5878 C   0  0  0  0  0  0  0  0  0  0  0  0
  -25.5455  -18.7223   23.8595 C   0  0  0  0  0  0  0  0  0  0  0  0
  -22.6372  -23.6718   16.8432 C   0  0  0  0  0  0  0  0  0  0  0  0
  -25.3175  -29.0887   19.6849 C   0  0  0  0  0  0  0  0  0  0  0  0
  -22.7957  -24.5345   17.9445 C   0  0  0  0  0  0  0  0  0  0  0  0
  -25.7474  -29.0842   21.0198 C   0  0  0  0  0  0  0  0  0  0  0  0
  -26.0002  -14.1409   21.4347 C   0  0  0  0  0  0  0  0  0  0  0  0
  -24.1310  -30.8252   21.5346 C   0  0  0  0  0  0  0  0  0  0  0  0
  -27.5600  -12.9869   20.1090 C   0  0  0  0  0  0  0  0  0  0  0  0
  -29.8865  -13.0192   18.5699 C   0  0  0  0  0  0  0  0  0  0  0  0
  -28.7711  -13.3720   20.6838 C   0  0  0  0  0  0  0  0  0  0  0  0
  -24.7444  -17.7831   23.1826 C   0  0  0  0  0  0  0  0  0  0  0  0
  -19.3073  -25.2764   23.0542 C   0  0  0  0  0  0  0  0  0  0  0  0
  -19.4577  -27.9414   23.1055 C   0  0  0  0  0  0  0  0  0  0  0  0
  -24.6721  -19.7158   24.2288 C   0  0  0  0  0  0  0  0  0  0  0  0
  -26.9533  -18.6986   24.1301 C   0  0  0  0  0  0  0  0  0  0  0  0
  -25.7246  -25.9140   19.7253 C   0  0  0  0  0  0  0  0  0  0  0  0
  -20.5858  -23.1556   22.9063 C   0  0  0  0  0  0  0  0  0  0  0  0
  -28.7551  -26.8380   20.7332 C   0  0  0  0  0  0  0  0  0  0  0  0
  -29.8509  -23.6526   20.1932 C   0  0  0  0  0  0  0  0  0  0  0  0
  -23.5526  -22.4942   16.6198 C   0  0  0  0  0  0  0  0  0  0  0  0
  -25.9655  -28.1889   18.6677 C   0  0  0  0  0  0  0  0  0  0  0  0
  -26.8261  -28.1510   21.4996 C   0  0  0  0  0  0  0  0  0  0  0  0
  -24.8640  -22.5864   17.3956 C   0  0  0  0  0  0  0  0  0  0  0  0
  -19.6249  -19.8746   24.1469 C   0  0  0  0  0  0  0  0  0  0  0  0
  -24.6010  -22.9917   18.8424 C   0  0  0  0  0  0  0  0  0  0  0  0
  -20.9409  -19.1067   24.0313 C   0  0  0  0  0  0  0  0  0  0  0  0
  -19.4594  -20.8791   23.0095 C   0  0  0  0  0  0  0  0  0  0  0  0
  -21.9146  -21.0732   22.7673 C   0  0  0  0  0  0  0  0  0  0  0  0
  -23.9442  -24.3754   18.9170 C   0  0  1  0  0  0  0  0  0  0  0  0
  -26.6790  -26.9868   19.2828 C   0  0  1  0  0  0  0  0  0  0  0  0
  -22.1341  -20.0710   23.9129 C   0  0  2  0  0  0  0  0  0  0  0  0
  -31.9488  -22.2777   20.1156 C   0  0  0  0  0  0  0  0  0  0  0  0
  -29.4318  -28.0305   18.0082 C   0  0  0  0  0  0  0  0  0  0  0  0
  -30.8867  -26.0391   17.5768 C   0  0  0  0  0  0  0  0  0  0  0  0
  -31.4102  -27.5776   19.4694 C   0  0  0  0  0  0  0  0  0  0  0  0
  -28.9287  -21.9097   22.4002 C   0  0  0  0  0  0  0  0  0  0  0  0
  -19.2223  -23.7908   23.0114 C   0  0  0  0  0  0  0  0  0  0  0  0
  -19.5430  -29.4387   23.1486 C   0  0  0  0  0  0  0  0  0  0  0  0
  -22.2491  -31.8182   24.4432 C   0  0  0  0  0  0  0  0  0  0  0  0
  -20.9457  -31.4083   23.7743 C   0  0  0  0  0  0  0  0  0  0  0  0
  -23.4883  -31.2184   23.7903 C   0  0  0  0  0  0  0  0  0  1  0  0
  -29.4167  -26.0324   19.6433 C   0  0  1  0  0  0  0  0  0  0  0  0
  -30.7977  -22.7656   20.9814 C   0  0  2  0  0  0  0  0  0  0  0  0
  -30.2588  -26.9166   18.6807 C   0  0  0  0  0  0  0  0  0  0  0  0
  -19.4168  -25.8593   24.2644 N   0  0  0  0  0  0  0  0  0  0  0  0
  -19.3478  -27.3584   21.8952 N   0  0  0  0  0  0  0  0  0  0  0  0
  -23.4607  -18.1474   23.1241 N   0  0  0  0  0  0  0  0  0  0  0  0
  -23.4485  -19.3264   23.7689 N   0  0  0  0  0  0  0  0  0  0  0  0
  -27.4836  -27.3554   20.4546 N   0  0  0  0  0  0  0  0  0  0  0  0
  -20.6286  -21.7612   22.9126 N   0  0  0  0  0  0  0  0  0  0  0  0
  -24.8390  -20.8758   24.8989 N   0  0  0  0  0  0  0  0  0  0  0  0
  -27.7020  -17.6029   23.6794 N   0  0  0  0  0  0  0  0  0  0  0  0
  -24.9301  -25.4146   18.7110 N   0  0  0  0  0  0  0  0  0  0  0  0
  -30.1798  -24.9861   20.3150 N   0  0  0  0  0  0  0  0  0  0  0  0
  -30.0725  -21.5770   21.5126 N   0  3  0  0  0  0  0  0  0  0  0  0
  -20.8009  -29.9337   23.7731 N   0  3  0  0  0  0  0  0  0  0  0  0
  -27.5273  -19.6140   24.7674 O   0  0  0  0  0  0  0  0  0  0  0  0
  -25.7111  -25.5642   20.8997 O   0  0  0  0  0  0  0  0  0  0  0  0
  -21.5821  -23.8787   22.8240 O   0  0  0  0  0  0  0  0  0  0  0  0
  -29.3503  -27.0118   21.8003 O   0  0  0  0  0  0  0  0  0  0  0  0
  -28.9156  -23.2067   19.5322 O   0  0  0  0  0  0  0  0  0  0  0  0
  -26.4044  -12.9695   20.8718 O   0  0  0  0  0  0  0  0  0  0  0  0
  -23.5543  -31.6652   22.4367 O   0  0  0  0  0  0  0  0  0  1  0  0
  -31.0038  -13.0333   17.8312 F   0  0  0  0  0  0  0  0  0  0  0  0
  -28.8235  -13.7265   21.9751 F   0  0  0  0  0  0  0  0  0  0  0  0
  1  2  1  0  0  0  0
  1  5  2  0  0  0  0
  2  6  2  0  0  0  0
  3  8  2  0  0  0  0
  3 17  1  0  0  0  0
  4  9  1  0  0  0  0
  4 17  2  0  0  0  0
  5 19  1  0  0  0  0
  6 21  1  0  0  0  0
  7 10  2  0  0  0  0
  7 20  1  0  0  0  0
  8 23  1  0  0  0  0
  9 23  2  0  0  0  0
 10 24  1  0  0  0  0
 11 12  2  0  0  0  0
 11 25  1  0  0  0  0
 12 26  1  0  0  0  0
 13 22  1  0  0  0  0
 13 24  2  0  0  0  0
 14 26  2  0  0  0  0
 14 27  1  0  0  0  0
 15 29  2  0  0  0  0
 15 63  1  0  0  0  0
 16 30  1  0  0  0  0
 16 62  2  0  0  0  0
 17 28  1  0  0  0  0
 18 28  1  0  0  0  0
 18 31  2  0  0  0  0
 18 32  1  0  0  0  0
 19 21  2  0  0  0  0
 19 37  1  0  0  0  0
 20 22  2  0  0  0  0
 20 38  1  0  0  0  0
 21 46  1  0  0  0  0
 22 39  1  0  0  0  0
 23 79  1  0  0  0  0
 24 80  1  0  0  0  0
 25 27  2  0  0  0  0
 25 79  1  0  0  0  0
 26 81  1  0  0  0  0
 27 82  1  0  0  0  0
 28 64  2  0  0  0  0
 29 54  1  0  0  0  0
 29 62  1  0  0  0  0
 30 55  1  0  0  0  0
 30 63  2  0  0  0  0
 31 65  1  0  0  0  0
 31 68  1  0  0  0  0
 32 69  1  0  0  0  0
 32 74  2  0  0  0  0
 33 47  1  0  0  0  0
 33 70  1  0  0  0  0
 33 75  2  0  0  0  0
 34 54  1  0  0  0  0
 34 67  1  0  0  0  0
 34 76  2  0  0  0  0
 35 59  1  0  0  0  0
 35 66  1  0  0  0  0
 35 77  2  0  0  0  0
 36 60  1  0  0  0  0
 36 71  1  0  0  0  0
 36 78  2  0  0  0  0
 37 40  1  0  0  0  0
 38 47  1  0  0  0  0
 39 66  1  0  0  0  0
 40 42  1  0  0  0  0
 41 43  1  0  0  0  0
 41 44  1  0  0  0  0
 42 46  1  0  0  0  0
 43 48  1  0  0  0  0
 44 67  1  0  0  0  0
 45 48  1  0  0  0  0
 45 67  1  0  0  0  0
 46 70  1  0  0  0  0
 47 66  1  0  0  0  0
 48 65  1  0  0  0  0
 49 60  1  0  0  0  0
 50 61  1  0  0  0  0
 51 61  1  0  0  0  0
 52 61  1  0  0  0  0
 53 72  1  0  0  0  0
 55 73  1  0  0  0  0
 56 57  1  0  0  0  0
 56 58  1  0  0  0  0
 57 73  1  0  0  0  0
 58 80  1  0  0  0  0
 59 61  1  0  0  0  0
 59 71  1  0  0  0  0
 60 72  1  0  0  0  0
 64 65  1  0  0  0  0
M  CHG  2  72   1  73   1
M  ISO  4  34 100  54 100  58 101  80 101
M  END
> <Batch ID>
0054

> <Smiles>
CNC(C)C(=O)NC(C(=O)N1Cc2cc([101O:1][101CH2:1]CCNCc3cnc([100CH2:0][100C:0](=O)N4CCCC(n5nc(-c6ccc(Oc7ccc(F)cc7F)cc6)c(C(N)=O)c5N)C4)cn3)ccc2CC1C(=O)NC1CCCc2ccccc21)C(C)(C)C

> <Shape>
0.230

> <Color>
0.071

> <Negative vol penalty>
0.000

$$$$

  -OEChem-04052317413D

 84 92  0     1  0  0  0  0  0999 V2000
  -27.8366  -32.2641   27.5975 C   0  0  0  0  0  0  0  0  0  0  0  0
  -27.9300  -31.2014   26.7046 C   0  0  0  0  0  0  0  0  0  0  0  0
  -24.0815  -12.8997   21.0115 C   0  0  0  0  0  0  0  0  0  0  0  0
  -26.4502  -12.6944   20.5821 C   0  0  0  0  0  0  0  0  0  0  0  0
  -26.5987  -32.8535   27.8509 C   0  0  0  0  0  0  0  0  0  0  0  0
  -26.7853  -30.7267   26.0652 C   0  0  0  0  0  0  0  0  0  0  0  0
  -27.5201  -29.9048   21.1226 C   0  0  0  0  0  0  0  0  0  0  0  0
  -23.8913  -11.5831   20.5921 C   0  0  0  0  0  0  0  0  0  0  0  0
  -26.2600  -11.3777   20.1627 C   0  0  0  0  0  0  0  0  0  0  0  0
  -28.1949  -28.7386   20.7645 C   0  0  0  0  0  0  0  0  0  0  0  0
  -24.3098   -8.4784   21.8645 C   0  0  0  0  0  0  0  0  0  0  0  0
  -23.4912   -7.6616   22.6443 C   0  0  0  0  0  0  0  0  0  0  0  0
  -26.0873  -27.6845   20.2489 C   0  0  0  0  0  0  0  0  0  0  0  0
  -22.0151   -7.3409   20.7586 C   0  0  0  0  0  0  0  0  0  0  0  0
  -25.3610  -13.4554   21.0065 C   0  0  0  0  0  0  0  0  0  0  0  0
  -25.8337  -15.2606   22.7459 C   0  0  0  0  0  0  0  0  0  0  0  0
  -25.4397  -32.3921   27.2070 C   0  0  0  0  0  0  0  0  0  0  0  0
  -26.1207  -29.9662   21.0568 C   0  0  0  0  0  0  0  0  0  0  0  0
  -25.5305  -31.3096   26.3112 C   0  0  0  0  0  0  0  0  0  0  0  0
  -25.3972  -28.8535   20.6043 C   0  0  0  0  0  0  0  0  0  0  0  0
  -28.2350  -24.2249   19.2355 C   0  0  0  0  0  0  0  0  0  0  0  0
  -24.9805  -10.8221   20.1678 C   0  0  0  0  0  0  0  0  0  0  0  0
  -27.4784  -27.6272   20.3303 C   0  0  0  0  0  0  0  0  0  0  0  0
  -23.9811   -8.7266   20.5318 C   0  0  0  0  0  0  0  0  0  0  0  0
  -22.3438   -7.0928   22.0914 C   0  0  0  0  0  0  0  0  0  0  0  0
  -22.8338   -8.1578   19.9789 C   0  0  0  0  0  0  0  0  0  0  0  0
  -25.5580  -14.8156   21.4391 C   0  0  0  0  0  0  0  0  0  0  0  0
  -29.0676  -24.0503   18.1138 C   0  0  0  0  0  0  0  0  0  0  0  0
  -28.4274  -23.0906   19.9858 C   0  0  0  0  0  0  0  0  0  0  0  0
  -25.9319  -16.6256   22.6302 C   0  0  0  0  0  0  0  0  0  0  0  0
  -25.9874  -14.5073   23.9561 C   0  0  0  0  0  0  0  0  0  0  0  0
  -23.7934  -30.4201   23.1737 C   0  0  0  0  0  0  0  0  0  0  0  0
  -21.9198  -30.4441   20.5258 C   0  0  0  0  0  0  0  0  0  0  0  0
  -21.4894  -29.5066   17.2727 C   0  0  0  0  0  0  0  0  0  0  0  0
  -27.1647  -19.9441   17.6296 C   0  0  0  0  0  0  0  0  0  0  0  0
  -24.1166  -33.0302   27.5487 C   0  0  0  0  0  0  0  0  0  0  0  0
  -25.4094  -31.2404   21.4212 C   0  0  0  0  0  0  0  0  0  0  0  0
  -23.8951  -28.8748   20.4964 C   0  0  0  0  0  0  0  0  0  0  0  0
  -23.0100  -32.7119   26.5465 C   0  0  0  0  0  0  0  0  0  0  0  0
  -24.3525  -20.2968   20.0105 C   0  0  0  0  0  0  0  0  0  0  0  0
  -22.9947  -31.2211   26.2237 C   0  0  0  0  0  0  0  0  0  0  0  0
  -24.3299  -18.9354   20.7034 C   0  0  0  0  0  0  0  0  0  0  0  0
  -24.9067  -20.2023   18.5922 C   0  0  0  0  0  0  0  0  0  0  0  0
  -26.2262  -18.2025   19.2041 C   0  0  0  0  0  0  0  0  0  0  0  0
  -24.3153  -30.7826   25.5793 C   0  0  1  0  0  0  0  0  0  0  0  0
  -23.9494  -31.0210   21.8054 C   0  0  1  0  0  0  0  0  0  0  0  0
  -25.7164  -18.2704   20.6515 C   0  0  2  0  0  0  0  0  0  0  0  0
  -29.2560  -24.9682   16.9766 C   0  0  0  0  0  0  0  0  0  0  0  0
  -27.8461  -22.6639   21.2727 C   0  0  0  0  0  0  0  0  0  0  0  0
  -19.8401  -29.6398   15.3860 C   0  0  0  0  0  0  0  0  0  0  0  0
  -29.2629  -17.8813   16.6797 C   0  0  0  0  0  0  0  0  0  0  0  0
  -29.6990  -20.2286   15.8903 C   0  0  0  0  0  0  0  0  0  0  0  0
  -20.2252  -28.2846   21.8579 C   0  0  0  0  0  0  0  0  0  0  0  0
  -19.2146  -27.7953   19.6201 C   0  0  0  0  0  0  0  0  0  0  0  0
  -18.9162  -30.0447   20.6565 C   0  0  0  0  0  0  0  0  0  0  0  0
  -23.3902  -30.9970   15.5625 C   0  0  0  0  0  0  0  0  0  0  0  0
  -27.3376  -25.3869   19.5449 C   0  0  0  0  0  0  0  0  0  1  0  0
  -29.8527  -21.0442   19.6762 C   0  0  0  0  0  0  0  0  0  0  0  0
  -28.8803  -19.9003   19.3999 C   0  0  0  0  0  0  0  0  0  0  0  0
  -21.1781  -29.3964   19.7314 C   0  0  1  0  0  0  0  0  0  0  0  0
  -21.0451  -30.2882   16.0495 C   0  0  2  0  0  0  0  0  0  0  0  0
  -29.5580  -19.3153   17.1012 C   0  0  0  0  0  0  0  0  0  0  0  0
  -19.9117  -28.8789   20.4702 C   0  0  0  0  0  0  0  0  0  0  0  0
  -25.4856  -15.8168   20.5580 N   0  0  0  0  0  0  0  0  0  0  0  0
  -29.7390  -22.8960   18.1447 N   0  0  0  0  0  0  0  0  0  0  0  0
  -29.3286  -22.3352   19.2950 N   0  0  0  0  0  0  0  0  0  0  0  0
  -25.7171  -16.9045   21.3126 N   0  0  0  0  0  0  0  0  0  0  0  0
  -23.2449  -30.1417   20.8701 N   0  0  0  0  0  0  0  0  0  0  0  0
  -26.2050  -19.5277   18.5669 N   0  0  0  0  0  0  0  0  0  0  0  0
  -26.1802  -17.6026   23.5281 N   0  0  0  0  0  0  0  0  0  0  0  0
  -25.8550  -13.1133   23.8968 N   0  0  0  0  0  0  0  0  0  0  0  0
  -24.3530  -31.1750   24.1868 N   0  0  0  0  0  0  0  0  0  0  0  0
  -20.9079  -29.9892   18.4260 N   0  0  0  0  0  0  0  0  0  0  0  0
  -28.5133  -19.8129   17.9937 N   0  0  0  0  0  0  0  0  0  0  0  0
  -22.1494  -30.3597   15.0513 N   0  3  0  0  0  0  0  0  0  0  0  0
  -26.2185  -15.0556   25.0604 O   0  0  0  0  0  0  0  0  0  0  0  0
  -23.2072  -29.3515   23.3011 O   0  0  0  0  0  0  0  0  0  0  0  0
  -21.3470  -31.4953   20.8234 O   0  0  0  0  0  0  0  0  0  0  0  0
  -22.2709  -28.5601   17.2107 O   0  0  0  0  0  0  0  0  0  0  0  0
  -26.8346  -20.4156   16.5338 O   0  0  0  0  0  0  0  0  0  0  0  0
  -24.7953   -9.5372   19.7587 O   0  0  0  0  0  0  0  0  0  0  0  0
  -28.1345  -26.4874   19.9808 O   0  0  0  0  0  0  0  0  0  1  0  0
  -21.5586   -6.3071   22.8399 F   0  0  0  0  0  0  0  0  0  0  0  0
  -22.5134   -8.3916   18.6988 F   0  0  0  0  0  0  0  0  0  0  0  0
  1  2  1  0  0  0  0
  1  5  2  0  0  0  0
  2  6  2  0  0  0  0
  3  8  2  0  0  0  0
  3 15  1  0  0  0  0
  4  9  1  0  0  0  0
  4 15  2  0  0  0  0
  5 17  1  0  0  0  0
  6 19  1  0  0  0  0
  7 10  2  0  0  0  0
  7 18  1  0  0  0  0
  8 22  1  0  0  0  0
  9 22  2  0  0  0  0
 10 23  1  0  0  0  0
 11 12  2  0  0  0  0
 11 24  1  0  0  0  0
 12 25  1  0  0  0  0
 13 20  1  0  0  0  0
 13 23  2  0  0  0  0
 14 25  2  0  0  0  0
 14 26  1  0  0  0  0
 15 27  1  0  0  0  0
 16 27  1  0  0  0  0
 16 30  2  0  0  0  0
 16 31  1  0  0  0  0
 17 19  2  0  0  0  0
 17 36  1  0  0  0  0
 18 20  2  0  0  0  0
 18 37  1  0  0  0  0
 19 45  1  0  0  0  0
 20 38  1  0  0  0  0
 21 28  1  0  0  0  0
 21 29  2  0  0  0  0
 21 57  1  0  0  0  0
 22 81  1  0  0  0  0
 23 82  1  0  0  0  0
 24 26  2  0  0  0  0
 24 81  1  0  0  0  0
 25 83  1  0  0  0  0
 26 84  1  0  0  0  0
 27 64  2  0  0  0  0
 28 48  1  0  0  0  0
 28 65  2  0  0  0  0
 29 49  1  0  0  0  0
 29 66  1  0  0  0  0
 30 67  1  0  0  0  0
 30 70  1  0  0  0  0
 31 71  1  0  0  0  0
 31 76  2  0  0  0  0
 32 46  1  0  0  0  0
 32 72  1  0  0  0  0
 32 77  2  0  0  0  0
 33 60  1  0  0  0  0
 33 68  1  0  0  0  0
 33 78  2  0  0  0  0
 34 61  1  0  0  0  0
 34 73  1  0  0  0  0
 34 79  2  0  0  0  0
 35 69  1  0  0  0  0
 35 74  1  0  0  0  0
 35 80  2  0  0  0  0
 36 39  1  0  0  0  0
 37 46  1  0  0  0  0
 38 68  1  0  0  0  0
 39 41  1  0  0  0  0
 40 42  1  0  0  0  0
 40 43  1  0  0  0  0
 41 45  1  0  0  0  0
 42 47  1  0  0  0  0
 43 69  1  0  0  0  0
 44 47  1  0  0  0  0
 44 69  1  0  0  0  0
 45 72  1  0  0  0  0
 46 68  1  0  0  0  0
 47 67  1  0  0  0  0
 50 61  1  0  0  0  0
 51 62  1  0  0  0  0
 52 62  1  0  0  0  0
 53 63  1  0  0  0  0
 54 63  1  0  0  0  0
 55 63  1  0  0  0  0
 56 75  1  0  0  0  0
 57 82  1  0  0  0  0
 58 59  1  0  0  0  0
 58 66  1  0  0  0  0
 59 74  1  0  0  0  0
 60 63  1  0  0  0  0
 60 73  1  0  0  0  0
 61 75  1  0  0  0  0
 62 74  1  0  0  0  0
 64 67  1  0  0  0  0
 65 66  1  0  0  0  0
M  CHG  1  75   1
M  ISO  4  35 100  57 101  74 100  82 101
M  END
> <Batch ID>
0054

> <Smiles>
CNC(C)C(=O)NC(C(=O)N1Cc2cc([101O:1][101CH2:1]c3c(C)nn(CC[100N:0](C(C)C)[100C:0](=O)N4CCCC(n5nc(-c6ccc(Oc7ccc(F)cc7F)cc6)c(C(N)=O)c5N)C4)c3C)ccc2CC1C(=O)NC1CCCc2ccccc21)C(C)(C)C

> <Shape>
0.263

> <Color>
0.096

> <Negative vol penalty>
0.000

$$$$

  -OEChem-04052317413D

 82 90  0     1  0  0  0  0  0999 V2000
  -17.5036  -26.3671   19.7179 C   0  0  0  0  0  0  0  0  0  0  0  0
  -18.8301  -26.4855   19.3156 C   0  0  0  0  0  0  0  0  0  0  0  0
  -24.9418  -14.0072   21.8899 C   0  0  0  0  0  0  0  0  0  0  0  0
  -26.2813  -14.0787   19.8805 C   0  0  0  0  0  0  0  0  0  0  0  0
  -17.1220  -26.7896   20.9907 C   0  0  0  0  0  0  0  0  0  0  0  0
  -19.7756  -27.0273   20.1856 C   0  0  0  0  0  0  0  0  0  0  0  0
  -24.0800  -24.3612   20.2817 C   0  0  0  0  0  0  0  0  0  0  0  0
  -24.2013  -12.9513   21.3587 C   0  0  0  0  0  0  0  0  0  0  0  0
  -25.5409  -13.0227   19.3493 C   0  0  0  0  0  0  0  0  0  0  0  0
  -24.9646  -24.5417   19.2193 C   0  0  0  0  0  0  0  0  0  0  0  0
  -24.5645   -9.6153   20.9434 C   0  0  0  0  0  0  0  0  0  0  0  0
  -24.2977   -8.5278   21.7751 C   0  0  0  0  0  0  0  0  0  0  0  0
  -26.2884  -26.0283   20.5820 C   0  0  0  0  0  0  0  0  0  0  0  0
  -21.9264   -8.9083   21.5121 C   0  0  0  0  0  0  0  0  0  0  0  0
  -30.2181  -25.4491   18.5064 C   0  0  0  0  0  0  0  0  0  0  0  0
  -30.1849  -23.2642   18.2607 C   0  0  0  0  0  0  0  0  0  0  0  0
  -25.9818  -14.5710   21.1507 C   0  0  0  0  0  0  0  0  0  0  0  0
  -27.9173  -15.5741   22.4756 C   0  0  0  0  0  0  0  0  0  0  0  0
  -18.0652  -27.3280   21.8801 C   0  0  0  0  0  0  0  0  0  0  0  0
  -24.2873  -25.0226   21.5008 C   0  0  0  0  0  0  0  0  0  0  0  0
  -19.4061  -27.4586   21.4709 C   0  0  0  0  0  0  0  0  0  0  0  0
  -25.4064  -25.8525   21.6591 C   0  0  0  0  0  0  0  0  0  0  0  0
  -29.5782  -24.4093   17.8055 C   0  0  0  0  0  0  0  0  0  0  0  0
  -24.5009  -12.4590   20.0885 C   0  0  0  0  0  0  0  0  0  0  0  0
  -26.0674  -25.3776   19.3684 C   0  0  0  0  0  0  0  0  0  0  0  0
  -23.5122  -10.3494   20.3961 C   0  0  0  0  0  0  0  0  0  0  0  0
  -22.9787   -8.1743   22.0594 C   0  0  0  0  0  0  0  0  0  0  0  0
  -22.1932   -9.9959   20.6804 C   0  0  0  0  0  0  0  0  0  0  0  0
  -26.7467  -15.6623   21.6986 C   0  0  0  0  0  0  0  0  0  0  0  0
  -28.2508  -16.8793   22.7434 C   0  0  0  0  0  0  0  0  0  0  0  0
  -28.6388  -14.4159   22.9159 C   0  0  0  0  0  0  0  0  0  0  0  0
  -22.6589  -27.1605   23.1982 C   0  0  0  0  0  0  0  0  0  0  0  0
  -24.9994  -26.6328   25.3812 C   0  0  0  0  0  0  0  0  0  0  0  0
  -28.1933  -25.6110   26.0149 C   0  0  0  0  0  0  0  0  0  0  0  0
  -28.9283  -22.1666   21.0908 C   0  0  0  0  0  0  0  0  0  0  0  0
  -17.5964  -27.8145   23.2285 C   0  0  0  0  0  0  0  0  0  0  0  0
  -23.3386  -24.7964   22.6458 C   0  0  0  0  0  0  0  0  0  0  0  0
  -25.6850  -26.5695   22.9540 C   0  0  0  0  0  0  0  0  0  0  0  0
  -18.7313  -28.0317   24.2261 C   0  0  0  0  0  0  0  0  0  0  0  0
  -25.6458  -21.1560   22.0292 C   0  0  0  0  0  0  0  0  0  0  0  0
  -19.8753  -28.8015   23.5738 C   0  0  0  0  0  0  0  0  0  0  0  0
  -25.7348  -19.6299   22.0847 C   0  0  0  0  0  0  0  0  0  0  0  0
  -26.4974  -21.7302   20.8991 C   0  0  0  0  0  0  0  0  0  0  0  0
  -27.9977  -19.7761   20.9638 C   0  0  0  0  0  0  0  0  0  0  0  0
  -20.4657  -28.0183   22.3950 C   0  0  1  0  0  0  0  0  0  0  0  0
  -23.3646  -25.9225   23.6747 C   0  0  1  0  0  0  0  0  0  0  0  0
  -27.1997  -19.1546   22.1228 C   0  0  2  0  0  0  0  0  0  0  0  0
  -29.8351  -25.3271   27.8915 C   0  0  0  0  0  0  0  0  0  0  0  0
  -25.4596  -29.6487   25.4317 C   0  0  0  0  0  0  0  0  0  0  0  0
  -27.6621  -29.2238   26.5438 C   0  0  0  0  0  0  0  0  0  0  0  0
  -25.5446  -28.5428   27.6731 C   0  0  0  0  0  0  0  0  0  0  0  0
  -32.3967  -21.5168   19.1868 C   0  0  0  0  0  0  0  0  0  0  0  0
  -33.3249  -23.5909   20.1831 C   0  0  0  0  0  0  0  0  0  0  0  0
  -28.4021  -22.6964   25.5458 C   0  0  0  0  0  0  0  0  0  0  0  0
  -28.4720  -24.5239   16.7850 C   0  0  0  0  0  0  0  0  0  0  0  0
  -31.3862  -22.4423   21.2950 C   0  0  0  0  0  0  0  0  0  0  0  0
  -27.0876  -24.4686   17.4219 C   0  0  0  0  0  0  0  0  0  1  0  0
  -26.3532  -27.2376   25.6645 C   0  0  1  0  0  0  0  0  0  0  0  0
  -28.7588  -24.6571   27.0515 C   0  0  2  0  0  0  0  0  0  0  0  0
  -26.2489  -28.6514   26.3031 C   0  0  0  0  0  0  0  0  0  0  0  0
  -32.0071  -22.8221   19.9230 C   0  0  0  0  0  0  0  0  0  0  0  0
  -31.1591  -25.0040   19.3433 N   0  0  0  0  0  0  0  0  0  0  0  0
  -26.3623  -16.9238   21.4867 N   0  0  0  0  0  0  0  0  0  0  0  0
  -31.1149  -23.6718   19.1714 N   0  0  0  0  0  0  0  0  0  0  0  0
  -27.2967  -17.6403   22.1345 N   0  0  0  0  0  0  0  0  0  0  0  0
  -24.7248  -26.3211   24.0421 N   0  0  0  0  0  0  0  0  0  0  0  0
  -27.8753  -21.2420   20.9937 N   0  0  0  0  0  0  0  0  0  0  0  0
  -29.2642  -17.4388   23.4379 N   0  0  0  0  0  0  0  0  0  0  0  0
  -28.1581  -13.1508   22.5513 N   0  0  0  0  0  0  0  0  0  0  0  0
  -21.3307  -26.9611   22.8731 N   0  0  0  0  0  0  0  0  0  0  0  0
  -27.0722  -26.2650   26.4803 N   0  0  0  0  0  0  0  0  0  0  0  0
  -30.2024  -21.6197   21.1829 N   0  0  0  0  0  0  0  0  0  0  0  0
  -29.3560  -23.4644   26.3868 N   0  3  0  0  0  0  0  0  0  0  0  0
  -29.6696  -14.4999   23.6257 O   0  0  0  0  0  0  0  0  0  0  0  0
  -23.2735  -28.2186   23.1318 O   0  0  0  0  0  0  0  0  0  0  0  0
  -24.2171  -26.4372   26.3147 O   0  0  0  0  0  0  0  0  0  0  0  0
  -28.6981  -25.7638   24.9047 O   0  0  0  0  0  0  0  0  0  0  0  0
  -28.7461  -23.3887   21.1003 O   0  0  0  0  0  0  0  0  0  0  0  0
  -23.7787  -11.4284   19.5699 O   0  0  0  0  0  0  0  0  0  0  0  0
  -26.9321  -25.5560   18.3328 O   0  0  0  0  0  0  0  0  0  1  0  0
  -22.7227   -7.1290   22.8569 F   0  0  0  0  0  0  0  0  0  0  0  0
  -21.1781  -10.6966   20.1566 F   0  0  0  0  0  0  0  0  0  0  0  0
  1  2  1  0  0  0  0
  1  5  2  0  0  0  0
  2  6  2  0  0  0  0
  3  8  2  0  0  0  0
  3 17  1  0  0  0  0
  4  9  1  0  0  0  0
  4 17  2  0  0  0  0
  5 19  1  0  0  0  0
  6 21  1  0  0  0  0
  7 10  2  0  0  0  0
  7 20  1  0  0  0  0
  8 24  1  0  0  0  0
  9 24  2  0  0  0  0
 10 25  1  0  0  0  0
 11 12  2  0  0  0  0
 11 26  1  0  0  0  0
 12 27  1  0  0  0  0
 13 22  1  0  0  0  0
 13 25  2  0  0  0  0
 14 27  2  0  0  0  0
 14 28  1  0  0  0  0
 15 23  1  0  0  0  0
 15 62  2  0  0  0  0
 16 23  2  0  0  0  0
 16 64  1  0  0  0  0
 17 29  1  0  0  0  0
 18 29  1  0  0  0  0
 18 30  2  0  0  0  0
 18 31  1  0  0  0  0
 19 21  2  0  0  0  0
 19 36  1  0  0  0  0
 20 22  2  0  0  0  0
 20 37  1  0  0  0  0
 21 45  1  0  0  0  0
 22 38  1  0  0  0  0
 23 55  1  0  0  0  0
 24 79  1  0  0  0  0
 25 80  1  0  0  0  0
 26 28  2  0  0  0  0
 26 79  1  0  0  0  0
 27 81  1  0  0  0  0
 28 82  1  0  0  0  0
 29 63  2  0  0  0  0
 30 65  1  0  0  0  0
 30 68  1  0  0  0  0
 31 69  1  0  0  0  0
 31 74  2  0  0  0  0
 32 46  1  0  0  0  0
 32 70  1  0  0  0  0
 32 75  2  0  0  0  0
 33 58  1  0  0  0  0
 33 66  1  0  0  0  0
 33 76  2  0  0  0  0
 34 59  1  0  0  0  0
 34 71  1  0  0  0  0
 34 77  2  0  0  0  0
 35 67  1  0  0  0  0
 35 72  1  0  0  0  0
 35 78  2  0  0  0  0
 36 39  1  0  0  0  0
 37 46  1  0  0  0  0
 38 66  1  0  0  0  0
 39 41  1  0  0  0  0
 40 42  1  0  0  0  0
 40 43  1  0  0  0  0
 41 45  1  0  0  0  0
 42 47  1  0  0  0  0
 43 67  1  0  0  0  0
 44 47  1  0  0  0  0
 44 67  1  0  0  0  0
 45 70  1  0  0  0  0
 46 66  1  0  0  0  0
 47 65  1  0  0  0  0
 48 59  1  0  0  0  0
 49 60  1  0  0  0  0
 50 60  1  0  0  0  0
 51 60  1  0  0  0  0
 52 61  1  0  0  0  0
 53 61  1  0  0  0  0
 54 73  1  0  0  0  0
 55 57  1  0  0  0  0
 56 61  1  0  0  0  0
 56 72  1  0  0  0  0
 57 80  1  0  0  0  0
 58 60  1  0  0  0  0
 58 71  1  0  0  0  0
 59 73  1  0  0  0  0
 61 64  1  0  0  0  0
 62 64  1  0  0  0  0
 63 65  1  0  0  0  0
M  CHG  1  73   1
M  ISO  4  35 100  57 101  72 100  80 101
M  END
> <Batch ID>
0054

> <Smiles>
CNC(C)C(=O)NC(C(=O)N1Cc2cc([101O:1][101CH2:1]Cc3cnn(C(C)(C)C[100NH:0][100C:0](=O)N4CCCC(n5nc(-c6ccc(Oc7ccc(F)cc7F)cc6)c(C(N)=O)c5N)C4)c3)ccc2CC1C(=O)NC1CCCc2ccccc21)C(C)(C)C

> <Shape>
0.212

> <Color>
0.071

> <Negative vol penalty>
0.000

$$$$

  -OEChem-04052317413D

 89 97  0     1  0  0  0  0  0999 V2000
  -28.4958  -24.8260   16.9066 C   0  0  0  0  0  0  0  0  0  0  0  0
  -27.3761  -24.8989   17.7290 C   0  0  0  0  0  0  0  0  0  0  0  0
  -30.4299  -19.1248   20.3360 C   0  0  0  0  0  0  0  0  0  0  0  0
  -28.6496  -20.0322   18.9780 C   0  0  0  0  0  0  0  0  0  0  0  0
  -29.6515  -25.5311   17.2402 C   0  0  0  0  0  0  0  0  0  0  0  0
  -27.4118  -25.6761   18.8862 C   0  0  0  0  0  0  0  0  0  0  0  0
  -23.2393  -28.4861   19.4686 C   0  0  0  0  0  0  0  0  0  0  0  0
  -31.3719  -19.7464   19.5164 C   0  0  0  0  0  0  0  0  0  0  0  0
  -29.5916  -20.6538   18.1584 C   0  0  0  0  0  0  0  0  0  0  0  0
  -22.0989  -27.8414   19.9455 C   0  0  0  0  0  0  0  0  0  0  0  0
  -32.6572  -22.8468   19.1059 C   0  0  0  0  0  0  0  0  0  0  0  0
  -33.7113  -23.5191   19.7242 C   0  0  0  0  0  0  0  0  0  0  0  0
  -22.5415  -28.7048   22.1540 C   0  0  0  0  0  0  0  0  0  0  0  0
  -35.2898  -22.0658   18.6137 C   0  0  0  0  0  0  0  0  0  0  0  0
  -19.7479  -18.7028   23.2476 C   0  0  0  0  0  0  0  0  0  0  0  0
  -29.0687  -19.2676   20.0668 C   0  0  0  0  0  0  0  0  0  0  0  0
  -27.4870  -19.1579   22.0653 C   0  0  0  0  0  0  0  0  0  0  0  0
  -29.6981  -26.3250   18.3970 C   0  0  0  0  0  0  0  0  0  0  0  0
  -24.0468  -29.2374   20.3346 C   0  0  0  0  0  0  0  0  0  0  0  0
  -28.5696  -26.3914   19.2364 C   0  0  0  0  0  0  0  0  0  0  0  0
  -23.6903  -29.3603   21.6851 C   0  0  0  0  0  0  0  0  0  0  0  0
  -20.1706  -19.6136   22.3010 C   0  0  0  0  0  0  0  0  0  0  0  0
  -30.9528  -20.5109   18.4276 C   0  0  0  0  0  0  0  0  0  0  0  0
  -21.7514  -27.9483   21.2890 C   0  0  0  0  0  0  0  0  0  0  0  0
  -32.9193  -21.7838   18.2415 C   0  0  0  0  0  0  0  0  0  0  0  0
  -35.0276  -23.1287   19.4781 C   0  0  0  0  0  0  0  0  0  0  0  0
  -34.2356  -21.3933   17.9954 C   0  0  0  0  0  0  0  0  0  0  0  0
  -28.0951  -18.6253   20.9127 C   0  0  0  0  0  0  0  0  0  0  0  0
  -20.7596  -19.0748   21.1754 C   0  0  0  0  0  0  0  0  0  0  0  0
  -26.6464  -18.1630   22.5010 C   0  0  0  0  0  0  0  0  0  0  0  0
  -20.4740  -16.9658   21.9739 C   0  0  0  0  0  0  0  0  0  0  0  0
  -27.6660  -20.4377   22.6865 C   0  0  0  0  0  0  0  0  0  0  0  0
  -27.0658  -29.0529   21.3119 C   0  0  0  0  0  0  0  0  0  0  0  0
  -26.3671  -31.8797   22.7414 C   0  0  0  0  0  0  0  0  0  0  0  0
  -23.9920  -33.9722   24.0170 C   0  0  0  0  0  0  0  0  0  0  0  0
  -22.6856  -14.3790   20.9811 C   0  0  0  0  0  0  0  0  0  0  0  0
  -30.9854  -27.0315   18.7412 C   0  0  0  0  0  0  0  0  0  0  0  0
  -25.2590  -29.9488   19.7991 C   0  0  0  0  0  0  0  0  0  0  0  0
  -24.5124  -30.1716   22.6517 C   0  0  0  0  0  0  0  0  0  0  0  0
  -30.8164  -28.1301   19.7875 C   0  0  0  0  0  0  0  0  0  0  0  0
  -26.2332  -13.3294   21.1005 C   0  0  0  0  0  0  0  0  0  0  0  0
  -29.9695  -27.6308   20.9539 C   0  0  0  0  0  0  0  0  0  0  0  0
  -26.9762  -14.6643   21.0846 C   0  0  0  0  0  0  0  0  0  0  0  0
  -24.8840  -13.4228   20.3944 C   0  0  0  0  0  0  0  0  0  0  0  0
  -24.7479  -15.8395   20.8997 C   0  0  0  0  0  0  0  0  0  0  0  0
  -28.5612  -27.2434   20.4870 C   0  0  1  0  0  0  0  0  0  0  0  0
  -26.2913  -30.2648   20.8771 C   0  0  1  0  0  0  0  0  0  0  0  0
  -26.0909  -15.7916   21.6438 C   0  0  2  0  0  0  0  0  0  0  0  0
  -21.5761  -19.1921   18.8076 C   0  0  0  0  0  0  0  0  0  0  0  0
  -21.9531  -13.9998   24.2272 C   0  0  0  0  0  0  0  0  0  0  0  0
  -23.7291  -36.1951   25.1513 C   0  0  0  0  0  0  0  0  0  0  0  0
  -27.3621  -30.6606   25.3556 C   0  0  0  0  0  0  0  0  0  0  0  0
  -26.2164  -32.5210   26.5781 C   0  0  0  0  0  0  0  0  0  0  0  0
  -28.0606  -33.0322   24.9780 C   0  0  0  0  0  0  0  0  0  0  0  0
  -22.3313  -35.0330   21.8089 C   0  0  0  0  0  0  0  0  0  0  0  0
  -17.0227  -23.4512   22.8499 C   0  0  0  0  0  0  0  0  0  0  0  0
  -19.9900  -21.0897   22.5073 C   0  0  0  0  0  0  0  0  0  0  0  0
  -21.2553  -19.9647   20.0837 C   0  0  0  0  0  0  0  0  0  0  0  0
  -20.6419  -15.4951   21.7917 C   0  0  0  0  0  0  0  0  0  0  0  0
  -19.5391  -25.2174   22.1102 C   0  0  0  0  0  0  0  0  0  0  0  0
  -22.4904  -15.1402   23.3863 C   0  0  0  0  0  0  0  0  0  0  0  0
  -18.5584  -21.5714   22.2945 C   0  0  0  0  0  0  0  0  0  0  0  0
  -19.0931  -23.8817   21.5346 C   0  0  0  0  0  0  0  0  0  0  0  0
  -20.2522  -26.1115   21.1033 C   0  0  0  0  0  0  0  0  0  1  0  0
  -25.8146  -32.2905   24.0849 C   0  0  1  0  0  0  0  0  0  0  0  0
  -23.7484  -35.4577   23.8214 C   0  0  2  0  0  0  0  0  0  0  0  0
  -26.8488  -32.1091   25.2316 C   0  0  0  0  0  0  0  0  0  0  0  0
  -19.8842  -17.3670   23.1161 N   0  0  0  0  0  0  0  0  0  0  0  0
  -27.6765  -17.3880   20.6339 N   0  0  0  0  0  0  0  0  0  0  0  0
  -20.9282  -17.7507   20.9783 N   0  0  0  0  0  0  0  0  0  0  0  0
  -26.7965  -17.1348   21.6176 N   0  0  0  0  0  0  0  0  0  0  0  0
  -25.6919  -30.8432   22.0814 N   0  0  0  0  0  0  0  0  0  0  0  0
  -24.0806  -14.5291   20.9157 N   0  0  0  0  0  0  0  0  0  0  0  0
  -25.8010  -18.0760   23.5499 N   0  0  0  0  0  0  0  0  0  0  0  0
  -28.5685  -21.3407   22.1082 N   0  0  0  0  0  0  0  0  0  0  0  0
  -27.7513  -28.4262   20.2887 N   0  0  0  0  0  0  0  0  0  0  0  0
  -25.3315  -33.6580   23.9267 N   0  0  0  0  0  0  0  0  0  0  0  0
  -22.0159  -15.0640   22.0063 N   0  0  0  0  0  0  0  0  0  0  0  0
  -22.4423  -35.6832   23.1401 N   0  3  0  0  0  0  0  0  0  0  0  0
  -18.4532  -23.0501   22.5808 N   0  3  1  0  0  0  0  0  0  0  0  0
  -27.0564  -20.7643   23.7330 O   0  0  0  0  0  0  0  0  0  0  0  0
  -27.0445  -28.7125   22.4889 O   0  0  0  0  0  0  0  0  0  0  0  0
  -27.3569  -32.4619   22.2909 O   0  0  0  0  0  0  0  0  0  0  0  0
  -23.0850  -33.1711   24.2323 O   0  0  0  0  0  0  0  0  0  0  0  0
  -22.0747  -13.6652   20.1753 O   0  0  0  0  0  0  0  0  0  0  0  0
  -31.8718  -21.1178   17.6278 O   0  0  0  0  0  0  0  0  0  0  0  0
  -20.6391  -27.3194   21.7572 O   0  0  0  0  0  0  0  0  0  1  0  0
  -36.0398  -23.7754   20.0707 F   0  0  0  0  0  0  0  0  0  0  0  0
  -34.4937  -20.3737   17.1650 F   0  0  0  0  0  0  0  0  0  0  0  0
  1  2  1  0  0  0  0
  1  5  2  0  0  0  0
  2  6  2  0  0  0  0
  3  8  2  0  0  0  0
  3 16  1  0  0  0  0
  4  9  1  0  0  0  0
  4 16  2  0  0  0  0
  5 18  1  0  0  0  0
  6 20  1  0  0  0  0
  7 10  2  0  0  0  0
  7 19  1  0  0  0  0
  8 23  1  0  0  0  0
  9 23  2  0  0  0  0
 10 24  1  0  0  0  0
 11 12  2  0  0  0  0
 11 25  1  0  0  0  0
 12 26  1  0  0  0  0
 13 21  1  0  0  0  0
 13 24  2  0  0  0  0
 14 26  2  0  0  0  0
 14 27  1  0  0  0  0
 15 22  1  0  0  0  0
 15 68  2  0  0  0  0
 16 28  1  0  0  0  0
 17 28  1  0  0  0  0
 17 30  2  0  0  0  0
 17 32  1  0  0  0  0
 18 20  2  0  0  0  0
 18 37  1  0  0  0  0
 19 21  2  0  0  0  0
 19 38  1  0  0  0  0
 20 46  1  0  0  0  0
 21 39  1  0  0  0  0
 22 29  2  0  0  0  0
 22 57  1  0  0  0  0
 23 86  1  0  0  0  0
 24 87  1  0  0  0  0
 25 27  2  0  0  0  0
 25 86  1  0  0  0  0
 26 88  1  0  0  0  0
 27 89  1  0  0  0  0
 28 69  2  0  0  0  0
 29 58  1  0  0  0  0
 29 70  1  0  0  0  0
 30 71  1  0  0  0  0
 30 74  1  0  0  0  0
 31 59  1  0  0  0  0
 31 68  1  0  0  0  0
 31 70  2  0  0  0  0
 32 75  1  0  0  0  0
 32 81  2  0  0  0  0
 33 47  1  0  0  0  0
 33 76  1  0  0  0  0
 33 82  2  0  0  0  0
 34 65  1  0  0  0  0
 34 72  1  0  0  0  0
 34 83  2  0  0  0  0
 35 66  1  0  0  0  0
 35 77  1  0  0  0  0
 35 84  2  0  0  0  0
 36 73  1  0  0  0  0
 36 78  1  0  0  0  0
 36 85  2  0  0  0  0
 37 40  1  0  0  0  0
 38 47  1  0  0  0  0
 39 72  1  0  0  0  0
 40 42  1  0  0  0  0
 41 43  1  0  0  0  0
 41 44  1  0  0  0  0
 42 46  1  0  0  0  0
 43 48  1  0  0  0  0
 44 73  1  0  0  0  0
 45 48  1  0  0  0  0
 45 73  1  0  0  0  0
 46 76  1  0  0  0  0
 47 72  1  0  0  0  0
 48 71  1  0  0  0  0
 49 58  1  0  0  0  0
 50 61  1  0  0  0  0
 51 66  1  0  0  0  0
 52 67  1  0  0  0  0
 53 67  1  0  0  0  0
 54 67  1  0  0  0  0
 55 79  1  0  0  0  0
 56 80  1  0  0  0  0
 57 62  1  0  0  0  0
 59 78  1  0  0  0  0
 60 63  1  0  0  0  0
 60 64  1  0  0  0  0
 61 78  1  0  0  0  0
 62 80  1  0  0  0  0
 63 80  1  0  0  0  0
 64 87  1  0  0  0  0
 65 67  1  0  0  0  0
 65 77  1  0  0  0  0
 66 79  1  0  0  0  0
 69 71  1  0  0  0  0
M  CHG  2  79   1  80   1
M  ISO  4  36 100  64 101  78 100  87 101
M  END
> <Batch ID>
0054

> <Smiles>
CCc1nc(C[100N:0](CC)[100C:0](=O)N2CCCC(n3nc(-c4ccc(Oc5ccc(F)cc5F)cc4)c(C(N)=O)c3N)C2)ncc1CCN(C)CC[101CH2:1][101O:1]c1ccc2c(c1)CN(C(=O)C(NC(=O)C(C)NC)C(C)(C)C)C(C(=O)NC1CCCc3ccccc31)C2

> <Shape>
0.251

> <Color>
0.051

> <Negative vol penalty>
0.000

$$$$

  -OEChem-04052317413D

 84 92  0     1  0  0  0  0  0999 V2000
  -32.4538  -13.9849   19.7847 C   0  0  0  0  0  0  0  0  0  0  0  0
  -31.7386  -15.1703   19.9218 C   0  0  0  0  0  0  0  0  0  0  0  0
  -26.6182  -27.8887   22.6013 C   0  0  0  0  0  0  0  0  0  0  0  0
  -25.2720  -28.0452   20.6013 C   0  0  0  0  0  0  0  0  0  0  0  0
  -31.7760  -12.7806   19.6001 C   0  0  0  0  0  0  0  0  0  0  0  0
  -30.3452  -15.1522   19.8732 C   0  0  0  0  0  0  0  0  0  0  0  0
  -26.5046  -18.7283   23.0302 C   0  0  0  0  0  0  0  0  0  0  0  0
  -27.4590  -26.9762   21.9641 C   0  0  0  0  0  0  0  0  0  0  0  0
  -26.1128  -27.1327   19.9639 C   0  0  0  0  0  0  0  0  0  0  0  0
  -25.8138  -19.8912   22.6921 C   0  0  0  0  0  0  0  0  0  0  0  0
  -30.1678  -24.8805   20.7453 C   0  0  0  0  0  0  0  0  0  0  0  0
  -31.5440  -25.0569   20.8890 C   0  0  0  0  0  0  0  0  0  0  0  0
  -23.8638  -18.5724   22.1652 C   0  0  0  0  0  0  0  0  0  0  0  0
  -31.3704  -27.2410   19.8709 C   0  0  0  0  0  0  0  0  0  0  0  0
  -23.0365  -24.1421   22.6082 C   0  0  0  0  0  0  0  0  0  0  0  0
  -23.2750  -23.5753   20.3548 C   0  0  0  0  0  0  0  0  0  0  0  0
  -25.5247  -28.4231   21.9199 C   0  0  0  0  0  0  0  0  0  0  0  0
  -24.7834  -30.7670   22.6013 C   0  0  0  0  0  0  0  0  0  0  0  0
  -30.3732  -12.7464   19.5589 C   0  0  0  0  0  0  0  0  0  0  0  0
  -25.8826  -17.4757   22.9277 C   0  0  0  0  0  0  0  0  0  0  0  0
  -29.6480  -13.9464   19.6865 C   0  0  0  0  0  0  0  0  0  0  0  0
  -24.5481  -17.3954   22.5050 C   0  0  0  0  0  0  0  0  0  0  0  0
  -23.6045  -23.3072   21.6677 C   0  0  0  0  0  0  0  0  0  0  0  0
  -27.2063  -26.5983   20.6454 C   0  0  0  0  0  0  0  0  0  0  0  0
  -24.4941  -19.8131   22.2568 C   0  0  0  0  0  0  0  0  0  0  0  0
  -29.3929  -25.8844   20.1644 C   0  0  0  0  0  0  0  0  0  0  0  0
  -32.1453  -26.2371   20.4518 C   0  0  0  0  0  0  0  0  0  0  0  0
  -29.9942  -27.0646   19.7272 C   0  0  0  0  0  0  0  0  0  0  0  0
  -24.6555  -29.3653   22.5779 C   0  0  0  0  0  0  0  0  0  0  0  0
  -23.7165  -31.1967   23.3520 C   0  0  0  0  0  0  0  0  0  0  0  0
  -21.9652  -25.3222   20.9874 C   0  0  0  0  0  0  0  0  0  0  0  0
  -25.7777  -31.6057   21.9982 C   0  0  0  0  0  0  0  0  0  0  0  0
  -26.4129  -14.8400   21.2320 C   0  0  0  0  0  0  0  0  0  0  0  0
  -24.0121  -13.6493   23.0598 C   0  0  0  0  0  0  0  0  0  0  0  0
  -21.2517  -14.2577   24.9721 C   0  0  0  0  0  0  0  0  0  0  0  0
  -18.4412  -28.2930   24.4825 C   0  0  0  0  0  0  0  0  0  0  0  0
  -29.6862  -11.4270   19.3100 C   0  0  0  0  0  0  0  0  0  0  0  0
  -26.6330  -16.2331   23.3217 C   0  0  0  0  0  0  0  0  0  0  0  0
  -23.8284  -16.0767   22.3971 C   0  0  0  0  0  0  0  0  0  0  0  0
  -28.1970  -11.4429   19.6451 C   0  0  0  0  0  0  0  0  0  0  0  0
  -20.8104  -29.8153   26.8849 C   0  0  0  0  0  0  0  0  0  0  0  0
  -27.5326  -12.6875   19.0652 C   0  0  0  0  0  0  0  0  0  0  0  0
  -22.0947  -29.9212   26.0644 C   0  0  0  0  0  0  0  0  0  0  0  0
  -19.9311  -28.6601   26.4156 C   0  0  0  0  0  0  0  0  0  0  0  0
  -20.8937  -28.8054   24.1426 C   0  0  0  0  0  0  0  0  0  0  0  0
  -28.1350  -13.9642   19.6641 C   0  0  1  0  0  0  0  0  0  0  0  0
  -26.0656  -14.9664   22.6884 C   0  0  1  0  0  0  0  0  0  0  0  0
  -21.7805  -29.9882   24.5597 C   0  0  2  0  0  0  0  0  0  0  0  0
  -15.9667  -29.0986   22.4821 C   0  0  0  0  0  0  0  0  0  0  0  0
  -19.4785  -13.0813   26.3021 C   0  0  0  0  0  0  0  0  0  0  0  0
  -22.6131  -12.8380   20.4724 C   0  0  0  0  0  0  0  0  0  0  0  0
  -20.4996  -12.5576   21.7850 C   0  0  0  0  0  0  0  0  0  0  0  0
  -22.4855  -11.1400   22.3040 C   0  0  0  0  0  0  0  0  0  0  0  0
  -22.0707  -15.6070   27.4756 C   0  0  0  0  0  0  0  0  0  0  0  0
  -24.5214  -22.1820   22.0477 C   0  0  0  0  0  0  0  0  0  1  0  0
  -19.7253  -28.2359   21.1195 C   0  0  0  0  0  0  0  0  0  0  0  0
  -16.9602  -27.9559   22.5402 C   0  0  0  0  0  0  0  0  0  0  0  0
  -19.1030  -29.1260   22.1867 C   0  0  0  0  0  0  0  0  0  0  0  0
  -20.6055  -27.1373   21.7031 C   0  0  0  0  0  0  0  0  0  0  0  0
  -22.5085  -13.5865   22.9412 C   0  0  1  0  0  0  0  0  0  0  0  0
  -20.8441  -13.7491   26.3431 C   0  0  2  0  0  0  0  0  0  0  0  0
  -22.0406  -12.5554   21.8757 C   0  0  0  0  0  0  0  0  0  0  0  0
  -22.2093  -25.1631   22.3022 N   0  0  0  0  0  0  0  0  0  0  0  0
  -22.4552  -24.5783   19.9774 N   0  0  0  0  0  0  0  0  0  0  0  0
  -23.5913  -28.9332   23.2597 N   0  0  0  0  0  0  0  0  0  0  0  0
  -23.0409  -30.0700   23.7187 N   0  0  0  0  0  0  0  0  0  0  0  0
  -24.6067  -14.8896   22.7877 N   0  0  0  0  0  0  0  0  0  0  0  0
  -19.6839  -28.7244   24.9748 N   0  0  0  0  0  0  0  0  0  0  0  0
  -23.2997  -32.4245   23.7277 N   0  0  0  0  0  0  0  0  0  0  0  0
  -26.8044  -31.0005   21.2607 N   0  0  0  0  0  0  0  0  0  0  0  0
  -27.6113  -14.1947   20.9934 N   0  0  0  0  0  0  0  0  0  0  0  0
  -22.0034  -13.3279   24.2852 N   0  0  0  0  0  0  0  0  0  0  0  0
  -18.2368  -28.3802   23.0971 N   0  0  0  0  0  0  0  0  0  0  0  0
  -20.7875  -14.8753   27.3176 N   0  3  0  0  0  0  0  0  0  0  0  0
  -25.7655  -32.8538   22.1238 O   0  0  0  0  0  0  0  0  0  0  0  0
  -25.6494  -15.2929   20.3873 O   0  0  0  0  0  0  0  0  0  0  0  0
  -24.6356  -12.6370   23.3890 O   0  0  0  0  0  0  0  0  0  0  0  0
  -20.9319  -15.3671   24.5510 O   0  0  0  0  0  0  0  0  0  0  0  0
  -17.5608  -27.8640   25.2393 O   0  0  0  0  0  0  0  0  0  0  0  0
  -28.0267  -25.7081   20.0231 O   0  0  0  0  0  0  0  0  0  0  0  0
  -23.8178  -20.9466   21.9255 O   0  0  0  0  0  0  0  0  0  1  0  0
  -21.1243  -26.3532   20.6386 O   0  0  0  0  0  0  0  0  0  0  0  0
  -33.4666  -26.4069   20.5913 F   0  0  0  0  0  0  0  0  0  0  0  0
  -29.2548  -28.0331   19.1694 F   0  0  0  0  0  0  0  0  0  0  0  0
  1  2  1  0  0  0  0
  1  5  2  0  0  0  0
  2  6  2  0  0  0  0
  3  8  2  0  0  0  0
  3 17  1  0  0  0  0
  4  9  1  0  0  0  0
  4 17  2  0  0  0  0
  5 19  1  0  0  0  0
  6 21  1  0  0  0  0
  7 10  2  0  0  0  0
  7 20  1  0  0  0  0
  8 24  1  0  0  0  0
  9 24  2  0  0  0  0
 10 25  1  0  0  0  0
 11 12  2  0  0  0  0
 11 26  1  0  0  0  0
 12 27  1  0  0  0  0
 13 22  1  0  0  0  0
 13 25  2  0  0  0  0
 14 27  2  0  0  0  0
 14 28  1  0  0  0  0
 15 23  1  0  0  0  0
 15 63  2  0  0  0  0
 16 23  2  0  0  0  0
 16 64  1  0  0  0  0
 17 29  1  0  0  0  0
 18 29  1  0  0  0  0
 18 30  2  0  0  0  0
 18 32  1  0  0  0  0
 19 21  2  0  0  0  0
 19 37  1  0  0  0  0
 20 22  2  0  0  0  0
 20 38  1  0  0  0  0
 21 46  1  0  0  0  0
 22 39  1  0  0  0  0
 23 55  1  0  0  0  0
 24 80  1  0  0  0  0
 25 81  1  0  0  0  0
 26 28  2  0  0  0  0
 26 80  1  0  0  0  0
 27 83  1  0  0  0  0
 28 84  1  0  0  0  0
 29 65  2  0  0  0  0
 30 66  1  0  0  0  0
 30 69  1  0  0  0  0
 31 63  1  0  0  0  0
 31 64  2  0  0  0  0
 31 82  1  0  0  0  0
 32 70  1  0  0  0  0
 32 75  2  0  0  0  0
 33 47  1  0  0  0  0
 33 71  1  0  0  0  0
 33 76  2  0  0  0  0
 34 60  1  0  0  0  0
 34 67  1  0  0  0  0
 34 77  2  0  0  0  0
 35 61  1  0  0  0  0
 35 72  1  0  0  0  0
 35 78  2  0  0  0  0
 36 68  1  0  0  0  0
 36 73  1  0  0  0  0
 36 79  2  0  0  0  0
 37 40  1  0  0  0  0
 38 47  1  0  0  0  0
 39 67  1  0  0  0  0
 40 42  1  0  0  0  0
 41 43  1  0  0  0  0
 41 44  1  0  0  0  0
 42 46  1  0  0  0  0
 43 48  1  0  0  0  0
 44 68  1  0  0  0  0
 45 48  1  0  0  0  0
 45 68  1  0  0  0  0
 46 71  1  0  0  0  0
 47 67  1  0  0  0  0
 48 66  1  0  0  0  0
 49 57  1  0  0  0  0
 50 61  1  0  0  0  0
 51 62  1  0  0  0  0
 52 62  1  0  0  0  0
 53 62  1  0  0  0  0
 54 74  1  0  0  0  0
 55 81  1  0  0  0  0
 56 58  1  0  0  0  0
 56 59  1  0  0  0  0
 57 73  1  0  0  0  0
 58 73  1  0  0  0  0
 59 82  1  0  0  0  0
 60 62  1  0  0  0  0
 60 72  1  0  0  0  0
 61 74  1  0  0  0  0
 65 66  1  0  0  0  0
M  CHG  1  74   1
M  ISO  4  36 100  55 101  73 100  81 101
M  END
> <Batch ID>
0054

> <Smiles>
CC[100N:0](CCCOc1ncc([101CH2:1][101O:1]c2ccc3c(c2)CN(C(=O)C(NC(=O)C(C)NC)C(C)(C)C)C(C(=O)NC2CCCc4ccccc42)C3)cn1)[100C:0](=O)N1CCCC(n2nc(-c3ccc(Oc4ccc(F)cc4F)cc3)c(C(N)=O)c2N)C1

> <Shape>
0.224

> <Color>
0.081

> <Negative vol penalty>
0.000

$$$$

  -OEChem-04052317413D

 85 93  0     1  0  0  0  0  0999 V2000
  -34.6933  -23.1000   23.5182 C   0  0  0  0  0  0  0  0  0  0  0  0
  -33.3334  -22.8237   23.4191 C   0  0  0  0  0  0  0  0  0  0  0  0
  -23.0565   -9.9982   19.9611 C   0  0  0  0  0  0  0  0  0  0  0  0
  -23.7058   -9.9819   22.2881 C   0  0  0  0  0  0  0  0  0  0  0  0
  -35.1192  -24.3226   24.0356 C   0  0  0  0  0  0  0  0  0  0  0  0
  -32.3986  -23.7697   23.8384 C   0  0  0  0  0  0  0  0  0  0  0  0
  -28.5873  -24.3244   20.5504 C   0  0  0  0  0  0  0  0  0  0  0  0
  -22.2763   -8.8612   20.1708 C   0  0  0  0  0  0  0  0  0  0  0  0
  -22.9256   -8.8449   22.4979 C   0  0  0  0  0  0  0  0  0  0  0  0
  -27.5921  -23.3479   20.5585 C   0  0  0  0  0  0  0  0  0  0  0  0
  -23.1695   -5.5188   21.9423 C   0  0  0  0  0  0  0  0  0  0  0  0
  -23.7272   -4.4781   22.6849 C   0  0  0  0  0  0  0  0  0  0  0  0
  -26.1836  -24.8030   21.8692 C   0  0  0  0  0  0  0  0  0  0  0  0
  -21.9504   -4.6847   24.3089 C   0  0  0  0  0  0  0  0  0  0  0  0
  -25.5552  -19.9155   24.0956 C   0  0  0  0  0  0  0  0  0  0  0  0
  -26.6530  -18.6883   21.9941 C   0  0  0  0  0  0  0  0  0  0  0  0
  -23.7713  -10.5586   21.0197 C   0  0  0  0  0  0  0  0  0  0  0  0
  -24.1741  -13.0758   20.9258 C   0  0  0  0  0  0  0  0  0  0  0  0
  -34.1890  -25.2878   24.4524 C   0  0  0  0  0  0  0  0  0  0  0  0
  -28.3919  -25.5452   21.2120 C   0  0  0  0  0  0  0  0  0  0  0  0
  -32.8125  -25.0058   24.3631 C   0  0  0  0  0  0  0  0  0  0  0  0
  -27.1768  -25.7942   21.8659 C   0  0  0  0  0  0  0  0  0  0  0  0
  -22.2108   -8.2845   21.4392 C   0  0  0  0  0  0  0  0  0  0  0  0
  -26.3912  -23.5860   21.2204 C   0  0  0  0  0  0  0  0  0  0  0  0
  -22.0022   -6.1426   22.3830 C   0  0  0  0  0  0  0  0  0  0  0  0
  -23.1176   -4.0610   23.8681 C   0  0  0  0  0  0  0  0  0  0  0  0
  -21.3927   -5.7255   23.5663 C   0  0  0  0  0  0  0  0  0  0  0  0
  -24.5779  -11.7328   20.8036 C   0  0  0  0  0  0  0  0  0  0  0  0
  -25.1291  -20.1837   22.8134 C   0  0  0  0  0  0  0  0  0  0  0  0
  -27.0796  -18.4206   23.2762 C   0  0  0  0  0  0  0  0  0  0  0  0
  -25.2986  -13.8019   20.6180 C   0  0  0  0  0  0  0  0  0  0  0  0
  -22.8967  -13.6186   21.2856 C   0  0  0  0  0  0  0  0  0  0  0  0
  -29.8168  -27.0402   23.6283 C   0  0  0  0  0  0  0  0  0  0  0  0
  -27.7957  -29.4457   22.8210 C   0  0  0  0  0  0  0  0  0  0  0  0
  -24.8704  -30.3993   21.3445 C   0  0  0  0  0  0  0  0  0  0  0  0
  -31.1197  -13.1358   21.4866 C   0  0  0  0  0  0  0  0  0  0  0  0
  -34.6978  -26.5762   25.0490 C   0  0  0  0  0  0  0  0  0  0  0  0
  -29.4648  -26.5986   21.1712 C   0  0  0  0  0  0  0  0  0  0  0  0
  -26.9096  -27.0964   22.5740 C   0  0  0  0  0  0  0  0  0  0  0  0
  -33.6387  -27.6732   25.1228 C   0  0  0  0  0  0  0  0  0  0  0  0
  -29.4890  -12.8965   18.1722 C   0  0  0  0  0  0  0  0  0  0  0  0
  -32.3344  -27.1189   25.6868 C   0  0  0  0  0  0  0  0  0  0  0  0
  -28.0306  -12.6248   18.5374 C   0  0  0  0  0  0  0  0  0  0  0  0
  -30.4474  -12.3731   19.2376 C   0  0  0  0  0  0  0  0  0  0  0  0
  -28.7012  -12.6068   20.9727 C   0  0  0  0  0  0  0  0  0  0  0  0
  -31.7676  -26.0162   24.7844 C   0  0  1  0  0  0  0  0  0  0  0  0
  -29.3583  -27.6045   22.3133 C   0  0  1  0  0  0  0  0  0  0  0  0
  -27.7073  -13.1630   19.9420 C   0  0  2  0  0  0  0  0  0  0  0  0
  -23.4709  -32.4286   20.8748 C   0  0  0  0  0  0  0  0  0  0  0  0
  -26.8794  -29.4843   25.7312 C   0  0  0  0  0  0  0  0  0  0  0  0
  -24.8804  -30.8088   25.0114 C   0  0  0  0  0  0  0  0  0  0  0  0
  -27.1721  -31.7436   24.6995 C   0  0  0  0  0  0  0  0  0  0  0  0
  -31.9303  -14.4801   23.3880 C   0  0  0  0  0  0  0  0  0  0  0  0
  -25.0748  -30.0059   18.4184 C   0  0  0  0  0  0  0  0  0  0  0  0
  -26.5714  -15.6743   24.2625 C   0  0  0  0  0  0  0  0  0  0  0  0
  -24.0251  -21.1828   22.5659 C   0  0  0  0  0  0  0  0  0  0  0  0
  -28.1682  -17.4349   23.5203 C   0  0  0  0  0  0  0  0  0  0  0  0
  -29.7916  -15.1153   22.3353 C   0  0  0  0  0  0  0  0  0  0  0  0
  -28.8697  -15.0457   23.5384 C   0  0  0  0  0  0  0  0  0  0  0  0
  -24.5573  -22.5979   22.3678 C   0  0  0  0  0  0  0  0  0  1  0  0
  -26.3959  -29.8454   23.2208 C   0  0  1  0  0  0  0  0  0  0  0  0
  -24.5569  -31.5025   20.3499 C   0  0  2  0  0  0  0  0  0  0  0  0
  -26.3374  -30.4451   24.6541 C   0  0  0  0  0  0  0  0  0  0  0  0
  -25.6701  -19.5748   21.7397 N   0  0  0  0  0  0  0  0  0  0  0  0
  -26.5383  -19.0293   24.3500 N   0  0  0  0  0  0  0  0  0  0  0  0
  -25.8589  -11.6101   20.4458 N   0  0  0  0  0  0  0  0  0  0  0  0
  -26.2697  -12.8853   20.3405 N   0  0  0  0  0  0  0  0  0  0  0  0
  -27.9919  -28.0924   22.5112 N   0  0  0  0  0  0  0  0  0  0  0  0
  -30.0914  -12.8655   20.5688 N   0  0  0  0  0  0  0  0  0  0  0  0
  -25.5416  -15.1286   20.5602 N   0  0  0  0  0  0  0  0  0  0  0  0
  -21.8500  -12.7312   21.5707 N   0  0  0  0  0  0  0  0  0  0  0  0
  -31.1245  -26.5939   23.6237 N   0  0  0  0  0  0  0  0  0  0  0  0
  -25.9142  -30.7438   22.1771 N   0  0  0  0  0  0  0  0  0  0  0  0
  -30.8896  -14.1550   22.4230 N   0  0  0  0  0  0  0  0  0  0  0  0
  -24.0940  -30.9197   19.0588 N   0  3  0  0  0  0  0  0  0  0  0  0
  -27.7322  -16.0184   23.3659 N   0  3  1  0  0  0  0  0  0  0  0  0
  -22.6852  -14.8540   21.3363 O   0  0  0  0  0  0  0  0  0  0  0  0
  -29.0419  -27.0133   24.5772 O   0  0  0  0  0  0  0  0  0  0  0  0
  -28.6808  -30.3038   22.7781 O   0  0  0  0  0  0  0  0  0  0  0  0
  -24.2489  -29.3397   21.3818 O   0  0  0  0  0  0  0  0  0  0  0  0
  -32.1865  -12.5086   21.4639 O   0  0  0  0  0  0  0  0  0  0  0  0
  -21.4493   -7.1751   21.6443 O   0  0  0  0  0  0  0  0  0  0  0  0
  -25.4185  -22.6344   21.2305 O   0  0  0  0  0  0  0  0  0  1  0  0
  -23.6525   -3.0606   24.5803 F   0  0  0  0  0  0  0  0  0  0  0  0
  -20.2705   -6.3201   23.9942 F   0  0  0  0  0  0  0  0  0  0  0  0
  1  2  1  0  0  0  0
  1  5  2  0  0  0  0
  2  6  2  0  0  0  0
  3  8  2  0  0  0  0
  3 17  1  0  0  0  0
  4  9  1  0  0  0  0
  4 17  2  0  0  0  0
  5 19  1  0  0  0  0
  6 21  1  0  0  0  0
  7 10  2  0  0  0  0
  7 20  1  0  0  0  0
  8 23  1  0  0  0  0
  9 23  2  0  0  0  0
 10 24  1  0  0  0  0
 11 12  2  0  0  0  0
 11 25  1  0  0  0  0
 12 26  1  0  0  0  0
 13 22  1  0  0  0  0
 13 24  2  0  0  0  0
 14 26  2  0  0  0  0
 14 27  1  0  0  0  0
 15 29  1  0  0  0  0
 15 65  2  0  0  0  0
 16 30  2  0  0  0  0
 16 64  1  0  0  0  0
 17 28  1  0  0  0  0
 18 28  1  0  0  0  0
 18 31  2  0  0  0  0
 18 32  1  0  0  0  0
 19 21  2  0  0  0  0
 19 37  1  0  0  0  0
 20 22  2  0  0  0  0
 20 38  1  0  0  0  0
 21 46  1  0  0  0  0
 22 39  1  0  0  0  0
 23 82  1  0  0  0  0
 24 83  1  0  0  0  0
 25 27  2  0  0  0  0
 25 82  1  0  0  0  0
 26 84  1  0  0  0  0
 27 85  1  0  0  0  0
 28 66  2  0  0  0  0
 29 56  1  0  0  0  0
 29 64  2  0  0  0  0
 30 57  1  0  0  0  0
 30 65  1  0  0  0  0
 31 67  1  0  0  0  0
 31 70  1  0  0  0  0
 32 71  1  0  0  0  0
 32 77  2  0  0  0  0
 33 47  1  0  0  0  0
 33 72  1  0  0  0  0
 33 78  2  0  0  0  0
 34 61  1  0  0  0  0
 34 68  1  0  0  0  0
 34 79  2  0  0  0  0
 35 62  1  0  0  0  0
 35 73  1  0  0  0  0
 35 80  2  0  0  0  0
 36 69  1  0  0  0  0
 36 74  1  0  0  0  0
 36 81  2  0  0  0  0
 37 40  1  0  0  0  0
 38 47  1  0  0  0  0
 39 68  1  0  0  0  0
 40 42  1  0  0  0  0
 41 43  1  0  0  0  0
 41 44  1  0  0  0  0
 42 46  1  0  0  0  0
 43 48  1  0  0  0  0
 44 69  1  0  0  0  0
 45 48  1  0  0  0  0
 45 69  1  0  0  0  0
 46 72  1  0  0  0  0
 47 68  1  0  0  0  0
 48 67  1  0  0  0  0
 49 62  1  0  0  0  0
 50 63  1  0  0  0  0
 51 63  1  0  0  0  0
 52 63  1  0  0  0  0
 53 74  1  0  0  0  0
 54 75  1  0  0  0  0
 55 76  1  0  0  0  0
 56 60  1  0  0  0  0
 57 76  1  0  0  0  0
 58 59  1  0  0  0  0
 58 74  1  0  0  0  0
 59 76  1  0  0  0  0
 60 83  1  0  0  0  0
 61 63  1  0  0  0  0
 61 73  1  0  0  0  0
 62 75  1  0  0  0  0
 66 67  1  0  0  0  0
M  CHG  2  75   1  76   1
M  ISO  4  36 100  60 101  74 100  83 101
M  END
> <Batch ID>
0054

> <Smiles>
CNC(C)C(=O)NC(C(=O)N1Cc2cc([101O:1][101CH2:1]Cc3cnc(CN(C)CC[100N:0](C)[100C:0](=O)N4CCCC(n5nc(-c6ccc(Oc7ccc(F)cc7F)cc6)c(C(N)=O)c5N)C4)cn3)ccc2CC1C(=O)NC1CCCc2ccccc21)C(C)(C)C

> <Shape>
0.249

> <Color>
0.181

> <Negative vol penalty>
0.000

$$$$

  -OEChem-04052317413D

 81 89  0     1  0  0  0  0  0999 V2000
  -31.1665  -25.8097   16.6247 C   0  0  0  0  0  0  0  0  0  0  0  0
  -29.9252  -25.5866   17.2118 C   0  0  0  0  0  0  0  0  0  0  0  0
  -23.7787  -14.7898   19.1150 C   0  0  0  0  0  0  0  0  0  0  0  0
  -22.8325  -16.0690   20.9331 C   0  0  0  0  0  0  0  0  0  0  0  0
  -32.1008  -26.6259   17.2611 C   0  0  0  0  0  0  0  0  0  0  0  0
  -29.6177  -26.1787   18.4363 C   0  0  0  0  0  0  0  0  0  0  0  0
  -24.9739  -28.1974   18.5067 C   0  0  0  0  0  0  0  0  0  0  0  0
  -23.1441  -13.6429   19.5916 C   0  0  0  0  0  0  0  0  0  0  0  0
  -22.1978  -14.9220   21.4097 C   0  0  0  0  0  0  0  0  0  0  0  0
  -23.9013  -27.3216   18.6690 C   0  0  0  0  0  0  0  0  0  0  0  0
  -23.6284  -11.3641   22.0405 C   0  0  0  0  0  0  0  0  0  0  0  0
  -24.3751  -10.1872   22.0971 C   0  0  0  0  0  0  0  0  0  0  0  0
  -23.7880  -27.9035   21.0074 C   0  0  0  0  0  0  0  0  0  0  0  0
  -22.8124   -9.1235   20.5925 C   0  0  0  0  0  0  0  0  0  0  0  0
  -25.0338  -22.2897   22.1125 C   0  0  0  0  0  0  0  0  0  0  0  0
  -23.6230  -16.0029   19.7857 C   0  0  0  0  0  0  0  0  0  0  0  0
  -23.7686  -18.1215   18.3721 C   0  0  0  0  0  0  0  0  0  0  0  0
  -31.8010  -27.2360   18.4893 C   0  0  0  0  0  0  0  0  0  0  0  0
  -25.4694  -28.9259   19.5976 C   0  0  0  0  0  0  0  0  0  0  0  0
  -30.5494  -27.0027   19.0904 C   0  0  0  0  0  0  0  0  0  0  0  0
  -24.8653  -28.7898   20.8556 C   0  0  0  0  0  0  0  0  0  0  0  0
  -22.3536  -13.7089   20.7390 C   0  0  0  0  0  0  0  0  0  0  0  0
  -23.3101  -27.1724   19.9201 C   0  0  0  0  0  0  0  0  0  0  0  0
  -22.4737  -11.4206   21.2600 C   0  0  0  0  0  0  0  0  0  0  0  0
  -23.9671   -9.0670   21.3731 C   0  0  0  0  0  0  0  0  0  0  0  0
  -22.0657  -10.3003   20.5360 C   0  0  0  0  0  0  0  0  0  0  0  0
  -24.2788  -17.1880   19.2941 C   0  0  0  0  0  0  0  0  0  0  0  0
  -25.6431  -22.7706   20.9451 C   0  0  0  0  0  0  0  0  0  0  0  0
  -24.7686  -19.0534   18.2380 C   0  0  0  0  0  0  0  0  0  0  0  0
  -22.5038  -18.1442   17.6972 C   0  0  0  0  0  0  0  0  0  0  0  0
  -28.2537  -29.0626   21.1250 C   0  0  0  0  0  0  0  0  0  0  0  0
  -26.8212  -31.5037   22.7097 C   0  0  0  0  0  0  0  0  0  0  0  0
  -23.9240  -32.9935   23.7264 C   0  0  0  0  0  0  0  0  0  0  0  0
  -28.8056  -21.4586   21.8437 C   0  0  0  0  0  0  0  0  0  0  0  0
  -32.8607  -28.0721   19.1623 C   0  0  0  0  0  0  0  0  0  0  0  0
  -26.6099  -29.8865   19.4002 C   0  0  0  0  0  0  0  0  0  0  0  0
  -25.3466  -29.5642   22.0544 C   0  0  0  0  0  0  0  0  0  0  0  0
  -32.3171  -28.9633   20.2761 C   0  0  0  0  0  0  0  0  0  0  0  0
  -29.6288  -19.1203   19.0948 C   0  0  0  0  0  0  0  0  0  0  0  0
  -31.3818  -28.1718   21.1846 C   0  0  0  0  0  0  0  0  0  0  0  0
  -28.2932  -18.4245   18.8382 C   0  0  0  0  0  0  0  0  0  0  0  0
  -29.7552  -19.5897   20.5410 C   0  0  0  0  0  0  0  0  0  0  0  0
  -27.2961  -19.7585   20.7373 C   0  0  0  0  0  0  0  0  0  0  0  0
  -30.1695  -27.6472   20.4059 C   0  0  1  0  0  0  0  0  0  0  0  0
  -27.3636  -30.1926   20.6908 C   0  0  1  0  0  0  0  0  0  0  0  0
  -27.1176  -19.3145   19.2777 C   0  0  2  0  0  0  0  0  0  0  0  0
  -23.0732  -34.9555   25.0394 C   0  0  0  0  0  0  0  0  0  0  0  0
  -27.5436  -30.0755   25.3075 C   0  0  0  0  0  0  0  0  0  0  0  0
  -25.8874  -31.5349   26.4889 C   0  0  0  0  0  0  0  0  0  0  0  0
  -27.8623  -32.5555   25.3570 C   0  0  0  0  0  0  0  0  0  0  0  0
  -28.1281  -23.6958   22.6282 C   0  0  0  0  0  0  0  0  0  0  0  0
  -22.5142  -34.1046   21.3734 C   0  0  0  0  0  0  0  0  0  0  0  0
  -27.0676  -22.8022   20.5880 C   0  0  0  0  0  0  0  0  0  0  0  0
  -21.4533  -24.3436   21.1783 C   0  0  0  0  0  0  0  0  0  0  0  0
  -22.2442  -23.3986   20.2709 C   0  0  0  0  0  0  0  0  0  0  0  0
  -22.1183  -25.7029   21.3611 C   0  0  0  0  0  0  0  0  0  1  0  0
  -25.9771  -31.6200   23.9559 C   0  0  1  0  0  0  0  0  0  0  0  0
  -23.4570  -34.4365   23.6624 C   0  0  2  0  0  0  0  0  0  0  0  0
  -26.8095  -31.4303   25.2554 C   0  0  0  0  0  0  0  0  0  0  0  0
  -23.7100  -22.4512   22.0321 N   0  0  0  0  0  0  0  0  0  0  0  0
  -25.5075  -17.4985   19.7159 N   0  0  0  0  0  0  0  0  0  0  0  0
  -24.7130  -23.2416   20.1097 N   0  0  0  0  0  0  0  0  0  0  0  0
  -25.7778  -18.6375   19.0557 N   0  0  0  0  0  0  0  0  0  0  0  0
  -23.5960  -23.0193   20.8208 N   0  0  0  0  0  0  0  0  0  0  0  0
  -26.4686  -30.4861   21.8119 N   0  0  0  0  0  0  0  0  0  0  0  0
  -28.6041  -20.3974   20.9459 N   0  0  0  0  0  0  0  0  0  0  0  0
  -24.8743  -20.1798   17.5015 N   0  0  0  0  0  0  0  0  0  0  0  0
  -21.5929  -17.1095   17.9501 N   0  0  0  0  0  0  0  0  0  0  0  0
  -29.2088  -28.7081   20.1914 N   0  0  0  0  0  0  0  0  0  0  0  0
  -25.2929  -32.9054   23.8670 N   0  0  0  0  0  0  0  0  0  0  0  0
  -27.9513  -22.5656   21.7275 N   0  0  0  0  0  0  0  0  0  0  0  0
  -22.2719  -34.5581   22.7671 N   0  3  0  0  0  0  0  0  0  0  0  0
  -22.1972  -19.0462   16.8813 O   0  0  0  0  0  0  0  0  0  0  0  0
  -28.0873  -28.5512   22.2261 O   0  0  0  0  0  0  0  0  0  0  0  0
  -27.7545  -32.2913   22.5358 O   0  0  0  0  0  0  0  0  0  0  0  0
  -23.1514  -32.0398   23.6622 O   0  0  0  0  0  0  0  0  0  0  0  0
  -29.7042  -21.4229   22.6941 O   0  0  0  0  0  0  0  0  0  0  0  0
  -21.7340  -12.5899   21.2043 O   0  0  0  0  0  0  0  0  0  0  0  0
  -22.2634  -26.3178   20.0815 O   0  0  0  0  0  0  0  0  0  1  0  0
  -24.6850   -7.9374   21.4263 F   0  0  0  0  0  0  0  0  0  0  0  0
  -20.9580  -10.3490   19.7835 F   0  0  0  0  0  0  0  0  0  0  0  0
  1  2  1  0  0  0  0
  1  5  2  0  0  0  0
  2  6  2  0  0  0  0
  3  8  2  0  0  0  0
  3 16  1  0  0  0  0
  4  9  1  0  0  0  0
  4 16  2  0  0  0  0
  5 18  1  0  0  0  0
  6 20  1  0  0  0  0
  7 10  2  0  0  0  0
  7 19  1  0  0  0  0
  8 22  1  0  0  0  0
  9 22  2  0  0  0  0
 10 23  1  0  0  0  0
 11 12  2  0  0  0  0
 11 24  1  0  0  0  0
 12 25  1  0  0  0  0
 13 21  1  0  0  0  0
 13 23  2  0  0  0  0
 14 25  2  0  0  0  0
 14 26  1  0  0  0  0
 15 28  1  0  0  0  0
 15 60  2  0  0  0  0
 16 27  1  0  0  0  0
 17 27  1  0  0  0  0
 17 29  2  0  0  0  0
 17 30  1  0  0  0  0
 18 20  2  0  0  0  0
 18 35  1  0  0  0  0
 19 21  2  0  0  0  0
 19 36  1  0  0  0  0
 20 44  1  0  0  0  0
 21 37  1  0  0  0  0
 22 78  1  0  0  0  0
 23 79  1  0  0  0  0
 24 26  2  0  0  0  0
 24 78  1  0  0  0  0
 25 80  1  0  0  0  0
 26 81  1  0  0  0  0
 27 61  2  0  0  0  0
 28 53  1  0  0  0  0
 28 62  2  0  0  0  0
 29 63  1  0  0  0  0
 29 67  1  0  0  0  0
 30 68  1  0  0  0  0
 30 73  2  0  0  0  0
 31 45  1  0  0  0  0
 31 69  1  0  0  0  0
 31 74  2  0  0  0  0
 32 57  1  0  0  0  0
 32 65  1  0  0  0  0
 32 75  2  0  0  0  0
 33 58  1  0  0  0  0
 33 70  1  0  0  0  0
 33 76  2  0  0  0  0
 34 66  1  0  0  0  0
 34 71  1  0  0  0  0
 34 77  2  0  0  0  0
 35 38  1  0  0  0  0
 36 45  1  0  0  0  0
 37 65  1  0  0  0  0
 38 40  1  0  0  0  0
 39 41  1  0  0  0  0
 39 42  1  0  0  0  0
 40 44  1  0  0  0  0
 41 46  1  0  0  0  0
 42 66  1  0  0  0  0
 43 46  1  0  0  0  0
 43 66  1  0  0  0  0
 44 69  1  0  0  0  0
 45 65  1  0  0  0  0
 46 63  1  0  0  0  0
 47 58  1  0  0  0  0
 48 59  1  0  0  0  0
 49 59  1  0  0  0  0
 50 59  1  0  0  0  0
 51 71  1  0  0  0  0
 52 72  1  0  0  0  0
 53 71  1  0  0  0  0
 54 55  1  0  0  0  0
 54 56  1  0  0  0  0
 55 64  1  0  0  0  0
 56 79  1  0  0  0  0
 57 59  1  0  0  0  0
 57 70  1  0  0  0  0
 58 72  1  0  0  0  0
 60 64  1  0  0  0  0
 61 63  1  0  0  0  0
 62 64  1  0  0  0  0
M  CHG  1  72   1
M  ISO  4  34 100  56 101  71 100  79 101
M  END
> <Batch ID>
0054

> <Smiles>
CNC(C)C(=O)NC(C(=O)N1Cc2cc([101O:1][101CH2:1]CCn3ncc(C[100N:0](C)[100C:0](=O)N4CCCC(n5nc(-c6ccc(Oc7ccc(F)cc7F)cc6)c(C(N)=O)c5N)C4)n3)ccc2CC1C(=O)NC1CCCc2ccccc21)C(C)(C)C

> <Shape>
0.246

> <Color>
0.050

> <Negative vol penalty>
0.000

$$$$

  -OEChem-04052317413D

 85 93  0     1  0  0  0  0  0999 V2000
  -22.0090  -11.5211   19.5199 C   0  0  0  0  0  0  0  0  0  0  0  0
  -21.6562  -12.8265   19.8465 C   0  0  0  0  0  0  0  0  0  0  0  0
  -30.5357  -26.6539   16.2660 C   0  0  0  0  0  0  0  0  0  0  0  0
  -31.8800  -26.9183   18.2560 C   0  0  0  0  0  0  0  0  0  0  0  0
  -23.3149  -11.0799   19.7296 C   0  0  0  0  0  0  0  0  0  0  0  0
  -22.6089  -13.6913   20.3841 C   0  0  0  0  0  0  0  0  0  0  0  0
  -24.4483  -20.6141   20.4695 C   0  0  0  0  0  0  0  0  0  0  0  0
  -31.6249  -27.0303   15.4801 C   0  0  0  0  0  0  0  0  0  0  0  0
  -32.9693  -27.2947   17.4701 C   0  0  0  0  0  0  0  0  0  0  0  0
  -24.7348  -21.6414   21.3675 C   0  0  0  0  0  0  0  0  0  0  0  0
  -35.3015  -25.7728   15.5556 C   0  0  0  0  0  0  0  0  0  0  0  0
  -36.5406  -25.2062   15.8541 C   0  0  0  0  0  0  0  0  0  0  0  0
  -26.9798  -20.7933   21.6123 C   0  0  0  0  0  0  0  0  0  0  0  0
  -37.4484  -27.4073   16.2643 C   0  0  0  0  0  0  0  0  0  0  0  0
  -27.6986  -23.6900   25.6864 C   0  0  0  0  0  0  0  0  0  0  0  0
  -30.6632  -26.5980   17.6539 C   0  0  0  0  0  0  0  0  0  0  0  0
  -29.1927  -24.9071   18.8731 C   0  0  0  0  0  0  0  0  0  0  0  0
  -24.2864  -11.9425   20.2611 C   0  0  0  0  0  0  0  0  0  0  0  0
  -25.4237  -19.6607   20.1440 C   0  0  0  0  0  0  0  0  0  0  0  0
  -23.9286  -13.2608   20.6025 C   0  0  0  0  0  0  0  0  0  0  0  0
  -26.7039  -19.7564   20.7079 C   0  0  0  0  0  0  0  0  0  0  0  0
  -32.8417  -27.3507   16.0822 C   0  0  0  0  0  0  0  0  0  0  0  0
  -25.9998  -21.7295   21.9412 C   0  0  0  0  0  0  0  0  0  0  0  0
  -35.1358  -27.1567   15.6115 C   0  0  0  0  0  0  0  0  0  0  0  0
  -37.6140  -26.0234   16.2085 C   0  0  0  0  0  0  0  0  0  0  0  0
  -36.2092  -27.9739   15.9658 C   0  0  0  0  0  0  0  0  0  0  0  0
  -29.5383  -26.2098   18.4663 C   0  0  0  0  0  0  0  0  0  0  0  0
  -27.7023  -23.9107   24.3267 C   0  0  0  0  0  0  0  0  0  0  0  0
  -27.8889  -26.1605   24.6925 C   0  0  0  0  0  0  0  0  0  0  0  0
  -27.8845  -25.9397   26.0522 C   0  0  0  0  0  0  0  0  0  0  0  0
  -28.0533  -25.0722   19.6220 C   0  0  0  0  0  0  0  0  0  0  0  0
  -29.8436  -23.6594   18.5987 C   0  0  0  0  0  0  0  0  0  0  0  0
  -25.6825  -16.5107   20.4823 C   0  0  0  0  0  0  0  0  0  0  0  0
  -28.3892  -16.9384   18.7463 C   0  0  0  0  0  0  0  0  0  0  0  0
  -30.8837  -19.0385   17.7394 C   0  0  0  0  0  0  0  0  0  0  0  0
  -26.0790  -30.1137   22.4897 C   0  0  0  0  0  0  0  0  0  0  0  0
  -25.6732  -11.4062   20.5141 C   0  0  0  0  0  0  0  0  0  0  0  0
  -25.1071  -18.5742   19.1532 C   0  0  0  0  0  0  0  0  0  0  0  0
  -27.7925  -18.7698   20.3759 C   0  0  0  0  0  0  0  0  0  0  0  0
  -26.7167  -12.4974   20.7387 C   0  0  0  0  0  0  0  0  0  0  0  0
  -24.2611  -27.9388   20.1093 C   0  0  0  0  0  0  0  0  0  0  0  0
  -26.1923  -13.5444   21.7164 C   0  0  0  0  0  0  0  0  0  0  0  0
  -25.3946  -27.1934   19.4067 C   0  0  0  0  0  0  0  0  0  0  0  0
  -24.7055  -29.3126   20.6021 C   0  0  0  0  0  0  0  0  0  0  0  0
  -27.0464  -28.5337   20.7690 C   0  0  0  0  0  0  0  0  0  0  0  0
  -24.9399  -14.2361   21.1646 C   0  0  1  0  0  0  0  0  0  0  0  0
  -26.0186  -17.3583   19.2881 C   0  0  1  0  0  0  0  0  0  0  0  0
  -26.6447  -27.1268   20.3013 C   0  0  2  0  0  0  0  0  0  0  0  0
  -26.7151  -31.1639   25.5338 C   0  0  0  0  0  0  0  0  0  0  0  0
  -29.2523  -26.9798   27.8963 C   0  0  0  0  0  0  0  0  0  0  0  0
  -26.7399  -27.1850   27.9212 C   0  0  0  0  0  0  0  0  0  0  0  0
  -32.9064  -19.8117   16.4712 C   0  0  0  0  0  0  0  0  0  0  0  0
  -29.8899  -15.4629   20.9555 C   0  0  0  0  0  0  0  0  0  0  0  0
  -32.0259  -16.3646   20.0109 C   0  0  0  0  0  0  0  0  0  0  0  0
  -30.5929  -14.8578   18.6330 C   0  0  0  0  0  0  0  0  0  0  0  0
  -29.2395  -19.9988   15.4738 C   0  0  0  0  0  0  0  0  0  0  0  0
  -27.9955  -27.5362   24.1289 C   0  0  0  0  0  0  0  0  0  0  0  0
  -27.5982  -22.7608   23.3685 C   0  0  0  0  0  0  0  0  0  1  0  0
  -27.5567  -30.6175   24.3982 C   0  0  0  0  0  0  0  0  0  0  0  0
  -26.6795  -28.3228   24.1734 C   0  0  0  0  0  0  0  0  0  0  0  0
  -27.9860  -27.0664   27.0229 C   0  0  0  0  0  0  0  0  0  0  0  0
  -29.8341  -17.2290   19.0731 C   0  0  1  0  0  0  0  0  0  0  0  0
  -31.4708  -19.3206   16.3682 C   0  0  2  0  0  0  0  0  0  0  0  0
  -30.5648  -15.9962   19.6761 C   0  0  0  0  0  0  0  0  0  0  0  0
  -27.7896  -24.7006   26.5736 N   0  0  0  0  0  0  0  0  0  0  0  0
  -28.6871  -27.1342   18.9191 N   0  0  0  0  0  0  0  0  0  0  0  0
  -27.7976  -25.1499   23.8053 N   0  0  0  0  0  0  0  0  0  0  0  0
  -27.7954  -26.4115   19.6181 N   0  0  0  0  0  0  0  0  0  0  0  0
  -27.4321  -17.7219   19.4066 N   0  0  0  0  0  0  0  0  0  0  0  0
  -25.9199  -29.2249   21.4138 N   0  0  0  0  0  0  0  0  0  0  0  0
  -27.2567  -24.2009   20.2768 N   0  0  0  0  0  0  0  0  0  0  0  0
  -31.0039  -23.6698   17.8125 N   0  0  0  0  0  0  0  0  0  0  0  0
  -25.3037  -15.2197   20.1673 N   0  0  0  0  0  0  0  0  0  0  0  0
  -30.4356  -17.7388   17.8456 N   0  0  0  0  0  0  0  0  0  0  0  0
  -26.8158  -29.6569   23.5930 N   0  0  0  0  0  0  0  0  0  0  0  0
  -30.6677  -20.3604   15.6649 N   0  3  0  0  0  0  0  0  0  0  0  0
  -29.4000  -22.5659   19.0239 O   0  0  0  0  0  0  0  0  0  0  0  0
  -25.7625  -16.9919   21.6065 O   0  0  0  0  0  0  0  0  0  0  0  0
  -28.1199  -16.0539   17.9299 O   0  0  0  0  0  0  0  0  0  0  0  0
  -30.8315  -19.8852   18.6287 O   0  0  0  0  0  0  0  0  0  0  0  0
  -25.5824  -31.2472   22.4696 O   0  0  0  0  0  0  0  0  0  0  0  0
  -33.9048  -27.7177   15.3156 O   0  0  0  0  0  0  0  0  0  0  0  0
  -26.2818  -22.7308   22.8185 O   0  0  0  0  0  0  0  0  0  1  0  0
  -38.8035  -25.4790   16.4966 F   0  0  0  0  0  0  0  0  0  0  0  0
  -36.0558  -29.3040   16.0223 F   0  0  0  0  0  0  0  0  0  0  0  0
  1  2  1  0  0  0  0
  1  5  2  0  0  0  0
  2  6  2  0  0  0  0
  3  8  2  0  0  0  0
  3 16  1  0  0  0  0
  4  9  1  0  0  0  0
  4 16  2  0  0  0  0
  5 18  1  0  0  0  0
  6 20  1  0  0  0  0
  7 10  2  0  0  0  0
  7 19  1  0  0  0  0
  8 22  1  0  0  0  0
  9 22  2  0  0  0  0
 10 23  1  0  0  0  0
 11 12  2  0  0  0  0
 11 24  1  0  0  0  0
 12 25  1  0  0  0  0
 13 21  1  0  0  0  0
 13 23  2  0  0  0  0
 14 25  2  0  0  0  0
 14 26  1  0  0  0  0
 15 28  1  0  0  0  0
 15 65  2  0  0  0  0
 16 27  1  0  0  0  0
 17 27  1  0  0  0  0
 17 31  2  0  0  0  0
 17 32  1  0  0  0  0
 18 20  2  0  0  0  0
 18 37  1  0  0  0  0
 19 21  2  0  0  0  0
 19 38  1  0  0  0  0
 20 46  1  0  0  0  0
 21 39  1  0  0  0  0
 22 82  1  0  0  0  0
 23 83  1  0  0  0  0
 24 26  2  0  0  0  0
 24 82  1  0  0  0  0
 25 84  1  0  0  0  0
 26 85  1  0  0  0  0
 27 66  2  0  0  0  0
 28 58  1  0  0  0  0
 28 67  2  0  0  0  0
 29 30  2  0  0  0  0
 29 57  1  0  0  0  0
 29 67  1  0  0  0  0
 30 61  1  0  0  0  0
 30 65  1  0  0  0  0
 31 68  1  0  0  0  0
 31 71  1  0  0  0  0
 32 72  1  0  0  0  0
 32 77  2  0  0  0  0
 33 47  1  0  0  0  0
 33 73  1  0  0  0  0
 33 78  2  0  0  0  0
 34 62  1  0  0  0  0
 34 69  1  0  0  0  0
 34 79  2  0  0  0  0
 35 63  1  0  0  0  0
 35 74  1  0  0  0  0
 35 80  2  0  0  0  0
 36 70  1  0  0  0  0
 36 75  1  0  0  0  0
 36 81  2  0  0  0  0
 37 40  1  0  0  0  0
 38 47  1  0  0  0  0
 39 69  1  0  0  0  0
 40 42  1  0  0  0  0
 41 43  1  0  0  0  0
 41 44  1  0  0  0  0
 42 46  1  0  0  0  0
 43 48  1  0  0  0  0
 44 70  1  0  0  0  0
 45 48  1  0  0  0  0
 45 70  1  0  0  0  0
 46 73  1  0  0  0  0
 47 69  1  0  0  0  0
 48 68  1  0  0  0  0
 49 59  1  0  0  0  0
 50 61  1  0  0  0  0
 51 61  1  0  0  0  0
 52 63  1  0  0  0  0
 53 64  1  0  0  0  0
 54 64  1  0  0  0  0
 55 64  1  0  0  0  0
 56 76  1  0  0  0  0
 57 60  1  0  0  0  0
 58 83  1  0  0  0  0
 59 75  1  0  0  0  0
 60 75  1  0  0  0  0
 62 64  1  0  0  0  0
 62 74  1  0  0  0  0
 63 76  1  0  0  0  0
 66 68  1  0  0  0  0
M  CHG  1  76   1
M  ISO  4  36 100  58 101  75 100  83 101
M  END
> <Batch ID>
0054

> <Smiles>
CC[100N:0](CCc1nc([101CH2:1][101O:1]c2ccc3c(c2)CN(C(=O)C(NC(=O)C(C)NC)C(C)(C)C)C(C(=O)NC2CCCc4ccccc42)C3)cnc1C(C)C)[100C:0](=O)N1CCCC(n2nc(-c3ccc(Oc4ccc(F)cc4F)cc3)c(C(N)=O)c2N)C1

> <Shape>
0.197

> <Color>
0.069

> <Negative vol penalty>
0.000

$$$$

  -OEChem-04052317413D

 81 89  0     1  0  0  0  0  0999 V2000
  -17.7313  -22.2221   19.5135 C   0  0  0  0  0  0  0  0  0  0  0  0
  -19.0383  -21.7457   19.5171 C   0  0  0  0  0  0  0  0  0  0  0  0
  -23.0527   -9.8718   19.9266 C   0  0  0  0  0  0  0  0  0  0  0  0
  -23.8106   -9.8474   22.2205 C   0  0  0  0  0  0  0  0  0  0  0  0
  -16.6724  -21.3474   19.2735 C   0  0  0  0  0  0  0  0  0  0  0  0
  -19.2871  -20.3939   19.2819 C   0  0  0  0  0  0  0  0  0  0  0  0
  -23.1249  -19.6568   16.0611 C   0  0  0  0  0  0  0  0  0  0  0  0
  -22.3012   -8.7207   20.1626 C   0  0  0  0  0  0  0  0  0  0  0  0
  -23.0591   -8.6963   22.4566 C   0  0  0  0  0  0  0  0  0  0  0  0
  -24.4165  -19.7992   16.5663 C   0  0  0  0  0  0  0  0  0  0  0  0
  -19.3466   -7.9264   21.6023 C   0  0  0  0  0  0  0  0  0  0  0  0
  -18.0399   -7.8942   21.1156 C   0  0  0  0  0  0  0  0  0  0  0  0
  -24.6005  -17.4013   16.7551 C   0  0  0  0  0  0  0  0  0  0  0  0
  -18.5882   -5.9630   19.7714 C   0  0  0  0  0  0  0  0  0  0  0  0
  -29.4559  -18.3883   17.4383 C   0  0  0  0  0  0  0  0  0  0  0  0
  -23.8075  -10.4352   20.9555 C   0  0  0  0  0  0  0  0  0  0  0  0
  -24.1657  -12.9593   20.8649 C   0  0  0  0  0  0  0  0  0  0  0  0
  -16.9090  -19.9861   19.0256 C   0  0  0  0  0  0  0  0  0  0  0  0
  -22.5564  -18.3840   15.9090 C   0  0  0  0  0  0  0  0  0  0  0  0
  -18.2303  -19.5000   19.0397 C   0  0  0  0  0  0  0  0  0  0  0  0
  -23.3025  -17.2454   16.2453 C   0  0  0  0  0  0  0  0  0  0  0  0
  -22.3044   -8.1329   21.4276 C   0  0  0  0  0  0  0  0  0  0  0  0
  -25.1534  -18.6715   16.9162 C   0  0  0  0  0  0  0  0  0  0  0  0
  -20.2742   -6.9769   21.1736 C   0  0  0  0  0  0  0  0  0  0  0  0
  -17.6606   -6.9125   20.2001 C   0  0  0  0  0  0  0  0  0  0  0  0
  -19.8950   -5.9952   20.2582 C   0  0  0  0  0  0  0  0  0  0  0  0
  -24.5844  -11.6239   20.7121 C   0  0  0  0  0  0  0  0  0  0  0  0
  -30.6638  -18.6988   18.0291 C   0  0  0  0  0  0  0  0  0  0  0  0
  -28.4615  -17.9682   18.2979 C   0  0  0  0  0  0  0  0  0  0  0  0
  -25.2629  -13.7058   20.5111 C   0  0  0  0  0  0  0  0  0  0  0  0
  -29.8456  -18.1883   20.0875 C   0  0  0  0  0  0  0  0  0  0  0  0
  -22.8982  -13.4784   21.2888 C   0  0  0  0  0  0  0  0  0  0  0  0
  -20.0287  -16.8954   17.1332 C   0  0  0  0  0  0  0  0  0  0  0  0
  -20.8482  -14.5854   15.0084 C   0  0  0  0  0  0  0  0  0  0  0  0
  -23.2776  -13.1319   13.1026 C   0  0  0  0  0  0  0  0  0  0  0  0
  -30.7530  -14.6872   20.7155 C   0  0  0  0  0  0  0  0  0  0  0  0
  -15.7289  -19.0702   18.8182 C   0  0  0  0  0  0  0  0  0  0  0  0
  -21.1719  -18.2460   15.3375 C   0  0  0  0  0  0  0  0  0  0  0  0
  -22.7454  -15.8556   16.0821 C   0  0  0  0  0  0  0  0  0  0  0  0
  -16.1038  -17.7227   18.2066 C   0  0  0  0  0  0  0  0  0  0  0  0
  -29.6021  -12.3378   18.3005 C   0  0  0  0  0  0  0  0  0  0  0  0
  -17.3186  -17.1337   18.9166 C   0  0  0  0  0  0  0  0  0  0  0  0
  -28.1624  -12.0484   18.7289 C   0  0  0  0  0  0  0  0  0  0  0  0
  -30.5196  -12.5388   19.5046 C   0  0  0  0  0  0  0  0  0  0  0  0
  -28.6214  -13.2661   20.8980 C   0  0  0  0  0  0  0  0  0  0  0  0
  -18.5424  -18.0450   18.7641 C   0  0  1  0  0  0  0  0  0  0  0  0
  -20.5015  -16.9265   15.7073 C   0  0  1  0  0  0  0  0  0  0  0  0
  -27.6471  -13.1114   19.7177 C   0  0  2  0  0  0  0  0  0  0  0  0
  -31.7996  -19.1631   17.1803 C   0  0  0  0  0  0  0  0  0  0  0  0
  -23.6545  -11.2379   11.5000 C   0  0  0  0  0  0  0  0  0  0  0  0
  -20.8486  -12.6164   17.3393 C   0  0  0  0  0  0  0  0  0  0  0  0
  -22.1237  -11.0162   15.8965 C   0  0  0  0  0  0  0  0  0  0  0  0
  -19.8302  -11.7372   15.2312 C   0  0  0  0  0  0  0  0  0  0  0  0
  -24.0489  -14.9777   10.9215 C   0  0  0  0  0  0  0  0  0  0  0  0
  -27.1121  -17.6099   17.7481 C   0  0  0  0  0  0  0  0  0  1  0  0
  -30.0602  -18.0806   21.5593 C   0  0  0  0  0  0  0  0  0  0  0  0
  -30.8316  -16.8229   21.9772 C   0  0  0  0  0  0  0  0  0  0  0  0
  -21.7480  -13.3736   15.0407 C   0  0  1  0  0  0  0  0  0  0  0  0
  -23.2959  -12.7087   11.6449 C   0  0  2  0  0  0  0  0  0  0  0  0
  -21.1477  -12.2120   15.8819 C   0  0  0  0  0  0  0  0  0  0  0  0
  -25.8490  -11.5248   20.2937 N   0  0  0  0  0  0  0  0  0  0  0  0
  -30.8943  -18.6099   19.3555 N   0  0  0  0  0  0  0  0  0  0  0  0
  -28.6223  -17.8560   19.6327 N   0  0  0  0  0  0  0  0  0  0  0  0
  -26.2343  -12.8073   20.1805 N   0  0  0  0  0  0  0  0  0  0  0  0
  -21.3851  -15.7731   15.5252 N   0  0  0  0  0  0  0  0  0  0  0  0
  -29.9749  -13.5606   20.4019 N   0  0  0  0  0  0  0  0  0  0  0  0
  -25.4820  -15.0366   20.4537 N   0  0  0  0  0  0  0  0  0  0  0  0
  -21.8801  -12.5719   21.6147 N   0  0  0  0  0  0  0  0  0  0  0  0
  -19.1254  -17.8924   17.4483 N   0  0  0  0  0  0  0  0  0  0  0  0
  -22.0160  -13.0271   13.6491 N   0  0  0  0  0  0  0  0  0  0  0  0
  -30.1591  -15.6101   21.5677 N   0  0  0  0  0  0  0  0  0  0  0  0
  -24.2938  -13.5129   10.8844 N   0  3  0  0  0  0  0  0  0  0  0  0
  -22.6698  -14.7098   21.3601 O   0  0  0  0  0  0  0  0  0  0  0  0
  -20.4511  -16.0299   17.8910 O   0  0  0  0  0  0  0  0  0  0  0  0
  -19.7135  -14.4837   14.5354 O   0  0  0  0  0  0  0  0  0  0  0  0
  -24.2828  -13.5135   13.6980 O   0  0  0  0  0  0  0  0  0  0  0  0
  -31.8904  -14.8605   20.2648 O   0  0  0  0  0  0  0  0  0  0  0  0
  -21.5710   -7.0098   21.6584 O   0  0  0  0  0  0  0  0  0  0  0  0
  -26.4141  -18.8077   17.4102 O   0  0  0  0  0  0  0  0  0  1  0  0
  -16.4053   -6.8807   19.7340 F   0  0  0  0  0  0  0  0  0  0  0  0
  -20.7813   -5.0797   19.8435 F   0  0  0  0  0  0  0  0  0  0  0  0
  1  2  1  0  0  0  0
  1  5  2  0  0  0  0
  2  6  2  0  0  0  0
  3  8  2  0  0  0  0
  3 16  1  0  0  0  0
  4  9  1  0  0  0  0
  4 16  2  0  0  0  0
  5 18  1  0  0  0  0
  6 20  1  0  0  0  0
  7 10  2  0  0  0  0
  7 19  1  0  0  0  0
  8 22  1  0  0  0  0
  9 22  2  0  0  0  0
 10 23  1  0  0  0  0
 11 12  2  0  0  0  0
 11 24  1  0  0  0  0
 12 25  1  0  0  0  0
 13 21  1  0  0  0  0
 13 23  2  0  0  0  0
 14 25  2  0  0  0  0
 14 26  1  0  0  0  0
 15 28  2  0  0  0  0
 15 29  1  0  0  0  0
 16 27  1  0  0  0  0
 17 27  1  0  0  0  0
 17 30  2  0  0  0  0
 17 32  1  0  0  0  0
 18 20  2  0  0  0  0
 18 37  1  0  0  0  0
 19 21  2  0  0  0  0
 19 38  1  0  0  0  0
 20 46  1  0  0  0  0
 21 39  1  0  0  0  0
 22 78  1  0  0  0  0
 23 79  1  0  0  0  0
 24 26  2  0  0  0  0
 24 78  1  0  0  0  0
 25 80  1  0  0  0  0
 26 81  1  0  0  0  0
 27 61  2  0  0  0  0
 28 49  1  0  0  0  0
 28 62  1  0  0  0  0
 29 55  1  0  0  0  0
 29 63  2  0  0  0  0
 30 64  1  0  0  0  0
 30 67  1  0  0  0  0
 31 56  1  0  0  0  0
 31 62  2  0  0  0  0
 31 63  1  0  0  0  0
 32 68  1  0  0  0  0
 32 73  2  0  0  0  0
 33 47  1  0  0  0  0
 33 69  1  0  0  0  0
 33 74  2  0  0  0  0
 34 58  1  0  0  0  0
 34 65  1  0  0  0  0
 34 75  2  0  0  0  0
 35 59  1  0  0  0  0
 35 70  1  0  0  0  0
 35 76  2  0  0  0  0
 36 66  1  0  0  0  0
 36 71  1  0  0  0  0
 36 77  2  0  0  0  0
 37 40  1  0  0  0  0
 38 47  1  0  0  0  0
 39 65  1  0  0  0  0
 40 42  1  0  0  0  0
 41 43  1  0  0  0  0
 41 44  1  0  0  0  0
 42 46  1  0  0  0  0
 43 48  1  0  0  0  0
 44 66  1  0  0  0  0
 45 48  1  0  0  0  0
 45 66  1  0  0  0  0
 46 69  1  0  0  0  0
 47 65  1  0  0  0  0
 48 64  1  0  0  0  0
 50 59  1  0  0  0  0
 51 60  1  0  0  0  0
 52 60  1  0  0  0  0
 53 60  1  0  0  0  0
 54 72  1  0  0  0  0
 55 79  1  0  0  0  0
 56 57  1  0  0  0  0
 57 71  1  0  0  0  0
 58 60  1  0  0  0  0
 58 70  1  0  0  0  0
 59 72  1  0  0  0  0
 61 64  1  0  0  0  0
M  CHG  1  72   1
M  ISO  4  36 100  55 101  71 100  79 101
M  END
> <Batch ID>
0054

> <Smiles>
CNC(C)C(=O)NC(C(=O)N1Cc2cc([101O:1][101CH2:1]c3cc(C)nc(CC[100NH:0][100C:0](=O)N4CCCC(n5nc(-c6ccc(Oc7ccc(F)cc7F)cc6)c(C(N)=O)c5N)C4)n3)ccc2CC1C(=O)NC1CCCc2ccccc21)C(C)(C)C

> <Shape>
0.175

> <Color>
0.198

> <Negative vol penalty>
0.000

$$$$

  -OEChem-04052317413D

 80 88  0     1  0  0  0  0  0999 V2000
  -26.9681  -32.9395   17.6702 C   0  0  0  0  0  0  0  0  0  0  0  0
  -27.5152  -31.7935   18.2382 C   0  0  0  0  0  0  0  0  0  0  0  0
  -23.0361   -9.9008   19.9650 C   0  0  0  0  0  0  0  0  0  0  0  0
  -23.7758   -9.9399   22.2646 C   0  0  0  0  0  0  0  0  0  0  0  0
  -26.1366  -32.8350   16.5558 C   0  0  0  0  0  0  0  0  0  0  0  0
  -27.2303  -30.5421   17.6929 C   0  0  0  0  0  0  0  0  0  0  0  0
  -30.9867  -25.7144   17.3948 C   0  0  0  0  0  0  0  0  0  0  0  0
  -22.2905   -8.7508   20.2243 C   0  0  0  0  0  0  0  0  0  0  0  0
  -23.0302   -8.7899   22.5240 C   0  0  0  0  0  0  0  0  0  0  0  0
  -31.1138  -24.5745   18.1874 C   0  0  0  0  0  0  0  0  0  0  0  0
  -23.3274   -5.4607   22.0153 C   0  0  0  0  0  0  0  0  0  0  0  0
  -23.9370   -4.4457   22.7527 C   0  0  0  0  0  0  0  0  0  0  0  0
  -29.7177  -23.3536   16.6449 C   0  0  0  0  0  0  0  0  0  0  0  0
  -22.2206   -4.6420   24.4417 C   0  0  0  0  0  0  0  0  0  0  0  0
  -29.3397  -18.7091   20.8371 C   0  0  0  0  0  0  0  0  0  0  0  0
  -23.7788  -10.4953   20.9851 C   0  0  0  0  0  0  0  0  0  0  0  0
  -24.1206  -13.0187   20.8331 C   0  0  0  0  0  0  0  0  0  0  0  0
  -25.8492  -31.5826   15.9907 C   0  0  0  0  0  0  0  0  0  0  0  0
  -30.2139  -25.6854   16.2251 C   0  0  0  0  0  0  0  0  0  0  0  0
  -26.3932  -30.4207   16.5708 C   0  0  0  0  0  0  0  0  0  0  0  0
  -29.5844  -24.4938   15.8379 C   0  0  0  0  0  0  0  0  0  0  0  0
  -22.2876   -8.1954   21.5038 C   0  0  0  0  0  0  0  0  0  0  0  0
  -30.4769  -23.3947   17.8141 C   0  0  0  0  0  0  0  0  0  0  0  0
  -22.1644   -6.0664   22.4911 C   0  0  0  0  0  0  0  0  0  0  0  0
  -23.3836   -4.0364   23.9659 C   0  0  0  0  0  0  0  0  0  0  0  0
  -21.6110   -5.6571   23.7043 C   0  0  0  0  0  0  0  0  0  0  0  0
  -24.5496  -11.6829   20.7176 C   0  0  0  0  0  0  0  0  0  0  0  0
  -30.5452  -18.0463   20.9070 C   0  0  0  0  0  0  0  0  0  0  0  0
  -31.3562  -19.3424   19.2062 C   0  0  0  0  0  0  0  0  0  0  0  0
  -30.1503  -20.0045   19.1359 C   0  0  0  0  0  0  0  0  0  0  0  0
  -25.2156  -13.7637   20.4691 C   0  0  0  0  0  0  0  0  0  0  0  0
  -22.8463  -13.5396   21.2337 C   0  0  0  0  0  0  0  0  0  0  0  0
  -27.6082  -27.2032   15.2199 C   0  0  0  0  0  0  0  0  0  0  0  0
  -28.2455  -25.6473   12.4459 C   0  0  0  0  0  0  0  0  0  0  0  0
  -29.7278  -22.9999   10.8835 C   0  0  0  0  0  0  0  0  0  0  0  0
  -30.6971  -14.7882   20.6914 C   0  0  0  0  0  0  0  0  0  0  0  0
  -24.9071  -31.5157   14.8148 C   0  0  0  0  0  0  0  0  0  0  0  0
  -30.1086  -26.9162   15.3669 C   0  0  0  0  0  0  0  0  0  0  0  0
  -28.7599  -24.4048   14.5806 C   0  0  0  0  0  0  0  0  0  0  0  0
  -24.9559  -30.1840   14.0702 C   0  0  0  0  0  0  0  0  0  0  0  0
  -29.5814  -12.3702   18.3280 C   0  0  0  0  0  0  0  0  0  0  0  0
  -24.9147  -29.0199   15.0550 C   0  0  0  0  0  0  0  0  0  0  0  0
  -28.1404  -12.0818   18.7523 C   0  0  0  0  0  0  0  0  0  0  0  0
  -30.4879  -12.6082   19.5337 C   0  0  0  0  0  0  0  0  0  0  0  0
  -28.5738  -13.3573   20.8933 C   0  0  0  0  0  0  0  0  0  0  0  0
  -26.1276  -29.0475   15.9929 C   0  0  1  0  0  0  0  0  0  0  0  0
  -28.8762  -26.9140   14.4676 C   0  0  1  0  0  0  0  0  0  0  0  0
  -27.6101  -13.1659   19.7097 C   0  0  2  0  0  0  0  0  0  0  0  0
  -32.4875  -19.6898   18.3001 C   0  0  0  0  0  0  0  0  0  0  0  0
  -30.0439  -21.9770    8.6139 C   0  0  0  0  0  0  0  0  0  0  0  0
  -25.3827  -24.5948   12.5242 C   0  0  0  0  0  0  0  0  0  0  0  0
  -26.0406  -22.8799   10.8229 C   0  0  0  0  0  0  0  0  0  0  0  0
  -26.1709  -25.3066   10.2600 C   0  0  0  0  0  0  0  0  0  0  0  0
  -32.6689  -23.2940   11.0328 C   0  0  0  0  0  0  0  0  0  0  0  0
  -30.7512  -16.9557   21.8989 C   0  0  0  0  0  0  0  0  0  0  0  0
  -29.9194  -21.1064   18.1440 C   0  0  0  0  0  0  0  0  0  1  0  0
  -27.8605  -24.3120   11.8563 C   0  0  1  0  0  0  0  0  0  0  0  0
  -30.6179  -22.9241    9.6561 C   0  0  2  0  0  0  0  0  0  0  0  0
  -26.3776  -24.2752   11.3906 C   0  0  0  0  0  0  0  0  0  0  0  0
  -29.1205  -19.7001   19.9503 N   0  0  0  0  0  0  0  0  0  0  0  0
  -25.8181  -11.5820   20.3118 N   0  0  0  0  0  0  0  0  0  0  0  0
  -31.5752  -18.3511   20.0928 N   0  0  0  0  0  0  0  0  0  0  0  0
  -26.1956  -12.8638   20.1690 N   0  0  0  0  0  0  0  0  0  0  0  0
  -28.6819  -25.6367   13.7783 N   0  0  0  0  0  0  0  0  0  0  0  0
  -29.9292  -13.6485   20.4005 N   0  0  0  0  0  0  0  0  0  0  0  0
  -25.4261  -15.0941   20.3795 N   0  0  0  0  0  0  0  0  0  0  0  0
  -21.8319  -12.6347   21.5747 N   0  0  0  0  0  0  0  0  0  0  0  0
  -27.3035  -28.5478   15.3132 N   0  0  0  0  0  0  0  0  0  0  0  0
  -28.8263  -24.0397   10.7972 N   0  0  0  0  0  0  0  0  0  0  0  0
  -30.0902  -15.7282   21.5152 N   0  0  0  0  0  0  0  0  0  0  0  0
  -31.9774  -22.4423   10.0311 N   0  3  0  0  0  0  0  0  0  0  0  0
  -22.6091  -14.7708   21.2719 O   0  0  0  0  0  0  0  0  0  0  0  0
  -26.9537  -26.2751   15.6804 O   0  0  0  0  0  0  0  0  0  0  0  0
  -28.1690  -26.6614   11.7477 O   0  0  0  0  0  0  0  0  0  0  0  0
  -29.8203  -22.2130   11.8230 O   0  0  0  0  0  0  0  0  0  0  0  0
  -31.8369  -14.9579   20.2453 O   0  0  0  0  0  0  0  0  0  0  0  0
  -21.5600   -7.0734   21.7574 O   0  0  0  0  0  0  0  0  0  0  0  0
  -30.5988  -22.2808   18.5862 O   0  0  0  0  0  0  0  0  0  1  0  0
  -23.9683   -3.0607   24.6732 F   0  0  0  0  0  0  0  0  0  0  0  0
  -20.4933   -6.2344   24.1659 F   0  0  0  0  0  0  0  0  0  0  0  0
  1  2  1  0  0  0  0
  1  5  2  0  0  0  0
  2  6  2  0  0  0  0
  3  8  2  0  0  0  0
  3 16  1  0  0  0  0
  4  9  1  0  0  0  0
  4 16  2  0  0  0  0
  5 18  1  0  0  0  0
  6 20  1  0  0  0  0
  7 10  2  0  0  0  0
  7 19  1  0  0  0  0
  8 22  1  0  0  0  0
  9 22  2  0  0  0  0
 10 23  1  0  0  0  0
 11 12  2  0  0  0  0
 11 24  1  0  0  0  0
 12 25  1  0  0  0  0
 13 21  1  0  0  0  0
 13 23  2  0  0  0  0
 14 25  2  0  0  0  0
 14 26  1  0  0  0  0
 15 28  1  0  0  0  0
 15 60  2  0  0  0  0
 16 27  1  0  0  0  0
 17 27  1  0  0  0  0
 17 31  2  0  0  0  0
 17 32  1  0  0  0  0
 18 20  2  0  0  0  0
 18 37  1  0  0  0  0
 19 21  2  0  0  0  0
 19 38  1  0  0  0  0
 20 46  1  0  0  0  0
 21 39  1  0  0  0  0
 22 77  1  0  0  0  0
 23 78  1  0  0  0  0
 24 26  2  0  0  0  0
 24 77  1  0  0  0  0
 25 79  1  0  0  0  0
 26 80  1  0  0  0  0
 27 61  2  0  0  0  0
 28 55  1  0  0  0  0
 28 62  2  0  0  0  0
 29 30  2  0  0  0  0
 29 49  1  0  0  0  0
 29 62  1  0  0  0  0
 30 56  1  0  0  0  0
 30 60  1  0  0  0  0
 31 63  1  0  0  0  0
 31 66  1  0  0  0  0
 32 67  1  0  0  0  0
 32 72  2  0  0  0  0
 33 47  1  0  0  0  0
 33 68  1  0  0  0  0
 33 73  2  0  0  0  0
 34 57  1  0  0  0  0
 34 64  1  0  0  0  0
 34 74  2  0  0  0  0
 35 58  1  0  0  0  0
 35 69  1  0  0  0  0
 35 75  2  0  0  0  0
 36 65  1  0  0  0  0
 36 70  1  0  0  0  0
 36 76  2  0  0  0  0
 37 40  1  0  0  0  0
 38 47  1  0  0  0  0
 39 64  1  0  0  0  0
 40 42  1  0  0  0  0
 41 43  1  0  0  0  0
 41 44  1  0  0  0  0
 42 46  1  0  0  0  0
 43 48  1  0  0  0  0
 44 65  1  0  0  0  0
 45 48  1  0  0  0  0
 45 65  1  0  0  0  0
 46 68  1  0  0  0  0
 47 64  1  0  0  0  0
 48 63  1  0  0  0  0
 50 58  1  0  0  0  0
 51 59  1  0  0  0  0
 52 59  1  0  0  0  0
 53 59  1  0  0  0  0
 54 71  1  0  0  0  0
 55 70  1  0  0  0  0
 56 78  1  0  0  0  0
 57 59  1  0  0  0  0
 57 69  1  0  0  0  0
 58 71  1  0  0  0  0
 61 63  1  0  0  0  0
M  CHG  1  71   1
M  ISO  4  36 100  56 101  70 100  78 101
M  END
> <Batch ID>
0054

> <Smiles>
CNC(C)C(=O)NC(C(=O)N1Cc2cc([101O:1][101CH2:1]c3ncc(C[100NH:0][100C:0](=O)N4CCCC(n5nc(-c6ccc(Oc7ccc(F)cc7F)cc6)c(C(N)=O)c5N)C4)nc3C)ccc2CC1C(=O)NC1CCCc2ccccc21)C(C)(C)C

> <Shape>
0.226

> <Color>
0.216

> <Negative vol penalty>
0.000

$$$$

  -OEChem-04052317413D

 82 90  0     1  0  0  0  0  0999 V2000
  -31.5328  -12.8031   22.4350 C   0  0  0  0  0  0  0  0  0  0  0  0
  -30.9300  -13.9999   22.8086 C   0  0  0  0  0  0  0  0  0  0  0  0
  -24.9057  -30.7038   21.0644 C   0  0  0  0  0  0  0  0  0  0  0  0
  -24.9500  -29.2368   22.9835 C   0  0  0  0  0  0  0  0  0  0  0  0
  -31.0288  -12.0767   21.3569 C   0  0  0  0  0  0  0  0  0  0  0  0
  -29.8233  -14.4717   22.1035 C   0  0  0  0  0  0  0  0  0  0  0  0
  -26.1424  -16.1398   25.1553 C   0  0  0  0  0  0  0  0  0  0  0  0
  -24.3290  -31.7064   21.8441 C   0  0  0  0  0  0  0  0  0  0  0  0
  -24.3733  -30.2393   23.7632 C   0  0  0  0  0  0  0  0  0  0  0  0
  -26.3095  -17.4020   25.7235 C   0  0  0  0  0  0  0  0  0  0  0  0
  -25.3485  -33.9840   24.1258 C   0  0  0  0  0  0  0  0  0  0  0  0
  -25.8609  -35.2755   24.0038 C   0  0  0  0  0  0  0  0  0  0  0  0
  -24.8437  -18.3410   24.0536 C   0  0  0  0  0  0  0  0  0  0  0  0
  -23.6918  -36.0691   23.2949 C   0  0  0  0  0  0  0  0  0  0  0  0
  -28.3838  -23.1549   22.6000 C   0  0  0  0  0  0  0  0  0  0  0  0
  -25.2162  -29.4690   21.6341 C   0  0  0  0  0  0  0  0  0  0  0  0
  -27.1843  -28.2012   20.6207 C   0  0  0  0  0  0  0  0  0  0  0  0
  -29.9094  -12.5350   20.6443 C   0  0  0  0  0  0  0  0  0  0  0  0
  -25.3320  -15.9703   24.0236 C   0  0  0  0  0  0  0  0  0  0  0  0
  -29.3046  -13.7515   21.0141 C   0  0  0  0  0  0  0  0  0  0  0  0
  -24.6659  -17.0753   23.4745 C   0  0  0  0  0  0  0  0  0  0  0  0
  -24.0628  -31.4742   23.1935 C   0  0  0  0  0  0  0  0  0  0  0  0
  -25.6624  -18.5033   25.1709 C   0  0  0  0  0  0  0  0  0  0  0  0
  -24.0077  -33.7349   23.8323 C   0  0  0  0  0  0  0  0  0  0  0  0
  -25.0326  -36.3181   23.5883 C   0  0  0  0  0  0  0  0  0  0  0  0
  -23.1794  -34.7775   23.4168 C   0  0  0  0  0  0  0  0  0  0  0  0
  -25.8114  -28.4328   20.8291 C   0  0  0  0  0  0  0  0  0  0  0  0
  -27.1256  -23.0354   23.1194 C   0  0  0  0  0  0  0  0  0  0  0  0
  -27.2258  -27.1105   19.7869 C   0  0  0  0  0  0  0  0  0  0  0  0
  -27.0211  -22.5606   20.9598 C   0  0  0  0  0  0  0  0  0  0  0  0
  -28.3204  -28.9088   21.1348 C   0  0  0  0  0  0  0  0  0  0  0  0
  -25.8211  -14.9834   21.0419 C   0  0  0  0  0  0  0  0  0  0  0  0
  -22.5924  -15.2264   20.8457 C   0  0  0  0  0  0  0  0  0  0  0  0
  -19.7162  -16.6360   22.0236 C   0  0  0  0  0  0  0  0  0  0  0  0
  -24.0073  -22.1827   19.1226 C   0  0  0  0  0  0  0  0  0  0  0  0
  -29.4294  -11.7393   19.4564 C   0  0  0  0  0  0  0  0  0  0  0  0
  -25.1409  -14.5978   23.4387 C   0  0  0  0  0  0  0  0  0  0  0  0
  -23.7687  -16.9432   22.2720 C   0  0  0  0  0  0  0  0  0  0  0  0
  -28.0243  -12.1191   18.9964 C   0  0  0  0  0  0  0  0  0  0  0  0
  -24.0546  -24.9599   16.6758 C   0  0  0  0  0  0  0  0  0  0  0  0
  -27.8809  -13.6356   18.9152 C   0  0  0  0  0  0  0  0  0  0  0  0
  -24.5742  -26.1297   17.5098 C   0  0  0  0  0  0  0  0  0  0  0  0
  -23.3132  -23.9379   17.5323 C   0  0  0  0  0  0  0  0  0  0  0  0
  -24.6239  -24.6022   19.5210 C   0  0  0  0  0  0  0  0  0  0  0  0
  -28.0872  -14.2837   20.2895 C   0  0  1  0  0  0  0  0  0  0  0  0
  -24.7013  -14.6267   21.9781 C   0  0  1  0  0  0  0  0  0  0  0  0
  -25.4162  -25.6270   18.6954 C   0  0  2  0  0  0  0  0  0  0  0  0
  -17.2367  -16.6681   21.6382 C   0  0  0  0  0  0  0  0  0  0  0  0
  -22.9996  -16.9897   18.3891 C   0  0  0  0  0  0  0  0  0  0  0  0
  -20.6242  -17.7452   18.6238 C   0  0  0  0  0  0  0  0  0  0  0  0
  -21.1296  -15.3410   18.1914 C   0  0  0  0  0  0  0  0  0  0  0  0
  -29.3976  -22.8580   20.3277 C   0  0  0  0  0  0  0  0  0  0  0  0
  -25.0829  -20.2278   20.1718 C   0  0  0  0  0  0  0  0  0  0  0  0
  -19.1630  -15.6092   24.7437 C   0  0  0  0  0  0  0  0  0  0  0  0
  -26.6027  -23.2356   24.5195 C   0  0  0  0  0  0  0  0  0  0  0  0
  -26.4867  -22.1821   19.6279 C   0  0  0  0  0  0  0  0  0  0  0  0
  -26.6345  -21.9679   25.3759 C   0  0  0  0  0  0  0  0  0  0  0  0
  -25.7345  -20.8580   24.8454 C   0  0  0  0  0  0  0  0  0  1  0  0
  -21.6236  -16.3212   20.4689 C   0  0  1  0  0  0  0  0  0  0  0  0
  -18.3802  -16.0268   22.4088 C   0  0  2  0  0  0  0  0  0  0  0  0
  -21.6126  -16.6024   18.9398 C   0  0  0  0  0  0  0  0  0  0  0  0
  -25.0368  -27.5595   20.1799 N   0  0  0  0  0  0  0  0  0  0  0  0
  -28.2897  -22.8549   21.2624 N   0  0  0  0  0  0  0  0  0  0  0  0
  -25.9259  -26.7686   19.5554 N   0  0  0  0  0  0  0  0  0  0  0  0
  -26.3029  -22.6671   22.0824 N   0  3  0  0  0  0  0  0  0  0  0  0
  -23.6188  -15.5816   21.7324 N   0  0  0  0  0  0  0  0  0  0  0  0
  -24.1195  -23.5096   18.6758 N   0  0  0  0  0  0  0  0  0  0  0  0
  -28.2471  -26.4202   19.2366 N   0  0  0  0  0  0  0  0  0  0  0  0
  -28.0986  -30.0062   21.9779 N   0  0  0  0  0  0  0  0  0  0  0  0
  -26.9027  -14.1257   21.1058 N   0  0  0  0  0  0  0  0  0  0  0  0
  -20.3290  -15.9257   21.0131 N   0  0  0  0  0  0  0  0  0  0  0  0
  -25.1463  -21.6050   19.7037 N   0  0  0  0  0  0  0  0  0  0  0  0
  -18.1272  -16.2120   23.8657 N   0  3  0  0  0  0  0  0  0  0  0  0
  -29.4970  -28.5877   20.8417 O   0  0  0  0  0  0  0  0  0  0  0  0
  -25.7114  -15.9633   20.3143 O   0  0  0  0  0  0  0  0  0  0  0  0
  -22.4397  -14.0959   20.3764 O   0  0  0  0  0  0  0  0  0  0  0  0
  -20.1690  -17.6435   22.5626 O   0  0  0  0  0  0  0  0  0  0  0  0
  -22.9522  -21.5474   19.0000 O   0  0  0  0  0  0  0  0  0  0  0  0
  -23.5003  -32.4523   23.9547 O   0  0  0  0  0  0  0  0  0  0  0  0
  -25.8242  -19.7365   25.7231 O   0  0  0  0  0  0  0  0  0  1  0  0
  -25.5244  -37.5586   23.4727 F   0  0  0  0  0  0  0  0  0  0  0  0
  -21.8902  -34.5446   23.1346 F   0  0  0  0  0  0  0  0  0  0  0  0
  1  2  1  0  0  0  0
  1  5  2  0  0  0  0
  2  6  2  0  0  0  0
  3  8  2  0  0  0  0
  3 16  1  0  0  0  0
  4  9  1  0  0  0  0
  4 16  2  0  0  0  0
  5 18  1  0  0  0  0
  6 20  1  0  0  0  0
  7 10  2  0  0  0  0
  7 19  1  0  0  0  0
  8 22  1  0  0  0  0
  9 22  2  0  0  0  0
 10 23  1  0  0  0  0
 11 12  2  0  0  0  0
 11 24  1  0  0  0  0
 12 25  1  0  0  0  0
 13 21  1  0  0  0  0
 13 23  2  0  0  0  0
 14 25  2  0  0  0  0
 14 26  1  0  0  0  0
 15 28  2  0  0  0  0
 15 63  1  0  0  0  0
 16 27  1  0  0  0  0
 17 27  1  0  0  0  0
 17 29  2  0  0  0  0
 17 31  1  0  0  0  0
 18 20  2  0  0  0  0
 18 36  1  0  0  0  0
 19 21  2  0  0  0  0
 19 37  1  0  0  0  0
 20 45  1  0  0  0  0
 21 38  1  0  0  0  0
 22 79  1  0  0  0  0
 23 80  1  0  0  0  0
 24 26  2  0  0  0  0
 24 79  1  0  0  0  0
 25 81  1  0  0  0  0
 26 82  1  0  0  0  0
 27 62  2  0  0  0  0
 28 55  1  0  0  0  0
 28 65  1  0  0  0  0
 29 64  1  0  0  0  0
 29 68  1  0  0  0  0
 30 56  1  0  0  0  0
 30 63  1  0  0  0  0
 30 65  2  0  0  0  0
 31 69  1  0  0  0  0
 31 74  2  0  0  0  0
 32 46  1  0  0  0  0
 32 70  1  0  0  0  0
 32 75  2  0  0  0  0
 33 59  1  0  0  0  0
 33 66  1  0  0  0  0
 33 76  2  0  0  0  0
 34 60  1  0  0  0  0
 34 71  1  0  0  0  0
 34 77  2  0  0  0  0
 35 67  1  0  0  0  0
 35 72  1  0  0  0  0
 35 78  2  0  0  0  0
 36 39  1  0  0  0  0
 37 46  1  0  0  0  0
 38 66  1  0  0  0  0
 39 41  1  0  0  0  0
 40 42  1  0  0  0  0
 40 43  1  0  0  0  0
 41 45  1  0  0  0  0
 42 47  1  0  0  0  0
 43 67  1  0  0  0  0
 44 47  1  0  0  0  0
 44 67  1  0  0  0  0
 45 70  1  0  0  0  0
 46 66  1  0  0  0  0
 47 64  1  0  0  0  0
 48 60  1  0  0  0  0
 49 61  1  0  0  0  0
 50 61  1  0  0  0  0
 51 61  1  0  0  0  0
 52 63  1  0  0  0  0
 53 72  1  0  0  0  0
 54 73  1  0  0  0  0
 55 57  1  0  0  0  0
 56 72  1  0  0  0  0
 57 58  1  0  0  0  0
 58 80  1  0  0  0  0
 59 61  1  0  0  0  0
 59 71  1  0  0  0  0
 60 73  1  0  0  0  0
 62 64  1  0  0  0  0
M  CHG  2  65   1  73   1
M  ISO  4  35 100  58 101  72 100  80 101
M  END
> <Batch ID>
0054

> <Smiles>
CNC(C)C(=O)NC(C(=O)N1Cc2cc([101O:1][101CH2:1]CCc3cn(C)c(C[100N:0](C)[100C:0](=O)N4CCCC(n5nc(-c6ccc(Oc7ccc(F)cc7F)cc6)c(C(N)=O)c5N)C4)n3)ccc2CC1C(=O)NC1CCCc2ccccc21)C(C)(C)C

> <Shape>
0.195

> <Color>
0.082

> <Negative vol penalty>
0.000

$$$$

  -OEChem-04052317413D

 82 90  0     1  0  0  0  0  0999 V2000
  -21.8382  -12.2696   19.3689 C   0  0  0  0  0  0  0  0  0  0  0  0
  -21.7433  -13.5822   19.8200 C   0  0  0  0  0  0  0  0  0  0  0  0
  -24.2569  -30.6018   19.8055 C   0  0  0  0  0  0  0  0  0  0  0  0
  -24.1780  -28.9535   21.5701 C   0  0  0  0  0  0  0  0  0  0  0  0
  -23.0348  -11.5688   19.5138 C   0  0  0  0  0  0  0  0  0  0  0  0
  -22.8446  -14.1944   20.4171 C   0  0  0  0  0  0  0  0  0  0  0  0
  -23.5986  -18.9090   18.7292 C   0  0  0  0  0  0  0  0  0  0  0  0
  -25.3673  -31.1933   20.4077 C   0  0  0  0  0  0  0  0  0  0  0  0
  -25.2885  -29.5450   22.1723 C   0  0  0  0  0  0  0  0  0  0  0  0
  -22.7736  -19.9087   19.2427 C   0  0  0  0  0  0  0  0  0  0  0  0
  -27.8819  -30.8360   24.3672 C   0  0  0  0  0  0  0  0  0  0  0  0
  -27.8426  -31.0334   25.7474 C   0  0  0  0  0  0  0  0  0  0  0  0
  -24.5278  -20.5678   20.7618 C   0  0  0  0  0  0  0  0  0  0  0  0
  -25.8933  -32.4376   25.4911 C   0  0  0  0  0  0  0  0  0  0  0  0
  -20.9095  -24.2511   20.8082 C   0  0  0  0  0  0  0  0  0  0  0  0
  -23.6622  -29.4818   20.3868 C   0  0  0  0  0  0  0  0  0  0  0  0
  -22.5156  -27.8418   18.8047 C   0  0  0  0  0  0  0  0  0  0  0  0
  -24.1543  -12.1759   20.1042 C   0  0  0  0  0  0  0  0  0  0  0  0
  -24.8928  -18.7238   19.2365 C   0  0  0  0  0  0  0  0  0  0  0  0
  -24.0569  -13.5007   20.5712 C   0  0  0  0  0  0  0  0  0  0  0  0
  -25.3682  -19.5667   20.2513 C   0  0  0  0  0  0  0  0  0  0  0  0
  -25.8831  -30.6649   21.5911 C   0  0  0  0  0  0  0  0  0  0  0  0
  -23.2371  -20.7364   20.2611 C   0  0  0  0  0  0  0  0  0  0  0  0
  -26.9269  -31.4394   23.5488 C   0  0  0  0  0  0  0  0  0  0  0  0
  -26.8483  -31.8342   26.3094 C   0  0  0  0  0  0  0  0  0  0  0  0
  -25.9327  -32.2402   24.1108 C   0  0  0  0  0  0  0  0  0  0  0  0
  -22.5148  -28.8707   19.7655 C   0  0  0  0  0  0  0  0  0  0  0  0
  -20.4130  -22.9741   20.8645 C   0  0  0  0  0  0  0  0  0  0  0  0
  -21.1866  -27.6194   18.5387 C   0  0  0  0  0  0  0  0  0  0  0  0
  -19.1462  -24.9566   22.0299 C   0  0  0  0  0  0  0  0  0  0  0  0
  -23.6190  -27.1489   18.2062 C   0  0  0  0  0  0  0  0  0  0  0  0
  -26.4034  -16.3512   20.7171 C   0  0  0  0  0  0  0  0  0  0  0  0
  -28.9747  -18.3004   20.3836 C   0  0  0  0  0  0  0  0  0  0  0  0
  -30.1747  -21.4690   19.9751 C   0  0  0  0  0  0  0  0  0  0  0  0
  -16.3315  -28.9354   22.0364 C   0  0  0  0  0  0  0  0  0  0  0  0
  -25.4120  -11.3627   20.2818 C   0  0  0  0  0  0  0  0  0  0  0  0
  -25.7798  -17.6582   18.6534 C   0  0  0  0  0  0  0  0  0  0  0  0
  -26.7568  -19.4223   20.8164 C   0  0  0  0  0  0  0  0  0  0  0  0
  -26.6460  -12.2080   20.5864 C   0  0  0  0  0  0  0  0  0  0  0  0
  -16.9451  -29.8200   18.4949 C   0  0  0  0  0  0  0  0  0  0  0  0
  -26.3331  -13.2402   21.6651 C   0  0  0  0  0  0  0  0  0  0  0  0
  -18.4585  -29.6547   18.3677 C   0  0  0  0  0  0  0  0  0  0  0  0
  -16.5320  -30.1850   19.9175 C   0  0  0  0  0  0  0  0  0  0  0  0
  -18.5461  -29.0737   20.8244 C   0  0  0  0  0  0  0  0  0  0  0  0
  -25.2371  -14.2074   21.2018 C   0  0  1  0  0  0  0  0  0  0  0  0
  -26.8960  -17.2264   19.5995 C   0  0  1  0  0  0  0  0  0  0  0  0
  -18.9916  -28.6602   19.4137 C   0  0  2  0  0  0  0  0  0  0  0  0
  -14.4097  -26.6425   23.3865 C   0  0  0  0  0  0  0  0  0  0  0  0
  -32.3224  -22.7515   19.7748 C   0  0  0  0  0  0  0  0  0  0  0  0
  -29.4190  -18.0212   23.3894 C   0  0  0  0  0  0  0  0  0  0  0  0
  -30.9301  -20.0144   23.2807 C   0  0  0  0  0  0  0  0  0  0  0  0
  -31.5067  -17.9438   22.0147 C   0  0  0  0  0  0  0  0  0  0  0  0
  -29.4771  -22.4407   17.2681 C   0  0  0  0  0  0  0  0  0  0  0  0
  -21.1274  -21.8327   20.2027 C   0  0  0  0  0  0  0  0  0  1  0  0
  -18.4055  -26.0613   22.7010 C   0  0  0  0  0  0  0  0  0  0  0  0
  -15.7320  -27.2799   23.7625 C   0  0  0  0  0  0  0  0  0  0  0  0
  -17.1901  -26.5587   21.9080 C   0  0  0  0  0  0  0  0  0  0  0  0
  -29.5997  -19.3968   21.2120 C   0  0  1  0  0  0  0  0  0  0  0  0
  -31.2096  -22.0391   19.0219 C   0  0  2  0  0  0  0  0  0  0  0  0
  -30.3370  -18.8458   22.4651 C   0  0  0  0  0  0  0  0  0  0  0  0
  -20.2822  -25.2816   21.3950 N   0  0  0  0  0  0  0  0  0  0  0  0
  -21.2830  -29.2741   20.0880 N   0  0  0  0  0  0  0  0  0  0  0  0
  -19.2669  -22.7083   21.5170 N   0  0  0  0  0  0  0  0  0  0  0  0
  -18.6111  -23.7229   22.1178 N   0  0  0  0  0  0  0  0  0  0  0  0
  -20.4974  -28.4947   19.3254 N   0  0  0  0  0  0  0  0  0  0  0  0
  -27.5839  -18.3617   20.2176 N   0  0  0  0  0  0  0  0  0  0  0  0
  -17.0877  -29.2486   20.8950 N   0  0  0  0  0  0  0  0  0  0  0  0
  -20.5519  -26.7624   17.7108 N   0  0  0  0  0  0  0  0  0  0  0  0
  -24.9189  -27.5021   18.5933 N   0  0  0  0  0  0  0  0  0  0  0  0
  -25.7832  -15.1918   20.2922 N   0  0  0  0  0  0  0  0  0  0  0  0
  -30.4510  -20.1589   20.3049 N   0  0  0  0  0  0  0  0  0  0  0  0
  -16.5025  -27.6556   22.5856 N   0  0  0  0  0  0  0  0  0  0  0  0
  -30.5743  -23.0131   18.0899 N   0  3  0  0  0  0  0  0  0  0  0  0
  -23.4575  -26.2547   17.3414 O   0  0  0  0  0  0  0  0  0  0  0  0
  -26.5747  -16.7011   21.8789 O   0  0  0  0  0  0  0  0  0  0  0  0
  -29.6950  -17.4259   19.8956 O   0  0  0  0  0  0  0  0  0  0  0  0
  -29.2191  -22.1217   20.3888 O   0  0  0  0  0  0  0  0  0  0  0  0
  -15.5410  -29.7497   22.5305 O   0  0  0  0  0  0  0  0  0  0  0  0
  -26.9668  -31.2418   22.1788 O   0  0  0  0  0  0  0  0  0  0  0  0
  -22.4336  -21.7126   20.7646 O   0  0  0  0  0  0  0  0  0  1  0  0
  -26.8098  -32.0225   27.6350 F   0  0  0  0  0  0  0  0  0  0  0  0
  -25.0118  -32.8216   23.3298 F   0  0  0  0  0  0  0  0  0  0  0  0
  1  2  1  0  0  0  0
  1  5  2  0  0  0  0
  2  6  2  0  0  0  0
  3  8  2  0  0  0  0
  3 16  1  0  0  0  0
  4  9  1  0  0  0  0
  4 16  2  0  0  0  0
  5 18  1  0  0  0  0
  6 20  1  0  0  0  0
  7 10  2  0  0  0  0
  7 19  1  0  0  0  0
  8 22  1  0  0  0  0
  9 22  2  0  0  0  0
 10 23  1  0  0  0  0
 11 12  2  0  0  0  0
 11 24  1  0  0  0  0
 12 25  1  0  0  0  0
 13 21  1  0  0  0  0
 13 23  2  0  0  0  0
 14 25  2  0  0  0  0
 14 26  1  0  0  0  0
 15 28  1  0  0  0  0
 15 61  2  0  0  0  0
 16 27  1  0  0  0  0
 17 27  1  0  0  0  0
 17 29  2  0  0  0  0
 17 31  1  0  0  0  0
 18 20  2  0  0  0  0
 18 36  1  0  0  0  0
 19 21  2  0  0  0  0
 19 37  1  0  0  0  0
 20 45  1  0  0  0  0
 21 38  1  0  0  0  0
 22 79  1  0  0  0  0
 23 80  1  0  0  0  0
 24 26  2  0  0  0  0
 24 79  1  0  0  0  0
 25 81  1  0  0  0  0
 26 82  1  0  0  0  0
 27 62  2  0  0  0  0
 28 54  1  0  0  0  0
 28 63  2  0  0  0  0
 29 65  1  0  0  0  0
 29 68  1  0  0  0  0
 30 55  1  0  0  0  0
 30 61  1  0  0  0  0
 30 64  2  0  0  0  0
 31 69  1  0  0  0  0
 31 74  2  0  0  0  0
 32 46  1  0  0  0  0
 32 70  1  0  0  0  0
 32 75  2  0  0  0  0
 33 58  1  0  0  0  0
 33 66  1  0  0  0  0
 33 76  2  0  0  0  0
 34 59  1  0  0  0  0
 34 71  1  0  0  0  0
 34 77  2  0  0  0  0
 35 67  1  0  0  0  0
 35 72  1  0  0  0  0
 35 78  2  0  0  0  0
 36 39  1  0  0  0  0
 37 46  1  0  0  0  0
 38 66  1  0  0  0  0
 39 41  1  0  0  0  0
 40 42  1  0  0  0  0
 40 43  1  0  0  0  0
 41 45  1  0  0  0  0
 42 47  1  0  0  0  0
 43 67  1  0  0  0  0
 44 47  1  0  0  0  0
 44 67  1  0  0  0  0
 45 70  1  0  0  0  0
 46 66  1  0  0  0  0
 47 65  1  0  0  0  0
 48 56  1  0  0  0  0
 49 59  1  0  0  0  0
 50 60  1  0  0  0  0
 51 60  1  0  0  0  0
 52 60  1  0  0  0  0
 53 73  1  0  0  0  0
 54 80  1  0  0  0  0
 55 57  1  0  0  0  0
 56 72  1  0  0  0  0
 57 72  1  0  0  0  0
 58 60  1  0  0  0  0
 58 71  1  0  0  0  0
 59 73  1  0  0  0  0
 62 65  1  0  0  0  0
 63 64  1  0  0  0  0
M  CHG  1  73   1
M  ISO  4  35 100  54 101  72 100  80 101
M  END
> <Batch ID>
0054

> <Smiles>
CC[100N:0](CCc1ncc([101CH2:1][101O:1]c2ccc3c(c2)CN(C(=O)C(NC(=O)C(C)NC)C(C)(C)C)C(C(=O)NC2CCCc4ccccc42)C3)nn1)[100C:0](=O)N1CCCC(n2nc(-c3ccc(Oc4ccc(F)cc4F)cc3)c(C(N)=O)c2N)C1

> <Shape>
0.243

> <Color>
0.067

> <Negative vol penalty>
0.000

$$$$

  -OEChem-04052317413D

 83 91  0     1  0  0  0  0  0999 V2000
  -29.4284  -31.2080   24.5147 C   0  0  0  0  0  0  0  0  0  0  0  0
  -30.2398  -30.3881   23.7370 C   0  0  0  0  0  0  0  0  0  0  0  0
  -23.0914   -9.8637   19.9747 C   0  0  0  0  0  0  0  0  0  0  0  0
  -23.8318   -9.9304   22.2735 C   0  0  0  0  0  0  0  0  0  0  0  0
  -28.0998  -30.8543   24.7463 C   0  0  0  0  0  0  0  0  0  0  0  0
  -29.7234  -29.2134   23.1913 C   0  0  0  0  0  0  0  0  0  0  0  0
  -30.3166  -25.0042   17.4253 C   0  0  0  0  0  0  0  0  0  0  0  0
  -22.3491   -8.7147   20.2471 C   0  0  0  0  0  0  0  0  0  0  0  0
  -23.0894   -8.7814   22.5459 C   0  0  0  0  0  0  0  0  0  0  0  0
  -30.5301  -23.6695   17.0835 C   0  0  0  0  0  0  0  0  0  0  0  0
  -19.8588   -7.9881   23.1410 C   0  0  0  0  0  0  0  0  0  0  0  0
  -19.0920   -7.9749   24.3062 C   0  0  0  0  0  0  0  0  0  0  0  0
  -28.1982  -23.1999   17.4849 C   0  0  0  0  0  0  0  0  0  0  0  0
  -20.3332   -6.0605   25.1011 C   0  0  0  0  0  0  0  0  0  0  0  0
  -27.0434  -18.8157   19.8888 C   0  0  0  0  0  0  0  0  0  0  0  0
  -23.8329  -10.4715   20.9879 C   0  0  0  0  0  0  0  0  0  0  0  0
  -24.1679  -12.9940   20.8077 C   0  0  0  0  0  0  0  0  0  0  0  0
  -27.5641  -29.6796   24.1951 C   0  0  0  0  0  0  0  0  0  0  0  0
  -29.0424  -25.4451   17.8106 C   0  0  0  0  0  0  0  0  0  0  0  0
  -28.3867  -28.8430   23.4168 C   0  0  0  0  0  0  0  0  0  0  0  0
  -27.9706  -24.5412   17.8286 C   0  0  0  0  0  0  0  0  0  0  0  0
  -22.3480   -8.1735   21.5327 C   0  0  0  0  0  0  0  0  0  0  0  0
  -29.4715  -22.7665   17.1160 C   0  0  0  0  0  0  0  0  0  0  0  0
  -20.8626   -7.0375   22.9559 C   0  0  0  0  0  0  0  0  0  0  0  0
  -19.3293   -7.0111   25.2862 C   0  0  0  0  0  0  0  0  0  0  0  0
  -21.0999   -6.0738   23.9359 C   0  0  0  0  0  0  0  0  0  0  0  0
  -24.6004  -11.6582   20.7069 C   0  0  0  0  0  0  0  0  0  0  0  0
  -27.0083  -19.0587   21.2329 C   0  0  0  0  0  0  0  0  0  0  0  0
  -25.2608  -13.7378   20.4350 C   0  0  0  0  0  0  0  0  0  0  0  0
  -29.0663  -18.4374   20.7044 C   0  0  0  0  0  0  0  0  0  0  0  0
  -22.8923  -13.5159   21.2030 C   0  0  0  0  0  0  0  0  0  0  0  0
  -27.8116  -26.7129   20.4529 C   0  0  0  0  0  0  0  0  0  0  0  0
  -25.1635  -27.0204   18.6048 C   0  0  0  0  0  0  0  0  0  0  0  0
  -23.3801  -25.9540   15.8975 C   0  0  0  0  0  0  0  0  0  0  0  0
  -30.7395  -14.7794   20.6439 C   0  0  0  0  0  0  0  0  0  0  0  0
  -26.1354  -29.3148   24.5123 C   0  0  0  0  0  0  0  0  0  0  0  0
  -28.8229  -26.8938   18.1506 C   0  0  0  0  0  0  0  0  0  0  0  0
  -26.5792  -24.9686   18.2157 C   0  0  0  0  0  0  0  0  0  0  0  0
  -25.5606  -28.2444   23.5881 C   0  0  0  0  0  0  0  0  0  0  0  0
  -29.6296  -12.3324   18.3079 C   0  0  0  0  0  0  0  0  0  0  0  0
  -26.5476  -27.0928   23.4262 C   0  0  0  0  0  0  0  0  0  0  0  0
  -28.1894  -12.0448   18.7360 C   0  0  0  0  0  0  0  0  0  0  0  0
  -30.5358  -12.5861   19.5106 C   0  0  0  0  0  0  0  0  0  0  0  0
  -28.6201  -13.3452   20.8625 C   0  0  0  0  0  0  0  0  0  0  0  0
  -27.8561  -27.5733   22.7871 C   0  0  1  0  0  0  0  0  0  0  0  0
  -27.5932  -27.1229   19.0240 C   0  0  1  0  0  0  0  0  0  0  0  0
  -27.6565  -13.1381   19.6815 C   0  0  2  0  0  0  0  0  0  0  0  0
  -25.8131  -21.0197   22.2390 C   0  0  0  0  0  0  0  0  0  0  0  0
  -21.2359  -26.3713   14.6624 C   0  0  0  0  0  0  0  0  0  0  0  0
  -23.6230  -25.5428   20.7850 C   0  0  0  0  0  0  0  0  0  0  0  0
  -21.7862  -25.1563   19.1281 C   0  0  0  0  0  0  0  0  0  0  0  0
  -22.4062  -27.4829   19.7801 C   0  0  0  0  0  0  0  0  0  0  0  0
  -24.8170  -26.7007   13.4203 C   0  0  0  0  0  0  0  0  0  0  0  0
  -25.9178  -19.4920   22.1102 C   0  0  0  0  0  0  0  0  0  0  0  0
  -30.5040  -18.0886   20.8241 C   0  0  0  0  0  0  0  0  0  0  0  0
  -29.6182  -19.1831   17.5280 C   0  0  0  0  0  0  0  0  0  0  0  0
  -28.8261  -18.0675   18.2136 C   0  0  0  0  0  0  0  0  0  0  0  0
  -30.7882  -16.9603   21.8273 C   0  0  0  0  0  0  0  0  0  0  0  0
  -28.8452  -20.4921   17.4167 C   0  0  0  0  0  0  0  0  0  1  0  0
  -23.9660  -26.1532   18.2999 C   0  0  1  0  0  0  0  0  0  0  0  0
  -22.7133  -26.7164   14.7667 C   0  0  2  0  0  0  0  0  0  0  0  0
  -22.9718  -26.0750   19.4928 C   0  0  0  0  0  0  0  0  0  0  0  0
  -25.8691  -11.5561   20.3018 N   0  0  0  0  0  0  0  0  0  0  0  0
  -28.3288  -18.4335   19.5892 N   0  0  0  0  0  0  0  0  0  0  0  0
  -26.2431  -12.8373   20.1447 N   0  0  0  0  0  0  0  0  0  0  0  0
  -28.2733  -18.8164   21.7118 N   0  3  0  0  0  0  0  0  0  0  0  0
  -26.4166  -26.3941   18.5457 N   0  0  0  0  0  0  0  0  0  0  0  0
  -29.9746  -13.6346   20.3660 N   0  0  0  0  0  0  0  0  0  0  0  0
  -25.4677  -15.0678   20.3306 N   0  0  0  0  0  0  0  0  0  0  0  0
  -21.8804  -12.6121   21.5543 N   0  0  0  0  0  0  0  0  0  0  0  0
  -27.6876  -27.7476   21.3603 N   0  0  0  0  0  0  0  0  0  0  0  0
  -23.3835  -26.6794   17.0702 N   0  0  0  0  0  0  0  0  0  0  0  0
  -30.1304  -15.7269   21.4575 N   0  0  0  0  0  0  0  0  0  0  0  0
  -23.3651  -26.3898   13.4669 N   0  3  0  0  0  0  0  0  0  0  0  0
  -22.6518  -14.7468   21.2276 O   0  0  0  0  0  0  0  0  0  0  0  0
  -28.0717  -25.5440   20.7131 O   0  0  0  0  0  0  0  0  0  0  0  0
  -24.9939  -28.2113   18.8780 O   0  0  0  0  0  0  0  0  0  0  0  0
  -23.8477  -24.8263   15.7557 O   0  0  0  0  0  0  0  0  0  0  0  0
  -31.8787  -14.9473   20.1956 O   0  0  0  0  0  0  0  0  0  0  0  0
  -21.6235   -7.0525   21.7989 O   0  0  0  0  0  0  0  0  0  0  0  0
  -29.6773  -21.4631   16.7834 O   0  0  0  0  0  0  0  0  0  1  0  0
  -18.5939   -6.9995   26.4057 F   0  0  0  0  0  0  0  0  0  0  0  0
  -22.0637   -5.1587   23.7642 F   0  0  0  0  0  0  0  0  0  0  0  0
  1  2  1  0  0  0  0
  1  5  2  0  0  0  0
  2  6  2  0  0  0  0
  3  8  2  0  0  0  0
  3 16  1  0  0  0  0
  4  9  1  0  0  0  0
  4 16  2  0  0  0  0
  5 18  1  0  0  0  0
  6 20  1  0  0  0  0
  7 10  2  0  0  0  0
  7 19  1  0  0  0  0
  8 22  1  0  0  0  0
  9 22  2  0  0  0  0
 10 23  1  0  0  0  0
 11 12  2  0  0  0  0
 11 24  1  0  0  0  0
 12 25  1  0  0  0  0
 13 21  1  0  0  0  0
 13 23  2  0  0  0  0
 14 25  2  0  0  0  0
 14 26  1  0  0  0  0
 15 28  2  0  0  0  0
 15 64  1  0  0  0  0
 16 27  1  0  0  0  0
 17 27  1  0  0  0  0
 17 29  2  0  0  0  0
 17 31  1  0  0  0  0
 18 20  2  0  0  0  0
 18 36  1  0  0  0  0
 19 21  2  0  0  0  0
 19 37  1  0  0  0  0
 20 45  1  0  0  0  0
 21 38  1  0  0  0  0
 22 80  1  0  0  0  0
 23 81  1  0  0  0  0
 24 26  2  0  0  0  0
 24 80  1  0  0  0  0
 25 82  1  0  0  0  0
 26 83  1  0  0  0  0
 27 63  2  0  0  0  0
 28 54  1  0  0  0  0
 28 66  1  0  0  0  0
 29 65  1  0  0  0  0
 29 69  1  0  0  0  0
 30 55  1  0  0  0  0
 30 64  1  0  0  0  0
 30 66  2  0  0  0  0
 31 70  1  0  0  0  0
 31 75  2  0  0  0  0
 32 46  1  0  0  0  0
 32 71  1  0  0  0  0
 32 76  2  0  0  0  0
 33 60  1  0  0  0  0
 33 67  1  0  0  0  0
 33 77  2  0  0  0  0
 34 61  1  0  0  0  0
 34 72  1  0  0  0  0
 34 78  2  0  0  0  0
 35 68  1  0  0  0  0
 35 73  1  0  0  0  0
 35 79  2  0  0  0  0
 36 39  1  0  0  0  0
 37 46  1  0  0  0  0
 38 67  1  0  0  0  0
 39 41  1  0  0  0  0
 40 42  1  0  0  0  0
 40 43  1  0  0  0  0
 41 45  1  0  0  0  0
 42 47  1  0  0  0  0
 43 68  1  0  0  0  0
 44 47  1  0  0  0  0
 44 68  1  0  0  0  0
 45 71  1  0  0  0  0
 46 67  1  0  0  0  0
 47 65  1  0  0  0  0
 48 54  1  0  0  0  0
 49 61  1  0  0  0  0
 50 62  1  0  0  0  0
 51 62  1  0  0  0  0
 52 62  1  0  0  0  0
 53 74  1  0  0  0  0
 55 58  1  0  0  0  0
 56 57  1  0  0  0  0
 56 59  1  0  0  0  0
 57 64  1  0  0  0  0
 58 73  1  0  0  0  0
 59 81  1  0  0  0  0
 60 62  1  0  0  0  0
 60 72  1  0  0  0  0
 61 74  1  0  0  0  0
 63 65  1  0  0  0  0
M  CHG  2  66   1  74   1
M  ISO  4  35 100  59 101  73 100  81 101
M  END
> <Batch ID>
0054

> <Smiles>
CCc1cn(CC[101CH2:1][101O:1]c2ccc3c(c2)CN(C(=O)C(NC(=O)C(C)NC)C(C)(C)C)C(C(=O)NC2CCCc4ccccc42)C3)c(CC[100NH:0][100C:0](=O)N2CCCC(n3nc(-c4ccc(Oc5ccc(F)cc5F)cc4)c(C(N)=O)c3N)C2)n1

> <Shape>
0.298

> <Color>
0.190

> <Negative vol penalty>
0.000

$$$$

  -OEChem-04052317413D

 85 93  0     1  0  0  0  0  0999 V2000
  -23.9953  -31.3850   21.6093 C   0  0  0  0  0  0  0  0  0  0  0  0
  -24.5424  -30.2899   22.2703 C   0  0  0  0  0  0  0  0  0  0  0  0
  -21.6970  -22.8593   22.2374 C   0  0  0  0  0  0  0  0  0  0  0  0
  -23.9436  -23.4731   21.5946 C   0  0  0  0  0  0  0  0  0  0  0  0
  -23.7570  -31.3217   20.2370 C   0  0  0  0  0  0  0  0  0  0  0  0
  -24.8504  -29.1304   21.5595 C   0  0  0  0  0  0  0  0  0  0  0  0
  -29.5586  -23.7324   21.4530 C   0  0  0  0  0  0  0  0  0  0  0  0
  -21.4993  -24.1352   22.7651 C   0  0  0  0  0  0  0  0  0  0  0  0
  -23.7459  -24.7491   22.1222 C   0  0  0  0  0  0  0  0  0  0  0  0
  -29.5993  -22.3390   21.4306 C   0  0  0  0  0  0  0  0  0  0  0  0
  -20.2793  -27.3451   23.9581 C   0  0  0  0  0  0  0  0  0  0  0  0
  -19.0783  -27.9900   23.6629 C   0  0  0  0  0  0  0  0  0  0  0  0
  -29.2180  -22.3723   19.0489 C   0  0  0  0  0  0  0  0  0  0  0  0
  -19.5973  -27.8774   21.3059 C   0  0  0  0  0  0  0  0  0  0  0  0
  -22.9192  -22.5282   21.6522 C   0  0  0  0  0  0  0  0  0  0  0  0
  -22.8641  -20.7844   19.7910 C   0  0  0  0  0  0  0  0  0  0  0  0
  -24.0713  -30.1644   19.5073 C   0  0  0  0  0  0  0  0  0  0  0  0
  -29.3361  -24.4571   20.2733 C   0  0  0  0  0  0  0  0  0  0  0  0
  -24.6149  -29.0512   20.1764 C   0  0  0  0  0  0  0  0  0  0  0  0
  -29.1775  -23.7749   19.0586 C   0  0  0  0  0  0  0  0  0  0  0  0
  -22.5237  -25.0802   22.7075 C   0  0  0  0  0  0  0  0  0  0  0  0
  -29.4261  -21.6586   20.2289 C   0  0  0  0  0  0  0  0  0  0  0  0
  -21.1394  -26.9663   22.9273 C   0  0  0  0  0  0  0  0  0  0  0  0
  -18.7373  -28.2562   22.3368 C   0  0  0  0  0  0  0  0  0  0  0  0
  -20.7984  -27.2325   21.6012 C   0  0  0  0  0  0  0  0  0  0  0  0
  -23.1242  -21.2101   21.1074 C   0  0  0  0  0  0  0  0  0  0  0  0
  -23.2244  -19.4591   19.7813 C   0  0  0  0  0  0  0  0  0  0  0  0
  -29.7242  -18.1516   21.2082 C   0  0  0  0  0  0  0  0  0  0  0  0
  -29.8443  -16.3285   20.1988 C   0  0  0  0  0  0  0  0  0  0  0  0
  -22.3435  -21.5212   18.6767 C   0  0  0  0  0  0  0  0  0  0  0  0
  -27.0837  -26.4587   19.2614 C   0  0  0  0  0  0  0  0  0  0  0  0
  -29.0779  -26.8047   16.7265 C   0  0  0  0  0  0  0  0  0  0  0  0
  -31.5787  -25.4964   14.8079 C   0  0  0  0  0  0  0  0  0  0  0  0
  -26.5753  -15.4142   20.9521 C   0  0  0  0  0  0  0  0  0  0  0  0
  -23.7519  -30.1261   18.0339 C   0  0  0  0  0  0  0  0  0  0  0  0
  -29.3216  -25.9607   20.3100 C   0  0  0  0  0  0  0  0  0  0  0  0
  -28.9559  -24.5068   17.7610 C   0  0  0  0  0  0  0  0  0  0  0  0
  -24.4542  -28.9948   17.2875 C   0  0  0  0  0  0  0  0  0  0  0  0
  -24.3779  -16.3204   23.5640 C   0  0  0  0  0  0  0  0  0  0  0  0
  -24.3216  -27.6844   18.0570 C   0  0  0  0  0  0  0  0  0  0  0  0
  -23.8347  -17.6542   23.0534 C   0  0  0  0  0  0  0  0  0  0  0  0
  -25.8713  -16.1592   23.2739 C   0  0  0  0  0  0  0  0  0  0  0  0
  -25.6858  -17.6924   21.3406 C   0  0  0  0  0  0  0  0  0  0  0  0
  -24.9855  -27.7846   19.4357 C   0  0  1  0  0  0  0  0  0  0  0  0
  -28.5757  -26.5800   19.1321 C   0  0  1  0  0  0  0  0  0  0  0  0
  -24.1745  -17.8535   21.5662 C   0  0  2  0  0  0  0  0  0  0  0  0
  -29.9531  -15.2376   19.2136 C   0  0  0  0  0  0  0  0  0  0  0  0
  -32.9739  -25.9950   12.7825 C   0  0  0  0  0  0  0  0  0  0  0  0
  -26.4060  -11.6153   22.3893 C   0  0  0  0  0  0  0  0  0  0  0  0
  -25.0282  -12.7043   20.6081 C   0  0  0  0  0  0  0  0  0  0  0  0
  -26.5996  -10.8576   20.0037 C   0  0  0  0  0  0  0  0  0  0  0  0
  -26.7092  -26.1202   14.9291 C   0  0  0  0  0  0  0  0  0  0  0  0
  -28.3313  -25.7023   13.0684 C   0  0  0  0  0  0  0  0  0  0  0  0
  -28.1588  -27.9744   14.0835 C   0  0  0  0  0  0  0  0  0  0  0  0
  -34.0872  -25.4317   16.3769 C   0  0  0  0  0  0  0  0  0  0  0  0
  -29.6866  -19.6325   21.4466 C   0  0  0  0  0  0  0  0  0  1  0  0
  -29.6387  -14.8560   22.2368 C   0  0  0  0  0  0  0  0  0  0  0  0
  -28.2164  -14.4632   22.6277 C   0  0  0  0  0  0  0  0  0  0  0  0
  -27.4892  -13.1411   20.6760 C   0  0  0  0  0  0  0  0  0  0  0  0
  -29.2482  -26.1092   15.3975 C   0  0  1  0  0  0  0  0  0  0  0  0
  -32.8755  -26.0974   14.2967 C   0  0  2  0  0  0  0  0  0  0  0  0
  -26.3983  -12.0751   20.9217 C   0  0  0  0  0  0  0  0  0  0  0  0
  -28.1141  -26.4624   14.3942 C   0  0  0  0  0  0  0  0  0  0  0  0
  -23.6119  -20.2343   21.8781 N   0  0  0  0  0  0  0  0  0  0  0  0
  -29.8613  -17.6189   19.9584 N   0  0  0  0  0  0  0  0  0  0  0  0
  -29.6235  -17.2719   22.2069 N   0  0  0  0  0  0  0  0  0  0  0  0
  -23.6611  -19.1822   21.0433 N   0  0  0  0  0  0  0  0  0  0  0  0
  -29.7031  -16.1136   21.5344 N   0  0  0  0  0  0  0  0  0  0  0  0
  -28.9436  -25.9764   17.8497 N   0  0  0  0  0  0  0  0  0  0  0  0
  -26.1583  -16.4043   21.8539 N   0  0  0  0  0  0  0  0  0  0  0  0
  -23.2070  -18.5151   18.8163 N   0  0  0  0  0  0  0  0  0  0  0  0
  -22.0255  -22.8738   18.8599 N   0  0  0  0  0  0  0  0  0  0  0  0
  -26.4231  -27.6713   19.3138 N   0  0  0  0  0  0  0  0  0  0  0  0
  -30.5876  -26.4474   14.9285 N   0  0  0  0  0  0  0  0  0  0  0  0
  -27.3321  -14.3520   21.4693 N   0  0  0  0  0  0  0  0  0  0  0  0
  -34.0444  -25.3905   14.8925 N   0  3  0  0  0  0  0  0  0  0  0  0
  -22.1501  -20.9914   17.5562 O   0  0  0  0  0  0  0  0  0  0  0  0
  -26.5697  -25.3473   19.3086 O   0  0  0  0  0  0  0  0  0  0  0  0
  -29.0716  -28.0376   16.7675 O   0  0  0  0  0  0  0  0  0  0  0  0
  -31.4559  -24.3020   15.0701 O   0  0  0  0  0  0  0  0  0  0  0  0
  -26.2944  -15.4786   19.7484 O   0  0  0  0  0  0  0  0  0  0  0  0
  -22.3310  -26.3254   23.2221 O   0  0  0  0  0  0  0  0  0  0  0  0
  -29.4647  -20.2985   20.2043 O   0  0  0  0  0  0  0  0  0  1  0  0
  -17.5832  -28.8741   22.0533 F   0  0  0  0  0  0  0  0  0  0  0  0
  -21.6200  -26.8699   20.6066 F   0  0  0  0  0  0  0  0  0  0  0  0
  1  2  1  0  0  0  0
  1  5  2  0  0  0  0
  2  6  2  0  0  0  0
  3  8  2  0  0  0  0
  3 15  1  0  0  0  0
  4  9  1  0  0  0  0
  4 15  2  0  0  0  0
  5 17  1  0  0  0  0
  6 19  1  0  0  0  0
  7 10  2  0  0  0  0
  7 18  1  0  0  0  0
  8 21  1  0  0  0  0
  9 21  2  0  0  0  0
 10 22  1  0  0  0  0
 11 12  2  0  0  0  0
 11 23  1  0  0  0  0
 12 24  1  0  0  0  0
 13 20  1  0  0  0  0
 13 22  2  0  0  0  0
 14 24  2  0  0  0  0
 14 25  1  0  0  0  0
 15 26  1  0  0  0  0
 16 26  1  0  0  0  0
 16 27  2  0  0  0  0
 16 30  1  0  0  0  0
 17 19  2  0  0  0  0
 17 35  1  0  0  0  0
 18 20  2  0  0  0  0
 18 36  1  0  0  0  0
 19 44  1  0  0  0  0
 20 37  1  0  0  0  0
 21 82  1  0  0  0  0
 22 83  1  0  0  0  0
 23 25  2  0  0  0  0
 23 82  1  0  0  0  0
 24 84  1  0  0  0  0
 25 85  1  0  0  0  0
 26 64  2  0  0  0  0
 27 67  1  0  0  0  0
 27 71  1  0  0  0  0
 28 56  1  0  0  0  0
 28 65  1  0  0  0  0
 28 66  2  0  0  0  0
 29 47  1  0  0  0  0
 29 65  2  0  0  0  0
 29 68  1  0  0  0  0
 30 72  1  0  0  0  0
 30 77  2  0  0  0  0
 31 45  1  0  0  0  0
 31 73  1  0  0  0  0
 31 78  2  0  0  0  0
 32 60  1  0  0  0  0
 32 69  1  0  0  0  0
 32 79  2  0  0  0  0
 33 61  1  0  0  0  0
 33 74  1  0  0  0  0
 33 80  2  0  0  0  0
 34 70  1  0  0  0  0
 34 75  1  0  0  0  0
 34 81  2  0  0  0  0
 35 38  1  0  0  0  0
 36 45  1  0  0  0  0
 37 69  1  0  0  0  0
 38 40  1  0  0  0  0
 39 41  1  0  0  0  0
 39 42  1  0  0  0  0
 40 44  1  0  0  0  0
 41 46  1  0  0  0  0
 42 70  1  0  0  0  0
 43 46  1  0  0  0  0
 43 70  1  0  0  0  0
 44 73  1  0  0  0  0
 45 69  1  0  0  0  0
 46 67  1  0  0  0  0
 48 61  1  0  0  0  0
 49 62  1  0  0  0  0
 50 62  1  0  0  0  0
 51 62  1  0  0  0  0
 52 63  1  0  0  0  0
 53 63  1  0  0  0  0
 54 63  1  0  0  0  0
 55 76  1  0  0  0  0
 56 83  1  0  0  0  0
 57 58  1  0  0  0  0
 57 68  1  0  0  0  0
 58 75  1  0  0  0  0
 59 62  1  0  0  0  0
 59 75  1  0  0  0  0
 60 63  1  0  0  0  0
 60 74  1  0  0  0  0
 61 76  1  0  0  0  0
 64 67  1  0  0  0  0
 66 68  1  0  0  0  0
M  CHG  1  76   1
M  ISO  4  34 100  56 101  75 100  83 101
M  END
> <Batch ID>
0054

> <Smiles>
CNC(C)C(=O)NC(C(=O)N1Cc2cc([101O:1][101CH2:1]c3nc(C)n(CC[100N:0](CC(C)(C)C)[100C:0](=O)N4CCCC(n5nc(-c6ccc(Oc7ccc(F)cc7F)cc6)c(C(N)=O)c5N)C4)n3)ccc2CC1C(=O)NC1CCCc2ccccc21)C(C)(C)C

> <Shape>
0.219

> <Color>
0.067

> <Negative vol penalty>
0.000

$$$$

  -OEChem-04052317413D

 82 89  0     1  0  0  0  0  0999 V2000
  -18.6822  -32.7313   19.9216 C   0  0  0  0  0  0  0  0  0  0  0  0
  -20.0293  -32.5011   19.6615 C   0  0  0  0  0  0  0  0  0  0  0  0
  -28.1253  -11.6665   22.4132 C   0  0  0  0  0  0  0  0  0  0  0  0
  -27.1802  -11.7368   20.1908 C   0  0  0  0  0  0  0  0  0  0  0  0
  -18.1115  -32.2619   21.1039 C   0  0  0  0  0  0  0  0  0  0  0  0
  -20.8069  -31.8023   20.5842 C   0  0  0  0  0  0  0  0  0  0  0  0
  -25.4213  -27.9679   19.3550 C   0  0  0  0  0  0  0  0  0  0  0  0
  -27.3503  -10.5448   22.7073 C   0  0  0  0  0  0  0  0  0  0  0  0
  -26.4052  -10.6150   20.4849 C   0  0  0  0  0  0  0  0  0  0  0  0
  -26.8054  -28.1358   19.3539 C   0  0  0  0  0  0  0  0  0  0  0  0
  -23.5514   -9.9289   22.1630 C   0  0  0  0  0  0  0  0  0  0  0  0
  -22.2085   -9.9523   21.7867 C   0  0  0  0  0  0  0  0  0  0  0  0
  -26.9083  -27.2516   21.5960 C   0  0  0  0  0  0  0  0  0  0  0  0
  -22.5650   -8.0106   20.3939 C   0  0  0  0  0  0  0  0  0  0  0  0
  -28.0403  -12.2626   21.1549 C   0  0  0  0  0  0  0  0  0  0  0  0
  -30.1357  -13.4399   20.3000 C   0  0  0  0  0  0  0  0  0  0  0  0
  -18.8802  -31.5486   22.0372 C   0  0  0  0  0  0  0  0  0  0  0  0
  -24.7680  -27.4500   20.4826 C   0  0  0  0  0  0  0  0  0  0  0  0
  -20.2463  -31.3241   21.7808 C   0  0  0  0  0  0  0  0  0  0  0  0
  -25.5161  -27.0758   21.6079 C   0  0  0  0  0  0  0  0  0  0  0  0
  -26.4903  -10.0190   21.7432 C   0  0  0  0  0  0  0  0  0  0  0  0
  -27.5487  -27.7803   20.4756 C   0  0  0  0  0  0  0  0  0  0  0  0
  -24.4012   -8.9465   21.6547 C   0  0  0  0  0  0  0  0  0  0  0  0
  -21.7153   -8.9931   20.9022 C   0  0  0  0  0  0  0  0  0  0  0  0
  -23.9080   -7.9873   20.7702 C   0  0  0  0  0  0  0  0  0  0  0  0
  -28.8402  -13.4217   20.8506 C   0  0  0  0  0  0  0  0  0  0  0  0
  -30.4507  -14.7735   20.2073 C   0  0  0  0  0  0  0  0  0  0  0  0
  -30.9789  -12.3487   19.9075 C   0  0  0  0  0  0  0  0  0  0  0  0
  -22.5718  -28.5450   22.5028 C   0  0  0  0  0  0  0  0  0  0  0  0
  -30.9829  -27.3219   19.4071 C   0  0  0  0  0  0  0  0  0  0  0  0
  -22.6912  -25.5178   23.6624 C   0  0  0  0  0  0  0  0  0  0  0  0
  -24.4640  -22.6254   24.0339 C   0  0  0  0  0  0  0  0  0  0  0  0
  -28.6556  -19.8316   18.5346 C   0  0  0  0  0  0  0  0  0  0  0  0
  -18.2306  -31.1020   23.3229 C   0  0  0  0  0  0  0  0  0  0  0  0
  -23.2774  -27.2502   20.4579 C   0  0  0  0  0  0  0  0  0  0  0  0
  -24.8650  -26.4963   22.8362 C   0  0  0  0  0  0  0  0  0  0  0  0
  -19.0341  -30.0451   24.0763 C   0  0  0  0  0  0  0  0  0  0  0  0
  -28.1615  -18.8505   22.1103 C   0  0  0  0  0  0  0  0  0  0  0  0
  -20.5049  -30.4433   24.1478 C   0  0  0  0  0  0  0  0  0  0  0  0
  -28.3390  -17.3354   22.0240 C   0  0  0  0  0  0  0  0  0  0  0  0
  -27.6230  -19.4183   20.8026 C   0  0  0  0  0  0  0  0  0  0  0  0
  -28.6367  -17.5657   19.5154 C   0  0  0  0  0  0  0  0  0  0  0  0
  -21.1168  -30.5486   22.7457 C   0  0  1  0  0  0  0  0  0  0  0  0
  -22.6590  -27.1938   21.8514 C   0  0  1  0  0  0  0  0  0  0  0  0
  -29.1986  -16.9504   20.8079 C   0  0  2  0  0  0  0  0  0  0  0  0
  -24.9234  -20.2410   24.6668 C   0  0  0  0  0  0  0  0  0  0  0  0
  -23.1954  -26.7269   26.4181 C   0  0  0  0  0  0  0  0  0  0  0  0
  -23.9679  -24.4735   27.1886 C   0  0  0  0  0  0  0  0  0  0  0  0
  -21.6206  -24.7842   26.4035 C   0  0  0  0  0  0  0  0  0  0  0  0
  -27.2153  -21.5944   19.6380 C   0  0  0  0  0  0  0  0  0  0  0  0
  -23.4861  -21.6233   21.4265 C   0  0  0  0  0  0  0  0  0  0  0  0
  -32.4791  -24.1397   17.6211 C   0  0  0  0  0  0  0  0  0  0  0  0
  -31.8048  -27.1822   18.1340 C   0  0  0  0  0  0  0  0  0  0  0  0
  -29.5687  -27.8361   19.2215 C   0  0  0  0  0  0  0  0  0  1  0  0
  -29.6238  -22.9556   18.0947 C   0  0  0  0  0  0  0  0  0  0  0  0
  -28.4751  -22.0966   17.5772 C   0  0  0  0  0  0  0  0  0  0  0  0
  -31.2081  -26.2211   17.1182 C   0  0  0  0  0  0  0  0  0  0  0  0
  -30.0495  -24.0172   17.0885 C   0  0  0  0  0  0  0  0  0  0  0  0
  -23.5047  -24.8086   24.7179 C   0  0  1  0  0  0  0  0  0  0  0  0
  -24.0812  -21.1736   23.8103 C   0  0  2  0  0  0  0  0  0  0  0  0
  -23.0845  -25.2110   26.1598 C   0  0  0  0  0  0  0  0  0  0  0  0
  -28.3649  -14.6466   21.0909 N   0  0  0  0  0  0  0  0  0  0  0  0
  -29.3671  -15.4469   20.6895 N   0  0  0  0  0  0  0  0  0  0  0  0
  -23.4043  -26.3262   22.7658 N   0  0  0  0  0  0  0  0  0  0  0  0
  -28.4448  -19.0111   19.6551 N   0  0  0  0  0  0  0  0  0  0  0  0
  -31.5462  -15.4242   19.7612 N   0  0  0  0  0  0  0  0  0  0  0  0
  -30.4998  -11.0418   20.0707 N   0  0  0  0  0  0  0  0  0  0  0  0
  -21.4064  -29.2315   22.2204 N   0  0  0  0  0  0  0  0  0  0  0  0
  -23.3840  -23.3822   24.4364 N   0  0  0  0  0  0  0  0  0  0  0  0
  -28.0497  -21.0970   18.5466 N   0  0  0  0  0  0  0  0  0  0  0  0
  -24.2745  -20.8012   22.3803 N   0  3  0  0  0  0  0  0  0  0  0  0
  -31.1515  -24.8532   17.6914 N   0  3  1  0  0  0  0  0  0  0  0  0
  -32.1298  -12.5270   19.4414 O   0  0  0  0  0  0  0  0  0  0  0  0
  -23.4931  -28.9351   23.2105 O   0  0  0  0  0  0  0  0  0  0  0  0
  -31.4242  -27.0281   20.5169 O   0  0  0  0  0  0  0  0  0  0  0  0
  -21.4689  -25.3548   23.6300 O   0  0  0  0  0  0  0  0  0  0  0  0
  -25.6076  -23.0453   23.8715 O   0  0  0  0  0  0  0  0  0  0  0  0
  -29.3541  -19.4587   17.5834 O   0  0  0  0  0  0  0  0  0  0  0  0
  -25.7340   -8.9242   22.0299 O   0  0  0  0  0  0  0  0  0  0  0  0
  -28.8997  -27.9437   20.4774 O   0  0  0  0  0  0  0  0  0  1  0  0
  -20.4253   -9.0147   20.5421 F   0  0  0  0  0  0  0  0  0  0  0  0
  -24.7193   -7.0403   20.2795 F   0  0  0  0  0  0  0  0  0  0  0  0
  1  2  1  0  0  0  0
  1  5  2  0  0  0  0
  2  6  2  0  0  0  0
  3  8  2  0  0  0  0
  3 15  1  0  0  0  0
  4  9  1  0  0  0  0
  4 15  2  0  0  0  0
  5 17  1  0  0  0  0
  6 19  1  0  0  0  0
  7 10  2  0  0  0  0
  7 18  1  0  0  0  0
  8 21  1  0  0  0  0
  9 21  2  0  0  0  0
 10 22  1  0  0  0  0
 11 12  2  0  0  0  0
 11 23  1  0  0  0  0
 12 24  1  0  0  0  0
 13 20  1  0  0  0  0
 13 22  2  0  0  0  0
 14 24  2  0  0  0  0
 14 25  1  0  0  0  0
 15 26  1  0  0  0  0
 16 26  1  0  0  0  0
 16 27  2  0  0  0  0
 16 28  1  0  0  0  0
 17 19  2  0  0  0  0
 17 34  1  0  0  0  0
 18 20  2  0  0  0  0
 18 35  1  0  0  0  0
 19 43  1  0  0  0  0
 20 36  1  0  0  0  0
 21 79  1  0  0  0  0
 22 80  1  0  0  0  0
 23 25  2  0  0  0  0
 23 79  1  0  0  0  0
 24 81  1  0  0  0  0
 25 82  1  0  0  0  0
 26 62  2  0  0  0  0
 27 63  1  0  0  0  0
 27 66  1  0  0  0  0
 28 67  1  0  0  0  0
 28 73  2  0  0  0  0
 29 44  1  0  0  0  0
 29 68  1  0  0  0  0
 29 74  2  0  0  0  0
 30 53  1  0  0  0  0
 30 54  1  0  0  0  0
 30 75  2  0  0  0  0
 31 59  1  0  0  0  0
 31 64  1  0  0  0  0
 31 76  2  0  0  0  0
 32 60  1  0  0  0  0
 32 69  1  0  0  0  0
 32 77  2  0  0  0  0
 33 65  1  0  0  0  0
 33 70  1  0  0  0  0
 33 78  2  0  0  0  0
 34 37  1  0  0  0  0
 35 44  1  0  0  0  0
 36 64  1  0  0  0  0
 37 39  1  0  0  0  0
 38 40  1  0  0  0  0
 38 41  1  0  0  0  0
 39 43  1  0  0  0  0
 40 45  1  0  0  0  0
 41 65  1  0  0  0  0
 42 45  1  0  0  0  0
 42 65  1  0  0  0  0
 43 68  1  0  0  0  0
 44 64  1  0  0  0  0
 45 63  1  0  0  0  0
 46 60  1  0  0  0  0
 47 61  1  0  0  0  0
 48 61  1  0  0  0  0
 49 61  1  0  0  0  0
 50 70  1  0  0  0  0
 51 71  1  0  0  0  0
 52 72  1  0  0  0  0
 53 57  1  0  0  0  0
 54 80  1  0  0  0  0
 55 56  1  0  0  0  0
 55 58  1  0  0  0  0
 56 70  1  0  0  0  0
 57 72  1  0  0  0  0
 58 72  1  0  0  0  0
 59 61  1  0  0  0  0
 59 69  1  0  0  0  0
 60 71  1  0  0  0  0
 62 63  1  0  0  0  0
M  CHG  2  71   1  72   1
M  ISO  4  33 100  54 101  70 100  80 101
M  END
> <Batch ID>
0054

> <Smiles>
CNC(C)C(=O)NC(C(=O)N1Cc2cc([101O:1][101CH2:1]C(=O)CCN(C)CCC[100N:0](C)[100C:0](=O)N3CCCC(n4nc(-c5ccc(Oc6ccc(F)cc6F)cc5)c(C(N)=O)c4N)C3)ccc2CC1C(=O)NC1CCCc2ccccc21)C(C)(C)C

> <Shape>
0.242

> <Color>
0.081

> <Negative vol penalty>
0.000

$$$$

  -OEChem-04052317413D

 80 88  0     1  0  0  0  0  0999 V2000
  -28.5475  -11.0680   20.7485 C   0  0  0  0  0  0  0  0  0  0  0  0
  -28.8193  -12.3117   20.1874 C   0  0  0  0  0  0  0  0  0  0  0  0
  -25.6875  -27.3593   21.0806 C   0  0  0  0  0  0  0  0  0  0  0  0
  -26.0529  -28.1604   18.8307 C   0  0  0  0  0  0  0  0  0  0  0  0
  -27.2319  -10.7070   21.0364 C   0  0  0  0  0  0  0  0  0  0  0  0
  -27.7756  -13.1946   19.9128 C   0  0  0  0  0  0  0  0  0  0  0  0
  -28.8055  -17.9337   21.3707 C   0  0  0  0  0  0  0  0  0  0  0  0
  -24.6215  -28.2473   21.2236 C   0  0  0  0  0  0  0  0  0  0  0  0
  -24.9867  -29.0484   18.9737 C   0  0  0  0  0  0  0  0  0  0  0  0
  -29.6464  -18.6838   20.5498 C   0  0  0  0  0  0  0  0  0  0  0  0
  -21.3798  -28.4206   20.2778 C   0  0  0  0  0  0  0  0  0  0  0  0
  -20.2041  -27.9351   20.8502 C   0  0  0  0  0  0  0  0  0  0  0  0
  -32.1643  -20.9129   16.6415 C   0  0  0  0  0  0  0  0  0  0  0  0
  -27.7237  -19.7878   19.5993 C   0  0  0  0  0  0  0  0  0  0  0  0
  -20.3966  -29.5624   22.6257 C   0  0  0  0  0  0  0  0  0  0  0  0
  -32.9259  -21.9924   16.2659 C   0  0  0  0  0  0  0  0  0  0  0  0
  -26.4033  -27.3159   19.8841 C   0  0  0  0  0  0  0  0  0  0  0  0
  -27.4520  -25.0767   19.2563 C   0  0  0  0  0  0  0  0  0  0  0  0
  -26.1724  -11.5897   20.7741 C   0  0  0  0  0  0  0  0  0  0  0  0
  -27.4144  -18.0974   21.3042 C   0  0  0  0  0  0  0  0  0  0  0  0
  -26.4445  -12.8445   20.1962 C   0  0  0  0  0  0  0  0  0  0  0  0
  -26.8674  -19.0403   20.4222 C   0  0  0  0  0  0  0  0  0  0  0  0
  -24.2710  -29.0918   20.1702 C   0  0  0  0  0  0  0  0  0  0  0  0
  -29.1054  -19.6090   19.6619 C   0  0  0  0  0  0  0  0  0  0  0  0
  -22.0640  -29.4769   20.8794 C   0  0  0  0  0  0  0  0  0  0  0  0
  -19.7125  -28.5060   22.0241 C   0  0  0  0  0  0  0  0  0  0  0  0
  -21.5723  -30.0478   22.0532 C   0  0  0  0  0  0  0  0  0  0  0  0
  -27.5051  -26.3992   19.7359 C   0  0  0  0  0  0  0  0  0  0  0  0
  -32.0552  -21.0288   18.0402 C   0  0  0  0  0  0  0  0  0  0  0  0
  -28.7528  -24.6392   19.3108 C   0  0  0  0  0  0  0  0  0  0  0  0
  -26.3274  -24.3122   18.8019 C   0  0  0  0  0  0  0  0  0  0  0  0
  -24.9671  -16.2121   20.5558 C   0  0  0  0  0  0  0  0  0  0  0  0
  -23.2112  -18.7669   21.5109 C   0  0  0  0  0  0  0  0  0  0  0  0
  -23.0382  -22.1375   22.0168 C   0  0  0  0  0  0  0  0  0  0  0  0
  -34.0722  -27.1047   18.4691 C   0  0  0  0  0  0  0  0  0  0  0  0
  -24.7624  -11.1364   21.0587 C   0  0  0  0  0  0  0  0  0  0  0  0
  -26.5224  -17.2996   22.2154 C   0  0  0  0  0  0  0  0  0  0  0  0
  -25.3817  -19.2686   20.3267 C   0  0  0  0  0  0  0  0  0  0  0  0
  -23.7490  -12.2777   21.0839 C   0  0  0  0  0  0  0  0  0  0  0  0
  -32.8065  -26.0095   21.7706 C   0  0  0  0  0  0  0  0  0  0  0  0
  -23.9497  -13.1964   19.8829 C   0  0  0  0  0  0  0  0  0  0  0  0
  -31.2967  -25.9488   21.5451 C   0  0  0  0  0  0  0  0  0  0  0  0
  -33.4747  -27.0376   20.8628 C   0  0  0  0  0  0  0  0  0  0  0  0
  -31.6702  -26.7855   19.1912 C   0  0  0  0  0  0  0  0  0  0  0  0
  -25.3416  -13.8395   19.9067 C   0  0  1  0  0  0  0  0  0  0  0  0
  -25.0923  -17.1807   21.6977 C   0  0  1  0  0  0  0  0  0  0  0  0
  -30.9727  -25.7261   20.0576 C   0  0  2  0  0  0  0  0  0  0  0  0
  -21.4602  -23.9383   22.7678 C   0  0  0  0  0  0  0  0  0  0  0  0
  -21.7769  -18.6284   18.8214 C   0  0  0  0  0  0  0  0  0  0  0  0
  -20.9296  -20.9481   19.2325 C   0  0  0  0  0  0  0  0  0  0  0  0
  -20.2874  -19.0959   20.7751 C   0  0  0  0  0  0  0  0  0  0  0  0
  -34.9910  -26.5822   16.2414 C   0  0  0  0  0  0  0  0  0  0  0  0
  -24.7824  -22.8790   24.2899 C   0  0  0  0  0  0  0  0  0  0  0  0
  -31.3272  -20.1121   18.9788 C   0  0  0  0  0  0  0  0  0  1  0  0
  -33.9975  -23.8707   17.5316 C   0  0  0  0  0  0  0  0  0  0  0  0
  -33.2177  -25.1248   17.1453 C   0  0  0  0  0  0  0  0  0  0  0  0
  -22.6505  -19.9929   20.8316 C   0  0  1  0  0  0  0  0  0  0  0  0
  -22.5390  -22.9550   23.1945 C   0  0  2  0  0  0  0  0  0  0  0  0
  -21.4390  -19.6609   19.9153 C   0  0  0  0  0  0  0  0  0  0  0  0
  -28.7417  -26.7770   20.0707 N   0  0  0  0  0  0  0  0  0  0  0  0
  -32.6964  -22.0975   18.5206 N   0  0  0  0  0  0  0  0  0  0  0  0
  -33.2157  -22.6630   17.4176 N   0  0  0  0  0  0  0  0  0  0  0  0
  -29.4776  -25.6853   19.8011 N   0  0  0  0  0  0  0  0  0  0  0  0
  -24.5508  -18.4598   21.2339 N   0  0  0  0  0  0  0  0  0  0  0  0
  -33.1154  -26.8292   19.4597 N   0  0  0  0  0  0  0  0  0  0  0  0
  -29.3358  -23.4655   18.9869 N   0  0  0  0  0  0  0  0  0  0  0  0
  -25.0620  -24.9146   18.8117 N   0  0  0  0  0  0  0  0  0  0  0  0
  -25.3790  -14.9285   20.8592 N   0  0  0  0  0  0  0  0  0  0  0  0
  -22.3524  -20.9477   21.8936 N   0  0  0  0  0  0  0  0  0  0  0  0
  -34.0133  -26.3416   17.2931 N   0  0  0  0  0  0  0  0  0  0  0  0
  -23.6608  -23.7235   23.8043 N   0  3  0  0  0  0  0  0  0  0  0  0
  -26.4388  -23.1243   18.4146 O   0  0  0  0  0  0  0  0  0  0  0  0
  -24.5278  -16.6002   19.4797 O   0  0  0  0  0  0  0  0  0  0  0  0
  -22.4893  -18.1101   22.2653 O   0  0  0  0  0  0  0  0  0  0  0  0
  -23.9434  -22.5181   21.2777 O   0  0  0  0  0  0  0  0  0  0  0  0
  -34.9362  -27.9761   18.6307 O   0  0  0  0  0  0  0  0  0  0  0  0
  -23.2306  -29.9583   20.3094 O   0  0  0  0  0  0  0  0  0  0  0  0
  -29.9239  -20.3421   18.8591 O   0  0  0  0  0  0  0  0  0  1  0  0
  -18.5826  -28.0408   22.5729 F   0  0  0  0  0  0  0  0  0  0  0  0
  -22.2246  -31.0637   22.6351 F   0  0  0  0  0  0  0  0  0  0  0  0
  1  2  1  0  0  0  0
  1  5  2  0  0  0  0
  2  6  2  0  0  0  0
  3  8  2  0  0  0  0
  3 17  1  0  0  0  0
  4  9  1  0  0  0  0
  4 17  2  0  0  0  0
  5 19  1  0  0  0  0
  6 21  1  0  0  0  0
  7 10  2  0  0  0  0
  7 20  1  0  0  0  0
  8 23  1  0  0  0  0
  9 23  2  0  0  0  0
 10 24  1  0  0  0  0
 11 12  2  0  0  0  0
 11 25  1  0  0  0  0
 12 26  1  0  0  0  0
 13 16  2  0  0  0  0
 13 29  1  0  0  0  0
 14 22  1  0  0  0  0
 14 24  2  0  0  0  0
 15 26  2  0  0  0  0
 15 27  1  0  0  0  0
 16 62  1  0  0  0  0
 17 28  1  0  0  0  0
 18 28  1  0  0  0  0
 18 30  2  0  0  0  0
 18 31  1  0  0  0  0
 19 21  2  0  0  0  0
 19 36  1  0  0  0  0
 20 22  2  0  0  0  0
 20 37  1  0  0  0  0
 21 45  1  0  0  0  0
 22 38  1  0  0  0  0
 23 77  1  0  0  0  0
 24 78  1  0  0  0  0
 25 27  2  0  0  0  0
 25 77  1  0  0  0  0
 26 79  1  0  0  0  0
 27 80  1  0  0  0  0
 28 60  2  0  0  0  0
 29 54  1  0  0  0  0
 29 61  2  0  0  0  0
 30 63  1  0  0  0  0
 30 66  1  0  0  0  0
 31 67  1  0  0  0  0
 31 72  2  0  0  0  0
 32 46  1  0  0  0  0
 32 68  1  0  0  0  0
 32 73  2  0  0  0  0
 33 57  1  0  0  0  0
 33 64  1  0  0  0  0
 33 74  2  0  0  0  0
 34 58  1  0  0  0  0
 34 69  1  0  0  0  0
 34 75  2  0  0  0  0
 35 65  1  0  0  0  0
 35 70  1  0  0  0  0
 35 76  2  0  0  0  0
 36 39  1  0  0  0  0
 37 46  1  0  0  0  0
 38 64  1  0  0  0  0
 39 41  1  0  0  0  0
 40 42  1  0  0  0  0
 40 43  1  0  0  0  0
 41 45  1  0  0  0  0
 42 47  1  0  0  0  0
 43 65  1  0  0  0  0
 44 47  1  0  0  0  0
 44 65  1  0  0  0  0
 45 68  1  0  0  0  0
 46 64  1  0  0  0  0
 47 63  1  0  0  0  0
 48 58  1  0  0  0  0
 49 59  1  0  0  0  0
 50 59  1  0  0  0  0
 51 59  1  0  0  0  0
 52 70  1  0  0  0  0
 53 71  1  0  0  0  0
 54 78  1  0  0  0  0
 55 56  1  0  0  0  0
 55 62  1  0  0  0  0
 56 70  1  0  0  0  0
 57 59  1  0  0  0  0
 57 69  1  0  0  0  0
 58 71  1  0  0  0  0
 60 63  1  0  0  0  0
 61 62  1  0  0  0  0
M  CHG  1  71   1
M  ISO  4  35 100  54 101  70 100  78 101
M  END
> <Batch ID>
0054

> <Smiles>
CNC(C)C(=O)NC(C(=O)N1Cc2cc([101O:1][101CH2:1]c3ccn(CC[100N:0](C)[100C:0](=O)N4CCCC(n5nc(-c6ccc(Oc7ccc(F)cc7F)cc6)c(C(N)=O)c5N)C4)n3)ccc2CC1C(=O)NC1CCCc2ccccc21)C(C)(C)C

> <Shape>
0.206

> <Color>
0.083

> <Negative vol penalty>
0.000

$$$$

  -OEChem-04052317413D

 84 92  0     1  0  0  0  0  0999 V2000
  -30.9315  -26.1878   17.4047 C   0  0  0  0  0  0  0  0  0  0  0  0
  -29.5415  -26.1314   17.4126 C   0  0  0  0  0  0  0  0  0  0  0  0
  -23.4177  -12.7885   19.5968 C   0  0  0  0  0  0  0  0  0  0  0  0
  -24.7546  -14.0384   21.1740 C   0  0  0  0  0  0  0  0  0  0  0  0
  -31.6164  -26.6356   18.5336 C   0  0  0  0  0  0  0  0  0  0  0  0
  -28.8355  -26.5219   18.5500 C   0  0  0  0  0  0  0  0  0  0  0  0
  -23.3864  -29.3118   18.7234 C   0  0  0  0  0  0  0  0  0  0  0  0
  -24.4741  -11.8976   19.4073 C   0  0  0  0  0  0  0  0  0  0  0  0
  -25.8110  -13.1474   20.9846 C   0  0  0  0  0  0  0  0  0  0  0  0
  -22.0933  -28.8323   18.9276 C   0  0  0  0  0  0  0  0  0  0  0  0
  -28.2276  -12.6016   18.6839 C   0  0  0  0  0  0  0  0  0  0  0  0
  -29.5042  -13.1370   18.5134 C   0  0  0  0  0  0  0  0  0  0  0  0
  -22.2569  -29.4041   21.2654 C   0  0  0  0  0  0  0  0  0  0  0  0
  -30.2649  -11.9473   20.4738 C   0  0  0  0  0  0  0  0  0  0  0  0
  -19.8549  -24.5600   21.2032 C   0  0  0  0  0  0  0  0  0  0  0  0
  -19.3102  -24.7337   18.5955 C   0  0  0  0  0  0  0  0  0  0  0  0
  -23.5580  -13.8589   20.4801 C   0  0  0  0  0  0  0  0  0  0  0  0
  -21.4343  -14.6843   21.6275 C   0  0  0  0  0  0  0  0  0  0  0  0
  -30.9180  -27.0408   19.6819 C   0  0  0  0  0  0  0  0  0  0  0  0
  -24.1298  -29.8318   19.7927 C   0  0  0  0  0  0  0  0  0  0  0  0
  -29.5117  -26.9743   19.6958 C   0  0  0  0  0  0  0  0  0  0  0  0
  -23.5583  -29.8919   21.0717 C   0  0  0  0  0  0  0  0  0  0  0  0
  -25.6708  -12.0770   20.1012 C   0  0  0  0  0  0  0  0  0  0  0  0
  -21.5294  -28.8758   20.1993 C   0  0  0  0  0  0  0  0  0  0  0  0
  -27.9695  -11.7391   19.7493 C   0  0  0  0  0  0  0  0  0  0  0  0
  -30.5229  -12.8098   19.4084 C   0  0  0  0  0  0  0  0  0  0  0  0
  -28.9882  -11.4119   20.6443 C   0  0  0  0  0  0  0  0  0  0  0  0
  -22.4673  -14.7799   20.6758 C   0  0  0  0  0  0  0  0  0  0  0  0
  -19.2411  -25.6758   20.6780 C   0  0  0  0  0  0  0  0  0  0  0  0
  -19.9247  -23.6182   19.1204 C   0  0  0  0  0  0  0  0  0  0  0  0
  -20.6588  -15.7959   21.4052 C   0  0  0  0  0  0  0  0  0  0  0  0
  -21.1971  -13.6805   22.6233 C   0  0  0  0  0  0  0  0  0  0  0  0
  -26.8577  -29.0436   21.2213 C   0  0  0  0  0  0  0  0  0  0  0  0
  -26.3550  -31.8078   22.8426 C   0  0  0  0  0  0  0  0  0  0  0  0
  -24.1387  -34.1538   23.9521 C   0  0  0  0  0  0  0  0  0  0  0  0
  -22.2951  -21.0012   18.7320 C   0  0  0  0  0  0  0  0  0  0  0  0
  -31.7037  -27.4729   20.8946 C   0  0  0  0  0  0  0  0  0  0  0  0
  -25.5135  -30.3695   19.5507 C   0  0  0  0  0  0  0  0  0  0  0  0
  -24.3070  -30.4592   22.2490 C   0  0  0  0  0  0  0  0  0  0  0  0
  -30.8664  -28.2230   21.9274 C   0  0  0  0  0  0  0  0  0  0  0  0
  -19.3461  -18.8325   17.9624 C   0  0  0  0  0  0  0  0  0  0  0  0
  -29.5514  -27.4926   22.1808 C   0  0  0  0  0  0  0  0  0  0  0  0
  -19.7766  -17.5157   18.6068 C   0  0  0  0  0  0  0  0  0  0  0  0
  -20.5526  -19.6439   17.5062 C   0  0  0  0  0  0  0  0  0  0  0  0
  -21.9775  -18.6060   19.2408 C   0  0  0  0  0  0  0  0  0  0  0  0
  -28.7094  -27.4127   20.9017 C   0  0  1  0  0  0  0  0  0  0  0  0
  -26.3701  -30.4048   20.8126 C   0  0  1  0  0  0  0  0  0  0  0  0
  -20.7915  -17.7616   19.7361 C   0  0  2  0  0  0  0  0  0  0  0  0
  -24.0199  -36.2774   25.2839 C   0  0  0  0  0  0  0  0  0  0  0  0
  -23.0560  -22.7504   15.6406 C   0  0  0  0  0  0  0  0  0  0  0  0
  -23.4598  -25.0836   16.4585 C   0  0  0  0  0  0  0  0  0  0  0  0
  -26.6619  -30.2051   25.4208 C   0  0  0  0  0  0  0  0  0  0  0  0
  -25.6138  -32.1168   26.6518 C   0  0  0  0  0  0  0  0  0  0  0  0
  -27.7730  -32.4454   25.4466 C   0  0  0  0  0  0  0  0  0  0  0  0
  -23.0874  -35.6792   21.6441 C   0  0  0  0  0  0  0  0  0  0  0  0
  -18.8596  -26.8320   21.5702 C   0  0  0  0  0  0  0  0  0  0  0  0
  -20.3006  -22.4776   18.2406 C   0  0  0  0  0  0  0  0  0  0  0  0
  -22.5998  -23.3536   18.0593 C   0  0  0  0  0  0  0  0  0  0  0  0
  -19.9744  -27.8656   21.6884 C   0  0  0  0  0  0  0  0  0  1  0  0
  -25.6386  -32.1847   24.1169 C   0  0  1  0  0  0  0  0  0  0  0  0
  -24.1656  -35.6706   23.8971 C   0  0  2  0  0  0  0  0  0  0  0  0
  -22.5828  -23.8397   16.6058 C   0  0  0  0  0  0  0  0  0  0  0  0
  -26.4082  -31.7255   25.3874 C   0  0  0  0  0  0  0  0  0  0  0  0
  -18.9574  -25.7825   19.3648 N   0  0  0  0  0  0  0  0  0  0  0  0
  -20.2080  -23.5113   20.4338 N   0  0  0  0  0  0  0  0  0  0  0  0
  -22.3605  -15.8664   19.9062 N   0  0  0  0  0  0  0  0  0  0  0  0
  -21.2511  -16.4636   20.3740 N   0  0  0  0  0  0  0  0  0  0  0  0
  -25.6590  -30.9667   21.9628 N   0  0  0  0  0  0  0  0  0  0  0  0
  -21.5190  -19.8383   18.5954 N   0  0  0  0  0  0  0  0  0  0  0  0
  -19.5347  -16.2576   21.9933 N   0  0  0  0  0  0  0  0  0  0  0  0
  -22.0920  -12.6058   22.7152 N   0  0  0  0  0  0  0  0  0  0  0  0
  -28.0595  -28.6799   20.6443 N   0  0  0  0  0  0  0  0  0  0  0  0
  -25.4080  -33.6235   24.0453 N   0  0  0  0  0  0  0  0  0  0  0  0
  -21.7350  -22.2010   18.2681 N   0  0  0  0  0  0  0  0  0  0  0  0
  -23.0546  -36.1778   23.0431 N   0  3  0  0  0  0  0  0  0  0  0  0
  -20.2112  -13.7264   23.3976 O   0  0  0  0  0  0  0  0  0  0  0  0
  -26.1936  -28.3735   22.0034 O   0  0  0  0  0  0  0  0  0  0  0  0
  -27.4874  -32.2494   22.6322 O   0  0  0  0  0  0  0  0  0  0  0  0
  -23.0956  -33.5045   23.9197 O   0  0  0  0  0  0  0  0  0  0  0  0
  -23.4193  -20.9702   19.2488 O   0  0  0  0  0  0  0  0  0  0  0  0
  -26.7017  -11.2077   19.9167 O   0  0  0  0  0  0  0  0  0  0  0  0
  -20.2676  -28.4079   20.4014 O   0  0  0  0  0  0  0  0  0  1  0  0
  -31.7492  -13.3228   19.2437 F   0  0  0  0  0  0  0  0  0  0  0  0
  -28.7466  -10.5829   21.6691 F   0  0  0  0  0  0  0  0  0  0  0  0
  1  2  1  0  0  0  0
  1  5  2  0  0  0  0
  2  6  2  0  0  0  0
  3  8  2  0  0  0  0
  3 17  1  0  0  0  0
  4  9  1  0  0  0  0
  4 17  2  0  0  0  0
  5 19  1  0  0  0  0
  6 21  1  0  0  0  0
  7 10  2  0  0  0  0
  7 20  1  0  0  0  0
  8 23  1  0  0  0  0
  9 23  2  0  0  0  0
 10 24  1  0  0  0  0
 11 12  2  0  0  0  0
 11 25  1  0  0  0  0
 12 26  1  0  0  0  0
 13 22  1  0  0  0  0
 13 24  2  0  0  0  0
 14 26  2  0  0  0  0
 14 27  1  0  0  0  0
 15 29  1  0  0  0  0
 15 65  2  0  0  0  0
 16 30  2  0  0  0  0
 16 64  1  0  0  0  0
 17 28  1  0  0  0  0
 18 28  1  0  0  0  0
 18 31  2  0  0  0  0
 18 32  1  0  0  0  0
 19 21  2  0  0  0  0
 19 37  1  0  0  0  0
 20 22  2  0  0  0  0
 20 38  1  0  0  0  0
 21 46  1  0  0  0  0
 22 39  1  0  0  0  0
 23 81  1  0  0  0  0
 24 82  1  0  0  0  0
 25 27  2  0  0  0  0
 25 81  1  0  0  0  0
 26 83  1  0  0  0  0
 27 84  1  0  0  0  0
 28 66  2  0  0  0  0
 29 56  1  0  0  0  0
 29 64  2  0  0  0  0
 30 57  1  0  0  0  0
 30 65  1  0  0  0  0
 31 67  1  0  0  0  0
 31 70  1  0  0  0  0
 32 71  1  0  0  0  0
 32 76  2  0  0  0  0
 33 47  1  0  0  0  0
 33 72  1  0  0  0  0
 33 77  2  0  0  0  0
 34 60  1  0  0  0  0
 34 68  1  0  0  0  0
 34 78  2  0  0  0  0
 35 61  1  0  0  0  0
 35 73  1  0  0  0  0
 35 79  2  0  0  0  0
 36 69  1  0  0  0  0
 36 74  1  0  0  0  0
 36 80  2  0  0  0  0
 37 40  1  0  0  0  0
 38 47  1  0  0  0  0
 39 68  1  0  0  0  0
 40 42  1  0  0  0  0
 41 43  1  0  0  0  0
 41 44  1  0  0  0  0
 42 46  1  0  0  0  0
 43 48  1  0  0  0  0
 44 69  1  0  0  0  0
 45 48  1  0  0  0  0
 45 69  1  0  0  0  0
 46 72  1  0  0  0  0
 47 68  1  0  0  0  0
 48 67  1  0  0  0  0
 49 61  1  0  0  0  0
 50 62  1  0  0  0  0
 51 62  1  0  0  0  0
 52 63  1  0  0  0  0
 53 63  1  0  0  0  0
 54 63  1  0  0  0  0
 55 75  1  0  0  0  0
 56 59  1  0  0  0  0
 57 74  1  0  0  0  0
 58 62  1  0  0  0  0
 58 74  1  0  0  0  0
 59 82  1  0  0  0  0
 60 63  1  0  0  0  0
 60 73  1  0  0  0  0
 61 75  1  0  0  0  0
 66 67  1  0  0  0  0
M  CHG  1  75   1
M  ISO  4  36 100  59 101  74 100  82 101
M  END
> <Batch ID>
0054

> <Smiles>
CNC(C)C(=O)NC(C(=O)N1Cc2cc([101O:1][101CH2:1]Cc3cnc(C[100N:0](CC(C)C)[100C:0](=O)N4CCCC(n5nc(-c6ccc(Oc7ccc(F)cc7F)cc6)c(C(N)=O)c5N)C4)cn3)ccc2CC1C(=O)NC1CCCc2ccccc21)C(C)(C)C

> <Shape>
0.289

> <Color>
0.099

> <Negative vol penalty>
0.000

$$$$

  -OEChem-04052317413D

 81 89  0     1  0  0  0  0  0999 V2000
  -28.6678  -11.3324   21.2581 C   0  0  0  0  0  0  0  0  0  0  0  0
  -28.9200  -12.5871   20.7126 C   0  0  0  0  0  0  0  0  0  0  0  0
  -24.9419  -26.7708   21.5563 C   0  0  0  0  0  0  0  0  0  0  0  0
  -25.1733  -28.4351   19.8203 C   0  0  0  0  0  0  0  0  0  0  0  0
  -27.3549  -10.8824   21.3911 C   0  0  0  0  0  0  0  0  0  0  0  0
  -27.8593  -13.3921   20.2986 C   0  0  0  0  0  0  0  0  0  0  0  0
  -28.3761  -18.2044   21.7882 C   0  0  0  0  0  0  0  0  0  0  0  0
  -23.7514  -27.3682   21.9704 C   0  0  0  0  0  0  0  0  0  0  0  0
  -23.9827  -29.0324   20.2343 C   0  0  0  0  0  0  0  0  0  0  0  0
  -29.2573  -19.0046   21.0622 C   0  0  0  0  0  0  0  0  0  0  0  0
  -20.5198  -27.4322   20.9776 C   0  0  0  0  0  0  0  0  0  0  0  0
  -19.4350  -26.5976   21.2462 C   0  0  0  0  0  0  0  0  0  0  0  0
  -27.3934  -19.9623   19.8672 C   0  0  0  0  0  0  0  0  0  0  0  0
  -32.0612  -21.3451   17.4396 C   0  0  0  0  0  0  0  0  0  0  0  0
  -19.3772  -27.4054   23.5225 C   0  0  0  0  0  0  0  0  0  0  0  0
  -32.3600  -22.6741   19.2324 C   0  0  0  0  0  0  0  0  0  0  0  0
  -25.6529  -27.3043   20.4813 C   0  0  0  0  0  0  0  0  0  0  0  0
  -27.0345  -25.6678   19.0954 C   0  0  0  0  0  0  0  0  0  0  0  0
  -26.2772  -11.6862   20.9875 C   0  0  0  0  0  0  0  0  0  0  0  0
  -26.9955  -18.2695   21.5512 C   0  0  0  0  0  0  0  0  0  0  0  0
  -26.5308  -12.9518   20.4251 C   0  0  0  0  0  0  0  0  0  0  0  0
  -26.4966  -19.1638   20.5934 C   0  0  0  0  0  0  0  0  0  0  0  0
  -31.7871  -21.4907   18.8219 C   0  0  0  0  0  0  0  0  0  0  0  0
  -23.2718  -28.4990   21.3094 C   0  0  0  0  0  0  0  0  0  0  0  0
  -28.7662  -19.8816   20.0995 C   0  0  0  0  0  0  0  0  0  0  0  0
  -21.0335  -28.2534   21.9814 C   0  0  0  0  0  0  0  0  0  0  0  0
  -18.8637  -26.5843   22.5186 C   0  0  0  0  0  0  0  0  0  0  0  0
  -20.4621  -28.2400   23.2538 C   0  0  0  0  0  0  0  0  0  0  0  0
  -26.8831  -26.6880   20.0535 C   0  0  0  0  0  0  0  0  0  0  0  0
  -32.7935  -22.4439   17.0475 C   0  0  0  0  0  0  0  0  0  0  0  0
  -28.3875  -25.4356   19.0519 C   0  0  0  0  0  0  0  0  0  0  0  0
  -26.0409  -24.9906   18.3144 C   0  0  0  0  0  0  0  0  0  0  0  0
  -24.7929  -16.2104   20.5453 C   0  0  0  0  0  0  0  0  0  0  0  0
  -22.7625  -18.6438   21.2369 C   0  0  0  0  0  0  0  0  0  0  0  0
  -22.2982  -21.9983   21.6598 C   0  0  0  0  0  0  0  0  0  0  0  0
  -33.5405  -27.8172   18.7486 C   0  0  0  0  0  0  0  0  0  0  0  0
  -24.8775  -11.1374   21.1074 C   0  0  0  0  0  0  0  0  0  0  0  0
  -26.0561  -17.4191   22.3616 C   0  0  0  0  0  0  0  0  0  0  0  0
  -25.0215  -19.2863   20.3152 C   0  0  0  0  0  0  0  0  0  0  0  0
  -23.7926  -12.2049   20.9902 C   0  0  0  0  0  0  0  0  0  0  0  0
  -32.1155  -27.0145   22.0692 C   0  0  0  0  0  0  0  0  0  0  0  0
  -24.0745  -13.1249   19.8065 C   0  0  0  0  0  0  0  0  0  0  0  0
  -30.6285  -26.8465   21.7618 C   0  0  0  0  0  0  0  0  0  0  0  0
  -32.7912  -27.9746   21.0949 C   0  0  0  0  0  0  0  0  0  0  0  0
  -31.1146  -27.4449   19.3564 C   0  0  0  0  0  0  0  0  0  0  0  0
  -25.4057  -13.8643   19.9873 C   0  0  1  0  0  0  0  0  0  0  0  0
  -24.7113  -17.1954   21.6770 C   0  0  1  0  0  0  0  0  0  0  0  0
  -30.4139  -26.4477   20.2914 C   0  0  2  0  0  0  0  0  0  0  0  0
  -33.3386  -22.7953   15.7199 C   0  0  0  0  0  0  0  0  0  0  0  0
  -20.5205  -23.6903   22.1834 C   0  0  0  0  0  0  0  0  0  0  0  0
  -21.6794  -18.3812   18.3965 C   0  0  0  0  0  0  0  0  0  0  0  0
  -20.6310  -20.6392   18.6620 C   0  0  0  0  0  0  0  0  0  0  0  0
  -19.9344  -18.7601   20.1475 C   0  0  0  0  0  0  0  0  0  0  0  0
  -34.6276  -27.1102   16.6515 C   0  0  0  0  0  0  0  0  0  0  0  0
  -23.6975  -22.8805   24.1139 C   0  0  0  0  0  0  0  0  0  0  0  0
  -31.0148  -20.5334   19.6813 C   0  0  0  0  0  0  0  0  0  1  0  0
  -33.6842  -24.5020   18.1719 C   0  0  0  0  0  0  0  0  0  0  0  0
  -32.8716  -25.6623   17.6032 C   0  0  0  0  0  0  0  0  0  0  0  0
  -22.2058  -19.8214   20.4736 C   0  0  1  0  0  0  0  0  0  0  0  0
  -21.6043  -22.7890   22.7542 C   0  0  2  0  0  0  0  0  0  0  0  0
  -21.1406  -19.3970   19.4235 C   0  0  0  0  0  0  0  0  0  0  0  0
  -28.0470  -27.0770   20.5808 N   0  0  0  0  0  0  0  0  0  0  0  0
  -32.9694  -23.2448   18.1456 N   0  0  0  0  0  0  0  0  0  0  0  0
  -28.9426  -26.2970   19.9519 N   0  0  0  0  0  0  0  0  0  0  0  0
  -24.1438  -18.4291   21.1291 N   0  0  0  0  0  0  0  0  0  0  0  0
  -32.5352  -27.5971   19.7045 N   0  0  0  0  0  0  0  0  0  0  0  0
  -29.1446  -24.5805   18.3322 N   0  0  0  0  0  0  0  0  0  0  0  0
  -24.6974  -25.3524   18.4833 N   0  0  0  0  0  0  0  0  0  0  0  0
  -25.2519  -14.9615   20.9184 N   0  0  0  0  0  0  0  0  0  0  0  0
  -21.7158  -20.7622   21.4752 N   0  0  0  0  0  0  0  0  0  0  0  0
  -33.5958  -26.9301   17.6628 N   0  0  0  0  0  0  0  0  0  0  0  0
  -22.5881  -23.6398   23.4817 N   0  3  0  0  0  0  0  0  0  0  0  0
  -26.3341  -24.0799   17.5032 O   0  0  0  0  0  0  0  0  0  0  0  0
  -24.4623  -16.5572   19.4174 O   0  0  0  0  0  0  0  0  0  0  0  0
  -22.0009  -17.9446   21.9097 O   0  0  0  0  0  0  0  0  0  0  0  0
  -23.2584  -22.4350   21.0290 O   0  0  0  0  0  0  0  0  0  0  0  0
  -34.3487  -28.7474   18.8642 O   0  0  0  0  0  0  0  0  0  0  0  0
  -22.1100  -29.0820   21.7129 O   0  0  0  0  0  0  0  0  0  0  0  0
  -29.6241  -20.6632   19.3889 O   0  0  0  0  0  0  0  0  0  1  0  0
  -17.8209  -25.7839   22.7760 F   0  0  0  0  0  0  0  0  0  0  0  0
  -20.9504  -29.0275   24.2219 F   0  0  0  0  0  0  0  0  0  0  0  0
  1  2  1  0  0  0  0
  1  5  2  0  0  0  0
  2  6  2  0  0  0  0
  3  8  2  0  0  0  0
  3 17  1  0  0  0  0
  4  9  1  0  0  0  0
  4 17  2  0  0  0  0
  5 19  1  0  0  0  0
  6 21  1  0  0  0  0
  7 10  2  0  0  0  0
  7 20  1  0  0  0  0
  8 24  1  0  0  0  0
  9 24  2  0  0  0  0
 10 25  1  0  0  0  0
 11 12  2  0  0  0  0
 11 26  1  0  0  0  0
 12 27  1  0  0  0  0
 13 22  1  0  0  0  0
 13 25  2  0  0  0  0
 14 23  1  0  0  0  0
 14 30  2  0  0  0  0
 15 27  2  0  0  0  0
 15 28  1  0  0  0  0
 16 23  2  0  0  0  0
 16 63  1  0  0  0  0
 17 29  1  0  0  0  0
 18 29  1  0  0  0  0
 18 31  2  0  0  0  0
 18 32  1  0  0  0  0
 19 21  2  0  0  0  0
 19 37  1  0  0  0  0
 20 22  2  0  0  0  0
 20 38  1  0  0  0  0
 21 46  1  0  0  0  0
 22 39  1  0  0  0  0
 23 56  1  0  0  0  0
 24 78  1  0  0  0  0
 25 79  1  0  0  0  0
 26 28  2  0  0  0  0
 26 78  1  0  0  0  0
 27 80  1  0  0  0  0
 28 81  1  0  0  0  0
 29 62  2  0  0  0  0
 30 49  1  0  0  0  0
 30 63  1  0  0  0  0
 31 64  1  0  0  0  0
 31 67  1  0  0  0  0
 32 68  1  0  0  0  0
 32 73  2  0  0  0  0
 33 47  1  0  0  0  0
 33 69  1  0  0  0  0
 33 74  2  0  0  0  0
 34 59  1  0  0  0  0
 34 65  1  0  0  0  0
 34 75  2  0  0  0  0
 35 60  1  0  0  0  0
 35 70  1  0  0  0  0
 35 76  2  0  0  0  0
 36 66  1  0  0  0  0
 36 71  1  0  0  0  0
 36 77  2  0  0  0  0
 37 40  1  0  0  0  0
 38 47  1  0  0  0  0
 39 65  1  0  0  0  0
 40 42  1  0  0  0  0
 41 43  1  0  0  0  0
 41 44  1  0  0  0  0
 42 46  1  0  0  0  0
 43 48  1  0  0  0  0
 44 66  1  0  0  0  0
 45 48  1  0  0  0  0
 45 66  1  0  0  0  0
 46 69  1  0  0  0  0
 47 65  1  0  0  0  0
 48 64  1  0  0  0  0
 50 60  1  0  0  0  0
 51 61  1  0  0  0  0
 52 61  1  0  0  0  0
 53 61  1  0  0  0  0
 54 71  1  0  0  0  0
 55 72  1  0  0  0  0
 56 79  1  0  0  0  0
 57 58  1  0  0  0  0
 57 63  1  0  0  0  0
 58 71  1  0  0  0  0
 59 61  1  0  0  0  0
 59 70  1  0  0  0  0
 60 72  1  0  0  0  0
 62 64  1  0  0  0  0
M  CHG  1  72   1
M  ISO  4  36 100  56 101  71 100  79 101
M  END
> <Batch ID>
0054

> <Smiles>
CNC(C)C(=O)NC(C(=O)N1Cc2cc([101O:1][101CH2:1]c3cc(C)n(CC[100N:0](C)[100C:0](=O)N4CCCC(n5nc(-c6ccc(Oc7ccc(F)cc7F)cc6)c(C(N)=O)c5N)C4)c3)ccc2CC1C(=O)NC1CCCc2ccccc21)C(C)(C)C

> <Shape>
0.213

> <Color>
0.074

> <Negative vol penalty>
0.000

$$$$

  -OEChem-04052317413D

 84 92  0     1  0  0  0  0  0999 V2000
  -26.6283  -24.0315   21.9435 C   0  0  0  0  0  0  0  0  0  0  0  0
  -25.8561  -22.9417   21.5576 C   0  0  0  0  0  0  0  0  0  0  0  0
  -23.3997  -30.2078   20.7376 C   0  0  0  0  0  0  0  0  0  0  0  0
  -23.1001  -28.3544   22.2582 C   0  0  0  0  0  0  0  0  0  0  0  0
  -27.9973  -23.8732   22.1484 C   0  0  0  0  0  0  0  0  0  0  0  0
  -26.4505  -21.6907   21.3880 C   0  0  0  0  0  0  0  0  0  0  0  0
  -23.4487  -17.8871   20.5365 C   0  0  0  0  0  0  0  0  0  0  0  0
  -22.2899  -30.8437   21.2940 C   0  0  0  0  0  0  0  0  0  0  0  0
  -21.9903  -28.9903   22.8146 C   0  0  0  0  0  0  0  0  0  0  0  0
  -22.7801  -17.7109   19.3259 C   0  0  0  0  0  0  0  0  0  0  0  0
  -18.7345  -29.4575   22.0321 C   0  0  0  0  0  0  0  0  0  0  0  0
  -17.5921  -28.6892   22.2563 C   0  0  0  0  0  0  0  0  0  0  0  0
  -24.3624  -15.9978   18.7084 C   0  0  0  0  0  0  0  0  0  0  0  0
  -17.7181  -29.1905   24.6164 C   0  0  0  0  0  0  0  0  0  0  0  0
  -19.7142  -16.3252   15.4196 C   0  0  0  0  0  0  0  0  0  0  0  0
  -23.8048  -28.9631   21.2197 C   0  0  0  0  0  0  0  0  0  0  0  0
  -26.2926  -28.4238   21.0540 C   0  0  0  0  0  0  0  0  0  0  0  0
  -28.6101  -22.6221   21.9689 C   0  0  0  0  0  0  0  0  0  0  0  0
  -24.5874  -17.1264   20.8381 C   0  0  0  0  0  0  0  0  0  0  0  0
  -27.8265  -21.5055   21.6133 C   0  0  0  0  0  0  0  0  0  0  0  0
  -25.0420  -16.1645   19.9247 C   0  0  0  0  0  0  0  0  0  0  0  0
  -20.8539  -17.0538   15.6574 C   0  0  0  0  0  0  0  0  0  0  0  0
  -21.5852  -30.2350   22.3325 C   0  0  0  0  0  0  0  0  0  0  0  0
  -23.2386  -16.7682   18.4103 C   0  0  0  0  0  0  0  0  0  0  0  0
  -19.3688  -30.0923   23.1001 C   0  0  0  0  0  0  0  0  0  0  0  0
  -17.0839  -28.5557   23.5484 C   0  0  0  0  0  0  0  0  0  0  0  0
  -18.8605  -29.9588   24.3922 C   0  0  0  0  0  0  0  0  0  0  0  0
  -24.9508  -28.3054   20.6450 C   0  0  0  0  0  0  0  0  0  0  0  0
  -21.3355  -17.3821   14.3760 C   0  0  0  0  0  0  0  0  0  0  0  0
  -26.9865  -27.6063   20.1957 C   0  0  0  0  0  0  0  0  0  0  0  0
  -26.8610  -29.2030   22.1149 C   0  0  0  0  0  0  0  0  0  0  0  0
  -27.6415  -17.7921   21.4155 C   0  0  0  0  0  0  0  0  0  0  0  0
  -27.8049  -14.6194   22.0712 C   0  0  0  0  0  0  0  0  0  0  0  0
  -26.5051  -11.4966   21.6182 C   0  0  0  0  0  0  0  0  0  0  0  0
  -25.3566  -22.8289   17.1338 C   0  0  0  0  0  0  0  0  0  0  0  0
  -30.0942  -22.5055   22.2118 C   0  0  0  0  0  0  0  0  0  0  0  0
  -25.2816  -17.3098   22.1598 C   0  0  0  0  0  0  0  0  0  0  0  0
  -26.2479  -15.3082   20.2093 C   0  0  0  0  0  0  0  0  0  0  0  0
  -30.7035  -21.2575   21.5813 C   0  0  0  0  0  0  0  0  0  0  0  0
  -26.8180  -25.8375   15.7515 C   0  0  0  0  0  0  0  0  0  0  0  0
  -29.8806  -20.0330   21.9525 C   0  0  0  0  0  0  0  0  0  0  0  0
  -26.6271  -26.8254   16.9038 C   0  0  0  0  0  0  0  0  0  0  0  0
  -25.6259  -24.8927   15.6302 C   0  0  0  0  0  0  0  0  0  0  0  0
  -25.1145  -25.1270   18.0296 C   0  0  0  0  0  0  0  0  0  0  0  0
  -28.4564  -20.1420   21.3932 C   0  0  1  0  0  0  0  0  0  0  0  0
  -26.7333  -16.8411   22.1425 C   0  0  1  0  0  0  0  0  0  0  0  0
  -26.2964  -26.0953   18.2190 C   0  0  2  0  0  0  0  0  0  0  0  0
  -26.8773   -9.0971   22.2514 C   0  0  0  0  0  0  0  0  0  0  0  0
  -30.1112  -14.4542   20.0802 C   0  0  0  0  0  0  0  0  0  0  0  0
  -29.8066  -11.9694   20.0401 C   0  0  0  0  0  0  0  0  0  0  0  0
  -30.4355  -13.1130   22.1660 C   0  0  0  0  0  0  0  0  0  0  0  0
  -18.5364  -15.5987   13.3305 C   0  0  0  0  0  0  0  0  0  0  0  0
  -23.8758  -11.3235   22.9656 C   0  0  0  0  0  0  0  0  0  0  0  0
  -21.5854  -20.2925   13.1727 C   0  0  0  0  0  0  0  0  0  0  0  0
  -21.4432  -17.4123   16.9899 C   0  0  0  0  0  0  0  0  0  1  0  0
  -22.5394  -18.1604   14.0356 C   0  0  0  0  0  0  0  0  0  0  0  0
  -24.2538  -19.9786   15.8382 C   0  0  0  0  0  0  0  0  0  0  0  0
  -25.6262  -20.5917   16.0949 C   0  0  0  0  0  0  0  0  0  0  0  0
  -23.7234  -20.3116   14.4495 C   0  0  0  0  0  0  0  0  0  0  0  0
  -28.0875  -13.3744   21.2656 C   0  0  1  0  0  0  0  0  0  0  0  0
  -26.1658  -10.3939   22.6047 C   0  0  2  0  0  0  0  0  0  0  0  0
  -29.5886  -13.2451   20.8815 C   0  0  0  0  0  0  0  0  0  0  0  0
  -24.7990  -27.4781   19.6075 N   0  0  0  0  0  0  0  0  0  0  0  0
  -20.5648  -16.9014   13.3967 N   0  0  0  0  0  0  0  0  0  0  0  0
  -19.5875  -16.2635   14.0631 N   0  0  0  0  0  0  0  0  0  0  0  0
  -26.0545  -27.0692   19.3572 N   0  0  0  0  0  0  0  0  0  0  0  0
  -26.8962  -15.5293   21.5125 N   0  0  0  0  0  0  0  0  0  0  0  0
  -25.3759  -24.2157   16.9105 N   0  0  0  0  0  0  0  0  0  0  0  0
  -28.2970  -27.3018   20.0838 N   0  0  0  0  0  0  0  0  0  0  0  0
  -26.0051  -29.9869   22.9006 N   0  0  0  0  0  0  0  0  0  0  0  0
  -27.6518  -19.0710   21.9385 N   0  0  0  0  0  0  0  0  0  0  0  0
  -27.5726  -12.2561   22.0483 N   0  0  0  0  0  0  0  0  0  0  0  0
  -25.6068  -22.0357   16.0207 N   0  0  0  0  0  0  0  0  0  0  0  0
  -24.6977  -10.1380   22.6108 N   0  3  0  0  0  0  0  0  0  0  0  0
  -22.3947  -19.6333   14.2558 N   0  3  1  0  0  0  0  0  0  0  0  0
  -28.0934  -29.2167   22.3485 O   0  0  0  0  0  0  0  0  0  0  0  0
  -28.2863  -17.3945   20.4522 O   0  0  0  0  0  0  0  0  0  0  0  0
  -28.3643  -14.7754   23.1595 O   0  0  0  0  0  0  0  0  0  0  0  0
  -25.8876  -11.6649   20.5690 O   0  0  0  0  0  0  0  0  0  0  0  0
  -25.1379  -22.3338   18.2447 O   0  0  0  0  0  0  0  0  0  0  0  0
  -20.5024  -30.8553   22.8758 O   0  0  0  0  0  0  0  0  0  0  0  0
  -22.5884  -16.5946   17.2276 O   0  0  0  0  0  0  0  0  0  1  0  0
  -15.9860  -27.8191   23.7633 F   0  0  0  0  0  0  0  0  0  0  0  0
  -19.4649  -30.5672   25.4220 F   0  0  0  0  0  0  0  0  0  0  0  0
  1  2  1  0  0  0  0
  1  5  2  0  0  0  0
  2  6  2  0  0  0  0
  3  8  2  0  0  0  0
  3 16  1  0  0  0  0
  4  9  1  0  0  0  0
  4 16  2  0  0  0  0
  5 18  1  0  0  0  0
  6 20  1  0  0  0  0
  7 10  2  0  0  0  0
  7 19  1  0  0  0  0
  8 23  1  0  0  0  0
  9 23  2  0  0  0  0
 10 24  1  0  0  0  0
 11 12  2  0  0  0  0
 11 25  1  0  0  0  0
 12 26  1  0  0  0  0
 13 21  1  0  0  0  0
 13 24  2  0  0  0  0
 14 26  2  0  0  0  0
 14 27  1  0  0  0  0
 15 22  2  0  0  0  0
 15 65  1  0  0  0  0
 16 28  1  0  0  0  0
 17 28  1  0  0  0  0
 17 30  2  0  0  0  0
 17 31  1  0  0  0  0
 18 20  2  0  0  0  0
 18 36  1  0  0  0  0
 19 21  2  0  0  0  0
 19 37  1  0  0  0  0
 20 45  1  0  0  0  0
 21 38  1  0  0  0  0
 22 29  1  0  0  0  0
 22 55  1  0  0  0  0
 23 81  1  0  0  0  0
 24 82  1  0  0  0  0
 25 27  2  0  0  0  0
 25 81  1  0  0  0  0
 26 83  1  0  0  0  0
 27 84  1  0  0  0  0
 28 63  2  0  0  0  0
 29 56  1  0  0  0  0
 29 64  2  0  0  0  0
 30 66  1  0  0  0  0
 30 69  1  0  0  0  0
 31 70  1  0  0  0  0
 31 76  2  0  0  0  0
 32 46  1  0  0  0  0
 32 71  1  0  0  0  0
 32 77  2  0  0  0  0
 33 60  1  0  0  0  0
 33 67  1  0  0  0  0
 33 78  2  0  0  0  0
 34 61  1  0  0  0  0
 34 72  1  0  0  0  0
 34 79  2  0  0  0  0
 35 68  1  0  0  0  0
 35 73  1  0  0  0  0
 35 80  2  0  0  0  0
 36 39  1  0  0  0  0
 37 46  1  0  0  0  0
 38 67  1  0  0  0  0
 39 41  1  0  0  0  0
 40 42  1  0  0  0  0
 40 43  1  0  0  0  0
 41 45  1  0  0  0  0
 42 47  1  0  0  0  0
 43 68  1  0  0  0  0
 44 47  1  0  0  0  0
 44 68  1  0  0  0  0
 45 71  1  0  0  0  0
 46 67  1  0  0  0  0
 47 66  1  0  0  0  0
 48 61  1  0  0  0  0
 49 62  1  0  0  0  0
 50 62  1  0  0  0  0
 51 62  1  0  0  0  0
 52 65  1  0  0  0  0
 53 74  1  0  0  0  0
 54 75  1  0  0  0  0
 55 82  1  0  0  0  0
 56 75  1  0  0  0  0
 57 58  1  0  0  0  0
 57 59  1  0  0  0  0
 58 73  1  0  0  0  0
 59 75  1  0  0  0  0
 60 62  1  0  0  0  0
 60 72  1  0  0  0  0
 61 74  1  0  0  0  0
 63 66  1  0  0  0  0
 64 65  1  0  0  0  0
M  CHG  2  74   1  75   1
M  ISO  4  35 100  55 101  73 100  82 101
M  END
> <Batch ID>
0054

> <Smiles>
CNC(C)C(=O)NC(C(=O)N1Cc2cc([101O:1][101CH2:1]c3cn(C)nc3CN(C)CCC[100NH:0][100C:0](=O)N3CCCC(n4nc(-c5ccc(Oc6ccc(F)cc6F)cc5)c(C(N)=O)c4N)C3)ccc2CC1C(=O)NC1CCCc2ccccc21)C(C)(C)C

> <Shape>
0.199

> <Color>
0.062

> <Negative vol penalty>
0.000

$$$$
