
  -OEChem-04052317433D

 79 87  0     1  0  0  0  0  0999 V2000
  -19.0259  -28.2135   23.1395 C   0  0  0  0  0  0  0  0  0  0  0  0
  -19.4627  -26.9229   23.4204 C   0  0  0  0  0  0  0  0  0  0  0  0
  -22.5059  -15.5351   21.9185 C   0  0  0  0  0  0  0  0  0  0  0  0
  -22.7647  -15.8135   19.5326 C   0  0  0  0  0  0  0  0  0  0  0  0
  -19.5191  -28.8877   22.0233 C   0  0  0  0  0  0  0  0  0  0  0  0
  -20.3924  -26.3053   22.5845 C   0  0  0  0  0  0  0  0  0  0  0  0
  -25.8528  -21.6721   22.7674 C   0  0  0  0  0  0  0  0  0  0  0  0
  -21.4894  -16.4902   21.9198 C   0  0  0  0  0  0  0  0  0  0  0  0
  -21.7480  -16.7686   19.5338 C   0  0  0  0  0  0  0  0  0  0  0  0
  -26.2909  -20.4989   22.1546 C   0  0  0  0  0  0  0  0  0  0  0  0
  -21.4004  -20.0359   20.3302 C   0  0  0  0  0  0  0  0  0  0  0  0
  -21.6129  -21.2096   19.6070 C   0  0  0  0  0  0  0  0  0  0  0  0
  -27.1333  -21.7899   20.2991 C   0  0  0  0  0  0  0  0  0  0  0  0
  -19.6816  -20.7178   18.2413 C   0  0  0  0  0  0  0  0  0  0  0  0
  -29.3951  -17.3683   18.9641 C   0  0  0  0  0  0  0  0  0  0  0  0
  -28.2308  -16.4329   17.3436 C   0  0  0  0  0  0  0  0  0  0  0  0
  -23.1436  -15.1968   20.7249 C   0  0  0  0  0  0  0  0  0  0  0  0
  -24.0554  -12.8210   20.5457 C   0  0  0  0  0  0  0  0  0  0  0  0
  -20.4626  -28.2817   21.1787 C   0  0  0  0  0  0  0  0  0  0  0  0
  -26.0423  -22.9141   22.1445 C   0  0  0  0  0  0  0  0  0  0  0  0
  -20.8977  -26.9715   21.4551 C   0  0  0  0  0  0  0  0  0  0  0  0
  -26.6990  -22.9776   20.9073 C   0  0  0  0  0  0  0  0  0  0  0  0
  -21.1104  -17.1069   20.7274 C   0  0  0  0  0  0  0  0  0  0  0  0
  -26.9287  -20.5574   20.9189 C   0  0  0  0  0  0  0  0  0  0  0  0
  -20.3285  -19.2032   20.0088 C   0  0  0  0  0  0  0  0  0  0  0  0
  -20.7535  -21.5506   18.5626 C   0  0  0  0  0  0  0  0  0  0  0  0
  -19.4691  -19.5441   18.9644 C   0  0  0  0  0  0  0  0  0  0  0  0
  -24.1942  -14.2107   20.7231 C   0  0  0  0  0  0  0  0  0  0  0  0
  -28.3708  -18.1843   18.5450 C   0  0  0  0  0  0  0  0  0  0  0  0
  -25.3374  -12.3348   20.6271 C   0  0  0  0  0  0  0  0  0  0  0  0
  -22.8734  -12.0396   20.3268 C   0  0  0  0  0  0  0  0  0  0  0  0
  -24.1145  -25.1969   21.0601 C   0  0  0  0  0  0  0  0  0  0  0  0
  -26.9031  -26.7827   20.5792 C   0  0  0  0  0  0  0  0  0  0  0  0
  -30.6761  -14.9104   19.6387 C   0  0  0  0  0  0  0  0  0  0  0  0
  -30.2750  -26.6272   20.0764 C   0  0  0  0  0  0  0  0  0  0  0  0
  -20.9314  -29.0322   19.9574 C   0  0  0  0  0  0  0  0  0  0  0  0
  -25.5877  -24.1728   22.8312 C   0  0  0  0  0  0  0  0  0  0  0  0
  -26.9449  -24.2878   20.2063 C   0  0  0  0  0  0  0  0  0  0  0  0
  -22.1958  -28.4487   19.3320 C   0  0  0  0  0  0  0  0  0  0  0  0
  -29.5797  -13.2543   22.6212 C   0  0  0  0  0  0  0  0  0  0  0  0
  -22.0796  -26.9328   19.2085 C   0  0  0  0  0  0  0  0  0  0  0  0
  -28.0597  -13.2110   22.4697 C   0  0  0  0  0  0  0  0  0  0  0  0
  -30.1637  -14.5326   22.0281 C   0  0  0  0  0  0  0  0  0  0  0  0
  -28.2710  -14.7226   20.4459 C   0  0  0  0  0  0  0  0  0  0  0  0
  -21.9239  -26.2774   20.5861 C   0  0  1  0  0  0  0  0  0  0  0  0
  -25.3743  -25.3357   21.8670 C   0  0  1  0  0  0  0  0  0  0  0  0
  -27.6436  -13.4332   21.0047 C   0  0  2  0  0  0  0  0  0  0  0  0
  -32.2768  -28.0874   19.6792 C   0  0  0  0  0  0  0  0  0  0  0  0
  -31.3449  -15.2862   17.2862 C   0  0  0  0  0  0  0  0  0  0  0  0
  -29.4590  -13.7629   17.8756 C   0  0  0  0  0  0  0  0  0  0  0  0
  -26.0226  -27.1991   17.6876 C   0  0  0  0  0  0  0  0  0  0  0  0
  -28.3899  -27.7888   17.1250 C   0  0  0  0  0  0  0  0  0  0  0  0
  -27.1088  -29.1887   18.7442 C   0  0  0  0  0  0  0  0  0  0  0  0
  -31.5942  -25.6913   22.5548 C   0  0  0  0  0  0  0  0  0  0  0  0
  -28.0025  -19.5473   19.0528 C   0  0  0  0  0  0  0  0  0  1  0  0
  -27.8908  -26.8880   19.4424 C   0  0  1  0  0  0  0  0  0  0  0  0
  -31.4253  -27.3790   20.7213 C   0  0  2  0  0  0  0  0  0  0  0  0
  -30.1503  -15.0915   18.2370 C   0  0  0  0  0  0  0  0  0  0  0  0
  -27.3468  -27.7411   18.2618 C   0  0  0  0  0  0  0  0  0  0  0  0
  -27.6496  -17.5961   17.5363 N   0  0  0  0  0  0  0  0  0  0  0  0
  -25.4641  -14.5832   20.9038 N   0  0  0  0  0  0  0  0  0  0  0  0
  -29.2923  -16.2500   18.1857 N   0  0  0  0  0  0  0  0  0  0  0  0
  -26.1350  -13.4204   20.8404 N   0  0  0  0  0  0  0  0  0  0  0  0
  -26.4762  -25.4901   20.9151 N   0  0  0  0  0  0  0  0  0  0  0  0
  -29.7272  -14.7191   20.6432 N   0  0  0  0  0  0  0  0  0  0  0  0
  -25.8489  -11.0888   20.5365 N   0  0  0  0  0  0  0  0  0  0  0  0
  -21.6378  -12.6986   20.2705 N   0  0  0  0  0  0  0  0  0  0  0  0
  -23.2014  -26.2141   21.2630 N   0  0  0  0  0  0  0  0  0  0  0  0
  -29.1298  -27.3934   20.0236 N   0  0  0  0  0  0  0  0  0  0  0  0
  -32.2974  -26.4391   21.4808 N   0  3  0  0  0  0  0  0  0  0  0  0
  -22.9101  -10.7920   20.2018 O   0  0  0  0  0  0  0  0  0  0  0  0
  -23.9813  -24.2387   20.3078 O   0  0  0  0  0  0  0  0  0  0  0  0
  -26.5296  -27.8089   21.1528 O   0  0  0  0  0  0  0  0  0  0  0  0
  -31.8943  -14.9354   19.8326 O   0  0  0  0  0  0  0  0  0  0  0  0
  -30.3826  -25.4767   19.6576 O   0  0  0  0  0  0  0  0  0  0  0  0
  -20.1183  -18.0387   20.7282 O   0  0  0  0  0  0  0  0  0  0  0  0
  -27.3567  -19.4138   20.3183 O   0  0  0  0  0  0  0  0  0  1  0  0
  -20.9569  -22.6784   17.8692 F   0  0  0  0  0  0  0  0  0  0  0  0
  -18.4369  -18.7487   18.6518 F   0  0  0  0  0  0  0  0  0  0  0  0
  1  2  1  0  0  0  0
  1  5  2  0  0  0  0
  2  6  2  0  0  0  0
  3  8  2  0  0  0  0
  3 17  1  0  0  0  0
  4  9  1  0  0  0  0
  4 17  2  0  0  0  0
  5 19  1  0  0  0  0
  6 21  1  0  0  0  0
  7 10  2  0  0  0  0
  7 20  1  0  0  0  0
  8 23  1  0  0  0  0
  9 23  2  0  0  0  0
 10 24  1  0  0  0  0
 11 12  2  0  0  0  0
 11 25  1  0  0  0  0
 12 26  1  0  0  0  0
 13 22  1  0  0  0  0
 13 24  2  0  0  0  0
 14 26  2  0  0  0  0
 14 27  1  0  0  0  0
 15 29  2  0  0  0  0
 15 62  1  0  0  0  0
 16 60  2  0  0  0  0
 16 62  1  0  0  0  0
 17 28  1  0  0  0  0
 18 28  1  0  0  0  0
 18 30  2  0  0  0  0
 18 31  1  0  0  0  0
 19 21  2  0  0  0  0
 19 36  1  0  0  0  0
 20 22  2  0  0  0  0
 20 37  1  0  0  0  0
 21 45  1  0  0  0  0
 22 38  1  0  0  0  0
 23 76  1  0  0  0  0
 24 77  1  0  0  0  0
 25 27  2  0  0  0  0
 25 76  1  0  0  0  0
 26 78  1  0  0  0  0
 27 79  1  0  0  0  0
 28 61  2  0  0  0  0
 29 55  1  0  0  0  0
 29 60  1  0  0  0  0
 30 63  1  0  0  0  0
 30 66  1  0  0  0  0
 31 67  1  0  0  0  0
 31 71  2  0  0  0  0
 32 46  1  0  0  0  0
 32 68  1  0  0  0  0
 32 72  2  0  0  0  0
 33 56  1  0  0  0  0
 33 64  1  0  0  0  0
 33 73  2  0  0  0  0
 34 58  1  0  0  0  0
 34 65  1  0  0  0  0
 34 74  2  0  0  0  0
 35 57  1  0  0  0  0
 35 69  1  0  0  0  0
 35 75  2  0  0  0  0
 36 39  1  0  0  0  0
 37 46  1  0  0  0  0
 38 64  1  0  0  0  0
 39 41  1  0  0  0  0
 40 42  1  0  0  0  0
 40 43  1  0  0  0  0
 41 45  1  0  0  0  0
 42 47  1  0  0  0  0
 43 65  1  0  0  0  0
 44 47  1  0  0  0  0
 44 65  1  0  0  0  0
 45 68  1  0  0  0  0
 46 64  1  0  0  0  0
 47 63  1  0  0  0  0
 48 57  1  0  0  0  0
 49 58  1  0  0  0  0
 50 58  1  0  0  0  0
 51 59  1  0  0  0  0
 52 59  1  0  0  0  0
 53 59  1  0  0  0  0
 54 70  1  0  0  0  0
 55 77  1  0  0  0  0
 56 59  1  0  0  0  0
 56 69  1  0  0  0  0
 57 70  1  0  0  0  0
 58 62  1  0  0  0  0
 61 63  1  0  0  0  0
M  CHG  1  70   1
M  ISO  4  34 100  55 101  58 100  77 101
M  END
> <Batch ID>
0055

> <Smiles>
CNC(C)C(=O)NC(C(=O)N1Cc2cc([101O:1][101CH2:1]c3cn([100C:0](C)(C)[100C:0](=O)N4CCCC(n5nc(-c6ccc(Oc7ccc(F)cc7F)cc6)c(C(N)=O)c5N)C4)cn3)ccc2CC1C(=O)NC1CCCc2ccccc21)C(C)(C)C

> <Shape>
0.201

> <Color>
0.079

> <Negative vol penalty>
0.000

$$$$

  -OEChem-04052317433D

 85 93  0     1  0  0  0  0  0999 V2000
  -23.2016   -9.5481   20.0218 C   0  0  0  0  0  0  0  0  0  0  0  0
  -24.4041  -10.1573   19.6778 C   0  0  0  0  0  0  0  0  0  0  0  0
  -22.9952  -28.4510   22.1728 C   0  0  0  0  0  0  0  0  0  0  0  0
  -22.8077  -26.0490   21.9926 C   0  0  0  0  0  0  0  0  0  0  0  0
  -22.1079  -10.3283   20.3947 C   0  0  0  0  0  0  0  0  0  0  0  0
  -24.5132  -11.5471   19.7054 C   0  0  0  0  0  0  0  0  0  0  0  0
  -29.2562  -16.7494   21.0311 C   0  0  0  0  0  0  0  0  0  0  0  0
  -21.8287  -28.4847   22.9369 C   0  0  0  0  0  0  0  0  0  0  0  0
  -21.6413  -26.0827   22.7568 C   0  0  0  0  0  0  0  0  0  0  0  0
  -29.7806  -17.9027   20.4492 C   0  0  0  0  0  0  0  0  0  0  0  0
  -18.7021  -29.2403   24.6330 C   0  0  0  0  0  0  0  0  0  0  0  0
  -17.7530  -30.2158   24.3278 C   0  0  0  0  0  0  0  0  0  0  0  0
  -27.8488  -19.1455   21.1857 C   0  0  0  0  0  0  0  0  0  0  0  0
  -17.5433  -29.3135   22.0964 C   0  0  0  0  0  0  0  0  0  0  0  0
  -29.9856  -23.7299   19.8344 C   0  0  0  0  0  0  0  0  0  0  0  0
  -23.4846  -27.2331   21.7006 C   0  0  0  0  0  0  0  0  0  0  0  0
  -26.0094  -27.0593   21.3795 C   0  0  0  0  0  0  0  0  0  0  0  0
  -22.2066  -11.7280   20.4362 C   0  0  0  0  0  0  0  0  0  0  0  0
  -28.0169  -16.7831   21.6864 C   0  0  0  0  0  0  0  0  0  0  0  0
  -23.4194  -12.3468   20.0780 C   0  0  0  0  0  0  0  0  0  0  0  0
  -27.3120  -17.9918   21.7773 C   0  0  0  0  0  0  0  0  0  0  0  0
  -21.1518  -27.3006   23.2289 C   0  0  0  0  0  0  0  0  0  0  0  0
  -29.0756  -19.1003   20.5239 C   0  0  0  0  0  0  0  0  0  0  0  0
  -19.0719  -28.3014   23.6699 C   0  0  0  0  0  0  0  0  0  0  0  0
  -17.1735  -30.2524   23.0595 C   0  0  0  0  0  0  0  0  0  0  0  0
  -18.4924  -28.3380   22.4016 C   0  0  0  0  0  0  0  0  0  0  0  0
  -24.6892  -27.1977   20.9107 C   0  0  0  0  0  0  0  0  0  0  0  0
  -29.5195  -22.5355   19.3621 C   0  0  0  0  0  0  0  0  0  0  0  0
  -26.7813  -27.0835   20.2437 C   0  0  0  0  0  0  0  0  0  0  0  0
  -30.4500  -23.6218   17.6726 C   0  0  0  0  0  0  0  0  0  0  0  0
  -26.4945  -26.9212   22.7216 C   0  0  0  0  0  0  0  0  0  0  0  0
  -25.2082  -15.3608   21.2479 C   0  0  0  0  0  0  0  0  0  0  0  0
  -24.4745  -16.8123   24.0545 C   0  0  0  0  0  0  0  0  0  0  0  0
  -25.0942  -19.3468   26.2543 C   0  0  0  0  0  0  0  0  0  0  0  0
  -27.7553  -25.4843   14.9864 C   0  0  0  0  0  0  0  0  0  0  0  0
  -20.9831  -12.5314   20.8000 C   0  0  0  0  0  0  0  0  0  0  0  0
  -27.4775  -15.5363   22.3321 C   0  0  0  0  0  0  0  0  0  0  0  0
  -25.9869  -18.0856   22.4871 C   0  0  0  0  0  0  0  0  0  0  0  0
  -21.2928  -13.9810   21.1650 C   0  0  0  0  0  0  0  0  0  0  0  0
  -25.5831  -28.2630   15.4730 C   0  0  0  0  0  0  0  0  0  0  0  0
  -22.2450  -14.5967   20.1446 C   0  0  0  0  0  0  0  0  0  0  0  0
  -25.2611  -28.2182   16.9678 C   0  0  0  0  0  0  0  0  0  0  0  0
  -25.6989  -26.8611   14.8784 C   0  0  0  0  0  0  0  0  0  0  0  0
  -26.3210  -25.9237   17.0711 C   0  0  0  0  0  0  0  0  0  0  0  0
  -23.5844  -13.8505   20.1196 C   0  0  1  0  0  0  0  0  0  0  0  0
  -25.9651  -15.5716   22.5287 C   0  0  1  0  0  0  0  0  0  0  0  0
  -26.2496  -27.3131   17.7274 C   0  0  2  0  0  0  0  0  0  0  0  0
  -24.3071  -20.2941   28.4407 C   0  0  0  0  0  0  0  0  0  0  0  0
  -32.0167  -23.0084   15.7065 C   0  0  0  0  0  0  0  0  0  0  0  0
  -31.6600  -25.3779   16.3499 C   0  0  0  0  0  0  0  0  0  0  0  0
  -22.0331  -17.9970   22.6595 C   0  0  0  0  0  0  0  0  0  0  0  0
  -21.8380  -19.6346   24.5432 C   0  0  0  0  0  0  0  0  0  0  0  0
  -21.6142  -17.1905   24.9894 C   0  0  0  0  0  0  0  0  0  0  0  0
  -28.2207  -20.6900   17.5896 C   0  0  0  0  0  0  0  0  0  0  0  0
  -30.6789  -20.3988   17.0873 C   0  0  0  0  0  0  0  0  0  0  0  0
  -29.2613  -21.8509   15.6552 C   0  0  0  0  0  0  0  0  0  0  0  0
  -27.7347  -18.9218   27.5218 C   0  0  0  0  0  0  0  0  0  0  0  0
  -28.8093  -21.4197   20.0706 C   0  0  0  0  0  0  0  0  0  1  0  0
  -29.7952  -24.0968   15.2565 C   0  0  0  0  0  0  0  0  0  0  0  0
  -23.8903  -18.1480   24.4466 C   0  0  1  0  0  0  0  0  0  0  0  0
  -25.2854  -19.3493   27.7603 C   0  0  2  0  0  0  0  0  0  0  0  0
  -30.9480  -23.9829   16.3221 C   0  0  0  0  0  0  0  0  0  0  0  0
  -22.3679  -18.2407   24.1445 C   0  0  0  0  0  0  0  0  0  0  0  0
  -29.5065  -21.4047   17.1179 C   0  0  0  0  0  0  0  0  0  0  0  0
  -24.6225  -27.3022   19.5808 N   0  0  0  0  0  0  0  0  0  0  0  0
  -29.8199  -22.4955   18.0219 N   0  0  0  0  0  0  0  0  0  0  0  0
  -25.9106  -27.2295   19.2042 N   0  0  0  0  0  0  0  0  0  0  0  0
  -30.5567  -24.3812   18.7678 N   0  3  0  0  0  0  0  0  0  0  0  0
  -25.4984  -16.8379   23.0970 N   0  0  0  0  0  0  0  0  0  0  0  0
  -26.6527  -26.0546   15.6437 N   0  0  0  0  0  0  0  0  0  0  0  0
  -28.1133  -26.9939   20.0428 N   0  0  0  0  0  0  0  0  0  0  0  0
  -25.5652  -26.9158   23.7707 N   0  0  0  0  0  0  0  0  0  0  0  0
  -24.4008  -14.2395   21.2495 N   0  0  0  0  0  0  0  0  0  0  0  0
  -24.2342  -18.3477   25.8503 N   0  0  0  0  0  0  0  0  0  0  0  0
  -28.6137  -24.7401   15.7865 N   0  0  0  0  0  0  0  0  0  0  0  0
  -26.6702  -19.7778   28.1060 N   0  3  0  0  0  0  0  0  0  0  0  0
  -27.7172  -26.8225   22.9840 O   0  0  0  0  0  0  0  0  0  0  0  0
  -25.3455  -16.1575   20.3269 O   0  0  0  0  0  0  0  0  0  0  0  0
  -24.0432  -15.7849   24.5837 O   0  0  0  0  0  0  0  0  0  0  0  0
  -25.6493  -20.1531   25.5111 O   0  0  0  0  0  0  0  0  0  0  0  0
  -27.9626  -25.6320   13.7772 O   0  0  0  0  0  0  0  0  0  0  0  0
  -20.0137  -27.3331   23.9747 O   0  0  0  0  0  0  0  0  0  0  0  0
  -29.5848  -20.2274   19.9562 O   0  0  0  0  0  0  0  0  0  1  0  0
  -16.2610  -31.1883   22.7670 F   0  0  0  0  0  0  0  0  0  0  0  0
  -18.8428  -27.4380   21.4726 F   0  0  0  0  0  0  0  0  0  0  0  0
  1  2  1  0  0  0  0
  1  5  2  0  0  0  0
  2  6  2  0  0  0  0
  3  8  2  0  0  0  0
  3 16  1  0  0  0  0
  4  9  1  0  0  0  0
  4 16  2  0  0  0  0
  5 18  1  0  0  0  0
  6 20  1  0  0  0  0
  7 10  2  0  0  0  0
  7 19  1  0  0  0  0
  8 22  1  0  0  0  0
  9 22  2  0  0  0  0
 10 23  1  0  0  0  0
 11 12  2  0  0  0  0
 11 24  1  0  0  0  0
 12 25  1  0  0  0  0
 13 21  1  0  0  0  0
 13 23  2  0  0  0  0
 14 25  2  0  0  0  0
 14 26  1  0  0  0  0
 15 28  2  0  0  0  0
 15 68  1  0  0  0  0
 16 27  1  0  0  0  0
 17 27  1  0  0  0  0
 17 29  2  0  0  0  0
 17 31  1  0  0  0  0
 18 20  2  0  0  0  0
 18 36  1  0  0  0  0
 19 21  2  0  0  0  0
 19 37  1  0  0  0  0
 20 45  1  0  0  0  0
 21 38  1  0  0  0  0
 22 82  1  0  0  0  0
 23 83  1  0  0  0  0
 24 26  2  0  0  0  0
 24 82  1  0  0  0  0
 25 84  1  0  0  0  0
 26 85  1  0  0  0  0
 27 65  2  0  0  0  0
 28 58  1  0  0  0  0
 28 66  1  0  0  0  0
 29 67  1  0  0  0  0
 29 71  1  0  0  0  0
 30 62  1  0  0  0  0
 30 66  1  0  0  0  0
 30 68  2  0  0  0  0
 31 72  1  0  0  0  0
 31 77  2  0  0  0  0
 32 46  1  0  0  0  0
 32 73  1  0  0  0  0
 32 78  2  0  0  0  0
 33 60  1  0  0  0  0
 33 69  1  0  0  0  0
 33 79  2  0  0  0  0
 34 61  1  0  0  0  0
 34 74  1  0  0  0  0
 34 80  2  0  0  0  0
 35 70  1  0  0  0  0
 35 75  1  0  0  0  0
 35 81  2  0  0  0  0
 36 39  1  0  0  0  0
 37 46  1  0  0  0  0
 38 69  1  0  0  0  0
 39 41  1  0  0  0  0
 40 42  1  0  0  0  0
 40 43  1  0  0  0  0
 41 45  1  0  0  0  0
 42 47  1  0  0  0  0
 43 70  1  0  0  0  0
 44 47  1  0  0  0  0
 44 70  1  0  0  0  0
 45 73  1  0  0  0  0
 46 69  1  0  0  0  0
 47 67  1  0  0  0  0
 48 61  1  0  0  0  0
 49 62  1  0  0  0  0
 50 62  1  0  0  0  0
 51 63  1  0  0  0  0
 52 63  1  0  0  0  0
 53 63  1  0  0  0  0
 54 64  1  0  0  0  0
 55 64  1  0  0  0  0
 56 64  1  0  0  0  0
 57 76  1  0  0  0  0
 58 83  1  0  0  0  0
 59 62  1  0  0  0  0
 59 75  1  0  0  0  0
 60 63  1  0  0  0  0
 60 74  1  0  0  0  0
 61 76  1  0  0  0  0
 64 66  1  0  0  0  0
 65 67  1  0  0  0  0
M  CHG  2  68   1  76   1
M  ISO  4  35 100  58 101  75 100  83 101
M  END
> <Batch ID>
0055

> <Smiles>
CNC(C)C(=O)NC(C(=O)N1Cc2cc([101O:1][101CH2:1]c3cnc(C(C)(C)C[100NH:0][100C:0](=O)N4CCCC(n5nc(-c6ccc(Oc7ccc(F)cc7F)cc6)c(C(N)=O)c5N)C4)n3C(C)(C)C)ccc2CC1C(=O)NC1CCCc2ccccc21)C(C)(C)C

> <Shape>
0.214

> <Color>
0.063

> <Negative vol penalty>
0.000

$$$$

  -OEChem-04052317433D

 82 90  0     1  0  0  0  0  0999 V2000
  -18.0008  -26.7979   23.9905 C   0  0  0  0  0  0  0  0  0  0  0  0
  -19.2570  -26.3226   23.6279 C   0  0  0  0  0  0  0  0  0  0  0  0
  -25.9552  -14.8747   19.0683 C   0  0  0  0  0  0  0  0  0  0  0  0
  -25.1638  -14.9880   21.3482 C   0  0  0  0  0  0  0  0  0  0  0  0
  -17.4665  -27.9136   23.3472 C   0  0  0  0  0  0  0  0  0  0  0  0
  -19.9792  -26.9621   22.6210 C   0  0  0  0  0  0  0  0  0  0  0  0
  -26.0573  -27.6487   22.3184 C   0  0  0  0  0  0  0  0  0  0  0  0
  -26.0493  -13.4868   19.1699 C   0  0  0  0  0  0  0  0  0  0  0  0
  -25.2578  -13.6000   21.4498 C   0  0  0  0  0  0  0  0  0  0  0  0
  -27.0474  -26.9474   21.6318 C   0  0  0  0  0  0  0  0  0  0  0  0
  -23.4589  -10.9061   20.4868 C   0  0  0  0  0  0  0  0  0  0  0  0
  -22.3922  -10.2271   21.0757 C   0  0  0  0  0  0  0  0  0  0  0  0
  -26.6996  -24.1106   21.4005 C   0  0  0  0  0  0  0  0  0  0  0  0
  -26.9576  -28.5741   19.8528 C   0  0  0  0  0  0  0  0  0  0  0  0
  -23.8759   -9.3756   22.7817 C   0  0  0  0  0  0  0  0  0  0  0  0
  -25.3770  -23.8209   21.1696 C   0  0  0  0  0  0  0  0  0  0  0  0
  -25.5125  -15.6254   20.1575 C   0  0  0  0  0  0  0  0  0  0  0  0
  -26.4582  -17.9638   19.7764 C   0  0  0  0  0  0  0  0  0  0  0  0
  -18.1867  -28.5729   22.3386 C   0  0  0  0  0  0  0  0  0  0  0  0
  -25.5012  -28.8140   21.7714 C   0  0  0  0  0  0  0  0  0  0  0  0
  -19.4535  -28.0868   21.9627 C   0  0  0  0  0  0  0  0  0  0  0  0
  -25.9623  -29.2898   20.5356 C   0  0  0  0  0  0  0  0  0  0  0  0
  -25.7006  -12.8494   20.3606 C   0  0  0  0  0  0  0  0  0  0  0  0
  -27.4957  -27.4084   20.3975 C   0  0  0  0  0  0  0  0  0  0  0  0
  -24.7342  -10.8198   21.0454 C   0  0  0  0  0  0  0  0  0  0  0  0
  -22.6007   -9.4619   22.2231 C   0  0  0  0  0  0  0  0  0  0  0  0
  -24.9427  -10.0545   22.1928 C   0  0  0  0  0  0  0  0  0  0  0  0
  -25.4156  -17.0592   20.0534 C   0  0  0  0  0  0  0  0  0  0  0  0
  -27.1264  -24.7641   20.2289 C   0  0  0  0  0  0  0  0  0  0  0  0
  -25.8541  -19.1973   19.7864 C   0  0  0  0  0  0  0  0  0  0  0  0
  -27.8482  -17.7115   19.5319 C   0  0  0  0  0  0  0  0  0  0  0  0
  -22.5896  -29.6878   20.8425 C   0  0  0  0  0  0  0  0  0  0  0  0
  -24.0089  -32.5766   20.4396 C   0  0  0  0  0  0  0  0  0  0  0  0
  -26.8779  -34.3455   19.9039 C   0  0  0  0  0  0  0  0  0  0  0  0
  -21.4169  -22.2538   17.9737 C   0  0  0  0  0  0  0  0  0  0  0  0
  -17.5478  -29.7465   21.6392 C   0  0  0  0  0  0  0  0  0  0  0  0
  -24.4528  -29.5738   22.5370 C   0  0  0  0  0  0  0  0  0  0  0  0
  -25.4122  -30.5467   19.9144 C   0  0  0  0  0  0  0  0  0  0  0  0
  -18.5369  -30.5923   20.8414 C   0  0  0  0  0  0  0  0  0  0  0  0
  -21.2465  -20.6147   21.2882 C   0  0  0  0  0  0  0  0  0  0  0  0
  -19.4469  -29.7005   20.0026 C   0  0  0  0  0  0  0  0  0  0  0  0
  -22.3595  -19.5717   21.2016 C   0  0  0  0  0  0  0  0  0  0  0  0
  -20.6597  -20.9331   19.9163 C   0  0  0  0  0  0  0  0  0  0  0  0
  -22.7865  -20.3053   18.8225 C   0  0  0  0  0  0  0  0  0  0  0  0
  -20.2781  -28.7683   20.8923 C   0  0  1  0  0  0  0  0  0  0  0  0
  -23.5921  -30.4655   21.6474 C   0  0  1  0  0  0  0  0  0  0  0  0
  -23.4309  -19.9961   20.1822 C   0  0  2  0  0  0  0  0  0  0  0  0
  -28.3638  -36.3523   19.6546 C   0  0  0  0  0  0  0  0  0  0  0  0
  -29.4703  -25.0668   21.1030 C   0  0  0  0  0  0  0  0  0  0  0  0
  -29.0838  -24.7044   18.6357 C   0  0  0  0  0  0  0  0  0  0  0  0
  -22.9306  -32.5684   17.5853 C   0  0  0  0  0  0  0  0  0  0  0  0
  -24.5489  -34.4001   17.0428 C   0  0  0  0  0  0  0  0  0  0  0  0
  -22.7725  -34.7738   18.7538 C   0  0  0  0  0  0  0  0  0  0  0  0
  -22.2345  -24.0653   16.5144 C   0  0  0  0  0  0  0  0  0  0  0  0
  -27.4286  -34.4435   22.8101 C   0  0  0  0  0  0  0  0  0  0  0  0
  -23.8340  -24.2291   19.2381 C   0  0  0  0  0  0  0  0  0  0  0  0
  -23.7836  -23.1232   18.1872 C   0  0  0  0  0  0  0  0  0  0  0  0
  -24.7261  -33.2664   19.3042 C   0  0  1  0  0  0  0  0  0  0  0  0
  -27.4430  -35.5787   20.5853 C   0  0  2  0  0  0  0  0  0  0  0  0
  -28.5181  -25.3136   19.9255 C   0  0  0  0  0  0  0  0  0  1  0  0
  -23.7537  -33.7274   18.1820 C   0  0  0  0  0  0  0  0  0  0  0  0
  -24.2386  -17.6663   20.2268 N   0  0  0  0  0  0  0  0  0  0  0  0
  -26.1538  -24.8826   19.3212 N   0  0  0  0  0  0  0  0  0  0  0  0
  -25.1027  -24.2996   19.9223 N   0  0  0  0  0  0  0  0  0  0  0  0
  -24.5379  -18.9656   20.0584 N   0  0  0  0  0  0  0  0  0  0  0  0
  -24.3843  -31.2509   20.6988 N   0  0  0  0  0  0  0  0  0  0  0  0
  -21.7037  -21.2914   18.9557 N   0  0  0  0  0  0  0  0  0  0  0  0
  -26.3259  -20.4466   19.5889 N   0  0  0  0  0  0  0  0  0  0  0  0
  -28.7268  -17.6972   20.6238 N   0  0  0  0  0  0  0  0  0  0  0  0
  -21.3832  -29.4894   21.4866 N   0  0  0  0  0  0  0  0  0  0  0  0
  -25.4990  -34.3473   19.9064 N   0  0  0  0  0  0  0  0  0  0  0  0
  -22.4840  -23.0458   17.5235 N   0  0  0  0  0  0  0  0  0  0  0  0
  -28.2179  -35.1913   21.7979 N   0  3  0  0  0  0  0  0  0  0  0  0
  -28.3005  -17.5213   18.3774 O   0  0  0  0  0  0  0  0  0  0  0  0
  -22.8879  -29.2980   19.7197 O   0  0  0  0  0  0  0  0  0  0  0  0
  -23.1524  -33.1938   21.0776 O   0  0  0  0  0  0  0  0  0  0  0  0
  -27.5886  -33.4702   19.4148 O   0  0  0  0  0  0  0  0  0  0  0  0
  -20.2705  -22.4033   17.5318 O   0  0  0  0  0  0  0  0  0  0  0  0
  -25.7920  -11.4950   20.4600 O   0  0  0  0  0  0  0  0  0  0  0  0
  -28.4616  -26.7253   19.7249 O   0  0  0  0  0  0  0  0  0  1  0  0
  -21.5759   -8.8112   22.7893 F   0  0  0  0  0  0  0  0  0  0  0  0
  -26.1653   -9.9688   22.7346 F   0  0  0  0  0  0  0  0  0  0  0  0
  1  2  1  0  0  0  0
  1  5  2  0  0  0  0
  2  6  2  0  0  0  0
  3  8  2  0  0  0  0
  3 17  1  0  0  0  0
  4  9  1  0  0  0  0
  4 17  2  0  0  0  0
  5 19  1  0  0  0  0
  6 21  1  0  0  0  0
  7 10  2  0  0  0  0
  7 20  1  0  0  0  0
  8 23  1  0  0  0  0
  9 23  2  0  0  0  0
 10 24  1  0  0  0  0
 11 12  2  0  0  0  0
 11 25  1  0  0  0  0
 12 26  1  0  0  0  0
 13 16  2  0  0  0  0
 13 29  1  0  0  0  0
 14 22  1  0  0  0  0
 14 24  2  0  0  0  0
 15 26  2  0  0  0  0
 15 27  1  0  0  0  0
 16 64  1  0  0  0  0
 17 28  1  0  0  0  0
 18 28  1  0  0  0  0
 18 30  2  0  0  0  0
 18 31  1  0  0  0  0
 19 21  2  0  0  0  0
 19 36  1  0  0  0  0
 20 22  2  0  0  0  0
 20 37  1  0  0  0  0
 21 45  1  0  0  0  0
 22 38  1  0  0  0  0
 23 79  1  0  0  0  0
 24 80  1  0  0  0  0
 25 27  2  0  0  0  0
 25 79  1  0  0  0  0
 26 81  1  0  0  0  0
 27 82  1  0  0  0  0
 28 62  2  0  0  0  0
 29 60  1  0  0  0  0
 29 63  2  0  0  0  0
 30 65  1  0  0  0  0
 30 68  1  0  0  0  0
 31 69  1  0  0  0  0
 31 74  2  0  0  0  0
 32 46  1  0  0  0  0
 32 70  1  0  0  0  0
 32 75  2  0  0  0  0
 33 58  1  0  0  0  0
 33 66  1  0  0  0  0
 33 76  2  0  0  0  0
 34 59  1  0  0  0  0
 34 71  1  0  0  0  0
 34 77  2  0  0  0  0
 35 67  1  0  0  0  0
 35 72  1  0  0  0  0
 35 78  2  0  0  0  0
 36 39  1  0  0  0  0
 37 46  1  0  0  0  0
 38 66  1  0  0  0  0
 39 41  1  0  0  0  0
 40 42  1  0  0  0  0
 40 43  1  0  0  0  0
 41 45  1  0  0  0  0
 42 47  1  0  0  0  0
 43 67  1  0  0  0  0
 44 47  1  0  0  0  0
 44 67  1  0  0  0  0
 45 70  1  0  0  0  0
 46 66  1  0  0  0  0
 47 65  1  0  0  0  0
 48 59  1  0  0  0  0
 49 60  1  0  0  0  0
 50 60  1  0  0  0  0
 51 61  1  0  0  0  0
 52 61  1  0  0  0  0
 53 61  1  0  0  0  0
 54 72  1  0  0  0  0
 55 73  1  0  0  0  0
 56 57  1  0  0  0  0
 56 64  1  0  0  0  0
 57 72  1  0  0  0  0
 58 61  1  0  0  0  0
 58 71  1  0  0  0  0
 59 73  1  0  0  0  0
 60 80  1  0  0  0  0
 62 65  1  0  0  0  0
 63 64  1  0  0  0  0
M  CHG  1  73   1
M  ISO  4  35 100  60 101  72 100  80 101
M  END
> <Batch ID>
0055

> <Smiles>
CNC(C)C(=O)NC(C(=O)N1Cc2cc([101O:1][101C:1](C)(C)c3ccn(CC[100N:0](C)[100C:0](=O)N4CCCC(n5nc(-c6ccc(Oc7ccc(F)cc7F)cc6)c(C(N)=O)c5N)C4)n3)ccc2CC1C(=O)NC1CCCc2ccccc21)C(C)(C)C

> <Shape>
0.199

> <Color>
0.088

> <Negative vol penalty>
0.000

$$$$

  -OEChem-04052317433D

 81 89  0     1  0  0  0  0  0999 V2000
  -17.7452  -32.0397   20.5583 C   0  0  0  0  0  0  0  0  0  0  0  0
  -19.0336  -31.9612   20.0392 C   0  0  0  0  0  0  0  0  0  0  0  0
  -27.1700  -18.0460   21.6877 C   0  0  0  0  0  0  0  0  0  0  0  0
  -28.3254  -17.0932   19.7919 C   0  0  0  0  0  0  0  0  0  0  0  0
  -17.5012  -31.6552   21.8760 C   0  0  0  0  0  0  0  0  0  0  0  0
  -20.0789  -31.4991   20.8381 C   0  0  0  0  0  0  0  0  0  0  0  0
  -24.9084  -28.1941   19.0331 C   0  0  0  0  0  0  0  0  0  0  0  0
  -26.1697  -17.0820   21.5626 C   0  0  0  0  0  0  0  0  0  0  0  0
  -27.3251  -16.1291   19.6668 C   0  0  0  0  0  0  0  0  0  0  0  0
  -26.2205  -28.5451   18.7184 C   0  0  0  0  0  0  0  0  0  0  0  0
  -25.2606  -13.1962   19.0715 C   0  0  0  0  0  0  0  0  0  0  0  0
  -25.6550  -11.8747   18.8625 C   0  0  0  0  0  0  0  0  0  0  0  0
  -26.9031  -27.9814   20.9624 C   0  0  0  0  0  0  0  0  0  0  0  0
  -26.8571  -11.9022   20.9581 C   0  0  0  0  0  0  0  0  0  0  0  0
  -29.2866  -26.8375   15.0547 C   0  0  0  0  0  0  0  0  0  0  0  0
  -28.2478  -18.0517   20.8023 C   0  0  0  0  0  0  0  0  0  0  0  0
  -30.4599  -18.9560   21.6947 C   0  0  0  0  0  0  0  0  0  0  0  0
  -18.5423  -31.1791   22.6885 C   0  0  0  0  0  0  0  0  0  0  0  0
  -24.5813  -27.7436   20.3202 C   0  0  0  0  0  0  0  0  0  0  0  0
  -19.8488  -31.1092   22.1684 C   0  0  0  0  0  0  0  0  0  0  0  0
  -25.5866  -27.6228   21.2901 C   0  0  0  0  0  0  0  0  0  0  0  0
  -26.2472  -16.1235   20.5522 C   0  0  0  0  0  0  0  0  0  0  0  0
  -27.2175  -28.4416   19.6840 C   0  0  0  0  0  0  0  0  0  0  0  0
  -25.6645  -13.8708   20.2237 C   0  0  0  0  0  0  0  0  0  0  0  0
  -26.4533  -11.2277   19.8058 C   0  0  0  0  0  0  0  0  0  0  0  0
  -26.4628  -13.2237   21.1670 C   0  0  0  0  0  0  0  0  0  0  0  0
  -29.2811  -19.0476   20.9306 C   0  0  0  0  0  0  0  0  0  0  0  0
  -30.3813  -26.9179   15.8684 C   0  0  0  0  0  0  0  0  0  0  0  0
  -31.1003  -20.1524   21.4827 C   0  0  0  0  0  0  0  0  0  0  0  0
  -30.1907  -24.8210   15.1849 C   0  0  0  0  0  0  0  0  0  0  0  0
  -30.9336  -17.8852   22.5222 C   0  0  0  0  0  0  0  0  0  0  0  0
  -22.6820  -28.7858   22.6461 C   0  0  0  0  0  0  0  0  0  0  0  0
  -31.9754  -23.8699   17.2129 C   0  0  0  0  0  0  0  0  0  0  0  0
  -23.5067  -25.9787   24.0468 C   0  0  0  0  0  0  0  0  0  0  0  0
  -25.7540  -23.4242   24.3136 C   0  0  0  0  0  0  0  0  0  0  0  0
  -18.2385  -30.8198   24.1214 C   0  0  0  0  0  0  0  0  0  0  0  0
  -23.1662  -27.3435   20.6358 C   0  0  0  0  0  0  0  0  0  0  0  0
  -25.2912  -27.1254   22.6807 C   0  0  0  0  0  0  0  0  0  0  0  0
  -19.3323  -29.9875   24.7856 C   0  0  0  0  0  0  0  0  0  0  0  0
  -29.7129  -24.6362   19.9554 C   0  0  0  0  0  0  0  0  0  0  0  0
  -20.7061  -30.5859   24.5002 C   0  0  0  0  0  0  0  0  0  0  0  0
  -29.4623  -23.2475   20.5419 C   0  0  0  0  0  0  0  0  0  0  0  0
  -29.8657  -24.5851   18.4374 C   0  0  0  0  0  0  0  0  0  0  0  0
  -30.6743  -22.2491   18.5551 C   0  0  0  0  0  0  0  0  0  0  0  0
  -21.0044  -30.5898   22.9960 C   0  0  1  0  0  0  0  0  0  0  0  0
  -22.8521  -27.3857   22.1281 C   0  0  1  0  0  0  0  0  0  0  0  0
  -30.5448  -22.2529   20.0875 C   0  0  2  0  0  0  0  0  0  0  0  0
  -30.4272  -23.3706   14.9786 C   0  0  0  0  0  0  0  0  0  0  0  0
  -33.3856  -25.4192   15.8765 C   0  0  0  0  0  0  0  0  0  0  0  0
  -26.7017  -21.2258   25.0660 C   0  0  0  0  0  0  0  0  0  0  0  0
  -24.3469  -27.5920   26.4966 C   0  0  0  0  0  0  0  0  0  0  0  0
  -25.6038  -25.5823   27.3025 C   0  0  0  0  0  0  0  0  0  0  0  0
  -23.1287  -25.4696   27.0127 C   0  0  0  0  0  0  0  0  0  0  0  0
  -24.4521  -21.9697   22.0891 C   0  0  0  0  0  0  0  0  0  0  0  0
  -30.9701  -28.0968   16.6014 C   0  0  0  0  0  0  0  0  0  0  0  0
  -30.4062  -28.2899   18.0107 C   0  0  0  0  0  0  0  0  0  0  0  0
  -28.9151  -28.6055   18.0265 C   0  0  0  0  0  0  0  0  0  1  0  0
  -32.1002  -25.2780   16.6879 C   0  0  1  0  0  0  0  0  0  0  0  0
  -24.6147  -25.5285   24.9681 C   0  0  1  0  0  0  0  0  0  0  0  0
  -25.5698  -21.9174   24.3222 C   0  0  2  0  0  0  0  0  0  0  0  0
  -24.4291  -26.0543   26.4194 C   0  0  0  0  0  0  0  0  0  0  0  0
  -29.1763  -20.2103   20.2817 N   0  0  0  0  0  0  0  0  0  0  0  0
  -30.9210  -25.6558   15.9315 N   0  0  0  0  0  0  0  0  0  0  0  0
  -30.2974  -20.8604   20.6376 N   0  0  0  0  0  0  0  0  0  0  0  0
  -29.1928  -25.5290   14.6460 N   0  3  0  0  0  0  0  0  0  0  0  0
  -23.8912  -26.7524   22.9426 N   0  0  0  0  0  0  0  0  0  0  0  0
  -30.8865  -23.6064   18.0443 N   0  0  0  0  0  0  0  0  0  0  0  0
  -32.2663  -20.6573   21.9386 N   0  0  0  0  0  0  0  0  0  0  0  0
  -30.1516  -16.7270   22.6287 N   0  0  0  0  0  0  0  0  0  0  0  0
  -21.3898  -29.2668   22.5538 N   0  0  0  0  0  0  0  0  0  0  0  0
  -24.6686  -24.0745   24.8616 N   0  0  0  0  0  0  0  0  0  0  0  0
  -25.5335  -21.3920   22.9281 N   0  3  0  0  0  0  0  0  0  0  0  0
  -32.0102  -17.9600   23.1616 O   0  0  0  0  0  0  0  0  0  0  0  0
  -23.6510  -29.3850   23.0975 O   0  0  0  0  0  0  0  0  0  0  0  0
  -32.8227  -23.0315   16.8948 O   0  0  0  0  0  0  0  0  0  0  0  0
  -22.3438  -25.6498   24.2938 O   0  0  0  0  0  0  0  0  0  0  0  0
  -26.7616  -23.9696   23.8689 O   0  0  0  0  0  0  0  0  0  0  0  0
  -25.2715  -15.1825   20.4300 O   0  0  0  0  0  0  0  0  0  0  0  0
  -28.4989  -28.7842   19.3797 O   0  0  0  0  0  0  0  0  0  1  0  0
  -26.8307   -9.9582   19.6058 F   0  0  0  0  0  0  0  0  0  0  0  0
  -26.8529  -13.8662   22.2764 F   0  0  0  0  0  0  0  0  0  0  0  0
  1  2  1  0  0  0  0
  1  5  2  0  0  0  0
  2  6  2  0  0  0  0
  3  8  2  0  0  0  0
  3 16  1  0  0  0  0
  4  9  1  0  0  0  0
  4 16  2  0  0  0  0
  5 18  1  0  0  0  0
  6 20  1  0  0  0  0
  7 10  2  0  0  0  0
  7 19  1  0  0  0  0
  8 22  1  0  0  0  0
  9 22  2  0  0  0  0
 10 23  1  0  0  0  0
 11 12  2  0  0  0  0
 11 24  1  0  0  0  0
 12 25  1  0  0  0  0
 13 21  1  0  0  0  0
 13 23  2  0  0  0  0
 14 25  2  0  0  0  0
 14 26  1  0  0  0  0
 15 28  2  0  0  0  0
 15 65  1  0  0  0  0
 16 27  1  0  0  0  0
 17 27  1  0  0  0  0
 17 29  2  0  0  0  0
 17 31  1  0  0  0  0
 18 20  2  0  0  0  0
 18 36  1  0  0  0  0
 19 21  2  0  0  0  0
 19 37  1  0  0  0  0
 20 45  1  0  0  0  0
 21 38  1  0  0  0  0
 22 78  1  0  0  0  0
 23 79  1  0  0  0  0
 24 26  2  0  0  0  0
 24 78  1  0  0  0  0
 25 80  1  0  0  0  0
 26 81  1  0  0  0  0
 27 62  2  0  0  0  0
 28 55  1  0  0  0  0
 28 63  1  0  0  0  0
 29 64  1  0  0  0  0
 29 68  1  0  0  0  0
 30 48  1  0  0  0  0
 30 63  1  0  0  0  0
 30 65  2  0  0  0  0
 31 69  1  0  0  0  0
 31 73  2  0  0  0  0
 32 46  1  0  0  0  0
 32 70  1  0  0  0  0
 32 74  2  0  0  0  0
 33 58  1  0  0  0  0
 33 67  1  0  0  0  0
 33 75  2  0  0  0  0
 34 59  1  0  0  0  0
 34 66  1  0  0  0  0
 34 76  2  0  0  0  0
 35 60  1  0  0  0  0
 35 71  1  0  0  0  0
 35 77  2  0  0  0  0
 36 39  1  0  0  0  0
 37 46  1  0  0  0  0
 38 66  1  0  0  0  0
 39 41  1  0  0  0  0
 40 42  1  0  0  0  0
 40 43  1  0  0  0  0
 41 45  1  0  0  0  0
 42 47  1  0  0  0  0
 43 67  1  0  0  0  0
 44 47  1  0  0  0  0
 44 67  1  0  0  0  0
 45 70  1  0  0  0  0
 46 66  1  0  0  0  0
 47 64  1  0  0  0  0
 49 58  1  0  0  0  0
 50 60  1  0  0  0  0
 51 61  1  0  0  0  0
 52 61  1  0  0  0  0
 53 61  1  0  0  0  0
 54 72  1  0  0  0  0
 55 56  1  0  0  0  0
 56 57  1  0  0  0  0
 57 79  1  0  0  0  0
 58 63  1  0  0  0  0
 59 61  1  0  0  0  0
 59 71  1  0  0  0  0
 60 72  1  0  0  0  0
 62 64  1  0  0  0  0
M  CHG  2  65   1  72   1
M  ISO  4  33 100  57 101  58 100  79 101
M  END
> <Batch ID>
0055

> <Smiles>
CNC(C)C(=O)NC(C(=O)N1Cc2cc([101O:1][101CH2:1]CCc3cnc(C)n3[100CH:0](C)[100C:0](=O)N3CCCC(n4nc(-c5ccc(Oc6ccc(F)cc6F)cc5)c(C(N)=O)c4N)C3)ccc2CC1C(=O)NC1CCCc2ccccc21)C(C)(C)C

> <Shape>
0.181

> <Color>
0.094

> <Negative vol penalty>
0.000

$$$$

  -OEChem-04052317433D

 85 93  0     1  0  0  0  0  0999 V2000
  -27.1298  -32.1812   18.7507 C   0  0  0  0  0  0  0  0  0  0  0  0
  -26.9221  -30.8109   18.8712 C   0  0  0  0  0  0  0  0  0  0  0  0
  -26.6420  -12.7029   21.7470 C   0  0  0  0  0  0  0  0  0  0  0  0
  -26.0534  -14.0294   19.8154 C   0  0  0  0  0  0  0  0  0  0  0  0
  -26.6454  -33.0473   19.7301 C   0  0  0  0  0  0  0  0  0  0  0  0
  -26.2308  -30.3057   19.9718 C   0  0  0  0  0  0  0  0  0  0  0  0
  -22.8115  -26.8018   18.6772 C   0  0  0  0  0  0  0  0  0  0  0  0
  -25.3570  -12.1606   21.7662 C   0  0  0  0  0  0  0  0  0  0  0  0
  -24.7685  -13.4871   19.8345 C   0  0  0  0  0  0  0  0  0  0  0  0
  -23.2866  -25.5214   18.3972 C   0  0  0  0  0  0  0  0  0  0  0  0
  -22.3425  -10.1574   22.1047 C   0  0  0  0  0  0  0  0  0  0  0  0
  -22.2226   -8.7800   22.2890 C   0  0  0  0  0  0  0  0  0  0  0  0
  -24.6132  -20.3366   19.7038 C   0  0  0  0  0  0  0  0  0  0  0  0
  -25.7099  -19.7167   20.2765 C   0  0  0  0  0  0  0  0  0  0  0  0
  -22.6391  -24.8042   20.6075 C   0  0  0  0  0  0  0  0  0  0  0  0
  -23.5130   -8.3993   20.2822 C   0  0  0  0  0  0  0  0  0  0  0  0
  -26.9902  -13.6374   20.7717 C   0  0  0  0  0  0  0  0  0  0  0  0
  -29.4410  -13.6992   20.0663 C   0  0  0  0  0  0  0  0  0  0  0  0
  -25.9393  -32.5534   20.8383 C   0  0  0  0  0  0  0  0  0  0  0  0
  -22.2555  -27.0964   19.9305 C   0  0  0  0  0  0  0  0  0  0  0  0
  -25.7376  -31.1659   20.9676 C   0  0  0  0  0  0  0  0  0  0  0  0
  -22.1553  -26.0884   20.9001 C   0  0  0  0  0  0  0  0  0  0  0  0
  -24.4203  -12.5527   20.8099 C   0  0  0  0  0  0  0  0  0  0  0  0
  -23.2031  -24.5231   19.3633 C   0  0  0  0  0  0  0  0  0  0  0  0
  -23.0476  -10.6558   21.0092 C   0  0  0  0  0  0  0  0  0  0  0  0
  -22.8079   -7.9009   21.3777 C   0  0  0  0  0  0  0  0  0  0  0  0
  -23.6328   -9.7767   20.0980 C   0  0  0  0  0  0  0  0  0  0  0  0
  -28.3172  -14.1984   20.7518 C   0  0  0  0  0  0  0  0  0  0  0  0
  -24.6718  -20.6392   18.3582 C   0  0  0  0  0  0  0  0  0  0  0  0
  -26.7923  -19.4401   19.4657 C   0  0  0  0  0  0  0  0  0  0  0  0
  -30.4474  -14.5844   20.3665 C   0  0  0  0  0  0  0  0  0  0  0  0
  -29.5641  -12.5392   19.2327 C   0  0  0  0  0  0  0  0  0  0  0  0
  -22.9915  -29.0833   22.2999 C   0  0  0  0  0  0  0  0  0  0  0  0
  -20.1773  -28.0388   23.5291 C   0  0  0  0  0  0  0  0  0  0  0  0
  -17.8011  -25.5925   23.6556 C   0  0  0  0  0  0  0  0  0  0  0  0
  -29.9713  -20.4000   22.2347 C   0  0  0  0  0  0  0  0  0  0  0  0
  -25.4759  -33.5243   21.8953 C   0  0  0  0  0  0  0  0  0  0  0  0
  -21.7231  -28.4756   20.2076 C   0  0  0  0  0  0  0  0  0  0  0  0
  -21.5486  -26.3480   22.2539 C   0  0  0  0  0  0  0  0  0  0  0  0
  -24.4278  -32.9417   22.8400 C   0  0  0  0  0  0  0  0  0  0  0  0
  -31.8875  -17.6247   23.7603 C   0  0  0  0  0  0  0  0  0  0  0  0
  -24.8486  -31.5542   23.3138 C   0  0  0  0  0  0  0  0  0  0  0  0
  -31.2276  -16.3893   23.1499 C   0  0  0  0  0  0  0  0  0  0  0  0
  -30.9163  -18.7973   23.8564 C   0  0  0  0  0  0  0  0  0  0  0  0
  -29.6069  -17.9137   21.9541 C   0  0  0  0  0  0  0  0  0  0  0  0
  -24.9708  -30.5819   22.1343 C   0  0  1  0  0  0  0  0  0  0  0  0
  -21.6453  -28.7980   21.6966 C   0  0  1  0  0  0  0  0  0  0  0  0
  -30.5715  -16.7282   21.8001 C   0  0  2  0  0  0  0  0  0  0  0  0
  -29.8673  -24.0921   19.4415 C   0  0  0  0  0  0  0  0  0  0  0  0
  -28.2458  -17.3894   19.3908 C   0  0  0  0  0  0  0  0  0  0  0  0
  -15.6357  -25.0058   24.7800 C   0  0  0  0  0  0  0  0  0  0  0  0
  -21.6949  -27.3422   26.0829 C   0  0  0  0  0  0  0  0  0  0  0  0
  -19.7465  -25.9294   26.7725 C   0  0  0  0  0  0  0  0  0  0  0  0
  -19.4527  -28.3860   26.4536 C   0  0  0  0  0  0  0  0  0  0  0  0
  -16.3534  -25.4969   21.0760 C   0  0  0  0  0  0  0  0  0  0  0  0
  -23.5038  -21.3175   17.6845 C   0  0  0  0  0  0  0  0  0  0  0  0
  -30.1866  -22.6576   19.8387 C   0  0  0  0  0  0  0  0  0  0  0  0
  -29.0436  -21.9863   20.5907 C   0  0  0  0  0  0  0  0  0  0  0  0
  -29.2848  -19.6227   19.9266 C   0  0  0  0  0  0  0  0  0  0  0  0
  -23.6084  -22.8379   17.7349 C   0  0  0  0  0  0  0  0  0  1  0  0
  -27.9966  -18.7703   20.0334 C   0  0  1  0  0  0  0  0  0  0  0  0
  -19.7608  -26.9016   24.4304 C   0  0  1  0  0  0  0  0  0  0  0  0
  -16.2868  -25.6536   23.5679 C   0  0  2  0  0  0  0  0  0  0  0  0
  -20.1770  -27.1351   25.9101 C   0  0  0  0  0  0  0  0  0  0  0  0
  -28.5842  -15.3140   21.4359 N   0  0  0  0  0  0  0  0  0  0  0  0
  -25.7444  -20.3569   17.5888 N   0  0  0  0  0  0  0  0  0  0  0  0
  -26.8220  -19.7473   18.1517 N   0  0  0  0  0  0  0  0  0  0  0  0
  -29.8872  -15.5231   21.1820 N   0  0  0  0  0  0  0  0  0  0  0  0
  -21.0479  -27.7140   22.4792 N   0  0  0  0  0  0  0  0  0  0  0  0
  -30.2748  -19.0702   22.5699 N   0  0  0  0  0  0  0  0  0  0  0  0
  -31.7480  -14.6434   20.0098 N   0  0  0  0  0  0  0  0  0  0  0  0
  -28.4313  -11.7392   19.0295 N   0  0  0  0  0  0  0  0  0  0  0  0
  -23.6612  -30.1373   21.7081 N   0  0  0  0  0  0  0  0  0  0  0  0
  -18.3255  -26.7293   24.2334 N   0  0  0  0  0  0  0  0  0  0  0  0
  -29.3669  -20.6234   20.9883 N   0  0  0  0  0  0  0  0  0  0  0  0
  -15.8098  -24.9481   22.3450 N   0  3  0  0  0  0  0  0  0  0  0  0
  -30.6505  -12.2123   18.6976 O   0  0  0  0  0  0  0  0  0  0  0  0
  -23.3924  -28.3990   23.2340 O   0  0  0  0  0  0  0  0  0  0  0  0
  -19.7404  -29.1721   23.7444 O   0  0  0  0  0  0  0  0  0  0  0  0
  -18.4532  -24.6308   23.2551 O   0  0  0  0  0  0  0  0  0  0  0  0
  -30.2348  -21.3352   23.0015 O   0  0  0  0  0  0  0  0  0  0  0  0
  -23.1664  -12.0235   20.8281 O   0  0  0  0  0  0  0  0  0  0  0  0
  -23.6668  -23.2726   19.0928 O   0  0  0  0  0  0  0  0  0  1  0  0
  -22.6940   -6.5782   21.5556 F   0  0  0  0  0  0  0  0  0  0  0  0
  -24.3124  -10.2496   19.0442 F   0  0  0  0  0  0  0  0  0  0  0  0
  1  2  1  0  0  0  0
  1  5  2  0  0  0  0
  2  6  2  0  0  0  0
  3  8  2  0  0  0  0
  3 17  1  0  0  0  0
  4  9  1  0  0  0  0
  4 17  2  0  0  0  0
  5 19  1  0  0  0  0
  6 21  1  0  0  0  0
  7 10  2  0  0  0  0
  7 20  1  0  0  0  0
  8 23  1  0  0  0  0
  9 23  2  0  0  0  0
 10 24  1  0  0  0  0
 11 12  2  0  0  0  0
 11 25  1  0  0  0  0
 12 26  1  0  0  0  0
 13 14  2  0  0  0  0
 13 29  1  0  0  0  0
 14 30  1  0  0  0  0
 15 22  1  0  0  0  0
 15 24  2  0  0  0  0
 16 26  2  0  0  0  0
 16 27  1  0  0  0  0
 17 28  1  0  0  0  0
 18 28  1  0  0  0  0
 18 31  2  0  0  0  0
 18 32  1  0  0  0  0
 19 21  2  0  0  0  0
 19 37  1  0  0  0  0
 20 22  2  0  0  0  0
 20 38  1  0  0  0  0
 21 46  1  0  0  0  0
 22 39  1  0  0  0  0
 23 82  1  0  0  0  0
 24 83  1  0  0  0  0
 25 27  2  0  0  0  0
 25 82  1  0  0  0  0
 26 84  1  0  0  0  0
 27 85  1  0  0  0  0
 28 65  2  0  0  0  0
 29 56  1  0  0  0  0
 29 66  2  0  0  0  0
 30 61  1  0  0  0  0
 30 67  2  0  0  0  0
 31 68  1  0  0  0  0
 31 71  1  0  0  0  0
 32 72  1  0  0  0  0
 32 77  2  0  0  0  0
 33 47  1  0  0  0  0
 33 73  1  0  0  0  0
 33 78  2  0  0  0  0
 34 62  1  0  0  0  0
 34 69  1  0  0  0  0
 34 79  2  0  0  0  0
 35 63  1  0  0  0  0
 35 74  1  0  0  0  0
 35 80  2  0  0  0  0
 36 70  1  0  0  0  0
 36 75  1  0  0  0  0
 36 81  2  0  0  0  0
 37 40  1  0  0  0  0
 38 47  1  0  0  0  0
 39 69  1  0  0  0  0
 40 42  1  0  0  0  0
 41 43  1  0  0  0  0
 41 44  1  0  0  0  0
 42 46  1  0  0  0  0
 43 48  1  0  0  0  0
 44 70  1  0  0  0  0
 45 48  1  0  0  0  0
 45 70  1  0  0  0  0
 46 73  1  0  0  0  0
 47 69  1  0  0  0  0
 48 68  1  0  0  0  0
 49 57  1  0  0  0  0
 50 61  1  0  0  0  0
 51 63  1  0  0  0  0
 52 64  1  0  0  0  0
 53 64  1  0  0  0  0
 54 64  1  0  0  0  0
 55 76  1  0  0  0  0
 56 60  1  0  0  0  0
 57 58  1  0  0  0  0
 58 75  1  0  0  0  0
 59 61  1  0  0  0  0
 59 75  1  0  0  0  0
 60 83  1  0  0  0  0
 62 64  1  0  0  0  0
 62 74  1  0  0  0  0
 63 76  1  0  0  0  0
 65 68  1  0  0  0  0
 66 67  1  0  0  0  0
M  CHG  1  76   1
M  ISO  4  36 100  60 101  75 100  83 101
M  END
> <Batch ID>
0055

> <Smiles>
CCC[100N:0](CC(C)c1ccc(C[101CH2:1][101O:1]c2ccc3c(c2)CN(C(=O)C(NC(=O)C(C)NC)C(C)(C)C)C(C(=O)NC2CCCc4ccccc42)C3)nn1)[100C:0](=O)N1CCCC(n2nc(-c3ccc(Oc4ccc(F)cc4F)cc3)c(C(N)=O)c2N)C1

> <Shape>
0.286

> <Color>
0.064

> <Negative vol penalty>
0.000

$$$$

  -OEChem-04052317433D

 82 90  0     1  0  0  0  0  0999 V2000
  -20.1866  -25.1491   24.7622 C   0  0  0  0  0  0  0  0  0  0  0  0
  -21.2792  -25.1311   23.9012 C   0  0  0  0  0  0  0  0  0  0  0  0
  -26.5268  -12.4505   20.6628 C   0  0  0  0  0  0  0  0  0  0  0  0
  -24.9098  -13.8872   19.5864 C   0  0  0  0  0  0  0  0  0  0  0  0
  -19.2005  -26.1238   24.6150 C   0  0  0  0  0  0  0  0  0  0  0  0
  -21.3859  -26.0872   22.8918 C   0  0  0  0  0  0  0  0  0  0  0  0
  -26.0473  -28.0358   22.5463 C   0  0  0  0  0  0  0  0  0  0  0  0
  -25.4906  -11.7187   21.2427 C   0  0  0  0  0  0  0  0  0  0  0  0
  -23.8736  -13.1553   20.1663 C   0  0  0  0  0  0  0  0  0  0  0  0
  -27.0148  -27.2625   21.9062 C   0  0  0  0  0  0  0  0  0  0  0  0
  -23.3100   -9.3123   20.3010 C   0  0  0  0  0  0  0  0  0  0  0  0
  -23.4001   -7.9208   20.2653 C   0  0  0  0  0  0  0  0  0  0  0  0
  -26.7208  -28.5674   19.8987 C   0  0  0  0  0  0  0  0  0  0  0  0
  -23.3557   -7.8560   22.6800 C   0  0  0  0  0  0  0  0  0  0  0  0
  -26.2364  -13.5348   19.8347 C   0  0  0  0  0  0  0  0  0  0  0  0
  -27.9230  -14.0544   17.9926 C   0  0  0  0  0  0  0  0  0  0  0  0
  -19.3001  -27.0982   23.6094 C   0  0  0  0  0  0  0  0  0  0  0  0
  -25.4004  -29.0754   21.8629 C   0  0  0  0  0  0  0  0  0  0  0  0
  -20.3996  -27.0751   22.7302 C   0  0  0  0  0  0  0  0  0  0  0  0
  -25.7473  -29.3540   20.5332 C   0  0  0  0  0  0  0  0  0  0  0  0
  -24.1640  -12.0711   20.9945 C   0  0  0  0  0  0  0  0  0  0  0  0
  -27.3496  -27.5264   20.5813 C   0  0  0  0  0  0  0  0  0  0  0  0
  -23.2428   -9.9757   21.5262 C   0  0  0  0  0  0  0  0  0  0  0  0
  -23.4229   -7.1927   21.4548 C   0  0  0  0  0  0  0  0  0  0  0  0
  -23.2656   -9.2475   22.7157 C   0  0  0  0  0  0  0  0  0  0  0  0
  -27.3064  -14.2915   19.2358 C   0  0  0  0  0  0  0  0  0  0  0  0
  -28.8710  -15.0425   17.8856 C   0  0  0  0  0  0  0  0  0  0  0  0
  -28.1540  -24.0933   18.7723 C   0  0  0  0  0  0  0  0  0  0  0  0
  -26.7744  -22.9486   19.8415 C   0  0  0  0  0  0  0  0  0  0  0  0
  -27.6622  -13.0324   17.0215 C   0  0  0  0  0  0  0  0  0  0  0  0
  -22.3918  -29.6881   21.0403 C   0  0  0  0  0  0  0  0  0  0  0  0
  -29.2890  -20.4901   20.3879 C   0  0  0  0  0  0  0  0  0  0  0  0
  -23.6458  -32.5143   20.0592 C   0  0  0  0  0  0  0  0  0  0  0  0
  -26.3847  -34.2616   19.0141 C   0  0  0  0  0  0  0  0  0  0  0  0
  -18.1855  -28.1031   23.4594 C   0  0  0  0  0  0  0  0  0  0  0  0
  -24.3781  -29.9175   22.5758 C   0  0  0  0  0  0  0  0  0  0  0  0
  -25.0967  -30.4719   19.7614 C   0  0  0  0  0  0  0  0  0  0  0  0
  -18.5627  -29.3075   22.6007 C   0  0  0  0  0  0  0  0  0  0  0  0
  -31.6936  -17.8377   20.5385 C   0  0  0  0  0  0  0  0  0  0  0  0
  -19.2602  -28.8541   21.3221 C   0  0  0  0  0  0  0  0  0  0  0  0
  -30.8903  -16.6016   20.1361 C   0  0  0  0  0  0  0  0  0  0  0  0
  -30.8440  -18.8194   21.3393 C   0  0  0  0  0  0  0  0  0  0  0  0
  -28.7802  -18.0016   20.2470 C   0  0  0  0  0  0  0  0  0  0  0  0
  -20.5633  -28.1103   21.6386 C   0  0  1  0  0  0  0  0  0  0  0  0
  -23.4148  -30.6207   21.6246 C   0  0  1  0  0  0  0  0  0  0  0  0
  -29.5927  -16.9979   19.4098 C   0  0  2  0  0  0  0  0  0  0  0  0
  -27.0906  -36.5448   18.2487 C   0  0  0  0  0  0  0  0  0  0  0  0
  -24.6038  -23.5614   20.9635 C   0  0  0  0  0  0  0  0  0  0  0  0
  -26.1011  -21.8174   21.9895 C   0  0  0  0  0  0  0  0  0  0  0  0
  -24.7864  -21.3014   19.9434 C   0  0  0  0  0  0  0  0  0  0  0  0
  -22.3615  -31.9972   17.3402 C   0  0  0  0  0  0  0  0  0  0  0  0
  -23.8511  -33.7648   16.3783 C   0  0  0  0  0  0  0  0  0  0  0  0
  -22.1906  -34.3598   18.1422 C   0  0  0  0  0  0  0  0  0  0  0  0
  -28.2775  -34.5596   21.2697 C   0  0  0  0  0  0  0  0  0  0  0  0
  -28.8018  -25.2891   18.1175 C   0  0  0  0  0  0  0  0  0  0  0  0
  -28.0044  -20.7550   19.6439 C   0  0  0  0  0  0  0  0  0  0  0  0
  -28.1569  -26.6035   18.5435 C   0  0  0  0  0  0  0  0  0  1  0  0
  -24.2455  -33.0288   18.7728 C   0  0  1  0  0  0  0  0  0  0  0  0
  -26.9423  -35.6084   19.4378 C   0  0  2  0  0  0  0  0  0  0  0  0
  -25.6376  -22.4338   20.6258 C   0  0  0  0  0  0  0  0  0  0  0  0
  -23.1732  -33.2653   17.6720 C   0  0  0  0  0  0  0  0  0  0  0  0
  -27.8196  -15.3473   19.8729 N   0  0  0  0  0  0  0  0  0  0  0  0
  -26.9659  -24.1834   19.4392 N   0  0  0  0  0  0  0  0  0  0  0  0
  -28.7097  -22.8803   18.7365 N   0  0  0  0  0  0  0  0  0  0  0  0
  -28.7688  -15.7824   19.0268 N   0  0  0  0  0  0  0  0  0  0  0  0
  -27.8075  -22.1669   19.4274 N   0  0  0  0  0  0  0  0  0  0  0  0
  -24.0987  -31.2629   20.5002 N   0  0  0  0  0  0  0  0  0  0  0  0
  -29.6102  -19.1535   20.6257 N   0  0  0  0  0  0  0  0  0  0  0  0
  -29.7737  -15.3420   16.9275 N   0  0  0  0  0  0  0  0  0  0  0  0
  -26.6535  -12.0972   17.2902 N   0  0  0  0  0  0  0  0  0  0  0  0
  -21.6099  -29.0486   21.9832 N   0  0  0  0  0  0  0  0  0  0  0  0
  -25.0111  -34.2191   19.1268 N   0  0  0  0  0  0  0  0  0  0  0  0
  -28.2800  -35.4389   20.0723 N   0  3  0  0  0  0  0  0  0  0  0  0
  -28.3156  -12.9411   15.9546 O   0  0  0  0  0  0  0  0  0  0  0  0
  -22.3164  -29.5595   19.8239 O   0  0  0  0  0  0  0  0  0  0  0  0
  -29.9864  -21.4437   20.7436 O   0  0  0  0  0  0  0  0  0  0  0  0
  -22.8117  -33.2009   20.6546 O   0  0  0  0  0  0  0  0  0  0  0  0
  -27.0962  -33.3406   18.6189 O   0  0  0  0  0  0  0  0  0  0  0  0
  -23.1526  -11.3571   21.5600 O   0  0  0  0  0  0  0  0  0  0  0  0
  -28.2931  -26.7727   19.9539 O   0  0  0  0  0  0  0  0  0  1  0  0
  -23.5079   -5.8564   21.4203 F   0  0  0  0  0  0  0  0  0  0  0  0
  -23.2002   -9.8791   23.8958 F   0  0  0  0  0  0  0  0  0  0  0  0
  1  2  1  0  0  0  0
  1  5  2  0  0  0  0
  2  6  2  0  0  0  0
  3  8  2  0  0  0  0
  3 15  1  0  0  0  0
  4  9  1  0  0  0  0
  4 15  2  0  0  0  0
  5 17  1  0  0  0  0
  6 19  1  0  0  0  0
  7 10  2  0  0  0  0
  7 18  1  0  0  0  0
  8 21  1  0  0  0  0
  9 21  2  0  0  0  0
 10 22  1  0  0  0  0
 11 12  2  0  0  0  0
 11 23  1  0  0  0  0
 12 24  1  0  0  0  0
 13 20  1  0  0  0  0
 13 22  2  0  0  0  0
 14 24  2  0  0  0  0
 14 25  1  0  0  0  0
 15 26  1  0  0  0  0
 16 26  1  0  0  0  0
 16 27  2  0  0  0  0
 16 30  1  0  0  0  0
 17 19  2  0  0  0  0
 17 35  1  0  0  0  0
 18 20  2  0  0  0  0
 18 36  1  0  0  0  0
 19 44  1  0  0  0  0
 20 37  1  0  0  0  0
 21 79  1  0  0  0  0
 22 80  1  0  0  0  0
 23 25  2  0  0  0  0
 23 79  1  0  0  0  0
 24 81  1  0  0  0  0
 25 82  1  0  0  0  0
 26 62  2  0  0  0  0
 27 65  1  0  0  0  0
 27 69  1  0  0  0  0
 28 55  1  0  0  0  0
 28 63  1  0  0  0  0
 28 64  2  0  0  0  0
 29 60  1  0  0  0  0
 29 63  2  0  0  0  0
 29 66  1  0  0  0  0
 30 70  1  0  0  0  0
 30 74  2  0  0  0  0
 31 45  1  0  0  0  0
 31 71  1  0  0  0  0
 31 75  2  0  0  0  0
 32 56  1  0  0  0  0
 32 68  1  0  0  0  0
 32 76  2  0  0  0  0
 33 58  1  0  0  0  0
 33 67  1  0  0  0  0
 33 77  2  0  0  0  0
 34 59  1  0  0  0  0
 34 72  1  0  0  0  0
 34 78  2  0  0  0  0
 35 38  1  0  0  0  0
 36 45  1  0  0  0  0
 37 67  1  0  0  0  0
 38 40  1  0  0  0  0
 39 41  1  0  0  0  0
 39 42  1  0  0  0  0
 40 44  1  0  0  0  0
 41 46  1  0  0  0  0
 42 68  1  0  0  0  0
 43 46  1  0  0  0  0
 43 68  1  0  0  0  0
 44 71  1  0  0  0  0
 45 67  1  0  0  0  0
 46 65  1  0  0  0  0
 47 59  1  0  0  0  0
 48 60  1  0  0  0  0
 49 60  1  0  0  0  0
 50 60  1  0  0  0  0
 51 61  1  0  0  0  0
 52 61  1  0  0  0  0
 53 61  1  0  0  0  0
 54 73  1  0  0  0  0
 55 57  1  0  0  0  0
 56 66  1  0  0  0  0
 57 80  1  0  0  0  0
 58 61  1  0  0  0  0
 58 72  1  0  0  0  0
 59 73  1  0  0  0  0
 62 65  1  0  0  0  0
 64 66  1  0  0  0  0
M  CHG  1  73   1
M  ISO  4  32 100  56 100  57 101  80 101
M  END
> <Batch ID>
0055

> <Smiles>
CNC(C)C(=O)NC(C(=O)N1Cc2cc([101O:1][101CH2:1]Cc3nc(C(C)(C)C)n([100CH2:0][100C:0](=O)N4CCCC(n5nc(-c6ccc(Oc7ccc(F)cc7F)cc6)c(C(N)=O)c5N)C4)n3)ccc2CC1C(=O)NC1CCCc2ccccc21)C(C)(C)C

> <Shape>
0.257

> <Color>
0.128

> <Negative vol penalty>
0.000

$$$$

  -OEChem-04052317433D

 86 94  0     1  0  0  0  0  0999 V2000
  -28.1866  -23.3146   15.1508 C   0  0  0  0  0  0  0  0  0  0  0  0
  -27.7283  -22.6505   16.2841 C   0  0  0  0  0  0  0  0  0  0  0  0
  -27.4179  -17.2432   19.0246 C   0  0  0  0  0  0  0  0  0  0  0  0
  -27.8529  -17.2096   21.4009 C   0  0  0  0  0  0  0  0  0  0  0  0
  -28.3669  -24.6968   15.1793 C   0  0  0  0  0  0  0  0  0  0  0  0
  -27.4510  -23.3682   17.4470 C   0  0  0  0  0  0  0  0  0  0  0  0
  -23.0324  -22.2060   21.5251 C   0  0  0  0  0  0  0  0  0  0  0  0
  -28.0800  -18.4665   18.9206 C   0  0  0  0  0  0  0  0  0  0  0  0
  -28.5151  -18.4329   21.2969 C   0  0  0  0  0  0  0  0  0  0  0  0
  -23.0404  -21.5503   22.7554 C   0  0  0  0  0  0  0  0  0  0  0  0
  -27.6863  -21.7006   21.0402 C   0  0  0  0  0  0  0  0  0  0  0  0
  -27.3975  -22.6769   21.9936 C   0  0  0  0  0  0  0  0  0  0  0  0
  -23.2675  -23.6731   23.8785 C   0  0  0  0  0  0  0  0  0  0  0  0
  -29.7159  -22.6993   22.6730 C   0  0  0  0  0  0  0  0  0  0  0  0
  -21.9262  -16.5488   26.9417 C   0  0  0  0  0  0  0  0  0  0  0  0
  -24.1763  -16.6055   25.5060 C   0  0  0  0  0  0  0  0  0  0  0  0
  -27.3042  -16.6148   20.2647 C   0  0  0  0  0  0  0  0  0  0  0  0
  -27.1825  -14.0668   20.2518 C   0  0  0  0  0  0  0  0  0  0  0  0
  -28.0824  -25.4331   16.3401 C   0  0  0  0  0  0  0  0  0  0  0  0
  -23.1531  -23.6017   21.4615 C   0  0  0  0  0  0  0  0  0  0  0  0
  -27.6289  -24.7615   17.4915 C   0  0  0  0  0  0  0  0  0  0  0  0
  -23.2582  -24.3444   22.6462 C   0  0  0  0  0  0  0  0  0  0  0  0
  -28.6287  -19.0613   20.0568 C   0  0  0  0  0  0  0  0  0  0  0  0
  -23.1608  -22.2836   23.9322 C   0  0  0  0  0  0  0  0  0  0  0  0
  -28.9899  -21.2235   20.9032 C   0  0  0  0  0  0  0  0  0  0  0  0
  -28.4123  -23.1763   22.8100 C   0  0  0  0  0  0  0  0  0  0  0  0
  -30.0047  -21.7229   21.7196 C   0  0  0  0  0  0  0  0  0  0  0  0
  -26.6198  -15.3515   20.3728 C   0  0  0  0  0  0  0  0  0  0  0  0
  -22.1721  -15.6059   25.9681 C   0  0  0  0  0  0  0  0  0  0  0  0
  -23.9301  -17.5490   26.4790 C   0  0  0  0  0  0  0  0  0  0  0  0
  -26.1246  -13.2100   20.4343 C   0  0  0  0  0  0  0  0  0  0  0  0
  -28.5401  -13.6822   19.9974 C   0  0  0  0  0  0  0  0  0  0  0  0
  -25.2631  -25.6155   20.1982 C   0  0  0  0  0  0  0  0  0  0  0  0
  -23.1001  -27.8490   21.1229 C   0  0  0  0  0  0  0  0  0  0  0  0
  -20.5305  -28.7094   23.1974 C   0  0  0  0  0  0  0  0  0  0  0  0
  -20.8006  -14.2840   23.2698 C   0  0  0  0  0  0  0  0  0  0  0  0
  -28.3378  -26.9195   16.3377 C   0  0  0  0  0  0  0  0  0  0  0  0
  -23.1159  -24.2961   20.1279 C   0  0  0  0  0  0  0  0  0  0  0  0
  -23.3701  -25.8463   22.6333 C   0  0  0  0  0  0  0  0  0  0  0  0
  -27.6641  -27.6552   17.4932 C   0  0  0  0  0  0  0  0  0  0  0  0
  -21.3872  -12.9197   19.8792 C   0  0  0  0  0  0  0  0  0  0  0  0
  -27.9001  -26.9161   18.8066 C   0  0  0  0  0  0  0  0  0  0  0  0
  -22.8253  -13.3481   19.5920 C   0  0  0  0  0  0  0  0  0  0  0  0
  -20.6898  -13.8805   20.8374 C   0  0  0  0  0  0  0  0  0  0  0  0
  -22.8623  -14.5259   21.8262 C   0  0  0  0  0  0  0  0  0  0  0  0
  -27.2936  -25.5084   18.7642 C   0  0  1  0  0  0  0  0  0  0  0  0
  -23.7624  -25.6777   20.1554 C   0  0  1  0  0  0  0  0  0  0  0  0
  -23.6083  -13.5533   20.9004 C   0  0  2  0  0  0  0  0  0  0  0  0
  -26.0818  -17.3008   28.6953 C   0  0  0  0  0  0  0  0  0  0  0  0
  -21.2251  -11.4572   25.0153 C   0  0  0  0  0  0  0  0  0  0  0  0
  -18.9918  -30.6156   23.7416 C   0  0  0  0  0  0  0  0  0  0  0  0
  -26.2187  -18.5964   25.8710 C   0  0  0  0  0  0  0  0  0  0  0  0
  -25.3723  -29.2610   22.5904 C   0  0  0  0  0  0  0  0  0  0  0  0
  -23.6507  -30.5647   23.8572 C   0  0  0  0  0  0  0  0  0  0  0  0
  -23.8061  -30.7876   21.3775 C   0  0  0  0  0  0  0  0  0  0  0  0
  -18.1311  -27.1251   22.4962 C   0  0  0  0  0  0  0  0  0  0  0  0
  -21.1834  -14.5273   25.6934 C   0  0  0  0  0  0  0  0  0  0  0  0
  -25.4136  -18.6025   28.2603 C   0  0  0  0  0  0  0  0  0  0  0  0
  -24.2888  -20.0664   26.5510 C   0  0  0  0  0  0  0  0  0  0  0  0
  -22.1472  -12.5657   24.5493 C   0  0  0  0  0  0  0  0  0  0  0  0
  -23.7001  -20.3217   25.1634 C   0  0  0  0  0  0  0  0  0  1  0  0
  -22.8703  -28.6610   22.3746 C   0  0  1  0  0  0  0  0  0  0  0  0
  -19.1829  -29.3507   22.9194 C   0  0  2  0  0  0  0  0  0  0  0  0
  -24.9539  -18.6652   26.7637 C   0  0  2  0  0  0  0  0  0  0  0  0
  -23.9247  -29.7901   22.5504 C   0  0  0  0  0  0  0  0  0  0  0  0
  -23.3017  -15.6171   25.2330 N   0  0  0  0  0  0  0  0  0  0  0  0
  -22.8007  -17.5375   27.2144 N   0  0  0  0  0  0  0  0  0  0  0  0
  -25.3064  -15.3186   20.6133 N   0  0  0  0  0  0  0  0  0  0  0  0
  -25.0349  -14.0028   20.6448 N   0  0  0  0  0  0  0  0  0  0  0  0
  -23.3353  -26.4788   21.3043 N   0  0  0  0  0  0  0  0  0  0  0  0
  -21.4760  -14.0910   22.0535 N   0  0  0  0  0  0  0  0  0  0  0  0
  -26.0294  -11.8634   20.4334 N   0  0  0  0  0  0  0  0  0  0  0  0
  -29.5007  -14.6898   19.8351 N   0  0  0  0  0  0  0  0  0  0  0  0
  -25.8600  -25.5698   18.9528 N   0  0  0  0  0  0  0  0  0  0  0  0
  -21.4925  -29.1355   22.3062 N   0  0  0  0  0  0  0  0  0  0  0  0
  -21.4438  -13.8416   24.4357 N   0  0  0  0  0  0  0  0  0  0  0  0
  -18.0806  -28.4040   23.2504 N   0  3  0  0  0  0  0  0  0  0  0  0
  -28.8880  -12.4809   19.9002 O   0  0  0  0  0  0  0  0  0  0  0  0
  -25.8370  -25.6109   21.2810 O   0  0  0  0  0  0  0  0  0  0  0  0
  -23.0647  -28.4086   20.0241 O   0  0  0  0  0  0  0  0  0  0  0  0
  -20.7124  -27.9131   24.1158 O   0  0  0  0  0  0  0  0  0  0  0  0
  -19.6821  -14.8124   23.3103 O   0  0  0  0  0  0  0  0  0  0  0  0
  -29.2751  -20.2548   19.9557 O   0  0  0  0  0  0  0  0  0  0  0  0
  -23.1695  -21.6460   25.1344 O   0  0  0  0  0  0  0  0  0  1  0  0
  -28.1351  -24.1150   23.7244 F   0  0  0  0  0  0  0  0  0  0  0  0
  -31.2592  -21.2694   21.5918 F   0  0  0  0  0  0  0  0  0  0  0  0
  1  2  1  0  0  0  0
  1  5  2  0  0  0  0
  2  6  2  0  0  0  0
  3  8  2  0  0  0  0
  3 17  1  0  0  0  0
  4  9  1  0  0  0  0
  4 17  2  0  0  0  0
  5 19  1  0  0  0  0
  6 21  1  0  0  0  0
  7 10  2  0  0  0  0
  7 20  1  0  0  0  0
  8 23  1  0  0  0  0
  9 23  2  0  0  0  0
 10 24  1  0  0  0  0
 11 12  2  0  0  0  0
 11 25  1  0  0  0  0
 12 26  1  0  0  0  0
 13 22  1  0  0  0  0
 13 24  2  0  0  0  0
 14 26  2  0  0  0  0
 14 27  1  0  0  0  0
 15 29  1  0  0  0  0
 15 67  2  0  0  0  0
 16 30  2  0  0  0  0
 16 66  1  0  0  0  0
 17 28  1  0  0  0  0
 18 28  1  0  0  0  0
 18 31  2  0  0  0  0
 18 32  1  0  0  0  0
 19 21  2  0  0  0  0
 19 37  1  0  0  0  0
 20 22  2  0  0  0  0
 20 38  1  0  0  0  0
 21 46  1  0  0  0  0
 22 39  1  0  0  0  0
 23 83  1  0  0  0  0
 24 84  1  0  0  0  0
 25 27  2  0  0  0  0
 25 83  1  0  0  0  0
 26 85  1  0  0  0  0
 27 86  1  0  0  0  0
 28 68  2  0  0  0  0
 29 57  1  0  0  0  0
 29 66  2  0  0  0  0
 30 64  1  0  0  0  0
 30 67  1  0  0  0  0
 31 69  1  0  0  0  0
 31 72  1  0  0  0  0
 32 73  1  0  0  0  0
 32 78  2  0  0  0  0
 33 47  1  0  0  0  0
 33 74  1  0  0  0  0
 33 79  2  0  0  0  0
 34 62  1  0  0  0  0
 34 70  1  0  0  0  0
 34 80  2  0  0  0  0
 35 63  1  0  0  0  0
 35 75  1  0  0  0  0
 35 81  2  0  0  0  0
 36 71  1  0  0  0  0
 36 76  1  0  0  0  0
 36 82  2  0  0  0  0
 37 40  1  0  0  0  0
 38 47  1  0  0  0  0
 39 70  1  0  0  0  0
 40 42  1  0  0  0  0
 41 43  1  0  0  0  0
 41 44  1  0  0  0  0
 42 46  1  0  0  0  0
 43 48  1  0  0  0  0
 44 71  1  0  0  0  0
 45 48  1  0  0  0  0
 45 71  1  0  0  0  0
 46 74  1  0  0  0  0
 47 70  1  0  0  0  0
 48 69  1  0  0  0  0
 49 58  1  0  0  0  0
 50 60  1  0  0  0  0
 51 63  1  0  0  0  0
 52 64  1  0  0  0  0
 53 65  1  0  0  0  0
 54 65  1  0  0  0  0
 55 65  1  0  0  0  0
 56 77  1  0  0  0  0
 57 76  1  0  0  0  0
 58 64  1  0  0  0  0
 59 61  1  0  0  0  0
 59 64  1  0  0  0  0
 60 76  1  0  0  0  0
 61 84  1  0  0  0  0
 62 65  1  0  0  0  0
 62 75  1  0  0  0  0
 63 77  1  0  0  0  0
 68 69  1  0  0  0  0
M  CHG  1  77   1
M  ISO  4  36 100  61 101  76 100  84 101
M  END
> <Batch ID>
0055

> <Smiles>
CC[100N:0](Cc1cnc(C(C)(CC)C[101CH2:1][101O:1]c2ccc3c(c2)CN(C(=O)C(NC(=O)C(C)NC)C(C)(C)C)C(C(=O)NC2CCCc4ccccc42)C3)cn1)[100C:0](=O)N1CCCC(n2nc(-c3ccc(Oc4ccc(F)cc4F)cc3)c(C(N)=O)c2N)C1

> <Shape>
0.197

> <Color>
0.071

> <Negative vol penalty>
0.000

$$$$

  -OEChem-04052317433D

 86 94  0     1  0  0  0  0  0999 V2000
  -18.1036  -24.7307   20.8546 C   0  0  0  0  0  0  0  0  0  0  0  0
  -19.3883  -24.8441   20.3330 C   0  0  0  0  0  0  0  0  0  0  0  0
  -23.3858  -13.2606   22.1268 C   0  0  0  0  0  0  0  0  0  0  0  0
  -23.2922  -12.8351   19.7504 C   0  0  0  0  0  0  0  0  0  0  0  0
  -17.6865  -25.5898   21.8703 C   0  0  0  0  0  0  0  0  0  0  0  0
  -20.2564  -25.8176   20.8263 C   0  0  0  0  0  0  0  0  0  0  0  0
  -24.9192  -24.0234   21.6534 C   0  0  0  0  0  0  0  0  0  0  0  0
  -22.2070  -12.5361   22.3030 C   0  0  0  0  0  0  0  0  0  0  0  0
  -22.1134  -12.1105   19.9266 C   0  0  0  0  0  0  0  0  0  0  0  0
  -25.7451  -23.8603   20.5421 C   0  0  0  0  0  0  0  0  0  0  0  0
  -21.2224   -9.0214   20.9681 C   0  0  0  0  0  0  0  0  0  0  0  0
  -21.1084   -7.8005   20.3034 C   0  0  0  0  0  0  0  0  0  0  0  0
  -26.8518  -25.9385   21.0671 C   0  0  0  0  0  0  0  0  0  0  0  0
  -19.1613   -8.6202   19.1313 C   0  0  0  0  0  0  0  0  0  0  0  0
  -23.9284  -13.4102   20.8505 C   0  0  0  0  0  0  0  0  0  0  0  0
  -26.4626  -13.6628   20.7044 C   0  0  0  0  0  0  0  0  0  0  0  0
  -18.5531  -26.5680   22.3830 C   0  0  0  0  0  0  0  0  0  0  0  0
  -25.0463  -25.1526   22.4751 C   0  0  0  0  0  0  0  0  0  0  0  0
  -19.8500  -26.6915   21.8489 C   0  0  0  0  0  0  0  0  0  0  0  0
  -26.0280  -26.1123   22.1897 C   0  0  0  0  0  0  0  0  0  0  0  0
  -21.5708  -11.9610   21.2030 C   0  0  0  0  0  0  0  0  0  0  0  0
  -26.7096  -24.8194   20.2471 C   0  0  0  0  0  0  0  0  0  0  0  0
  -20.3057  -10.0418   20.7145 C   0  0  0  0  0  0  0  0  0  0  0  0
  -20.0779   -7.5999   19.3850 C   0  0  0  0  0  0  0  0  0  0  0  0
  -19.2752   -9.8412   19.7961 C   0  0  0  0  0  0  0  0  0  0  0  0
  -25.1457  -14.1590   20.6677 C   0  0  0  0  0  0  0  0  0  0  0  0
  -27.2510  -14.7639   20.4753 C   0  0  0  0  0  0  0  0  0  0  0  0
  -30.4768  -20.8958   18.8627 C   0  0  0  0  0  0  0  0  0  0  0  0
  -29.8974  -22.9856   18.7834 C   0  0  0  0  0  0  0  0  0  0  0  0
  -26.9314  -12.3260   20.9258 C   0  0  0  0  0  0  0  0  0  0  0  0
  -23.1428  -27.5684   23.2777 C   0  0  0  0  0  0  0  0  0  0  0  0
  -25.5782  -28.3084   25.2886 C   0  0  0  0  0  0  0  0  0  0  0  0
  -28.9025  -28.0717   26.0232 C   0  0  0  0  0  0  0  0  0  0  0  0
  -28.0426  -19.3632   17.2293 C   0  0  0  0  0  0  0  0  0  0  0  0
  -18.0414  -27.5049   23.4484 C   0  0  0  0  0  0  0  0  0  0  0  0
  -24.1656  -25.3005   23.6854 C   0  0  0  0  0  0  0  0  0  0  0  0
  -26.2185  -27.3325   23.0519 C   0  0  0  0  0  0  0  0  0  0  0  0
  -19.1487  -28.2641   24.1749 C   0  0  0  0  0  0  0  0  0  0  0  0
  -26.1175  -19.6833   20.3746 C   0  0  0  0  0  0  0  0  0  0  0  0
  -20.1486  -28.8359   23.1749 C   0  0  0  0  0  0  0  0  0  0  0  0
  -25.7458  -18.2346   20.6865 C   0  0  0  0  0  0  0  0  0  0  0  0
  -26.2892  -19.9148   18.8764 C   0  0  0  0  0  0  0  0  0  0  0  0
  -26.8857  -17.5385   18.5426 C   0  0  0  0  0  0  0  0  0  0  0  0
  -20.8291  -27.7186   22.3749 C   0  0  1  0  0  0  0  0  0  0  0  0
  -24.0387  -26.7451   24.1592 C   0  0  1  0  0  0  0  0  0  0  0  0
  -26.7507  -17.2606   20.0473 C   0  0  2  0  0  0  0  0  0  0  0  0
  -31.7964  -25.1910   19.8612 C   0  0  0  0  0  0  0  0  0  0  0  0
  -33.0045  -22.3446   17.4275 C   0  0  0  0  0  0  0  0  0  0  0  0
  -30.6042  -28.8119   27.7125 C   0  0  0  0  0  0  0  0  0  0  0  0
  -29.3204  -24.6211   16.8631 C   0  0  0  0  0  0  0  0  0  0  0  0
  -25.5722  -31.1040   24.0661 C   0  0  0  0  0  0  0  0  0  0  0  0
  -27.8348  -31.4731   25.0724 C   0  0  0  0  0  0  0  0  0  0  0  0
  -25.8687  -31.0517   26.5488 C   0  0  0  0  0  0  0  0  0  0  0  0
  -29.9019  -18.6066   15.7975 C   0  0  0  0  0  0  0  0  0  0  0  0
  -29.5459  -25.2810   26.7696 C   0  0  0  0  0  0  0  0  0  0  0  0
  -31.1436  -19.6261   18.5235 C   0  0  0  0  0  0  0  0  0  0  0  0
  -31.2127  -25.1496   18.4516 C   0  0  0  0  0  0  0  0  0  0  0  0
  -31.5411  -22.2477   17.0320 C   0  0  0  0  0  0  0  0  0  0  0  0
  -30.1768  -18.4595   18.2447 C   0  0  0  0  0  0  0  0  0  0  0  0
  -28.8262  -25.2243   19.2412 C   0  0  0  0  0  0  0  0  0  1  0  0
  -26.8287  -29.1482   25.1897 C   0  0  1  0  0  0  0  0  0  0  0  0
  -29.6272  -27.7184   27.3094 C   0  0  2  0  0  0  0  0  0  0  0  0
  -29.8189  -24.4549   18.3212 C   0  0  2  0  0  0  0  0  0  0  0  0
  -26.5215  -30.6724   25.2017 C   0  0  0  0  0  0  0  0  0  0  0  0
  -25.0962  -15.4731   20.4338 N   0  0  0  0  0  0  0  0  0  0  0  0
  -29.6227  -21.1059   19.8388 N   0  0  0  0  0  0  0  0  0  0  0  0
  -29.2541  -22.4355   19.7884 N   0  0  0  0  0  0  0  0  0  0  0  0
  -26.3918  -15.8120   20.3216 N   0  0  0  0  0  0  0  0  0  0  0  0
  -30.6788  -22.0524   18.1725 N   0  0  0  0  0  0  0  0  0  0  0  0
  -25.3288  -27.4351   24.2204 N   0  0  0  0  0  0  0  0  0  0  0  0
  -27.2162  -18.9484   18.2865 N   0  0  0  0  0  0  0  0  0  0  0  0
  -28.5883  -14.9282   20.3924 N   0  0  0  0  0  0  0  0  0  0  0  0
  -25.9865  -11.3143   21.1450 N   0  0  0  0  0  0  0  0  0  0  0  0
  -21.8548  -27.0795   23.1711 N   0  0  0  0  0  0  0  0  0  0  0  0
  -27.7037  -28.7065   26.2703 N   0  0  0  0  0  0  0  0  0  0  0  0
  -29.2948  -18.7407   17.1141 N   0  0  0  0  0  0  0  0  0  0  0  0
  -30.3870  -26.4471   27.1435 N   0  3  0  0  0  0  0  0  0  0  0  0
  -28.1526  -12.0401   20.9455 O   0  0  0  0  0  0  0  0  0  0  0  0
  -23.5868  -28.5738   22.7357 O   0  0  0  0  0  0  0  0  0  0  0  0
  -24.8532  -28.4178   26.2806 O   0  0  0  0  0  0  0  0  0  0  0  0
  -29.3564  -27.8139   24.9105 O   0  0  0  0  0  0  0  0  0  0  0  0
  -27.6857  -20.2468   16.4395 O   0  0  0  0  0  0  0  0  0  0  0  0
  -20.4206  -11.2537   21.3746 O   0  0  0  0  0  0  0  0  0  0  0  0
  -27.5166  -24.6630   19.1626 O   0  0  0  0  0  0  0  0  0  1  0  0
  -19.9695   -6.4278   18.7456 F   0  0  0  0  0  0  0  0  0  0  0  0
  -18.3923  -10.8182   19.5474 F   0  0  0  0  0  0  0  0  0  0  0  0
  1  2  1  0  0  0  0
  1  5  2  0  0  0  0
  2  6  2  0  0  0  0
  3  8  2  0  0  0  0
  3 15  1  0  0  0  0
  4  9  1  0  0  0  0
  4 15  2  0  0  0  0
  5 17  1  0  0  0  0
  6 19  1  0  0  0  0
  7 10  2  0  0  0  0
  7 18  1  0  0  0  0
  8 21  1  0  0  0  0
  9 21  2  0  0  0  0
 10 22  1  0  0  0  0
 11 12  2  0  0  0  0
 11 23  1  0  0  0  0
 12 24  1  0  0  0  0
 13 20  1  0  0  0  0
 13 22  2  0  0  0  0
 14 24  2  0  0  0  0
 14 25  1  0  0  0  0
 15 26  1  0  0  0  0
 16 26  1  0  0  0  0
 16 27  2  0  0  0  0
 16 30  1  0  0  0  0
 17 19  2  0  0  0  0
 17 35  1  0  0  0  0
 18 20  2  0  0  0  0
 18 36  1  0  0  0  0
 19 44  1  0  0  0  0
 20 37  1  0  0  0  0
 21 83  1  0  0  0  0
 22 84  1  0  0  0  0
 23 25  2  0  0  0  0
 23 83  1  0  0  0  0
 24 85  1  0  0  0  0
 25 86  1  0  0  0  0
 26 65  2  0  0  0  0
 27 68  1  0  0  0  0
 27 72  1  0  0  0  0
 28 56  1  0  0  0  0
 28 66  2  0  0  0  0
 28 69  1  0  0  0  0
 29 63  1  0  0  0  0
 29 67  2  0  0  0  0
 29 69  1  0  0  0  0
 30 73  1  0  0  0  0
 30 78  2  0  0  0  0
 31 45  1  0  0  0  0
 31 74  1  0  0  0  0
 31 79  2  0  0  0  0
 32 61  1  0  0  0  0
 32 70  1  0  0  0  0
 32 80  2  0  0  0  0
 33 62  1  0  0  0  0
 33 75  1  0  0  0  0
 33 81  2  0  0  0  0
 34 71  1  0  0  0  0
 34 76  1  0  0  0  0
 34 82  2  0  0  0  0
 35 38  1  0  0  0  0
 36 45  1  0  0  0  0
 37 70  1  0  0  0  0
 38 40  1  0  0  0  0
 39 41  1  0  0  0  0
 39 42  1  0  0  0  0
 40 44  1  0  0  0  0
 41 46  1  0  0  0  0
 42 71  1  0  0  0  0
 43 46  1  0  0  0  0
 43 71  1  0  0  0  0
 44 74  1  0  0  0  0
 45 70  1  0  0  0  0
 46 68  1  0  0  0  0
 47 57  1  0  0  0  0
 48 58  1  0  0  0  0
 49 62  1  0  0  0  0
 50 63  1  0  0  0  0
 51 64  1  0  0  0  0
 52 64  1  0  0  0  0
 53 64  1  0  0  0  0
 54 76  1  0  0  0  0
 55 77  1  0  0  0  0
 56 59  1  0  0  0  0
 57 63  1  0  0  0  0
 58 69  1  0  0  0  0
 59 76  1  0  0  0  0
 60 63  1  0  0  0  0
 60 84  1  0  0  0  0
 61 64  1  0  0  0  0
 61 75  1  0  0  0  0
 62 77  1  0  0  0  0
 65 68  1  0  0  0  0
 66 67  1  0  0  0  0
M  CHG  1  77   1
M  ISO  4  34 100  60 101  76 100  84 101
M  END
> <Batch ID>
0055

> <Smiles>
CCn1c(CC[100N:0](C)[100C:0](=O)N2CCCC(n3nc(-c4ccc(Oc5ccc(F)cc5F)cc4)c(C(N)=O)c3N)C2)nnc1C(C)(CC)[101CH2:1][101O:1]c1ccc2c(c1)CN(C(=O)C(NC(=O)C(C)NC)C(C)(C)C)C(C(=O)NC1CCCc3ccccc31)C2

> <Shape>
0.238

> <Color>
0.078

> <Negative vol penalty>
0.000

$$$$

  -OEChem-04052317433D

 79 87  0     1  0  0  0  0  0999 V2000
  -31.3134  -25.0127    9.5900 C   0  0  0  0  0  0  0  0  0  0  0  0
  -31.4104  -24.4490   10.8582 C   0  0  0  0  0  0  0  0  0  0  0  0
  -23.1115   -9.8850   19.9450 C   0  0  0  0  0  0  0  0  0  0  0  0
  -23.8748   -9.9086   22.2372 C   0  0  0  0  0  0  0  0  0  0  0  0
  -31.7290  -26.3267    9.3788 C   0  0  0  0  0  0  0  0  0  0  0  0
  -31.9242  -25.1987   11.9157 C   0  0  0  0  0  0  0  0  0  0  0  0
  -29.1744  -24.7340   16.1427 C   0  0  0  0  0  0  0  0  0  0  0  0
  -22.3838   -8.7225   20.1993 C   0  0  0  0  0  0  0  0  0  0  0  0
  -23.1471   -8.7461   22.4915 C   0  0  0  0  0  0  0  0  0  0  0  0
  -29.3494  -23.5711   16.8915 C   0  0  0  0  0  0  0  0  0  0  0  0
  -19.4490   -7.8898   21.6574 C   0  0  0  0  0  0  0  0  0  0  0  0
  -18.1421   -7.8244   21.1744 C   0  0  0  0  0  0  0  0  0  0  0  0
  -30.7949  -24.7705   18.4051 C   0  0  0  0  0  0  0  0  0  0  0  0
  -18.7262   -5.8855   19.8565 C   0  0  0  0  0  0  0  0  0  0  0  0
  -29.2538  -18.7941   20.9374 C   0  0  0  0  0  0  0  0  0  0  0  0
  -31.3947  -18.5845   20.0270 C   0  0  0  0  0  0  0  0  0  0  0  0
  -23.8570  -10.4780   20.9640 C   0  0  0  0  0  0  0  0  0  0  0  0
  -24.1642  -13.0073   20.8366 C   0  0  0  0  0  0  0  0  0  0  0  0
  -32.2392  -27.0961   10.4364 C   0  0  0  0  0  0  0  0  0  0  0  0
  -29.8181  -25.9233   16.5139 C   0  0  0  0  0  0  0  0  0  0  0  0
  -32.3483  -26.5238   11.7182 C   0  0  0  0  0  0  0  0  0  0  0  0
  -30.6244  -25.9478   17.6608 C   0  0  0  0  0  0  0  0  0  0  0  0
  -30.4670  -18.1365   20.9450 C   0  0  0  0  0  0  0  0  0  0  0  0
  -22.4016   -8.1530   21.4725 C   0  0  0  0  0  0  0  0  0  0  0  0
  -30.1620  -23.5885   18.0213 C   0  0  0  0  0  0  0  0  0  0  0  0
  -20.3945   -6.9531   21.2400 C   0  0  0  0  0  0  0  0  0  0  0  0
  -17.7806   -6.8223   20.2740 C   0  0  0  0  0  0  0  0  0  0  0  0
  -20.0331   -5.9509   20.3395 C   0  0  0  0  0  0  0  0  0  0  0  0
  -24.6094  -11.6786   20.7018 C   0  0  0  0  0  0  0  0  0  0  0  0
  -25.2455  -13.7706   20.4695 C   0  0  0  0  0  0  0  0  0  0  0  0
  -29.9458  -20.1564   19.2544 C   0  0  0  0  0  0  0  0  0  0  0  0
  -22.8875  -13.5068   21.2561 C   0  0  0  0  0  0  0  0  0  0  0  0
  -31.9682  -27.8289   15.1540 C   0  0  0  0  0  0  0  0  0  0  0  0
  -31.3712  -29.6981   17.7370 C   0  0  0  0  0  0  0  0  0  0  0  0
  -30.2808  -29.9194   20.9633 C   0  0  0  0  0  0  0  0  0  0  0  0
  -30.7151  -14.8648   20.6464 C   0  0  0  0  0  0  0  0  0  0  0  0
  -32.7198  -28.4965   10.1493 C   0  0  0  0  0  0  0  0  0  0  0  0
  -29.5977  -27.1758   15.7107 C   0  0  0  0  0  0  0  0  0  0  0  0
  -31.3215  -27.2039   18.1133 C   0  0  0  0  0  0  0  0  0  0  0  0
  -32.9039  -29.3464   11.4039 C   0  0  0  0  0  0  0  0  0  0  0  0
  -29.6064  -12.4585   18.2679 C   0  0  0  0  0  0  0  0  0  0  0  0
  -33.6585  -28.5631   12.4734 C   0  0  0  0  0  0  0  0  0  0  0  0
  -28.1738  -12.1464   18.7039 C   0  0  0  0  0  0  0  0  0  0  0  0
  -30.5223  -12.6951   19.4667 C   0  0  0  0  0  0  0  0  0  0  0  0
  -28.6129  -13.4039   20.8544 C   0  0  0  0  0  0  0  0  0  0  0  0
  -32.8772  -27.3131   12.8960 C   0  0  1  0  0  0  0  0  0  0  0  0
  -30.7116  -28.2030   15.8880 C   0  0  1  0  0  0  0  0  0  0  0  0
  -27.6394  -13.2129   19.6788 C   0  0  2  0  0  0  0  0  0  0  0  0
  -29.9444  -31.5739   22.8199 C   0  0  0  0  0  0  0  0  0  0  0  0
  -34.3768  -29.7165   18.2619 C   0  0  0  0  0  0  0  0  0  0  0  0
  -33.8971  -30.5414   20.5766 C   0  0  0  0  0  0  0  0  0  0  0  0
  -33.2448  -31.9203   18.6028 C   0  0  0  0  0  0  0  0  0  0  0  0
  -27.3680  -29.4030   21.0519 C   0  0  0  0  0  0  0  0  0  0  0  0
  -30.7536  -17.0194   21.8774 C   0  0  0  0  0  0  0  0  0  0  0  0
  -29.6541  -21.2828   18.3071 C   0  0  0  0  0  0  0  0  0  1  0  0
  -31.9465  -29.8153   19.1278 C   0  0  1  0  0  0  0  0  0  0  0  0
  -29.3047  -30.8691   21.6338 C   0  0  2  0  0  0  0  0  0  0  0  0
  -33.3548  -30.4741   19.1329 C   0  0  0  0  0  0  0  0  0  0  0  0
  -28.9582  -19.8120   20.1026 N   0  0  0  0  0  0  0  0  0  0  0  0
  -31.1668  -19.5957   19.1633 N   0  0  0  0  0  0  0  0  0  0  0  0
  -25.8748  -11.5988   20.2817 N   0  0  0  0  0  0  0  0  0  0  0  0
  -26.2340  -12.8871   20.1493 N   0  0  0  0  0  0  0  0  0  0  0  0
  -31.0797  -28.4011   17.2913 N   0  0  0  0  0  0  0  0  0  0  0  0
  -29.9592  -13.7184   20.3508 N   0  0  0  0  0  0  0  0  0  0  0  0
  -25.4376  -15.1046   20.3926 N   0  0  0  0  0  0  0  0  0  0  0  0
  -21.8886  -12.5849   21.5975 N   0  0  0  0  0  0  0  0  0  0  0  0
  -31.7982  -27.6705   13.7919 N   0  0  0  0  0  0  0  0  0  0  0  0
  -30.9512  -30.5267   19.9226 N   0  0  0  0  0  0  0  0  0  0  0  0
  -30.1047  -15.7876   21.4869 N   0  0  0  0  0  0  0  0  0  0  0  0
  -28.1081  -30.1249   22.1188 N   0  3  0  0  0  0  0  0  0  0  0  0
  -22.6346  -14.7343   21.3105 O   0  0  0  0  0  0  0  0  0  0  0  0
  -33.0149  -27.6954   15.7772 O   0  0  0  0  0  0  0  0  0  0  0  0
  -31.1805  -30.7203   17.0733 O   0  0  0  0  0  0  0  0  0  0  0  0
  -30.4360  -28.7562   21.3288 O   0  0  0  0  0  0  0  0  0  0  0  0
  -31.8479  -15.0545   20.1905 O   0  0  0  0  0  0  0  0  0  0  0  0
  -21.6914   -7.0188   21.7210 O   0  0  0  0  0  0  0  0  0  0  0  0
  -30.3351  -22.4547   18.7536 O   0  0  0  0  0  0  0  0  0  1  0  0
  -16.5252   -6.7587   19.8114 F   0  0  0  0  0  0  0  0  0  0  0  0
  -20.9368   -5.0475   19.9357 F   0  0  0  0  0  0  0  0  0  0  0  0
  1  2  1  0  0  0  0
  1  5  2  0  0  0  0
  2  6  2  0  0  0  0
  3  8  2  0  0  0  0
  3 17  1  0  0  0  0
  4  9  1  0  0  0  0
  4 17  2  0  0  0  0
  5 19  1  0  0  0  0
  6 21  1  0  0  0  0
  7 10  2  0  0  0  0
  7 20  1  0  0  0  0
  8 24  1  0  0  0  0
  9 24  2  0  0  0  0
 10 25  1  0  0  0  0
 11 12  2  0  0  0  0
 11 26  1  0  0  0  0
 12 27  1  0  0  0  0
 13 22  1  0  0  0  0
 13 25  2  0  0  0  0
 14 27  2  0  0  0  0
 14 28  1  0  0  0  0
 15 23  1  0  0  0  0
 15 59  2  0  0  0  0
 16 23  2  0  0  0  0
 16 60  1  0  0  0  0
 17 29  1  0  0  0  0
 18 29  1  0  0  0  0
 18 30  2  0  0  0  0
 18 32  1  0  0  0  0
 19 21  2  0  0  0  0
 19 37  1  0  0  0  0
 20 22  2  0  0  0  0
 20 38  1  0  0  0  0
 21 46  1  0  0  0  0
 22 39  1  0  0  0  0
 23 54  1  0  0  0  0
 24 76  1  0  0  0  0
 25 77  1  0  0  0  0
 26 28  2  0  0  0  0
 26 76  1  0  0  0  0
 27 78  1  0  0  0  0
 28 79  1  0  0  0  0
 29 61  2  0  0  0  0
 30 62  1  0  0  0  0
 30 65  1  0  0  0  0
 31 55  1  0  0  0  0
 31 59  1  0  0  0  0
 31 60  2  0  0  0  0
 32 66  1  0  0  0  0
 32 71  2  0  0  0  0
 33 47  1  0  0  0  0
 33 67  1  0  0  0  0
 33 72  2  0  0  0  0
 34 56  1  0  0  0  0
 34 63  1  0  0  0  0
 34 73  2  0  0  0  0
 35 57  1  0  0  0  0
 35 68  1  0  0  0  0
 35 74  2  0  0  0  0
 36 64  1  0  0  0  0
 36 69  1  0  0  0  0
 36 75  2  0  0  0  0
 37 40  1  0  0  0  0
 38 47  1  0  0  0  0
 39 63  1  0  0  0  0
 40 42  1  0  0  0  0
 41 43  1  0  0  0  0
 41 44  1  0  0  0  0
 42 46  1  0  0  0  0
 43 48  1  0  0  0  0
 44 64  1  0  0  0  0
 45 48  1  0  0  0  0
 45 64  1  0  0  0  0
 46 67  1  0  0  0  0
 47 63  1  0  0  0  0
 48 62  1  0  0  0  0
 49 57  1  0  0  0  0
 50 58  1  0  0  0  0
 51 58  1  0  0  0  0
 52 58  1  0  0  0  0
 53 70  1  0  0  0  0
 54 69  1  0  0  0  0
 55 77  1  0  0  0  0
 56 58  1  0  0  0  0
 56 68  1  0  0  0  0
 57 70  1  0  0  0  0
 61 62  1  0  0  0  0
M  CHG  1  70   1
M  ISO  4  36 100  55 101  69 100  77 101
M  END
> <Batch ID>
0055

> <Smiles>
CNC(C)C(=O)NC(C(=O)N1Cc2cc([101O:1][101CH2:1]c3ncc(C[100NH:0][100C:0](=O)N4CCCC(n5nc(-c6ccc(Oc7ccc(F)cc7F)cc6)c(C(N)=O)c5N)C4)cn3)ccc2CC1C(=O)NC1CCCc2ccccc21)C(C)(C)C

> <Shape>
0.226

> <Color>
0.209

> <Negative vol penalty>
0.000

$$$$

  -OEChem-04052317433D

 81 89  0     1  0  0  0  0  0999 V2000
  -26.1953  -20.1300   11.7245 C   0  0  0  0  0  0  0  0  0  0  0  0
  -25.8593  -19.0775   12.5699 C   0  0  0  0  0  0  0  0  0  0  0  0
  -29.9670  -23.4534   20.4259 C   0  0  0  0  0  0  0  0  0  0  0  0
  -27.5995  -22.9763   20.3606 C   0  0  0  0  0  0  0  0  0  0  0  0
  -26.2837  -21.4268   12.2289 C   0  0  0  0  0  0  0  0  0  0  0  0
  -25.6126  -19.3210   13.9206 C   0  0  0  0  0  0  0  0  0  0  0  0
  -21.5640  -16.4411   17.5012 C   0  0  0  0  0  0  0  0  0  0  0  0
  -29.7202  -24.7429   19.9550 C   0  0  0  0  0  0  0  0  0  0  0  0
  -27.3526  -24.2659   19.8897 C   0  0  0  0  0  0  0  0  0  0  0  0
  -21.6981  -15.4030   18.4221 C   0  0  0  0  0  0  0  0  0  0  0  0
  -27.1434  -27.3860   21.1708 C   0  0  0  0  0  0  0  0  0  0  0  0
  -26.0930  -28.0965   21.7519 C   0  0  0  0  0  0  0  0  0  0  0  0
  -21.8564  -17.0163   20.2085 C   0  0  0  0  0  0  0  0  0  0  0  0
  -25.0129  -28.2620   19.5971 C   0  0  0  0  0  0  0  0  0  0  0  0
  -25.1983  -14.0842   21.2166 C   0  0  0  0  0  0  0  0  0  0  0  0
  -25.4037  -11.9993   20.5326 C   0  0  0  0  0  0  0  0  0  0  0  0
  -28.9067  -22.5700   20.6287 C   0  0  0  0  0  0  0  0  0  0  0  0
  -29.2086  -20.8170   22.4572 C   0  0  0  0  0  0  0  0  0  0  0  0
  -26.0285  -21.6878   13.5844 C   0  0  0  0  0  0  0  0  0  0  0  0
  -21.5861  -17.7771   17.9265 C   0  0  0  0  0  0  0  0  0  0  0  0
  -25.6990  -20.6223   14.4438 C   0  0  0  0  0  0  0  0  0  0  0  0
  -21.7198  -18.0695   19.2913 C   0  0  0  0  0  0  0  0  0  0  0  0
  -28.4130  -25.1492   19.6869 C   0  0  0  0  0  0  0  0  0  0  0  0
  -21.8472  -15.6906   19.7757 C   0  0  0  0  0  0  0  0  0  0  0  0
  -27.1286  -27.1136   19.8029 C   0  0  0  0  0  0  0  0  0  0  0  0
  -25.0278  -28.5345   20.9650 C   0  0  0  0  0  0  0  0  0  0  0  0
  -26.0633  -27.5516   19.0160 C   0  0  0  0  0  0  0  0  0  0  0  0
  -29.1611  -21.2376   21.1145 C   0  0  0  0  0  0  0  0  0  0  0  0
  -26.2850  -13.9314   20.3882 C   0  0  0  0  0  0  0  0  0  0  0  0
  -29.4807  -19.4726   22.3864 C   0  0  0  0  0  0  0  0  0  0  0  0
  -29.0234  -21.5739   23.6607 C   0  0  0  0  0  0  0  0  0  0  0  0
  -23.4670  -20.2780   17.3683 C   0  0  0  0  0  0  0  0  0  0  0  0
  -21.2252  -21.8573   19.1012 C   0  0  0  0  0  0  0  0  0  0  0  0
  -18.7477  -21.7204   21.4443 C   0  0  0  0  0  0  0  0  0  0  0  0
  -28.2938  -14.8300   19.1619 C   0  0  0  0  0  0  0  0  0  0  0  0
  -26.1827  -23.0991   14.0935 C   0  0  0  0  0  0  0  0  0  0  0  0
  -21.4135  -18.8848   16.9236 C   0  0  0  0  0  0  0  0  0  0  0  0
  -21.7294  -19.4865   19.8016 C   0  0  0  0  0  0  0  0  0  0  0  0
  -25.5396  -23.3277   15.4589 C   0  0  0  0  0  0  0  0  0  0  0  0
  -31.4376  -16.4889   18.9584 C   0  0  0  0  0  0  0  0  0  0  0  0
  -25.9119  -22.2027   16.4194 C   0  0  0  0  0  0  0  0  0  0  0  0
  -31.1774  -17.8418   19.6246 C   0  0  0  0  0  0  0  0  0  0  0  0
  -30.2312  -16.0129   18.1510 C   0  0  0  0  0  0  0  0  0  0  0  0
  -28.7017  -17.3388   19.5552 C   0  0  0  0  0  0  0  0  0  0  0  0
  -25.3999  -20.8501   15.9097 C   0  0  1  0  0  0  0  0  0  0  0  0
  -21.9660  -20.2215   17.4086 C   0  0  1  0  0  0  0  0  0  0  0  0
  -29.8651  -17.8289   20.4328 C   0  0  2  0  0  0  0  0  0  0  0  0
  -17.1242  -23.1796   22.6820 C   0  0  0  0  0  0  0  0  0  0  0  0
  -23.4902  -22.8637   20.8808 C   0  0  0  0  0  0  0  0  0  0  0  0
  -21.7733  -23.4940   22.5905 C   0  0  0  0  0  0  0  0  0  0  0  0
  -21.7475  -24.5748   20.3424 C   0  0  0  0  0  0  0  0  0  0  0  0
  -22.0597  -10.8923   20.6963 C   0  0  0  0  0  0  0  0  0  0  0  0
  -20.8622  -12.4502   22.2339 C   0  0  0  0  0  0  0  0  0  0  0  0
  -16.4188  -20.2764   20.3262 C   0  0  0  0  0  0  0  0  0  0  0  0
  -23.4179  -12.4554   22.0963 C   0  0  0  0  0  0  0  0  0  0  0  0
  -21.9557  -13.3470   20.1656 C   0  0  0  0  0  0  0  0  0  1  0  0
  -21.0255  -22.1622   20.5661 C   0  0  1  0  0  0  0  0  0  0  0  0
  -17.3446  -22.2994   21.4616 C   0  0  2  0  0  0  0  0  0  0  0  0
  -22.0109  -23.2469   21.0854 C   0  0  0  0  0  0  0  0  0  0  0  0
  -22.0830  -12.3126   21.3056 C   0  0  0  0  0  0  0  0  0  0  0  0
  -26.4072  -12.6314   19.9656 N   0  0  0  0  0  0  0  0  0  0  0  0
  -29.3851  -20.2412   20.2538 N   0  0  0  0  0  0  0  0  0  0  0  0
  -24.6435  -12.8381   21.2993 N   0  0  0  0  0  0  0  0  0  0  0  0
  -29.5761  -19.1811   21.0574 N   0  0  0  0  0  0  0  0  0  0  0  0
  -21.5636  -20.5348   18.7812 N   0  0  0  0  0  0  0  0  0  0  0  0
  -29.0255  -16.0229   18.9823 N   0  0  0  0  0  0  0  0  0  0  0  0
  -29.6452  -18.5232   23.3319 N   0  0  0  0  0  0  0  0  0  0  0  0
  -28.7510  -22.9445   23.5528 N   0  0  0  0  0  0  0  0  0  0  0  0
  -27.1852  -14.9540   19.9988 N   0  0  0  0  0  0  0  0  0  0  0  0
  -23.9812  -20.7184   16.1637 N   0  0  0  0  0  0  0  0  0  0  0  0
  -19.6173  -22.5102   20.7223 N   0  0  0  0  0  0  0  0  0  0  0  0
  -16.3329  -21.2053   21.4823 N   0  3  0  0  0  0  0  0  0  0  0  0
  -29.1136  -21.0536   24.7985 O   0  0  0  0  0  0  0  0  0  0  0  0
  -24.1108  -19.9481   18.3574 O   0  0  0  0  0  0  0  0  0  0  0  0
  -21.0791  -22.7576   18.2707 O   0  0  0  0  0  0  0  0  0  0  0  0
  -19.0437  -20.6741   22.0172 O   0  0  0  0  0  0  0  0  0  0  0  0
  -28.6416  -13.7698   18.6355 O   0  0  0  0  0  0  0  0  0  0  0  0
  -28.1717  -26.4075   19.2276 O   0  0  0  0  0  0  0  0  0  0  0  0
  -21.9790  -14.6792   20.6766 O   0  0  0  0  0  0  0  0  0  1  0  0
  -24.0185  -29.2153   21.5234 F   0  0  0  0  0  0  0  0  0  0  0  0
  -26.0430  -27.2919   17.7015 F   0  0  0  0  0  0  0  0  0  0  0  0
  1  2  1  0  0  0  0
  1  5  2  0  0  0  0
  2  6  2  0  0  0  0
  3  8  2  0  0  0  0
  3 17  1  0  0  0  0
  4  9  1  0  0  0  0
  4 17  2  0  0  0  0
  5 19  1  0  0  0  0
  6 21  1  0  0  0  0
  7 10  2  0  0  0  0
  7 20  1  0  0  0  0
  8 23  1  0  0  0  0
  9 23  2  0  0  0  0
 10 24  1  0  0  0  0
 11 12  2  0  0  0  0
 11 25  1  0  0  0  0
 12 26  1  0  0  0  0
 13 22  1  0  0  0  0
 13 24  2  0  0  0  0
 14 26  2  0  0  0  0
 14 27  1  0  0  0  0
 15 29  2  0  0  0  0
 15 63  1  0  0  0  0
 16 61  2  0  0  0  0
 16 63  1  0  0  0  0
 17 28  1  0  0  0  0
 18 28  1  0  0  0  0
 18 30  2  0  0  0  0
 18 31  1  0  0  0  0
 19 21  2  0  0  0  0
 19 36  1  0  0  0  0
 20 22  2  0  0  0  0
 20 37  1  0  0  0  0
 21 45  1  0  0  0  0
 22 38  1  0  0  0  0
 23 78  1  0  0  0  0
 24 79  1  0  0  0  0
 25 27  2  0  0  0  0
 25 78  1  0  0  0  0
 26 80  1  0  0  0  0
 27 81  1  0  0  0  0
 28 62  2  0  0  0  0
 29 61  1  0  0  0  0
 29 69  1  0  0  0  0
 30 64  1  0  0  0  0
 30 67  1  0  0  0  0
 31 68  1  0  0  0  0
 31 73  2  0  0  0  0
 32 46  1  0  0  0  0
 32 70  1  0  0  0  0
 32 74  2  0  0  0  0
 33 57  1  0  0  0  0
 33 65  1  0  0  0  0
 33 75  2  0  0  0  0
 34 58  1  0  0  0  0
 34 71  1  0  0  0  0
 34 76  2  0  0  0  0
 35 66  1  0  0  0  0
 35 69  1  0  0  0  0
 35 77  2  0  0  0  0
 36 39  1  0  0  0  0
 37 46  1  0  0  0  0
 38 65  1  0  0  0  0
 39 41  1  0  0  0  0
 40 42  1  0  0  0  0
 40 43  1  0  0  0  0
 41 45  1  0  0  0  0
 42 47  1  0  0  0  0
 43 66  1  0  0  0  0
 44 47  1  0  0  0  0
 44 66  1  0  0  0  0
 45 70  1  0  0  0  0
 46 65  1  0  0  0  0
 47 64  1  0  0  0  0
 48 58  1  0  0  0  0
 49 59  1  0  0  0  0
 50 59  1  0  0  0  0
 51 59  1  0  0  0  0
 52 60  1  0  0  0  0
 53 60  1  0  0  0  0
 54 72  1  0  0  0  0
 55 60  1  0  0  0  0
 55 63  1  0  0  0  0
 56 60  1  0  0  0  0
 56 79  1  0  0  0  0
 57 59  1  0  0  0  0
 57 71  1  0  0  0  0
 58 72  1  0  0  0  0
 62 64  1  0  0  0  0
M  CHG  1  72   1
M  ISO  4  35 100  56 101  69 100  79 101
M  END
> <Batch ID>
0055

> <Smiles>
CNC(C)C(=O)NC(C(=O)N1Cc2cc([101O:1][101CH2:1]C(C)(C)Cn3cnc([100NH:0][100C:0](=O)N4CCCC(n5nc(-c6ccc(Oc7ccc(F)cc7F)cc6)c(C(N)=O)c5N)C4)c3)ccc2CC1C(=O)NC1CCCc2ccccc21)C(C)(C)C

> <Shape>
0.160

> <Color>
0.074

> <Negative vol penalty>
0.000

$$$$

  -OEChem-04052317433D

 82 90  0     1  0  0  0  0  0999 V2000
  -16.9151  -25.7485   24.9730 C   0  0  0  0  0  0  0  0  0  0  0  0
  -17.6223  -24.7853   24.2606 C   0  0  0  0  0  0  0  0  0  0  0  0
  -28.4836  -14.0786   20.4724 C   0  0  0  0  0  0  0  0  0  0  0  0
  -27.8672  -13.5784   22.7542 C   0  0  0  0  0  0  0  0  0  0  0  0
  -17.1288  -27.1018   24.7144 C   0  0  0  0  0  0  0  0  0  0  0  0
  -18.5429  -25.1748   23.2884 C   0  0  0  0  0  0  0  0  0  0  0  0
  -23.8078  -22.3839   21.8750 C   0  0  0  0  0  0  0  0  0  0  0  0
  -27.5721  -13.1259   20.0173 C   0  0  0  0  0  0  0  0  0  0  0  0
  -26.9556  -12.6257   22.2992 C   0  0  0  0  0  0  0  0  0  0  0  0
  -24.1540  -21.4926   20.8604 C   0  0  0  0  0  0  0  0  0  0  0  0
  -23.8451  -12.5883   20.9787 C   0  0  0  0  0  0  0  0  0  0  0  0
  -22.5765  -12.5785   21.5585 C   0  0  0  0  0  0  0  0  0  0  0  0
  -24.9840  -23.3309   19.5371 C   0  0  0  0  0  0  0  0  0  0  0  0
  -22.9354  -10.3091   22.3057 C   0  0  0  0  0  0  0  0  0  0  0  0
  -28.6312  -14.3048   21.8409 C   0  0  0  0  0  0  0  0  0  0  0  0
  -30.9644  -15.3039   22.0975 C   0  0  0  0  0  0  0  0  0  0  0  0
  -18.0595  -27.5083   23.7453 C   0  0  0  0  0  0  0  0  0  0  0  0
  -24.0375  -23.7589   21.7236 C   0  0  0  0  0  0  0  0  0  0  0  0
  -18.7683  -26.5348   23.0157 C   0  0  0  0  0  0  0  0  0  0  0  0
  -24.6421  -24.2373   20.5524 C   0  0  0  0  0  0  0  0  0  0  0  0
  -26.8081  -12.3995   20.9307 C   0  0  0  0  0  0  0  0  0  0  0  0
  -24.7396  -21.9664   19.6900 C   0  0  0  0  0  0  0  0  0  0  0  0
  -24.6588  -11.4584   21.0624 C   0  0  0  0  0  0  0  0  0  0  0  0
  -22.1216  -11.4390   22.2220 C   0  0  0  0  0  0  0  0  0  0  0  0
  -24.2040  -10.3189   21.7259 C   0  0  0  0  0  0  0  0  0  0  0  0
  -29.5731  -15.2884   22.3116 C   0  0  0  0  0  0  0  0  0  0  0  0
  -31.3986  -16.4356   22.7435 C   0  0  0  0  0  0  0  0  0  0  0  0
  -28.4335  -19.8872   19.3555 C   0  0  0  0  0  0  0  0  0  0  0  0
  -29.3694  -20.8208   20.9710 C   0  0  0  0  0  0  0  0  0  0  0  0
  -31.7904  -14.3783   21.3788 C   0  0  0  0  0  0  0  0  0  0  0  0
  -22.1918  -26.3454   21.6386 C   0  0  0  0  0  0  0  0  0  0  0  0
  -25.0392  -27.8984   21.5852 C   0  0  0  0  0  0  0  0  0  0  0  0
  -28.3725  -27.8134   20.8579 C   0  0  0  0  0  0  0  0  0  0  0  0
  -28.1838  -21.4277   24.2541 C   0  0  0  0  0  0  0  0  0  0  0  0
  -18.2218  -28.9818   23.4678 C   0  0  0  0  0  0  0  0  0  0  0  0
  -23.6827  -24.7043   22.8385 C   0  0  0  0  0  0  0  0  0  0  0  0
  -24.9284  -25.7019   20.3489 C   0  0  0  0  0  0  0  0  0  0  0  0
  -19.4878  -29.3182   22.6839 C   0  0  0  0  0  0  0  0  0  0  0  0
  -30.3304  -19.3142   26.4051 C   0  0  0  0  0  0  0  0  0  0  0  0
  -19.6498  -28.3706   21.4996 C   0  0  0  0  0  0  0  0  0  0  0  0
  -30.4324  -18.0180   25.6029 C   0  0  0  0  0  0  0  0  0  0  0  0
  -29.0262  -20.0543   26.1237 C   0  0  0  0  0  0  0  0  0  0  0  0
  -28.8887  -19.0289   23.8779 C   0  0  0  0  0  0  0  0  0  0  0  0
  -19.7934  -26.9183   21.9706 C   0  0  1  0  0  0  0  0  0  0  0  0
  -23.4914  -26.1418   22.3648 C   0  0  1  0  0  0  0  0  0  0  0  0
  -30.2120  -18.2822   24.1033 C   0  0  2  0  0  0  0  0  0  0  0  0
  -30.7520  -28.6025   20.7451 C   0  0  0  0  0  0  0  0  0  0  0  0
  -24.0576  -29.3521   19.0886 C   0  0  0  0  0  0  0  0  0  0  0  0
  -26.4268  -30.0195   18.6306 C   0  0  0  0  0  0  0  0  0  0  0  0
  -25.2959  -30.7925   20.7153 C   0  0  0  0  0  0  0  0  0  0  0  0
  -31.6817  -20.8890   19.9651 C   0  0  0  0  0  0  0  0  0  0  0  0
  -27.9275  -23.1476   22.5060 C   0  0  0  0  0  0  0  0  0  0  0  0
  -28.9873  -26.7096   23.5342 C   0  0  0  0  0  0  0  0  0  0  0  0
  -27.3506  -19.2670   18.5092 C   0  0  0  0  0  0  0  0  0  0  0  0
  -29.7208  -21.4739   22.2446 C   0  0  0  0  0  0  0  0  0  0  0  0
  -26.8565  -20.1736   17.3798 C   0  0  0  0  0  0  0  0  0  0  0  0
  -26.1916  -21.4514   17.8783 C   0  0  0  0  0  0  0  0  0  1  0  0
  -25.9807  -28.3681   20.5026 C   0  0  1  0  0  0  0  0  0  0  0  0
  -29.5892  -28.2437   21.6572 C   0  0  2  0  0  0  0  0  0  0  0  0
  -25.4332  -29.6056   19.7370 C   0  0  0  0  0  0  0  0  0  0  0  0
  -29.1514  -16.3275   23.0371 N   0  0  0  0  0  0  0  0  0  0  0  0
  -28.1861  -20.3888   20.6012 N   0  0  0  0  0  0  0  0  0  0  0  0
  -29.6955  -19.9815   18.9313 N   0  0  0  0  0  0  0  0  0  0  0  0
  -30.2844  -17.0066   23.2845 N   0  0  0  0  0  0  0  0  0  0  0  0
  -30.2730  -20.5821   19.9829 N   0  0  0  0  0  0  0  0  0  0  0  0
  -24.5575  -26.5871   21.4653 N   0  0  0  0  0  0  0  0  0  0  0  0
  -28.8209  -20.2538   24.6887 N   0  0  0  0  0  0  0  0  0  0  0  0
  -32.6209  -16.9879   22.8959 N   0  0  0  0  0  0  0  0  0  0  0  0
  -32.3414  -13.2942   22.0755 N   0  0  0  0  0  0  0  0  0  0  0  0
  -21.1329  -26.6766   22.4623 N   0  0  0  0  0  0  0  0  0  0  0  0
  -27.2697  -28.5879   21.1497 N   0  0  0  0  0  0  0  0  0  0  0  0
  -28.5517  -21.9267   22.9954 N   0  0  0  0  0  0  0  0  0  0  0  0
  -30.0262  -27.1466   22.5663 N   0  3  0  0  0  0  0  0  0  0  0  0
  -32.0460  -14.5178   20.1587 O   0  0  0  0  0  0  0  0  0  0  0  0
  -22.1530  -26.2135   20.4209 O   0  0  0  0  0  0  0  0  0  0  0  0
  -24.7478  -28.6642   22.5073 O   0  0  0  0  0  0  0  0  0  0  0  0
  -28.3988  -26.8856   20.0522 O   0  0  0  0  0  0  0  0  0  0  0  0
  -27.3415  -22.0026   24.9555 O   0  0  0  0  0  0  0  0  0  0  0  0
  -25.9184  -11.4699   20.4869 O   0  0  0  0  0  0  0  0  0  0  0  0
  -25.0779  -21.0987   18.6978 O   0  0  0  0  0  0  0  0  0  1  0  0
  -20.9040  -11.4303   22.7800 F   0  0  0  0  0  0  0  0  0  0  0  0
  -24.9817   -9.2309   21.8105 F   0  0  0  0  0  0  0  0  0  0  0  0
  1  2  1  0  0  0  0
  1  5  2  0  0  0  0
  2  6  2  0  0  0  0
  3  8  2  0  0  0  0
  3 15  1  0  0  0  0
  4  9  1  0  0  0  0
  4 15  2  0  0  0  0
  5 17  1  0  0  0  0
  6 19  1  0  0  0  0
  7 10  2  0  0  0  0
  7 18  1  0  0  0  0
  8 21  1  0  0  0  0
  9 21  2  0  0  0  0
 10 22  1  0  0  0  0
 11 12  2  0  0  0  0
 11 23  1  0  0  0  0
 12 24  1  0  0  0  0
 13 20  1  0  0  0  0
 13 22  2  0  0  0  0
 14 24  2  0  0  0  0
 14 25  1  0  0  0  0
 15 26  1  0  0  0  0
 16 26  1  0  0  0  0
 16 27  2  0  0  0  0
 16 30  1  0  0  0  0
 17 19  2  0  0  0  0
 17 35  1  0  0  0  0
 18 20  2  0  0  0  0
 18 36  1  0  0  0  0
 19 44  1  0  0  0  0
 20 37  1  0  0  0  0
 21 79  1  0  0  0  0
 22 80  1  0  0  0  0
 23 25  2  0  0  0  0
 23 79  1  0  0  0  0
 24 81  1  0  0  0  0
 25 82  1  0  0  0  0
 26 61  2  0  0  0  0
 27 64  1  0  0  0  0
 27 68  1  0  0  0  0
 28 54  1  0  0  0  0
 28 62  1  0  0  0  0
 28 63  2  0  0  0  0
 29 55  1  0  0  0  0
 29 62  2  0  0  0  0
 29 65  1  0  0  0  0
 30 69  1  0  0  0  0
 30 74  2  0  0  0  0
 31 45  1  0  0  0  0
 31 70  1  0  0  0  0
 31 75  2  0  0  0  0
 32 58  1  0  0  0  0
 32 66  1  0  0  0  0
 32 76  2  0  0  0  0
 33 59  1  0  0  0  0
 33 71  1  0  0  0  0
 33 77  2  0  0  0  0
 34 67  1  0  0  0  0
 34 72  1  0  0  0  0
 34 78  2  0  0  0  0
 35 38  1  0  0  0  0
 36 45  1  0  0  0  0
 37 66  1  0  0  0  0
 38 40  1  0  0  0  0
 39 41  1  0  0  0  0
 39 42  1  0  0  0  0
 40 44  1  0  0  0  0
 41 46  1  0  0  0  0
 42 67  1  0  0  0  0
 43 46  1  0  0  0  0
 43 67  1  0  0  0  0
 44 70  1  0  0  0  0
 45 66  1  0  0  0  0
 46 64  1  0  0  0  0
 47 59  1  0  0  0  0
 48 60  1  0  0  0  0
 49 60  1  0  0  0  0
 50 60  1  0  0  0  0
 51 65  1  0  0  0  0
 52 72  1  0  0  0  0
 53 73  1  0  0  0  0
 54 56  1  0  0  0  0
 55 72  1  0  0  0  0
 56 57  1  0  0  0  0
 57 80  1  0  0  0  0
 58 60  1  0  0  0  0
 58 71  1  0  0  0  0
 59 73  1  0  0  0  0
 61 64  1  0  0  0  0
 63 65  1  0  0  0  0
M  CHG  1  73   1
M  ISO  4  34 100  57 101  72 100  80 101
M  END
> <Batch ID>
0055

> <Smiles>
CNC(C)C(=O)NC(C(=O)N1Cc2cc([101O:1][101CH2:1]CCc3nc(C[100N:0](C)[100C:0](=O)N4CCCC(n5nc(-c6ccc(Oc7ccc(F)cc7F)cc6)c(C(N)=O)c5N)C4)n(C)n3)ccc2CC1C(=O)NC1CCCc2ccccc21)C(C)(C)C

> <Shape>
0.231

> <Color>
0.082

> <Negative vol penalty>
0.000

$$$$

  -OEChem-04052317433D

 83 91  0     1  0  0  0  0  0999 V2000
  -25.8526  -35.4778   22.9463 C   0  0  0  0  0  0  0  0  0  0  0  0
  -26.4251  -34.2229   22.7648 C   0  0  0  0  0  0  0  0  0  0  0  0
  -24.4483  -15.7353   19.6463 C   0  0  0  0  0  0  0  0  0  0  0  0
  -26.4544  -15.0359   20.7967 C   0  0  0  0  0  0  0  0  0  0  0  0
  -24.5516  -35.5851   23.4359 C   0  0  0  0  0  0  0  0  0  0  0  0
  -25.6971  -33.0745   23.0738 C   0  0  0  0  0  0  0  0  0  0  0  0
  -26.0936  -29.5039   19.5047 C   0  0  0  0  0  0  0  0  0  0  0  0
  -24.6997  -14.8021   18.6406 C   0  0  0  0  0  0  0  0  0  0  0  0
  -26.7058  -14.1026   19.7910 C   0  0  0  0  0  0  0  0  0  0  0  0
  -27.2650  -28.7481   19.4875 C   0  0  0  0  0  0  0  0  0  0  0  0
  -25.6020  -11.0316   18.9126 C   0  0  0  0  0  0  0  0  0  0  0  0
  -25.9825   -9.7476   19.3025 C   0  0  0  0  0  0  0  0  0  0  0  0
  -26.1194  -26.9578   20.6285 C   0  0  0  0  0  0  0  0  0  0  0  0
  -28.0641   -9.9998   18.1023 C   0  0  0  0  0  0  0  0  0  0  0  0
  -25.3258  -15.8522   20.7244 C   0  0  0  0  0  0  0  0  0  0  0  0
  -24.3224  -16.6176   22.9414 C   0  0  0  0  0  0  0  0  0  0  0  0
  -23.8039  -34.4371   23.7420 C   0  0  0  0  0  0  0  0  0  0  0  0
  -24.9273  -28.9959   20.0945 C   0  0  0  0  0  0  0  0  0  0  0  0
  -24.3853  -33.1665   23.5692 C   0  0  0  0  0  0  0  0  0  0  0  0
  -24.9338  -27.7082   20.6495 C   0  0  0  0  0  0  0  0  0  0  0  0
  -25.8284  -13.9857   18.7129 C   0  0  0  0  0  0  0  0  0  0  0  0
  -27.2788  -27.4760   20.0521 C   0  0  0  0  0  0  0  0  0  0  0  0
  -26.4526  -11.7998   18.1175 C   0  0  0  0  0  0  0  0  0  0  0  0
  -27.2135   -9.2317   18.8974 C   0  0  0  0  0  0  0  0  0  0  0  0
  -27.6836  -11.2839   17.7124 C   0  0  0  0  0  0  0  0  0  0  0  0
  -25.0670  -16.8165   21.7633 C   0  0  0  0  0  0  0  0  0  0  0  0
  -24.3741  -17.8279   23.5887 C   0  0  0  0  0  0  0  0  0  0  0  0
  -29.5002  -19.1619   20.6680 C   0  0  0  0  0  0  0  0  0  0  0  0
  -29.4779  -21.2490   20.6956 C   0  0  0  0  0  0  0  0  0  0  0  0
  -23.6445  -15.4438   23.4088 C   0  0  0  0  0  0  0  0  0  0  0  0
  -23.0848  -29.8665   22.5340 C   0  0  0  0  0  0  0  0  0  0  0  0
  -21.2096  -27.4394   21.4780 C   0  0  0  0  0  0  0  0  0  0  0  0
  -28.3216  -22.3515   23.3292 C   0  0  0  0  0  0  0  0  0  0  0  0
  -20.9688  -24.5017   19.7579 C   0  0  0  0  0  0  0  0  0  0  0  0
  -22.4181  -34.6043   24.3133 C   0  0  0  0  0  0  0  0  0  0  0  0
  -23.6646  -29.8132   20.0810 C   0  0  0  0  0  0  0  0  0  0  0  0
  -23.7027  -27.1089   21.2769 C   0  0  0  0  0  0  0  0  0  0  0  0
  -21.5804  -33.3292   24.2625 C   0  0  0  0  0  0  0  0  0  0  0  0
  -24.7881  -22.5135   22.7566 C   0  0  0  0  0  0  0  0  0  0  0  0
  -22.3924  -32.1369   24.7583 C   0  0  0  0  0  0  0  0  0  0  0  0
  -24.3962  -21.0562   22.5158 C   0  0  0  0  0  0  0  0  0  0  0  0
  -26.1738  -22.8189   22.1966 C   0  0  0  0  0  0  0  0  0  0  0  0
  -26.8586  -20.4569   22.4679 C   0  0  0  0  0  0  0  0  0  0  0  0
  -23.6187  -31.8967   23.8696 C   0  0  1  0  0  0  0  0  0  0  0  0
  -22.6743  -29.4007   21.1657 C   0  0  1  0  0  0  0  0  0  0  0  0
  -25.4780  -20.0982   23.0454 C   0  0  2  0  0  0  0  0  0  0  0  0
  -29.4997  -17.7888   20.1499 C   0  0  0  0  0  0  0  0  0  0  0  0
  -19.3131  -22.7348   19.0991 C   0  0  0  0  0  0  0  0  0  0  0  0
  -30.7936  -22.4160   23.2413 C   0  0  0  0  0  0  0  0  0  0  0  0
  -29.5815  -20.6166   24.4734 C   0  0  0  0  0  0  0  0  0  0  0  0
  -21.2895  -26.3113   24.3119 C   0  0  0  0  0  0  0  0  0  0  0  0
  -20.4606  -24.1345   23.3939 C   0  0  0  0  0  0  0  0  0  0  0  0
  -19.0523  -26.1844   23.2012 C   0  0  0  0  0  0  0  0  0  0  0  0
  -21.3924  -25.0158   16.8743 C   0  0  0  0  0  0  0  0  0  0  0  0
  -29.4592  -24.7261   19.2373 C   0  0  0  0  0  0  0  0  0  0  0  0
  -29.4090  -23.2056   19.1488 C   0  0  0  0  0  0  0  0  0  0  0  0
  -28.2755  -25.3175   19.9937 C   0  0  0  0  0  0  0  0  0  1  0  0
  -21.1173  -25.9592   21.7599 C   0  0  1  0  0  0  0  0  0  0  0  0
  -19.9915  -24.0343   18.6945 C   0  0  2  0  0  0  0  0  0  0  0  0
  -29.5588  -21.4976   23.2097 C   0  0  0  0  0  0  0  0  0  0  0  0
  -20.5038  -25.6591   23.1567 C   0  0  0  0  0  0  0  0  0  0  0  0
  -25.5558  -18.0556   21.6653 N   0  0  0  0  0  0  0  0  0  0  0  0
  -29.4601  -20.2500   19.8440 N   0  0  0  0  0  0  0  0  0  0  0  0
  -29.5418  -19.4247   21.9759 N   0  0  0  0  0  0  0  0  0  0  0  0
  -25.1174  -18.6463   22.7899 N   0  0  0  0  0  0  0  0  0  0  0  0
  -29.5265  -20.7663   21.9662 N   0  0  0  0  0  0  0  0  0  0  0  0
  -22.4945  -27.9496   21.2448 N   0  0  0  0  0  0  0  0  0  0  0  0
  -27.1687  -21.8734   22.7059 N   0  0  0  0  0  0  0  0  0  0  0  0
  -23.8559  -18.2613   24.7574 N   0  0  0  0  0  0  0  0  0  0  0  0
  -23.6922  -14.2862   22.6202 N   0  0  0  0  0  0  0  0  0  0  0  0
  -29.4573  -22.6156   20.4648 N   0  0  0  0  0  0  0  0  0  0  0  0
  -23.2314  -31.2363   22.6415 N   0  0  0  0  0  0  0  0  0  0  0  0
  -20.3783  -25.3767   20.6451 N   0  0  0  0  0  0  0  0  0  0  0  0
  -20.6995  -23.8123   17.4020 N   0  3  0  0  0  0  0  0  0  0  0  0
  -23.0015  -15.4271   24.4857 O   0  0  0  0  0  0  0  0  0  0  0  0
  -23.2545  -29.0441   23.4265 O   0  0  0  0  0  0  0  0  0  0  0  0
  -20.1788  -28.1167   21.4582 O   0  0  0  0  0  0  0  0  0  0  0  0
  -28.3793  -23.4099   23.9606 O   0  0  0  0  0  0  0  0  0  0  0  0
  -22.1379  -24.1252   19.7998 O   0  0  0  0  0  0  0  0  0  0  0  0
  -26.0738  -13.0747   17.7319 O   0  0  0  0  0  0  0  0  0  0  0  0
  -28.4210  -26.7364   20.0373 O   0  0  0  0  0  0  0  0  0  1  0  0
  -27.5793   -7.9992   19.2732 F   0  0  0  0  0  0  0  0  0  0  0  0
  -28.5054  -12.0176   16.9495 F   0  0  0  0  0  0  0  0  0  0  0  0
  1  2  1  0  0  0  0
  1  5  2  0  0  0  0
  2  6  2  0  0  0  0
  3  8  2  0  0  0  0
  3 15  1  0  0  0  0
  4  9  1  0  0  0  0
  4 15  2  0  0  0  0
  5 17  1  0  0  0  0
  6 19  1  0  0  0  0
  7 10  2  0  0  0  0
  7 18  1  0  0  0  0
  8 21  1  0  0  0  0
  9 21  2  0  0  0  0
 10 22  1  0  0  0  0
 11 12  2  0  0  0  0
 11 23  1  0  0  0  0
 12 24  1  0  0  0  0
 13 20  1  0  0  0  0
 13 22  2  0  0  0  0
 14 24  2  0  0  0  0
 14 25  1  0  0  0  0
 15 26  1  0  0  0  0
 16 26  1  0  0  0  0
 16 27  2  0  0  0  0
 16 30  1  0  0  0  0
 17 19  2  0  0  0  0
 17 35  1  0  0  0  0
 18 20  2  0  0  0  0
 18 36  1  0  0  0  0
 19 44  1  0  0  0  0
 20 37  1  0  0  0  0
 21 80  1  0  0  0  0
 22 81  1  0  0  0  0
 23 25  2  0  0  0  0
 23 80  1  0  0  0  0
 24 82  1  0  0  0  0
 25 83  1  0  0  0  0
 26 62  2  0  0  0  0
 27 65  1  0  0  0  0
 27 69  1  0  0  0  0
 28 47  1  0  0  0  0
 28 63  1  0  0  0  0
 28 64  2  0  0  0  0
 29 63  2  0  0  0  0
 29 66  1  0  0  0  0
 29 71  1  0  0  0  0
 30 70  1  0  0  0  0
 30 75  2  0  0  0  0
 31 45  1  0  0  0  0
 31 72  1  0  0  0  0
 31 76  2  0  0  0  0
 32 58  1  0  0  0  0
 32 67  1  0  0  0  0
 32 77  2  0  0  0  0
 33 60  1  0  0  0  0
 33 68  1  0  0  0  0
 33 78  2  0  0  0  0
 34 59  1  0  0  0  0
 34 73  1  0  0  0  0
 34 79  2  0  0  0  0
 35 38  1  0  0  0  0
 36 45  1  0  0  0  0
 37 67  1  0  0  0  0
 38 40  1  0  0  0  0
 39 41  1  0  0  0  0
 39 42  1  0  0  0  0
 40 44  1  0  0  0  0
 41 46  1  0  0  0  0
 42 68  1  0  0  0  0
 43 46  1  0  0  0  0
 43 68  1  0  0  0  0
 44 72  1  0  0  0  0
 45 67  1  0  0  0  0
 46 65  1  0  0  0  0
 48 59  1  0  0  0  0
 49 60  1  0  0  0  0
 50 60  1  0  0  0  0
 51 61  1  0  0  0  0
 52 61  1  0  0  0  0
 53 61  1  0  0  0  0
 54 74  1  0  0  0  0
 55 56  1  0  0  0  0
 55 57  1  0  0  0  0
 56 71  1  0  0  0  0
 57 81  1  0  0  0  0
 58 61  1  0  0  0  0
 58 73  1  0  0  0  0
 59 74  1  0  0  0  0
 60 66  1  0  0  0  0
 62 65  1  0  0  0  0
 64 66  1  0  0  0  0
M  CHG  1  74   1
M  ISO  4  33 100  57 101  60 100  81 101
M  END
> <Batch ID>
0055

> <Smiles>
CNC(C)C(=O)NC(C(=O)N1Cc2cc([101O:1][101CH2:1]CCNc3nc(C)nn3[100C:0](C)(C)[100C:0](=O)N3CCCC(n4nc(-c5ccc(Oc6ccc(F)cc6F)cc5)c(C(N)=O)c4N)C3)ccc2CC1C(=O)NC1CCCc2ccccc21)C(C)(C)C

> <Shape>
0.218

> <Color>
0.073

> <Negative vol penalty>
0.000

$$$$

  -OEChem-04052317433D

 83 91  0     1  0  0  0  0  0999 V2000
  -36.7628  -30.3868   20.3619 C   0  0  0  0  0  0  0  0  0  0  0  0
  -36.4388  -29.0569   20.1132 C   0  0  0  0  0  0  0  0  0  0  0  0
  -23.0601   -9.8987   19.9465 C   0  0  0  0  0  0  0  0  0  0  0  0
  -23.7936   -9.9237   22.2483 C   0  0  0  0  0  0  0  0  0  0  0  0
  -37.1731  -30.7765   21.6361 C   0  0  0  0  0  0  0  0  0  0  0  0
  -36.5261  -28.1157   21.1384 C   0  0  0  0  0  0  0  0  0  0  0  0
  -32.5080  -25.0377   21.2972 C   0  0  0  0  0  0  0  0  0  0  0  0
  -22.3221   -8.7413   20.1942 C   0  0  0  0  0  0  0  0  0  0  0  0
  -23.0555   -8.7663   22.4961 C   0  0  0  0  0  0  0  0  0  0  0  0
  -32.4601  -24.0044   20.3625 C   0  0  0  0  0  0  0  0  0  0  0  0
  -23.3775   -5.4437   21.9601 C   0  0  0  0  0  0  0  0  0  0  0  0
  -23.9924   -4.4269   22.6907 C   0  0  0  0  0  0  0  0  0  0  0  0
  -33.2460  -22.4589   22.0397 C   0  0  0  0  0  0  0  0  0  0  0  0
  -22.2702   -4.5968   24.3766 C   0  0  0  0  0  0  0  0  0  0  0  0
  -31.4571  -18.5604   20.0886 C   0  0  0  0  0  0  0  0  0  0  0  0
  -23.7960  -10.4899   20.9735 C   0  0  0  0  0  0  0  0  0  0  0  0
  -24.1203  -13.0168   20.8437 C   0  0  0  0  0  0  0  0  0  0  0  0
  -37.2562  -29.8415   22.6799 C   0  0  0  0  0  0  0  0  0  0  0  0
  -32.9363  -24.7911   22.6095 C   0  0  0  0  0  0  0  0  0  0  0  0
  -36.9392  -28.4931   22.4274 C   0  0  0  0  0  0  0  0  0  0  0  0
  -33.2959  -23.4902   22.9899 C   0  0  0  0  0  0  0  0  0  0  0  0
  -30.5353  -18.0808   20.9868 C   0  0  0  0  0  0  0  0  0  0  0  0
  -22.3197   -8.1752   21.4689 C   0  0  0  0  0  0  0  0  0  0  0  0
  -32.8319  -22.7153   20.7328 C   0  0  0  0  0  0  0  0  0  0  0  0
  -22.2091   -6.0371   22.4379 C   0  0  0  0  0  0  0  0  0  0  0  0
  -23.4387   -4.0034   23.8989 C   0  0  0  0  0  0  0  0  0  0  0  0
  -21.6554   -5.6137   23.6461 C   0  0  0  0  0  0  0  0  0  0  0  0
  -24.5590  -11.6851   20.7181 C   0  0  0  0  0  0  0  0  0  0  0  0
  -29.3865  -18.8634   20.7638 C   0  0  0  0  0  0  0  0  0  0  0  0
  -25.2109  -13.7725   20.4889 C   0  0  0  0  0  0  0  0  0  0  0  0
  -22.8413  -13.5253   21.2452 C   0  0  0  0  0  0  0  0  0  0  0  0
  -35.3459  -25.8146   24.4123 C   0  0  0  0  0  0  0  0  0  0  0  0
  -33.8208  -24.1265   26.7246 C   0  0  0  0  0  0  0  0  0  0  0  0
  -31.6768  -21.5955   27.5270 C   0  0  0  0  0  0  0  0  0  0  0  0
  -30.6844  -14.8338   20.7344 C   0  0  0  0  0  0  0  0  0  0  0  0
  -37.7502  -30.3012   24.0287 C   0  0  0  0  0  0  0  0  0  0  0  0
  -32.9568  -25.9113   23.6131 C   0  0  0  0  0  0  0  0  0  0  0  0
  -33.7436  -23.1691   24.3916 C   0  0  0  0  0  0  0  0  0  0  0  0
  -37.4564  -29.3127   25.1542 C   0  0  0  0  0  0  0  0  0  0  0  0
  -29.5921  -12.4281   18.3478 C   0  0  0  0  0  0  0  0  0  0  0  0
  -37.8264  -27.8951   24.7298 C   0  0  0  0  0  0  0  0  0  0  0  0
  -28.1520  -12.1258   18.7658 C   0  0  0  0  0  0  0  0  0  0  0  0
  -30.4937  -12.6622   19.5578 C   0  0  0  0  0  0  0  0  0  0  0  0
  -28.5708  -13.3864   20.9186 C   0  0  0  0  0  0  0  0  0  0  0  0
  -36.9976  -27.4474   23.5198 C   0  0  1  0  0  0  0  0  0  0  0  0
  -33.8994  -25.6479   24.7833 C   0  0  1  0  0  0  0  0  0  0  0  0
  -27.6115  -13.1981   19.7309 C   0  0  2  0  0  0  0  0  0  0  0  0
  -30.6552  -20.4306   29.5011 C   0  0  0  0  0  0  0  0  0  0  0  0
  -36.4577  -22.6773   27.2310 C   0  0  0  0  0  0  0  0  0  0  0  0
  -35.1767  -20.9317   28.4880 C   0  0  0  0  0  0  0  0  0  0  0  0
  -35.1909  -23.2910   29.2981 C   0  0  0  0  0  0  0  0  0  0  0  0
  -28.9351  -22.3293   26.6882 C   0  0  0  0  0  0  0  0  0  0  0  0
  -30.7200  -16.9914   21.9602 C   0  0  0  0  0  0  0  0  0  0  0  0
  -31.4234  -20.4077   18.3089 C   0  0  0  0  0  0  0  0  0  0  0  0
  -31.8046  -21.8030   18.7916 C   0  0  0  0  0  0  0  0  0  1  0  0
  -33.8760  -22.7017   27.2206 C   0  0  1  0  0  0  0  0  0  0  0  0
  -30.4923  -21.5411   28.4750 C   0  0  2  0  0  0  0  0  0  0  0  0
  -28.0879  -18.7787   21.4547 C   0  0  0  0  0  0  0  0  0  0  0  0
  -35.1688  -22.4066   28.0324 C   0  0  0  0  0  0  0  0  0  0  0  0
  -25.8293  -11.5965   20.3149 N   0  0  0  0  0  0  0  0  0  0  0  0
  -29.5603  -19.7713   19.7997 N   0  0  0  0  0  0  0  0  0  0  0  0
  -30.8290  -19.5623   19.4089 N   0  0  0  0  0  0  0  0  0  0  0  0
  -26.1981  -12.8822   20.1839 N   0  0  0  0  0  0  0  0  0  0  0  0
  -33.7527  -24.2994   25.3349 N   0  0  0  0  0  0  0  0  0  0  0  0
  -29.9253  -13.6913   20.4319 N   0  0  0  0  0  0  0  0  0  0  0  0
  -25.4122  -15.1051   20.4110 N   0  0  0  0  0  0  0  0  0  0  0  0
  -21.8324  -12.6104   21.5759 N   0  0  0  0  0  0  0  0  0  0  0  0
  -35.6625  -27.0713   23.9328 N   0  0  0  0  0  0  0  0  0  0  0  0
  -32.6402  -22.4800   27.9636 N   0  0  0  0  0  0  0  0  0  0  0  0
  -30.0687  -15.7626   21.5644 N   0  0  0  0  0  0  0  0  0  0  0  0
  -29.2325  -21.2992   27.7165 N   0  3  0  0  0  0  0  0  0  0  0  0
  -22.5952  -14.7544   21.2932 O   0  0  0  0  0  0  0  0  0  0  0  0
  -36.1178  -24.8732   24.5521 O   0  0  0  0  0  0  0  0  0  0  0  0
  -33.8302  -25.0517   27.5404 O   0  0  0  0  0  0  0  0  0  0  0  0
  -31.7425  -20.9180   26.5037 O   0  0  0  0  0  0  0  0  0  0  0  0
  -31.8241  -15.0154   20.2928 O   0  0  0  0  0  0  0  0  0  0  0  0
  -21.5994   -7.0459   21.7111 O   0  0  0  0  0  0  0  0  0  0  0  0
  -32.7867  -21.7050   19.8223 O   0  0  0  0  0  0  0  0  0  1  0  0
  -24.0284   -3.0259   24.5995 F   0  0  0  0  0  0  0  0  0  0  0  0
  -20.5324   -6.1792   24.1096 F   0  0  0  0  0  0  0  0  0  0  0  0
  -28.0263  -17.8097   22.4260 F   0  0  0  0  0  0  0  0  0  0  0  0
  -27.7159  -19.9316   22.1013 F   0  0  0  0  0  0  0  0  0  0  0  0
  -27.0421  -18.4967   20.6127 F   0  0  0  0  0  0  0  0  0  0  0  0
  1  2  1  0  0  0  0
  1  5  2  0  0  0  0
  2  6  2  0  0  0  0
  3  8  2  0  0  0  0
  3 16  1  0  0  0  0
  4  9  1  0  0  0  0
  4 16  2  0  0  0  0
  5 18  1  0  0  0  0
  6 20  1  0  0  0  0
  7 10  2  0  0  0  0
  7 19  1  0  0  0  0
  8 23  1  0  0  0  0
  9 23  2  0  0  0  0
 10 24  1  0  0  0  0
 11 12  2  0  0  0  0
 11 25  1  0  0  0  0
 12 26  1  0  0  0  0
 13 21  1  0  0  0  0
 13 24  2  0  0  0  0
 14 26  2  0  0  0  0
 14 27  1  0  0  0  0
 15 22  2  0  0  0  0
 15 62  1  0  0  0  0
 16 28  1  0  0  0  0
 17 28  1  0  0  0  0
 17 30  2  0  0  0  0
 17 31  1  0  0  0  0
 18 20  2  0  0  0  0
 18 36  1  0  0  0  0
 19 21  2  0  0  0  0
 19 37  1  0  0  0  0
 20 45  1  0  0  0  0
 21 38  1  0  0  0  0
 22 29  1  0  0  0  0
 22 53  1  0  0  0  0
 23 77  1  0  0  0  0
 24 78  1  0  0  0  0
 25 27  2  0  0  0  0
 25 77  1  0  0  0  0
 26 79  1  0  0  0  0
 27 80  1  0  0  0  0
 28 60  2  0  0  0  0
 29 58  1  0  0  0  0
 29 61  2  0  0  0  0
 30 63  1  0  0  0  0
 30 66  1  0  0  0  0
 31 67  1  0  0  0  0
 31 72  2  0  0  0  0
 32 46  1  0  0  0  0
 32 68  1  0  0  0  0
 32 73  2  0  0  0  0
 33 56  1  0  0  0  0
 33 64  1  0  0  0  0
 33 74  2  0  0  0  0
 34 57  1  0  0  0  0
 34 69  1  0  0  0  0
 34 75  2  0  0  0  0
 35 65  1  0  0  0  0
 35 70  1  0  0  0  0
 35 76  2  0  0  0  0
 36 39  1  0  0  0  0
 37 46  1  0  0  0  0
 38 64  1  0  0  0  0
 39 41  1  0  0  0  0
 40 42  1  0  0  0  0
 40 43  1  0  0  0  0
 41 45  1  0  0  0  0
 42 47  1  0  0  0  0
 43 65  1  0  0  0  0
 44 47  1  0  0  0  0
 44 65  1  0  0  0  0
 45 68  1  0  0  0  0
 46 64  1  0  0  0  0
 47 63  1  0  0  0  0
 48 57  1  0  0  0  0
 49 59  1  0  0  0  0
 50 59  1  0  0  0  0
 51 59  1  0  0  0  0
 52 71  1  0  0  0  0
 53 70  1  0  0  0  0
 54 55  1  0  0  0  0
 54 62  1  0  0  0  0
 55 78  1  0  0  0  0
 56 59  1  0  0  0  0
 56 69  1  0  0  0  0
 57 71  1  0  0  0  0
 58 81  1  0  0  0  0
 58 82  1  0  0  0  0
 58 83  1  0  0  0  0
 60 63  1  0  0  0  0
 61 62  1  0  0  0  0
M  CHG  1  71   1
M  ISO  4  35 100  55 101  70 100  78 101
M  END
> <Batch ID>
0055

> <Smiles>
CNC(C)C(=O)NC(C(=O)N1Cc2cc([101O:1][101CH2:1]Cn3cc(C[100NH:0][100C:0](=O)N4CCCC(n5nc(-c6ccc(Oc7ccc(F)cc7F)cc6)c(C(N)=O)c5N)C4)c(C(F)(F)F)n3)ccc2CC1C(=O)NC1CCCc2ccccc21)C(C)(C)C

> <Shape>
0.199

> <Color>
0.216

> <Negative vol penalty>
0.000

$$$$

  -OEChem-04052317433D

 90 98  0     1  0  0  0  0  0999 V2000
  -23.0989  -10.3507   18.7645 C   0  0  0  0  0  0  0  0  0  0  0  0
  -22.3162  -11.4594   19.0703 C   0  0  0  0  0  0  0  0  0  0  0  0
  -24.0824  -29.1183   24.4492 C   0  0  0  0  0  0  0  0  0  0  0  0
  -24.5063  -30.8499   22.8185 C   0  0  0  0  0  0  0  0  0  0  0  0
  -24.4173  -10.2843   19.2132 C   0  0  0  0  0  0  0  0  0  0  0  0
  -22.8512  -12.5020   19.8261 C   0  0  0  0  0  0  0  0  0  0  0  0
  -22.4704  -19.6152   20.5834 C   0  0  0  0  0  0  0  0  0  0  0  0
  -28.6316  -24.9866   22.6892 C   0  0  0  0  0  0  0  0  0  0  0  0
  -22.7241  -29.1543   24.1343 C   0  0  0  0  0  0  0  0  0  0  0  0
  -23.1480  -30.8858   22.5036 C   0  0  0  0  0  0  0  0  0  0  0  0
  -22.2680  -20.5846   21.5648 C   0  0  0  0  0  0  0  0  0  0  0  0
  -20.7007  -27.9770   21.6944 C   0  0  0  0  0  0  0  0  0  0  0  0
  -20.0428  -26.7592   21.5220 C   0  0  0  0  0  0  0  0  0  0  0  0
  -27.4517  -24.4373   23.1786 C   0  0  0  0  0  0  0  0  0  0  0  0
  -24.5824  -20.3969   22.2189 C   0  0  0  0  0  0  0  0  0  0  0  0
  -18.5389  -27.3158   23.3291 C   0  0  0  0  0  0  0  0  0  0  0  0
  -24.9736  -29.9662   23.7913 C   0  0  0  0  0  0  0  0  0  0  0  0
  -26.9658  -30.1839   25.3698 C   0  0  0  0  0  0  0  0  0  0  0  0
  -24.9717  -11.3310   19.9666 C   0  0  0  0  0  0  0  0  0  0  0  0
  -23.7297  -19.0206   20.4193 C   0  0  0  0  0  0  0  0  0  0  0  0
  -24.1779  -12.4490   20.2864 C   0  0  0  0  0  0  0  0  0  0  0  0
  -24.7988  -19.4221   21.2330 C   0  0  0  0  0  0  0  0  0  0  0  0
  -29.6664  -25.2911   23.5665 C   0  0  0  0  0  0  0  0  0  0  0  0
  -22.2568  -30.0380   23.1615 C   0  0  0  0  0  0  0  0  0  0  0  0
  -23.3233  -20.9735   22.3846 C   0  0  0  0  0  0  0  0  0  0  0  0
  -20.2778  -28.8642   22.6843 C   0  0  0  0  0  0  0  0  0  0  0  0
  -18.9619  -26.4286   22.3393 C   0  0  0  0  0  0  0  0  0  0  0  0
  -19.1968  -28.5336   23.5016 C   0  0  0  0  0  0  0  0  0  0  0  0
  -26.3768  -29.9299   24.1166 C   0  0  0  0  0  0  0  0  0  0  0  0
  -27.3574  -24.2136   24.5427 C   0  0  0  0  0  0  0  0  0  0  0  0
  -29.4729  -25.0294   24.9133 C   0  0  0  0  0  0  0  0  0  0  0  0
  -28.3127  -30.0219   25.1552 C   0  0  0  0  0  0  0  0  0  0  0  0
  -26.3504  -30.5347   26.6163 C   0  0  0  0  0  0  0  0  0  0  0  0
  -24.8616  -16.0604   20.6643 C   0  0  0  0  0  0  0  0  0  0  0  0
  -27.5781  -17.4221   19.5290 C   0  0  0  0  0  0  0  0  0  0  0  0
  -29.4610  -20.2413   19.1377 C   0  0  0  0  0  0  0  0  0  0  0  0
  -31.1075  -26.8528   20.7186 C   0  0  0  0  0  0  0  0  0  0  0  0
  -26.3868  -11.1928   20.4697 C   0  0  0  0  0  0  0  0  0  0  0  0
  -23.9383  -17.9957   19.3383 C   0  0  0  0  0  0  0  0  0  0  0  0
  -26.1752  -18.8290   21.0839 C   0  0  0  0  0  0  0  0  0  0  0  0
  -26.9947  -12.5091   20.9473 C   0  0  0  0  0  0  0  0  0  0  0  0
  -31.6415  -30.3690   21.7444 C   0  0  0  0  0  0  0  0  0  0  0  0
  -26.0128  -13.2561   21.8444 C   0  0  0  0  0  0  0  0  0  0  0  0
  -30.3619  -30.6891   22.5152 C   0  0  0  0  0  0  0  0  0  0  0  0
  -31.4099  -29.3019   20.6789 C   0  0  0  0  0  0  0  0  0  0  0  0
  -29.5211  -28.3695   21.9739 C   0  0  0  0  0  0  0  0  0  0  0  0
  -24.7301  -13.6113   21.0828 C   0  0  1  0  0  0  0  0  0  0  0  0
  -25.1345  -17.0858   19.6004 C   0  0  1  0  0  0  0  0  0  0  0  0
  -29.7305  -29.4077   23.0865 C   0  0  2  0  0  0  0  0  0  0  0  0
  -31.6510  -21.0335   18.2030 C   0  0  0  0  0  0  0  0  0  0  0  0
  -29.0330  -16.2231   21.9281 C   0  0  0  0  0  0  0  0  0  0  0  0
  -30.9305  -17.7918   21.4731 C   0  0  0  0  0  0  0  0  0  0  0  0
  -30.2897  -16.0852   19.7703 C   0  0  0  0  0  0  0  0  0  0  0  0
  -31.4024  -24.4355   21.1053 C   0  0  0  0  0  0  0  0  0  0  0  0
  -28.1199  -22.0591   17.2256 C   0  0  0  0  0  0  0  0  0  0  0  0
  -23.7014  -25.4066   22.0306 C   0  0  0  0  0  0  0  0  0  0  0  0
  -30.9323  -25.8810   23.0483 C   0  0  0  0  0  0  0  0  0  0  0  0
  -26.0930  -23.6174   25.1078 C   0  0  0  0  0  0  0  0  0  0  0  0
  -25.0437  -24.6596   25.5167 C   0  0  0  0  0  0  0  0  0  0  0  0
  -24.5082  -25.5291   24.3833 C   0  0  0  0  0  0  0  0  0  0  0  0
  -22.4865  -24.1851   23.8289 C   0  0  0  0  0  0  0  0  0  0  0  0
  -22.1361  -22.9114   23.0853 C   0  0  0  0  0  0  0  0  0  1  0  0
  -28.7850  -18.0807   20.1522 C   0  0  1  0  0  0  0  0  0  0  0  0
  -30.1712  -20.8182   17.9264 C   0  0  2  0  0  0  0  0  0  0  0  0
  -30.5511  -25.3332   25.9013 C   0  0  0  0  0  0  0  0  0  0  0  0
  -29.7332  -17.0552   20.8353 C   0  0  0  0  0  0  0  0  0  0  0  0
  -27.2759  -29.6296   23.1756 N   0  0  0  0  0  0  0  0  0  0  0  0
  -28.3411  -24.4965   25.4258 N   0  0  0  0  0  0  0  0  0  0  0  0
  -28.4435  -29.6940   23.8378 N   0  0  0  0  0  0  0  0  0  0  0  0
  -26.3273  -17.8261   20.0168 N   0  0  0  0  0  0  0  0  0  0  0  0
  -30.7696  -28.1122   21.2407 N   0  0  0  0  0  0  0  0  0  0  0  0
  -29.3861  -30.1296   25.9668 N   0  0  0  0  0  0  0  0  0  0  0  0
  -26.1612  -31.8921   26.9094 N   0  0  0  0  0  0  0  0  0  0  0  0
  -24.9527  -14.7541   20.2232 N   0  0  0  0  0  0  0  0  0  0  0  0
  -29.4144  -18.8640   19.0944 N   0  0  0  0  0  0  0  0  0  0  0  0
  -31.0501  -25.7600   21.5968 N   0  0  0  0  0  0  0  0  0  0  0  0
  -29.5686  -22.1275   17.5475 N   0  3  0  0  0  0  0  0  0  0  0  0
  -23.8005  -24.6853   23.3520 N   0  3  1  0  0  0  0  0  0  0  0  0
  -25.9941  -29.6705   27.4529 O   0  0  0  0  0  0  0  0  0  0  0  0
  -24.5901  -16.4273   21.8016 O   0  0  0  0  0  0  0  0  0  0  0  0
  -27.7389  -16.5853   18.6370 O   0  0  0  0  0  0  0  0  0  0  0  0
  -28.9975  -20.9423   20.0346 O   0  0  0  0  0  0  0  0  0  0  0  0
  -31.4506  -26.7146   19.5374 O   0  0  0  0  0  0  0  0  0  0  0  0
  -20.9315  -30.0731   22.8537 O   0  0  0  0  0  0  0  0  0  0  0  0
  -23.1284  -21.9190   23.3438 O   0  0  0  0  0  0  0  0  0  1  0  0
  -18.3293  -25.2598   22.1725 F   0  0  0  0  0  0  0  0  0  0  0  0
  -18.7852  -29.3823   24.4534 F   0  0  0  0  0  0  0  0  0  0  0  0
  -31.6738  -25.8662   25.3366 F   0  0  0  0  0  0  0  0  0  0  0  0
  -30.1740  -26.2276   26.8610 F   0  0  0  0  0  0  0  0  0  0  0  0
  -30.9697  -24.2240   26.5760 F   0  0  0  0  0  0  0  0  0  0  0  0
  1  2  1  0  0  0  0
  1  5  2  0  0  0  0
  2  6  2  0  0  0  0
  3  9  2  0  0  0  0
  3 17  1  0  0  0  0
  4 10  1  0  0  0  0
  4 17  2  0  0  0  0
  5 19  1  0  0  0  0
  6 21  1  0  0  0  0
  7 11  2  0  0  0  0
  7 20  1  0  0  0  0
  8 14  2  0  0  0  0
  8 23  1  0  0  0  0
  9 24  1  0  0  0  0
 10 24  2  0  0  0  0
 11 25  1  0  0  0  0
 12 13  2  0  0  0  0
 12 26  1  0  0  0  0
 13 27  1  0  0  0  0
 14 30  1  0  0  0  0
 15 22  1  0  0  0  0
 15 25  2  0  0  0  0
 16 27  2  0  0  0  0
 16 28  1  0  0  0  0
 17 29  1  0  0  0  0
 18 29  1  0  0  0  0
 18 32  2  0  0  0  0
 18 33  1  0  0  0  0
 19 21  2  0  0  0  0
 19 38  1  0  0  0  0
 20 22  2  0  0  0  0
 20 39  1  0  0  0  0
 21 47  1  0  0  0  0
 22 40  1  0  0  0  0
 23 31  2  0  0  0  0
 23 57  1  0  0  0  0
 24 84  1  0  0  0  0
 25 85  1  0  0  0  0
 26 28  2  0  0  0  0
 26 84  1  0  0  0  0
 27 86  1  0  0  0  0
 28 87  1  0  0  0  0
 29 67  2  0  0  0  0
 30 58  1  0  0  0  0
 30 68  2  0  0  0  0
 31 65  1  0  0  0  0
 31 68  1  0  0  0  0
 32 69  1  0  0  0  0
 32 72  1  0  0  0  0
 33 73  1  0  0  0  0
 33 79  2  0  0  0  0
 34 48  1  0  0  0  0
 34 74  1  0  0  0  0
 34 80  2  0  0  0  0
 35 63  1  0  0  0  0
 35 70  1  0  0  0  0
 35 81  2  0  0  0  0
 36 64  1  0  0  0  0
 36 75  1  0  0  0  0
 36 82  2  0  0  0  0
 37 71  1  0  0  0  0
 37 76  1  0  0  0  0
 37 83  2  0  0  0  0
 38 41  1  0  0  0  0
 39 48  1  0  0  0  0
 40 70  1  0  0  0  0
 41 43  1  0  0  0  0
 42 44  1  0  0  0  0
 42 45  1  0  0  0  0
 43 47  1  0  0  0  0
 44 49  1  0  0  0  0
 45 71  1  0  0  0  0
 46 49  1  0  0  0  0
 46 71  1  0  0  0  0
 47 74  1  0  0  0  0
 48 70  1  0  0  0  0
 49 69  1  0  0  0  0
 50 64  1  0  0  0  0
 51 66  1  0  0  0  0
 52 66  1  0  0  0  0
 53 66  1  0  0  0  0
 54 76  1  0  0  0  0
 55 77  1  0  0  0  0
 56 78  1  0  0  0  0
 57 76  1  0  0  0  0
 58 59  1  0  0  0  0
 59 60  1  0  0  0  0
 60 78  1  0  0  0  0
 61 62  1  0  0  0  0
 61 78  1  0  0  0  0
 62 85  1  0  0  0  0
 63 66  1  0  0  0  0
 63 75  1  0  0  0  0
 64 77  1  0  0  0  0
 65 88  1  0  0  0  0
 65 89  1  0  0  0  0
 65 90  1  0  0  0  0
 67 69  1  0  0  0  0
M  CHG  2  77   1  78   1
M  ISO  4  37 100  62 101  76 100  85 101
M  END
> <Batch ID>
0055

> <Smiles>
CNC(C)C(=O)NC(C(=O)N1Cc2cc([101O:1][101CH2:1]CN(C)CCCc3ccc(C[100N:0](C)[100C:0](=O)N4CCCC(n5nc(-c6ccc(Oc7ccc(F)cc7F)cc6)c(C(N)=O)c5N)C4)c(C(F)(F)F)n3)ccc2CC1C(=O)NC1CCCc2ccccc21)C(C)(C)C

> <Shape>
0.228

> <Color>
0.061

> <Negative vol penalty>
0.000

$$$$

  -OEChem-04052317433D

 85 93  0     1  0  0  0  0  0999 V2000
  -28.6792  -33.1550   25.2380 C   0  0  0  0  0  0  0  0  0  0  0  0
  -28.6829  -31.9271   24.5841 C   0  0  0  0  0  0  0  0  0  0  0  0
  -24.8731  -14.5572   22.6834 C   0  0  0  0  0  0  0  0  0  0  0  0
  -26.5211  -15.2074   21.0407 C   0  0  0  0  0  0  0  0  0  0  0  0
  -27.4985  -33.6425   25.7967 C   0  0  0  0  0  0  0  0  0  0  0  0
  -27.5059  -31.1854   24.4894 C   0  0  0  0  0  0  0  0  0  0  0  0
  -26.7704  -29.2922   19.8504 C   0  0  0  0  0  0  0  0  0  0  0  0
  -31.1091  -23.3664   17.1799 C   0  0  0  0  0  0  0  0  0  0  0  0
  -24.9171  -13.2463   22.2088 C   0  0  0  0  0  0  0  0  0  0  0  0
  -26.5652  -13.8965   20.5661 C   0  0  0  0  0  0  0  0  0  0  0  0
  -27.5040  -28.1592   19.5014 C   0  0  0  0  0  0  0  0  0  0  0  0
  -23.6630  -11.4982   19.6019 C   0  0  0  0  0  0  0  0  0  0  0  0
  -22.4493  -10.8391   19.4072 C   0  0  0  0  0  0  0  0  0  0  0  0
  -30.5716  -24.6108   17.4892 C   0  0  0  0  0  0  0  0  0  0  0  0
  -25.5817  -26.7784   19.9675 C   0  0  0  0  0  0  0  0  0  0  0  0
  -23.1138   -9.1456   20.9970 C   0  0  0  0  0  0  0  0  0  0  0  0
  -25.6751  -15.5377   22.0994 C   0  0  0  0  0  0  0  0  0  0  0  0
  -26.4224  -17.4552   23.6068 C   0  0  0  0  0  0  0  0  0  0  0  0
  -26.3043  -32.9108   25.7004 C   0  0  0  0  0  0  0  0  0  0  0  0
  -25.4380  -29.1756   20.2717 C   0  0  0  0  0  0  0  0  0  0  0  0
  -26.3083  -31.6629   25.0485 C   0  0  0  0  0  0  0  0  0  0  0  0
  -24.8326  -27.9117   20.3188 C   0  0  0  0  0  0  0  0  0  0  0  0
  -30.6456  -22.2322   17.8372 C   0  0  0  0  0  0  0  0  0  0  0  0
  -25.7632  -12.9159   21.1502 C   0  0  0  0  0  0  0  0  0  0  0  0
  -26.9106  -26.9017   19.5627 C   0  0  0  0  0  0  0  0  0  0  0  0
  -24.6023  -10.9809   20.4941 C   0  0  0  0  0  0  0  0  0  0  0  0
  -22.1746   -9.6629   20.1048 C   0  0  0  0  0  0  0  0  0  0  0  0
  -24.3276   -9.8047   21.1917 C   0  0  0  0  0  0  0  0  0  0  0  0
  -25.6296  -16.8922   22.5888 C   0  0  0  0  0  0  0  0  0  0  0  0
  -29.5804  -24.6671   18.4558 C   0  0  0  0  0  0  0  0  0  0  0  0
  -29.6513  -22.3949   18.7884 C   0  0  0  0  0  0  0  0  0  0  0  0
  -25.9959  -18.7580   23.6932 C   0  0  0  0  0  0  0  0  0  0  0  0
  -27.4524  -16.8545   24.4030 C   0  0  0  0  0  0  0  0  0  0  0  0
  -23.8642  -29.8546   22.9486 C   0  0  0  0  0  0  0  0  0  0  0  0
  -21.2764  -29.0288   21.1756 C   0  0  0  0  0  0  0  0  0  0  0  0
  -20.0183  -27.2960   18.5183 C   0  0  0  0  0  0  0  0  0  0  0  0
  -23.1090  -22.1083   19.4530 C   0  0  0  0  0  0  0  0  0  0  0  0
  -25.0632  -33.4566   26.3611 C   0  0  0  0  0  0  0  0  0  0  0  0
  -24.6521  -30.4101   20.6191 C   0  0  0  0  0  0  0  0  0  0  0  0
  -23.3989  -27.7346   20.7451 C   0  0  0  0  0  0  0  0  0  0  0  0
  -23.7765  -32.7830   25.8912 C   0  0  0  0  0  0  0  0  0  0  0  0
  -22.1536  -21.5077   22.9783 C   0  0  0  0  0  0  0  0  0  0  0  0
  -23.9418  -31.2666   25.8782 C   0  0  0  0  0  0  0  0  0  0  0  0
  -22.9568  -20.2574   23.3327 C   0  0  0  0  0  0  0  0  0  0  0  0
  -21.8244  -21.5673   21.4898 C   0  0  0  0  0  0  0  0  0  0  0  0
  -23.8186  -20.2052   20.9589 C   0  0  0  0  0  0  0  0  0  0  0  0
  -25.0463  -30.8404   24.9035 C   0  0  1  0  0  0  0  0  0  0  0  0
  -23.4598  -30.1237   21.5267 C   0  0  1  0  0  0  0  0  0  0  0  0
  -24.2068  -20.1380   22.4436 C   0  0  2  0  0  0  0  0  0  0  0  0
  -31.2184  -20.8965   17.5110 C   0  0  0  0  0  0  0  0  0  0  0  0
  -17.8605  -26.7836   17.3441 C   0  0  0  0  0  0  0  0  0  0  0  0
  -20.5352  -27.0725   23.3967 C   0  0  0  0  0  0  0  0  0  0  0  0
  -18.9767  -25.9488   21.7915 C   0  0  0  0  0  0  0  0  0  0  0  0
  -18.6037  -28.3317   22.4281 C   0  0  0  0  0  0  0  0  0  0  0  0
  -24.5273  -23.2258   17.7740 C   0  0  0  0  0  0  0  0  0  0  0  0
  -20.9574  -28.5402   16.0026 C   0  0  0  0  0  0  0  0  0  0  0  0
  -27.5941  -20.5438   21.3808 C   0  0  0  0  0  0  0  0  0  0  0  0
  -29.1127  -21.2118   19.5239 C   0  0  0  0  0  0  0  0  0  0  0  0
  -28.9768  -25.9934   18.8133 C   0  0  0  0  0  0  0  0  0  1  0  0
  -25.5828  -22.4470   19.8632 C   0  0  0  0  0  0  0  0  0  0  0  0
  -26.6537  -21.5330   19.2977 C   0  0  0  0  0  0  0  0  0  0  0  0
  -20.5328  -27.7435   20.9036 C   0  0  1  0  0  0  0  0  0  0  0  0
  -19.0683  -27.7055   17.4074 C   0  0  2  0  0  0  0  0  0  0  0  0
  -19.6897  -27.2769   22.1238 C   0  0  0  0  0  0  0  0  0  0  0  0
  -24.7648  -17.7656   22.0662 N   0  0  0  0  0  0  0  0  0  0  0  0
  -29.1047  -23.5873   19.1157 N   0  0  0  0  0  0  0  0  0  0  0  0
  -25.0116  -18.8907   22.7584 N   0  0  0  0  0  0  0  0  0  0  0  0
  -22.6741  -28.9713   21.0809 N   0  0  0  0  0  0  0  0  0  0  0  0
  -23.0243  -21.4081   20.6676 N   0  0  0  0  0  0  0  0  0  0  0  0
  -26.3704  -19.7914   24.4769 N   0  0  0  0  0  0  0  0  0  0  0  0
  -27.7651  -15.5059   24.1840 N   0  0  0  0  0  0  0  0  0  0  0  0
  -24.5637  -30.8892   23.5400 N   0  0  0  0  0  0  0  0  0  0  0  0
  -19.7541  -27.9712   19.6911 N   0  0  0  0  0  0  0  0  0  0  0  0
  -24.3890  -22.4879   19.0215 N   0  0  0  0  0  0  0  0  0  0  0  0
  -19.7627  -27.6614   16.0895 N   0  3  0  0  0  0  0  0  0  0  0  0
  -27.8348  -21.4913   20.2334 N   0  3  1  0  0  0  0  0  0  0  0  0
  -28.0656  -17.4901   25.2937 O   0  0  0  0  0  0  0  0  0  0  0  0
  -23.5626  -28.7879   23.4710 O   0  0  0  0  0  0  0  0  0  0  0  0
  -20.6401  -30.0481   21.4546 O   0  0  0  0  0  0  0  0  0  0  0  0
  -20.9037  -26.4580   18.3624 O   0  0  0  0  0  0  0  0  0  0  0  0
  -22.0973  -22.3871   18.7967 O   0  0  0  0  0  0  0  0  0  0  0  0
  -25.8066  -11.6369   20.6869 O   0  0  0  0  0  0  0  0  0  0  0  0
  -27.6246  -25.7941   19.2233 O   0  0  0  0  0  0  0  0  0  1  0  0
  -21.0083   -9.0309   19.9189 F   0  0  0  0  0  0  0  0  0  0  0  0
  -25.2255   -9.3036   22.0510 F   0  0  0  0  0  0  0  0  0  0  0  0
  1  2  1  0  0  0  0
  1  5  2  0  0  0  0
  2  6  2  0  0  0  0
  3  9  2  0  0  0  0
  3 17  1  0  0  0  0
  4 10  1  0  0  0  0
  4 17  2  0  0  0  0
  5 19  1  0  0  0  0
  6 21  1  0  0  0  0
  7 11  2  0  0  0  0
  7 20  1  0  0  0  0
  8 14  2  0  0  0  0
  8 23  1  0  0  0  0
  9 24  1  0  0  0  0
 10 24  2  0  0  0  0
 11 25  1  0  0  0  0
 12 13  2  0  0  0  0
 12 26  1  0  0  0  0
 13 27  1  0  0  0  0
 14 30  1  0  0  0  0
 15 22  1  0  0  0  0
 15 25  2  0  0  0  0
 16 27  2  0  0  0  0
 16 28  1  0  0  0  0
 17 29  1  0  0  0  0
 18 29  1  0  0  0  0
 18 32  2  0  0  0  0
 18 33  1  0  0  0  0
 19 21  2  0  0  0  0
 19 38  1  0  0  0  0
 20 22  2  0  0  0  0
 20 39  1  0  0  0  0
 21 47  1  0  0  0  0
 22 40  1  0  0  0  0
 23 31  2  0  0  0  0
 23 50  1  0  0  0  0
 24 82  1  0  0  0  0
 25 83  1  0  0  0  0
 26 28  2  0  0  0  0
 26 82  1  0  0  0  0
 27 84  1  0  0  0  0
 28 85  1  0  0  0  0
 29 65  2  0  0  0  0
 30 59  1  0  0  0  0
 30 66  2  0  0  0  0
 31 58  1  0  0  0  0
 31 66  1  0  0  0  0
 32 67  1  0  0  0  0
 32 70  1  0  0  0  0
 33 71  1  0  0  0  0
 33 77  2  0  0  0  0
 34 48  1  0  0  0  0
 34 72  1  0  0  0  0
 34 78  2  0  0  0  0
 35 62  1  0  0  0  0
 35 68  1  0  0  0  0
 35 79  2  0  0  0  0
 36 63  1  0  0  0  0
 36 73  1  0  0  0  0
 36 80  2  0  0  0  0
 37 69  1  0  0  0  0
 37 74  1  0  0  0  0
 37 81  2  0  0  0  0
 38 41  1  0  0  0  0
 39 48  1  0  0  0  0
 40 68  1  0  0  0  0
 41 43  1  0  0  0  0
 42 44  1  0  0  0  0
 42 45  1  0  0  0  0
 43 47  1  0  0  0  0
 44 49  1  0  0  0  0
 45 69  1  0  0  0  0
 46 49  1  0  0  0  0
 46 69  1  0  0  0  0
 47 72  1  0  0  0  0
 48 68  1  0  0  0  0
 49 67  1  0  0  0  0
 51 63  1  0  0  0  0
 52 64  1  0  0  0  0
 53 64  1  0  0  0  0
 54 64  1  0  0  0  0
 55 74  1  0  0  0  0
 56 75  1  0  0  0  0
 57 76  1  0  0  0  0
 58 76  1  0  0  0  0
 59 83  1  0  0  0  0
 60 61  1  0  0  0  0
 60 74  1  0  0  0  0
 61 76  1  0  0  0  0
 62 64  1  0  0  0  0
 62 73  1  0  0  0  0
 63 75  1  0  0  0  0
 65 67  1  0  0  0  0
M  CHG  2  75   1  76   1
M  ISO  4  37 100  59 101  74 100  83 101
M  END
> <Batch ID>
0055

> <Smiles>
CNC(C)C(=O)NC(C(=O)N1Cc2cc([101O:1][101CH2:1]c3ccc(C)c(CN(C)CC[100N:0](C)[100C:0](=O)N4CCCC(n5nc(-c6ccc(Oc7ccc(F)cc7F)cc6)c(C(N)=O)c5N)C4)n3)ccc2CC1C(=O)NC1CCCc2ccccc21)C(C)(C)C

> <Shape>
0.272

> <Color>
0.076

> <Negative vol penalty>
0.000

$$$$

  -OEChem-04052317433D

 84 92  0     1  0  0  0  0  0999 V2000
  -18.1324  -25.3584   22.4901 C   0  0  0  0  0  0  0  0  0  0  0  0
  -19.4503  -25.0971   22.1291 C   0  0  0  0  0  0  0  0  0  0  0  0
  -27.0436  -14.0660   23.2090 C   0  0  0  0  0  0  0  0  0  0  0  0
  -25.6452  -14.4515   21.2769 C   0  0  0  0  0  0  0  0  0  0  0  0
  -17.6410  -26.6620   22.4349 C   0  0  0  0  0  0  0  0  0  0  0  0
  -20.2773  -26.1393   21.7115 C   0  0  0  0  0  0  0  0  0  0  0  0
  -26.2925  -26.6951   22.7185 C   0  0  0  0  0  0  0  0  0  0  0  0
  -26.2103  -13.0193   23.6033 C   0  0  0  0  0  0  0  0  0  0  0  0
  -24.8119  -13.4047   21.6712 C   0  0  0  0  0  0  0  0  0  0  0  0
  -27.4058  -26.4140   21.9277 C   0  0  0  0  0  0  0  0  0  0  0  0
  -24.8271  -10.0277   21.5437 C   0  0  0  0  0  0  0  0  0  0  0  0
  -24.4208   -9.1209   20.5649 C   0  0  0  0  0  0  0  0  0  0  0  0
  -27.4921  -28.7242   21.2386 C   0  0  0  0  0  0  0  0  0  0  0  0
  -22.1127   -9.6919   20.9939 C   0  0  0  0  0  0  0  0  0  0  0  0
  -28.1310  -24.0752   16.4091 C   0  0  0  0  0  0  0  0  0  0  0  0
  -26.7610  -14.7822   22.0458 C   0  0  0  0  0  0  0  0  0  0  0  0
  -28.7517  -15.7828   20.8035 C   0  0  0  0  0  0  0  0  0  0  0  0
  -18.4653  -27.7221   22.0257 C   0  0  0  0  0  0  0  0  0  0  0  0
  -25.7631  -27.9928   22.7668 C   0  0  0  0  0  0  0  0  0  0  0  0
  -19.7961  -27.4582   21.6495 C   0  0  0  0  0  0  0  0  0  0  0  0
  -26.3736  -29.0197   22.0328 C   0  0  0  0  0  0  0  0  0  0  0  0
  -25.0944  -12.6886   22.8344 C   0  0  0  0  0  0  0  0  0  0  0  0
  -28.0041  -27.4280   21.1854 C   0  0  0  0  0  0  0  0  0  0  0  0
  -23.8762  -10.7666   22.2478 C   0  0  0  0  0  0  0  0  0  0  0  0
  -23.0636   -8.9529   20.2899 C   0  0  0  0  0  0  0  0  0  0  0  0
  -22.5191  -10.5987   21.9728 C   0  0  0  0  0  0  0  0  0  0  0  0
  -27.6211  -15.8639   21.6382 C   0  0  0  0  0  0  0  0  0  0  0  0
  -26.9390  -23.3980   16.2510 C   0  0  0  0  0  0  0  0  0  0  0  0
  -28.7889  -23.8553   17.6020 C   0  0  0  0  0  0  0  0  0  0  0  0
  -29.2142  -17.0737   20.7253 C   0  0  0  0  0  0  0  0  0  0  0  0
  -27.1556  -22.4365   18.2994 C   0  0  0  0  0  0  0  0  0  0  0  0
  -29.3320  -14.6424   20.1565 C   0  0  0  0  0  0  0  0  0  0  0  0
  -22.9761  -29.3088   21.9894 C   0  0  0  0  0  0  0  0  0  0  0  0
  -24.2908  -31.9507   23.3363 C   0  0  0  0  0  0  0  0  0  0  0  0
  -27.1137  -33.6544   24.2167 C   0  0  0  0  0  0  0  0  0  0  0  0
  -26.1460  -22.2837   21.7153 C   0  0  0  0  0  0  0  0  0  0  0  0
  -17.8757  -29.1075   21.9369 C   0  0  0  0  0  0  0  0  0  0  0  0
  -24.5779  -28.2853   23.6455 C   0  0  0  0  0  0  0  0  0  0  0  0
  -25.8562  -30.4338   22.0660 C   0  0  0  0  0  0  0  0  0  0  0  0
  -18.9258  -30.2114   21.8418 C   0  0  0  0  0  0  0  0  0  0  0  0
  -29.3554  -21.1686   23.1843 C   0  0  0  0  0  0  0  0  0  0  0  0
  -19.9915  -29.8473   20.8130 C   0  0  0  0  0  0  0  0  0  0  0  0
  -29.3270  -19.6606   22.9409 C   0  0  0  0  0  0  0  0  0  0  0  0
  -27.9502  -21.7490   23.3123 C   0  0  0  0  0  0  0  0  0  0  0  0
  -27.0323  -19.9244   21.9186 C   0  0  0  0  0  0  0  0  0  0  0  0
  -20.7314  -28.5657   21.2150 C   0  0  1  0  0  0  0  0  0  0  0  0
  -23.8110  -29.5330   23.2184 C   0  0  1  0  0  0  0  0  0  0  0  0
  -28.4310  -19.3157   21.7386 C   0  0  2  0  0  0  0  0  0  0  0  0
  -26.1558  -23.5719   14.9930 C   0  0  0  0  0  0  0  0  0  0  0  0
  -25.7883  -20.3689   18.7656 C   0  0  0  0  0  0  0  0  0  0  0  0
  -27.8702  -35.8044   25.2669 C   0  0  0  0  0  0  0  0  0  0  0  0
  -23.6386  -33.4389   20.7537 C   0  0  0  0  0  0  0  0  0  0  0  0
  -25.2235  -35.2388   21.4726 C   0  0  0  0  0  0  0  0  0  0  0  0
  -23.2016  -34.7384   22.8453 C   0  0  0  0  0  0  0  0  0  0  0  0
  -24.8496  -23.1799   19.8190 C   0  0  0  0  0  0  0  0  0  0  0  0
  -28.4679  -32.2316   26.4305 C   0  0  0  0  0  0  0  0  0  0  0  0
  -30.1009  -24.5501   17.8656 C   0  0  0  0  0  0  0  0  0  0  0  0
  -29.9510  -25.9096   18.5517 C   0  0  0  0  0  0  0  0  0  0  0  0
  -29.1887  -25.8400   19.8698 C   0  0  0  0  0  0  0  0  0  1  0  0
  -26.6162  -21.5237   19.3481 C   0  0  2  0  0  0  0  0  0  0  0  0
  -25.1288  -33.1020   22.8350 C   0  0  1  0  0  0  0  0  0  0  0  0
  -27.5111  -34.3464   25.5081 C   0  0  2  0  0  0  0  0  0  0  0  0
  -24.3069  -34.1025   21.9743 C   0  0  0  0  0  0  0  0  0  0  0  0
  -27.3800  -17.1080   22.0603 N   0  0  0  0  0  0  0  0  0  0  0  0
  -26.4198  -22.5677   17.1791 N   0  0  0  0  0  0  0  0  0  0  0  0
  -28.3282  -23.0396   18.5729 N   0  0  0  0  0  0  0  0  0  0  0  0
  -28.3657  -17.8205   21.4885 N   0  0  0  0  0  0  0  0  0  0  0  0
  -24.6913  -30.6684   22.9353 N   0  0  0  0  0  0  0  0  0  0  0  0
  -27.1073  -21.3700   22.1778 N   0  0  0  0  0  0  0  0  0  0  0  0
  -30.2598  -17.6315   20.0788 N   0  0  0  0  0  0  0  0  0  0  0  0
  -28.7304  -13.3904   20.3431 N   0  0  0  0  0  0  0  0  0  0  0  0
  -21.7009  -28.8461   22.2523 N   0  0  0  0  0  0  0  0  0  0  0  0
  -25.7507  -33.6974   24.0127 N   0  0  0  0  0  0  0  0  0  0  0  0
  -25.8319  -22.2446   20.3484 N   0  0  0  0  0  0  0  0  0  0  0  0
  -28.6888  -33.6672   26.1186 N   0  3  0  0  0  0  0  0  0  0  0  0
  -30.3634  -14.7285   19.4476 O   0  0  0  0  0  0  0  0  0  0  0  0
  -23.4531  -29.5400   20.8846 O   0  0  0  0  0  0  0  0  0  0  0  0
  -23.3208  -32.1803   24.0630 O   0  0  0  0  0  0  0  0  0  0  0  0
  -27.9311  -33.1315   23.4624 O   0  0  0  0  0  0  0  0  0  0  0  0
  -25.6065  -23.0948   22.4788 O   0  0  0  0  0  0  0  0  0  0  0  0
  -24.2812  -11.6670   23.2187 O   0  0  0  0  0  0  0  0  0  0  0  0
  -29.0905  -27.1562   20.4123 O   0  0  0  0  0  0  0  0  0  1  0  0
  -22.6737   -8.0832   19.3488 F   0  0  0  0  0  0  0  0  0  0  0  0
  -21.6010  -11.3065   22.6450 F   0  0  0  0  0  0  0  0  0  0  0  0
  1  2  1  0  0  0  0
  1  5  2  0  0  0  0
  2  6  2  0  0  0  0
  3  8  2  0  0  0  0
  3 16  1  0  0  0  0
  4  9  1  0  0  0  0
  4 16  2  0  0  0  0
  5 18  1  0  0  0  0
  6 20  1  0  0  0  0
  7 10  2  0  0  0  0
  7 19  1  0  0  0  0
  8 22  1  0  0  0  0
  9 22  2  0  0  0  0
 10 23  1  0  0  0  0
 11 12  2  0  0  0  0
 11 24  1  0  0  0  0
 12 25  1  0  0  0  0
 13 21  1  0  0  0  0
 13 23  2  0  0  0  0
 14 25  2  0  0  0  0
 14 26  1  0  0  0  0
 15 28  2  0  0  0  0
 15 29  1  0  0  0  0
 16 27  1  0  0  0  0
 17 27  1  0  0  0  0
 17 30  2  0  0  0  0
 17 32  1  0  0  0  0
 18 20  2  0  0  0  0
 18 37  1  0  0  0  0
 19 21  2  0  0  0  0
 19 38  1  0  0  0  0
 20 46  1  0  0  0  0
 21 39  1  0  0  0  0
 22 81  1  0  0  0  0
 23 82  1  0  0  0  0
 24 26  2  0  0  0  0
 24 81  1  0  0  0  0
 25 83  1  0  0  0  0
 26 84  1  0  0  0  0
 27 64  2  0  0  0  0
 28 49  1  0  0  0  0
 28 65  1  0  0  0  0
 29 57  1  0  0  0  0
 29 66  2  0  0  0  0
 30 67  1  0  0  0  0
 30 70  1  0  0  0  0
 31 60  1  0  0  0  0
 31 65  2  0  0  0  0
 31 66  1  0  0  0  0
 32 71  1  0  0  0  0
 32 76  2  0  0  0  0
 33 47  1  0  0  0  0
 33 72  1  0  0  0  0
 33 77  2  0  0  0  0
 34 61  1  0  0  0  0
 34 68  1  0  0  0  0
 34 78  2  0  0  0  0
 35 62  1  0  0  0  0
 35 73  1  0  0  0  0
 35 79  2  0  0  0  0
 36 69  1  0  0  0  0
 36 74  1  0  0  0  0
 36 80  2  0  0  0  0
 37 40  1  0  0  0  0
 38 47  1  0  0  0  0
 39 68  1  0  0  0  0
 40 42  1  0  0  0  0
 41 43  1  0  0  0  0
 41 44  1  0  0  0  0
 42 46  1  0  0  0  0
 43 48  1  0  0  0  0
 44 69  1  0  0  0  0
 45 48  1  0  0  0  0
 45 69  1  0  0  0  0
 46 72  1  0  0  0  0
 47 68  1  0  0  0  0
 48 67  1  0  0  0  0
 50 60  1  0  0  0  0
 51 62  1  0  0  0  0
 52 63  1  0  0  0  0
 53 63  1  0  0  0  0
 54 63  1  0  0  0  0
 55 74  1  0  0  0  0
 56 75  1  0  0  0  0
 57 58  1  0  0  0  0
 58 59  1  0  0  0  0
 59 82  1  0  0  0  0
 60 74  1  0  0  0  0
 61 63  1  0  0  0  0
 61 73  1  0  0  0  0
 62 75  1  0  0  0  0
 64 67  1  0  0  0  0
M  CHG  1  75   1
M  ISO  4  36 100  59 101  74 100  82 101
M  END
> <Batch ID>
0055

> <Smiles>
CNC(C)C(=O)NC(C(=O)N1Cc2cc([101O:1][101CH2:1]CCc3cc(C)nc(C(C)[100N:0](C)[100C:0](=O)N4CCCC(n5nc(-c6ccc(Oc7ccc(F)cc7F)cc6)c(C(N)=O)c5N)C4)n3)ccc2CC1C(=O)NC1CCCc2ccccc21)C(C)(C)C

> <Shape>
0.271

> <Color>
0.111

> <Negative vol penalty>
0.000

$$$$

  -OEChem-04052317433D

 77 85  0     1  0  0  0  0  0999 V2000
  -17.4071  -25.9869   21.9299 C   0  0  0  0  0  0  0  0  0  0  0  0
  -18.7196  -25.5573   21.7623 C   0  0  0  0  0  0  0  0  0  0  0  0
  -24.6780  -14.1547   20.3991 C   0  0  0  0  0  0  0  0  0  0  0  0
  -26.4066  -12.4968   20.7159 C   0  0  0  0  0  0  0  0  0  0  0  0
  -17.1503  -27.2883   22.3592 C   0  0  0  0  0  0  0  0  0  0  0  0
  -19.7761  -26.4293   22.0227 C   0  0  0  0  0  0  0  0  0  0  0  0
  -23.4832  -24.2463   24.6943 C   0  0  0  0  0  0  0  0  0  0  0  0
  -23.7691  -13.1460   20.0793 C   0  0  0  0  0  0  0  0  0  0  0  0
  -25.4977  -11.4881   20.3962 C   0  0  0  0  0  0  0  0  0  0  0  0
  -24.3560  -23.4065   24.0039 C   0  0  0  0  0  0  0  0  0  0  0  0
  -22.9918   -9.8178   21.9295 C   0  0  0  0  0  0  0  0  0  0  0  0
  -22.9748   -8.6823   22.7394 C   0  0  0  0  0  0  0  0  0  0  0  0
  -25.9803  -25.1872   23.9035 C   0  0  0  0  0  0  0  0  0  0  0  0
  -23.5248   -7.3108   20.8279 C   0  0  0  0  0  0  0  0  0  0  0  0
  -28.7706  -22.4423   20.4608 C   0  0  0  0  0  0  0  0  0  0  0  0
  -25.9967  -13.8301   20.7173 C   0  0  0  0  0  0  0  0  0  0  0  0
  -27.2076  -15.3984   22.3241 C   0  0  0  0  0  0  0  0  0  0  0  0
  -18.2043  -28.1737   22.6343 C   0  0  0  0  0  0  0  0  0  0  0  0
  -23.8487  -25.5684   24.9854 C   0  0  0  0  0  0  0  0  0  0  0  0
  -19.5331  -27.7442   22.4548 C   0  0  0  0  0  0  0  0  0  0  0  0
  -25.1113  -26.0409   24.6000 C   0  0  0  0  0  0  0  0  0  0  0  0
  -24.1790  -11.8127   20.0779 C   0  0  0  0  0  0  0  0  0  0  0  0
  -25.6036  -23.8778   23.6058 C   0  0  0  0  0  0  0  0  0  0  0  0
  -23.2752   -9.6998   20.5688 C   0  0  0  0  0  0  0  0  0  0  0  0
  -23.2413   -7.4288   22.1886 C   0  0  0  0  0  0  0  0  0  0  0  0
  -23.5417   -8.4463   20.0180 C   0  0  0  0  0  0  0  0  0  0  0  0
  -26.9361  -14.8716   21.0472 C   0  0  0  0  0  0  0  0  0  0  0  0
  -29.5440  -21.2696   20.3695 C   0  0  0  0  0  0  0  0  0  0  0  0
  -28.4987  -22.5707   21.8010 C   0  0  0  0  0  0  0  0  0  0  0  0
  -28.1674  -16.3558   22.1036 C   0  0  0  0  0  0  0  0  0  0  0  0
  -26.6427  -15.0532   23.5959 C   0  0  0  0  0  0  0  0  0  0  0  0
  -30.1078  -20.6637   19.1562 C   0  0  0  0  0  0  0  0  0  0  0  0
  -22.7134  -28.4331   24.2053 C   0  0  0  0  0  0  0  0  0  0  0  0
  -24.9672  -29.4652   26.2976 C   0  0  0  0  0  0  0  0  0  0  0  0
  -27.9190  -28.8697   27.9035 C   0  0  0  0  0  0  0  0  0  0  0  0
  -17.8764  -29.5857   23.0507 C   0  0  0  0  0  0  0  0  0  0  0  0
  -22.9063  -26.4534   25.7544 C   0  0  0  0  0  0  0  0  0  0  0  0
  -25.5596  -27.4459   24.9059 C   0  0  0  0  0  0  0  0  0  0  0  0
  -19.0593  -30.3298   23.6651 C   0  0  0  0  0  0  0  0  0  0  0  0
  -30.9225  -17.3897   17.9905 C   0  0  0  0  0  0  0  0  0  0  0  0
  -20.3122  -30.1332   22.8175 C   0  0  0  0  0  0  0  0  0  0  0  0
  -29.9677  -16.4847   18.7711 C   0  0  0  0  0  0  0  0  0  0  0  0
  -30.2701  -18.7230   17.6339 C   0  0  0  0  0  0  0  0  0  0  0  0
  -28.7442  -18.5501   19.5695 C   0  0  0  0  0  0  0  0  0  0  0  0
  -20.7065  -28.6528   22.7510 C   0  0  1  0  0  0  0  0  0  0  0  0
  -23.1788  -27.9400   25.5462 C   0  0  1  0  0  0  0  0  0  0  0  0
  -29.3799  -17.2157   19.9928 C   0  0  1  0  0  0  0  0  0  0  0  0
  -29.5262  -29.9144   29.5229 C   0  0  0  0  0  0  0  0  0  0  0  0
  -26.0044  -31.2929   24.0853 C   0  0  0  0  0  0  0  0  0  0  0  0
  -28.1129  -31.5777   25.4050 C   0  0  0  0  0  0  0  0  0  0  0  0
  -25.9359  -32.3386   26.3561 C   0  0  0  0  0  0  0  0  0  0  0  0
  -29.1037  -21.2000   23.8185 C   0  0  0  0  0  0  0  0  0  0  0  0
  -27.5458  -26.6836   29.8633 C   0  0  0  0  0  0  0  0  0  0  0  0
  -27.7194  -23.6087   22.5538 C   0  0  0  0  0  0  0  0  0  1  0  0
  -26.4199  -29.8624   26.1942 C   0  0  1  0  0  0  0  0  0  0  0  0
  -28.3175  -29.0056   29.3619 C   0  0  2  0  0  0  0  0  0  0  0  0
  -26.6094  -31.2420   25.5025 C   0  0  0  0  0  0  0  0  0  0  0  0
  -27.6645  -15.4468   20.0866 N   0  0  0  0  0  0  0  0  0  0  0  0
  -29.7502  -20.6940   21.5569 N   0  0  0  0  0  0  0  0  0  0  0  0
  -29.1023  -21.5084   22.4073 N   0  0  0  0  0  0  0  0  0  0  0  0
  -28.4031  -16.3449   20.7603 N   0  0  0  0  0  0  0  0  0  0  0  0
  -29.7170  -19.3637   18.8265 N   0  0  0  0  0  0  0  0  0  0  0  0
  -24.6002  -28.2747   25.6544 N   0  0  0  0  0  0  0  0  0  0  0  0
  -28.8243  -17.1976   22.9297 N   0  0  0  0  0  0  0  0  0  0  0  0
  -25.6681  -14.0471   23.6431 N   0  0  0  0  0  0  0  0  0  0  0  0
  -21.3632  -28.2492   23.9759 N   0  0  0  0  0  0  0  0  0  0  0  0
  -26.9593  -29.7937   27.5480 N   0  0  0  0  0  0  0  0  0  0  0  0
  -28.6535  -27.6710   29.9337 N   0  3  0  0  0  0  0  0  0  0  0  0
  -26.9801  -15.6314   24.6567 O   0  0  0  0  0  0  0  0  0  0  0  0
  -30.9024  -21.3560   18.5219 O   0  0  0  0  0  0  0  0  0  0  0  0
  -23.5193  -28.9441   23.4365 O   0  0  0  0  0  0  0  0  0  0  0  0
  -24.1882  -30.1812   26.9318 O   0  0  0  0  0  0  0  0  0  0  0  0
  -28.4126  -28.0303   27.1535 O   0  0  0  0  0  0  0  0  0  0  0  0
  -23.2924  -10.8282   19.7662 O   0  0  0  0  0  0  0  0  0  0  0  0
  -26.4572  -23.0604   22.9312 O   0  0  0  0  0  0  0  0  0  1  0  0
  -23.2266   -6.3386   22.9667 F   0  0  0  0  0  0  0  0  0  0  0  0
  -23.8157   -8.3269   18.7117 F   0  0  0  0  0  0  0  0  0  0  0  0
  1  2  1  0  0  0  0
  1  5  2  0  0  0  0
  2  6  2  0  0  0  0
  3  8  2  0  0  0  0
  3 16  1  0  0  0  0
  4  9  1  0  0  0  0
  4 16  2  0  0  0  0
  5 18  1  0  0  0  0
  6 20  1  0  0  0  0
  7 10  2  0  0  0  0
  7 19  1  0  0  0  0
  8 22  1  0  0  0  0
  9 22  2  0  0  0  0
 10 23  1  0  0  0  0
 11 12  2  0  0  0  0
 11 24  1  0  0  0  0
 12 25  1  0  0  0  0
 13 21  1  0  0  0  0
 13 23  2  0  0  0  0
 14 25  2  0  0  0  0
 14 26  1  0  0  0  0
 15 28  1  0  0  0  0
 15 29  2  0  0  0  0
 16 27  1  0  0  0  0
 17 27  1  0  0  0  0
 17 30  2  0  0  0  0
 17 31  1  0  0  0  0
 18 20  2  0  0  0  0
 18 36  1  0  0  0  0
 19 21  2  0  0  0  0
 19 37  1  0  0  0  0
 20 45  1  0  0  0  0
 21 38  1  0  0  0  0
 22 74  1  0  0  0  0
 23 75  1  0  0  0  0
 24 26  2  0  0  0  0
 24 74  1  0  0  0  0
 25 76  1  0  0  0  0
 26 77  1  0  0  0  0
 27 58  2  0  0  0  0
 28 32  1  0  0  0  0
 28 59  2  0  0  0  0
 29 54  1  0  0  0  0
 29 60  1  0  0  0  0
 30 61  1  0  0  0  0
 30 64  1  0  0  0  0
 31 65  1  0  0  0  0
 31 69  2  0  0  0  0
 32 62  1  0  0  0  0
 32 70  2  0  0  0  0
 33 46  1  0  0  0  0
 33 66  1  0  0  0  0
 33 71  2  0  0  0  0
 34 55  1  0  0  0  0
 34 63  1  0  0  0  0
 34 72  2  0  0  0  0
 35 56  1  0  0  0  0
 35 67  1  0  0  0  0
 35 73  2  0  0  0  0
 36 39  1  0  0  0  0
 37 46  1  0  0  0  0
 38 63  1  0  0  0  0
 39 41  1  0  0  0  0
 40 42  1  0  0  0  0
 40 43  1  0  0  0  0
 41 45  1  0  0  0  0
 42 47  1  0  0  0  0
 43 62  1  0  0  0  0
 44 47  1  0  0  0  0
 44 62  1  0  0  0  0
 45 66  1  0  0  0  0
 46 63  1  0  0  0  0
 47 61  1  0  0  0  0
 48 56  1  0  0  0  0
 49 57  1  0  0  0  0
 50 57  1  0  0  0  0
 51 57  1  0  0  0  0
 52 60  1  0  0  0  0
 53 68  1  0  0  0  0
 54 75  1  0  0  0  0
 55 57  1  0  0  0  0
 55 67  1  0  0  0  0
 56 68  1  0  0  0  0
 58 61  1  0  0  0  0
 59 60  1  0  0  0  0
M  CHG  1  68   1
M  ISO  4  28 100  32 100  54 101  75 101
M  END
> <Batch ID>
0055

> <Smiles>
CNC(C)C(=O)NC(C(=O)N1Cc2cc([101O:1][101CH2:1]c3c[100c:0]([100C:0](=O)N4CCCC(n5nc(-c6ccc(Oc7ccc(F)cc7F)cc6)c(C(N)=O)c5N)C4)nn3C)ccc2CC1C(=O)NC1CCCc2ccccc21)C(C)(C)C

> <Shape>
0.240

> <Color>
0.078

> <Negative vol penalty>
0.000

$$$$

  -OEChem-04052317433D

 89 97  0     1  0  0  0  0  0999 V2000
  -22.2152  -27.9894   25.0949 C   0  0  0  0  0  0  0  0  0  0  0  0
  -22.3827  -26.6795   24.6574 C   0  0  0  0  0  0  0  0  0  0  0  0
  -28.8977  -26.5335   18.9833 C   0  0  0  0  0  0  0  0  0  0  0  0
  -26.9403  -25.5177   19.9700 C   0  0  0  0  0  0  0  0  0  0  0  0
  -21.2247  -28.7909   24.5288 C   0  0  0  0  0  0  0  0  0  0  0  0
  -21.5591  -26.1699   23.6542 C   0  0  0  0  0  0  0  0  0  0  0  0
  -23.1172  -22.1624   19.2933 C   0  0  0  0  0  0  0  0  0  0  0  0
  -28.1856  -27.7171   18.7893 C   0  0  0  0  0  0  0  0  0  0  0  0
  -26.2282  -26.7013   19.7761 C   0  0  0  0  0  0  0  0  0  0  0  0
  -22.9438  -20.7835   19.1812 C   0  0  0  0  0  0  0  0  0  0  0  0
  -25.9646  -29.7209   21.2705 C   0  0  0  0  0  0  0  0  0  0  0  0
  -25.1790  -30.1833   22.3262 C   0  0  0  0  0  0  0  0  0  0  0  0
  -20.9459  -21.1469   17.8790 C   0  0  0  0  0  0  0  0  0  0  0  0
  -23.2137  -30.0349   20.9289 C   0  0  0  0  0  0  0  0  0  0  0  0
  -28.2750  -25.4337   19.5736 C   0  0  0  0  0  0  0  0  0  0  0  0
  -29.7670  -23.8490   20.9041 C   0  0  0  0  0  0  0  0  0  0  0  0
  -20.3948  -28.2940   23.5114 C   0  0  0  0  0  0  0  0  0  0  0  0
  -22.1988  -23.0453   18.7074 C   0  0  0  0  0  0  0  0  0  0  0  0
  -20.5557  -26.9651   23.0749 C   0  0  0  0  0  0  0  0  0  0  0  0
  -21.1113  -22.5365   17.9830 C   0  0  0  0  0  0  0  0  0  0  0  0
  -26.8509  -27.8011   19.1857 C   0  0  0  0  0  0  0  0  0  0  0  0
  -21.8564  -20.2756   18.4764 C   0  0  0  0  0  0  0  0  0  0  0  0
  -25.3747  -29.4156   20.0438 C   0  0  0  0  0  0  0  0  0  0  0  0
  -23.8036  -30.3402   22.1555 C   0  0  0  0  0  0  0  0  0  0  0  0
  -23.9993  -29.5726   19.8731 C   0  0  0  0  0  0  0  0  0  0  0  0
  -29.0098  -24.2106   19.7737 C   0  0  0  0  0  0  0  0  0  0  0  0
  -30.2605  -22.6032   20.6026 C   0  0  0  0  0  0  0  0  0  0  0  0
  -24.2681  -15.4676   18.8337 C   0  0  0  0  0  0  0  0  0  0  0  0
  -30.0031  -24.5744   22.1180 C   0  0  0  0  0  0  0  0  0  0  0  0
  -20.2201  -25.2778   19.8048 C   0  0  0  0  0  0  0  0  0  0  0  0
  -19.7334  -25.8453   16.6483 C   0  0  0  0  0  0  0  0  0  0  0  0
  -19.8180  -24.6679   13.4463 C   0  0  0  0  0  0  0  0  0  0  0  0
  -29.7335  -17.5825   18.7383 C   0  0  0  0  0  0  0  0  0  0  0  0
  -19.3070  -29.1830   22.9629 C   0  0  0  0  0  0  0  0  0  0  0  0
  -22.4147  -24.5299   18.8148 C   0  0  0  0  0  0  0  0  0  0  0  0
  -20.1080  -23.4419   17.3182 C   0  0  0  0  0  0  0  0  0  0  0  0
  -18.7223  -28.6865   21.6430 C   0  0  0  0  0  0  0  0  0  0  0  0
  -30.3086  -20.0305   16.2586 C   0  0  0  0  0  0  0  0  0  0  0  0
  -18.4200  -27.1934   21.7211 C   0  0  0  0  0  0  0  0  0  0  0  0
  -30.0739  -21.3192   17.0454 C   0  0  0  0  0  0  0  0  0  0  0  0
  -29.3069  -18.9371   16.6348 C   0  0  0  0  0  0  0  0  0  0  0  0
  -29.0090  -19.9466   18.8741 C   0  0  0  0  0  0  0  0  0  0  0  0
  -19.6982  -26.3841   21.9715 C   0  0  1  0  0  0  0  0  0  0  0  0
  -21.1351  -25.3359   18.6144 C   0  0  1  0  0  0  0  0  0  0  0  0
  -30.0396  -21.0416   18.5583 C   0  0  2  0  0  0  0  0  0  0  0  0
  -19.3266  -25.3518   11.0823 C   0  0  0  0  0  0  0  0  0  0  0  0
  -16.7458  -25.5268   17.1798 C   0  0  0  0  0  0  0  0  0  0  0  0
  -16.4052  -25.2698   14.7128 C   0  0  0  0  0  0  0  0  0  0  0  0
  -17.3356  -27.3962   15.6268 C   0  0  0  0  0  0  0  0  0  0  0  0
  -30.1376  -14.0363   17.5677 C   0  0  0  0  0  0  0  0  0  0  0  0
  -29.9748  -14.8687   19.9250 C   0  0  0  0  0  0  0  0  0  0  0  0
  -22.6322  -24.2670   12.6226 C   0  0  0  0  0  0  0  0  0  0  0  0
  -23.8007  -15.9258   17.4754 C   0  0  0  0  0  0  0  0  0  0  0  0
  -22.6063  -16.8811   17.5249 C   0  0  0  0  0  0  0  0  0  0  0  0
  -27.3713  -15.4423   17.6413 C   0  0  0  0  0  0  0  0  0  0  0  0
  -26.6423  -16.3194   18.6681 C   0  0  0  0  0  0  0  0  0  0  0  0
  -28.6187  -16.0803   17.0337 C   0  0  0  0  0  0  0  0  0  0  0  0
  -22.8607  -18.1223   18.3722 C   0  0  0  0  0  0  0  0  0  1  0  0
  -18.7794  -25.3209   15.6025 C   0  0  1  0  0  0  0  0  0  0  0  0
  -20.3861  -25.2611   12.1696 C   0  0  2  0  0  0  0  0  0  0  0  0
  -17.3342  -25.8611   15.7945 C   0  0  0  0  0  0  0  0  0  0  0  0
  -30.4098  -15.2239   18.4981 C   0  0  0  0  0  0  0  0  0  0  0  0
  -31.8977  -15.5721   18.4807 C   0  0  0  0  0  0  0  0  0  0  0  0
  -29.0187  -23.2706   18.8249 N   0  0  0  0  0  0  0  0  0  0  0  0
  -23.5776  -14.8288   19.7500 N   0  0  0  0  0  0  0  0  0  0  0  0
  -24.4439  -14.6392   20.8028 N   0  0  0  0  0  0  0  0  0  0  0  0
  -25.6392  -15.1508   20.5352 N   0  0  0  0  0  0  0  0  0  0  0  0
  -29.7876  -22.3060   19.3583 N   0  0  0  0  0  0  0  0  0  0  0  0
  -25.5267  -15.6681   19.3038 N   0  0  0  0  0  0  0  0  0  0  0  0
  -20.3591  -24.8859   17.4570 N   0  0  0  0  0  0  0  0  0  0  0  0
  -29.2715  -18.7374   18.0900 N   0  0  0  0  0  0  0  0  0  0  0  0
  -31.0486  -21.7440   21.2830 N   0  0  0  0  0  0  0  0  0  0  0  0
  -29.4204  -25.8407   22.2639 N   0  0  0  0  0  0  0  0  0  0  0  0
  -20.4631  -26.2565   20.7496 N   0  0  0  0  0  0  0  0  0  0  0  0
  -19.3720  -25.6461   14.3096 N   0  0  0  0  0  0  0  0  0  0  0  0
  -29.6422  -16.3716   18.0357 N   0  0  0  0  0  0  0  0  0  0  0  0
  -21.5086  -24.4218   11.6632 N   0  3  0  0  0  0  0  0  0  0  0  0
  -30.7233  -24.1203   23.0392 O   0  0  0  0  0  0  0  0  0  0  0  0
  -19.3565  -24.4102   19.8613 O   0  0  0  0  0  0  0  0  0  0  0  0
  -19.9222  -27.0609   16.7395 O   0  0  0  0  0  0  0  0  0  0  0  0
  -19.7710  -23.4576   13.6550 O   0  0  0  0  0  0  0  0  0  0  0  0
  -30.1952  -17.6280   19.8858 O   0  0  0  0  0  0  0  0  0  0  0  0
  -26.1559  -28.9560   18.9968 O   0  0  0  0  0  0  0  0  0  0  0  0
  -21.6844  -18.9302   18.3660 O   0  0  0  0  0  0  0  0  0  1  0  0
  -23.0491  -30.7828   23.1699 F   0  0  0  0  0  0  0  0  0  0  0  0
  -23.4268  -29.2798   18.6973 F   0  0  0  0  0  0  0  0  0  0  0  0
  -32.3118  -15.9058   17.2376 F   0  0  0  0  0  0  0  0  0  0  0  0
  -32.1697  -16.6185   19.2926 F   0  0  0  0  0  0  0  0  0  0  0  0
  -32.6541  -14.5303   18.8935 F   0  0  0  0  0  0  0  0  0  0  0  0
  1  2  1  0  0  0  0
  1  5  2  0  0  0  0
  2  6  2  0  0  0  0
  3  8  2  0  0  0  0
  3 15  1  0  0  0  0
  4  9  1  0  0  0  0
  4 15  2  0  0  0  0
  5 17  1  0  0  0  0
  6 19  1  0  0  0  0
  7 10  2  0  0  0  0
  7 18  1  0  0  0  0
  8 21  1  0  0  0  0
  9 21  2  0  0  0  0
 10 22  1  0  0  0  0
 11 12  2  0  0  0  0
 11 23  1  0  0  0  0
 12 24  1  0  0  0  0
 13 20  1  0  0  0  0
 13 22  2  0  0  0  0
 14 24  2  0  0  0  0
 14 25  1  0  0  0  0
 15 26  1  0  0  0  0
 16 26  1  0  0  0  0
 16 27  2  0  0  0  0
 16 29  1  0  0  0  0
 17 19  2  0  0  0  0
 17 34  1  0  0  0  0
 18 20  2  0  0  0  0
 18 35  1  0  0  0  0
 19 43  1  0  0  0  0
 20 36  1  0  0  0  0
 21 83  1  0  0  0  0
 22 84  1  0  0  0  0
 23 25  2  0  0  0  0
 23 83  1  0  0  0  0
 24 85  1  0  0  0  0
 25 86  1  0  0  0  0
 26 64  2  0  0  0  0
 27 68  1  0  0  0  0
 27 72  1  0  0  0  0
 28 53  1  0  0  0  0
 28 65  2  0  0  0  0
 28 69  1  0  0  0  0
 29 73  1  0  0  0  0
 29 78  2  0  0  0  0
 30 44  1  0  0  0  0
 30 74  1  0  0  0  0
 30 79  2  0  0  0  0
 31 59  1  0  0  0  0
 31 70  1  0  0  0  0
 31 80  2  0  0  0  0
 32 60  1  0  0  0  0
 32 75  1  0  0  0  0
 32 81  2  0  0  0  0
 33 71  1  0  0  0  0
 33 76  1  0  0  0  0
 33 82  2  0  0  0  0
 34 37  1  0  0  0  0
 35 44  1  0  0  0  0
 36 70  1  0  0  0  0
 37 39  1  0  0  0  0
 38 40  1  0  0  0  0
 38 41  1  0  0  0  0
 39 43  1  0  0  0  0
 40 45  1  0  0  0  0
 41 71  1  0  0  0  0
 42 45  1  0  0  0  0
 42 71  1  0  0  0  0
 43 74  1  0  0  0  0
 44 70  1  0  0  0  0
 45 68  1  0  0  0  0
 46 60  1  0  0  0  0
 47 61  1  0  0  0  0
 48 61  1  0  0  0  0
 49 61  1  0  0  0  0
 50 62  1  0  0  0  0
 51 62  1  0  0  0  0
 52 77  1  0  0  0  0
 53 54  1  0  0  0  0
 54 58  1  0  0  0  0
 55 56  1  0  0  0  0
 55 57  1  0  0  0  0
 56 69  1  0  0  0  0
 57 76  1  0  0  0  0
 58 84  1  0  0  0  0
 59 61  1  0  0  0  0
 59 75  1  0  0  0  0
 60 77  1  0  0  0  0
 62 63  1  0  0  0  0
 62 76  1  0  0  0  0
 63 87  1  0  0  0  0
 63 88  1  0  0  0  0
 63 89  1  0  0  0  0
 64 68  1  0  0  0  0
 65 66  1  0  0  0  0
 66 67  2  0  0  0  0
 67 69  1  0  0  0  0
M  CHG  1  77   1
M  ISO  4  33 100  58 101  76 100  84 101
M  END
> <Batch ID>
0055

> <Smiles>
CNC(C)C(=O)NC(C(=O)N1Cc2cc([101O:1][101CH2:1]CCc3nnnn3CCC[100N:0]([100C:0](=O)N3CCCC(n4nc(-c5ccc(Oc6ccc(F)cc6F)cc5)c(C(N)=O)c4N)C3)C(C)(C)C(F)(F)F)ccc2CC1C(=O)NC1CCCc2ccccc21)C(C)(C)C

> <Shape>
0.196

> <Color>
0.097

> <Negative vol penalty>
0.000

$$$$

  -OEChem-04052317433D

 82 90  0     1  0  0  0  0  0999 V2000
  -17.5036  -26.3671   19.7179 C   0  0  0  0  0  0  0  0  0  0  0  0
  -18.8301  -26.4855   19.3156 C   0  0  0  0  0  0  0  0  0  0  0  0
  -24.9418  -14.0072   21.8899 C   0  0  0  0  0  0  0  0  0  0  0  0
  -26.2813  -14.0787   19.8805 C   0  0  0  0  0  0  0  0  0  0  0  0
  -17.1220  -26.7896   20.9907 C   0  0  0  0  0  0  0  0  0  0  0  0
  -19.7756  -27.0273   20.1856 C   0  0  0  0  0  0  0  0  0  0  0  0
  -24.0800  -24.3612   20.2817 C   0  0  0  0  0  0  0  0  0  0  0  0
  -24.2013  -12.9513   21.3587 C   0  0  0  0  0  0  0  0  0  0  0  0
  -25.5409  -13.0227   19.3493 C   0  0  0  0  0  0  0  0  0  0  0  0
  -24.9646  -24.5417   19.2193 C   0  0  0  0  0  0  0  0  0  0  0  0
  -24.5645   -9.6153   20.9434 C   0  0  0  0  0  0  0  0  0  0  0  0
  -24.2977   -8.5278   21.7751 C   0  0  0  0  0  0  0  0  0  0  0  0
  -26.2884  -26.0283   20.5820 C   0  0  0  0  0  0  0  0  0  0  0  0
  -21.9264   -8.9083   21.5121 C   0  0  0  0  0  0  0  0  0  0  0  0
  -30.2181  -25.4491   18.5064 C   0  0  0  0  0  0  0  0  0  0  0  0
  -30.1849  -23.2642   18.2607 C   0  0  0  0  0  0  0  0  0  0  0  0
  -25.9818  -14.5710   21.1507 C   0  0  0  0  0  0  0  0  0  0  0  0
  -27.9173  -15.5741   22.4756 C   0  0  0  0  0  0  0  0  0  0  0  0
  -18.0652  -27.3280   21.8801 C   0  0  0  0  0  0  0  0  0  0  0  0
  -24.2873  -25.0226   21.5008 C   0  0  0  0  0  0  0  0  0  0  0  0
  -19.4061  -27.4586   21.4709 C   0  0  0  0  0  0  0  0  0  0  0  0
  -25.4064  -25.8525   21.6591 C   0  0  0  0  0  0  0  0  0  0  0  0
  -29.5782  -24.4093   17.8055 C   0  0  0  0  0  0  0  0  0  0  0  0
  -24.5009  -12.4590   20.0885 C   0  0  0  0  0  0  0  0  0  0  0  0
  -26.0674  -25.3776   19.3684 C   0  0  0  0  0  0  0  0  0  0  0  0
  -23.5122  -10.3494   20.3961 C   0  0  0  0  0  0  0  0  0  0  0  0
  -22.9787   -8.1743   22.0594 C   0  0  0  0  0  0  0  0  0  0  0  0
  -22.1932   -9.9959   20.6804 C   0  0  0  0  0  0  0  0  0  0  0  0
  -26.7467  -15.6623   21.6986 C   0  0  0  0  0  0  0  0  0  0  0  0
  -28.2508  -16.8793   22.7434 C   0  0  0  0  0  0  0  0  0  0  0  0
  -28.6388  -14.4159   22.9159 C   0  0  0  0  0  0  0  0  0  0  0  0
  -22.6589  -27.1605   23.1982 C   0  0  0  0  0  0  0  0  0  0  0  0
  -24.9994  -26.6328   25.3812 C   0  0  0  0  0  0  0  0  0  0  0  0
  -28.1933  -25.6110   26.0149 C   0  0  0  0  0  0  0  0  0  0  0  0
  -28.9283  -22.1666   21.0908 C   0  0  0  0  0  0  0  0  0  0  0  0
  -17.5964  -27.8145   23.2285 C   0  0  0  0  0  0  0  0  0  0  0  0
  -23.3386  -24.7964   22.6458 C   0  0  0  0  0  0  0  0  0  0  0  0
  -25.6850  -26.5695   22.9540 C   0  0  0  0  0  0  0  0  0  0  0  0
  -18.7313  -28.0317   24.2261 C   0  0  0  0  0  0  0  0  0  0  0  0
  -25.6458  -21.1560   22.0292 C   0  0  0  0  0  0  0  0  0  0  0  0
  -19.8753  -28.8015   23.5738 C   0  0  0  0  0  0  0  0  0  0  0  0
  -25.7348  -19.6299   22.0847 C   0  0  0  0  0  0  0  0  0  0  0  0
  -26.4974  -21.7302   20.8991 C   0  0  0  0  0  0  0  0  0  0  0  0
  -27.9977  -19.7761   20.9638 C   0  0  0  0  0  0  0  0  0  0  0  0
  -20.4657  -28.0183   22.3950 C   0  0  1  0  0  0  0  0  0  0  0  0
  -23.3646  -25.9225   23.6747 C   0  0  1  0  0  0  0  0  0  0  0  0
  -27.1997  -19.1546   22.1228 C   0  0  2  0  0  0  0  0  0  0  0  0
  -29.8351  -25.3271   27.8915 C   0  0  0  0  0  0  0  0  0  0  0  0
  -25.4596  -29.6487   25.4317 C   0  0  0  0  0  0  0  0  0  0  0  0
  -27.6621  -29.2238   26.5438 C   0  0  0  0  0  0  0  0  0  0  0  0
  -25.5446  -28.5428   27.6731 C   0  0  0  0  0  0  0  0  0  0  0  0
  -32.3967  -21.5168   19.1868 C   0  0  0  0  0  0  0  0  0  0  0  0
  -33.3249  -23.5909   20.1831 C   0  0  0  0  0  0  0  0  0  0  0  0
  -28.4021  -22.6964   25.5458 C   0  0  0  0  0  0  0  0  0  0  0  0
  -28.4720  -24.5239   16.7850 C   0  0  0  0  0  0  0  0  0  0  0  0
  -31.3862  -22.4423   21.2950 C   0  0  0  0  0  0  0  0  0  0  0  0
  -27.0876  -24.4686   17.4219 C   0  0  0  0  0  0  0  0  0  1  0  0
  -26.3532  -27.2376   25.6645 C   0  0  1  0  0  0  0  0  0  0  0  0
  -28.7588  -24.6571   27.0515 C   0  0  2  0  0  0  0  0  0  0  0  0
  -26.2489  -28.6514   26.3031 C   0  0  0  0  0  0  0  0  0  0  0  0
  -32.0071  -22.8221   19.9230 C   0  0  0  0  0  0  0  0  0  0  0  0
  -31.1591  -25.0040   19.3433 N   0  0  0  0  0  0  0  0  0  0  0  0
  -26.3623  -16.9238   21.4867 N   0  0  0  0  0  0  0  0  0  0  0  0
  -31.1149  -23.6718   19.1714 N   0  0  0  0  0  0  0  0  0  0  0  0
  -27.2967  -17.6403   22.1345 N   0  0  0  0  0  0  0  0  0  0  0  0
  -24.7248  -26.3211   24.0421 N   0  0  0  0  0  0  0  0  0  0  0  0
  -27.8753  -21.2420   20.9937 N   0  0  0  0  0  0  0  0  0  0  0  0
  -29.2642  -17.4388   23.4379 N   0  0  0  0  0  0  0  0  0  0  0  0
  -28.1581  -13.1508   22.5513 N   0  0  0  0  0  0  0  0  0  0  0  0
  -21.3307  -26.9611   22.8731 N   0  0  0  0  0  0  0  0  0  0  0  0
  -27.0722  -26.2650   26.4803 N   0  0  0  0  0  0  0  0  0  0  0  0
  -30.2024  -21.6197   21.1829 N   0  0  0  0  0  0  0  0  0  0  0  0
  -29.3560  -23.4644   26.3868 N   0  3  0  0  0  0  0  0  0  0  0  0
  -29.6696  -14.4999   23.6257 O   0  0  0  0  0  0  0  0  0  0  0  0
  -23.2735  -28.2186   23.1318 O   0  0  0  0  0  0  0  0  0  0  0  0
  -24.2171  -26.4372   26.3147 O   0  0  0  0  0  0  0  0  0  0  0  0
  -28.6981  -25.7638   24.9047 O   0  0  0  0  0  0  0  0  0  0  0  0
  -28.7461  -23.3887   21.1003 O   0  0  0  0  0  0  0  0  0  0  0  0
  -23.7787  -11.4284   19.5699 O   0  0  0  0  0  0  0  0  0  0  0  0
  -26.9321  -25.5560   18.3328 O   0  0  0  0  0  0  0  0  0  1  0  0
  -22.7227   -7.1290   22.8569 F   0  0  0  0  0  0  0  0  0  0  0  0
  -21.1781  -10.6966   20.1566 F   0  0  0  0  0  0  0  0  0  0  0  0
  1  2  1  0  0  0  0
  1  5  2  0  0  0  0
  2  6  2  0  0  0  0
  3  8  2  0  0  0  0
  3 17  1  0  0  0  0
  4  9  1  0  0  0  0
  4 17  2  0  0  0  0
  5 19  1  0  0  0  0
  6 21  1  0  0  0  0
  7 10  2  0  0  0  0
  7 20  1  0  0  0  0
  8 24  1  0  0  0  0
  9 24  2  0  0  0  0
 10 25  1  0  0  0  0
 11 12  2  0  0  0  0
 11 26  1  0  0  0  0
 12 27  1  0  0  0  0
 13 22  1  0  0  0  0
 13 25  2  0  0  0  0
 14 27  2  0  0  0  0
 14 28  1  0  0  0  0
 15 23  1  0  0  0  0
 15 62  2  0  0  0  0
 16 23  2  0  0  0  0
 16 64  1  0  0  0  0
 17 29  1  0  0  0  0
 18 29  1  0  0  0  0
 18 30  2  0  0  0  0
 18 31  1  0  0  0  0
 19 21  2  0  0  0  0
 19 36  1  0  0  0  0
 20 22  2  0  0  0  0
 20 37  1  0  0  0  0
 21 45  1  0  0  0  0
 22 38  1  0  0  0  0
 23 55  1  0  0  0  0
 24 79  1  0  0  0  0
 25 80  1  0  0  0  0
 26 28  2  0  0  0  0
 26 79  1  0  0  0  0
 27 81  1  0  0  0  0
 28 82  1  0  0  0  0
 29 63  2  0  0  0  0
 30 65  1  0  0  0  0
 30 68  1  0  0  0  0
 31 69  1  0  0  0  0
 31 74  2  0  0  0  0
 32 46  1  0  0  0  0
 32 70  1  0  0  0  0
 32 75  2  0  0  0  0
 33 58  1  0  0  0  0
 33 66  1  0  0  0  0
 33 76  2  0  0  0  0
 34 59  1  0  0  0  0
 34 71  1  0  0  0  0
 34 77  2  0  0  0  0
 35 67  1  0  0  0  0
 35 72  1  0  0  0  0
 35 78  2  0  0  0  0
 36 39  1  0  0  0  0
 37 46  1  0  0  0  0
 38 66  1  0  0  0  0
 39 41  1  0  0  0  0
 40 42  1  0  0  0  0
 40 43  1  0  0  0  0
 41 45  1  0  0  0  0
 42 47  1  0  0  0  0
 43 67  1  0  0  0  0
 44 47  1  0  0  0  0
 44 67  1  0  0  0  0
 45 70  1  0  0  0  0
 46 66  1  0  0  0  0
 47 65  1  0  0  0  0
 48 59  1  0  0  0  0
 49 60  1  0  0  0  0
 50 60  1  0  0  0  0
 51 60  1  0  0  0  0
 52 61  1  0  0  0  0
 53 61  1  0  0  0  0
 54 73  1  0  0  0  0
 55 57  1  0  0  0  0
 56 61  1  0  0  0  0
 56 72  1  0  0  0  0
 57 80  1  0  0  0  0
 58 60  1  0  0  0  0
 58 71  1  0  0  0  0
 59 73  1  0  0  0  0
 61 64  1  0  0  0  0
 62 64  1  0  0  0  0
 63 65  1  0  0  0  0
M  CHG  1  73   1
M  ISO  4  35 100  57 101  72 100  80 101
M  END
> <Batch ID>
0055

> <Smiles>
CNC(C)C(=O)NC(C(=O)N1Cc2cc([101O:1][101CH2:1]Cc3cnn(C(C)(C)C[100NH:0][100C:0](=O)N4CCCC(n5nc(-c6ccc(Oc7ccc(F)cc7F)cc6)c(C(N)=O)c5N)C4)c3)ccc2CC1C(=O)NC1CCCc2ccccc21)C(C)(C)C

> <Shape>
0.212

> <Color>
0.071

> <Negative vol penalty>
0.000

$$$$

  -OEChem-04052317433D

 80 88  0     1  0  0  0  0  0999 V2000
  -18.9076  -33.3692   20.3803 C   0  0  0  0  0  0  0  0  0  0  0  0
  -20.1971  -33.0028   20.0080 C   0  0  0  0  0  0  0  0  0  0  0  0
  -26.8680  -17.5044   20.7627 C   0  0  0  0  0  0  0  0  0  0  0  0
  -29.2146  -17.1682   21.2289 C   0  0  0  0  0  0  0  0  0  0  0  0
  -18.3851  -32.9354   21.5980 C   0  0  0  0  0  0  0  0  0  0  0  0
  -20.9652  -32.2034   20.8537 C   0  0  0  0  0  0  0  0  0  0  0  0
  -25.0254  -27.9290   19.1954 C   0  0  0  0  0  0  0  0  0  0  0  0
  -26.6795  -16.1232   20.7153 C   0  0  0  0  0  0  0  0  0  0  0  0
  -29.0261  -15.7869   21.1817 C   0  0  0  0  0  0  0  0  0  0  0  0
  -26.4150  -27.9482   19.0842 C   0  0  0  0  0  0  0  0  0  0  0  0
  -29.2356  -12.1757   20.8276 C   0  0  0  0  0  0  0  0  0  0  0  0
  -30.1682  -11.4180   20.1195 C   0  0  0  0  0  0  0  0  0  0  0  0
  -26.5991  -27.0051   21.2969 C   0  0  0  0  0  0  0  0  0  0  0  0
  -29.6297  -12.6379   18.1048 C   0  0  0  0  0  0  0  0  0  0  0  0
  -32.7819  -27.8942   20.3712 C   0  0  0  0  0  0  0  0  0  0  0  0
  -28.1356  -18.0269   21.0194 C   0  0  0  0  0  0  0  0  0  0  0  0
  -28.2265  -20.2882   22.1968 C   0  0  0  0  0  0  0  0  0  0  0  0
  -19.1437  -32.1222   22.4547 C   0  0  0  0  0  0  0  0  0  0  0  0
  -24.4113  -27.4570   20.3644 C   0  0  0  0  0  0  0  0  0  0  0  0
  -20.4528  -31.7594   22.0846 C   0  0  0  0  0  0  0  0  0  0  0  0
  -25.2014  -26.9785   21.4194 C   0  0  0  0  0  0  0  0  0  0  0  0
  -31.4916  -28.3238   20.5636 C   0  0  0  0  0  0  0  0  0  0  0  0
  -27.7585  -15.2644   20.9249 C   0  0  0  0  0  0  0  0  0  0  0  0
  -27.2021  -27.4889   20.1361 C   0  0  0  0  0  0  0  0  0  0  0  0
  -28.4999  -13.1646   20.1744 C   0  0  0  0  0  0  0  0  0  0  0  0
  -30.3654  -11.6491   18.7581 C   0  0  0  0  0  0  0  0  0  0  0  0
  -28.6970  -13.3957   18.8130 C   0  0  0  0  0  0  0  0  0  0  0  0
  -28.3311  -19.4536   21.0679 C   0  0  0  0  0  0  0  0  0  0  0  0
  -30.7690  -27.1502   20.8502 C   0  0  0  0  0  0  0  0  0  0  0  0
  -28.5023  -21.5465   21.7203 C   0  0  0  0  0  0  0  0  0  0  0  0
  -27.9086  -19.9556   23.5547 C   0  0  0  0  0  0  0  0  0  0  0  0
  -22.5137  -28.7317   22.5730 C   0  0  0  0  0  0  0  0  0  0  0  0
  -22.3963  -25.6824   23.6733 C   0  0  0  0  0  0  0  0  0  0  0  0
  -23.8695  -22.6094   23.8556 C   0  0  0  0  0  0  0  0  0  0  0  0
  -31.8856  -24.2209   17.8582 C   0  0  0  0  0  0  0  0  0  0  0  0
  -18.5535  -31.7170   23.7821 C   0  0  0  0  0  0  0  0  0  0  0  0
  -22.9106  -27.4180   20.4582 C   0  0  0  0  0  0  0  0  0  0  0  0
  -24.5908  -26.4429   22.6877 C   0  0  0  0  0  0  0  0  0  0  0  0
  -19.2951  -30.5629   24.4516 C   0  0  0  0  0  0  0  0  0  0  0  0
  -28.4176  -23.6796   17.2610 C   0  0  0  0  0  0  0  0  0  0  0  0
  -20.8013  -30.8001   24.4092 C   0  0  0  0  0  0  0  0  0  0  0  0
  -28.0320  -22.6122   18.2867 C   0  0  0  0  0  0  0  0  0  0  0  0
  -29.8259  -23.4549   16.7149 C   0  0  0  0  0  0  0  0  0  0  0  0
  -30.4910  -22.2656   18.7685 C   0  0  0  0  0  0  0  0  0  0  0  0
  -21.3079  -30.8728   22.9637 C   0  0  1  0  0  0  0  0  0  0  0  0
  -22.4022  -27.3948   21.8964 C   0  0  1  0  0  0  0  0  0  0  0  0
  -29.1003  -22.4821   19.3891 C   0  0  2  0  0  0  0  0  0  0  0  0
  -30.9894  -29.7059   20.4845 C   0  0  0  0  0  0  0  0  0  0  0  0
  -23.5547  -20.3303   24.8575 C   0  0  0  0  0  0  0  0  0  0  0  0
  -23.2454  -26.7650   26.3967 C   0  0  0  0  0  0  0  0  0  0  0  0
  -23.8280  -24.4244   27.0677 C   0  0  0  0  0  0  0  0  0  0  0  0
  -21.4733  -25.0023   26.4811 C   0  0  0  0  0  0  0  0  0  0  0  0
  -23.7871  -21.3225   21.1918 C   0  0  0  0  0  0  0  0  0  0  0  0
  -29.3037  -27.0216   21.1465 C   0  0  0  0  0  0  0  0  0  1  0  0
  -33.8788  -25.6424   20.4456 C   0  0  0  0  0  0  0  0  0  0  0  0
  -33.9163  -24.8814   19.1229 C   0  0  0  0  0  0  0  0  0  0  0  0
  -23.2095  -24.8656   24.6483 C   0  0  1  0  0  0  0  0  0  0  0  0
  -23.3153  -21.2124   23.6421 C   0  0  2  0  0  0  0  0  0  0  0  0
  -22.9509  -25.2762   26.1255 C   0  0  0  0  0  0  0  0  0  0  0  0
  -28.6484  -20.1252   19.9578 N   0  0  0  0  0  0  0  0  0  0  0  0
  -31.5364  -26.0570   20.8416 N   0  0  0  0  0  0  0  0  0  0  0  0
  -32.7547  -26.5420   20.5471 N   0  0  0  0  0  0  0  0  0  0  0  0
  -28.7455  -21.3951   20.3868 N   0  0  0  0  0  0  0  0  0  0  0  0
  -23.1194  -26.4312   22.7339 N   0  0  0  0  0  0  0  0  0  0  0  0
  -30.7911  -23.3417   17.8110 N   0  0  0  0  0  0  0  0  0  0  0  0
  -28.5581  -22.7566   22.3160 N   0  0  0  0  0  0  0  0  0  0  0  0
  -27.6527  -18.6146   23.8719 N   0  0  0  0  0  0  0  0  0  0  0  0
  -21.4107  -29.5452   22.3968 N   0  0  0  0  0  0  0  0  0  0  0  0
  -22.9131  -23.4674   24.3561 N   0  0  0  0  0  0  0  0  0  0  0  0
  -32.7488  -24.0496   18.9336 N   0  0  0  0  0  0  0  0  0  0  0  0
  -23.9632  -20.5729   22.4622 N   0  3  0  0  0  0  0  0  0  0  0  0
  -27.8370  -20.8243   24.4568 O   0  0  0  0  0  0  0  0  0  0  0  0
  -23.5250  -29.0044   23.2092 O   0  0  0  0  0  0  0  0  0  0  0  0
  -21.1649  -25.6515   23.7381 O   0  0  0  0  0  0  0  0  0  0  0  0
  -25.0353  -22.9087   23.6070 O   0  0  0  0  0  0  0  0  0  0  0  0
  -32.0763  -25.0973   17.0082 O   0  0  0  0  0  0  0  0  0  0  0  0
  -27.5749  -13.9165   20.8790 O   0  0  0  0  0  0  0  0  0  0  0  0
  -28.5587  -27.5071   20.0305 O   0  0  0  0  0  0  0  0  0  1  0  0
  -31.2622  -10.9223   18.0785 F   0  0  0  0  0  0  0  0  0  0  0  0
  -27.9941  -14.3450   18.1803 F   0  0  0  0  0  0  0  0  0  0  0  0
  1  2  1  0  0  0  0
  1  5  2  0  0  0  0
  2  6  2  0  0  0  0
  3  8  2  0  0  0  0
  3 16  1  0  0  0  0
  4  9  1  0  0  0  0
  4 16  2  0  0  0  0
  5 18  1  0  0  0  0
  6 20  1  0  0  0  0
  7 10  2  0  0  0  0
  7 19  1  0  0  0  0
  8 23  1  0  0  0  0
  9 23  2  0  0  0  0
 10 24  1  0  0  0  0
 11 12  2  0  0  0  0
 11 25  1  0  0  0  0
 12 26  1  0  0  0  0
 13 21  1  0  0  0  0
 13 24  2  0  0  0  0
 14 26  2  0  0  0  0
 14 27  1  0  0  0  0
 15 22  2  0  0  0  0
 15 62  1  0  0  0  0
 16 28  1  0  0  0  0
 17 28  1  0  0  0  0
 17 30  2  0  0  0  0
 17 31  1  0  0  0  0
 18 20  2  0  0  0  0
 18 36  1  0  0  0  0
 19 21  2  0  0  0  0
 19 37  1  0  0  0  0
 20 45  1  0  0  0  0
 21 38  1  0  0  0  0
 22 29  1  0  0  0  0
 22 48  1  0  0  0  0
 23 77  1  0  0  0  0
 24 78  1  0  0  0  0
 25 27  2  0  0  0  0
 25 77  1  0  0  0  0
 26 79  1  0  0  0  0
 27 80  1  0  0  0  0
 28 60  2  0  0  0  0
 29 54  1  0  0  0  0
 29 61  2  0  0  0  0
 30 63  1  0  0  0  0
 30 66  1  0  0  0  0
 31 67  1  0  0  0  0
 31 72  2  0  0  0  0
 32 46  1  0  0  0  0
 32 68  1  0  0  0  0
 32 73  2  0  0  0  0
 33 57  1  0  0  0  0
 33 64  1  0  0  0  0
 33 74  2  0  0  0  0
 34 58  1  0  0  0  0
 34 69  1  0  0  0  0
 34 75  2  0  0  0  0
 35 65  1  0  0  0  0
 35 70  1  0  0  0  0
 35 76  2  0  0  0  0
 36 39  1  0  0  0  0
 37 46  1  0  0  0  0
 38 64  1  0  0  0  0
 39 41  1  0  0  0  0
 40 42  1  0  0  0  0
 40 43  1  0  0  0  0
 41 45  1  0  0  0  0
 42 47  1  0  0  0  0
 43 65  1  0  0  0  0
 44 47  1  0  0  0  0
 44 65  1  0  0  0  0
 45 68  1  0  0  0  0
 46 64  1  0  0  0  0
 47 63  1  0  0  0  0
 49 58  1  0  0  0  0
 50 59  1  0  0  0  0
 51 59  1  0  0  0  0
 52 59  1  0  0  0  0
 53 71  1  0  0  0  0
 54 78  1  0  0  0  0
 55 56  1  0  0  0  0
 55 62  1  0  0  0  0
 56 70  1  0  0  0  0
 57 59  1  0  0  0  0
 57 69  1  0  0  0  0
 58 71  1  0  0  0  0
 60 63  1  0  0  0  0
 61 62  1  0  0  0  0
M  CHG  1  71   1
M  ISO  4  35 100  54 101  70 100  78 101
M  END
> <Batch ID>
0055

> <Smiles>
CNC(C)C(=O)NC(C(=O)N1Cc2cc([101O:1][101CH2:1]c3nn(CC[100NH:0][100C:0](=O)N4CCCC(n5nc(-c6ccc(Oc7ccc(F)cc7F)cc6)c(C(N)=O)c5N)C4)cc3C)ccc2CC1C(=O)NC1CCCc2ccccc21)C(C)(C)C

> <Shape>
0.214

> <Color>
0.085

> <Negative vol penalty>
0.000

$$$$

  -OEChem-04052317433D

 83 91  0     1  0  0  0  0  0999 V2000
  -23.2467  -30.7142   20.6811 C   0  0  0  0  0  0  0  0  0  0  0  0
  -23.7863  -29.7681   19.8156 C   0  0  0  0  0  0  0  0  0  0  0  0
  -23.1473   -9.8420   19.9895 C   0  0  0  0  0  0  0  0  0  0  0  0
  -23.8770   -9.9449   22.2903 C   0  0  0  0  0  0  0  0  0  0  0  0
  -23.9766  -31.1390   21.7905 C   0  0  0  0  0  0  0  0  0  0  0  0
  -25.0568  -29.2470   20.0584 C   0  0  0  0  0  0  0  0  0  0  0  0
  -26.9767  -23.5445   18.9178 C   0  0  0  0  0  0  0  0  0  0  0  0
  -22.4276   -8.6804   20.2697 C   0  0  0  0  0  0  0  0  0  0  0  0
  -23.1573   -8.7834   22.5706 C   0  0  0  0  0  0  0  0  0  0  0  0
  -27.7058  -22.9932   17.8651 C   0  0  0  0  0  0  0  0  0  0  0  0
  -21.2203   -6.0464   23.9759 C   0  0  0  0  0  0  0  0  0  0  0  0
  -20.4502   -6.0244   25.1386 C   0  0  0  0  0  0  0  0  0  0  0  0
  -29.7310  -23.2224   19.1557 C   0  0  0  0  0  0  0  0  0  0  0  0
  -19.1699   -7.9054   24.3261 C   0  0  0  0  0  0  0  0  0  0  0  0
  -28.5386  -18.3138   19.2209 C   0  0  0  0  0  0  0  0  0  0  0  0
  -23.8720  -10.4742   20.9998 C   0  0  0  0  0  0  0  0  0  0  0  0
  -24.1558  -13.0013   20.7976 C   0  0  0  0  0  0  0  0  0  0  0  0
  -25.2527  -30.6158   22.0523 C   0  0  0  0  0  0  0  0  0  0  0  0
  -27.6218  -23.9496   20.0951 C   0  0  0  0  0  0  0  0  0  0  0  0
  -25.8050  -29.6662   21.1716 C   0  0  0  0  0  0  0  0  0  0  0  0
  -29.0074  -23.7761   20.2228 C   0  0  0  0  0  0  0  0  0  0  0  0
  -22.4326   -8.1512   21.5602 C   0  0  0  0  0  0  0  0  0  0  0  0
  -29.0836  -22.8347   17.9828 C   0  0  0  0  0  0  0  0  0  0  0  0
  -20.9653   -6.9979   22.9883 C   0  0  0  0  0  0  0  0  0  0  0  0
  -19.4250   -6.9539   25.3138 C   0  0  0  0  0  0  0  0  0  0  0  0
  -19.9401   -7.9273   23.1634 C   0  0  0  0  0  0  0  0  0  0  0  0
  -24.6161  -11.6738   20.7108 C   0  0  0  0  0  0  0  0  0  0  0  0
  -29.3516  -17.2533   19.5553 C   0  0  0  0  0  0  0  0  0  0  0  0
  -30.6135  -17.6312   17.6859 C   0  0  0  0  0  0  0  0  0  0  0  0
  -29.8000  -18.6913   17.3511 C   0  0  0  0  0  0  0  0  0  0  0  0
  -25.2346  -13.7640   20.4222 C   0  0  0  0  0  0  0  0  0  0  0  0
  -22.8682  -13.5004   21.1832 C   0  0  0  0  0  0  0  0  0  0  0  0
  -27.9878  -26.7179   21.6138 C   0  0  0  0  0  0  0  0  0  0  0  0
  -29.3689  -24.8483   23.8764 C   0  0  0  0  0  0  0  0  0  0  0  0
  -30.9737  -21.9357   24.6437 C   0  0  0  0  0  0  0  0  0  0  0  0
  -30.8137  -14.6317   21.0834 C   0  0  0  0  0  0  0  0  0  0  0  0
  -26.0232  -31.1406   23.2379 C   0  0  0  0  0  0  0  0  0  0  0  0
  -26.8173  -24.5179   21.2319 C   0  0  0  0  0  0  0  0  0  0  0  0
  -29.7447  -24.1762   21.4737 C   0  0  0  0  0  0  0  0  0  0  0  0
  -27.2082  -30.2624   23.6313 C   0  0  0  0  0  0  0  0  0  0  0  0
  -29.6389  -12.4625   18.3238 C   0  0  0  0  0  0  0  0  0  0  0  0
  -28.0181  -29.8748   22.3982 C   0  0  0  0  0  0  0  0  0  0  0  0
  -28.2127  -12.1213   18.7523 C   0  0  0  0  0  0  0  0  0  0  0  0
  -30.5406  -12.7391   19.5229 C   0  0  0  0  0  0  0  0  0  0  0  0
  -28.5910  -13.4457   20.8698 C   0  0  0  0  0  0  0  0  0  0  0  0
  -27.1697  -29.0593   21.4149 C   0  0  1  0  0  0  0  0  0  0  0  0
  -27.6493  -25.3701   22.1852 C   0  0  1  0  0  0  0  0  0  0  0  0
  -27.6451  -13.2069   19.6833 C   0  0  2  0  0  0  0  0  0  0  0  0
  -31.7744  -17.2436   16.8351 C   0  0  0  0  0  0  0  0  0  0  0  0
  -32.0128  -20.7075   26.5696 C   0  0  0  0  0  0  0  0  0  0  0  0
  -31.7963  -26.6919   23.7393 C   0  0  0  0  0  0  0  0  0  0  0  0
  -33.1175  -24.9256   24.9238 C   0  0  0  0  0  0  0  0  0  0  0  0
  -31.1567  -25.9793   26.0496 C   0  0  0  0  0  0  0  0  0  0  0  0
  -31.1670  -16.8717   22.0514 C   0  0  0  0  0  0  0  0  0  0  0  0
  -29.0848  -19.6737   24.3709 C   0  0  0  0  0  0  0  0  0  0  0  0
  -30.0457  -19.5091   16.1084 C   0  0  0  0  0  0  0  0  0  0  0  0
  -29.0893  -16.4595   20.7869 C   0  0  0  0  0  0  0  0  0  0  0  0
  -31.2090  -20.4945   16.2396 C   0  0  0  0  0  0  0  0  0  0  0  0
  -30.9754  -21.5672   17.2971 C   0  0  0  0  0  0  0  0  0  1  0  0
  -30.7706  -24.3581   24.1484 C   0  0  1  0  0  0  0  0  0  0  0  0
  -30.7485  -20.9235   25.7525 C   0  0  2  0  0  0  0  0  0  0  0  0
  -31.6970  -25.4829   24.6908 C   0  0  0  0  0  0  0  0  0  0  0  0
  -28.7482  -19.0518   18.1127 N   0  0  0  0  0  0  0  0  0  0  0  0
  -25.8882  -11.5942   20.3114 N   0  0  0  0  0  0  0  0  0  0  0  0
  -30.4037  -16.8930   18.7938 N   0  0  0  0  0  0  0  0  0  0  0  0
  -26.2364  -12.8813   20.1438 N   0  0  0  0  0  0  0  0  0  0  0  0
  -28.9148  -24.7330   22.5549 N   0  0  0  0  0  0  0  0  0  0  0  0
  -29.9570  -13.7429   20.4134 N   0  0  0  0  0  0  0  0  0  0  0  0
  -25.4145  -15.0969   20.3062 N   0  0  0  0  0  0  0  0  0  0  0  0
  -21.8737  -12.5792   21.5390 N   0  0  0  0  0  0  0  0  0  0  0  0
  -27.0419  -27.6918   21.8712 N   0  0  0  0  0  0  0  0  0  0  0  0
  -30.6362  -23.2122   25.0413 N   0  0  0  0  0  0  0  0  0  0  0  0
  -30.3125  -15.9109   21.3683 N   0  0  0  0  0  0  0  0  0  0  0  0
  -30.3292  -19.6130   25.1801 N   0  3  0  0  0  0  0  0  0  0  0  0
  -22.6023  -14.7262   21.1955 O   0  0  0  0  0  0  0  0  0  0  0  0
  -29.0307  -26.8638   20.9871 O   0  0  0  0  0  0  0  0  0  0  0  0
  -28.6990  -25.3097   24.8037 O   0  0  0  0  0  0  0  0  0  0  0  0
  -31.4091  -21.6257   23.5370 O   0  0  0  0  0  0  0  0  0  0  0  0
  -31.9645  -14.3038   21.4000 O   0  0  0  0  0  0  0  0  0  0  0  0
  -21.7303   -7.0179   21.8341 O   0  0  0  0  0  0  0  0  0  0  0  0
  -29.7977  -22.2975   16.9565 O   0  0  0  0  0  0  0  0  0  1  0  0
  -18.6845   -6.9317   26.4297 F   0  0  0  0  0  0  0  0  0  0  0  0
  -19.6896   -8.8431   22.2176 F   0  0  0  0  0  0  0  0  0  0  0  0
  1  2  1  0  0  0  0
  1  5  2  0  0  0  0
  2  6  2  0  0  0  0
  3  8  2  0  0  0  0
  3 16  1  0  0  0  0
  4  9  1  0  0  0  0
  4 16  2  0  0  0  0
  5 18  1  0  0  0  0
  6 20  1  0  0  0  0
  7 10  2  0  0  0  0
  7 19  1  0  0  0  0
  8 22  1  0  0  0  0
  9 22  2  0  0  0  0
 10 23  1  0  0  0  0
 11 12  2  0  0  0  0
 11 24  1  0  0  0  0
 12 25  1  0  0  0  0
 13 21  1  0  0  0  0
 13 23  2  0  0  0  0
 14 25  2  0  0  0  0
 14 26  1  0  0  0  0
 15 28  1  0  0  0  0
 15 63  2  0  0  0  0
 16 27  1  0  0  0  0
 17 27  1  0  0  0  0
 17 31  2  0  0  0  0
 17 32  1  0  0  0  0
 18 20  2  0  0  0  0
 18 37  1  0  0  0  0
 19 21  2  0  0  0  0
 19 38  1  0  0  0  0
 20 46  1  0  0  0  0
 21 39  1  0  0  0  0
 22 80  1  0  0  0  0
 23 81  1  0  0  0  0
 24 26  2  0  0  0  0
 24 80  1  0  0  0  0
 25 82  1  0  0  0  0
 26 83  1  0  0  0  0
 27 64  2  0  0  0  0
 28 57  1  0  0  0  0
 28 65  2  0  0  0  0
 29 30  2  0  0  0  0
 29 49  1  0  0  0  0
 29 65  1  0  0  0  0
 30 56  1  0  0  0  0
 30 63  1  0  0  0  0
 31 66  1  0  0  0  0
 31 69  1  0  0  0  0
 32 70  1  0  0  0  0
 32 75  2  0  0  0  0
 33 47  1  0  0  0  0
 33 71  1  0  0  0  0
 33 76  2  0  0  0  0
 34 60  1  0  0  0  0
 34 67  1  0  0  0  0
 34 77  2  0  0  0  0
 35 61  1  0  0  0  0
 35 72  1  0  0  0  0
 35 78  2  0  0  0  0
 36 68  1  0  0  0  0
 36 73  1  0  0  0  0
 36 79  2  0  0  0  0
 37 40  1  0  0  0  0
 38 47  1  0  0  0  0
 39 67  1  0  0  0  0
 40 42  1  0  0  0  0
 41 43  1  0  0  0  0
 41 44  1  0  0  0  0
 42 46  1  0  0  0  0
 43 48  1  0  0  0  0
 44 68  1  0  0  0  0
 45 48  1  0  0  0  0
 45 68  1  0  0  0  0
 46 71  1  0  0  0  0
 47 67  1  0  0  0  0
 48 66  1  0  0  0  0
 50 61  1  0  0  0  0
 51 62  1  0  0  0  0
 52 62  1  0  0  0  0
 53 62  1  0  0  0  0
 54 73  1  0  0  0  0
 55 74  1  0  0  0  0
 56 58  1  0  0  0  0
 57 73  1  0  0  0  0
 58 59  1  0  0  0  0
 59 81  1  0  0  0  0
 60 62  1  0  0  0  0
 60 72  1  0  0  0  0
 61 74  1  0  0  0  0
 64 66  1  0  0  0  0
M  CHG  1  74   1
M  ISO  4  36 100  59 101  73 100  81 101
M  END
> <Batch ID>
0055

> <Smiles>
CNC(C)C(=O)NC(C(=O)N1Cc2cc([101O:1][101CH2:1]CCc3ncc(C[100N:0](C)[100C:0](=O)N4CCCC(n5nc(-c6ccc(Oc7ccc(F)cc7F)cc6)c(C(N)=O)c5N)C4)nc3C)ccc2CC1C(=O)NC1CCCc2ccccc21)C(C)(C)C

> <Shape>
0.304

> <Color>
0.211

> <Negative vol penalty>
0.000

$$$$

  -OEChem-04052317433D

 79 87  0     1  0  0  0  0  0999 V2000
  -30.4707  -29.1311    8.5318 C   0  0  0  0  0  0  0  0  0  0  0  0
  -30.8882  -28.7714    9.8092 C   0  0  0  0  0  0  0  0  0  0  0  0
  -23.0743   -9.8683   19.9415 C   0  0  0  0  0  0  0  0  0  0  0  0
  -23.8383   -9.8740   22.2335 C   0  0  0  0  0  0  0  0  0  0  0  0
  -29.6010  -28.3019    7.8247 C   0  0  0  0  0  0  0  0  0  0  0  0
  -30.4355  -27.5828   10.3807 C   0  0  0  0  0  0  0  0  0  0  0  0
  -32.5397  -22.3622   14.8117 C   0  0  0  0  0  0  0  0  0  0  0  0
  -22.3319   -8.7143   20.1918 C   0  0  0  0  0  0  0  0  0  0  0  0
  -23.0958   -8.7200   22.4839 C   0  0  0  0  0  0  0  0  0  0  0  0
  -32.1218  -21.6900   15.9595 C   0  0  0  0  0  0  0  0  0  0  0  0
  -19.8693   -7.9191   23.0914 C   0  0  0  0  0  0  0  0  0  0  0  0
  -19.1145   -7.8776   24.2636 C   0  0  0  0  0  0  0  0  0  0  0  0
  -30.6840  -20.2974   14.6131 C   0  0  0  0  0  0  0  0  0  0  0  0
  -31.4767  -18.5201   19.9968 C   0  0  0  0  0  0  0  0  0  0  0  0
  -20.3588   -5.9405   24.9963 C   0  0  0  0  0  0  0  0  0  0  0  0
  -29.5306  -19.6448   19.8646 C   0  0  0  0  0  0  0  0  0  0  0  0
  -23.8276  -10.4481   20.9623 C   0  0  0  0  0  0  0  0  0  0  0  0
  -24.1671  -12.9736   20.8437 C   0  0  0  0  0  0  0  0  0  0  0  0
  -29.1450  -27.0978    8.3839 C   0  0  0  0  0  0  0  0  0  0  0  0
  -32.0238  -22.0137   13.5552 C   0  0  0  0  0  0  0  0  0  0  0  0
  -29.5578  -26.7374    9.6809 C   0  0  0  0  0  0  0  0  0  0  0  0
  -31.0989  -20.9650   13.4506 C   0  0  0  0  0  0  0  0  0  0  0  0
  -30.7943  -19.5627   19.3227 C   0  0  0  0  0  0  0  0  0  0  0  0
  -22.3425   -8.1402   21.4630 C   0  0  0  0  0  0  0  0  0  0  0  0
  -31.1917  -20.6594   15.8606 C   0  0  0  0  0  0  0  0  0  0  0  0
  -20.8689   -6.9713   22.8716 C   0  0  0  0  0  0  0  0  0  0  0  0
  -19.3592   -6.8883   25.2161 C   0  0  0  0  0  0  0  0  0  0  0  0
  -21.1136   -5.9820   23.8241 C   0  0  0  0  0  0  0  0  0  0  0  0
  -24.5952  -11.6398   20.7042 C   0  0  0  0  0  0  0  0  0  0  0  0
  -30.6091  -17.9967   20.9300 C   0  0  0  0  0  0  0  0  0  0  0  0
  -25.2580  -13.7243   20.4791 C   0  0  0  0  0  0  0  0  0  0  0  0
  -22.8969  -13.4881   21.2653 C   0  0  0  0  0  0  0  0  0  0  0  0
  -30.3269  -23.5216   11.3303 C   0  0  0  0  0  0  0  0  0  0  0  0
  -30.8634  -20.8077    9.6364 C   0  0  0  0  0  0  0  0  0  0  0  0
  -31.5862  -17.4725    9.6608 C   0  0  0  0  0  0  0  0  0  0  0  0
  -30.7412  -14.7478   20.6586 C   0  0  0  0  0  0  0  0  0  0  0  0
  -28.1684  -26.2573    7.6000 C   0  0  0  0  0  0  0  0  0  0  0  0
  -32.5049  -22.7307   12.3236 C   0  0  0  0  0  0  0  0  0  0  0  0
  -30.5300  -20.5388   12.1228 C   0  0  0  0  0  0  0  0  0  0  0  0
  -28.0310  -24.8315    8.1280 C   0  0  0  0  0  0  0  0  0  0  0  0
  -29.6014  -12.3643   18.2719 C   0  0  0  0  0  0  0  0  0  0  0  0
  -27.8747  -24.8369    9.6453 C   0  0  0  0  0  0  0  0  0  0  0  0
  -28.1650  -12.0690   18.7072 C   0  0  0  0  0  0  0  0  0  0  0  0
  -30.5205  -12.5849   19.4714 C   0  0  0  0  0  0  0  0  0  0  0  0
  -28.6206  -13.3132   20.8619 C   0  0  0  0  0  0  0  0  0  0  0  0
  -29.1082  -25.4438   10.3248 C   0  0  1  0  0  0  0  0  0  0  0  0
  -31.5273  -22.6350   11.1563 C   0  0  1  0  0  0  0  0  0  0  0  0
  -27.6445  -13.1388   19.6859 C   0  0  2  0  0  0  0  0  0  0  0  0
  -31.9227  -15.5185    8.1226 C   0  0  0  0  0  0  0  0  0  0  0  0
  -27.8472  -20.6246    9.2132 C   0  0  0  0  0  0  0  0  0  0  0  0
  -28.1585  -18.2364    8.5291 C   0  0  0  0  0  0  0  0  0  0  0  0
  -29.2193  -20.0612    7.1996 C   0  0  0  0  0  0  0  0  0  0  0  0
  -28.2488  -18.4574   21.6441 C   0  0  0  0  0  0  0  0  0  0  0  0
  -34.3713  -17.0791   10.5813 C   0  0  0  0  0  0  0  0  0  0  0  0
  -31.3453  -20.4203   18.2218 C   0  0  0  0  0  0  0  0  0  1  0  0
  -30.8075  -16.8974   21.8972 C   0  0  0  0  0  0  0  0  0  0  0  0
  -30.1496  -19.4868    9.4793 C   0  0  1  0  0  0  0  0  0  0  0  0
  -32.5962  -16.6550    8.8760 C   0  0  2  0  0  0  0  0  0  0  0  0
  -28.8527  -19.6113    8.6307 C   0  0  0  0  0  0  0  0  0  0  0  0
  -25.8594  -11.5454   20.2836 N   0  0  0  0  0  0  0  0  0  0  0  0
  -29.4292  -18.6879   20.8405 N   0  0  0  0  0  0  0  0  0  0  0  0
  -26.2350  -12.8294   20.1556 N   0  0  0  0  0  0  0  0  0  0  0  0
  -31.0269  -21.2746   10.9483 N   0  0  0  0  0  0  0  0  0  0  0  0
  -29.9706  -13.6122   20.3592 N   0  0  0  0  0  0  0  0  0  0  0  0
  -25.4672  -15.0560   20.4068 N   0  0  0  0  0  0  0  0  0  0  0  0
  -21.8864  -12.5778   21.6036 N   0  0  0  0  0  0  0  0  0  0  0  0
  -30.1934  -24.4867   10.3503 N   0  0  0  0  0  0  0  0  0  0  0  0
  -31.1315  -18.5542    8.9367 N   0  0  0  0  0  0  0  0  0  0  0  0
  -30.1428  -15.6754   21.5025 N   0  0  0  0  0  0  0  0  0  0  0  0
  -33.6154  -16.0716    9.7935 N   0  3  0  0  0  0  0  0  0  0  0  0
  -22.6598  -14.7184   21.3241 O   0  0  0  0  0  0  0  0  0  0  0  0
  -29.5764  -23.3425   12.2823 O   0  0  0  0  0  0  0  0  0  0  0  0
  -31.2676  -21.3999    8.6326 O   0  0  0  0  0  0  0  0  0  0  0  0
  -31.2329  -17.1786   10.8007 O   0  0  0  0  0  0  0  0  0  0  0  0
  -31.8762  -14.9246   20.2032 O   0  0  0  0  0  0  0  0  0  0  0  0
  -21.6180   -7.0143   21.7077 O   0  0  0  0  0  0  0  0  0  0  0  0
  -30.7816  -20.0021   16.9794 O   0  0  0  0  0  0  0  0  0  1  0  0
  -18.6353   -6.8495   26.3424 F   0  0  0  0  0  0  0  0  0  0  0  0
  -22.0734   -5.0695   23.6190 F   0  0  0  0  0  0  0  0  0  0  0  0
  1  2  1  0  0  0  0
  1  5  2  0  0  0  0
  2  6  2  0  0  0  0
  3  8  2  0  0  0  0
  3 17  1  0  0  0  0
  4  9  1  0  0  0  0
  4 17  2  0  0  0  0
  5 19  1  0  0  0  0
  6 21  1  0  0  0  0
  7 10  2  0  0  0  0
  7 20  1  0  0  0  0
  8 24  1  0  0  0  0
  9 24  2  0  0  0  0
 10 25  1  0  0  0  0
 11 12  2  0  0  0  0
 11 26  1  0  0  0  0
 12 27  1  0  0  0  0
 13 22  1  0  0  0  0
 13 25  2  0  0  0  0
 14 23  1  0  0  0  0
 14 30  2  0  0  0  0
 15 27  2  0  0  0  0
 15 28  1  0  0  0  0
 16 23  2  0  0  0  0
 16 61  1  0  0  0  0
 17 29  1  0  0  0  0
 18 29  1  0  0  0  0
 18 31  2  0  0  0  0
 18 32  1  0  0  0  0
 19 21  2  0  0  0  0
 19 37  1  0  0  0  0
 20 22  2  0  0  0  0
 20 38  1  0  0  0  0
 21 46  1  0  0  0  0
 22 39  1  0  0  0  0
 23 55  1  0  0  0  0
 24 76  1  0  0  0  0
 25 77  1  0  0  0  0
 26 28  2  0  0  0  0
 26 76  1  0  0  0  0
 27 78  1  0  0  0  0
 28 79  1  0  0  0  0
 29 60  2  0  0  0  0
 30 56  1  0  0  0  0
 30 61  1  0  0  0  0
 31 62  1  0  0  0  0
 31 65  1  0  0  0  0
 32 66  1  0  0  0  0
 32 71  2  0  0  0  0
 33 47  1  0  0  0  0
 33 67  1  0  0  0  0
 33 72  2  0  0  0  0
 34 57  1  0  0  0  0
 34 63  1  0  0  0  0
 34 73  2  0  0  0  0
 35 58  1  0  0  0  0
 35 68  1  0  0  0  0
 35 74  2  0  0  0  0
 36 64  1  0  0  0  0
 36 69  1  0  0  0  0
 36 75  2  0  0  0  0
 37 40  1  0  0  0  0
 38 47  1  0  0  0  0
 39 63  1  0  0  0  0
 40 42  1  0  0  0  0
 41 43  1  0  0  0  0
 41 44  1  0  0  0  0
 42 46  1  0  0  0  0
 43 48  1  0  0  0  0
 44 64  1  0  0  0  0
 45 48  1  0  0  0  0
 45 64  1  0  0  0  0
 46 67  1  0  0  0  0
 47 63  1  0  0  0  0
 48 62  1  0  0  0  0
 49 58  1  0  0  0  0
 50 59  1  0  0  0  0
 51 59  1  0  0  0  0
 52 59  1  0  0  0  0
 53 61  1  0  0  0  0
 54 70  1  0  0  0  0
 55 77  1  0  0  0  0
 56 69  1  0  0  0  0
 57 59  1  0  0  0  0
 57 68  1  0  0  0  0
 58 70  1  0  0  0  0
 60 62  1  0  0  0  0
M  CHG  1  70   1
M  ISO  4  36 100  55 101  69 100  77 101
M  END
> <Batch ID>
0055

> <Smiles>
CNC(C)C(=O)NC(C(=O)N1Cc2cc([101O:1][101CH2:1]c3cc(C[100NH:0][100C:0](=O)N4CCCC(n5nc(-c6ccc(Oc7ccc(F)cc7F)cc6)c(C(N)=O)c5N)C4)n(C)c3)ccc2CC1C(=O)NC1CCCc2ccccc21)C(C)(C)C

> <Shape>
0.189

> <Color>
0.200

> <Negative vol penalty>
0.000

$$$$

  -OEChem-04052317433D

 80 88  0     1  0  0  0  0  0999 V2000
  -20.5821  -25.5134   25.3220 C   0  0  0  0  0  0  0  0  0  0  0  0
  -21.6376  -25.4900   24.4161 C   0  0  0  0  0  0  0  0  0  0  0  0
  -25.0058  -16.7285   21.1162 C   0  0  0  0  0  0  0  0  0  0  0  0
  -25.4720  -16.1290   18.8227 C   0  0  0  0  0  0  0  0  0  0  0  0
  -19.4971  -26.3617   25.1048 C   0  0  0  0  0  0  0  0  0  0  0  0
  -21.6083  -26.3143   23.2917 C   0  0  0  0  0  0  0  0  0  0  0  0
  -26.0308  -28.6415   22.4730 C   0  0  0  0  0  0  0  0  0  0  0  0
  -24.1152  -15.6594   21.2146 C   0  0  0  0  0  0  0  0  0  0  0  0
  -24.5815  -15.0599   18.9211 C   0  0  0  0  0  0  0  0  0  0  0  0
  -27.0471  -27.8890   21.8859 C   0  0  0  0  0  0  0  0  0  0  0  0
  -24.5768  -11.9345   20.2065 C   0  0  0  0  0  0  0  0  0  0  0  0
  -24.9842  -10.7042   19.6910 C   0  0  0  0  0  0  0  0  0  0  0  0
  -31.4064  -26.1030   20.1136 C   0  0  0  0  0  0  0  0  0  0  0  0
  -26.5464  -28.8908   19.7494 C   0  0  0  0  0  0  0  0  0  0  0  0
  -23.1125  -10.7244   18.1634 C   0  0  0  0  0  0  0  0  0  0  0  0
  -32.3113  -25.4127   19.3331 C   0  0  0  0  0  0  0  0  0  0  0  0
  -25.6841  -16.9633   19.9202 C   0  0  0  0  0  0  0  0  0  0  0  0
  -27.9826  -18.0551   20.1012 C   0  0  0  0  0  0  0  0  0  0  0  0
  -19.4590  -27.2038   23.9823 C   0  0  0  0  0  0  0  0  0  0  0  0
  -25.2562  -29.5176   21.6993 C   0  0  0  0  0  0  0  0  0  0  0  0
  -20.5212  -27.1738   23.0586 C   0  0  0  0  0  0  0  0  0  0  0  0
  -25.5225  -29.6551   20.3295 C   0  0  0  0  0  0  0  0  0  0  0  0
  -23.9031  -14.8251   20.1171 C   0  0  0  0  0  0  0  0  0  0  0  0
  -27.3032  -28.0114   20.5234 C   0  0  0  0  0  0  0  0  0  0  0  0
  -23.4372  -12.5598   19.7005 C   0  0  0  0  0  0  0  0  0  0  0  0
  -24.2521  -10.0991   18.6694 C   0  0  0  0  0  0  0  0  0  0  0  0
  -22.7051  -11.9548   18.6790 C   0  0  0  0  0  0  0  0  0  0  0  0
  -26.6037  -18.0679   19.8178 C   0  0  0  0  0  0  0  0  0  0  0  0
  -30.0895  -25.7094   19.9904 C   0  0  0  0  0  0  0  0  0  0  0  0
  -28.3969  -19.3400   19.8487 C   0  0  0  0  0  0  0  0  0  0  0  0
  -30.6537  -24.1231   18.4632 C   0  0  0  0  0  0  0  0  0  0  0  0
  -28.8145  -16.9780   20.5523 C   0  0  0  0  0  0  0  0  0  0  0  0
  -22.1719  -29.7274   20.9594 C   0  0  0  0  0  0  0  0  0  0  0  0
  -23.0940  -32.5115   19.5734 C   0  0  0  0  0  0  0  0  0  0  0  0
  -25.5995  -34.3652   18.1831 C   0  0  0  0  0  0  0  0  0  0  0  0
  -28.2027  -23.6906   16.1947 C   0  0  0  0  0  0  0  0  0  0  0  0
  -18.2430  -28.0693   23.7651 C   0  0  0  0  0  0  0  0  0  0  0  0
  -24.1811  -30.3421   22.3528 C   0  0  0  0  0  0  0  0  0  0  0  0
  -24.7329  -30.5968   19.4587 C   0  0  0  0  0  0  0  0  0  0  0  0
  -18.4631  -29.1840   22.7457 C   0  0  0  0  0  0  0  0  0  0  0  0
  -25.7604  -23.5563   18.9730 C   0  0  0  0  0  0  0  0  0  0  0  0
  -19.1543  -28.6392   21.4998 C   0  0  0  0  0  0  0  0  0  0  0  0
  -25.8320  -22.0938   19.4089 C   0  0  0  0  0  0  0  0  0  0  0  0
  -26.1063  -23.7256   17.4967 C   0  0  0  0  0  0  0  0  0  0  0  0
  -27.4920  -21.6785   17.5509 C   0  0  0  0  0  0  0  0  0  0  0  0
  -20.5374  -28.0711   21.8402 C   0  0  1  0  0  0  0  0  0  0  0  0
  -23.1161  -30.8214   21.3713 C   0  0  1  0  0  0  0  0  0  0  0  0
  -27.1944  -21.4788   19.0446 C   0  0  2  0  0  0  0  0  0  0  0  0
  -26.0400  -36.5884   17.1058 C   0  0  0  0  0  0  0  0  0  0  0  0
  -21.7673  -31.5283   17.0076 C   0  0  0  0  0  0  0  0  0  0  0  0
  -23.0319  -33.2926   15.7602 C   0  0  0  0  0  0  0  0  0  0  0  0
  -21.3872  -33.9469   17.5179 C   0  0  0  0  0  0  0  0  0  0  0  0
  -30.4787  -24.1355   15.3570 C   0  0  0  0  0  0  0  0  0  0  0  0
  -27.5359  -35.1311   20.2862 C   0  0  0  0  0  0  0  0  0  0  0  0
  -29.0323  -26.4021   20.7990 C   0  0  0  0  0  0  0  0  0  1  0  0
  -30.2356  -23.0244   17.5461 C   0  0  0  0  0  0  0  0  0  0  0  0
  -23.5892  -32.9117   18.2046 C   0  0  1  0  0  0  0  0  0  0  0  0
  -26.0327  -35.8027   18.4078 C   0  0  2  0  0  0  0  0  0  0  0  0
  -22.4577  -32.9006   17.1384 C   0  0  0  0  0  0  0  0  0  0  0  0
  -31.9683  -24.4136   18.4938 N   0  0  0  0  0  0  0  0  0  0  0  0
  -26.1709  -19.2659   19.4161 N   0  0  0  0  0  0  0  0  0  0  0  0
  -29.6762  -24.7198   19.1718 N   0  0  0  0  0  0  0  0  0  0  0  0
  -27.2843  -20.0180   19.4455 N   0  0  0  0  0  0  0  0  0  0  0  0
  -23.6882  -31.3765   20.1430 N   0  0  0  0  0  0  0  0  0  0  0  0
  -27.3851  -23.0946   17.1689 N   0  0  0  0  0  0  0  0  0  0  0  0
  -29.6008  -19.9448   19.9346 N   0  0  0  0  0  0  0  0  0  0  0  0
  -28.2273  -15.7228   20.7618 N   0  0  0  0  0  0  0  0  0  0  0  0
  -21.4953  -29.1421   22.0126 N   0  0  0  0  0  0  0  0  0  0  0  0
  -24.2426  -34.2057   18.3691 N   0  0  0  0  0  0  0  0  0  0  0  0
  -29.5891  -23.5265   16.3356 N   0  0  0  0  0  0  0  0  0  0  0  0
  -27.4037  -35.8455   18.9903 N   0  3  0  0  0  0  0  0  0  0  0  0
  -30.0390  -17.1285   20.7791 O   0  0  0  0  0  0  0  0  0  0  0  0
  -22.0642  -29.4369   19.7738 O   0  0  0  0  0  0  0  0  0  0  0  0
  -22.2174  -33.1854   20.1202 O   0  0  0  0  0  0  0  0  0  0  0  0
  -26.3856  -33.4738   17.8700 O   0  0  0  0  0  0  0  0  0  0  0  0
  -27.7214  -24.3408   15.2579 O   0  0  0  0  0  0  0  0  0  0  0  0
  -23.0344  -13.7817   20.2128 O   0  0  0  0  0  0  0  0  0  0  0  0
  -28.2942  -27.2777   19.9477 O   0  0  0  0  0  0  0  0  0  1  0  0
  -24.6444   -8.9183   18.1734 F   0  0  0  0  0  0  0  0  0  0  0  0
  -21.6101  -12.5513   18.1880 F   0  0  0  0  0  0  0  0  0  0  0  0
  1  2  1  0  0  0  0
  1  5  2  0  0  0  0
  2  6  2  0  0  0  0
  3  8  2  0  0  0  0
  3 17  1  0  0  0  0
  4  9  1  0  0  0  0
  4 17  2  0  0  0  0
  5 19  1  0  0  0  0
  6 21  1  0  0  0  0
  7 10  2  0  0  0  0
  7 20  1  0  0  0  0
  8 23  1  0  0  0  0
  9 23  2  0  0  0  0
 10 24  1  0  0  0  0
 11 12  2  0  0  0  0
 11 25  1  0  0  0  0
 12 26  1  0  0  0  0
 13 16  2  0  0  0  0
 13 29  1  0  0  0  0
 14 22  1  0  0  0  0
 14 24  2  0  0  0  0
 15 26  2  0  0  0  0
 15 27  1  0  0  0  0
 16 60  1  0  0  0  0
 17 28  1  0  0  0  0
 18 28  1  0  0  0  0
 18 30  2  0  0  0  0
 18 32  1  0  0  0  0
 19 21  2  0  0  0  0
 19 37  1  0  0  0  0
 20 22  2  0  0  0  0
 20 38  1  0  0  0  0
 21 46  1  0  0  0  0
 22 39  1  0  0  0  0
 23 77  1  0  0  0  0
 24 78  1  0  0  0  0
 25 27  2  0  0  0  0
 25 77  1  0  0  0  0
 26 79  1  0  0  0  0
 27 80  1  0  0  0  0
 28 61  2  0  0  0  0
 29 55  1  0  0  0  0
 29 62  2  0  0  0  0
 30 63  1  0  0  0  0
 30 66  1  0  0  0  0
 31 56  1  0  0  0  0
 31 60  2  0  0  0  0
 31 62  1  0  0  0  0
 32 67  1  0  0  0  0
 32 72  2  0  0  0  0
 33 47  1  0  0  0  0
 33 68  1  0  0  0  0
 33 73  2  0  0  0  0
 34 57  1  0  0  0  0
 34 64  1  0  0  0  0
 34 74  2  0  0  0  0
 35 58  1  0  0  0  0
 35 69  1  0  0  0  0
 35 75  2  0  0  0  0
 36 65  1  0  0  0  0
 36 70  1  0  0  0  0
 36 76  2  0  0  0  0
 37 40  1  0  0  0  0
 38 47  1  0  0  0  0
 39 64  1  0  0  0  0
 40 42  1  0  0  0  0
 41 43  1  0  0  0  0
 41 44  1  0  0  0  0
 42 46  1  0  0  0  0
 43 48  1  0  0  0  0
 44 65  1  0  0  0  0
 45 48  1  0  0  0  0
 45 65  1  0  0  0  0
 46 68  1  0  0  0  0
 47 64  1  0  0  0  0
 48 63  1  0  0  0  0
 49 58  1  0  0  0  0
 50 59  1  0  0  0  0
 51 59  1  0  0  0  0
 52 59  1  0  0  0  0
 53 70  1  0  0  0  0
 54 71  1  0  0  0  0
 55 78  1  0  0  0  0
 56 70  1  0  0  0  0
 57 59  1  0  0  0  0
 57 69  1  0  0  0  0
 58 71  1  0  0  0  0
 61 63  1  0  0  0  0
M  CHG  1  71   1
M  ISO  4  36 100  55 101  70 100  78 101
M  END
> <Batch ID>
0055

> <Smiles>
CNC(C)C(=O)NC(C(=O)N1Cc2cc([101O:1][101CH2:1]c3ccnc(C[100N:0](C)[100C:0](=O)N4CCCC(n5nc(-c6ccc(Oc7ccc(F)cc7F)cc6)c(C(N)=O)c5N)C4)n3)ccc2CC1C(=O)NC1CCCc2ccccc21)C(C)(C)C

> <Shape>
0.218

> <Color>
0.103

> <Negative vol penalty>
0.000

$$$$

  -OEChem-04052317433D

 83 91  0     1  0  0  0  0  0999 V2000
  -17.0409  -28.8634   24.5748 C   0  0  0  0  0  0  0  0  0  0  0  0
  -17.7215  -27.7986   23.9931 C   0  0  0  0  0  0  0  0  0  0  0  0
  -26.4458  -12.8097   20.0865 C   0  0  0  0  0  0  0  0  0  0  0  0
  -25.1471  -14.6390   20.9834 C   0  0  0  0  0  0  0  0  0  0  0  0
  -17.3288  -30.1703   24.1837 C   0  0  0  0  0  0  0  0  0  0  0  0
  -18.6898  -28.0401   23.0192 C   0  0  0  0  0  0  0  0  0  0  0  0
  -22.8906  -25.3043   23.7357 C   0  0  0  0  0  0  0  0  0  0  0  0
  -25.6863  -20.7642   20.5963 C   0  0  0  0  0  0  0  0  0  0  0  0
  -25.6856  -11.9061   20.8289 C   0  0  0  0  0  0  0  0  0  0  0  0
  -24.3869  -13.7353   21.7257 C   0  0  0  0  0  0  0  0  0  0  0  0
  -22.8507  -23.9642   23.3534 C   0  0  0  0  0  0  0  0  0  0  0  0
  -23.8525   -9.0871   22.2103 C   0  0  0  0  0  0  0  0  0  0  0  0
  -23.4079   -7.9319   21.5673 C   0  0  0  0  0  0  0  0  0  0  0  0
  -27.0023  -20.9286   20.1787 C   0  0  0  0  0  0  0  0  0  0  0  0
  -24.0049  -24.5192   21.3091 C   0  0  0  0  0  0  0  0  0  0  0  0
  -22.2005   -9.2852   19.9710 C   0  0  0  0  0  0  0  0  0  0  0  0
  -26.1766  -14.1762   20.1638 C   0  0  0  0  0  0  0  0  0  0  0  0
  -26.7035  -15.5675   18.0915 C   0  0  0  0  0  0  0  0  0  0  0  0
  -18.3079  -30.4285   23.2114 C   0  0  0  0  0  0  0  0  0  0  0  0
  -23.4794  -26.2653   22.9012 C   0  0  0  0  0  0  0  0  0  0  0  0
  -18.9901  -29.3516   22.6137 C   0  0  0  0  0  0  0  0  0  0  0  0
  -24.0534  -25.8704   21.6843 C   0  0  0  0  0  0  0  0  0  0  0  0
  -25.4219  -20.1745   21.8274 C   0  0  0  0  0  0  0  0  0  0  0  0
  -24.6561  -12.3688   21.6484 C   0  0  0  0  0  0  0  0  0  0  0  0
  -23.4053  -23.5718   22.1386 C   0  0  0  0  0  0  0  0  0  0  0  0
  -23.4711  -10.3414   21.7337 C   0  0  0  0  0  0  0  0  0  0  0  0
  -22.5819   -8.0309   20.4477 C   0  0  0  0  0  0  0  0  0  0  0  0
  -22.6451  -10.4404   20.6141 C   0  0  0  0  0  0  0  0  0  0  0  0
  -26.9619  -15.1102   19.3977 C   0  0  0  0  0  0  0  0  0  0  0  0
  -28.0100  -20.4900   21.0224 C   0  0  0  0  0  0  0  0  0  0  0  0
  -26.5004  -19.7694   22.5972 C   0  0  0  0  0  0  0  0  0  0  0  0
  -27.7347  -16.4334   17.8206 C   0  0  0  0  0  0  0  0  0  0  0  0
  -25.6276  -15.2388   17.2026 C   0  0  0  0  0  0  0  0  0  0  0  0
  -22.4411  -28.8606   21.3879 C   0  0  0  0  0  0  0  0  0  0  0  0
  -25.5843  -29.2269   20.6751 C   0  0  0  0  0  0  0  0  0  0  0  0
  -28.6498  -27.7837   20.2664 C   0  0  0  0  0  0  0  0  0  0  0  0
  -31.3215  -19.4385   21.7756 C   0  0  0  0  0  0  0  0  0  0  0  0
  -18.5510  -31.8552   22.7870 C   0  0  0  0  0  0  0  0  0  0  0  0
  -23.5382  -27.7027   23.3403 C   0  0  0  0  0  0  0  0  0  0  0  0
  -24.7152  -26.8600   20.7617 C   0  0  0  0  0  0  0  0  0  0  0  0
  -19.8556  -32.0481   22.0181 C   0  0  0  0  0  0  0  0  0  0  0  0
  -32.3040  -17.2950   18.9223 C   0  0  0  0  0  0  0  0  0  0  0  0
  -20.0074  -30.9734   20.9462 C   0  0  0  0  0  0  0  0  0  0  0  0
  -31.0362  -16.4826   18.6640 C   0  0  0  0  0  0  0  0  0  0  0  0
  -32.4172  -17.7205   20.3831 C   0  0  0  0  0  0  0  0  0  0  0  0
  -29.9584  -17.6419   20.6324 C   0  0  0  0  0  0  0  0  0  0  0  0
  -20.0647  -29.5745   21.5717 C   0  0  1  0  0  0  0  0  0  0  0  0
  -23.7060  -28.6762   22.1777 C   0  0  1  0  0  0  0  0  0  0  0  0
  -29.7905  -17.2371   19.1602 C   0  0  2  0  0  0  0  0  0  0  0  0
  -27.5585  -19.0488   24.7531 C   0  0  0  0  0  0  0  0  0  0  0  0
  -31.0184  -28.3324   19.6453 C   0  0  0  0  0  0  0  0  0  0  0  0
  -24.7681  -29.4183   17.7413 C   0  0  0  0  0  0  0  0  0  0  0  0
  -27.1590  -29.0088   17.1216 C   0  0  0  0  0  0  0  0  0  0  0  0
  -26.5432  -31.0363   18.4379 C   0  0  0  0  0  0  0  0  0  0  0  0
  -30.4493  -21.5686   22.6597 C   0  0  0  0  0  0  0  0  0  0  0  0
  -29.6697  -26.8860   22.8957 C   0  0  0  0  0  0  0  0  0  0  0  0
  -23.9954  -19.9921   22.2857 C   0  0  0  0  0  0  0  0  0  0  0  0
  -26.2768  -19.1328   23.9297 C   0  0  0  0  0  0  0  0  0  0  0  0
  -29.4340  -20.6523   20.6066 C   0  0  0  0  0  0  0  0  0  0  0  0
  -23.3825  -21.2887   22.8038 C   0  0  0  0  0  0  0  0  0  1  0  0
  -26.4870  -28.7690   19.5551 C   0  0  1  0  0  0  0  0  0  0  0  0
  -30.0230  -28.1721   20.7838 C   0  0  2  0  0  0  0  0  0  0  0  0
  -26.2252  -29.5395   18.2302 C   0  0  0  0  0  0  0  0  0  0  0  0
  -28.0703  -15.6416   19.9202 N   0  0  0  0  0  0  0  0  0  0  0  0
  -27.7922  -19.9125   22.2252 N   0  0  0  0  0  0  0  0  0  0  0  0
  -28.5176  -16.4417   18.9373 N   0  0  0  0  0  0  0  0  0  0  0  0
  -24.7419  -28.2546   21.2325 N   0  0  0  0  0  0  0  0  0  0  0  0
  -31.2031  -18.3968   20.8410 N   0  0  0  0  0  0  0  0  0  0  0  0
  -28.0390  -17.1809   16.7385 N   0  0  0  0  0  0  0  0  0  0  0  0
  -24.6531  -14.3315   17.6400 N   0  0  0  0  0  0  0  0  0  0  0  0
  -21.3748  -29.3255   22.1338 N   0  0  0  0  0  0  0  0  0  0  0  0
  -27.8520  -28.8884   20.0561 N   0  0  0  0  0  0  0  0  0  0  0  0
  -30.3621  -20.4608   21.7190 N   0  0  0  0  0  0  0  0  0  0  0  0
  -30.5391  -27.1302   21.7160 N   0  3  0  0  0  0  0  0  0  0  0  0
  -25.5422  -15.7225   16.0484 O   0  0  0  0  0  0  0  0  0  0  0  0
  -22.4335  -28.6018   20.1902 O   0  0  0  0  0  0  0  0  0  0  0  0
  -25.6303  -30.4023   21.0467 O   0  0  0  0  0  0  0  0  0  0  0  0
  -28.3192  -26.6172   20.0652 O   0  0  0  0  0  0  0  0  0  0  0  0
  -32.2384  -19.4589   22.6068 O   0  0  0  0  0  0  0  0  0  0  0  0
  -23.9140  -11.4873   22.3728 O   0  0  0  0  0  0  0  0  0  0  0  0
  -23.3670  -22.2645   21.7627 O   0  0  0  0  0  0  0  0  0  1  0  0
  -22.1563   -6.9216   19.8294 F   0  0  0  0  0  0  0  0  0  0  0  0
  -22.2763  -11.6426   20.1509 F   0  0  0  0  0  0  0  0  0  0  0  0
  1  2  1  0  0  0  0
  1  5  2  0  0  0  0
  2  6  2  0  0  0  0
  3  9  2  0  0  0  0
  3 17  1  0  0  0  0
  4 10  1  0  0  0  0
  4 17  2  0  0  0  0
  5 19  1  0  0  0  0
  6 21  1  0  0  0  0
  7 11  2  0  0  0  0
  7 20  1  0  0  0  0
  8 14  2  0  0  0  0
  8 23  1  0  0  0  0
  9 24  1  0  0  0  0
 10 24  2  0  0  0  0
 11 25  1  0  0  0  0
 12 13  2  0  0  0  0
 12 26  1  0  0  0  0
 13 27  1  0  0  0  0
 14 30  1  0  0  0  0
 15 22  1  0  0  0  0
 15 25  2  0  0  0  0
 16 27  2  0  0  0  0
 16 28  1  0  0  0  0
 17 29  1  0  0  0  0
 18 29  1  0  0  0  0
 18 32  2  0  0  0  0
 18 33  1  0  0  0  0
 19 21  2  0  0  0  0
 19 38  1  0  0  0  0
 20 22  2  0  0  0  0
 20 39  1  0  0  0  0
 21 47  1  0  0  0  0
 22 40  1  0  0  0  0
 23 31  2  0  0  0  0
 23 57  1  0  0  0  0
 24 80  1  0  0  0  0
 25 81  1  0  0  0  0
 26 28  2  0  0  0  0
 26 80  1  0  0  0  0
 27 82  1  0  0  0  0
 28 83  1  0  0  0  0
 29 64  2  0  0  0  0
 30 59  1  0  0  0  0
 30 65  2  0  0  0  0
 31 58  1  0  0  0  0
 31 65  1  0  0  0  0
 32 66  1  0  0  0  0
 32 69  1  0  0  0  0
 33 70  1  0  0  0  0
 33 75  2  0  0  0  0
 34 48  1  0  0  0  0
 34 71  1  0  0  0  0
 34 76  2  0  0  0  0
 35 61  1  0  0  0  0
 35 67  1  0  0  0  0
 35 77  2  0  0  0  0
 36 62  1  0  0  0  0
 36 72  1  0  0  0  0
 36 78  2  0  0  0  0
 37 68  1  0  0  0  0
 37 73  1  0  0  0  0
 37 79  2  0  0  0  0
 38 41  1  0  0  0  0
 39 48  1  0  0  0  0
 40 67  1  0  0  0  0
 41 43  1  0  0  0  0
 42 44  1  0  0  0  0
 42 45  1  0  0  0  0
 43 47  1  0  0  0  0
 44 49  1  0  0  0  0
 45 68  1  0  0  0  0
 46 49  1  0  0  0  0
 46 68  1  0  0  0  0
 47 71  1  0  0  0  0
 48 67  1  0  0  0  0
 49 66  1  0  0  0  0
 50 58  1  0  0  0  0
 51 62  1  0  0  0  0
 52 63  1  0  0  0  0
 53 63  1  0  0  0  0
 54 63  1  0  0  0  0
 55 73  1  0  0  0  0
 56 74  1  0  0  0  0
 57 60  1  0  0  0  0
 59 73  1  0  0  0  0
 60 81  1  0  0  0  0
 61 63  1  0  0  0  0
 61 72  1  0  0  0  0
 62 74  1  0  0  0  0
 64 66  1  0  0  0  0
M  CHG  1  74   1
M  ISO  4  37 100  60 101  73 100  81 101
M  END
> <Batch ID>
0055

> <Smiles>
CCc1nc(C[100N:0](C)[100C:0](=O)N2CCCC(n3nc(-c4ccc(Oc5ccc(F)cc5F)cc4)c(C(N)=O)c3N)C2)ccc1C[101CH2:1][101O:1]c1ccc2c(c1)CN(C(=O)C(NC(=O)C(C)NC)C(C)(C)C)C(C(=O)NC1CCCc3ccccc31)C2

> <Shape>
0.228

> <Color>
0.087

> <Negative vol penalty>
0.000

$$$$

  -OEChem-04052317433D

 81 89  0     1  0  0  0  0  0999 V2000
  -21.7100  -11.5165   20.0014 C   0  0  0  0  0  0  0  0  0  0  0  0
  -21.6106  -12.6385   20.8178 C   0  0  0  0  0  0  0  0  0  0  0  0
  -26.0742  -29.7389   21.2692 C   0  0  0  0  0  0  0  0  0  0  0  0
  -24.8850  -27.8699   20.3049 C   0  0  0  0  0  0  0  0  0  0  0  0
  -22.9642  -11.0470   19.6133 C   0  0  0  0  0  0  0  0  0  0  0  0
  -22.7656  -13.2912   21.2475 C   0  0  0  0  0  0  0  0  0  0  0  0
  -22.4156  -18.3270   20.8438 C   0  0  0  0  0  0  0  0  0  0  0  0
  -27.2198  -29.3752   20.5614 C   0  0  0  0  0  0  0  0  0  0  0  0
  -26.0306  -27.5062   19.5971 C   0  0  0  0  0  0  0  0  0  0  0  0
  -21.6823  -18.9949   21.8236 C   0  0  0  0  0  0  0  0  0  0  0  0
  -30.5627  -28.7280   19.2848 C   0  0  0  0  0  0  0  0  0  0  0  0
  -31.7779  -28.7306   19.9694 C   0  0  0  0  0  0  0  0  0  0  0  0
  -23.7341  -19.5975   22.9399 C   0  0  0  0  0  0  0  0  0  0  0  0
  -30.9106  -27.0891   21.5154 C   0  0  0  0  0  0  0  0  0  0  0  0
  -24.9068  -28.9862   21.1410 C   0  0  0  0  0  0  0  0  0  0  0  0
  -22.7010  -30.2305   21.4471 C   0  0  0  0  0  0  0  0  0  0  0  0
  -24.1347  -11.7000   20.0306 C   0  0  0  0  0  0  0  0  0  0  0  0
  -23.8156  -18.2800   20.9108 C   0  0  0  0  0  0  0  0  0  0  0  0
  -24.0366  -12.8292   20.8658 C   0  0  0  0  0  0  0  0  0  0  0  0
  -24.4830  -18.9305   21.9583 C   0  0  0  0  0  0  0  0  0  0  0  0
  -27.1980  -28.2589   19.7254 C   0  0  0  0  0  0  0  0  0  0  0  0
  -22.3414  -19.6278   22.8734 C   0  0  0  0  0  0  0  0  0  0  0  0
  -29.5213  -27.9059   19.7156 C   0  0  0  0  0  0  0  0  0  0  0  0
  -31.9519  -27.9112   21.0847 C   0  0  0  0  0  0  0  0  0  0  0  0
  -29.6953  -27.0865   20.8308 C   0  0  0  0  0  0  0  0  0  0  0  0
  -23.7233  -29.3610   21.8723 C   0  0  0  0  0  0  0  0  0  0  0  0
  -21.8128  -30.2542   22.4945 C   0  0  0  0  0  0  0  0  0  0  0  0
  -20.3572  -21.5358   27.8249 C   0  0  0  0  0  0  0  0  0  0  0  0
  -21.4096  -21.5414   25.8427 C   0  0  0  0  0  0  0  0  0  0  0  0
  -19.9794  -23.1923   26.3585 C   0  0  0  0  0  0  0  0  0  0  0  0
  -22.5664  -30.9521   20.2156 C   0  0  0  0  0  0  0  0  0  0  0  0
  -25.9713  -15.9606   21.1882 C   0  0  0  0  0  0  0  0  0  0  0  0
  -28.0723  -18.3932   20.7512 C   0  0  0  0  0  0  0  0  0  0  0  0
  -28.7166  -21.7380   20.9619 C   0  0  0  0  0  0  0  0  0  0  0  0
  -20.5854  -26.3765   26.8886 C   0  0  0  0  0  0  0  0  0  0  0  0
  -25.4695  -11.1275   19.6240 C   0  0  0  0  0  0  0  0  0  0  0  0
  -24.5933  -17.5781   19.8315 C   0  0  0  0  0  0  0  0  0  0  0  0
  -25.9854  -18.9267   22.0649 C   0  0  0  0  0  0  0  0  0  0  0  0
  -26.6323  -12.0978   19.8159 C   0  0  0  0  0  0  0  0  0  0  0  0
  -21.6167  -29.7651   27.2498 C   0  0  0  0  0  0  0  0  0  0  0  0
  -26.5540  -12.7602   21.1877 C   0  0  0  0  0  0  0  0  0  0  0  0
  -22.1813  -30.1242   25.8742 C   0  0  0  0  0  0  0  0  0  0  0  0
  -21.9314  -28.3198   27.6292 C   0  0  0  0  0  0  0  0  0  0  0  0
  -22.0853  -27.6733   25.2560 C   0  0  0  0  0  0  0  0  0  0  0  0
  -25.2655  -13.5790   21.3322 C   0  0  1  0  0  0  0  0  0  0  0  0
  -25.9896  -17.1567   20.2790 C   0  0  1  0  0  0  0  0  0  0  0  0
  -21.7452  -29.1042   24.8053 C   0  0  2  0  0  0  0  0  0  0  0  0
  -20.0984  -20.8984   29.1475 C   0  0  0  0  0  0  0  0  0  0  0  0
  -18.4111  -24.3235   24.7391 C   0  0  0  0  0  0  0  0  0  0  0  0
  -30.5350  -23.4223   20.5699 C   0  0  0  0  0  0  0  0  0  0  0  0
  -29.4561  -17.4928   23.3172 C   0  0  0  0  0  0  0  0  0  0  0  0
  -30.6212  -19.7078   23.3836 C   0  0  0  0  0  0  0  0  0  0  0  0
  -31.0087  -18.1536   21.4713 C   0  0  0  0  0  0  0  0  0  0  0  0
  -27.1073  -23.1764   18.9371 C   0  0  0  0  0  0  0  0  0  0  0  0
  -22.3679  -20.9064   24.8785 C   0  0  0  0  0  0  0  0  0  1  0  0
  -19.2861  -24.4607   25.9938 C   0  0  2  0  0  0  0  0  0  0  0  0
  -28.7941  -19.3586   21.6600 C   0  0  1  0  0  0  0  0  0  0  0  0
  -29.3324  -22.7095   19.9713 C   0  0  2  0  0  0  0  0  0  0  0  0
  -29.9416  -18.6768   22.4573 C   0  0  0  0  0  0  0  0  0  0  0  0
  -23.5058  -28.8682   23.0945 N   0  0  0  0  0  0  0  0  0  0  0  0
  -21.2265  -20.9111   27.0140 N   0  0  0  0  0  0  0  0  0  0  0  0
  -19.6974  -22.6763   27.5656 N   0  0  0  0  0  0  0  0  0  0  0  0
  -20.8224  -22.6820   25.4463 N   0  0  0  0  0  0  0  0  0  0  0  0
  -22.3367  -29.4299   23.4464 N   0  0  0  0  0  0  0  0  0  0  0  0
  -26.7011  -18.2217   20.9887 N   0  0  0  0  0  0  0  0  0  0  0  0
  -21.4912  -27.4032   26.5747 N   0  0  0  0  0  0  0  0  0  0  0  0
  -20.6425  -30.8997   22.6849 N   0  0  0  0  0  0  0  0  0  0  0  0
  -23.5701  -30.8141   19.2471 N   0  0  0  0  0  0  0  0  0  0  0  0
  -25.3864  -14.8394   20.6313 N   0  0  0  0  0  0  0  0  0  0  0  0
  -29.2291  -20.4662   20.8159 N   0  0  0  0  0  0  0  0  0  0  0  0
  -20.2150  -25.5566   25.8297 N   0  0  0  0  0  0  0  0  0  0  0  0
  -28.3325  -23.7365   19.5632 N   0  3  0  0  0  0  0  0  0  0  0  0
  -21.5932  -31.7101   19.9874 O   0  0  0  0  0  0  0  0  0  0  0  0
  -26.4536  -16.0481   22.3114 O   0  0  0  0  0  0  0  0  0  0  0  0
  -28.7003  -17.8180   19.8589 O   0  0  0  0  0  0  0  0  0  0  0  0
  -27.8687  -22.0744   21.7855 O   0  0  0  0  0  0  0  0  0  0  0  0
  -20.1357  -26.2067   28.0269 O   0  0  0  0  0  0  0  0  0  0  0  0
  -28.3156  -27.9039   19.0344 O   0  0  0  0  0  0  0  0  0  0  0  0
  -21.6280  -20.2799   23.8314 O   0  0  0  0  0  0  0  0  0  1  0  0
  -33.1195  -27.9127   21.7410 F   0  0  0  0  0  0  0  0  0  0  0  0
  -28.6989  -26.2938   21.2487 F   0  0  0  0  0  0  0  0  0  0  0  0
  1  2  1  0  0  0  0
  1  5  2  0  0  0  0
  2  6  2  0  0  0  0
  3  8  2  0  0  0  0
  3 15  1  0  0  0  0
  4  9  1  0  0  0  0
  4 15  2  0  0  0  0
  5 17  1  0  0  0  0
  6 19  1  0  0  0  0
  7 10  2  0  0  0  0
  7 18  1  0  0  0  0
  8 21  1  0  0  0  0
  9 21  2  0  0  0  0
 10 22  1  0  0  0  0
 11 12  2  0  0  0  0
 11 23  1  0  0  0  0
 12 24  1  0  0  0  0
 13 20  1  0  0  0  0
 13 22  2  0  0  0  0
 14 24  2  0  0  0  0
 14 25  1  0  0  0  0
 15 26  1  0  0  0  0
 16 26  1  0  0  0  0
 16 27  2  0  0  0  0
 16 31  1  0  0  0  0
 17 19  2  0  0  0  0
 17 36  1  0  0  0  0
 18 20  2  0  0  0  0
 18 37  1  0  0  0  0
 19 45  1  0  0  0  0
 20 38  1  0  0  0  0
 21 78  1  0  0  0  0
 22 79  1  0  0  0  0
 23 25  2  0  0  0  0
 23 78  1  0  0  0  0
 24 80  1  0  0  0  0
 25 81  1  0  0  0  0
 26 60  2  0  0  0  0
 27 64  1  0  0  0  0
 27 67  1  0  0  0  0
 28 48  1  0  0  0  0
 28 61  2  0  0  0  0
 28 62  1  0  0  0  0
 29 55  1  0  0  0  0
 29 61  1  0  0  0  0
 29 63  2  0  0  0  0
 30 56  1  0  0  0  0
 30 62  2  0  0  0  0
 30 63  1  0  0  0  0
 31 68  1  0  0  0  0
 31 73  2  0  0  0  0
 32 46  1  0  0  0  0
 32 69  1  0  0  0  0
 32 74  2  0  0  0  0
 33 57  1  0  0  0  0
 33 65  1  0  0  0  0
 33 75  2  0  0  0  0
 34 58  1  0  0  0  0
 34 70  1  0  0  0  0
 34 76  2  0  0  0  0
 35 66  1  0  0  0  0
 35 71  1  0  0  0  0
 35 77  2  0  0  0  0
 36 39  1  0  0  0  0
 37 46  1  0  0  0  0
 38 65  1  0  0  0  0
 39 41  1  0  0  0  0
 40 42  1  0  0  0  0
 40 43  1  0  0  0  0
 41 45  1  0  0  0  0
 42 47  1  0  0  0  0
 43 66  1  0  0  0  0
 44 47  1  0  0  0  0
 44 66  1  0  0  0  0
 45 69  1  0  0  0  0
 46 65  1  0  0  0  0
 47 64  1  0  0  0  0
 49 56  1  0  0  0  0
 50 58  1  0  0  0  0
 51 59  1  0  0  0  0
 52 59  1  0  0  0  0
 53 59  1  0  0  0  0
 54 72  1  0  0  0  0
 55 79  1  0  0  0  0
 56 71  1  0  0  0  0
 57 59  1  0  0  0  0
 57 70  1  0  0  0  0
 58 72  1  0  0  0  0
 60 64  1  0  0  0  0
M  CHG  1  72   1
M  ISO  4  35 100  55 101  71 100  79 101
M  END
> <Batch ID>
0055

> <Smiles>
CNC(C)C(=O)NC(C(=O)N1Cc2cc([101O:1][101CH2:1]c3nc(C)nc(C(C)[100NH:0][100C:0](=O)N4CCCC(n5nc(-c6ccc(Oc7ccc(F)cc7F)cc6)c(C(N)=O)c5N)C4)n3)ccc2CC1C(=O)NC1CCCc2ccccc21)C(C)(C)C

> <Shape>
0.212

> <Color>
0.069

> <Negative vol penalty>
0.000

$$$$

  -OEChem-04052317433D

 86 94  0     1  0  0  0  0  0999 V2000
  -19.8298  -25.0746   24.9446 C   0  0  0  0  0  0  0  0  0  0  0  0
  -21.1774  -25.3850   24.7925 C   0  0  0  0  0  0  0  0  0  0  0  0
  -31.4982  -22.1002   24.6566 C   0  0  0  0  0  0  0  0  0  0  0  0
  -29.6034  -23.5990   24.6792 C   0  0  0  0  0  0  0  0  0  0  0  0
  -18.8720  -25.7389   24.1796 C   0  0  0  0  0  0  0  0  0  0  0  0
  -21.5680  -26.3593   23.8745 C   0  0  0  0  0  0  0  0  0  0  0  0
  -25.0234  -29.5398   25.7692 C   0  0  0  0  0  0  0  0  0  0  0  0
  -31.7472  -22.3946   25.9970 C   0  0  0  0  0  0  0  0  0  0  0  0
  -29.8524  -23.8934   26.0197 C   0  0  0  0  0  0  0  0  0  0  0  0
  -26.3395  -29.0845   25.8351 C   0  0  0  0  0  0  0  0  0  0  0  0
  -33.0969  -23.0270   29.3139 C   0  0  0  0  0  0  0  0  0  0  0  0
  -34.4160  -23.2809   29.6895 C   0  0  0  0  0  0  0  0  0  0  0  0
  -26.8572  -30.3081   23.8216 C   0  0  0  0  0  0  0  0  0  0  0  0
  -34.4947  -25.1441   28.1534 C   0  0  0  0  0  0  0  0  0  0  0  0
  -30.4263  -22.7024   23.9976 C   0  0  0  0  0  0  0  0  0  0  0  0
  -29.3504  -21.3723   22.1053 C   0  0  0  0  0  0  0  0  0  0  0  0
  -19.2503  -26.7286   23.2587 C   0  0  0  0  0  0  0  0  0  0  0  0
  -24.6109  -30.3753   24.7212 C   0  0  0  0  0  0  0  0  0  0  0  0
  -20.6145  -27.0365   23.0955 C   0  0  0  0  0  0  0  0  0  0  0  0
  -25.5360  -30.7747   23.7461 C   0  0  0  0  0  0  0  0  0  0  0  0
  -30.9243  -23.2912   26.6786 C   0  0  0  0  0  0  0  0  0  0  0  0
  -27.2559  -29.4663   24.8597 C   0  0  0  0  0  0  0  0  0  0  0  0
  -32.4767  -23.8315   28.3580 C   0  0  0  0  0  0  0  0  0  0  0  0
  -35.1149  -24.3395   29.1093 C   0  0  0  0  0  0  0  0  0  0  0  0
  -33.1756  -24.8901   27.7778 C   0  0  0  0  0  0  0  0  0  0  0  0
  -30.1690  -22.3991   22.6127 C   0  0  0  0  0  0  0  0  0  0  0  0
  -29.4384  -21.5056   20.7411 C   0  0  0  0  0  0  0  0  0  0  0  0
  -30.2297  -27.0191   21.3872 C   0  0  0  0  0  0  0  0  0  0  0  0
  -29.5691  -26.7363   19.3396 C   0  0  0  0  0  0  0  0  0  0  0  0
  -28.5793  -20.3863   22.8045 C   0  0  0  0  0  0  0  0  0  0  0  0
  -22.4772  -30.1455   22.3763 C   0  0  0  0  0  0  0  0  0  0  0  0
  -23.3111  -33.2342   21.8412 C   0  0  0  0  0  0  0  0  0  0  0  0
  -30.7663  -26.2104   17.2465 C   0  0  0  0  0  0  0  0  0  0  0  0
  -25.6442  -35.7035   22.1672 C   0  0  0  0  0  0  0  0  0  0  0  0
  -18.1829  -27.3861   22.4202 C   0  0  0  0  0  0  0  0  0  0  0  0
  -23.1944  -30.8794   24.6792 C   0  0  0  0  0  0  0  0  0  0  0  0
  -25.1486  -31.6865   22.6117 C   0  0  0  0  0  0  0  0  0  0  0  0
  -18.6486  -28.6702   21.7387 C   0  0  0  0  0  0  0  0  0  0  0  0
  -32.3887  -23.0159   17.3012 C   0  0  0  0  0  0  0  0  0  0  0  0
  -20.0108  -28.4634   21.0842 C   0  0  0  0  0  0  0  0  0  0  0  0
  -31.9518  -22.4142   18.6362 C   0  0  0  0  0  0  0  0  0  0  0  0
  -32.5708  -24.5271   17.4027 C   0  0  0  0  0  0  0  0  0  0  0  0
  -30.9292  -24.6510   19.2497 C   0  0  0  0  0  0  0  0  0  0  0  0
  -21.0755  -28.1048   22.1279 C   0  0  1  0  0  0  0  0  0  0  0  0
  -22.7548  -31.3107   23.2834 C   0  0  1  0  0  0  0  0  0  0  0  0
  -30.7040  -23.1300   19.1832 C   0  0  2  0  0  0  0  0  0  0  0  0
  -31.4776  -29.5713   19.8132 C   0  0  0  0  0  0  0  0  0  0  0  0
  -25.9120  -25.9965   16.9786 C   0  0  0  0  0  0  0  0  0  0  0  0
  -26.0559  -38.1124   21.5972 C   0  0  0  0  0  0  0  0  0  0  0  0
  -29.4298  -28.2404   17.2365 C   0  0  0  0  0  0  0  0  0  0  0  0
  -23.8675  -32.4513   18.9450 C   0  0  0  0  0  0  0  0  0  0  0  0
  -25.1444  -34.5892   18.6856 C   0  0  0  0  0  0  0  0  0  0  0  0
  -22.7102  -34.6503   19.2274 C   0  0  0  0  0  0  0  0  0  0  0  0
  -25.8818  -36.4581   25.0191 C   0  0  0  0  0  0  0  0  0  0  0  0
  -28.4248  -24.6110   17.5479 C   0  0  0  0  0  0  0  0  0  0  0  0
  -31.0577  -27.4727   22.5629 C   0  0  0  0  0  0  0  0  0  0  0  0
  -30.2399  -27.7259   23.8312 C   0  0  0  0  0  0  0  0  0  0  0  0
  -31.6750  -28.0769   19.6254 C   0  0  0  0  0  0  0  0  0  0  0  0
  -27.0535  -26.6846   17.6947 C   0  0  0  0  0  0  0  0  0  0  0  0
  -29.2318  -28.8596   23.6833 C   0  0  0  0  0  0  0  0  0  1  0  0
  -24.3578  -33.9294   21.0044 C   0  0  1  0  0  0  0  0  0  0  0  0
  -25.5301  -37.1407   22.6423 C   0  0  2  0  0  0  0  0  0  0  0  0
  -29.5340  -26.8173   17.8686 C   0  0  2  0  0  0  0  0  0  0  0  0
  -24.0271  -33.8863   19.4858 C   0  0  0  0  0  0  0  0  0  0  0  0
  -30.7354  -23.1305   21.6494 N   0  0  0  0  0  0  0  0  0  0  0  0
  -29.1277  -26.3045   21.4232 N   0  0  0  0  0  0  0  0  0  0  0  0
  -28.7074  -26.1246   20.1204 N   0  0  0  0  0  0  0  0  0  0  0  0
  -30.2722  -22.5626   20.5229 N   0  0  0  0  0  0  0  0  0  0  0  0
  -30.5443  -27.3132   20.0952 N   0  0  0  0  0  0  0  0  0  0  0  0
  -23.7504  -32.1477   22.6108 N   0  0  0  0  0  0  0  0  0  0  0  0
  -31.3723  -25.1675   17.9473 N   0  0  0  0  0  0  0  0  0  0  0  0
  -28.8833  -20.8204   19.7190 N   0  0  0  0  0  0  0  0  0  0  0  0
  -28.6012  -20.3914   24.2059 N   0  0  0  0  0  0  0  0  0  0  0  0
  -21.4996  -29.2884   22.8446 N   0  0  0  0  0  0  0  0  0  0  0  0
  -24.4878  -35.2764   21.5496 N   0  0  0  0  0  0  0  0  0  0  0  0
  -26.3087  -37.3346   23.8981 N   0  3  0  0  0  0  0  0  0  0  0  0
  -28.3448  -26.0737   17.2620 N   0  3  1  0  0  0  0  0  0  0  0  0
  -27.9044  -19.5158   22.2042 O   0  0  0  0  0  0  0  0  0  0  0  0
  -23.1026  -30.0331   21.3285 O   0  0  0  0  0  0  0  0  0  0  0  0
  -22.1481  -33.6447   21.8185 O   0  0  0  0  0  0  0  0  0  0  0  0
  -31.1750  -26.6496   16.1683 O   0  0  0  0  0  0  0  0  0  0  0  0
  -26.6592  -35.0285   22.3248 O   0  0  0  0  0  0  0  0  0  0  0  0
  -31.1668  -23.5786   27.9867 O   0  0  0  0  0  0  0  0  0  0  0  0
  -28.5410  -29.0228   24.9212 O   0  0  0  0  0  0  0  0  0  1  0  0
  -36.3811  -24.5842   29.4713 F   0  0  0  0  0  0  0  0  0  0  0  0
  -32.5847  -25.6672   26.8598 F   0  0  0  0  0  0  0  0  0  0  0  0
  1  2  1  0  0  0  0
  1  5  2  0  0  0  0
  2  6  2  0  0  0  0
  3  8  2  0  0  0  0
  3 15  1  0  0  0  0
  4  9  1  0  0  0  0
  4 15  2  0  0  0  0
  5 17  1  0  0  0  0
  6 19  1  0  0  0  0
  7 10  2  0  0  0  0
  7 18  1  0  0  0  0
  8 21  1  0  0  0  0
  9 21  2  0  0  0  0
 10 22  1  0  0  0  0
 11 12  2  0  0  0  0
 11 23  1  0  0  0  0
 12 24  1  0  0  0  0
 13 20  1  0  0  0  0
 13 22  2  0  0  0  0
 14 24  2  0  0  0  0
 14 25  1  0  0  0  0
 15 26  1  0  0  0  0
 16 26  1  0  0  0  0
 16 27  2  0  0  0  0
 16 30  1  0  0  0  0
 17 19  2  0  0  0  0
 17 35  1  0  0  0  0
 18 20  2  0  0  0  0
 18 36  1  0  0  0  0
 19 44  1  0  0  0  0
 20 37  1  0  0  0  0
 21 83  1  0  0  0  0
 22 84  1  0  0  0  0
 23 25  2  0  0  0  0
 23 83  1  0  0  0  0
 24 85  1  0  0  0  0
 25 86  1  0  0  0  0
 26 65  2  0  0  0  0
 27 68  1  0  0  0  0
 27 72  1  0  0  0  0
 28 56  1  0  0  0  0
 28 66  2  0  0  0  0
 28 69  1  0  0  0  0
 29 63  1  0  0  0  0
 29 67  2  0  0  0  0
 29 69  1  0  0  0  0
 30 73  1  0  0  0  0
 30 78  2  0  0  0  0
 31 45  1  0  0  0  0
 31 74  1  0  0  0  0
 31 79  2  0  0  0  0
 32 61  1  0  0  0  0
 32 70  1  0  0  0  0
 32 80  2  0  0  0  0
 33 63  1  0  0  0  0
 33 71  1  0  0  0  0
 33 81  2  0  0  0  0
 34 62  1  0  0  0  0
 34 75  1  0  0  0  0
 34 82  2  0  0  0  0
 35 38  1  0  0  0  0
 36 45  1  0  0  0  0
 37 70  1  0  0  0  0
 38 40  1  0  0  0  0
 39 41  1  0  0  0  0
 39 42  1  0  0  0  0
 40 44  1  0  0  0  0
 41 46  1  0  0  0  0
 42 71  1  0  0  0  0
 43 46  1  0  0  0  0
 43 71  1  0  0  0  0
 44 74  1  0  0  0  0
 45 70  1  0  0  0  0
 46 68  1  0  0  0  0
 47 58  1  0  0  0  0
 48 59  1  0  0  0  0
 49 62  1  0  0  0  0
 50 63  1  0  0  0  0
 51 64  1  0  0  0  0
 52 64  1  0  0  0  0
 53 64  1  0  0  0  0
 54 76  1  0  0  0  0
 55 77  1  0  0  0  0
 56 57  1  0  0  0  0
 57 60  1  0  0  0  0
 58 69  1  0  0  0  0
 59 77  1  0  0  0  0
 60 84  1  0  0  0  0
 61 64  1  0  0  0  0
 61 75  1  0  0  0  0
 62 76  1  0  0  0  0
 63 77  1  0  0  0  0
 65 68  1  0  0  0  0
 66 67  1  0  0  0  0
M  CHG  2  76   1  77   1
M  ISO  4  33 100  60 101  63 100  84 101
M  END
> <Batch ID>
0055

> <Smiles>
CCN(C)[100C:0](C)(c1nnc(CC[101CH2:1][101O:1]c2ccc3c(c2)CN(C(=O)C(NC(=O)C(C)NC)C(C)(C)C)C(C(=O)NC2CCCc4ccccc42)C3)n1CC)[100C:0](=O)N1CCCC(n2nc(-c3ccc(Oc4ccc(F)cc4F)cc3)c(C(N)=O)c2N)C1

> <Shape>
0.213

> <Color>
0.115

> <Negative vol penalty>
0.000

$$$$

  -OEChem-04052317433D

 84 92  0     1  0  0  0  0  0999 V2000
  -16.6495  -29.5032   24.5504 C   0  0  0  0  0  0  0  0  0  0  0  0
  -17.5510  -28.4578   24.3774 C   0  0  0  0  0  0  0  0  0  0  0  0
  -24.2600   -9.2590   20.1430 C   0  0  0  0  0  0  0  0  0  0  0  0
  -22.9345  -10.1078   21.9759 C   0  0  0  0  0  0  0  0  0  0  0  0
  -16.8028  -30.6822   23.8221 C   0  0  0  0  0  0  0  0  0  0  0  0
  -18.6058  -28.5904   23.4751 C   0  0  0  0  0  0  0  0  0  0  0  0
  -24.2427  -26.2625   24.0331 C   0  0  0  0  0  0  0  0  0  0  0  0
  -23.5747   -8.0460   20.2091 C   0  0  0  0  0  0  0  0  0  0  0  0
  -22.2491   -8.8947   22.0420 C   0  0  0  0  0  0  0  0  0  0  0  0
  -24.8424  -25.1202   23.5046 C   0  0  0  0  0  0  0  0  0  0  0  0
  -22.7866   -5.7938   23.2773 C   0  0  0  0  0  0  0  0  0  0  0  0
  -22.5813   -5.2333   24.5379 C   0  0  0  0  0  0  0  0  0  0  0  0
  -25.7627  -26.4417   21.7086 C   0  0  0  0  0  0  0  0  0  0  0  0
  -20.1920   -5.3344   24.1938 C   0  0  0  0  0  0  0  0  0  0  0  0
  -27.8975  -21.1545   22.1738 C   0  0  0  0  0  0  0  0  0  0  0  0
  -23.9399  -10.2900   21.0264 C   0  0  0  0  0  0  0  0  0  0  0  0
  -24.3068  -12.6718   20.1899 C   0  0  0  0  0  0  0  0  0  0  0  0
  -17.8656  -30.8329   22.9175 C   0  0  0  0  0  0  0  0  0  0  0  0
  -24.3898  -27.5032   23.3962 C   0  0  0  0  0  0  0  0  0  0  0  0
  -18.7727  -29.7720   22.7329 C   0  0  0  0  0  0  0  0  0  0  0  0
  -25.1660  -27.5987   22.2324 C   0  0  0  0  0  0  0  0  0  0  0  0
  -22.5692   -7.8638   21.1586 C   0  0  0  0  0  0  0  0  0  0  0  0
  -25.6001  -25.2092   22.3406 C   0  0  0  0  0  0  0  0  0  0  0  0
  -21.6946   -6.1246   22.4749 C   0  0  0  0  0  0  0  0  0  0  0  0
  -21.2840   -5.0035   24.9962 C   0  0  0  0  0  0  0  0  0  0  0  0
  -20.3974   -5.8949   22.9331 C   0  0  0  0  0  0  0  0  0  0  0  0
  -24.6479  -11.5431   20.9590 C   0  0  0  0  0  0  0  0  0  0  0  0
  -26.7260  -21.7734   21.8164 C   0  0  0  0  0  0  0  0  0  0  0  0
  -25.2874  -13.5904   20.4748 C   0  0  0  0  0  0  0  0  0  0  0  0
  -23.2024  -12.8721   19.2979 C   0  0  0  0  0  0  0  0  0  0  0  0
  -22.3990  -29.5832   22.0495 C   0  0  0  0  0  0  0  0  0  0  0  0
  -25.0764  -31.3993   21.8131 C   0  0  0  0  0  0  0  0  0  0  0  0
  -28.4834  -31.5324   21.6677 C   0  0  0  0  0  0  0  0  0  0  0  0
  -28.2997  -16.1009   24.5908 C   0  0  0  0  0  0  0  0  0  0  0  0
  -17.9630  -32.1080   22.1179 C   0  0  0  0  0  0  0  0  0  0  0  0
  -23.7587  -28.7307   23.9938 C   0  0  0  0  0  0  0  0  0  0  0  0
  -25.3715  -28.9106   21.5217 C   0  0  0  0  0  0  0  0  0  0  0  0
  -19.3244  -32.3105   21.4577 C   0  0  0  0  0  0  0  0  0  0  0  0
  -29.6755  -13.0962   22.9233 C   0  0  0  0  0  0  0  0  0  0  0  0
  -19.7802  -31.0277   20.7698 C   0  0  0  0  0  0  0  0  0  0  0  0
  -28.4400  -12.4865   22.2632 C   0  0  0  0  0  0  0  0  0  0  0  0
  -29.3159  -13.8904   24.1754 C   0  0  0  0  0  0  0  0  0  0  0  0
  -27.0506  -14.3306   23.2874 C   0  0  0  0  0  0  0  0  0  0  0  0
  -19.9441  -29.8872   21.7818 C   0  0  1  0  0  0  0  0  0  0  0  0
  -23.5497  -29.8498   22.9782 C   0  0  1  0  0  0  0  0  0  0  0  0
  -27.3730  -13.5625   21.9968 C   0  0  2  0  0  0  0  0  0  0  0  0
  -30.3833  -33.1555   21.4366 C   0  0  0  0  0  0  0  0  0  0  0  0
  -30.5417  -17.5197   22.3655 C   0  0  0  0  0  0  0  0  0  0  0  0
  -24.4749  -31.6757   18.8345 C   0  0  0  0  0  0  0  0  0  0  0  0
  -26.8290  -32.4607   18.5030 C   0  0  0  0  0  0  0  0  0  0  0  0
  -25.2681  -33.7752   19.9378 C   0  0  0  0  0  0  0  0  0  0  0  0
  -29.0799  -18.4506   19.7589 C   0  0  0  0  0  0  0  0  0  0  0  0
  -30.4879  -20.1613   20.8641 C   0  0  0  0  0  0  0  0  0  0  0  0
  -27.1873  -18.2984   24.7057 C   0  0  0  0  0  0  0  0  0  0  0  0
  -29.6080  -30.7689   24.2966 C   0  0  0  0  0  0  0  0  0  0  0  0
  -25.9828  -22.8690   22.5225 C   0  0  0  0  0  0  0  0  0  1  0  0
  -28.0288  -17.5276   22.5186 C   0  0  0  0  0  0  0  0  0  0  0  0
  -26.1663  -31.5679   20.7822 C   0  0  1  0  0  0  0  0  0  0  0  0
  -29.4901  -32.3964   22.4055 C   0  0  2  0  0  0  0  0  0  0  0  0
  -29.2839  -18.4085   22.3256 C   0  0  2  0  0  0  0  0  0  0  0  0
  -25.6793  -32.3447   19.5265 C   0  0  0  0  0  0  0  0  0  0  0  0
  -29.1920  -19.3235   21.0350 C   0  0  0  0  0  0  0  0  0  0  0  0
  -25.7584  -11.7256   21.6783 N   0  0  0  0  0  0  0  0  0  0  0  0
  -26.2659  -21.2435   20.6430 N   0  0  0  0  0  0  0  0  0  0  0  0
  -27.1222  -20.3045   20.2556 N   0  0  0  0  0  0  0  0  0  0  0  0
  -28.0997  -20.2526   21.1749 N   0  0  0  0  0  0  0  0  0  0  0  0
  -26.1238  -12.9797   21.3623 N   0  0  0  0  0  0  0  0  0  0  0  0
  -24.7289  -30.0813   22.1416 N   0  0  0  0  0  0  0  0  0  0  0  0
  -28.2692  -14.8762   23.9037 N   0  0  0  0  0  0  0  0  0  0  0  0
  -25.5072  -14.8529   20.0501 N   0  0  0  0  0  0  0  0  0  0  0  0
  -22.2882  -11.8247   19.1208 N   0  0  0  0  0  0  0  0  0  0  0  0
  -21.1811  -30.0383   22.5175 N   0  0  0  0  0  0  0  0  0  0  0  0
  -27.2887  -32.1929   21.4734 N   0  0  0  0  0  0  0  0  0  0  0  0
  -27.7784  -17.2208   23.9252 N   0  0  0  0  0  0  0  0  0  0  0  0
  -30.3542  -31.5534   23.2794 N   0  3  0  0  0  0  0  0  0  0  0  0
  -23.0404  -13.9422   18.6637 O   0  0  0  0  0  0  0  0  0  0  0  0
  -22.6014  -29.0086   20.9862 O   0  0  0  0  0  0  0  0  0  0  0  0
  -24.5575  -32.4002   22.3138 O   0  0  0  0  0  0  0  0  0  0  0  0
  -28.7332  -30.3875   21.2971 O   0  0  0  0  0  0  0  0  0  0  0  0
  -28.7748  -16.1902   25.7301 O   0  0  0  0  0  0  0  0  0  0  0  0
  -21.9001   -6.6803   21.2232 O   0  0  0  0  0  0  0  0  0  0  0  0
  -26.1860  -24.0956   21.8222 O   0  0  0  0  0  0  0  0  0  1  0  0
  -21.0871   -4.4639   26.2062 F   0  0  0  0  0  0  0  0  0  0  0  0
  -19.3444   -6.2096   22.1663 F   0  0  0  0  0  0  0  0  0  0  0  0
  1  2  1  0  0  0  0
  1  5  2  0  0  0  0
  2  6  2  0  0  0  0
  3  8  2  0  0  0  0
  3 16  1  0  0  0  0
  4  9  1  0  0  0  0
  4 16  2  0  0  0  0
  5 18  1  0  0  0  0
  6 20  1  0  0  0  0
  7 10  2  0  0  0  0
  7 19  1  0  0  0  0
  8 22  1  0  0  0  0
  9 22  2  0  0  0  0
 10 23  1  0  0  0  0
 11 12  2  0  0  0  0
 11 24  1  0  0  0  0
 12 25  1  0  0  0  0
 13 21  1  0  0  0  0
 13 23  2  0  0  0  0
 14 25  2  0  0  0  0
 14 26  1  0  0  0  0
 15 28  2  0  0  0  0
 15 66  1  0  0  0  0
 16 27  1  0  0  0  0
 17 27  1  0  0  0  0
 17 29  2  0  0  0  0
 17 30  1  0  0  0  0
 18 20  2  0  0  0  0
 18 35  1  0  0  0  0
 19 21  2  0  0  0  0
 19 36  1  0  0  0  0
 20 44  1  0  0  0  0
 21 37  1  0  0  0  0
 22 81  1  0  0  0  0
 23 82  1  0  0  0  0
 24 26  2  0  0  0  0
 24 81  1  0  0  0  0
 25 83  1  0  0  0  0
 26 84  1  0  0  0  0
 27 63  2  0  0  0  0
 28 56  1  0  0  0  0
 28 64  1  0  0  0  0
 29 67  1  0  0  0  0
 29 70  1  0  0  0  0
 30 71  1  0  0  0  0
 30 76  2  0  0  0  0
 31 45  1  0  0  0  0
 31 72  1  0  0  0  0
 31 77  2  0  0  0  0
 32 58  1  0  0  0  0
 32 68  1  0  0  0  0
 32 78  2  0  0  0  0
 33 59  1  0  0  0  0
 33 73  1  0  0  0  0
 33 79  2  0  0  0  0
 34 69  1  0  0  0  0
 34 74  1  0  0  0  0
 34 80  2  0  0  0  0
 35 38  1  0  0  0  0
 36 45  1  0  0  0  0
 37 68  1  0  0  0  0
 38 40  1  0  0  0  0
 39 41  1  0  0  0  0
 39 42  1  0  0  0  0
 40 44  1  0  0  0  0
 41 46  1  0  0  0  0
 42 69  1  0  0  0  0
 43 46  1  0  0  0  0
 43 69  1  0  0  0  0
 44 72  1  0  0  0  0
 45 68  1  0  0  0  0
 46 67  1  0  0  0  0
 47 59  1  0  0  0  0
 48 60  1  0  0  0  0
 49 61  1  0  0  0  0
 50 61  1  0  0  0  0
 51 61  1  0  0  0  0
 52 62  1  0  0  0  0
 53 62  1  0  0  0  0
 54 74  1  0  0  0  0
 55 75  1  0  0  0  0
 56 82  1  0  0  0  0
 57 60  1  0  0  0  0
 57 74  1  0  0  0  0
 58 61  1  0  0  0  0
 58 73  1  0  0  0  0
 59 75  1  0  0  0  0
 60 62  1  0  0  0  0
 62 66  1  0  0  0  0
 63 67  1  0  0  0  0
 64 65  2  0  0  0  0
 65 66  1  0  0  0  0
M  CHG  1  75   1
M  ISO  4  34 100  56 101  74 100  82 101
M  END
> <Batch ID>
0055

> <Smiles>
CNC(C)C(=O)NC(C(=O)N1Cc2cc([101O:1][101CH2:1]c3cn(C(C)(C)C(C)C[100N:0](C)[100C:0](=O)N4CCCC(n5nc(-c6ccc(Oc7ccc(F)cc7F)cc6)c(C(N)=O)c5N)C4)nn3)ccc2CC1C(=O)NC1CCCc2ccccc21)C(C)(C)C

> <Shape>
0.232

> <Color>
0.138

> <Negative vol penalty>
0.000

$$$$

  -OEChem-04052317433D

 80 88  0     1  0  0  0  0  0999 V2000
  -28.0096  -17.0417   13.6124 C   0  0  0  0  0  0  0  0  0  0  0  0
  -28.6536  -16.8493   14.8305 C   0  0  0  0  0  0  0  0  0  0  0  0
  -26.2698  -28.0750   18.9318 C   0  0  0  0  0  0  0  0  0  0  0  0
  -26.3575  -27.5475   21.2879 C   0  0  0  0  0  0  0  0  0  0  0  0
  -26.6385  -17.2927   13.5821 C   0  0  0  0  0  0  0  0  0  0  0  0
  -27.9270  -16.9088   16.0191 C   0  0  0  0  0  0  0  0  0  0  0  0
  -28.8773  -13.6006   21.0845 C   0  0  0  0  0  0  0  0  0  0  0  0
  -25.2015  -28.9409   19.1654 C   0  0  0  0  0  0  0  0  0  0  0  0
  -25.2892  -28.4135   21.5216 C   0  0  0  0  0  0  0  0  0  0  0  0
  -29.5371  -13.8837   22.2797 C   0  0  0  0  0  0  0  0  0  0  0  0
  -24.8059  -31.7441   21.8281 C   0  0  0  0  0  0  0  0  0  0  0  0
  -24.9040  -32.6134   22.9145 C   0  0  0  0  0  0  0  0  0  0  0  0
  -27.4328  -14.4916   23.2904 C   0  0  0  0  0  0  0  0  0  0  0  0
  -22.9192  -31.6307   23.8799 C   0  0  0  0  0  0  0  0  0  0  0  0
  -26.8478  -27.3782   19.9931 C   0  0  0  0  0  0  0  0  0  0  0  0
  -29.3225  -26.7998   19.7724 C   0  0  0  0  0  0  0  0  0  0  0  0
  -25.8929  -17.3457   14.7704 C   0  0  0  0  0  0  0  0  0  0  0  0
  -27.4894  -13.7716   20.9800 C   0  0  0  0  0  0  0  0  0  0  0  0
  -26.5448  -17.1621   16.0048 C   0  0  0  0  0  0  0  0  0  0  0  0
  -26.7574  -14.2075   22.0936 C   0  0  0  0  0  0  0  0  0  0  0  0
  -24.7113  -29.1102   20.4603 C   0  0  0  0  0  0  0  0  0  0  0  0
  -28.8153  -14.3320   23.3820 C   0  0  0  0  0  0  0  0  0  0  0  0
  -23.7645  -30.8181   21.7675 C   0  0  0  0  0  0  0  0  0  0  0  0
  -23.9606  -32.5567   23.9404 C   0  0  0  0  0  0  0  0  0  0  0  0
  -22.8211  -30.7614   22.7934 C   0  0  0  0  0  0  0  0  0  0  0  0
  -27.9509  -26.4832   19.7524 C   0  0  0  0  0  0  0  0  0  0  0  0
  -29.9528  -25.6139   19.4843 C   0  0  0  0  0  0  0  0  0  0  0  0
  -30.9789  -17.4197   26.0070 C   0  0  0  0  0  0  0  0  0  0  0  0
  -30.1825  -18.0008   23.9909 C   0  0  0  0  0  0  0  0  0  0  0  0
  -29.9231  -15.9002   24.7370 C   0  0  0  0  0  0  0  0  0  1  0  0
  -29.9690  -28.0536   20.0285 C   0  0  0  0  0  0  0  0  0  0  0  0
  -25.5812  -15.5962   19.2099 C   0  0  0  0  0  0  0  0  0  0  0  0
  -23.2436  -13.8493   20.6263 C   0  0  0  0  0  0  0  0  0  0  0  0
  -22.2609  -11.9283   23.2703 C   0  0  0  0  0  0  0  0  0  0  0  0
  -28.3606  -19.8813   20.1576 C   0  0  0  0  0  0  0  0  0  0  0  0
  -24.4215  -17.6669   14.6904 C   0  0  0  0  0  0  0  0  0  0  0  0
  -26.7890  -13.4364   19.6918 C   0  0  0  0  0  0  0  0  0  0  0  0
  -25.2631  -14.3881   22.0393 C   0  0  0  0  0  0  0  0  0  0  0  0
  -23.6567  -17.3422   15.9710 C   0  0  0  0  0  0  0  0  0  0  0  0
  -29.2984  -21.5012   17.1288 C   0  0  0  0  0  0  0  0  0  0  0  0
  -24.4117  -17.8623   17.1902 C   0  0  0  0  0  0  0  0  0  0  0  0
  -29.1832  -22.9903   17.4596 C   0  0  0  0  0  0  0  0  0  0  0  0
  -28.2086  -20.6838   17.8189 C   0  0  0  0  0  0  0  0  0  0  0  0
  -28.0055  -22.3652   19.6093 C   0  0  0  0  0  0  0  0  0  0  0  0
  -25.7865  -17.1945   17.3140 C   0  0  1  0  0  0  0  0  0  0  0  0
  -25.4423  -14.1378   19.5438 C   0  0  1  0  0  0  0  0  0  0  0  0
  -29.1170  -23.2233   18.9810 C   0  0  2  0  0  0  0  0  0  0  0  0
  -31.6882  -17.7808   27.2678 C   0  0  0  0  0  0  0  0  0  0  0  0
  -20.2807  -10.6732   24.1650 C   0  0  0  0  0  0  0  0  0  0  0  0
  -21.9550  -16.4849   21.4647 C   0  0  0  0  0  0  0  0  0  0  0  0
  -20.5698  -15.2037   23.1103 C   0  0  0  0  0  0  0  0  0  0  0  0
  -20.3459  -14.7436   20.6689 C   0  0  0  0  0  0  0  0  0  0  0  0
  -23.7181   -9.3532   23.2071 C   0  0  0  0  0  0  0  0  0  0  0  0
  -29.9775  -19.0300   22.9318 C   0  0  0  0  0  0  0  0  0  0  0  0
  -28.5066  -19.2333   22.5488 C   0  0  0  0  0  0  0  0  0  0  0  0
  -22.4256  -13.9818   21.8881 C   0  0  1  0  0  0  0  0  0  0  0  0
  -21.5507  -10.5881   23.3328 C   0  0  2  0  0  0  0  0  0  0  0  0
  -21.3525  -15.1021   21.7838 C   0  0  0  0  0  0  0  0  0  0  0  0
  -27.7226  -25.1970   19.4735 N   0  0  0  0  0  0  0  0  0  0  0  0
  -30.8301  -18.3971   25.0984 N   0  0  0  0  0  0  0  0  0  0  0  0
  -30.5529  -16.1511   25.8961 N   0  0  0  0  0  0  0  0  0  0  0  0
  -29.7015  -16.7724   23.7405 N   0  0  0  0  0  0  0  0  0  0  0  0
  -28.9592  -24.6950   19.3155 N   0  0  0  0  0  0  0  0  0  0  0  0
  -24.6247  -14.0532   20.7556 N   0  0  0  0  0  0  0  0  0  0  0  0
  -28.2002  -20.9494   19.2595 N   0  0  0  0  0  0  0  0  0  0  0  0
  -31.2546  -25.2780   19.3614 N   0  0  0  0  0  0  0  0  0  0  0  0
  -29.1714  -29.1718   20.3077 N   0  0  0  0  0  0  0  0  0  0  0  0
  -25.6527  -15.8589   17.8551 N   0  0  0  0  0  0  0  0  0  0  0  0
  -21.8811  -12.6565   22.1627 N   0  0  0  0  0  0  0  0  0  0  0  0
  -28.3471  -20.2210   21.5048 N   0  0  0  0  0  0  0  0  0  0  0  0
  -22.4411   -9.5578   23.9381 N   0  3  0  0  0  0  0  0  0  0  0  0
  -31.2163  -28.1823   19.9942 O   0  0  0  0  0  0  0  0  0  0  0  0
  -25.6191  -16.4222   20.1143 O   0  0  0  0  0  0  0  0  0  0  0  0
  -22.6789  -13.5679   19.5663 O   0  0  0  0  0  0  0  0  0  0  0  0
  -23.0688  -12.2944   24.1211 O   0  0  0  0  0  0  0  0  0  0  0  0
  -28.5105  -18.7124   19.7861 O   0  0  0  0  0  0  0  0  0  0  0  0
  -23.6690  -29.9553   20.6886 O   0  0  0  0  0  0  0  0  0  0  0  0
  -29.4569  -14.6096   24.5495 O   0  0  0  0  0  0  0  0  0  1  0  0
  -24.0557  -33.3905   24.9844 F   0  0  0  0  0  0  0  0  0  0  0  0
  -21.8191  -29.8731   22.7413 F   0  0  0  0  0  0  0  0  0  0  0  0
  1  2  1  0  0  0  0
  1  5  2  0  0  0  0
  2  6  2  0  0  0  0
  3  8  2  0  0  0  0
  3 15  1  0  0  0  0
  4  9  1  0  0  0  0
  4 15  2  0  0  0  0
  5 17  1  0  0  0  0
  6 19  1  0  0  0  0
  7 10  2  0  0  0  0
  7 18  1  0  0  0  0
  8 21  1  0  0  0  0
  9 21  2  0  0  0  0
 10 22  1  0  0  0  0
 11 12  2  0  0  0  0
 11 23  1  0  0  0  0
 12 24  1  0  0  0  0
 13 20  1  0  0  0  0
 13 22  2  0  0  0  0
 14 24  2  0  0  0  0
 14 25  1  0  0  0  0
 15 26  1  0  0  0  0
 16 26  1  0  0  0  0
 16 27  2  0  0  0  0
 16 31  1  0  0  0  0
 17 19  2  0  0  0  0
 17 36  1  0  0  0  0
 18 20  2  0  0  0  0
 18 37  1  0  0  0  0
 19 45  1  0  0  0  0
 20 38  1  0  0  0  0
 21 77  1  0  0  0  0
 22 78  1  0  0  0  0
 23 25  2  0  0  0  0
 23 77  1  0  0  0  0
 24 79  1  0  0  0  0
 25 80  1  0  0  0  0
 26 59  2  0  0  0  0
 27 63  1  0  0  0  0
 27 66  1  0  0  0  0
 28 48  1  0  0  0  0
 28 60  1  0  0  0  0
 28 61  2  0  0  0  0
 29 54  1  0  0  0  0
 29 60  2  0  0  0  0
 29 62  1  0  0  0  0
 30 61  1  0  0  0  0
 30 62  2  0  0  0  0
 30 78  1  0  0  0  0
 31 67  1  0  0  0  0
 31 72  2  0  0  0  0
 32 46  1  0  0  0  0
 32 68  1  0  0  0  0
 32 73  2  0  0  0  0
 33 56  1  0  0  0  0
 33 64  1  0  0  0  0
 33 74  2  0  0  0  0
 34 57  1  0  0  0  0
 34 69  1  0  0  0  0
 34 75  2  0  0  0  0
 35 65  1  0  0  0  0
 35 70  1  0  0  0  0
 35 76  2  0  0  0  0
 36 39  1  0  0  0  0
 37 46  1  0  0  0  0
 38 64  1  0  0  0  0
 39 41  1  0  0  0  0
 40 42  1  0  0  0  0
 40 43  1  0  0  0  0
 41 45  1  0  0  0  0
 42 47  1  0  0  0  0
 43 65  1  0  0  0  0
 44 47  1  0  0  0  0
 44 65  1  0  0  0  0
 45 68  1  0  0  0  0
 46 64  1  0  0  0  0
 47 63  1  0  0  0  0
 49 57  1  0  0  0  0
 50 58  1  0  0  0  0
 51 58  1  0  0  0  0
 52 58  1  0  0  0  0
 53 71  1  0  0  0  0
 54 55  1  0  0  0  0
 55 70  1  0  0  0  0
 56 58  1  0  0  0  0
 56 69  1  0  0  0  0
 57 71  1  0  0  0  0
 59 63  1  0  0  0  0
M  CHG  1  71   1
M  ISO  4  30 101  35 100  70 100  78 101
M  END
> <Batch ID>
0055

> <Smiles>
CNC(C)C(=O)NC(C(=O)N1Cc2cc([101O:1][101c:1]3nc(C)nc(CC[100NH:0][100C:0](=O)N4CCCC(n5nc(-c6ccc(Oc7ccc(F)cc7F)cc6)c(C(N)=O)c5N)C4)n3)ccc2CC1C(=O)NC1CCCc2ccccc21)C(C)(C)C

> <Shape>
0.229

> <Color>
0.057

> <Negative vol penalty>
0.000

$$$$

  -OEChem-04052317433D

 79 87  0     1  0  0  0  0  0999 V2000
  -27.4498  -10.4985   19.1214 C   0  0  0  0  0  0  0  0  0  0  0  0
  -27.9884  -11.7294   18.7606 C   0  0  0  0  0  0  0  0  0  0  0  0
  -20.6890  -28.7290   21.1506 C   0  0  0  0  0  0  0  0  0  0  0  0
  -21.8851  -27.3693   22.7498 C   0  0  0  0  0  0  0  0  0  0  0  0
  -26.2479  -10.4443   19.8260 C   0  0  0  0  0  0  0  0  0  0  0  0
  -27.3249  -12.9069   19.1033 C   0  0  0  0  0  0  0  0  0  0  0  0
  -29.8772  -18.2624   20.6232 C   0  0  0  0  0  0  0  0  0  0  0  0
  -19.5258  -28.0016   21.4020 C   0  0  0  0  0  0  0  0  0  0  0  0
  -20.7219  -26.6418   23.0013 C   0  0  0  0  0  0  0  0  0  0  0  0
  -30.1213  -19.4256   19.8943 C   0  0  0  0  0  0  0  0  0  0  0  0
  -18.9692  -24.1568   21.5237 C   0  0  0  0  0  0  0  0  0  0  0  0
  -19.0737  -22.7670   21.5815 C   0  0  0  0  0  0  0  0  0  0  0  0
  -28.0673  -20.3740   20.7316 C   0  0  0  0  0  0  0  0  0  0  0  0
  -18.2619  -22.8007   23.8569 C   0  0  0  0  0  0  0  0  0  0  0  0
  -30.7980  -23.3300   16.4534 C   0  0  0  0  0  0  0  0  0  0  0  0
  -21.8687  -28.4129   21.8244 C   0  0  0  0  0  0  0  0  0  0  0  0
  -23.5068  -30.3265   22.2275 C   0  0  0  0  0  0  0  0  0  0  0  0
  -25.5742  -11.6221   20.1859 C   0  0  0  0  0  0  0  0  0  0  0  0
  -28.7190  -18.1419   21.4045 C   0  0  0  0  0  0  0  0  0  0  0  0
  -26.1121  -12.8685   19.8122 C   0  0  0  0  0  0  0  0  0  0  0  0
  -27.8122  -19.2092   21.4714 C   0  0  0  0  0  0  0  0  0  0  0  0
  -19.5422  -26.9580   22.3274 C   0  0  0  0  0  0  0  0  0  0  0  0
  -29.2149  -20.4805   19.9461 C   0  0  0  0  0  0  0  0  0  0  0  0
  -18.5111  -24.8685   22.6325 C   0  0  0  0  0  0  0  0  0  0  0  0
  -18.7200  -22.0890   22.7481 C   0  0  0  0  0  0  0  0  0  0  0  0
  -18.1575  -24.1904   23.7990 C   0  0  0  0  0  0  0  0  0  0  0  0
  -23.0708  -29.1636   21.5646 C   0  0  0  0  0  0  0  0  0  0  0  0
  -30.7387  -22.9939   17.7765 C   0  0  0  0  0  0  0  0  0  0  0  0
  -24.6931  -30.6470   21.6141 C   0  0  0  0  0  0  0  0  0  0  0  0
  -30.8615  -25.1998   17.6368 C   0  0  0  0  0  0  0  0  0  0  0  0
  -22.8943  -31.0519   23.3018 C   0  0  0  0  0  0  0  0  0  0  0  0
  -26.1971  -16.2069   21.3934 C   0  0  0  0  0  0  0  0  0  0  0  0
  -25.4663  -17.7816   24.1336 C   0  0  0  0  0  0  0  0  0  0  0  0
  -25.8015  -20.5951   26.0359 C   0  0  0  0  0  0  0  0  0  0  0  0
  -28.6657  -27.3399   18.7615 C   0  0  0  0  0  0  0  0  0  0  0  0
  -24.2537  -11.5119   20.9062 C   0  0  0  0  0  0  0  0  0  0  0  0
  -28.4836  -16.8910   22.2059 C   0  0  0  0  0  0  0  0  0  0  0  0
  -26.5638  -19.1378   22.3111 C   0  0  0  0  0  0  0  0  0  0  0  0
  -23.8044  -12.8173   21.5576 C   0  0  0  0  0  0  0  0  0  0  0  0
  -26.9708  -30.2443   17.4239 C   0  0  0  0  0  0  0  0  0  0  0  0
  -23.9657  -13.9820   20.5858 C   0  0  0  0  0  0  0  0  0  0  0  0
  -25.8124  -30.4017   18.4106 C   0  0  0  0  0  0  0  0  0  0  0  0
  -27.2695  -28.7729   17.1522 C   0  0  0  0  0  0  0  0  0  0  0  0
  -26.3911  -28.1208   19.3606 C   0  0  0  0  0  0  0  0  0  0  0  0
  -25.4346  -14.1686   20.1873 C   0  0  1  0  0  0  0  0  0  0  0  0
  -27.0158  -16.6771   22.5624 C   0  0  1  0  0  0  0  0  0  0  0  0
  -26.0548  -29.5857   19.6941 C   0  0  2  0  0  0  0  0  0  0  0  0
  -25.0556  -21.6040   28.2092 C   0  0  0  0  0  0  0  0  0  0  0  0
  -22.7290  -18.3671   22.9196 C   0  0  0  0  0  0  0  0  0  0  0  0
  -22.4055  -20.1261   24.6716 C   0  0  0  0  0  0  0  0  0  0  0  0
  -22.6840  -17.7389   25.3399 C   0  0  0  0  0  0  0  0  0  0  0  0
  -30.9513  -25.4813   15.1775 C   0  0  0  0  0  0  0  0  0  0  0  0
  -28.5799  -20.7757   27.0391 C   0  0  0  0  0  0  0  0  0  0  0  0
  -30.6459  -21.6600   18.4572 C   0  0  0  0  0  0  0  0  0  1  0  0
  -30.9261  -26.6314   18.0229 C   0  0  0  0  0  0  0  0  0  0  0  0
  -24.6816  -19.0251   24.4753 C   0  0  1  0  0  0  0  0  0  0  0  0
  -26.1264  -20.7838   27.5067 C   0  0  2  0  0  0  0  0  0  0  0  0
  -23.1475  -18.8152   24.3341 C   0  0  0  0  0  0  0  0  0  0  0  0
  -23.9117  -28.7720   20.6035 N   0  0  0  0  0  0  0  0  0  0  0  0
  -30.8728  -24.7009   16.3964 N   0  0  0  0  0  0  0  0  0  0  0  0
  -24.8879  -29.6941   20.6580 N   0  0  0  0  0  0  0  0  0  0  0  0
  -30.7801  -24.1701   18.4856 N   0  3  0  0  0  0  0  0  0  0  0  0
  -26.3751  -17.8913   23.0715 N   0  0  0  0  0  0  0  0  0  0  0  0
  -27.5090  -28.0570   18.4132 N   0  0  0  0  0  0  0  0  0  0  0  0
  -25.5783  -31.6484   21.8045 N   0  0  0  0  0  0  0  0  0  0  0  0
  -21.6764  -30.5848   23.8145 N   0  0  0  0  0  0  0  0  0  0  0  0
  -26.1648  -14.8335   21.2453 N   0  0  0  0  0  0  0  0  0  0  0  0
  -25.1097  -19.4236   25.8119 N   0  0  0  0  0  0  0  0  0  0  0  0
  -29.6746  -27.3227   17.8063 N   0  0  0  0  0  0  0  0  0  0  0  0
  -27.4327  -21.4839   27.6630 N   0  3  0  0  0  0  0  0  0  0  0  0
  -23.4034  -32.0931   23.7817 O   0  0  0  0  0  0  0  0  0  0  0  0
  -25.6352  -17.0294   20.6796 O   0  0  0  0  0  0  0  0  0  0  0  0
  -25.2851  -16.7528   24.7897 O   0  0  0  0  0  0  0  0  0  0  0  0
  -26.1255  -21.4077   25.1726 O   0  0  0  0  0  0  0  0  0  0  0  0
  -28.7924  -26.7619   19.8464 O   0  0  0  0  0  0  0  0  0  0  0  0
  -18.4072  -26.2481   22.5733 O   0  0  0  0  0  0  0  0  0  0  0  0
  -29.4503  -21.6167   19.2352 O   0  0  0  0  0  0  0  0  0  1  0  0
  -18.8189  -20.7543   22.8029 F   0  0  0  0  0  0  0  0  0  0  0  0
  -17.7157  -24.8686   24.8671 F   0  0  0  0  0  0  0  0  0  0  0  0
  1  2  1  0  0  0  0
  1  5  2  0  0  0  0
  2  6  2  0  0  0  0
  3  8  2  0  0  0  0
  3 16  1  0  0  0  0
  4  9  1  0  0  0  0
  4 16  2  0  0  0  0
  5 18  1  0  0  0  0
  6 20  1  0  0  0  0
  7 10  2  0  0  0  0
  7 19  1  0  0  0  0
  8 22  1  0  0  0  0
  9 22  2  0  0  0  0
 10 23  1  0  0  0  0
 11 12  2  0  0  0  0
 11 24  1  0  0  0  0
 12 25  1  0  0  0  0
 13 21  1  0  0  0  0
 13 23  2  0  0  0  0
 14 25  2  0  0  0  0
 14 26  1  0  0  0  0
 15 28  2  0  0  0  0
 15 60  1  0  0  0  0
 16 27  1  0  0  0  0
 17 27  1  0  0  0  0
 17 29  2  0  0  0  0
 17 31  1  0  0  0  0
 18 20  2  0  0  0  0
 18 36  1  0  0  0  0
 19 21  2  0  0  0  0
 19 37  1  0  0  0  0
 20 45  1  0  0  0  0
 21 38  1  0  0  0  0
 22 76  1  0  0  0  0
 23 77  1  0  0  0  0
 24 26  2  0  0  0  0
 24 76  1  0  0  0  0
 25 78  1  0  0  0  0
 26 79  1  0  0  0  0
 27 59  2  0  0  0  0
 28 54  1  0  0  0  0
 28 62  1  0  0  0  0
 29 61  1  0  0  0  0
 29 65  1  0  0  0  0
 30 55  1  0  0  0  0
 30 60  1  0  0  0  0
 30 62  2  0  0  0  0
 31 66  1  0  0  0  0
 31 71  2  0  0  0  0
 32 46  1  0  0  0  0
 32 67  1  0  0  0  0
 32 72  2  0  0  0  0
 33 56  1  0  0  0  0
 33 63  1  0  0  0  0
 33 73  2  0  0  0  0
 34 57  1  0  0  0  0
 34 68  1  0  0  0  0
 34 74  2  0  0  0  0
 35 64  1  0  0  0  0
 35 69  1  0  0  0  0
 35 75  2  0  0  0  0
 36 39  1  0  0  0  0
 37 46  1  0  0  0  0
 38 63  1  0  0  0  0
 39 41  1  0  0  0  0
 40 42  1  0  0  0  0
 40 43  1  0  0  0  0
 41 45  1  0  0  0  0
 42 47  1  0  0  0  0
 43 64  1  0  0  0  0
 44 47  1  0  0  0  0
 44 64  1  0  0  0  0
 45 67  1  0  0  0  0
 46 63  1  0  0  0  0
 47 61  1  0  0  0  0
 48 57  1  0  0  0  0
 49 58  1  0  0  0  0
 50 58  1  0  0  0  0
 51 58  1  0  0  0  0
 52 60  1  0  0  0  0
 53 70  1  0  0  0  0
 54 77  1  0  0  0  0
 55 69  1  0  0  0  0
 56 58  1  0  0  0  0
 56 68  1  0  0  0  0
 57 70  1  0  0  0  0
 59 61  1  0  0  0  0
M  CHG  2  62   1  70   1
M  ISO  4  35 100  54 101  69 100  77 101
M  END
> <Batch ID>
0055

> <Smiles>
CNC(C)C(=O)NC(C(=O)N1Cc2cc([101O:1][101CH2:1]c3cn(C)c(C[100NH:0][100C:0](=O)N4CCCC(n5nc(-c6ccc(Oc7ccc(F)cc7F)cc6)c(C(N)=O)c5N)C4)n3)ccc2CC1C(=O)NC1CCCc2ccccc21)C(C)(C)C

> <Shape>
0.237

> <Color>
0.072

> <Negative vol penalty>
0.000

$$$$

  -OEChem-04052317433D

 83 91  0     1  0  0  0  0  0999 V2000
  -27.2240  -18.9006   24.4140 C   0  0  0  0  0  0  0  0  0  0  0  0
  -27.5312  -20.1966   24.0151 C   0  0  0  0  0  0  0  0  0  0  0  0
  -25.9392  -13.0515   21.6757 C   0  0  0  0  0  0  0  0  0  0  0  0
  -26.0295  -12.8633   19.2687 C   0  0  0  0  0  0  0  0  0  0  0  0
  -25.9076  -18.4490   24.3490 C   0  0  0  0  0  0  0  0  0  0  0  0
  -26.5203  -21.0452   23.5624 C   0  0  0  0  0  0  0  0  0  0  0  0
  -27.7521  -25.7306   22.7067 C   0  0  0  0  0  0  0  0  0  0  0  0
  -24.7371  -12.3441   21.6859 C   0  0  0  0  0  0  0  0  0  0  0  0
  -24.8274  -12.1558   19.2789 C   0  0  0  0  0  0  0  0  0  0  0  0
  -28.5355  -26.1177   21.6203 C   0  0  0  0  0  0  0  0  0  0  0  0
  -21.4739  -12.9698   21.0663 C   0  0  0  0  0  0  0  0  0  0  0  0
  -20.4410  -13.4599   21.8655 C   0  0  0  0  0  0  0  0  0  0  0  0
  -26.5610  -26.9195   20.4899 C   0  0  0  0  0  0  0  0  0  0  0  0
  -20.4255  -11.3916   23.1140 C   0  0  0  0  0  0  0  0  0  0  0  0
  -31.1302  -25.3635   17.7578 C   0  0  0  0  0  0  0  0  0  0  0  0
  -26.5854  -13.3112   20.4671 C   0  0  0  0  0  0  0  0  0  0  0  0
  -29.1273  -13.5110   20.5459 C   0  0  0  0  0  0  0  0  0  0  0  0
  -24.8826  -19.2891   23.8834 C   0  0  0  0  0  0  0  0  0  0  0  0
  -26.3636  -25.9255   22.6883 C   0  0  0  0  0  0  0  0  0  0  0  0
  -25.1818  -20.6157   23.5120 C   0  0  0  0  0  0  0  0  0  0  0  0
  -25.7626  -26.5364   21.5784 C   0  0  0  0  0  0  0  0  0  0  0  0
  -31.3716  -24.0118   17.7245 C   0  0  0  0  0  0  0  0  0  0  0  0
  -24.1812  -11.8962   20.4876 C   0  0  0  0  0  0  0  0  0  0  0  0
  -27.9396  -26.7095   20.5105 C   0  0  0  0  0  0  0  0  0  0  0  0
  -21.9825  -11.6905   21.2910 C   0  0  0  0  0  0  0  0  0  0  0  0
  -19.9169  -12.6709   22.8893 C   0  0  0  0  0  0  0  0  0  0  0  0
  -21.4583  -10.9014   22.3148 C   0  0  0  0  0  0  0  0  0  0  0  0
  -27.8268  -14.0425   20.4558 C   0  0  0  0  0  0  0  0  0  0  0  0
  -30.1946  -23.4573   17.1869 C   0  0  0  0  0  0  0  0  0  0  0  0
  -29.9513  -14.6085   20.4902 C   0  0  0  0  0  0  0  0  0  0  0  0
  -29.5525  -12.1473   20.6690 C   0  0  0  0  0  0  0  0  0  0  0  0
  -23.8281  -24.0122   22.8092 C   0  0  0  0  0  0  0  0  0  0  0  0
  -22.2052  -26.8171   22.9549 C   0  0  0  0  0  0  0  0  0  0  0  0
  -22.1372  -30.1631   22.2865 C   0  0  0  0  0  0  0  0  0  0  0  0
  -29.2232  -19.9564   18.0976 C   0  0  0  0  0  0  0  0  0  0  0  0
  -23.4740  -18.7514   23.8411 C   0  0  0  0  0  0  0  0  0  0  0  0
  -25.5360  -25.5269   23.8793 C   0  0  0  0  0  0  0  0  0  0  0  0
  -24.2786  -26.7863   21.5177 C   0  0  0  0  0  0  0  0  0  0  0  0
  -22.5537  -19.5656   22.9374 C   0  0  0  0  0  0  0  0  0  0  0  0
  -30.0517  -19.2739   21.5538 C   0  0  0  0  0  0  0  0  0  0  0  0
  -22.6805  -21.0459   23.2648 C   0  0  0  0  0  0  0  0  0  0  0  0
  -29.6932  -17.7909   21.6653 C   0  0  0  0  0  0  0  0  0  0  0  0
  -29.0628  -20.0159   20.6596 C   0  0  0  0  0  0  0  0  0  0  0  0
  -28.5569  -17.9574   19.4024 C   0  0  0  0  0  0  0  0  0  0  0  0
  -24.1036  -21.5466   22.9874 C   0  0  1  0  0  0  0  0  0  0  0  0
  -24.0658  -25.3046   23.5380 C   0  0  1  0  0  0  0  0  0  0  0  0
  -29.5324  -17.1472   20.2754 C   0  0  2  0  0  0  0  0  0  0  0  0
  -20.6605  -32.1822   22.4865 C   0  0  0  0  0  0  0  0  0  0  0  0
  -20.5498  -25.8382   20.5861 C   0  0  0  0  0  0  0  0  0  0  0  0
  -19.7825  -28.1957   20.2375 C   0  0  0  0  0  0  0  0  0  0  0  0
  -19.2369  -27.0098   22.3632 C   0  0  0  0  0  0  0  0  0  0  0  0
  -24.0778  -31.5526   24.0363 C   0  0  0  0  0  0  0  0  0  0  0  0
  -29.9021  -22.0366   16.9277 C   0  0  0  0  0  0  0  0  0  0  0  0
  -29.1425  -26.8401   17.0870 C   0  0  0  0  0  0  0  0  0  0  0  0
  -28.0839  -27.0588   18.1625 C   0  0  0  0  0  0  0  0  0  1  0  0
  -21.6126  -27.7634   21.9389 C   0  0  1  0  0  0  0  0  0  0  0  0
  -21.7528  -31.3542   23.1455 C   0  0  2  0  0  0  0  0  0  0  0  0
  -32.5926  -23.3118   18.1578 C   0  0  0  0  0  0  0  0  0  0  0  0
  -20.3232  -27.1954   21.2814 C   0  0  0  0  0  0  0  0  0  0  0  0
  -27.8201  -15.3740   20.3510 N   0  0  0  0  0  0  0  0  0  0  0  0
  -29.2739  -24.3812   16.8994 N   0  0  0  0  0  0  0  0  0  0  0  0
  -29.8722  -25.5300   17.2579 N   0  0  0  0  0  0  0  0  0  0  0  0
  -29.1264  -15.6885   20.3749 N   0  0  0  0  0  0  0  0  0  0  0  0
  -23.5113  -26.3731   22.7043 N   0  0  0  0  0  0  0  0  0  0  0  0
  -28.9703  -19.3635   19.3458 N   0  0  0  0  0  0  0  0  0  0  0  0
  -31.2938  -14.7453   20.5292 N   0  0  0  0  0  0  0  0  0  0  0  0
  -28.5749  -11.1439   20.7115 N   0  0  0  0  0  0  0  0  0  0  0  0
  -24.2401  -22.8908   23.5035 N   0  0  0  0  0  0  0  0  0  0  0  0
  -21.4216  -29.0350   22.6281 N   0  0  0  0  0  0  0  0  0  0  0  0
  -29.6028  -21.2926   18.1310 N   0  0  0  0  0  0  0  0  0  0  0  0
  -22.9355  -32.2321   23.3728 N   0  3  0  0  0  0  0  0  0  0  0  0
  -30.7628  -11.8292   20.7556 O   0  0  0  0  0  0  0  0  0  0  0  0
  -23.3080  -24.0310   21.6998 O   0  0  0  0  0  0  0  0  0  0  0  0
  -21.5366  -26.4898   23.9385 O   0  0  0  0  0  0  0  0  0  0  0  0
  -22.9846  -30.2278   21.3986 O   0  0  0  0  0  0  0  0  0  0  0  0
  -29.1233  -19.3389   17.0319 O   0  0  0  0  0  0  0  0  0  0  0  0
  -23.0084  -11.2056   20.4972 O   0  0  0  0  0  0  0  0  0  0  0  0
  -28.7018  -27.0877   19.4484 O   0  0  0  0  0  0  0  0  0  1  0  0
  -18.9261  -13.1423   23.6577 F   0  0  0  0  0  0  0  0  0  0  0  0
  -21.9437   -9.6721   22.5362 F   0  0  0  0  0  0  0  0  0  0  0  0
  -33.5769  -24.1379   18.6433 F   0  0  0  0  0  0  0  0  0  0  0  0
  -32.3934  -22.3959   19.1618 F   0  0  0  0  0  0  0  0  0  0  0  0
  -33.1980  -22.6012   17.1520 F   0  0  0  0  0  0  0  0  0  0  0  0
  1  2  1  0  0  0  0
  1  5  2  0  0  0  0
  2  6  2  0  0  0  0
  3  8  2  0  0  0  0
  3 16  1  0  0  0  0
  4  9  1  0  0  0  0
  4 16  2  0  0  0  0
  5 18  1  0  0  0  0
  6 20  1  0  0  0  0
  7 10  2  0  0  0  0
  7 19  1  0  0  0  0
  8 23  1  0  0  0  0
  9 23  2  0  0  0  0
 10 24  1  0  0  0  0
 11 12  2  0  0  0  0
 11 25  1  0  0  0  0
 12 26  1  0  0  0  0
 13 21  1  0  0  0  0
 13 24  2  0  0  0  0
 14 26  2  0  0  0  0
 14 27  1  0  0  0  0
 15 22  2  0  0  0  0
 15 62  1  0  0  0  0
 16 28  1  0  0  0  0
 17 28  1  0  0  0  0
 17 30  2  0  0  0  0
 17 31  1  0  0  0  0
 18 20  2  0  0  0  0
 18 36  1  0  0  0  0
 19 21  2  0  0  0  0
 19 37  1  0  0  0  0
 20 45  1  0  0  0  0
 21 38  1  0  0  0  0
 22 29  1  0  0  0  0
 22 58  1  0  0  0  0
 23 77  1  0  0  0  0
 24 78  1  0  0  0  0
 25 27  2  0  0  0  0
 25 77  1  0  0  0  0
 26 79  1  0  0  0  0
 27 80  1  0  0  0  0
 28 60  2  0  0  0  0
 29 53  1  0  0  0  0
 29 61  2  0  0  0  0
 30 63  1  0  0  0  0
 30 66  1  0  0  0  0
 31 67  1  0  0  0  0
 31 72  2  0  0  0  0
 32 46  1  0  0  0  0
 32 68  1  0  0  0  0
 32 73  2  0  0  0  0
 33 56  1  0  0  0  0
 33 64  1  0  0  0  0
 33 74  2  0  0  0  0
 34 57  1  0  0  0  0
 34 69  1  0  0  0  0
 34 75  2  0  0  0  0
 35 65  1  0  0  0  0
 35 70  1  0  0  0  0
 35 76  2  0  0  0  0
 36 39  1  0  0  0  0
 37 46  1  0  0  0  0
 38 64  1  0  0  0  0
 39 41  1  0  0  0  0
 40 42  1  0  0  0  0
 40 43  1  0  0  0  0
 41 45  1  0  0  0  0
 42 47  1  0  0  0  0
 43 65  1  0  0  0  0
 44 47  1  0  0  0  0
 44 65  1  0  0  0  0
 45 68  1  0  0  0  0
 46 64  1  0  0  0  0
 47 63  1  0  0  0  0
 48 57  1  0  0  0  0
 49 59  1  0  0  0  0
 50 59  1  0  0  0  0
 51 59  1  0  0  0  0
 52 71  1  0  0  0  0
 53 70  1  0  0  0  0
 54 55  1  0  0  0  0
 54 62  1  0  0  0  0
 55 78  1  0  0  0  0
 56 59  1  0  0  0  0
 56 69  1  0  0  0  0
 57 71  1  0  0  0  0
 58 81  1  0  0  0  0
 58 82  1  0  0  0  0
 58 83  1  0  0  0  0
 60 63  1  0  0  0  0
 61 62  1  0  0  0  0
M  CHG  1  71   1
M  ISO  4  35 100  55 101  70 100  78 101
M  END
> <Batch ID>
0055

> <Smiles>
CNC(C)C(=O)NC(C(=O)N1Cc2cc([101O:1][101CH2:1]Cn3cc(C(F)(F)F)c(C[100NH:0][100C:0](=O)N4CCCC(n5nc(-c6ccc(Oc7ccc(F)cc7F)cc6)c(C(N)=O)c5N)C4)n3)ccc2CC1C(=O)NC1CCCc2ccccc21)C(C)(C)C

> <Shape>
0.239

> <Color>
0.058

> <Negative vol penalty>
0.000

$$$$

  -OEChem-04052317433D

 82 90  0     1  0  0  0  0  0999 V2000
  -27.4487  -35.0329   23.8430 C   0  0  0  0  0  0  0  0  0  0  0  0
  -27.7305  -33.7153   23.4966 C   0  0  0  0  0  0  0  0  0  0  0  0
  -27.0640  -14.7613   22.7278 C   0  0  0  0  0  0  0  0  0  0  0  0
  -26.2618  -14.5212   20.4616 C   0  0  0  0  0  0  0  0  0  0  0  0
  -26.1906  -35.3674   24.3422 C   0  0  0  0  0  0  0  0  0  0  0  0
  -26.7546  -32.7312   23.6503 C   0  0  0  0  0  0  0  0  0  0  0  0
  -26.4486  -29.6557   19.6387 C   0  0  0  0  0  0  0  0  0  0  0  0
  -26.1349  -13.8137   23.1572 C   0  0  0  0  0  0  0  0  0  0  0  0
  -25.3326  -13.5735   20.8909 C   0  0  0  0  0  0  0  0  0  0  0  0
  -27.4208  -28.6632   19.5217 C   0  0  0  0  0  0  0  0  0  0  0  0
  -25.3199  -10.2968   21.7178 C   0  0  0  0  0  0  0  0  0  0  0  0
  -25.1834   -9.1349   20.9583 C   0  0  0  0  0  0  0  0  0  0  0  0
  -25.8689  -27.0464   20.4145 C   0  0  0  0  0  0  0  0  0  0  0  0
  -22.8577   -9.6619   20.5702 C   0  0  0  0  0  0  0  0  0  0  0  0
  -30.6036  -24.8422   18.0537 C   0  0  0  0  0  0  0  0  0  0  0  0
  -27.1274  -15.1151   21.3800 C   0  0  0  0  0  0  0  0  0  0  0  0
  -29.4022  -15.8566   20.4951 C   0  0  0  0  0  0  0  0  0  0  0  0
  -25.1956  -34.3886   24.4929 C   0  0  0  0  0  0  0  0  0  0  0  0
  -25.1808  -29.3527   20.1556 C   0  0  0  0  0  0  0  0  0  0  0  0
  -25.4824  -33.0527   24.1531 C   0  0  0  0  0  0  0  0  0  0  0  0
  -24.8817  -28.0363   20.5347 C   0  0  0  0  0  0  0  0  0  0  0  0
  -25.2693  -13.2198   22.2387 C   0  0  0  0  0  0  0  0  0  0  0  0
  -27.1320  -27.3589   19.9123 C   0  0  0  0  0  0  0  0  0  0  0  0
  -24.2253  -11.1413   21.9037 C   0  0  0  0  0  0  0  0  0  0  0  0
  -23.9523   -8.8174   20.3845 C   0  0  0  0  0  0  0  0  0  0  0  0
  -22.9942  -10.8238   21.3298 C   0  0  0  0  0  0  0  0  0  0  0  0
  -28.0866  -16.0944   20.9359 C   0  0  0  0  0  0  0  0  0  0  0  0
  -30.2374  -25.5707   19.2013 C   0  0  0  0  0  0  0  0  0  0  0  0
  -31.4241  -23.8471   18.5260 C   0  0  0  0  0  0  0  0  0  0  0  0
  -29.8921  -17.1027   20.1888 C   0  0  0  0  0  0  0  0  0  0  0  0
  -30.1176  -14.6200   20.3734 C   0  0  0  0  0  0  0  0  0  0  0  0
  -23.5073  -30.2947   22.6885 C   0  0  0  0  0  0  0  0  0  0  0  0
  -21.1686  -28.5121   21.3191 C   0  0  0  0  0  0  0  0  0  0  0  0
  -20.3277  -25.9527   19.2242 C   0  0  0  0  0  0  0  0  0  0  0  0
  -28.8557  -22.0180   17.5274 C   0  0  0  0  0  0  0  0  0  0  0  0
  -23.8660  -34.7897   25.0810 C   0  0  0  0  0  0  0  0  0  0  0  0
  -24.1345  -30.4291   20.2504 C   0  0  0  0  0  0  0  0  0  0  0  0
  -23.5291  -27.6550   21.0767 C   0  0  0  0  0  0  0  0  0  0  0  0
  -22.7657  -33.7547   24.8611 C   0  0  0  0  0  0  0  0  0  0  0  0
  -28.0455  -21.7078   21.1258 C   0  0  0  0  0  0  0  0  0  0  0  0
  -23.2743  -32.3558   25.1945 C   0  0  0  0  0  0  0  0  0  0  0  0
  -28.0246  -20.1943   21.3333 C   0  0  0  0  0  0  0  0  0  0  0  0
  -27.6779  -22.0893   19.6951 C   0  0  0  0  0  0  0  0  0  0  0  0
  -28.4898  -19.9053   18.8674 C   0  0  0  0  0  0  0  0  0  0  0  0
  -24.4420  -31.9614   24.2821 C   0  0  1  0  0  0  0  0  0  0  0  0
  -23.0445  -30.1147   21.2704 C   0  0  1  0  0  0  0  0  0  0  0  0
  -28.9011  -19.4849   20.2865 C   0  0  2  0  0  0  0  0  0  0  0  0
  -29.8398  -20.4578   14.8124 C   0  0  0  0  0  0  0  0  0  0  0  0
  -18.3388  -24.7064   18.3361 C   0  0  0  0  0  0  0  0  0  0  0  0
  -20.9077  -27.0385   23.9782 C   0  0  0  0  0  0  0  0  0  0  0  0
  -19.6402  -25.2430   22.7791 C   0  0  0  0  0  0  0  0  0  0  0  0
  -18.7338  -27.5657   22.8599 C   0  0  0  0  0  0  0  0  0  0  0  0
  -32.2416  -23.2361   20.8223 C   0  0  0  0  0  0  0  0  0  0  0  0
  -20.9429  -26.7260   16.4345 C   0  0  0  0  0  0  0  0  0  0  0  0
  -29.3475  -26.7766   19.2734 C   0  0  0  0  0  0  0  0  0  1  0  0
  -32.1301  -22.7595   17.8243 C   0  0  0  0  0  0  0  0  0  0  0  0
  -30.2346  -21.7485   15.5012 C   0  0  0  0  0  0  0  0  0  0  0  0
  -31.3172  -21.4572   17.6986 C   0  0  0  0  0  0  0  0  0  0  0  0
  -20.7384  -27.0675   21.4020 C   0  0  1  0  0  0  0  0  0  0  0  0
  -19.3032  -25.8600   18.1078 C   0  0  2  0  0  0  0  0  0  0  0  0
  -20.0312  -26.7359   22.7464 C   0  0  0  0  0  0  0  0  0  0  0  0
  -27.7613  -17.3896   20.9133 N   0  0  0  0  0  0  0  0  0  0  0  0
  -30.7805  -25.0801   20.3186 N   0  0  0  0  0  0  0  0  0  0  0  0
  -31.4964  -24.0326   19.8753 N   0  0  0  0  0  0  0  0  0  0  0  0
  -28.8797  -17.9770   20.4546 N   0  0  0  0  0  0  0  0  0  0  0  0
  -22.5417  -28.7442   21.1561 N   0  0  0  0  0  0  0  0  0  0  0  0
  -28.4967  -21.3684   18.7199 N   0  0  0  0  0  0  0  0  0  0  0  0
  -31.0859  -17.5248   19.7207 N   0  0  0  0  0  0  0  0  0  0  0  0
  -29.4647  -13.4325   20.7312 N   0  0  0  0  0  0  0  0  0  0  0  0
  -23.9539  -31.5702   22.9770 N   0  0  0  0  0  0  0  0  0  0  0  0
  -19.9217  -26.8163   20.2195 N   0  0  0  0  0  0  0  0  0  0  0  0
  -30.0806  -21.6567   16.9461 N   0  0  0  0  0  0  0  0  0  0  0  0
  -19.9822  -25.6525   16.7975 N   0  3  0  0  0  0  0  0  0  0  0  0
  -31.3061  -14.5712   19.9753 O   0  0  0  0  0  0  0  0  0  0  0  0
  -23.4613  -29.3469   23.4640 O   0  0  0  0  0  0  0  0  0  0  0  0
  -20.3170  -29.4017   21.3891 O   0  0  0  0  0  0  0  0  0  0  0  0
  -21.3809  -25.3193   19.2160 O   0  0  0  0  0  0  0  0  0  0  0  0
  -28.1277  -22.8789   17.0168 O   0  0  0  0  0  0  0  0  0  0  0  0
  -24.3627  -12.2949   22.6573 O   0  0  0  0  0  0  0  0  0  0  0  0
  -28.0792  -26.3884   19.7998 O   0  0  0  0  0  0  0  0  0  1  0  0
  -23.8217   -7.7024   19.6539 F   0  0  0  0  0  0  0  0  0  0  0  0
  -21.9394  -11.6318   21.5038 F   0  0  0  0  0  0  0  0  0  0  0  0
  1  2  1  0  0  0  0
  1  5  2  0  0  0  0
  2  6  2  0  0  0  0
  3  8  2  0  0  0  0
  3 16  1  0  0  0  0
  4  9  1  0  0  0  0
  4 16  2  0  0  0  0
  5 18  1  0  0  0  0
  6 20  1  0  0  0  0
  7 10  2  0  0  0  0
  7 19  1  0  0  0  0
  8 22  1  0  0  0  0
  9 22  2  0  0  0  0
 10 23  1  0  0  0  0
 11 12  2  0  0  0  0
 11 24  1  0  0  0  0
 12 25  1  0  0  0  0
 13 21  1  0  0  0  0
 13 23  2  0  0  0  0
 14 25  2  0  0  0  0
 14 26  1  0  0  0  0
 15 28  1  0  0  0  0
 15 29  2  0  0  0  0
 16 27  1  0  0  0  0
 17 27  1  0  0  0  0
 17 30  2  0  0  0  0
 17 31  1  0  0  0  0
 18 20  2  0  0  0  0
 18 36  1  0  0  0  0
 19 21  2  0  0  0  0
 19 37  1  0  0  0  0
 20 45  1  0  0  0  0
 21 38  1  0  0  0  0
 22 79  1  0  0  0  0
 23 80  1  0  0  0  0
 24 26  2  0  0  0  0
 24 79  1  0  0  0  0
 25 81  1  0  0  0  0
 26 82  1  0  0  0  0
 27 62  2  0  0  0  0
 28 55  1  0  0  0  0
 28 63  2  0  0  0  0
 29 56  1  0  0  0  0
 29 64  1  0  0  0  0
 30 65  1  0  0  0  0
 30 68  1  0  0  0  0
 31 69  1  0  0  0  0
 31 74  2  0  0  0  0
 32 46  1  0  0  0  0
 32 70  1  0  0  0  0
 32 75  2  0  0  0  0
 33 59  1  0  0  0  0
 33 66  1  0  0  0  0
 33 76  2  0  0  0  0
 34 60  1  0  0  0  0
 34 71  1  0  0  0  0
 34 77  2  0  0  0  0
 35 67  1  0  0  0  0
 35 72  1  0  0  0  0
 35 78  2  0  0  0  0
 36 39  1  0  0  0  0
 37 46  1  0  0  0  0
 38 66  1  0  0  0  0
 39 41  1  0  0  0  0
 40 42  1  0  0  0  0
 40 43  1  0  0  0  0
 41 45  1  0  0  0  0
 42 47  1  0  0  0  0
 43 67  1  0  0  0  0
 44 47  1  0  0  0  0
 44 67  1  0  0  0  0
 45 70  1  0  0  0  0
 46 66  1  0  0  0  0
 47 65  1  0  0  0  0
 48 57  1  0  0  0  0
 49 60  1  0  0  0  0
 50 61  1  0  0  0  0
 51 61  1  0  0  0  0
 52 61  1  0  0  0  0
 53 64  1  0  0  0  0
 54 73  1  0  0  0  0
 55 80  1  0  0  0  0
 56 58  1  0  0  0  0
 57 72  1  0  0  0  0
 58 72  1  0  0  0  0
 59 61  1  0  0  0  0
 59 71  1  0  0  0  0
 60 73  1  0  0  0  0
 62 65  1  0  0  0  0
 63 64  1  0  0  0  0
M  CHG  1  73   1
M  ISO  4  35 100  55 101  72 100  80 101
M  END
> <Batch ID>
0055

> <Smiles>
CC[100N:0](CCc1cc([101CH2:1][101O:1]c2ccc3c(c2)CN(C(=O)C(NC(=O)C(C)NC)C(C)(C)C)C(C(=O)NC2CCCc4ccccc42)C3)nn1C)[100C:0](=O)N1CCCC(n2nc(-c3ccc(Oc4ccc(F)cc4F)cc3)c(C(N)=O)c2N)C1

> <Shape>
0.325

> <Color>
0.094

> <Negative vol penalty>
0.000

$$$$

  -OEChem-04052317433D

 82 90  0     1  0  0  0  0  0999 V2000
  -28.6169  -12.0044   22.2552 C   0  0  0  0  0  0  0  0  0  0  0  0
  -28.9214  -13.1874   21.5894 C   0  0  0  0  0  0  0  0  0  0  0  0
  -19.7217  -27.0729   21.3178 C   0  0  0  0  0  0  0  0  0  0  0  0
  -20.5755  -27.0711   23.5779 C   0  0  0  0  0  0  0  0  0  0  0  0
  -27.3343  -11.4653   22.1647 C   0  0  0  0  0  0  0  0  0  0  0  0
  -27.9437  -13.8314   20.8319 C   0  0  0  0  0  0  0  0  0  0  0  0
  -27.8487  -18.8314   21.6287 C   0  0  0  0  0  0  0  0  0  0  0  0
  -18.4366  -26.8311   21.8031 C   0  0  0  0  0  0  0  0  0  0  0  0
  -19.2903  -26.8293   24.0632 C   0  0  0  0  0  0  0  0  0  0  0  0
  -28.8299  -19.5954   20.9984 C   0  0  0  0  0  0  0  0  0  0  0  0
  -16.4764  -28.6060   24.6512 C   0  0  0  0  0  0  0  0  0  0  0  0
  -16.0477  -29.3546   25.7473 C   0  0  0  0  0  0  0  0  0  0  0  0
  -27.2438  -20.2109   19.2883 C   0  0  0  0  0  0  0  0  0  0  0  0
  -15.7469  -27.3219   27.0180 C   0  0  0  0  0  0  0  0  0  0  0  0
  -29.6399  -25.6022   17.8352 C   0  0  0  0  0  0  0  0  0  0  0  0
  -31.0952  -23.7348   19.0690 C   0  0  0  0  0  0  0  0  0  0  0  0
  -20.7912  -27.1929   22.2052 C   0  0  0  0  0  0  0  0  0  0  0  0
  -22.7212  -28.6944   21.4783 C   0  0  0  0  0  0  0  0  0  0  0  0
  -26.3377  -12.1080   21.4136 C   0  0  0  0  0  0  0  0  0  0  0  0
  -26.5584  -18.7426   21.0867 C   0  0  0  0  0  0  0  0  0  0  0  0
  -26.6469  -13.2995   20.7302 C   0  0  0  0  0  0  0  0  0  0  0  0
  -26.2472  -19.4473   19.9151 C   0  0  0  0  0  0  0  0  0  0  0  0
  -18.2208  -26.7093   23.1758 C   0  0  0  0  0  0  0  0  0  0  0  0
  -28.5284  -20.2830   19.8265 C   0  0  0  0  0  0  0  0  0  0  0  0
  -16.5403  -27.2153   24.7385 C   0  0  0  0  0  0  0  0  0  0  0  0
  -15.6830  -28.7126   26.9307 C   0  0  0  0  0  0  0  0  0  0  0  0
  -16.1756  -26.5733   25.9218 C   0  0  0  0  0  0  0  0  0  0  0  0
  -22.1191  -27.4421   21.7045 C   0  0  0  0  0  0  0  0  0  0  0  0
  -30.3104  -25.8818   19.0056 C   0  0  0  0  0  0  0  0  0  0  0  0
  -30.4242  -23.4549   17.8991 C   0  0  0  0  0  0  0  0  0  0  0  0
  -23.9748  -28.3922   21.0054 C   0  0  0  0  0  0  0  0  0  0  0  0
  -22.1944  -30.0128   21.6779 C   0  0  0  0  0  0  0  0  0  0  0  0
  -24.7587  -16.3795   19.9550 C   0  0  0  0  0  0  0  0  0  0  0  0
  -22.4981  -18.7004   19.7946 C   0  0  0  0  0  0  0  0  0  0  0  0
  -21.7725  -22.0279   19.5761 C   0  0  0  0  0  0  0  0  0  0  0  0
  -28.6234  -25.2084   21.7608 C   0  0  0  0  0  0  0  0  0  0  0  0
  -24.9790  -11.4621   21.3069 C   0  0  0  0  0  0  0  0  0  0  0  0
  -25.5038  -17.9358   21.7932 C   0  0  0  0  0  0  0  0  0  0  0  0
  -24.8716  -19.4010   19.3036 C   0  0  0  0  0  0  0  0  0  0  0  0
  -23.8956  -12.4044   20.7887 C   0  0  0  0  0  0  0  0  0  0  0  0
  -25.9686  -24.0129   19.4752 C   0  0  0  0  0  0  0  0  0  0  0  0
  -24.3938  -13.1704   19.5673 C   0  0  0  0  0  0  0  0  0  0  0  0
  -24.7658  -24.8585   19.8904 C   0  0  0  0  0  0  0  0  0  0  0  0
  -26.9392  -23.8003   20.6328 C   0  0  0  0  0  0  0  0  0  0  0  0
  -26.1948  -25.9082   21.6896 C   0  0  0  0  0  0  0  0  0  0  0  0
  -25.6065  -14.0406   19.9187 C   0  0  1  0  0  0  0  0  0  0  0  0
  -24.3666  -17.5026   20.8731 C   0  0  1  0  0  0  0  0  0  0  0  0
  -25.2204  -26.1802   20.5337 C   0  0  2  0  0  0  0  0  0  0  0  0
  -20.3680  -24.1072   19.5369 C   0  0  0  0  0  0  0  0  0  0  0  0
  -22.1142  -17.9495   16.8622 C   0  0  0  0  0  0  0  0  0  0  0  0
  -20.9151  -20.1228   16.5349 C   0  0  0  0  0  0  0  0  0  0  0  0
  -19.9951  -18.4170   18.1054 C   0  0  0  0  0  0  0  0  0  0  0  0
  -30.1618  -26.8609   22.7519 C   0  0  0  0  0  0  0  0  0  0  0  0
  -21.8977  -22.3075   22.5197 C   0  0  0  0  0  0  0  0  0  0  0  0
  -30.2387  -27.2395   19.6119 C   0  0  0  0  0  0  0  0  0  0  0  0
  -30.4972  -22.0784   17.2841 C   0  0  0  0  0  0  0  0  0  0  0  0
  -29.0808  -27.4118   20.6040 C   0  0  0  0  0  0  0  0  0  0  0  0
  -29.3924  -21.1576   17.7907 C   0  0  0  0  0  0  0  0  0  1  0  0
  -22.0710  -19.7066   18.7534 C   0  0  1  0  0  0  0  0  0  0  0  0
  -20.8043  -22.9010   20.3539 C   0  0  2  0  0  0  0  0  0  0  0  0
  -21.3004  -19.0485   17.5742 C   0  0  0  0  0  0  0  0  0  0  0  0
  -31.0503  -24.9533   19.6433 N   0  0  0  0  0  0  0  0  0  0  0  0
  -29.6845  -24.3836   17.2611 N   0  0  0  0  0  0  0  0  0  0  0  0
  -22.9239  -26.4205   21.4002 N   0  0  0  0  0  0  0  0  0  0  0  0
  -24.0445  -27.0304   20.9778 N   0  0  0  0  0  0  0  0  0  0  0  0
  -23.8764  -18.5934   20.0282 N   0  0  0  0  0  0  0  0  0  0  0  0
  -27.3211  -25.0692   21.2534 N   0  0  0  0  0  0  0  0  0  0  0  0
  -25.0132  -29.1612   20.6145 N   0  0  0  0  0  0  0  0  0  0  0  0
  -20.8887  -30.1432   22.1704 N   0  0  0  0  0  0  0  0  0  0  0  0
  -25.1846  -15.2399   20.6102 N   0  0  0  0  0  0  0  0  0  0  0  0
  -21.3143  -20.7323   19.4632 N   0  0  0  0  0  0  0  0  0  0  0  0
  -29.1855  -26.4938   21.7360 N   0  0  0  0  0  0  0  0  0  0  0  0
  -21.4413  -23.3893   21.6096 N   0  3  0  0  0  0  0  0  0  0  0  0
  -22.8559  -31.0448   21.4114 O   0  0  0  0  0  0  0  0  0  0  0  0
  -24.6791  -16.5349   18.7421 O   0  0  0  0  0  0  0  0  0  0  0  0
  -21.6399  -18.0389   20.3841 O   0  0  0  0  0  0  0  0  0  0  0  0
  -22.8278  -22.4537   19.1117 O   0  0  0  0  0  0  0  0  0  0  0  0
  -29.2516  -24.2373   22.2016 O   0  0  0  0  0  0  0  0  0  0  0  0
  -16.9669  -26.4736   23.6497 O   0  0  0  0  0  0  0  0  0  0  0  0
  -29.4845  -21.0288   19.2089 O   0  0  0  0  0  0  0  0  0  1  0  0
  -15.2728  -29.4317   27.9837 F   0  0  0  0  0  0  0  0  0  0  0  0
  -16.2360  -25.2376   26.0121 F   0  0  0  0  0  0  0  0  0  0  0  0
  1  2  1  0  0  0  0
  1  5  2  0  0  0  0
  2  6  2  0  0  0  0
  3  8  2  0  0  0  0
  3 17  1  0  0  0  0
  4  9  1  0  0  0  0
  4 17  2  0  0  0  0
  5 19  1  0  0  0  0
  6 21  1  0  0  0  0
  7 10  2  0  0  0  0
  7 20  1  0  0  0  0
  8 23  1  0  0  0  0
  9 23  2  0  0  0  0
 10 24  1  0  0  0  0
 11 12  2  0  0  0  0
 11 25  1  0  0  0  0
 12 26  1  0  0  0  0
 13 22  1  0  0  0  0
 13 24  2  0  0  0  0
 14 26  2  0  0  0  0
 14 27  1  0  0  0  0
 15 29  2  0  0  0  0
 15 63  1  0  0  0  0
 16 30  1  0  0  0  0
 16 62  2  0  0  0  0
 17 28  1  0  0  0  0
 18 28  1  0  0  0  0
 18 31  2  0  0  0  0
 18 32  1  0  0  0  0
 19 21  2  0  0  0  0
 19 37  1  0  0  0  0
 20 22  2  0  0  0  0
 20 38  1  0  0  0  0
 21 46  1  0  0  0  0
 22 39  1  0  0  0  0
 23 79  1  0  0  0  0
 24 80  1  0  0  0  0
 25 27  2  0  0  0  0
 25 79  1  0  0  0  0
 26 81  1  0  0  0  0
 27 82  1  0  0  0  0
 28 64  2  0  0  0  0
 29 55  1  0  0  0  0
 29 62  1  0  0  0  0
 30 56  1  0  0  0  0
 30 63  2  0  0  0  0
 31 65  1  0  0  0  0
 31 68  1  0  0  0  0
 32 69  1  0  0  0  0
 32 74  2  0  0  0  0
 33 47  1  0  0  0  0
 33 70  1  0  0  0  0
 33 75  2  0  0  0  0
 34 59  1  0  0  0  0
 34 66  1  0  0  0  0
 34 76  2  0  0  0  0
 35 60  1  0  0  0  0
 35 71  1  0  0  0  0
 35 77  2  0  0  0  0
 36 67  1  0  0  0  0
 36 72  1  0  0  0  0
 36 78  2  0  0  0  0
 37 40  1  0  0  0  0
 38 47  1  0  0  0  0
 39 66  1  0  0  0  0
 40 42  1  0  0  0  0
 41 43  1  0  0  0  0
 41 44  1  0  0  0  0
 42 46  1  0  0  0  0
 43 48  1  0  0  0  0
 44 67  1  0  0  0  0
 45 48  1  0  0  0  0
 45 67  1  0  0  0  0
 46 70  1  0  0  0  0
 47 66  1  0  0  0  0
 48 65  1  0  0  0  0
 49 60  1  0  0  0  0
 50 61  1  0  0  0  0
 51 61  1  0  0  0  0
 52 61  1  0  0  0  0
 53 72  1  0  0  0  0
 54 73  1  0  0  0  0
 55 57  1  0  0  0  0
 56 58  1  0  0  0  0
 57 72  1  0  0  0  0
 58 80  1  0  0  0  0
 59 61  1  0  0  0  0
 59 71  1  0  0  0  0
 60 73  1  0  0  0  0
 64 65  1  0  0  0  0
M  CHG  1  73   1
M  ISO  4  36 100  58 101  72 100  80 101
M  END
> <Batch ID>
0055

> <Smiles>
CNC(C)C(=O)NC(C(=O)N1Cc2cc([101O:1][101CH2:1]Cc3cnc(CC[100N:0](C)[100C:0](=O)N4CCCC(n5nc(-c6ccc(Oc7ccc(F)cc7F)cc6)c(C(N)=O)c5N)C4)cn3)ccc2CC1C(=O)NC1CCCc2ccccc21)C(C)(C)C

> <Shape>
0.220

> <Color>
0.080

> <Negative vol penalty>
0.000

$$$$

  -OEChem-04052317433D

 82 90  0     1  0  0  0  0  0999 V2000
  -24.1407  -12.9818   12.9002 C   0  0  0  0  0  0  0  0  0  0  0  0
  -24.9354  -13.1854   14.0238 C   0  0  0  0  0  0  0  0  0  0  0  0
  -26.3280  -28.6295   18.9963 C   0  0  0  0  0  0  0  0  0  0  0  0
  -26.1221  -27.7734   21.2462 C   0  0  0  0  0  0  0  0  0  0  0  0
  -22.9132  -13.6335   12.7885 C   0  0  0  0  0  0  0  0  0  0  0  0
  -24.5035  -14.0417   15.0360 C   0  0  0  0  0  0  0  0  0  0  0  0
  -25.2058  -12.0959   19.6583 C   0  0  0  0  0  0  0  0  0  0  0  0
  -25.3624  -29.5964   19.2758 C   0  0  0  0  0  0  0  0  0  0  0  0
  -25.1565  -28.7404   21.5257 C   0  0  0  0  0  0  0  0  0  0  0  0
  -26.4980  -12.1434   20.1795 C   0  0  0  0  0  0  0  0  0  0  0  0
  -25.0778  -32.0309   22.2919 C   0  0  0  0  0  0  0  0  0  0  0  0
  -25.1825  -32.7186   23.5009 C   0  0  0  0  0  0  0  0  0  0  0  0
  -25.8924  -14.0766   21.4890 C   0  0  0  0  0  0  0  0  0  0  0  0
  -23.0050  -31.9011   24.1545 C   0  0  0  0  0  0  0  0  0  0  0  0
  -29.7149  -18.1481   19.7406 C   0  0  0  0  0  0  0  0  0  0  0  0
  -29.5430  -18.0762   21.9315 C   0  0  0  0  0  0  0  0  0  0  0  0
  -26.7078  -27.7179   19.9815 C   0  0  0  0  0  0  0  0  0  0  0  0
  -29.0974  -26.8327   19.8643 C   0  0  0  0  0  0  0  0  0  0  0  0
  -22.4617  -14.4908   13.8043 C   0  0  0  0  0  0  0  0  0  0  0  0
  -24.2486  -13.0466   20.0409 C   0  0  0  0  0  0  0  0  0  0  0  0
  -23.2694  -14.7066   14.9372 C   0  0  0  0  0  0  0  0  0  0  0  0
  -24.5880  -14.0375   20.9731 C   0  0  0  0  0  0  0  0  0  0  0  0
  -29.2145  -18.8561   20.8497 C   0  0  0  0  0  0  0  0  0  0  0  0
  -24.7766  -29.6520   20.5405 C   0  0  0  0  0  0  0  0  0  0  0  0
  -26.8423  -13.1355   21.0928 C   0  0  0  0  0  0  0  0  0  0  0  0
  -23.9366  -31.2784   22.0141 C   0  0  0  0  0  0  0  0  0  0  0  0
  -24.1461  -32.6537   24.4322 C   0  0  0  0  0  0  0  0  0  0  0  0
  -22.9003  -31.2134   22.9454 C   0  0  0  0  0  0  0  0  0  0  0  0
  -27.7048  -26.7184   19.6932 C   0  0  0  0  0  0  0  0  0  0  0  0
  -29.5949  -25.6214   19.4499 C   0  0  0  0  0  0  0  0  0  0  0  0
  -29.8721  -27.9352   20.3542 C   0  0  0  0  0  0  0  0  0  0  0  0
  -22.5684  -15.2755   18.5202 C   0  0  0  0  0  0  0  0  0  0  0  0
  -21.1257  -15.6038   21.4070 C   0  0  0  0  0  0  0  0  0  0  0  0
  -21.2973  -15.2121   24.7928 C   0  0  0  0  0  0  0  0  0  0  0  0
  -26.6934  -20.2375   19.0852 C   0  0  0  0  0  0  0  0  0  0  0  0
  -21.1492  -15.2098   13.6172 C   0  0  0  0  0  0  0  0  0  0  0  0
  -22.8514  -12.9656   19.4898 C   0  0  0  0  0  0  0  0  0  0  0  0
  -23.5914  -15.0694   21.4318 C   0  0  0  0  0  0  0  0  0  0  0  0
  -20.5942  -15.8099   14.9065 C   0  0  0  0  0  0  0  0  0  0  0  0
  -28.6591  -21.9922   16.4854 C   0  0  0  0  0  0  0  0  0  0  0  0
  -21.6889  -16.5565   15.6623 C   0  0  0  0  0  0  0  0  0  0  0  0
  -28.6882  -23.4292   17.0032 C   0  0  0  0  0  0  0  0  0  0  0  0
  -27.4117  -21.2469   16.9506 C   0  0  0  0  0  0  0  0  0  0  0  0
  -27.2439  -22.7012   18.9434 C   0  0  0  0  0  0  0  0  0  0  0  0
  -22.8241  -15.6086   16.0678 C   0  0  1  0  0  0  0  0  0  0  0  0
  -22.1041  -14.2938   19.5586 C   0  0  1  0  0  0  0  0  0  0  0  0
  -28.5109  -23.4656   18.5311 C   0  0  2  0  0  0  0  0  0  0  0  0
  -19.9780  -15.6063   26.8908 C   0  0  0  0  0  0  0  0  0  0  0  0
  -32.2879  -15.7656   22.0622 C   0  0  0  0  0  0  0  0  0  0  0  0
  -21.7736  -18.5814   21.2521 C   0  0  0  0  0  0  0  0  0  0  0  0
  -21.3115  -18.7386   23.7077 C   0  0  0  0  0  0  0  0  0  0  0  0
  -19.4959  -18.0542   22.1399 C   0  0  0  0  0  0  0  0  0  0  0  0
  -26.2030  -19.4018   21.3525 C   0  0  0  0  0  0  0  0  0  0  0  0
  -21.2599  -12.3266   25.4496 C   0  0  0  0  0  0  0  0  0  0  0  0
  -28.5020  -20.1435   20.8524 C   0  0  0  0  0  0  0  0  0  0  0  0
  -30.1307  -14.4740   21.8479 C   0  0  0  0  0  0  0  0  0  0  0  0
  -28.6083  -14.4694   21.9634 C   0  0  0  0  0  0  0  0  0  1  0  0
  -21.3767  -16.4399   22.6386 C   0  0  1  0  0  0  0  0  0  0  0  0
  -20.3192  -14.6155   25.7886 C   0  0  2  0  0  0  0  0  0  0  0  0
  -30.7639  -15.8286   22.2197 C   0  0  2  0  0  0  0  0  0  0  0  0
  -21.0090  -17.9354   22.4247 C   0  0  0  0  0  0  0  0  0  0  0  0
  -30.3158  -17.0064   20.0860 N   0  0  0  0  0  0  0  0  0  0  0  0
  -27.3409  -25.5285   19.2076 N   0  0  0  0  0  0  0  0  0  0  0  0
  -30.1951  -16.9909   21.4244 N   0  0  0  0  0  0  0  0  0  0  0  0
  -28.5122  -24.8841   19.0701 N   0  0  0  0  0  0  0  0  0  0  0  0
  -22.2400  -14.9521   20.8595 N   0  0  0  0  0  0  0  0  0  0  0  0
  -27.2440  -21.3340   18.4016 N   0  0  0  0  0  0  0  0  0  0  0  0
  -30.8484  -25.1258   19.3768 N   0  0  0  0  0  0  0  0  0  0  0  0
  -29.2018  -29.1050   20.7372 N   0  0  0  0  0  0  0  0  0  0  0  0
  -22.4393  -14.8233   17.2209 N   0  0  0  0  0  0  0  0  0  0  0  0
  -20.6477  -15.7949   23.7253 N   0  0  0  0  0  0  0  0  0  0  0  0
  -27.1145  -20.0312   20.4077 N   0  0  0  0  0  0  0  0  0  0  0  0
  -20.8993  -13.3950   26.4169 N   0  3  0  0  0  0  0  0  0  0  0  0
  -31.1232  -27.8904   20.4342 O   0  0  0  0  0  0  0  0  0  0  0  0
  -23.0097  -16.3634   18.8717 O   0  0  0  0  0  0  0  0  0  0  0  0
  -19.9820  -15.5259   20.9517 O   0  0  0  0  0  0  0  0  0  0  0  0
  -22.5157  -15.1690   24.9483 O   0  0  0  0  0  0  0  0  0  0  0  0
  -25.8795  -19.4801   18.5412 O   0  0  0  0  0  0  0  0  0  0  0  0
  -23.8345  -30.5956   20.8137 O   0  0  0  0  0  0  0  0  0  0  0  0
  -28.1031  -13.1845   21.6025 O   0  0  0  0  0  0  0  0  0  1  0  0
  -24.2475  -33.3129   25.5938 F   0  0  0  0  0  0  0  0  0  0  0  0
  -21.8020  -30.4911   22.6847 F   0  0  0  0  0  0  0  0  0  0  0  0
  1  2  1  0  0  0  0
  1  5  2  0  0  0  0
  2  6  2  0  0  0  0
  3  8  2  0  0  0  0
  3 17  1  0  0  0  0
  4  9  1  0  0  0  0
  4 17  2  0  0  0  0
  5 19  1  0  0  0  0
  6 21  1  0  0  0  0
  7 10  2  0  0  0  0
  7 20  1  0  0  0  0
  8 24  1  0  0  0  0
  9 24  2  0  0  0  0
 10 25  1  0  0  0  0
 11 12  2  0  0  0  0
 11 26  1  0  0  0  0
 12 27  1  0  0  0  0
 13 22  1  0  0  0  0
 13 25  2  0  0  0  0
 14 27  2  0  0  0  0
 14 28  1  0  0  0  0
 15 23  1  0  0  0  0
 15 62  2  0  0  0  0
 16 23  2  0  0  0  0
 16 64  1  0  0  0  0
 17 29  1  0  0  0  0
 18 29  1  0  0  0  0
 18 30  2  0  0  0  0
 18 31  1  0  0  0  0
 19 21  2  0  0  0  0
 19 36  1  0  0  0  0
 20 22  2  0  0  0  0
 20 37  1  0  0  0  0
 21 45  1  0  0  0  0
 22 38  1  0  0  0  0
 23 55  1  0  0  0  0
 24 79  1  0  0  0  0
 25 80  1  0  0  0  0
 26 28  2  0  0  0  0
 26 79  1  0  0  0  0
 27 81  1  0  0  0  0
 28 82  1  0  0  0  0
 29 63  2  0  0  0  0
 30 65  1  0  0  0  0
 30 68  1  0  0  0  0
 31 69  1  0  0  0  0
 31 74  2  0  0  0  0
 32 46  1  0  0  0  0
 32 70  1  0  0  0  0
 32 75  2  0  0  0  0
 33 58  1  0  0  0  0
 33 66  1  0  0  0  0
 33 76  2  0  0  0  0
 34 59  1  0  0  0  0
 34 71  1  0  0  0  0
 34 77  2  0  0  0  0
 35 67  1  0  0  0  0
 35 72  1  0  0  0  0
 35 78  2  0  0  0  0
 36 39  1  0  0  0  0
 37 46  1  0  0  0  0
 38 66  1  0  0  0  0
 39 41  1  0  0  0  0
 40 42  1  0  0  0  0
 40 43  1  0  0  0  0
 41 45  1  0  0  0  0
 42 47  1  0  0  0  0
 43 67  1  0  0  0  0
 44 47  1  0  0  0  0
 44 67  1  0  0  0  0
 45 70  1  0  0  0  0
 46 66  1  0  0  0  0
 47 65  1  0  0  0  0
 48 59  1  0  0  0  0
 49 60  1  0  0  0  0
 50 61  1  0  0  0  0
 51 61  1  0  0  0  0
 52 61  1  0  0  0  0
 53 72  1  0  0  0  0
 54 73  1  0  0  0  0
 55 72  1  0  0  0  0
 56 57  1  0  0  0  0
 56 60  1  0  0  0  0
 57 80  1  0  0  0  0
 58 61  1  0  0  0  0
 58 71  1  0  0  0  0
 59 73  1  0  0  0  0
 60 64  1  0  0  0  0
 62 64  1  0  0  0  0
 63 65  1  0  0  0  0
M  CHG  1  73   1
M  ISO  4  35 100  57 101  72 100  80 101
M  END
> <Batch ID>
0055

> <Smiles>
CNC(C)C(=O)NC(C(=O)N1Cc2cc([101O:1][101CH2:1]CC(C)n3cc(C[100N:0](C)[100C:0](=O)N4CCCC(n5nc(-c6ccc(Oc7ccc(F)cc7F)cc6)c(C(N)=O)c5N)C4)cn3)ccc2CC1C(=O)NC1CCCc2ccccc21)C(C)(C)C

> <Shape>
0.223

> <Color>
0.061

> <Negative vol penalty>
0.000

$$$$

  -OEChem-04052317433D

 82 90  0     1  0  0  0  0  0999 V2000
  -31.0727  -27.3353   16.4781 C   0  0  0  0  0  0  0  0  0  0  0  0
  -29.7058  -27.1031   16.5920 C   0  0  0  0  0  0  0  0  0  0  0  0
  -23.1610  -14.0399   20.4570 C   0  0  0  0  0  0  0  0  0  0  0  0
  -25.1621  -14.6378   21.6717 C   0  0  0  0  0  0  0  0  0  0  0  0
  -31.7974  -27.7814   17.5826 C   0  0  0  0  0  0  0  0  0  0  0  0
  -29.0629  -27.3158   17.8110 C   0  0  0  0  0  0  0  0  0  0  0  0
  -23.3565  -29.3731   18.6537 C   0  0  0  0  0  0  0  0  0  0  0  0
  -23.6504  -12.7447   20.2883 C   0  0  0  0  0  0  0  0  0  0  0  0
  -25.6515  -13.3425   21.5030 C   0  0  0  0  0  0  0  0  0  0  0  0
  -22.1536  -28.7201   18.9190 C   0  0  0  0  0  0  0  0  0  0  0  0
  -24.2134   -9.1802   19.8499 C   0  0  0  0  0  0  0  0  0  0  0  0
  -23.3357   -8.1204   20.0783 C   0  0  0  0  0  0  0  0  0  0  0  0
  -22.4562  -29.1332   21.2763 C   0  0  0  0  0  0  0  0  0  0  0  0
  -23.0357   -8.8605   22.3586 C   0  0  0  0  0  0  0  0  0  0  0  0
  -20.6530  -25.1171   23.6990 C   0  0  0  0  0  0  0  0  0  0  0  0
  -23.9169  -14.9865   21.1487 C   0  0  0  0  0  0  0  0  0  0  0  0
  -22.6238  -16.8044   22.3859 C   0  0  0  0  0  0  0  0  0  0  0  0
  -31.1612  -28.0088   18.8131 C   0  0  0  0  0  0  0  0  0  0  0  0
  -24.1250  -29.9024   19.7004 C   0  0  0  0  0  0  0  0  0  0  0  0
  -29.7799  -27.7640   18.9334 C   0  0  0  0  0  0  0  0  0  0  0  0
  -23.6672  -29.7947   21.0214 C   0  0  0  0  0  0  0  0  0  0  0  0
  -21.1867  -24.3086   21.1948 C   0  0  0  0  0  0  0  0  0  0  0  0
  -24.8956  -12.3960   20.8113 C   0  0  0  0  0  0  0  0  0  0  0  0
  -21.7047  -28.5975   20.2307 C   0  0  0  0  0  0  0  0  0  0  0  0
  -24.5023  -10.0800   20.8758 C   0  0  0  0  0  0  0  0  0  0  0  0
  -22.7469   -7.9606   21.3327 C   0  0  0  0  0  0  0  0  0  0  0  0
  -23.9135   -9.9202   22.1301 C   0  0  0  0  0  0  0  0  0  0  0  0
  -23.4122  -16.3248   21.3228 C   0  0  0  0  0  0  0  0  0  0  0  0
  -20.2046  -25.2370   21.4738 C   0  0  0  0  0  0  0  0  0  0  0  0
  -21.8767  -23.8229   22.2867 C   0  0  0  0  0  0  0  0  0  0  0  0
  -22.4114  -18.1279   22.0860 C   0  0  0  0  0  0  0  0  0  0  0  0
  -22.1279  -16.1153   23.5412 C   0  0  0  0  0  0  0  0  0  0  0  0
  -27.0446  -29.3621   20.8352 C   0  0  0  0  0  0  0  0  0  0  0  0
  -26.3616  -31.9127   22.7193 C   0  0  0  0  0  0  0  0  0  0  0  0
  -23.9886  -33.8707   24.1964 C   0  0  0  0  0  0  0  0  0  0  0  0
  -24.8210  -22.9928   20.3997 C   0  0  0  0  0  0  0  0  0  0  0  0
  -31.9950  -28.4458   19.9915 C   0  0  0  0  0  0  0  0  0  0  0  0
  -25.4070  -30.6273   19.3952 C   0  0  0  0  0  0  0  0  0  0  0  0
  -24.4450  -30.3635   22.1790 C   0  0  0  0  0  0  0  0  0  0  0  0
  -31.1697  -29.0054   21.1474 C   0  0  0  0  0  0  0  0  0  0  0  0
  -23.3141  -20.7522   17.8678 C   0  0  0  0  0  0  0  0  0  0  0  0
  -29.9797  -28.0977   21.4422 C   0  0  0  0  0  0  0  0  0  0  0  0
  -23.2111  -19.4247   18.6169 C   0  0  0  0  0  0  0  0  0  0  0  0
  -24.4646  -21.6089   18.3874 C   0  0  0  0  0  0  0  0  0  0  0  0
  -24.3173  -20.5235   20.6042 C   0  0  0  0  0  0  0  0  0  0  0  0
  -29.0422  -28.0068   20.2322 C   0  0  1  0  0  0  0  0  0  0  0  0
  -26.3627  -30.6771   20.5833 C   0  0  1  0  0  0  0  0  0  0  0  0
  -23.1390  -19.6563   20.1362 C   0  0  2  0  0  0  0  0  0  0  0  0
  -21.4823  -23.8605   19.8074 C   0  0  0  0  0  0  0  0  0  0  0  0
  -23.7361  -35.8577   25.7083 C   0  0  0  0  0  0  0  0  0  0  0  0
  -27.0880  -30.1753   25.1201 C   0  0  0  0  0  0  0  0  0  0  0  0
  -25.9330  -31.8425   26.5879 C   0  0  0  0  0  0  0  0  0  0  0  0
  -27.9206  -32.5301   25.2465 C   0  0  0  0  0  0  0  0  0  0  0  0
  -24.5881  -24.6666   22.1952 C   0  0  0  0  0  0  0  0  0  0  0  0
  -22.5597  -35.4175   22.1168 C   0  0  0  0  0  0  0  0  0  0  0  0
  -19.3833  -25.8395   20.3599 C   0  0  0  0  0  0  0  0  0  0  0  0
  -22.9624  -22.8133   22.1073 C   0  0  0  0  0  0  0  0  0  0  0  0
  -20.1440  -26.9187   19.5971 C   0  0  0  0  0  0  0  0  0  1  0  0
  -25.7223  -32.1005   24.0739 C   0  0  1  0  0  0  0  0  0  0  0  0
  -23.8286  -35.3786   24.2679 C   0  0  2  0  0  0  0  0  0  0  0  0
  -26.6520  -31.6496   25.2357 C   0  0  0  0  0  0  0  0  0  0  0  0
  -19.9101  -25.6655   22.7188 N   0  0  0  0  0  0  0  0  0  0  0  0
  -21.6352  -24.2067   23.5574 N   0  0  0  0  0  0  0  0  0  0  0  0
  -23.6822  -17.2669   20.4152 N   0  0  0  0  0  0  0  0  0  0  0  0
  -23.0599  -18.3517   20.9072 N   0  0  0  0  0  0  0  0  0  0  0  0
  -25.6954  -31.0578   21.8299 N   0  0  0  0  0  0  0  0  0  0  0  0
  -24.3958  -21.7771   19.8394 N   0  0  0  0  0  0  0  0  0  0  0  0
  -21.7350  -19.1103   22.7182 N   0  0  0  0  0  0  0  0  0  0  0  0
  -22.4397  -14.7575   23.6944 N   0  0  0  0  0  0  0  0  0  0  0  0
  -28.2247  -29.1971   20.1355 N   0  0  0  0  0  0  0  0  0  0  0  0
  -25.3156  -33.4999   24.1429 N   0  0  0  0  0  0  0  0  0  0  0  0
  -24.1899  -23.4074   21.5823 N   0  0  0  0  0  0  0  0  0  0  0  0
  -22.5928  -35.8030   23.5512 N   0  3  0  0  0  0  0  0  0  0  0  0
  -21.4152  -16.6826   24.4037 O   0  0  0  0  0  0  0  0  0  0  0  0
  -26.5382  -28.5573   21.6082 O   0  0  0  0  0  0  0  0  0  0  0  0
  -27.4095  -32.5084   22.4574 O   0  0  0  0  0  0  0  0  0  0  0  0
  -23.0322  -33.0989   24.1925 O   0  0  0  0  0  0  0  0  0  0  0  0
  -25.7071  -23.6738   19.8678 O   0  0  0  0  0  0  0  0  0  0  0  0
  -25.3733  -11.1321   20.6471 O   0  0  0  0  0  0  0  0  0  0  0  0
  -20.5313  -27.9601   20.4926 O   0  0  0  0  0  0  0  0  0  1  0  0
  -21.9028   -6.9438   21.5515 F   0  0  0  0  0  0  0  0  0  0  0  0
  -24.1863  -10.7822   23.1192 F   0  0  0  0  0  0  0  0  0  0  0  0
  1  2  1  0  0  0  0
  1  5  2  0  0  0  0
  2  6  2  0  0  0  0
  3  8  2  0  0  0  0
  3 16  1  0  0  0  0
  4  9  1  0  0  0  0
  4 16  2  0  0  0  0
  5 18  1  0  0  0  0
  6 20  1  0  0  0  0
  7 10  2  0  0  0  0
  7 19  1  0  0  0  0
  8 23  1  0  0  0  0
  9 23  2  0  0  0  0
 10 24  1  0  0  0  0
 11 12  2  0  0  0  0
 11 25  1  0  0  0  0
 12 26  1  0  0  0  0
 13 21  1  0  0  0  0
 13 24  2  0  0  0  0
 14 26  2  0  0  0  0
 14 27  1  0  0  0  0
 15 62  2  0  0  0  0
 15 63  1  0  0  0  0
 16 28  1  0  0  0  0
 17 28  1  0  0  0  0
 17 31  2  0  0  0  0
 17 32  1  0  0  0  0
 18 20  2  0  0  0  0
 18 37  1  0  0  0  0
 19 21  2  0  0  0  0
 19 38  1  0  0  0  0
 20 46  1  0  0  0  0
 21 39  1  0  0  0  0
 22 29  2  0  0  0  0
 22 30  1  0  0  0  0
 22 49  1  0  0  0  0
 23 79  1  0  0  0  0
 24 80  1  0  0  0  0
 25 27  2  0  0  0  0
 25 79  1  0  0  0  0
 26 81  1  0  0  0  0
 27 82  1  0  0  0  0
 28 64  2  0  0  0  0
 29 56  1  0  0  0  0
 29 62  1  0  0  0  0
 30 57  1  0  0  0  0
 30 63  2  0  0  0  0
 31 65  1  0  0  0  0
 31 68  1  0  0  0  0
 32 69  1  0  0  0  0
 32 74  2  0  0  0  0
 33 47  1  0  0  0  0
 33 70  1  0  0  0  0
 33 75  2  0  0  0  0
 34 59  1  0  0  0  0
 34 66  1  0  0  0  0
 34 76  2  0  0  0  0
 35 60  1  0  0  0  0
 35 71  1  0  0  0  0
 35 77  2  0  0  0  0
 36 67  1  0  0  0  0
 36 72  1  0  0  0  0
 36 78  2  0  0  0  0
 37 40  1  0  0  0  0
 38 47  1  0  0  0  0
 39 66  1  0  0  0  0
 40 42  1  0  0  0  0
 41 43  1  0  0  0  0
 41 44  1  0  0  0  0
 42 46  1  0  0  0  0
 43 48  1  0  0  0  0
 44 67  1  0  0  0  0
 45 48  1  0  0  0  0
 45 67  1  0  0  0  0
 46 70  1  0  0  0  0
 47 66  1  0  0  0  0
 48 65  1  0  0  0  0
 50 60  1  0  0  0  0
 51 61  1  0  0  0  0
 52 61  1  0  0  0  0
 53 61  1  0  0  0  0
 54 72  1  0  0  0  0
 55 73  1  0  0  0  0
 56 58  1  0  0  0  0
 57 72  1  0  0  0  0
 58 80  1  0  0  0  0
 59 61  1  0  0  0  0
 59 71  1  0  0  0  0
 60 73  1  0  0  0  0
 64 65  1  0  0  0  0
M  CHG  1  73   1
M  ISO  4  36 100  58 101  72 100  80 101
M  END
> <Batch ID>
0055

> <Smiles>
CNC(C)C(=O)NC(C(=O)N1Cc2cc([101O:1][101CH2:1]Cc3ncnc(C[100N:0](C)[100C:0](=O)N4CCCC(n5nc(-c6ccc(Oc7ccc(F)cc7F)cc6)c(C(N)=O)c5N)C4)c3C)ccc2CC1C(=O)NC1CCCc2ccccc21)C(C)(C)C

> <Shape>
0.231

> <Color>
0.084

> <Negative vol penalty>
0.000

$$$$

  -OEChem-04052317433D

 80 88  0     1  0  0  0  0  0999 V2000
  -27.1650  -10.4816   16.8333 C   0  0  0  0  0  0  0  0  0  0  0  0
  -26.1455  -11.3218   17.2693 C   0  0  0  0  0  0  0  0  0  0  0  0
  -25.0602  -29.3472   19.5982 C   0  0  0  0  0  0  0  0  0  0  0  0
  -25.7619  -27.2345   20.5370 C   0  0  0  0  0  0  0  0  0  0  0  0
  -28.4201  -10.5386   17.4378 C   0  0  0  0  0  0  0  0  0  0  0  0
  -26.3802  -12.2187   18.3109 C   0  0  0  0  0  0  0  0  0  0  0  0
  -23.9960  -17.8234   18.9506 C   0  0  0  0  0  0  0  0  0  0  0  0
  -26.3633  -29.8312   19.7135 C   0  0  0  0  0  0  0  0  0  0  0  0
  -27.0650  -27.7186   20.6523 C   0  0  0  0  0  0  0  0  0  0  0  0
  -22.9217  -18.3061   19.6966 C   0  0  0  0  0  0  0  0  0  0  0  0
  -29.7253  -28.2121   18.6276 C   0  0  0  0  0  0  0  0  0  0  0  0
  -30.7641  -27.3763   18.2178 C   0  0  0  0  0  0  0  0  0  0  0  0
  -24.4409  -18.9495   21.4566 C   0  0  0  0  0  0  0  0  0  0  0  0
  -31.6918  -27.4358   20.4478 C   0  0  0  0  0  0  0  0  0  0  0  0
  -20.3961  -19.7801   24.6351 C   0  0  0  0  0  0  0  0  0  0  0  0
  -24.7595  -28.0488   20.0100 C   0  0  0  0  0  0  0  0  0  0  0  0
  -22.8514  -26.8728   18.7919 C   0  0  0  0  0  0  0  0  0  0  0  0
  -28.6731  -11.4434   18.4808 C   0  0  0  0  0  0  0  0  0  0  0  0
  -25.3018  -17.8902   19.4574 C   0  0  0  0  0  0  0  0  0  0  0  0
  -27.6395  -12.2869   18.9308 C   0  0  0  0  0  0  0  0  0  0  0  0
  -25.5303  -18.4692   20.7139 C   0  0  0  0  0  0  0  0  0  0  0  0
  -27.3657  -29.0169   20.2406 C   0  0  0  0  0  0  0  0  0  0  0  0
  -23.1437  -18.8667   20.9511 C   0  0  0  0  0  0  0  0  0  0  0  0
  -29.6698  -28.6598   19.9475 C   0  0  0  0  0  0  0  0  0  0  0  0
  -31.7473  -26.9881   19.1279 C   0  0  0  0  0  0  0  0  0  0  0  0
  -30.6530  -28.2716   20.8576 C   0  0  0  0  0  0  0  0  0  0  0  0
  -23.4135  -27.5484   19.8916 C   0  0  0  0  0  0  0  0  0  0  0  0
  -21.1189  -20.3322   23.6155 C   0  0  0  0  0  0  0  0  0  0  0  0
  -21.5581  -26.6120   19.1737 C   0  0  0  0  0  0  0  0  0  0  0  0
  -19.3490  -21.6137   23.9703 C   0  0  0  0  0  0  0  0  0  0  0  0
  -23.4452  -26.5131   17.5374 C   0  0  0  0  0  0  0  0  0  0  0  0
  -27.5263  -15.7497   20.2148 C   0  0  0  0  0  0  0  0  0  0  0  0
  -29.3540  -18.3894   20.6772 C   0  0  0  0  0  0  0  0  0  0  0  0
  -29.4986  -21.7297   21.3614 C   0  0  0  0  0  0  0  0  0  0  0  0
  -18.4834  -25.1981   23.8707 C   0  0  0  0  0  0  0  0  0  0  0  0
  -30.0320  -11.4355   19.1350 C   0  0  0  0  0  0  0  0  0  0  0  0
  -26.4528  -17.3893   18.6288 C   0  0  0  0  0  0  0  0  0  0  0  0
  -26.9154  -18.5830   21.2944 C   0  0  0  0  0  0  0  0  0  0  0  0
  -30.3078  -12.6755   19.9814 C   0  0  0  0  0  0  0  0  0  0  0  0
  -18.4712  -28.5013   22.5418 C   0  0  0  0  0  0  0  0  0  0  0  0
  -29.1125  -12.9877   20.8762 C   0  0  0  0  0  0  0  0  0  0  0  0
  -19.6922  -28.5295   21.6207 C   0  0  0  0  0  0  0  0  0  0  0  0
  -18.7266  -27.6621   23.7919 C   0  0  0  0  0  0  0  0  0  0  0  0
  -20.4204  -26.3180   22.6095 C   0  0  0  0  0  0  0  0  0  0  0  0
  -27.8624  -13.2905   20.0412 C   0  0  1  0  0  0  0  0  0  0  0  0
  -27.6821  -17.0409   19.4623 C   0  0  1  0  0  0  0  0  0  0  0  0
  -20.1919  -27.1061   21.3084 C   0  0  2  0  0  0  0  0  0  0  0  0
  -17.2212  -22.4029   22.8697 C   0  0  0  0  0  0  0  0  0  0  0  0
  -31.1350  -23.5994   21.7135 C   0  0  0  0  0  0  0  0  0  0  0  0
  -29.9739  -17.3184   23.4662 C   0  0  0  0  0  0  0  0  0  0  0  0
  -30.7890  -19.6030   24.0864 C   0  0  0  0  0  0  0  0  0  0  0  0
  -31.9306  -18.3224   22.2755 C   0  0  0  0  0  0  0  0  0  0  0  0
  -18.2743  -20.3765   25.8276 C   0  0  0  0  0  0  0  0  0  0  0  0
  -28.4346  -23.2502   19.0560 C   0  0  0  0  0  0  0  0  0  0  0  0
  -22.3968  -19.8996   22.9588 C   0  0  0  0  0  0  0  0  0  1  0  0
  -18.3665  -22.7193   23.8470 C   0  0  2  0  0  0  0  0  0  0  0  0
  -29.6393  -19.3008   21.8463 C   0  0  1  0  0  0  0  0  0  0  0  0
  -30.2701  -22.8600   20.7045 C   0  0  2  0  0  0  0  0  0  0  0  0
  -30.5568  -18.6324   22.9088 C   0  0  0  0  0  0  0  0  0  0  0  0
  -22.5481  -27.7071   20.8966 N   0  0  0  0  0  0  0  0  0  0  0  0
  -19.3069  -20.5939   24.8338 N   0  0  0  0  0  0  0  0  0  0  0  0
  -21.4291  -27.1275   20.4298 N   0  0  0  0  0  0  0  0  0  0  0  0
  -20.4478  -21.4653   23.2233 N   0  3  0  0  0  0  0  0  0  0  0  0
  -28.0073  -18.0733   20.4486 N   0  0  0  0  0  0  0  0  0  0  0  0
  -19.1966  -26.3237   23.4263 N   0  0  0  0  0  0  0  0  0  0  0  0
  -20.5299  -25.9944   18.5541 N   0  0  0  0  0  0  0  0  0  0  0  0
  -24.7845  -26.8573   17.3091 N   0  0  0  0  0  0  0  0  0  0  0  0
  -27.9257  -14.6333   19.5052 N   0  0  0  0  0  0  0  0  0  0  0  0
  -30.1787  -20.5329   21.2813 N   0  0  0  0  0  0  0  0  0  0  0  0
  -18.9932  -23.9679   23.4741 N   0  0  0  0  0  0  0  0  0  0  0  0
  -29.3305  -23.8372   20.0854 N   0  3  0  0  0  0  0  0  0  0  0  0
  -22.8022  -25.9190   16.6390 O   0  0  0  0  0  0  0  0  0  0  0  0
  -27.0782  -15.7653   21.3553 O   0  0  0  0  0  0  0  0  0  0  0  0
  -30.2909  -17.9790   19.9877 O   0  0  0  0  0  0  0  0  0  0  0  0
  -28.4039  -21.8929   21.8958 O   0  0  0  0  0  0  0  0  0  0  0  0
  -17.4646  -25.2835   24.5648 O   0  0  0  0  0  0  0  0  0  0  0  0
  -28.6374  -29.4889   20.3530 O   0  0  0  0  0  0  0  0  0  0  0  0
  -22.0969  -19.3381   21.6817 O   0  0  0  0  0  0  0  0  0  1  0  0
  -32.7440  -26.1843   18.7346 F   0  0  0  0  0  0  0  0  0  0  0  0
  -30.6042  -28.6976   22.1273 F   0  0  0  0  0  0  0  0  0  0  0  0
  1  2  1  0  0  0  0
  1  5  2  0  0  0  0
  2  6  2  0  0  0  0
  3  8  2  0  0  0  0
  3 16  1  0  0  0  0
  4  9  1  0  0  0  0
  4 16  2  0  0  0  0
  5 18  1  0  0  0  0
  6 20  1  0  0  0  0
  7 10  2  0  0  0  0
  7 19  1  0  0  0  0
  8 22  1  0  0  0  0
  9 22  2  0  0  0  0
 10 23  1  0  0  0  0
 11 12  2  0  0  0  0
 11 24  1  0  0  0  0
 12 25  1  0  0  0  0
 13 21  1  0  0  0  0
 13 23  2  0  0  0  0
 14 25  2  0  0  0  0
 14 26  1  0  0  0  0
 15 28  2  0  0  0  0
 15 61  1  0  0  0  0
 16 27  1  0  0  0  0
 17 27  1  0  0  0  0
 17 29  2  0  0  0  0
 17 31  1  0  0  0  0
 18 20  2  0  0  0  0
 18 36  1  0  0  0  0
 19 21  2  0  0  0  0
 19 37  1  0  0  0  0
 20 45  1  0  0  0  0
 21 38  1  0  0  0  0
 22 77  1  0  0  0  0
 23 78  1  0  0  0  0
 24 26  2  0  0  0  0
 24 77  1  0  0  0  0
 25 79  1  0  0  0  0
 26 80  1  0  0  0  0
 27 60  2  0  0  0  0
 28 55  1  0  0  0  0
 28 63  1  0  0  0  0
 29 62  1  0  0  0  0
 29 66  1  0  0  0  0
 30 56  1  0  0  0  0
 30 61  1  0  0  0  0
 30 63  2  0  0  0  0
 31 67  1  0  0  0  0
 31 72  2  0  0  0  0
 32 46  1  0  0  0  0
 32 68  1  0  0  0  0
 32 73  2  0  0  0  0
 33 57  1  0  0  0  0
 33 64  1  0  0  0  0
 33 74  2  0  0  0  0
 34 58  1  0  0  0  0
 34 69  1  0  0  0  0
 34 75  2  0  0  0  0
 35 65  1  0  0  0  0
 35 70  1  0  0  0  0
 35 76  2  0  0  0  0
 36 39  1  0  0  0  0
 37 46  1  0  0  0  0
 38 64  1  0  0  0  0
 39 41  1  0  0  0  0
 40 42  1  0  0  0  0
 40 43  1  0  0  0  0
 41 45  1  0  0  0  0
 42 47  1  0  0  0  0
 43 65  1  0  0  0  0
 44 47  1  0  0  0  0
 44 65  1  0  0  0  0
 45 68  1  0  0  0  0
 46 64  1  0  0  0  0
 47 62  1  0  0  0  0
 48 56  1  0  0  0  0
 49 58  1  0  0  0  0
 50 59  1  0  0  0  0
 51 59  1  0  0  0  0
 52 59  1  0  0  0  0
 53 61  1  0  0  0  0
 54 71  1  0  0  0  0
 55 78  1  0  0  0  0
 56 70  1  0  0  0  0
 57 59  1  0  0  0  0
 57 69  1  0  0  0  0
 58 71  1  0  0  0  0
 60 62  1  0  0  0  0
M  CHG  2  63   1  71   1
M  ISO  4  35 100  55 101  70 100  78 101
M  END
> <Batch ID>
0055

> <Smiles>
CNC(C)C(=O)NC(C(=O)N1Cc2cc([101O:1][101CH2:1]c3cn(C)c(C(C)[100NH:0][100C:0](=O)N4CCCC(n5nc(-c6ccc(Oc7ccc(F)cc7F)cc6)c(C(N)=O)c5N)C4)n3)ccc2CC1C(=O)NC1CCCc2ccccc21)C(C)(C)C

> <Shape>
0.211

> <Color>
0.069

> <Negative vol penalty>
0.000

$$$$

  -OEChem-04052317433D

 87 95  0     1  0  0  0  0  0999 V2000
  -30.8123  -34.8959   18.9921 C   0  0  0  0  0  0  0  0  0  0  0  0
  -30.5302  -33.5342   19.0328 C   0  0  0  0  0  0  0  0  0  0  0  0
  -24.6505   -8.8228   21.8662 C   0  0  0  0  0  0  0  0  0  0  0  0
  -23.0131   -9.9500   20.4930 C   0  0  0  0  0  0  0  0  0  0  0  0
  -30.3752  -35.7282   20.0217 C   0  0  0  0  0  0  0  0  0  0  0  0
  -29.8118  -33.0039   20.1038 C   0  0  0  0  0  0  0  0  0  0  0  0
  -26.2074  -29.7730   18.6156 C   0  0  0  0  0  0  0  0  0  0  0  0
  -23.6254   -8.1865   22.5661 C   0  0  0  0  0  0  0  0  0  0  0  0
  -21.9880   -9.3136   21.1929 C   0  0  0  0  0  0  0  0  0  0  0  0
  -26.6123  -28.4872   18.2598 C   0  0  0  0  0  0  0  0  0  0  0  0
  -21.5477   -5.5600   22.0995 C   0  0  0  0  0  0  0  0  0  0  0  0
  -21.6842   -4.1947   22.3499 C   0  0  0  0  0  0  0  0  0  0  0  0
  -25.9255  -27.6781   20.4261 C   0  0  0  0  0  0  0  0  0  0  0  0
  -24.1700  -21.8174   16.8101 C   0  0  0  0  0  0  0  0  0  0  0  0
  -21.5851   -4.6205   24.7260 C   0  0  0  0  0  0  0  0  0  0  0  0
  -24.3443   -9.7046   20.8296 C   0  0  0  0  0  0  0  0  0  0  0  0
  -26.0560   -9.9008   18.9483 C   0  0  0  0  0  0  0  0  0  0  0  0
  -29.6428  -35.2094   21.1011 C   0  0  0  0  0  0  0  0  0  0  0  0
  -25.6677  -30.0235   19.8854 C   0  0  0  0  0  0  0  0  0  0  0  0
  -29.3657  -33.8298   21.1495 C   0  0  0  0  0  0  0  0  0  0  0  0
  -25.5122  -28.9674   20.7946 C   0  0  0  0  0  0  0  0  0  0  0  0
  -24.1557  -20.4339   17.1149 C   0  0  0  0  0  0  0  0  0  0  0  0
  -22.2942   -8.4318   22.2295 C   0  0  0  0  0  0  0  0  0  0  0  0
  -26.4741  -27.4400   19.1661 C   0  0  0  0  0  0  0  0  0  0  0  0
  -21.4300   -6.4557   23.1624 C   0  0  0  0  0  0  0  0  0  0  0  0
  -21.7029   -3.7249   23.6631 C   0  0  0  0  0  0  0  0  0  0  0  0
  -21.4486   -5.9859   24.4756 C   0  0  0  0  0  0  0  0  0  0  0  0
  -25.4027  -10.3627   20.1066 C   0  0  0  0  0  0  0  0  0  0  0  0
  -24.8750  -22.4514   17.8092 C   0  0  0  0  0  0  0  0  0  0  0  0
  -24.8523  -20.2647   18.2911 C   0  0  0  0  0  0  0  0  0  0  0  0
  -26.9733  -10.8808   18.6574 C   0  0  0  0  0  0  0  0  0  0  0  0
  -25.8517   -8.6938   18.2019 C   0  0  0  0  0  0  0  0  0  0  0  0
  -26.5097  -31.8253   22.3650 C   0  0  0  0  0  0  0  0  0  0  0  0
  -23.6420  -30.8652   23.5386 C   0  0  0  0  0  0  0  0  0  0  0  0
  -21.1361  -28.5485   23.5280 C   0  0  0  0  0  0  0  0  0  0  0  0
  -27.3174  -16.6528   19.7718 C   0  0  0  0  0  0  0  0  0  0  0  0
  -29.2324  -36.1405   22.2143 C   0  0  0  0  0  0  0  0  0  0  0  0
  -25.2111  -31.4110   20.2441 C   0  0  0  0  0  0  0  0  0  0  0  0
  -24.9199  -29.1799   22.1630 C   0  0  0  0  0  0  0  0  0  0  0  0
  -28.1537  -35.5615   23.1261 C   0  0  0  0  0  0  0  0  0  0  0  0
  -29.6395  -14.2604   20.7257 C   0  0  0  0  0  0  0  0  0  0  0  0
  -28.4981  -34.1278   23.5168 C   0  0  0  0  0  0  0  0  0  0  0  0
  -28.8899  -12.9380   20.5699 C   0  0  0  0  0  0  0  0  0  0  0  0
  -28.7328  -15.3339   21.3157 C   0  0  0  0  0  0  0  0  0  0  0  0
  -26.7227  -14.2553   20.3579 C   0  0  0  0  0  0  0  0  0  0  0  0
  -28.5677  -33.2211   22.2821 C   0  0  1  0  0  0  0  0  0  0  0  0
  -25.1502  -31.6494   21.7497 C   0  0  1  0  0  0  0  0  0  0  0  0
  -27.5944  -13.1306   19.7623 C   0  0  2  0  0  0  0  0  0  0  0  0
  -23.5109  -19.3746   16.3135 C   0  0  0  0  0  0  0  0  0  0  0  0
  -23.8236  -13.7320   18.5012 C   0  0  0  0  0  0  0  0  0  0  0  0
  -25.1996  -21.7209   21.1560 C   0  0  0  0  0  0  0  0  0  0  0  0
  -18.9414  -28.0157   24.6221 C   0  0  0  0  0  0  0  0  0  0  0  0
  -25.1182  -29.9387   26.0431 C   0  0  0  0  0  0  0  0  0  0  0  0
  -23.0954  -28.5960   26.6541 C   0  0  0  0  0  0  0  0  0  0  0  0
  -22.9360  -31.0794   26.4803 C   0  0  0  0  0  0  0  0  0  0  0  0
  -19.6867  -28.6830   20.9512 C   0  0  0  0  0  0  0  0  0  0  0  0
  -25.1969  -23.9139   17.9857 C   0  0  0  0  0  0  0  0  0  0  0  0
  -25.1433  -19.0341   19.0573 C   0  0  0  0  0  0  0  0  0  0  0  0
  -25.0331  -14.6410   18.3330 C   0  0  0  0  0  0  0  0  0  0  0  0
  -26.5132  -24.3382   17.3309 C   0  0  0  0  0  0  0  0  0  0  0  0
  -26.0563  -21.7545   19.9021 C   0  0  0  0  0  0  0  0  0  0  0  0
  -25.8776  -17.9506   18.2485 C   0  0  0  0  0  0  0  0  0  0  0  0
  -24.9720  -15.8744   19.2261 C   0  0  0  0  0  0  0  0  0  0  0  0
  -26.7877  -25.8336   17.4408 C   0  0  0  0  0  0  0  0  0  1  0  0
  -23.1638  -29.7014   24.3728 C   0  0  1  0  0  0  0  0  0  0  0  0
  -19.6274  -28.6970   23.4482 C   0  0  2  0  0  0  0  0  0  0  0  0
  -23.5913  -29.8249   25.8626 C   0  0  0  0  0  0  0  0  0  0  0  0
  -25.8659  -11.5442   20.5232 N   0  0  0  0  0  0  0  0  0  0  0  0
  -25.2847  -21.4978   18.7041 N   0  0  0  0  0  0  0  0  0  0  0  0
  -26.8200  -11.8329   19.6219 N   0  0  0  0  0  0  0  0  0  0  0  0
  -24.4942  -30.5556   22.4691 N   0  0  0  0  0  0  0  0  0  0  0  0
  -27.5100  -15.4864   20.5268 N   0  0  0  0  0  0  0  0  0  0  0  0
  -27.8880  -11.0123   17.6734 N   0  0  0  0  0  0  0  0  0  0  0  0
  -24.8682   -7.7961   18.6391 N   0  0  0  0  0  0  0  0  0  0  0  0
  -27.2360  -32.8741   21.8341 N   0  0  0  0  0  0  0  0  0  0  0  0
  -21.7214  -29.6193   24.1700 N   0  0  0  0  0  0  0  0  0  0  0  0
  -26.1246  -16.7537   19.0399 N   0  0  0  0  0  0  0  0  0  0  0  0
  -19.1133  -28.0913   22.1873 N   0  3  0  0  0  0  0  0  0  0  0  0
  -26.5328   -8.4116   17.1870 O   0  0  0  0  0  0  0  0  0  0  0  0
  -26.8721  -31.0666   23.2564 O   0  0  0  0  0  0  0  0  0  0  0  0
  -23.2675  -32.0060   23.8210 O   0  0  0  0  0  0  0  0  0  0  0  0
  -21.7350  -27.5779   23.0703 O   0  0  0  0  0  0  0  0  0  0  0  0
  -28.1607  -17.5588   19.7575 O   0  0  0  0  0  0  0  0  0  0  0  0
  -21.2937   -7.8109   22.9121 O   0  0  0  0  0  0  0  0  0  0  0  0
  -26.8691  -26.1842   18.8217 O   0  0  0  0  0  0  0  0  0  1  0  0
  -21.8324   -2.4136   23.9034 F   0  0  0  0  0  0  0  0  0  0  0  0
  -21.3347   -6.8414   25.5008 F   0  0  0  0  0  0  0  0  0  0  0  0
  1  2  1  0  0  0  0
  1  5  2  0  0  0  0
  2  6  2  0  0  0  0
  3  8  2  0  0  0  0
  3 16  1  0  0  0  0
  4  9  1  0  0  0  0
  4 16  2  0  0  0  0
  5 18  1  0  0  0  0
  6 20  1  0  0  0  0
  7 10  2  0  0  0  0
  7 19  1  0  0  0  0
  8 23  1  0  0  0  0
  9 23  2  0  0  0  0
 10 24  1  0  0  0  0
 11 12  2  0  0  0  0
 11 25  1  0  0  0  0
 12 26  1  0  0  0  0
 13 21  1  0  0  0  0
 13 24  2  0  0  0  0
 14 22  1  0  0  0  0
 14 29  2  0  0  0  0
 15 26  2  0  0  0  0
 15 27  1  0  0  0  0
 16 28  1  0  0  0  0
 17 28  1  0  0  0  0
 17 31  2  0  0  0  0
 17 32  1  0  0  0  0
 18 20  2  0  0  0  0
 18 37  1  0  0  0  0
 19 21  2  0  0  0  0
 19 38  1  0  0  0  0
 20 46  1  0  0  0  0
 21 39  1  0  0  0  0
 22 30  2  0  0  0  0
 22 49  1  0  0  0  0
 23 84  1  0  0  0  0
 24 85  1  0  0  0  0
 25 27  2  0  0  0  0
 25 84  1  0  0  0  0
 26 86  1  0  0  0  0
 27 87  1  0  0  0  0
 28 68  2  0  0  0  0
 29 57  1  0  0  0  0
 29 69  1  0  0  0  0
 30 58  1  0  0  0  0
 30 69  1  0  0  0  0
 31 70  1  0  0  0  0
 31 73  1  0  0  0  0
 32 74  1  0  0  0  0
 32 79  2  0  0  0  0
 33 47  1  0  0  0  0
 33 75  1  0  0  0  0
 33 80  2  0  0  0  0
 34 65  1  0  0  0  0
 34 71  1  0  0  0  0
 34 81  2  0  0  0  0
 35 66  1  0  0  0  0
 35 76  1  0  0  0  0
 35 82  2  0  0  0  0
 36 72  1  0  0  0  0
 36 77  1  0  0  0  0
 36 83  2  0  0  0  0
 37 40  1  0  0  0  0
 38 47  1  0  0  0  0
 39 71  1  0  0  0  0
 40 42  1  0  0  0  0
 41 43  1  0  0  0  0
 41 44  1  0  0  0  0
 42 46  1  0  0  0  0
 43 48  1  0  0  0  0
 44 72  1  0  0  0  0
 45 48  1  0  0  0  0
 45 72  1  0  0  0  0
 46 75  1  0  0  0  0
 47 71  1  0  0  0  0
 48 70  1  0  0  0  0
 50 59  1  0  0  0  0
 51 61  1  0  0  0  0
 52 66  1  0  0  0  0
 53 67  1  0  0  0  0
 54 67  1  0  0  0  0
 55 67  1  0  0  0  0
 56 78  1  0  0  0  0
 57 60  1  0  0  0  0
 58 62  1  0  0  0  0
 59 63  1  0  0  0  0
 60 64  1  0  0  0  0
 61 69  1  0  0  0  0
 62 77  1  0  0  0  0
 63 77  1  0  0  0  0
 64 85  1  0  0  0  0
 65 67  1  0  0  0  0
 65 76  1  0  0  0  0
 66 78  1  0  0  0  0
 68 70  1  0  0  0  0
M  CHG  1  78   1
M  ISO  4  36 100  64 101  77 100  85 101
M  END
> <Batch ID>
0055

> <Smiles>
CCC[100N:0](CCc1c(C)cc(CC[101CH2:1][101O:1]c2ccc3c(c2)CN(C(=O)C(NC(=O)C(C)NC)C(C)(C)C)C(C(=O)NC2CCCc4ccccc42)C3)n1CC)[100C:0](=O)N1CCCC(n2nc(-c3ccc(Oc4ccc(F)cc4F)cc3)c(C(N)=O)c2N)C1

> <Shape>
0.248

> <Color>
0.106

> <Negative vol penalty>
0.000

$$$$

  -OEChem-04052317433D

 82 90  0     1  0  0  0  0  0999 V2000
  -15.4416  -28.2296   25.8932 C   0  0  0  0  0  0  0  0  0  0  0  0
  -16.0193  -26.9643   25.9215 C   0  0  0  0  0  0  0  0  0  0  0  0
  -24.1794   -9.5496   20.1667 C   0  0  0  0  0  0  0  0  0  0  0  0
  -22.8868  -10.2833   22.0714 C   0  0  0  0  0  0  0  0  0  0  0  0
  -15.8994  -29.1836   24.9854 C   0  0  0  0  0  0  0  0  0  0  0  0
  -17.0546  -26.6520   25.0410 C   0  0  0  0  0  0  0  0  0  0  0  0
  -21.8474  -23.0017   26.1408 C   0  0  0  0  0  0  0  0  0  0  0  0
  -23.5489   -8.3064   20.2176 C   0  0  0  0  0  0  0  0  0  0  0  0
  -22.2563   -9.0401   22.1224 C   0  0  0  0  0  0  0  0  0  0  0  0
  -22.1023  -21.6677   25.8256 C   0  0  0  0  0  0  0  0  0  0  0  0
  -22.9692   -5.9290   23.2374 C   0  0  0  0  0  0  0  0  0  0  0  0
  -22.8339   -5.3216   24.4858 C   0  0  0  0  0  0  0  0  0  0  0  0
  -23.3185  -22.3698   23.8642 C   0  0  0  0  0  0  0  0  0  0  0  0
  -20.4316   -5.3293   24.2291 C   0  0  0  0  0  0  0  0  0  0  0  0
  -22.3272  -17.1583   23.6738 C   0  0  0  0  0  0  0  0  0  0  0  0
  -23.8484  -10.5380   21.0936 C   0  0  0  0  0  0  0  0  0  0  0  0
  -24.0834  -12.9582   20.3220 C   0  0  0  0  0  0  0  0  0  0  0  0
  -16.9473  -28.8859   24.1000 C   0  0  0  0  0  0  0  0  0  0  0  0
  -22.3177  -24.0311   25.3127 C   0  0  0  0  0  0  0  0  0  0  0  0
  -17.5259  -27.6025   24.1196 C   0  0  0  0  0  0  0  0  0  0  0  0
  -23.0705  -23.7161   24.1725 C   0  0  0  0  0  0  0  0  0  0  0  0
  -22.5873   -8.0517   21.1954 C   0  0  0  0  0  0  0  0  0  0  0  0
  -22.8355  -21.3515   24.6857 C   0  0  0  0  0  0  0  0  0  0  0  0
  -21.8357   -6.2366   22.4849 C   0  0  0  0  0  0  0  0  0  0  0  0
  -21.5651   -5.0218   24.9816 C   0  0  0  0  0  0  0  0  0  0  0  0
  -20.5669   -5.9367   22.9807 C   0  0  0  0  0  0  0  0  0  0  0  0
  -24.4997  -11.8222   21.0418 C   0  0  0  0  0  0  0  0  0  0  0  0
  -22.7619  -15.9069   23.2874 C   0  0  0  0  0  0  0  0  0  0  0  0
  -22.9686  -17.7015   24.7683 C   0  0  0  0  0  0  0  0  0  0  0  0
  -25.0339  -13.9093   20.6017 C   0  0  0  0  0  0  0  0  0  0  0  0
  -24.2930  -15.8648   24.9670 C   0  0  0  0  0  0  0  0  0  0  0  0
  -22.9397  -13.1375   19.4762 C   0  0  0  0  0  0  0  0  0  0  0  0
  -20.9498  -26.3208   23.5836 C   0  0  0  0  0  0  0  0  0  0  0  0
  -24.0176  -27.2720   23.1300 C   0  0  0  0  0  0  0  0  0  0  0  0
  -27.3279  -26.4447   23.0650 C   0  0  0  0  0  0  0  0  0  0  0  0
  -28.8498  -14.1865   25.3872 C   0  0  0  0  0  0  0  0  0  0  0  0
  -17.3764  -29.9344   23.1044 C   0  0  0  0  0  0  0  0  0  0  0  0
  -22.0571  -25.4660   25.6810 C   0  0  0  0  0  0  0  0  0  0  0  0
  -23.6151  -24.7849   23.2616 C   0  0  0  0  0  0  0  0  0  0  0  0
  -18.7297  -29.6451   22.4602 C   0  0  0  0  0  0  0  0  0  0  0  0
  -29.6415  -14.3833   21.7767 C   0  0  0  0  0  0  0  0  0  0  0  0
  -18.8051  -28.1906   22.0068 C   0  0  0  0  0  0  0  0  0  0  0  0
  -28.3981  -13.7758   21.1294 C   0  0  0  0  0  0  0  0  0  0  0  0
  -29.8834  -13.8242   23.1754 C   0  0  0  0  0  0  0  0  0  0  0  0
  -27.4714  -13.3488   23.4401 C   0  0  0  0  0  0  0  0  0  0  0  0
  -18.6677  -27.2338   23.1973 C   0  0  1  0  0  0  0  0  0  0  0  0
  -22.1451  -26.4142   24.4892 C   0  0  1  0  0  0  0  0  0  0  0  0
  -27.1729  -13.9253   22.0479 C   0  0  2  0  0  0  0  0  0  0  0  0
  -22.1284  -15.2386   22.1134 C   0  0  0  0  0  0  0  0  0  0  0  0
  -29.5954  -27.4260   22.6257 C   0  0  0  0  0  0  0  0  0  0  0  0
  -23.4641  -27.2019   20.1303 C   0  0  0  0  0  0  0  0  0  0  0  0
  -25.9372  -27.2486   19.7434 C   0  0  0  0  0  0  0  0  0  0  0  0
  -24.8205  -29.1588   20.8953 C   0  0  0  0  0  0  0  0  0  0  0  0
  -27.9636  -15.2075   27.4492 C   0  0  0  0  0  0  0  0  0  0  0  0
  -28.2452  -25.8524   25.8158 C   0  0  0  0  0  0  0  0  0  0  0  0
  -22.5659  -19.0600   25.2620 C   0  0  0  0  0  0  0  0  0  1  0  0
  -25.3873  -15.1485   25.6834 C   0  0  0  0  0  0  0  0  0  0  0  0
  -26.7899  -15.6548   25.3260 C   0  0  0  0  0  0  0  0  0  0  0  0
  -25.0943  -26.9628   22.1180 C   0  0  1  0  0  0  0  0  0  0  0  0
  -28.5452  -27.1117   23.6797 C   0  0  2  0  0  0  0  0  0  0  0  0
  -24.8173  -27.6226   20.7377 C   0  0  0  0  0  0  0  0  0  0  0  0
  -25.6270  -12.0307   21.7272 N   0  0  0  0  0  0  0  0  0  0  0  0
  -23.7460  -15.2288   23.9135 N   0  0  0  0  0  0  0  0  0  0  0  0
  -23.9591  -17.0801   25.4414 N   0  0  0  0  0  0  0  0  0  0  0  0
  -25.9272  -13.3086   21.4392 N   0  0  0  0  0  0  0  0  0  0  0  0
  -23.3283  -26.1726   23.6609 N   0  0  0  0  0  0  0  0  0  0  0  0
  -28.6897  -13.9398   24.0138 N   0  0  0  0  0  0  0  0  0  0  0  0
  -25.1845  -15.1926   20.2105 N   0  0  0  0  0  0  0  0  0  0  0  0
  -22.0648  -12.0573   19.2976 N   0  0  0  0  0  0  0  0  0  0  0  0
  -19.9112  -27.1621   23.9342 N   0  0  0  0  0  0  0  0  0  0  0  0
  -26.3566  -27.3641   22.7295 N   0  0  0  0  0  0  0  0  0  0  0  0
  -27.8373  -14.9164   26.0282 N   0  0  0  0  0  0  0  0  0  0  0  0
  -29.1602  -26.2228   24.7056 N   0  3  0  0  0  0  0  0  0  0  0  0
  -22.7095  -14.2185   18.8829 O   0  0  0  0  0  0  0  0  0  0  0  0
  -20.9690  -25.5440   22.6360 O   0  0  0  0  0  0  0  0  0  0  0  0
  -23.8013  -28.4453   23.4434 O   0  0  0  0  0  0  0  0  0  0  0  0
  -27.2484  -25.2300   22.8958 O   0  0  0  0  0  0  0  0  0  0  0  0
  -29.8458  -13.7858   26.0032 O   0  0  0  0  0  0  0  0  0  0  0  0
  -21.9717   -6.8388   21.2453 O   0  0  0  0  0  0  0  0  0  0  0  0
  -23.0851  -20.0502   24.3754 O   0  0  0  0  0  0  0  0  0  1  0  0
  -21.4354   -4.4372   26.1798 F   0  0  0  0  0  0  0  0  0  0  0  0
  -19.4743   -6.2287   22.2619 F   0  0  0  0  0  0  0  0  0  0  0  0
  1  2  1  0  0  0  0
  1  5  2  0  0  0  0
  2  6  2  0  0  0  0
  3  8  2  0  0  0  0
  3 16  1  0  0  0  0
  4  9  1  0  0  0  0
  4 16  2  0  0  0  0
  5 18  1  0  0  0  0
  6 20  1  0  0  0  0
  7 10  2  0  0  0  0
  7 19  1  0  0  0  0
  8 22  1  0  0  0  0
  9 22  2  0  0  0  0
 10 23  1  0  0  0  0
 11 12  2  0  0  0  0
 11 24  1  0  0  0  0
 12 25  1  0  0  0  0
 13 21  1  0  0  0  0
 13 23  2  0  0  0  0
 14 25  2  0  0  0  0
 14 26  1  0  0  0  0
 15 28  2  0  0  0  0
 15 29  1  0  0  0  0
 16 27  1  0  0  0  0
 17 27  1  0  0  0  0
 17 30  2  0  0  0  0
 17 32  1  0  0  0  0
 18 20  2  0  0  0  0
 18 37  1  0  0  0  0
 19 21  2  0  0  0  0
 19 38  1  0  0  0  0
 20 46  1  0  0  0  0
 21 39  1  0  0  0  0
 22 79  1  0  0  0  0
 23 80  1  0  0  0  0
 24 26  2  0  0  0  0
 24 79  1  0  0  0  0
 25 81  1  0  0  0  0
 26 82  1  0  0  0  0
 27 62  2  0  0  0  0
 28 49  1  0  0  0  0
 28 63  1  0  0  0  0
 29 56  1  0  0  0  0
 29 64  2  0  0  0  0
 30 65  1  0  0  0  0
 30 68  1  0  0  0  0
 31 57  1  0  0  0  0
 31 63  2  0  0  0  0
 31 64  1  0  0  0  0
 32 69  1  0  0  0  0
 32 74  2  0  0  0  0
 33 47  1  0  0  0  0
 33 70  1  0  0  0  0
 33 75  2  0  0  0  0
 34 59  1  0  0  0  0
 34 66  1  0  0  0  0
 34 76  2  0  0  0  0
 35 60  1  0  0  0  0
 35 71  1  0  0  0  0
 35 77  2  0  0  0  0
 36 67  1  0  0  0  0
 36 72  1  0  0  0  0
 36 78  2  0  0  0  0
 37 40  1  0  0  0  0
 38 47  1  0  0  0  0
 39 66  1  0  0  0  0
 40 42  1  0  0  0  0
 41 43  1  0  0  0  0
 41 44  1  0  0  0  0
 42 46  1  0  0  0  0
 43 48  1  0  0  0  0
 44 67  1  0  0  0  0
 45 48  1  0  0  0  0
 45 67  1  0  0  0  0
 46 70  1  0  0  0  0
 47 66  1  0  0  0  0
 48 65  1  0  0  0  0
 50 60  1  0  0  0  0
 51 61  1  0  0  0  0
 52 61  1  0  0  0  0
 53 61  1  0  0  0  0
 54 72  1  0  0  0  0
 55 73  1  0  0  0  0
 56 80  1  0  0  0  0
 57 58  1  0  0  0  0
 58 72  1  0  0  0  0
 59 61  1  0  0  0  0
 59 71  1  0  0  0  0
 60 73  1  0  0  0  0
 62 65  1  0  0  0  0
M  CHG  1  73   1
M  ISO  4  36 100  56 101  72 100  80 101
M  END
> <Batch ID>
0055

> <Smiles>
CNC(C)C(=O)NC(C(=O)N1Cc2cc([101O:1][101CH2:1]c3cc(C)nc(CC[100N:0](C)[100C:0](=O)N4CCCC(n5nc(-c6ccc(Oc7ccc(F)cc7F)cc6)c(C(N)=O)c5N)C4)n3)ccc2CC1C(=O)NC1CCCc2ccccc21)C(C)(C)C

> <Shape>
0.170

> <Color>
0.141

> <Negative vol penalty>
0.000

$$$$

  -OEChem-04052317433D

 84 92  0     1  0  0  0  0  0999 V2000
  -29.3787  -32.5419   24.7782 C   0  0  0  0  0  0  0  0  0  0  0  0
  -29.1338  -31.2583   24.3009 C   0  0  0  0  0  0  0  0  0  0  0  0
  -23.2150   -9.8363   19.8910 C   0  0  0  0  0  0  0  0  0  0  0  0
  -23.8517   -9.8926   22.2209 C   0  0  0  0  0  0  0  0  0  0  0  0
  -30.4125  -33.3019   24.2325 C   0  0  0  0  0  0  0  0  0  0  0  0
  -29.9219  -30.7343   23.2767 C   0  0  0  0  0  0  0  0  0  0  0  0
  -31.6255  -24.8953   22.5625 C   0  0  0  0  0  0  0  0  0  0  0  0
  -22.5155   -8.6497   20.1109 C   0  0  0  0  0  0  0  0  0  0  0  0
  -23.1521   -8.7060   22.4408 C   0  0  0  0  0  0  0  0  0  0  0  0
  -31.1254  -23.8625   21.7708 C   0  0  0  0  0  0  0  0  0  0  0  0
  -19.9390   -7.7556   22.8797 C   0  0  0  0  0  0  0  0  0  0  0  0
  -19.1242   -7.6852   24.0096 C   0  0  0  0  0  0  0  0  0  0  0  0
  -29.0636  -21.1063   18.1419 C   0  0  0  0  0  0  0  0  0  0  0  0
  -32.7790  -24.3610   20.0867 C   0  0  0  0  0  0  0  0  0  0  0  0
  -20.4171   -5.8144   24.8255 C   0  0  0  0  0  0  0  0  0  0  0  0
  -28.7643  -20.0561   17.2981 C   0  0  0  0  0  0  0  0  0  0  0  0
  -23.8832  -10.4577   20.9461 C   0  0  0  0  0  0  0  0  0  0  0  0
  -24.1086  -12.9958   20.8240 C   0  0  0  0  0  0  0  0  0  0  0  0
  -31.2198  -32.7833   23.2078 C   0  0  0  0  0  0  0  0  0  0  0  0
  -32.7009  -25.6771   22.1168 C   0  0  0  0  0  0  0  0  0  0  0  0
  -30.9665  -31.4885   22.7159 C   0  0  0  0  0  0  0  0  0  0  0  0
  -33.2925  -25.4015   20.8758 C   0  0  0  0  0  0  0  0  0  0  0  0
  -22.4840   -8.0846   21.3857 C   0  0  0  0  0  0  0  0  0  0  0  0
  -31.7003  -23.5970   20.5314 C   0  0  0  0  0  0  0  0  0  0  0  0
  -20.9928   -6.8553   22.7226 C   0  0  0  0  0  0  0  0  0  0  0  0
  -19.3632   -6.7147   24.9825 C   0  0  0  0  0  0  0  0  0  0  0  0
  -21.2319   -5.8847   23.6955 C   0  0  0  0  0  0  0  0  0  0  0  0
  -24.6064  -11.6831   20.7195 C   0  0  0  0  0  0  0  0  0  0  0  0
  -29.7433  -20.7706   19.2949 C   0  0  0  0  0  0  0  0  0  0  0  0
  -25.1810  -13.7955   20.5125 C   0  0  0  0  0  0  0  0  0  0  0  0
  -29.7587  -18.5750   18.7068 C   0  0  0  0  0  0  0  0  0  0  0  0
  -22.7944  -13.4515   21.1717 C   0  0  0  0  0  0  0  0  0  0  0  0
  -33.1096  -28.7579   21.4494 C   0  0  0  0  0  0  0  0  0  0  0  0
  -36.2079  -27.8680   21.0880 C   0  0  0  0  0  0  0  0  0  0  0  0
  -30.4993  -15.0453   21.1687 C   0  0  0  0  0  0  0  0  0  0  0  0
  -38.4501  -25.3802   20.4318 C   0  0  0  0  0  0  0  0  0  0  0  0
  -32.2952  -33.6601   22.6168 C   0  0  0  0  0  0  0  0  0  0  0  0
  -33.2458  -26.7703   22.9944 C   0  0  0  0  0  0  0  0  0  0  0  0
  -34.4620  -26.1984   20.3603 C   0  0  0  0  0  0  0  0  0  0  0  0
  -33.3234  -32.8906   21.7917 C   0  0  0  0  0  0  0  0  0  0  0  0
  -29.6923  -12.6537   18.5503 C   0  0  0  0  0  0  0  0  0  0  0  0
  -32.6279  -31.9177   20.8447 C   0  0  0  0  0  0  0  0  0  0  0  0
  -28.2574  -12.2747   18.9142 C   0  0  0  0  0  0  0  0  0  0  0  0
  -30.5389  -12.9068   19.7950 C   0  0  0  0  0  0  0  0  0  0  0  0
  -28.5273  -13.5537   21.0832 C   0  0  0  0  0  0  0  0  0  0  0  0
  -31.8154  -30.8759   21.6231 C   0  0  1  0  0  0  0  0  0  0  0  0
  -34.0135  -27.8345   22.2162 C   0  0  1  0  0  0  0  0  0  0  0  0
  -27.6322  -13.3198   19.8548 C   0  0  2  0  0  0  0  0  0  0  0  0
  -40.9108  -24.9656   20.1670 C   0  0  0  0  0  0  0  0  0  0  0  0
  -32.8012  -14.1317   21.2223 C   0  0  0  0  0  0  0  0  0  0  0  0
  -32.3893  -16.5912   21.4284 C   0  0  0  0  0  0  0  0  0  0  0  0
  -36.1254  -29.1576   18.3239 C   0  0  0  0  0  0  0  0  0  0  0  0
  -38.2206  -27.9103   17.7560 C   0  0  0  0  0  0  0  0  0  0  0  0
  -38.2285  -29.5797   19.6096 C   0  0  0  0  0  0  0  0  0  0  0  0
  -38.4902  -23.4738   22.6951 C   0  0  0  0  0  0  0  0  0  0  0  0
  -32.0516  -17.2106   17.4213 C   0  0  0  0  0  0  0  0  0  0  0  0
  -30.1123  -21.8453   20.2749 C   0  0  0  0  0  0  0  0  0  1  0  0
  -30.1439  -17.1692   19.0210 C   0  0  0  0  0  0  0  0  0  0  0  0
  -31.9738  -15.4925   19.2223 C   0  0  0  0  0  0  0  0  0  0  0  0
  -37.0494  -27.3676   19.9389 C   0  0  1  0  0  0  0  0  0  0  0  0
  -39.7343  -24.9715   21.1305 C   0  0  2  0  0  0  0  0  0  0  0  0
  -31.9249  -15.2960   20.7460 C   0  0  0  0  0  0  0  0  0  0  0  0
  -37.3827  -28.4899   18.9157 C   0  0  0  0  0  0  0  0  0  0  0  0
  -29.0980  -18.7734   17.5503 N   0  0  0  0  0  0  0  0  0  0  0  0
  -25.8947  -11.6466   20.3688 N   0  0  0  0  0  0  0  0  0  0  0  0
  -30.1078  -19.5105   19.6104 N   0  0  0  0  0  0  0  0  0  0  0  0
  -26.2155  -12.9463   20.2502 N   0  0  0  0  0  0  0  0  0  0  0  0
  -34.9549  -27.2609   21.2523 N   0  0  0  0  0  0  0  0  0  0  0  0
  -29.8958  -13.8872   20.6780 N   0  0  0  0  0  0  0  0  0  0  0  0
  -25.3304  -15.1352   20.4400 N   0  0  0  0  0  0  0  0  0  0  0  0
  -21.8112  -12.4961   21.4627 N   0  0  0  0  0  0  0  0  0  0  0  0
  -32.6886  -29.8594   22.1698 N   0  0  0  0  0  0  0  0  0  0  0  0
  -38.2212  -26.7360   20.5358 N   0  0  0  0  0  0  0  0  0  0  0  0
  -39.5958  -23.6062   21.7117 N   0  3  0  0  0  0  0  0  0  0  0  0
  -31.5939  -16.8947   18.8219 N   0  3  1  0  0  0  0  0  0  0  0  0
  -22.4964  -14.6695   21.2068 O   0  0  0  0  0  0  0  0  0  0  0  0
  -32.8170  -28.4916   20.2896 O   0  0  0  0  0  0  0  0  0  0  0  0
  -36.6492  -28.7596   21.8173 O   0  0  0  0  0  0  0  0  0  0  0  0
  -29.9398  -15.8569   21.9106 O   0  0  0  0  0  0  0  0  0  0  0  0
  -37.7246  -24.5777   19.8486 O   0  0  0  0  0  0  0  0  0  0  0  0
  -21.8013   -6.9269   21.6007 O   0  0  0  0  0  0  0  0  0  0  0  0
  -31.2137  -22.5899   19.7563 O   0  0  0  0  0  0  0  0  0  1  0  0
  -18.5817   -6.6483   26.0683 F   0  0  0  0  0  0  0  0  0  0  0  0
  -22.2435   -5.0178   23.5507 F   0  0  0  0  0  0  0  0  0  0  0  0
  1  2  1  0  0  0  0
  1  5  2  0  0  0  0
  2  6  2  0  0  0  0
  3  8  2  0  0  0  0
  3 17  1  0  0  0  0
  4  9  1  0  0  0  0
  4 17  2  0  0  0  0
  5 19  1  0  0  0  0
  6 21  1  0  0  0  0
  7 10  2  0  0  0  0
  7 20  1  0  0  0  0
  8 23  1  0  0  0  0
  9 23  2  0  0  0  0
 10 24  1  0  0  0  0
 11 12  2  0  0  0  0
 11 25  1  0  0  0  0
 12 26  1  0  0  0  0
 13 16  2  0  0  0  0
 13 29  1  0  0  0  0
 14 22  1  0  0  0  0
 14 24  2  0  0  0  0
 15 26  2  0  0  0  0
 15 27  1  0  0  0  0
 16 64  1  0  0  0  0
 17 28  1  0  0  0  0
 18 28  1  0  0  0  0
 18 30  2  0  0  0  0
 18 32  1  0  0  0  0
 19 21  2  0  0  0  0
 19 37  1  0  0  0  0
 20 22  2  0  0  0  0
 20 38  1  0  0  0  0
 21 46  1  0  0  0  0
 22 39  1  0  0  0  0
 23 81  1  0  0  0  0
 24 82  1  0  0  0  0
 25 27  2  0  0  0  0
 25 81  1  0  0  0  0
 26 83  1  0  0  0  0
 27 84  1  0  0  0  0
 28 65  2  0  0  0  0
 29 57  1  0  0  0  0
 29 66  2  0  0  0  0
 30 67  1  0  0  0  0
 30 70  1  0  0  0  0
 31 58  1  0  0  0  0
 31 64  2  0  0  0  0
 31 66  1  0  0  0  0
 32 71  1  0  0  0  0
 32 76  2  0  0  0  0
 33 47  1  0  0  0  0
 33 72  1  0  0  0  0
 33 77  2  0  0  0  0
 34 60  1  0  0  0  0
 34 68  1  0  0  0  0
 34 78  2  0  0  0  0
 35 62  1  0  0  0  0
 35 69  1  0  0  0  0
 35 79  2  0  0  0  0
 36 61  1  0  0  0  0
 36 73  1  0  0  0  0
 36 80  2  0  0  0  0
 37 40  1  0  0  0  0
 38 47  1  0  0  0  0
 39 68  1  0  0  0  0
 40 42  1  0  0  0  0
 41 43  1  0  0  0  0
 41 44  1  0  0  0  0
 42 46  1  0  0  0  0
 43 48  1  0  0  0  0
 44 69  1  0  0  0  0
 45 48  1  0  0  0  0
 45 69  1  0  0  0  0
 46 72  1  0  0  0  0
 47 68  1  0  0  0  0
 48 67  1  0  0  0  0
 49 61  1  0  0  0  0
 50 62  1  0  0  0  0
 51 62  1  0  0  0  0
 52 63  1  0  0  0  0
 53 63  1  0  0  0  0
 54 63  1  0  0  0  0
 55 74  1  0  0  0  0
 56 75  1  0  0  0  0
 57 82  1  0  0  0  0
 58 75  1  0  0  0  0
 59 62  1  0  0  0  0
 59 75  1  0  0  0  0
 60 63  1  0  0  0  0
 60 73  1  0  0  0  0
 61 74  1  0  0  0  0
 65 67  1  0  0  0  0
M  CHG  2  74   1  75   1
M  ISO  4  35 100  57 101  62 100  82 101
M  END
> <Batch ID>
0055

> <Smiles>
CNC(C)C(=O)NC(C(=O)N1Cc2cc([101O:1][101CH2:1]c3ccnc(CN(C)C[100C:0](C)(C)[100C:0](=O)N4CCCC(n5nc(-c6ccc(Oc7ccc(F)cc7F)cc6)c(C(N)=O)c5N)C4)n3)ccc2CC1C(=O)NC1CCCc2ccccc21)C(C)(C)C

> <Shape>
0.204

> <Color>
0.168

> <Negative vol penalty>
0.000

$$$$

  -OEChem-04052317433D

 86 94  0     1  0  0  0  0  0999 V2000
  -16.3780  -30.1301   23.5273 C   0  0  0  0  0  0  0  0  0  0  0  0
  -17.3038  -30.4938   22.5547 C   0  0  0  0  0  0  0  0  0  0  0  0
  -24.6621  -12.7755   19.6146 C   0  0  0  0  0  0  0  0  0  0  0  0
  -25.5410  -13.3764   21.7833 C   0  0  0  0  0  0  0  0  0  0  0  0
  -16.8111  -29.5433   24.7156 C   0  0  0  0  0  0  0  0  0  0  0  0
  -18.6635  -30.2718   22.7703 C   0  0  0  0  0  0  0  0  0  0  0  0
  -24.6841  -28.6524   19.2424 C   0  0  0  0  0  0  0  0  0  0  0  0
  -24.7826  -11.4245   19.9401 C   0  0  0  0  0  0  0  0  0  0  0  0
  -25.6614  -12.0254   22.1089 C   0  0  0  0  0  0  0  0  0  0  0  0
  -25.9928  -29.1051   19.0810 C   0  0  0  0  0  0  0  0  0  0  0  0
  -23.0811   -9.1399   21.7618 C   0  0  0  0  0  0  0  0  0  0  0  0
  -22.0085   -8.3017   21.4575 C   0  0  0  0  0  0  0  0  0  0  0  0
  -26.6185  -28.0120   21.1383 C   0  0  0  0  0  0  0  0  0  0  0  0
  -23.4449   -6.9808   20.0330 C   0  0  0  0  0  0  0  0  0  0  0  0
  -25.0414  -13.7514   20.5362 C   0  0  0  0  0  0  0  0  0  0  0  0
  -23.8040  -15.9793   20.4213 C   0  0  0  0  0  0  0  0  0  0  0  0
  -18.1759  -29.3052   24.9418 C   0  0  0  0  0  0  0  0  0  0  0  0
  -24.3297  -27.8838   20.3606 C   0  0  0  0  0  0  0  0  0  0  0  0
  -19.1153  -29.6825   23.9633 C   0  0  0  0  0  0  0  0  0  0  0  0
  -25.3052  -27.5485   21.3104 C   0  0  0  0  0  0  0  0  0  0  0  0
  -25.2822  -11.0495   21.1872 C   0  0  0  0  0  0  0  0  0  0  0  0
  -26.9596  -28.7874   20.0305 C   0  0  0  0  0  0  0  0  0  0  0  0
  -24.3356   -8.8986   21.2016 C   0  0  0  0  0  0  0  0  0  0  0  0
  -22.1904   -7.2221   20.5931 C   0  0  0  0  0  0  0  0  0  0  0  0
  -24.5175   -7.8191   20.3373 C   0  0  0  0  0  0  0  0  0  0  0  0
  -24.9178  -15.1472   20.2003 C   0  0  0  0  0  0  0  0  0  0  0  0
  -31.3967  -23.9723   19.6749 C   0  0  0  0  0  0  0  0  0  0  0  0
  -30.8509  -22.9540   18.9249 C   0  0  0  0  0  0  0  0  0  0  0  0
  -29.7364  -24.4905   17.6495 C   0  0  0  0  0  0  0  0  0  0  0  0
  -30.2816  -25.5089   18.4000 C   0  0  0  0  0  0  0  0  0  0  0  0
  -24.1863  -17.2029   19.9283 C   0  0  0  0  0  0  0  0  0  0  0  0
  -22.5371  -15.6736   21.0190 C   0  0  0  0  0  0  0  0  0  0  0  0
  -22.3167  -28.2569   22.7921 C   0  0  0  0  0  0  0  0  0  0  0  0
  -23.1926  -25.2097   23.4773 C   0  0  0  0  0  0  0  0  0  0  0  0
  -25.5188  -22.7293   23.1885 C   0  0  0  0  0  0  0  0  0  0  0  0
  -29.5004  -19.6836   19.2484 C   0  0  0  0  0  0  0  0  0  0  0  0
  -18.6002  -28.7116   26.2618 C   0  0  0  0  0  0  0  0  0  0  0  0
  -22.9198  -27.3806   20.5064 C   0  0  0  0  0  0  0  0  0  0  0  0
  -24.9806  -26.7093   22.5182 C   0  0  0  0  0  0  0  0  0  0  0  0
  -20.0266  -28.1680   26.2547 C   0  0  0  0  0  0  0  0  0  0  0  0
  -27.0409  -19.1894   16.6400 C   0  0  0  0  0  0  0  0  0  0  0  0
  -20.9776  -29.1725   25.6118 C   0  0  0  0  0  0  0  0  0  0  0  0
  -26.1080  -18.1668   17.2913 C   0  0  0  0  0  0  0  0  0  0  0  0
  -28.4971  -18.9239   17.0104 C   0  0  0  0  0  0  0  0  0  0  0  0
  -27.8302  -17.8564   19.1292 C   0  0  0  0  0  0  0  0  0  0  0  0
  -20.5966  -29.4353   24.1499 C   0  0  1  0  0  0  0  0  0  0  0  0
  -22.5539  -27.0373   21.9472 C   0  0  1  0  0  0  0  0  0  0  0  0
  -26.3411  -18.0842   18.8115 C   0  0  2  0  0  0  0  0  0  0  0  0
  -33.3693  -24.7923   20.9876 C   0  0  0  0  0  0  0  0  0  0  0  0
  -27.4069  -25.1399   16.9876 C   0  0  0  0  0  0  0  0  0  0  0  0
  -25.9713  -20.3619   23.8871 C   0  0  0  0  0  0  0  0  0  0  0  0
  -23.8914  -26.1748   26.2862 C   0  0  0  0  0  0  0  0  0  0  0  0
  -25.1908  -24.0600   26.6142 C   0  0  0  0  0  0  0  0  0  0  0  0
  -22.7326  -23.9601   26.2022 C   0  0  0  0  0  0  0  0  0  0  0  0
  -25.6151  -21.7967   20.3814 C   0  0  0  0  0  0  0  0  0  0  0  0
  -32.3254  -23.6928   20.8066 C   0  0  0  0  0  0  0  0  0  0  0  0
  -28.8126  -24.7756   16.5155 C   0  0  0  0  0  0  0  0  0  0  0  0
  -31.1632  -21.5250   19.2106 C   0  0  0  0  0  0  0  0  0  0  0  0
  -30.2097  -29.1910   18.4860 C   0  0  0  0  0  0  0  0  0  0  0  0
  -28.7055  -29.4075   18.5394 C   0  0  0  0  0  0  0  0  0  1  0  0
  -30.6011  -27.7989   18.9562 C   0  0  0  0  0  0  0  0  0  0  0  0
  -24.2840  -24.5707   24.3016 C   0  0  1  0  0  0  0  0  0  0  0  0
  -25.3881  -21.2647   22.8112 C   0  0  2  0  0  0  0  0  0  0  0  0
  -24.0307  -24.7089   25.8294 C   0  0  0  0  0  0  0  0  0  0  0  0
  -25.9316  -15.7879   19.6125 N   0  0  0  0  0  0  0  0  0  0  0  0
  -30.0110  -23.1948   17.8987 N   0  0  0  0  0  0  0  0  0  0  0  0
  -31.1218  -25.2681   19.4259 N   0  0  0  0  0  0  0  0  0  0  0  0
  -25.4563  -17.0357   19.4598 N   0  0  0  0  0  0  0  0  0  0  0  0
  -23.5867  -26.2464   22.6194 N   0  0  0  0  0  0  0  0  0  0  0  0
  -28.6540  -18.8758   18.4709 N   0  0  0  0  0  0  0  0  0  0  0  0
  -23.5567  -18.3947   19.8540 N   0  0  0  0  0  0  0  0  0  0  0  0
  -22.3101  -14.3669   21.4722 N   0  0  0  0  0  0  0  0  0  0  0  0
  -21.0379  -28.3437   23.3085 N   0  0  0  0  0  0  0  0  0  0  0  0
  -24.3931  -23.1923   23.8363 N   0  0  0  0  0  0  0  0  0  0  0  0
  -30.2518  -20.6190   18.5476 N   0  0  0  0  0  0  0  0  0  0  0  0
  -26.1029  -20.9936   21.5320 N   0  3  0  0  0  0  0  0  0  0  0  0
  -21.6271  -16.5295   21.1324 O   0  0  0  0  0  0  0  0  0  0  0  0
  -23.2270  -29.0591   22.9642 O   0  0  0  0  0  0  0  0  0  0  0  0
  -22.0344  -24.7992   23.5851 O   0  0  0  0  0  0  0  0  0  0  0  0
  -26.5210  -23.3950   22.9372 O   0  0  0  0  0  0  0  0  0  0  0  0
  -29.5770  -19.5824   20.4776 O   0  0  0  0  0  0  0  0  0  0  0  0
  -25.3996   -9.7313   21.5053 O   0  0  0  0  0  0  0  0  0  0  0  0
  -28.2375  -29.2286   19.8756 O   0  0  0  0  0  0  0  0  0  1  0  0
  -29.9903  -26.8200   18.1265 O   0  0  0  0  0  0  0  0  0  0  0  0
  -21.1607   -6.4164   20.3022 F   0  0  0  0  0  0  0  0  0  0  0  0
  -25.7206   -7.5815   19.7970 F   0  0  0  0  0  0  0  0  0  0  0  0
  1  2  1  0  0  0  0
  1  5  2  0  0  0  0
  2  6  2  0  0  0  0
  3  8  2  0  0  0  0
  3 15  1  0  0  0  0
  4  9  1  0  0  0  0
  4 15  2  0  0  0  0
  5 17  1  0  0  0  0
  6 19  1  0  0  0  0
  7 10  2  0  0  0  0
  7 18  1  0  0  0  0
  8 21  1  0  0  0  0
  9 21  2  0  0  0  0
 10 22  1  0  0  0  0
 11 12  2  0  0  0  0
 11 23  1  0  0  0  0
 12 24  1  0  0  0  0
 13 20  1  0  0  0  0
 13 22  2  0  0  0  0
 14 24  2  0  0  0  0
 14 25  1  0  0  0  0
 15 26  1  0  0  0  0
 16 26  1  0  0  0  0
 16 31  2  0  0  0  0
 16 32  1  0  0  0  0
 17 19  2  0  0  0  0
 17 37  1  0  0  0  0
 18 20  2  0  0  0  0
 18 38  1  0  0  0  0
 19 46  1  0  0  0  0
 20 39  1  0  0  0  0
 21 82  1  0  0  0  0
 22 83  1  0  0  0  0
 23 25  2  0  0  0  0
 23 82  1  0  0  0  0
 24 85  1  0  0  0  0
 25 86  1  0  0  0  0
 26 65  2  0  0  0  0
 27 28  2  0  0  0  0
 27 56  1  0  0  0  0
 27 67  1  0  0  0  0
 28 58  1  0  0  0  0
 28 66  1  0  0  0  0
 29 30  1  0  0  0  0
 29 57  1  0  0  0  0
 29 66  2  0  0  0  0
 30 67  2  0  0  0  0
 30 84  1  0  0  0  0
 31 68  1  0  0  0  0
 31 71  1  0  0  0  0
 32 72  1  0  0  0  0
 32 77  2  0  0  0  0
 33 47  1  0  0  0  0
 33 73  1  0  0  0  0
 33 78  2  0  0  0  0
 34 62  1  0  0  0  0
 34 69  1  0  0  0  0
 34 79  2  0  0  0  0
 35 63  1  0  0  0  0
 35 74  1  0  0  0  0
 35 80  2  0  0  0  0
 36 70  1  0  0  0  0
 36 75  1  0  0  0  0
 36 81  2  0  0  0  0
 37 40  1  0  0  0  0
 38 47  1  0  0  0  0
 39 69  1  0  0  0  0
 40 42  1  0  0  0  0
 41 43  1  0  0  0  0
 41 44  1  0  0  0  0
 42 46  1  0  0  0  0
 43 48  1  0  0  0  0
 44 70  1  0  0  0  0
 45 48  1  0  0  0  0
 45 70  1  0  0  0  0
 46 73  1  0  0  0  0
 47 69  1  0  0  0  0
 48 68  1  0  0  0  0
 49 56  1  0  0  0  0
 50 57  1  0  0  0  0
 51 63  1  0  0  0  0
 52 64  1  0  0  0  0
 53 64  1  0  0  0  0
 54 64  1  0  0  0  0
 55 76  1  0  0  0  0
 58 75  1  0  0  0  0
 59 60  1  0  0  0  0
 59 61  1  0  0  0  0
 60 83  1  0  0  0  0
 61 84  1  0  0  0  0
 62 64  1  0  0  0  0
 62 74  1  0  0  0  0
 63 76  1  0  0  0  0
 65 68  1  0  0  0  0
M  CHG  1  76   1
M  ISO  4  36 100  60 101  75 100  83 101
M  END
> <Batch ID>
0055

> <Smiles>
CCc1nc(OCC[101CH2:1][101O:1]c2ccc3c(c2)CN(C(=O)C(NC(=O)C(C)NC)C(C)(C)C)C(C(=O)NC2CCCc4ccccc42)C3)c(CC)nc1C[100NH:0][100C:0](=O)N1CCCC(n2nc(-c3ccc(Oc4ccc(F)cc4F)cc3)c(C(N)=O)c2N)C1

> <Shape>
0.218

> <Color>
0.101

> <Negative vol penalty>
0.000

$$$$

  -OEChem-04052317433D

 92100  0     1  0  0  0  0  0999 V2000
  -23.4241  -36.2335   16.3222 C   0  0  0  0  0  0  0  0  0  0  0  0
  -24.1260  -35.0345   16.2506 C   0  0  0  0  0  0  0  0  0  0  0  0
  -24.7365  -13.1781   21.9346 C   0  0  0  0  0  0  0  0  0  0  0  0
  -25.9799  -13.0606   19.8665 C   0  0  0  0  0  0  0  0  0  0  0  0
  -23.3332  -36.9154   17.5349 C   0  0  0  0  0  0  0  0  0  0  0  0
  -24.7384  -34.5172   17.3915 C   0  0  0  0  0  0  0  0  0  0  0  0
  -25.3659  -28.6086   18.8752 C   0  0  0  0  0  0  0  0  0  0  0  0
  -24.0403  -12.0221   21.5817 C   0  0  0  0  0  0  0  0  0  0  0  0
  -25.2837  -11.9046   19.5136 C   0  0  0  0  0  0  0  0  0  0  0  0
  -26.4276  -27.7152   18.7398 C   0  0  0  0  0  0  0  0  0  0  0  0
  -21.6821   -9.3035   21.0604 C   0  0  0  0  0  0  0  0  0  0  0  0
  -20.3004   -9.2933   21.2506 C   0  0  0  0  0  0  0  0  0  0  0  0
  -27.0916  -28.1690   21.0141 C   0  0  0  0  0  0  0  0  0  0  0  0
  -20.0800  -11.1739   19.7499 C   0  0  0  0  0  0  0  0  0  0  0  0
  -30.9657  -22.6661   20.0566 C   0  0  0  0  0  0  0  0  0  0  0  0
  -25.7063  -13.6974   21.0770 C   0  0  0  0  0  0  0  0  0  0  0  0
  -27.6322  -14.9712   22.1614 C   0  0  0  0  0  0  0  0  0  0  0  0
  -23.9367  -36.4013   18.6934 C   0  0  0  0  0  0  0  0  0  0  0  0
  -25.1652  -29.2984   20.0795 C   0  0  0  0  0  0  0  0  0  0  0  0
  -24.6567  -35.1935   18.6206 C   0  0  0  0  0  0  0  0  0  0  0  0
  -26.0251  -29.0688   21.1630 C   0  0  0  0  0  0  0  0  0  0  0  0
  -24.3138  -11.3853   20.3712 C   0  0  0  0  0  0  0  0  0  0  0  0
  -27.2924  -27.4974   19.8084 C   0  0  0  0  0  0  0  0  0  0  0  0
  -22.2629  -10.2489   20.2150 C   0  0  0  0  0  0  0  0  0  0  0  0
  -19.4993  -10.2285   20.5953 C   0  0  0  0  0  0  0  0  0  0  0  0
  -21.4618  -11.1841   19.5598 C   0  0  0  0  0  0  0  0  0  0  0  0
  -26.4255  -14.8918   21.4407 C   0  0  0  0  0  0  0  0  0  0  0  0
  -30.6386  -22.2929   18.7689 C   0  0  0  0  0  0  0  0  0  0  0  0
  -30.0976  -23.5532   20.6597 C   0  0  0  0  0  0  0  0  0  0  0  0
  -27.8958  -16.3168   22.2424 C   0  0  0  0  0  0  0  0  0  0  0  0
  -28.7825  -23.6046   18.8064 C   0  0  0  0  0  0  0  0  0  0  0  0
  -28.4424  -13.9226   22.7086 C   0  0  0  0  0  0  0  0  0  0  0  0
  -25.1583  -32.3590   20.9373 C   0  0  0  0  0  0  0  0  0  0  0  0
  -24.1842  -31.1548   23.7874 C   0  0  0  0  0  0  0  0  0  0  0  0
  -24.0712  -28.4946   25.9222 C   0  0  0  0  0  0  0  0  0  0  0  0
  -26.3433  -20.8441   18.7857 C   0  0  0  0  0  0  0  0  0  0  0  0
  -23.8513  -37.1980   19.9711 C   0  0  0  0  0  0  0  0  0  0  0  0
  -23.9995  -30.2387   20.2182 C   0  0  0  0  0  0  0  0  0  0  0  0
  -25.8410  -29.7689   22.4837 C   0  0  0  0  0  0  0  0  0  0  0  0
  -24.2118  -36.3924   21.2166 C   0  0  0  0  0  0  0  0  0  0  0  0
  -25.6935  -20.5652   22.3350 C   0  0  0  0  0  0  0  0  0  0  0  0
  -25.4911  -35.5947   20.9846 C   0  0  0  0  0  0  0  0  0  0  0  0
  -25.9264  -19.0717   22.5704 C   0  0  0  0  0  0  0  0  0  0  0  0
  -25.0226  -20.8143   20.9874 C   0  0  0  0  0  0  0  0  0  0  0  0
  -25.9836  -18.7456   20.0544 C   0  0  0  0  0  0  0  0  0  0  0  0
  -25.3137  -34.5876   19.8418 C   0  0  1  0  0  0  0  0  0  0  0  0
  -24.1942  -31.2729   21.3226 C   0  0  1  0  0  0  0  0  0  0  0  0
  -26.6798  -18.4293   21.3906 C   0  0  2  0  0  0  0  0  0  0  0  0
  -31.1049  -19.8834   18.2554 C   0  0  0  0  0  0  0  0  0  0  0  0
  -30.3630  -21.5673   23.0191 C   0  0  0  0  0  0  0  0  0  0  0  0
  -23.2392  -27.8252   28.1931 C   0  0  0  0  0  0  0  0  0  0  0  0
  -32.6364  -25.0998   21.2851 C   0  0  0  0  0  0  0  0  0  0  0  0
  -29.5924  -27.1213   17.6857 C   0  0  0  0  0  0  0  0  0  0  0  0
  -29.0814  -24.3679   22.8920 C   0  0  0  0  0  0  0  0  0  0  0  0
  -26.4845  -32.6876   25.0794 C   0  0  0  0  0  0  0  0  0  0  0  0
  -26.1961  -31.2637   27.1184 C   0  0  0  0  0  0  0  0  0  0  0  0
  -24.3392  -32.7484   26.3633 C   0  0  0  0  0  0  0  0  0  0  0  0
  -22.3129  -26.4012   24.7886 C   0  0  0  0  0  0  0  0  0  0  0  0
  -31.0815  -27.7806   21.9040 C   0  0  0  0  0  0  0  0  0  0  0  0
  -31.5175  -21.3362   18.0350 C   0  0  0  0  0  0  0  0  0  0  0  0
  -27.5679  -24.1233   18.1139 C   0  0  0  0  0  0  0  0  0  0  0  0
  -31.1180  -22.8904   22.8955 C   0  0  0  0  0  0  0  0  0  0  0  0
  -26.6204  -23.0205   17.6266 C   0  0  0  0  0  0  0  0  0  0  0  0
  -30.7141  -26.3959   19.8673 C   0  0  0  0  0  0  0  0  0  0  0  0
  -24.8793  -30.6659   25.0352 C   0  0  1  0  0  0  0  0  0  0  0  0
  -22.9256  -27.8801   26.7060 C   0  0  2  0  0  0  0  0  0  0  0  0
  -31.3109  -25.3038   22.0241 C   0  0  2  0  0  0  0  0  0  0  0  0
  -29.5682  -27.1567   19.2082 C   0  0  2  0  0  0  0  0  0  1  0  0
  -30.3780  -24.0310   22.1070 C   0  0  1  0  0  0  0  0  0  0  0  0
  -25.4796  -31.8295   25.8737 C   0  0  0  0  0  0  0  0  0  0  0  0
  -25.9550  -16.0913   21.0891 N   0  0  0  0  0  0  0  0  0  0  0  0
  -29.5506  -22.7443   18.1111 N   0  0  0  0  0  0  0  0  0  0  0  0
  -28.9926  -24.0447   20.0617 N   0  0  0  0  0  0  0  0  0  0  0  0
  -26.8707  -16.9373   21.5910 N   0  0  0  0  0  0  0  0  0  0  0  0
  -24.6904  -30.6835   22.5678 N   0  0  0  0  0  0  0  0  0  0  0  0
  -25.7993  -20.1930   19.9053 N   0  0  0  0  0  0  0  0  0  0  0  0
  -28.9020  -17.0178   22.8067 N   0  0  0  0  0  0  0  0  0  0  0  0
  -28.0255  -12.5959   22.5342 N   0  0  0  0  0  0  0  0  0  0  0  0
  -24.5697  -33.4327   20.2968 N   0  0  0  0  0  0  0  0  0  0  0  0
  -23.9040  -29.8529   25.7537 N   0  0  0  0  0  0  0  0  0  0  0  0
  -26.1178  -22.2134   18.7161 N   0  0  0  0  0  0  0  0  0  0  0  0
  -22.6579  -26.4932   26.2307 N   0  3  0  0  0  0  0  0  0  0  0  0
  -30.6146  -26.4584   21.3467 N   0  3  1  0  0  0  0  0  0  0  0  0
  -29.4962  -14.1559   23.3480 O   0  0  0  0  0  0  0  0  0  0  0  0
  -26.3480  -32.2330   21.2028 O   0  0  0  0  0  0  0  0  0  0  0  0
  -23.2229  -31.9209   23.8914 O   0  0  0  0  0  0  0  0  0  0  0  0
  -25.0213  -27.8363   25.5046 O   0  0  0  0  0  0  0  0  0  0  0  0
  -26.9875  -20.2497   17.9146 O   0  0  0  0  0  0  0  0  0  0  0  0
  -23.6348  -10.2572   20.0267 O   0  0  0  0  0  0  0  0  0  0  0  0
  -28.3298  -26.6264   19.6787 O   0  0  0  0  0  0  0  0  0  1  0  0
  -18.1722  -10.2177   20.7769 F   0  0  0  0  0  0  0  0  0  0  0  0
  -22.0139  -12.0940   18.7455 F   0  0  0  0  0  0  0  0  0  0  0  0
  1  2  1  0  0  0  0
  1  5  2  0  0  0  0
  2  6  2  0  0  0  0
  3  8  2  0  0  0  0
  3 16  1  0  0  0  0
  4  9  1  0  0  0  0
  4 16  2  0  0  0  0
  5 18  1  0  0  0  0
  6 20  1  0  0  0  0
  7 10  2  0  0  0  0
  7 19  1  0  0  0  0
  8 22  1  0  0  0  0
  9 22  2  0  0  0  0
 10 23  1  0  0  0  0
 11 12  2  0  0  0  0
 11 24  1  0  0  0  0
 12 25  1  0  0  0  0
 13 21  1  0  0  0  0
 13 23  2  0  0  0  0
 14 25  2  0  0  0  0
 14 26  1  0  0  0  0
 15 28  1  0  0  0  0
 15 29  2  0  0  0  0
 16 27  1  0  0  0  0
 17 27  1  0  0  0  0
 17 30  2  0  0  0  0
 17 32  1  0  0  0  0
 18 20  2  0  0  0  0
 18 37  1  0  0  0  0
 19 21  2  0  0  0  0
 19 38  1  0  0  0  0
 20 46  1  0  0  0  0
 21 39  1  0  0  0  0
 22 89  1  0  0  0  0
 23 90  1  0  0  0  0
 24 26  2  0  0  0  0
 24 89  1  0  0  0  0
 25 91  1  0  0  0  0
 26 92  1  0  0  0  0
 27 71  2  0  0  0  0
 28 60  1  0  0  0  0
 28 72  2  0  0  0  0
 29 69  1  0  0  0  0
 29 73  1  0  0  0  0
 30 74  1  0  0  0  0
 30 77  1  0  0  0  0
 31 61  1  0  0  0  0
 31 72  1  0  0  0  0
 31 73  2  0  0  0  0
 32 78  1  0  0  0  0
 32 84  2  0  0  0  0
 33 47  1  0  0  0  0
 33 79  1  0  0  0  0
 33 85  2  0  0  0  0
 34 65  1  0  0  0  0
 34 75  1  0  0  0  0
 34 86  2  0  0  0  0
 35 66  1  0  0  0  0
 35 80  1  0  0  0  0
 35 87  2  0  0  0  0
 36 76  1  0  0  0  0
 36 81  1  0  0  0  0
 36 88  2  0  0  0  0
 37 40  1  0  0  0  0
 38 47  1  0  0  0  0
 39 75  1  0  0  0  0
 40 42  1  0  0  0  0
 41 43  1  0  0  0  0
 41 44  1  0  0  0  0
 42 46  1  0  0  0  0
 43 48  1  0  0  0  0
 44 76  1  0  0  0  0
 45 48  1  0  0  0  0
 45 76  1  0  0  0  0
 46 79  1  0  0  0  0
 47 75  1  0  0  0  0
 48 74  1  0  0  0  0
 49 60  1  0  0  0  0
 50 62  1  0  0  0  0
 51 66  1  0  0  0  0
 52 67  1  0  0  0  0
 53 68  1  0  0  0  0
 54 69  1  0  0  0  0
 55 70  1  0  0  0  0
 56 70  1  0  0  0  0
 57 70  1  0  0  0  0
 58 82  1  0  0  0  0
 59 83  1  0  0  0  0
 61 63  1  0  0  0  0
 62 69  1  0  0  0  0
 63 81  1  0  0  0  0
 64 68  1  0  0  0  0
 64 83  1  0  0  0  0
 65 70  1  0  0  0  0
 65 80  1  0  0  0  0
 66 82  1  0  0  0  0
 67 69  1  0  0  0  0
 67 83  1  0  0  0  0
 68 90  1  0  0  0  0
 71 74  1  0  0  0  0
M  CHG  2  82   1  83   1
M  ISO  4  36 100  68 101  81 100  90 101
M  END
> <Batch ID>
0055

> <Smiles>
CCc1cc(C(C)(CC)C(C)N(C)C[101CH:1](C)[101O:1]c2ccc3c(c2)CN(C(=O)C(NC(=O)C(C)NC)C(C)(C)C)C(C(=O)NC2CCCc4ccccc42)C3)nc(CC[100NH:0][100C:0](=O)N2CCCC(n3nc(-c4ccc(Oc5ccc(F)cc5F)cc4)c(C(N)=O)c3N)C2)n1

> <Shape>
0.226

> <Color>
0.094

> <Negative vol penalty>
0.000

$$$$

  -OEChem-04052317433D

 81 89  0     1  0  0  0  0  0999 V2000
  -18.9257  -33.0590   23.5620 C   0  0  0  0  0  0  0  0  0  0  0  0
  -20.0404  -32.3519   24.0013 C   0  0  0  0  0  0  0  0  0  0  0  0
  -29.2812  -17.5449   19.3703 C   0  0  0  0  0  0  0  0  0  0  0  0
  -30.7430  -17.9173   21.2575 C   0  0  0  0  0  0  0  0  0  0  0  0
  -17.7449  -32.3808   23.2627 C   0  0  0  0  0  0  0  0  0  0  0  0
  -19.9744  -30.9662   24.1426 C   0  0  0  0  0  0  0  0  0  0  0  0
  -24.0422  -28.6238   22.2423 C   0  0  0  0  0  0  0  0  0  0  0  0
  -29.7704  -16.2444   19.2480 C   0  0  0  0  0  0  0  0  0  0  0  0
  -31.2322  -16.6167   21.1352 C   0  0  0  0  0  0  0  0  0  0  0  0
  -25.2040  -28.6398   23.0128 C   0  0  0  0  0  0  0  0  0  0  0  0
  -29.3126  -13.2577   20.7655 C   0  0  0  0  0  0  0  0  0  0  0  0
  -28.3871  -12.2329   20.5684 C   0  0  0  0  0  0  0  0  0  0  0  0
  -24.7260  -26.3996   23.7692 C   0  0  0  0  0  0  0  0  0  0  0  0
  -29.4463  -11.6803   18.4684 C   0  0  0  0  0  0  0  0  0  0  0  0
  -31.3998  -26.6461   21.9233 C   0  0  0  0  0  0  0  0  0  0  0  0
  -32.0553  -24.8492   23.0178 C   0  0  0  0  0  0  0  0  0  0  0  0
  -29.7675  -18.3814   20.3751 C   0  0  0  0  0  0  0  0  0  0  0  0
  -28.1630  -20.1512   21.2699 C   0  0  0  0  0  0  0  0  0  0  0  0
  -17.6674  -30.9851   23.3911 C   0  0  0  0  0  0  0  0  0  0  0  0
  -23.2065  -27.4977   22.2379 C   0  0  0  0  0  0  0  0  0  0  0  0
  -18.7910  -30.2689   23.8460 C   0  0  0  0  0  0  0  0  0  0  0  0
  -23.5555  -26.3708   22.9958 C   0  0  0  0  0  0  0  0  0  0  0  0
  -30.7459  -15.7803   20.1304 C   0  0  0  0  0  0  0  0  0  0  0  0
  -25.5446  -27.5287   23.7786 C   0  0  0  0  0  0  0  0  0  0  0  0
  -30.3048  -13.4939   19.8140 C   0  0  0  0  0  0  0  0  0  0  0  0
  -28.4540  -11.4441   19.4199 C   0  0  0  0  0  0  0  0  0  0  0  0
  -30.3717  -12.7052   18.6655 C   0  0  0  0  0  0  0  0  0  0  0  0
  -29.2630  -19.7251   20.5017 C   0  0  0  0  0  0  0  0  0  0  0  0
  -30.8614  -26.6031   23.1878 C   0  0  0  0  0  0  0  0  0  0  0  0
  -28.0978  -21.5061   21.0541 C   0  0  0  0  0  0  0  0  0  0  0  0
  -27.2792  -19.3904   22.1040 C   0  0  0  0  0  0  0  0  0  0  0  0
  -20.1939  -26.9369   23.0829 C   0  0  0  0  0  0  0  0  0  0  0  0
  -32.2618  -25.5107   19.4001 C   0  0  0  0  0  0  0  0  0  0  0  0
  -20.7879  -24.0167   21.8014 C   0  0  0  0  0  0  0  0  0  0  0  0
  -23.0837  -21.6421   20.9428 C   0  0  0  0  0  0  0  0  0  0  0  0
  -16.3548  -30.3012   23.1010 C   0  0  0  0  0  0  0  0  0  0  0  0
  -21.9706  -27.4862   21.3806 C   0  0  0  0  0  0  0  0  0  0  0  0
  -22.7028  -25.1294   23.0099 C   0  0  0  0  0  0  0  0  0  0  0  0
  -16.4821  -28.7909   22.9188 C   0  0  0  0  0  0  0  0  0  0  0  0
  -29.1302  -24.8402   17.7929 C   0  0  0  0  0  0  0  0  0  0  0  0
  -17.3439  -28.1905   24.0250 C   0  0  0  0  0  0  0  0  0  0  0  0
  -28.7232  -23.4782   18.3536 C   0  0  0  0  0  0  0  0  0  0  0  0
  -30.6423  -24.9437   17.6197 C   0  0  0  0  0  0  0  0  0  0  0  0
  -31.0121  -23.2951   19.4273 C   0  0  0  0  0  0  0  0  0  0  0  0
  -18.7662  -28.7625   23.9882 C   0  0  1  0  0  0  0  0  0  0  0  0
  -20.9255  -26.4800   21.8525 C   0  0  1  0  0  0  0  0  0  0  0  0
  -29.4948  -23.1598   19.6465 C   0  0  2  0  0  0  0  0  0  0  0  0
  -34.3647  -25.6401   20.7179 C   0  0  0  0  0  0  0  0  0  0  0  0
  -23.2643  -19.3449   19.9491 C   0  0  0  0  0  0  0  0  0  0  0  0
  -19.8317  -22.8056   24.4337 C   0  0  0  0  0  0  0  0  0  0  0  0
  -20.9073  -20.6499   23.7521 C   0  0  0  0  0  0  0  0  0  0  0  0
  -19.0494  -21.6013   22.3862 C   0  0  0  0  0  0  0  0  0  0  0  0
  -24.7100  -22.6251   18.6738 C   0  0  0  0  0  0  0  0  0  0  0  0
  -28.6767  -28.5734   25.4050 C   0  0  0  0  0  0  0  0  0  0  0  0
  -27.4713  -28.7272   24.4909 C   0  0  0  0  0  0  0  0  0  1  0  0
  -29.5463  -27.3916   25.0057 C   0  0  0  0  0  0  0  0  0  0  0  0
  -32.9367  -25.1011   20.6849 C   0  0  1  0  0  0  0  0  0  0  0  0
  -21.3224  -22.7068   22.3280 C   0  0  1  0  0  0  0  0  0  0  0  0
  -23.2743  -20.8395   19.6684 C   0  0  2  0  0  0  0  0  0  0  0  0
  -20.2930  -21.9649   23.2264 C   0  0  0  0  0  0  0  0  0  0  0  0
  -31.2736  -25.4823   23.8641 N   0  0  0  0  0  0  0  0  0  0  0  0
  -29.8540  -20.7279   19.8467 N   0  0  0  0  0  0  0  0  0  0  0  0
  -32.1626  -25.5163   21.8292 N   0  0  0  0  0  0  0  0  0  0  0  0
  -29.1226  -21.7977   20.2027 N   0  0  0  0  0  0  0  0  0  0  0  0
  -21.5012  -25.1692   22.1601 N   0  0  0  0  0  0  0  0  0  0  0  0
  -31.3396  -24.6121   18.8635 N   0  0  0  0  0  0  0  0  0  0  0  0
  -27.2644  -22.4645   21.5115 N   0  0  0  0  0  0  0  0  0  0  0  0
  -27.4881  -18.0089   22.2138 N   0  0  0  0  0  0  0  0  0  0  0  0
  -19.5336  -28.1411   22.9302 N   0  0  0  0  0  0  0  0  0  0  0  0
  -21.7565  -21.9448   21.1621 N   0  0  0  0  0  0  0  0  0  0  0  0
  -24.5729  -21.1884   19.0259 N   0  3  0  0  0  0  0  0  0  0  0  0
  -26.3222  -19.9174   22.7204 O   0  0  0  0  0  0  0  0  0  0  0  0
  -20.2250  -26.2472   24.0953 O   0  0  0  0  0  0  0  0  0  0  0  0
  -32.5449  -26.5987   18.8918 O   0  0  0  0  0  0  0  0  0  0  0  0
  -19.7788  -24.0166   21.0919 O   0  0  0  0  0  0  0  0  0  0  0  0
  -24.0183  -21.9649   21.6727 O   0  0  0  0  0  0  0  0  0  0  0  0
  -31.2233  -14.5113   20.0114 O   0  0  0  0  0  0  0  0  0  0  0  0
  -26.6777  -27.5419   24.5321 O   0  0  0  0  0  0  0  0  0  1  0  0
  -30.0252  -27.5713   23.6797 O   0  0  0  0  0  0  0  0  0  0  0  0
  -27.5662  -10.4590   19.2316 F   0  0  0  0  0  0  0  0  0  0  0  0
  -31.3234  -12.9266   17.7484 F   0  0  0  0  0  0  0  0  0  0  0  0
  1  2  1  0  0  0  0
  1  5  2  0  0  0  0
  2  6  2  0  0  0  0
  3  8  2  0  0  0  0
  3 17  1  0  0  0  0
  4  9  1  0  0  0  0
  4 17  2  0  0  0  0
  5 19  1  0  0  0  0
  6 21  1  0  0  0  0
  7 10  2  0  0  0  0
  7 20  1  0  0  0  0
  8 23  1  0  0  0  0
  9 23  2  0  0  0  0
 10 24  1  0  0  0  0
 11 12  2  0  0  0  0
 11 25  1  0  0  0  0
 12 26  1  0  0  0  0
 13 22  1  0  0  0  0
 13 24  2  0  0  0  0
 14 26  2  0  0  0  0
 14 27  1  0  0  0  0
 15 29  2  0  0  0  0
 15 63  1  0  0  0  0
 16 61  2  0  0  0  0
 16 63  1  0  0  0  0
 17 28  1  0  0  0  0
 18 28  1  0  0  0  0
 18 30  2  0  0  0  0
 18 31  1  0  0  0  0
 19 21  2  0  0  0  0
 19 36  1  0  0  0  0
 20 22  2  0  0  0  0
 20 37  1  0  0  0  0
 21 45  1  0  0  0  0
 22 38  1  0  0  0  0
 23 77  1  0  0  0  0
 24 78  1  0  0  0  0
 25 27  2  0  0  0  0
 25 77  1  0  0  0  0
 26 80  1  0  0  0  0
 27 81  1  0  0  0  0
 28 62  2  0  0  0  0
 29 61  1  0  0  0  0
 29 79  1  0  0  0  0
 30 64  1  0  0  0  0
 30 67  1  0  0  0  0
 31 68  1  0  0  0  0
 31 72  2  0  0  0  0
 32 46  1  0  0  0  0
 32 69  1  0  0  0  0
 32 73  2  0  0  0  0
 33 57  1  0  0  0  0
 33 66  1  0  0  0  0
 33 74  2  0  0  0  0
 34 58  1  0  0  0  0
 34 65  1  0  0  0  0
 34 75  2  0  0  0  0
 35 59  1  0  0  0  0
 35 70  1  0  0  0  0
 35 76  2  0  0  0  0
 36 39  1  0  0  0  0
 37 46  1  0  0  0  0
 38 65  1  0  0  0  0
 39 41  1  0  0  0  0
 40 42  1  0  0  0  0
 40 43  1  0  0  0  0
 41 45  1  0  0  0  0
 42 47  1  0  0  0  0
 43 66  1  0  0  0  0
 44 47  1  0  0  0  0
 44 66  1  0  0  0  0
 45 69  1  0  0  0  0
 46 65  1  0  0  0  0
 47 64  1  0  0  0  0
 48 57  1  0  0  0  0
 49 59  1  0  0  0  0
 50 60  1  0  0  0  0
 51 60  1  0  0  0  0
 52 60  1  0  0  0  0
 53 71  1  0  0  0  0
 54 55  1  0  0  0  0
 54 56  1  0  0  0  0
 55 78  1  0  0  0  0
 56 79  1  0  0  0  0
 57 63  1  0  0  0  0
 58 60  1  0  0  0  0
 58 70  1  0  0  0  0
 59 71  1  0  0  0  0
 62 64  1  0  0  0  0
M  CHG  1  71   1
M  ISO  4  33 100  55 101  57 100  78 101
M  END
> <Batch ID>
0055

> <Smiles>
CNC(C)C(=O)NC(C(=O)N1Cc2cc([101O:1][101CH2:1]CCOc3cn([100CH:0](C)[100C:0](=O)N4CCCC(n5nc(-c6ccc(Oc7ccc(F)cc7F)cc6)c(C(N)=O)c5N)C4)cn3)ccc2CC1C(=O)NC1CCCc2ccccc21)C(C)(C)C

> <Shape>
0.223

> <Color>
0.060

> <Negative vol penalty>
0.000

$$$$

  -OEChem-04052317433D

 83 91  0     1  0  0  0  0  0999 V2000
  -16.7799  -29.7249   24.3789 C   0  0  0  0  0  0  0  0  0  0  0  0
  -16.9554  -28.3759   24.0876 C   0  0  0  0  0  0  0  0  0  0  0  0
  -25.2470  -16.8859   21.7870 C   0  0  0  0  0  0  0  0  0  0  0  0
  -24.9250  -16.6790   19.4015 C   0  0  0  0  0  0  0  0  0  0  0  0
  -17.5311  -30.6861   23.7038 C   0  0  0  0  0  0  0  0  0  0  0  0
  -17.8814  -27.9874   23.1202 C   0  0  0  0  0  0  0  0  0  0  0  0
  -22.4287  -22.6770   21.5586 C   0  0  0  0  0  0  0  0  0  0  0  0
  -23.9730  -16.3611   22.0045 C   0  0  0  0  0  0  0  0  0  0  0  0
  -23.6511  -16.1542   19.6190 C   0  0  0  0  0  0  0  0  0  0  0  0
  -22.7523  -21.8071   20.5183 C   0  0  0  0  0  0  0  0  0  0  0  0
  -20.4541  -14.4239   19.5558 C   0  0  0  0  0  0  0  0  0  0  0  0
  -20.0803  -13.3003   18.8187 C   0  0  0  0  0  0  0  0  0  0  0  0
  -24.0506  -23.5505   19.4723 C   0  0  0  0  0  0  0  0  0  0  0  0
  -21.9233  -12.0622   19.7715 C   0  0  0  0  0  0  0  0  0  0  0  0
  -25.2656  -19.7336   14.5191 C   0  0  0  0  0  0  0  0  0  0  0  0
  -25.7230  -17.0448   20.4855 C   0  0  0  0  0  0  0  0  0  0  0  0
  -28.2471  -16.8724   20.1589 C   0  0  0  0  0  0  0  0  0  0  0  0
  -18.4737  -30.3086   22.7345 C   0  0  0  0  0  0  0  0  0  0  0  0
  -22.9055  -23.9958   21.5581 C   0  0  0  0  0  0  0  0  0  0  0  0
  -18.6450  -28.9446   22.4305 C   0  0  0  0  0  0  0  0  0  0  0  0
  -23.7337  -24.4344   20.5151 C   0  0  0  0  0  0  0  0  0  0  0  0
  -25.1363  -21.0123   15.0036 C   0  0  0  0  0  0  0  0  0  0  0  0
  -23.1751  -15.9953   20.9205 C   0  0  0  0  0  0  0  0  0  0  0  0
  -23.5610  -22.2447   19.4735 C   0  0  0  0  0  0  0  0  0  0  0  0
  -21.5626  -14.3668   20.4006 C   0  0  0  0  0  0  0  0  0  0  0  0
  -20.8149  -12.1194   18.9266 C   0  0  0  0  0  0  0  0  0  0  0  0
  -22.2972  -13.1859   20.5085 C   0  0  0  0  0  0  0  0  0  0  0  0
  -27.0387  -17.5874   20.2602 C   0  0  0  0  0  0  0  0  0  0  0  0
  -24.9203  -20.8453   16.3846 C   0  0  0  0  0  0  0  0  0  0  0  0
  -29.2004  -17.8379   19.9457 C   0  0  0  0  0  0  0  0  0  0  0  0
  -28.4865  -15.4617   20.2494 C   0  0  0  0  0  0  0  0  0  0  0  0
  -21.5516  -26.8706   21.4803 C   0  0  0  0  0  0  0  0  0  0  0  0
  -24.6015  -27.8893   21.9078 C   0  0  0  0  0  0  0  0  0  0  0  0
  -27.9394  -27.2576   21.5827 C   0  0  0  0  0  0  0  0  0  0  0  0
  -28.9707  -23.3525   17.6246 C   0  0  0  0  0  0  0  0  0  0  0  0
  -19.2285  -31.3865   21.9975 C   0  0  0  0  0  0  0  0  0  0  0  0
  -22.5693  -24.9137   22.7013 C   0  0  0  0  0  0  0  0  0  0  0  0
  -24.2880  -25.8344   20.4779 C   0  0  0  0  0  0  0  0  0  0  0  0
  -20.4568  -30.8695   21.2529 C   0  0  0  0  0  0  0  0  0  0  0  0
  -30.1401  -22.4390   20.8611 C   0  0  0  0  0  0  0  0  0  0  0  0
  -20.1134  -29.6073   20.4683 C   0  0  0  0  0  0  0  0  0  0  0  0
  -29.5869  -21.0275   21.0650 C   0  0  0  0  0  0  0  0  0  0  0  0
  -29.1599  -23.3241   20.0944 C   0  0  0  0  0  0  0  0  0  0  0  0
  -28.1445  -21.3560   19.0130 C   0  0  0  0  0  0  0  0  0  0  0  0
  -19.6574  -28.4822   21.4052 C   0  0  1  0  0  0  0  0  0  0  0  0
  -22.6888  -26.3903   22.3369 C   0  0  1  0  0  0  0  0  0  0  0  0
  -29.1210  -20.4100   19.7327 C   0  0  2  0  0  0  0  0  0  0  0  0
  -30.1889  -28.2948   21.9847 C   0  0  0  0  0  0  0  0  0  0  0  0
  -24.2232  -29.6565   19.4494 C   0  0  0  0  0  0  0  0  0  0  0  0
  -26.7108  -29.9182   19.3410 C   0  0  0  0  0  0  0  0  0  0  0  0
  -25.4575  -30.7417   21.3344 C   0  0  0  0  0  0  0  0  0  0  0  0
  -25.1833  -17.4684   15.5875 C   0  0  0  0  0  0  0  0  0  0  0  0
  -28.7202  -25.1136   23.4675 C   0  0  0  0  0  0  0  0  0  0  0  0
  -26.0200  -24.6217   14.3130 C   0  0  0  0  0  0  0  0  0  0  0  0
  -25.2089  -22.2686   14.2386 C   0  0  0  0  0  0  0  0  0  0  0  0
  -24.7108  -21.9124   17.4184 C   0  0  0  0  0  0  0  0  0  1  0  0
  -28.7256  -23.2276   15.1582 C   0  0  0  0  0  0  0  0  0  0  0  0
  -27.6528  -22.7447   14.1999 C   0  0  0  0  0  0  0  0  0  0  0  0
  -25.7453  -28.2533   20.9923 C   0  0  1  0  0  0  0  0  0  0  0  0
  -29.0930  -27.4096   22.5577 C   0  0  2  0  0  0  0  0  0  0  0  0
  -25.5223  -29.6166   20.2787 C   0  0  0  0  0  0  0  0  0  0  0  0
  -27.2062  -18.9054   20.1228 N   0  0  0  0  0  0  0  0  0  0  0  0
  -24.9120  -19.5617   16.7537 N   0  0  0  0  0  0  0  0  0  0  0  0
  -25.1244  -18.9105   15.5974 N   0  0  0  0  0  0  0  0  0  0  0  0
  -28.5312  -19.0262   19.9331 N   0  0  0  0  0  0  0  0  0  0  0  0
  -23.9257  -26.6961   21.6153 N   0  0  0  0  0  0  0  0  0  0  0  0
  -28.7587  -22.6818   18.8405 N   0  0  0  0  0  0  0  0  0  0  0  0
  -30.5375  -17.7779   19.7697 N   0  0  0  0  0  0  0  0  0  0  0  0
  -27.3945  -14.6116   20.4713 N   0  0  0  0  0  0  0  0  0  0  0  0
  -20.7975  -27.8744   22.0574 N   0  0  0  0  0  0  0  0  0  0  0  0
  -26.9542  -28.1959   21.8069 N   0  0  0  0  0  0  0  0  0  0  0  0
  -28.5675  -22.6705   16.4831 N   0  0  0  0  0  0  0  0  0  0  0  0
  -29.6822  -26.0780   22.8747 N   0  3  0  0  0  0  0  0  0  0  0  0
  -26.3002  -23.1911   14.6835 N   0  3  1  0  0  0  0  0  0  0  0  0
  -29.6369  -14.9710   20.1533 O   0  0  0  0  0  0  0  0  0  0  0  0
  -21.3725  -26.3686   20.3768 O   0  0  0  0  0  0  0  0  0  0  0  0
  -24.3226  -28.6324   22.8521 O   0  0  0  0  0  0  0  0  0  0  0  0
  -27.9164  -26.3953   20.7073 O   0  0  0  0  0  0  0  0  0  0  0  0
  -29.4864  -24.4737   17.5608 O   0  0  0  0  0  0  0  0  0  0  0  0
  -21.9320  -15.4830   21.1323 O   0  0  0  0  0  0  0  0  0  0  0  0
  -23.8778  -21.3978   18.4564 O   0  0  0  0  0  0  0  0  0  1  0  0
  -20.4548  -11.0400   18.2199 F   0  0  0  0  0  0  0  0  0  0  0  0
  -23.3623  -13.1246   21.3194 F   0  0  0  0  0  0  0  0  0  0  0  0
  1  2  1  0  0  0  0
  1  5  2  0  0  0  0
  2  6  2  0  0  0  0
  3  8  2  0  0  0  0
  3 16  1  0  0  0  0
  4  9  1  0  0  0  0
  4 16  2  0  0  0  0
  5 18  1  0  0  0  0
  6 20  1  0  0  0  0
  7 10  2  0  0  0  0
  7 19  1  0  0  0  0
  8 23  1  0  0  0  0
  9 23  2  0  0  0  0
 10 24  1  0  0  0  0
 11 12  2  0  0  0  0
 11 25  1  0  0  0  0
 12 26  1  0  0  0  0
 13 21  1  0  0  0  0
 13 24  2  0  0  0  0
 14 26  2  0  0  0  0
 14 27  1  0  0  0  0
 15 22  2  0  0  0  0
 15 64  1  0  0  0  0
 16 28  1  0  0  0  0
 17 28  1  0  0  0  0
 17 30  2  0  0  0  0
 17 31  1  0  0  0  0
 18 20  2  0  0  0  0
 18 36  1  0  0  0  0
 19 21  2  0  0  0  0
 19 37  1  0  0  0  0
 20 45  1  0  0  0  0
 21 38  1  0  0  0  0
 22 29  1  0  0  0  0
 22 55  1  0  0  0  0
 23 80  1  0  0  0  0
 24 81  1  0  0  0  0
 25 27  2  0  0  0  0
 25 80  1  0  0  0  0
 26 82  1  0  0  0  0
 27 83  1  0  0  0  0
 28 62  2  0  0  0  0
 29 56  1  0  0  0  0
 29 63  2  0  0  0  0
 30 65  1  0  0  0  0
 30 68  1  0  0  0  0
 31 69  1  0  0  0  0
 31 75  2  0  0  0  0
 32 46  1  0  0  0  0
 32 70  1  0  0  0  0
 32 76  2  0  0  0  0
 33 59  1  0  0  0  0
 33 66  1  0  0  0  0
 33 77  2  0  0  0  0
 34 60  1  0  0  0  0
 34 71  1  0  0  0  0
 34 78  2  0  0  0  0
 35 67  1  0  0  0  0
 35 72  1  0  0  0  0
 35 79  2  0  0  0  0
 36 39  1  0  0  0  0
 37 46  1  0  0  0  0
 38 66  1  0  0  0  0
 39 41  1  0  0  0  0
 40 42  1  0  0  0  0
 40 43  1  0  0  0  0
 41 45  1  0  0  0  0
 42 47  1  0  0  0  0
 43 67  1  0  0  0  0
 44 47  1  0  0  0  0
 44 67  1  0  0  0  0
 45 70  1  0  0  0  0
 46 66  1  0  0  0  0
 47 65  1  0  0  0  0
 48 60  1  0  0  0  0
 49 61  1  0  0  0  0
 50 61  1  0  0  0  0
 51 61  1  0  0  0  0
 52 64  1  0  0  0  0
 53 73  1  0  0  0  0
 54 74  1  0  0  0  0
 55 74  1  0  0  0  0
 56 81  1  0  0  0  0
 57 58  1  0  0  0  0
 57 72  1  0  0  0  0
 58 74  1  0  0  0  0
 59 61  1  0  0  0  0
 59 71  1  0  0  0  0
 60 73  1  0  0  0  0
 62 65  1  0  0  0  0
 63 64  1  0  0  0  0
M  CHG  2  73   1  74   1
M  ISO  4  35 100  56 101  72 100  81 101
M  END
> <Batch ID>
0055

> <Smiles>
CNC(C)C(=O)NC(C(=O)N1Cc2cc([101O:1][101CH2:1]c3nn(C)cc3CN(C)CC[100NH:0][100C:0](=O)N3CCCC(n4nc(-c5ccc(Oc6ccc(F)cc6F)cc5)c(C(N)=O)c4N)C3)ccc2CC1C(=O)NC1CCCc2ccccc21)C(C)(C)C

> <Shape>
0.200

> <Color>
0.057

> <Negative vol penalty>
0.000

$$$$

  -OEChem-04052317433D

 84 92  0     1  0  0  0  0  0999 V2000
  -20.1862  -32.0163   22.4037 C   0  0  0  0  0  0  0  0  0  0  0  0
  -21.4504  -31.4536   22.5469 C   0  0  0  0  0  0  0  0  0  0  0  0
  -24.5279   -9.6733   21.4959 C   0  0  0  0  0  0  0  0  0  0  0  0
  -24.7540  -10.8266   23.6068 C   0  0  0  0  0  0  0  0  0  0  0  0
  -19.0539  -31.2039   22.4470 C   0  0  0  0  0  0  0  0  0  0  0  0
  -21.5830  -30.0782   22.7345 C   0  0  0  0  0  0  0  0  0  0  0  0
  -26.0926  -26.4963   20.6514 C   0  0  0  0  0  0  0  0  0  0  0  0
  -24.1945   -8.5001   22.1726 C   0  0  0  0  0  0  0  0  0  0  0  0
  -24.4205   -9.6534   24.2835 C   0  0  0  0  0  0  0  0  0  0  0  0
  -27.2449  -25.9930   21.2536 C   0  0  0  0  0  0  0  0  0  0  0  0
  -21.6170   -7.9171   25.0224 C   0  0  0  0  0  0  0  0  0  0  0  0
  -20.6989   -8.0125   26.0681 C   0  0  0  0  0  0  0  0  0  0  0  0
  -29.6150  -22.3486   17.7924 C   0  0  0  0  0  0  0  0  0  0  0  0
  -26.0834  -23.9363   21.7433 C   0  0  0  0  0  0  0  0  0  0  0  0
  -22.3558   -7.1519   27.6014 C   0  0  0  0  0  0  0  0  0  0  0  0
  -30.9349  -22.8144   17.9434 C   0  0  0  0  0  0  0  0  0  0  0  0
  -24.8078  -10.8366   22.2130 C   0  0  0  0  0  0  0  0  0  0  0  0
  -24.2720  -13.0494   21.0623 C   0  0  0  0  0  0  0  0  0  0  0  0
  -19.1732  -29.8166   22.6256 C   0  0  0  0  0  0  0  0  0  0  0  0
  -24.9218  -25.7262   20.6001 C   0  0  0  0  0  0  0  0  0  0  0  0
  -20.4512  -29.2467   22.7816 C   0  0  0  0  0  0  0  0  0  0  0  0
  -24.9183  -24.4311   21.1376 C   0  0  0  0  0  0  0  0  0  0  0  0
  -24.1407   -8.4901   23.5664 C   0  0  0  0  0  0  0  0  0  0  0  0
  -27.2396  -24.7140   21.8023 C   0  0  0  0  0  0  0  0  0  0  0  0
  -22.9045   -7.4390   25.2662 C   0  0  0  0  0  0  0  0  0  0  0  0
  -21.0682   -7.6300   27.3576 C   0  0  0  0  0  0  0  0  0  0  0  0
  -23.2739   -7.0564   26.5557 C   0  0  0  0  0  0  0  0  0  0  0  0
  -25.1528  -12.0487   21.5145 C   0  0  0  0  0  0  0  0  0  0  0  0
  -29.1964  -22.0818   19.0730 C   0  0  0  0  0  0  0  0  0  0  0  0
  -25.0872  -13.9809   20.4671 C   0  0  0  0  0  0  0  0  0  0  0  0
  -22.8446  -13.1298   21.1708 C   0  0  0  0  0  0  0  0  0  0  0  0
  -21.9767  -26.0422   21.7535 C   0  0  0  0  0  0  0  0  0  0  0  0
  -21.4237  -23.3668   20.0046 C   0  0  0  0  0  0  0  0  0  0  0  0
  -22.3295  -20.1176   18.7242 C   0  0  0  0  0  0  0  0  0  0  0  0
  -29.7188  -17.0942   20.4520 C   0  0  0  0  0  0  0  0  0  0  0  0
  -17.9178  -28.9853   22.7131 C   0  0  0  0  0  0  0  0  0  0  0  0
  -23.6951  -26.2733   19.9233 C   0  0  0  0  0  0  0  0  0  0  0  0
  -23.6932  -23.5562   21.0904 C   0  0  0  0  0  0  0  0  0  0  0  0
  -18.1650  -27.4889   22.5405 C   0  0  0  0  0  0  0  0  0  0  0  0
  -29.9881  -13.7591   19.2348 C   0  0  0  0  0  0  0  0  0  0  0  0
  -19.3497  -27.0419   23.3910 C   0  0  0  0  0  0  0  0  0  0  0  0
  -28.6849  -13.0982   19.6874 C   0  0  0  0  0  0  0  0  0  0  0  0
  -30.5069  -14.7526   20.2720 C   0  0  0  0  0  0  0  0  0  0  0  0
  -28.2297  -15.1181   21.1405 C   0  0  0  0  0  0  0  0  0  0  0  0
  -20.6373  -27.7558   22.9621 C   0  0  1  0  0  0  0  0  0  0  0  0
  -22.4070  -25.5981   20.3841 C   0  0  1  0  0  0  0  0  0  0  0  0
  -27.6378  -14.1493   20.1026 C   0  0  2  0  0  0  0  0  0  0  0  0
  -21.7324  -18.1987   17.2213 C   0  0  0  0  0  0  0  0  0  0  0  0
  -20.3169  -22.0870   22.5437 C   0  0  0  0  0  0  0  0  0  0  0  0
  -20.5253  -19.8561   21.4266 C   0  0  0  0  0  0  0  0  0  0  0  0
  -19.0095  -21.5911   20.4702 C   0  0  0  0  0  0  0  0  0  0  0  0
  -26.3318  -19.6758   20.2773 C   0  0  0  0  0  0  0  0  0  0  0  0
  -27.8492  -19.3611   18.3299 C   0  0  0  0  0  0  0  0  0  0  0  0
  -24.1056  -21.1006   16.5706 C   0  0  0  0  0  0  0  0  0  0  0  0
  -27.9124  -21.5694   19.5854 C   0  0  0  0  0  0  0  0  0  0  0  0
  -30.6574  -23.5879   22.0902 C   0  0  0  0  0  0  0  0  0  0  0  0
  -30.3034  -22.2771   21.3843 C   0  0  0  0  0  0  0  0  0  0  0  0
  -28.7833  -19.3818   20.6769 C   0  0  0  0  0  0  0  0  0  0  0  0
  -29.6160  -24.6826   21.8891 C   0  0  0  0  0  0  0  0  0  1  0  0
  -21.5125  -21.8824   20.2645 C   0  0  1  0  0  0  0  0  0  0  0  0
  -22.2098  -19.6411   17.2879 C   0  0  2  0  0  0  0  0  0  0  0  0
  -20.3637  -21.3711   21.1790 C   0  0  0  0  0  0  0  0  0  0  0  0
  -27.7342  -20.0100   19.7286 C   0  0  0  0  0  0  0  0  0  0  0  0
  -31.3287  -22.8431   19.2194 N   0  0  0  0  0  0  0  0  0  0  0  0
  -26.4297  -12.3189   21.2307 N   0  0  0  0  0  0  0  0  0  0  0  0
  -30.2499  -22.3921   19.8818 N   0  0  0  0  0  0  0  0  0  0  0  0
  -26.3572  -13.5000   20.5936 N   0  0  0  0  0  0  0  0  0  0  0  0
  -22.5169  -24.1384   20.4235 N   0  0  0  0  0  0  0  0  0  0  0  0
  -29.4664  -15.7228   20.6212 N   0  0  0  0  0  0  0  0  0  0  0  0
  -24.8343  -15.1561   19.8528 N   0  0  0  0  0  0  0  0  0  0  0  0
  -22.1635  -12.0867   21.8128 N   0  0  0  0  0  0  0  0  0  0  0  0
  -21.1660  -27.1613   21.7531 N   0  0  0  0  0  0  0  0  0  0  0  0
  -21.5643  -21.2411   18.9551 N   0  0  0  0  0  0  0  0  0  0  0  0
  -28.6772  -17.9451   20.8009 N   0  0  0  0  0  0  0  0  0  0  0  0
  -23.5289  -19.7318   16.6004 N   0  3  0  0  0  0  0  0  0  0  0  0
  -22.1910  -14.0901   20.6974 O   0  0  0  0  0  0  0  0  0  0  0  0
  -22.3512  -25.4152   22.7375 O   0  0  0  0  0  0  0  0  0  0  0  0
  -20.4246  -23.8239   19.4439 O   0  0  0  0  0  0  0  0  0  0  0  0
  -23.0288  -19.5477   19.5590 O   0  0  0  0  0  0  0  0  0  0  0  0
  -30.7910  -17.5278   20.0169 O   0  0  0  0  0  0  0  0  0  0  0  0
  -23.8151   -7.3455   24.2271 O   0  0  0  0  0  0  0  0  0  0  0  0
  -28.3627  -24.2206   22.3913 O   0  0  0  0  0  0  0  0  0  1  0  0
  -20.1869   -7.7232   28.3620 F   0  0  0  0  0  0  0  0  0  0  0  0
  -24.5098   -6.5975   26.7962 F   0  0  0  0  0  0  0  0  0  0  0  0
  1  2  1  0  0  0  0
  1  5  2  0  0  0  0
  2  6  2  0  0  0  0
  3  8  2  0  0  0  0
  3 17  1  0  0  0  0
  4  9  1  0  0  0  0
  4 17  2  0  0  0  0
  5 19  1  0  0  0  0
  6 21  1  0  0  0  0
  7 10  2  0  0  0  0
  7 20  1  0  0  0  0
  8 23  1  0  0  0  0
  9 23  2  0  0  0  0
 10 24  1  0  0  0  0
 11 12  2  0  0  0  0
 11 25  1  0  0  0  0
 12 26  1  0  0  0  0
 13 16  1  0  0  0  0
 13 29  2  0  0  0  0
 14 22  1  0  0  0  0
 14 24  2  0  0  0  0
 15 26  2  0  0  0  0
 15 27  1  0  0  0  0
 16 64  2  0  0  0  0
 17 28  1  0  0  0  0
 18 28  1  0  0  0  0
 18 30  2  0  0  0  0
 18 31  1  0  0  0  0
 19 21  2  0  0  0  0
 19 36  1  0  0  0  0
 20 22  2  0  0  0  0
 20 37  1  0  0  0  0
 21 45  1  0  0  0  0
 22 38  1  0  0  0  0
 23 81  1  0  0  0  0
 24 82  1  0  0  0  0
 25 27  2  0  0  0  0
 25 81  1  0  0  0  0
 26 83  1  0  0  0  0
 27 84  1  0  0  0  0
 28 65  2  0  0  0  0
 29 55  1  0  0  0  0
 29 66  1  0  0  0  0
 30 67  1  0  0  0  0
 30 70  1  0  0  0  0
 31 71  1  0  0  0  0
 31 76  2  0  0  0  0
 32 46  1  0  0  0  0
 32 72  1  0  0  0  0
 32 77  2  0  0  0  0
 33 60  1  0  0  0  0
 33 68  1  0  0  0  0
 33 78  2  0  0  0  0
 34 61  1  0  0  0  0
 34 73  1  0  0  0  0
 34 79  2  0  0  0  0
 35 69  1  0  0  0  0
 35 74  1  0  0  0  0
 35 80  2  0  0  0  0
 36 39  1  0  0  0  0
 37 46  1  0  0  0  0
 38 68  1  0  0  0  0
 39 41  1  0  0  0  0
 40 42  1  0  0  0  0
 40 43  1  0  0  0  0
 41 45  1  0  0  0  0
 42 47  1  0  0  0  0
 43 69  1  0  0  0  0
 44 47  1  0  0  0  0
 44 69  1  0  0  0  0
 45 72  1  0  0  0  0
 46 68  1  0  0  0  0
 47 67  1  0  0  0  0
 48 61  1  0  0  0  0
 49 62  1  0  0  0  0
 50 62  1  0  0  0  0
 51 62  1  0  0  0  0
 52 63  1  0  0  0  0
 53 63  1  0  0  0  0
 54 75  1  0  0  0  0
 55 63  1  0  0  0  0
 56 57  1  0  0  0  0
 56 59  1  0  0  0  0
 57 66  1  0  0  0  0
 58 63  1  0  0  0  0
 58 74  1  0  0  0  0
 59 82  1  0  0  0  0
 60 62  1  0  0  0  0
 60 73  1  0  0  0  0
 61 75  1  0  0  0  0
 64 66  1  0  0  0  0
 65 67  1  0  0  0  0
M  CHG  1  75   1
M  ISO  4  35 100  59 101  74 100  82 101
M  END
> <Batch ID>
0055

> <Smiles>
CNC(C)C(=O)NC(C(=O)N1Cc2cc([101O:1][101CH2:1]CCn3nccc3CC(C)(C)C[100NH:0][100C:0](=O)N3CCCC(n4nc(-c5ccc(Oc6ccc(F)cc6F)cc5)c(C(N)=O)c4N)C3)ccc2CC1C(=O)NC1CCCc2ccccc21)C(C)(C)C

> <Shape>
0.228

> <Color>
0.096

> <Negative vol penalty>
0.000

$$$$

  -OEChem-04052317433D

 82 90  0     1  0  0  0  0  0999 V2000
  -29.4699  -33.6415   25.0306 C   0  0  0  0  0  0  0  0  0  0  0  0
  -29.0179  -32.3271   25.0878 C   0  0  0  0  0  0  0  0  0  0  0  0
  -26.9342  -14.0771   21.8949 C   0  0  0  0  0  0  0  0  0  0  0  0
  -26.9720  -12.7850   19.8538 C   0  0  0  0  0  0  0  0  0  0  0  0
  -28.6051  -34.6580   24.6272 C   0  0  0  0  0  0  0  0  0  0  0  0
  -27.7002  -32.0285   24.7426 C   0  0  0  0  0  0  0  0  0  0  0  0
  -27.3488  -27.9456   21.7676 C   0  0  0  0  0  0  0  0  0  0  0  0
  -26.2640  -13.0380   22.5404 C   0  0  0  0  0  0  0  0  0  0  0  0
  -26.3017  -11.7458   20.4993 C   0  0  0  0  0  0  0  0  0  0  0  0
  -27.4629  -26.6989   22.3812 C   0  0  0  0  0  0  0  0  0  0  0  0
  -24.2826   -8.8978   21.5102 C   0  0  0  0  0  0  0  0  0  0  0  0
  -23.2202   -8.2946   20.8371 C   0  0  0  0  0  0  0  0  0  0  0  0
  -25.0616  -26.4708   22.3507 C   0  0  0  0  0  0  0  0  0  0  0  0
  -22.0689  -10.4170   20.7525 C   0  0  0  0  0  0  0  0  0  0  0  0
  -27.1195  -22.2112   20.7655 C   0  0  0  0  0  0  0  0  0  0  0  0
  -27.2882  -13.9506   20.5516 C   0  0  0  0  0  0  0  0  0  0  0  0
  -29.3723  -15.2102   19.7917 C   0  0  0  0  0  0  0  0  0  0  0  0
  -27.2790  -34.3704   24.2677 C   0  0  0  0  0  0  0  0  0  0  0  0
  -26.0875  -28.4699   21.4503 C   0  0  0  0  0  0  0  0  0  0  0  0
  -26.8164  -33.0423   24.3353 C   0  0  0  0  0  0  0  0  0  0  0  0
  -24.9343  -27.7232   21.7308 C   0  0  0  0  0  0  0  0  0  0  0  0
  -25.9478  -11.8724   21.8426 C   0  0  0  0  0  0  0  0  0  0  0  0
  -26.3191  -25.9626   22.6755 C   0  0  0  0  0  0  0  0  0  0  0  0
  -24.2381  -10.2606   21.8046 C   0  0  0  0  0  0  0  0  0  0  0  0
  -22.1134   -9.0542   20.4582 C   0  0  0  0  0  0  0  0  0  0  0  0
  -23.1312  -11.0201   21.4257 C   0  0  0  0  0  0  0  0  0  0  0  0
  -27.9800  -15.0239   19.8841 C   0  0  0  0  0  0  0  0  0  0  0  0
  -27.1364  -22.1051   22.1692 C   0  0  0  0  0  0  0  0  0  0  0  0
  -28.4020  -21.9032   20.3824 C   0  0  0  0  0  0  0  0  0  0  0  0
  -29.5166  -16.3650   19.0622 C   0  0  0  0  0  0  0  0  0  0  0  0
  -30.4398  -14.4107   20.3180 C   0  0  0  0  0  0  0  0  0  0  0  0
  -24.4429  -31.0443   22.3286 C   0  0  0  0  0  0  0  0  0  0  0  0
  -22.3672  -30.0131   20.0591 C   0  0  0  0  0  0  0  0  0  0  0  0
  -21.1497  -27.4143   18.2125 C   0  0  0  0  0  0  0  0  0  0  0  0
  -28.2450  -21.4954   17.9329 C   0  0  0  0  0  0  0  0  0  0  0  0
  -26.3678  -35.5092   23.8833 C   0  0  0  0  0  0  0  0  0  0  0  0
  -25.9828  -29.8044   20.7643 C   0  0  0  0  0  0  0  0  0  0  0  0
  -23.5580  -28.2325   21.3920 C   0  0  0  0  0  0  0  0  0  0  0  0
  -25.0935  -35.0571   23.1747 C   0  0  0  0  0  0  0  0  0  0  0  0
  -26.1455  -19.0506   16.4302 C   0  0  0  0  0  0  0  0  0  0  0  0
  -24.4584  -33.8842   23.9150 C   0  0  0  0  0  0  0  0  0  0  0  0
  -26.5451  -17.7926   17.2007 C   0  0  0  0  0  0  0  0  0  0  0  0
  -26.0872  -20.2817   17.3351 C   0  0  0  0  0  0  0  0  0  0  0  0
  -27.7273  -19.2592   18.8807 C   0  0  0  0  0  0  0  0  0  0  0  0
  -25.4012  -32.6752   23.9450 C   0  0  1  0  0  0  0  0  0  0  0  0
  -24.6220  -30.4679   20.9526 C   0  0  1  0  0  0  0  0  0  0  0  0
  -27.8500  -18.0166   17.9850 C   0  0  1  0  0  0  0  0  0  0  0  0
  -19.4290  -26.8733   16.4677 C   0  0  0  0  0  0  0  0  0  0  0  0
  -26.3430  -22.1359   24.6286 C   0  0  0  0  0  0  0  0  0  0  0  0
  -24.8318  -21.3420   22.8219 C   0  0  0  0  0  0  0  0  0  0  0  0
  -20.1791  -30.1376   22.1820 C   0  0  0  0  0  0  0  0  0  0  0  0
  -18.7504  -28.7202   20.6927 C   0  0  0  0  0  0  0  0  0  0  0  0
  -19.4939  -30.9750   19.9273 C   0  0  0  0  0  0  0  0  0  0  0  0
  -30.4733  -21.2690   21.6595 C   0  0  0  0  0  0  0  0  0  0  0  0
  -30.3599  -22.3737   18.8980 C   0  0  0  0  0  0  0  0  0  0  0  0
  -23.2137  -26.5286   16.2852 C   0  0  0  0  0  0  0  0  0  0  0  0
  -25.4163  -23.7835   22.9793 C   0  0  0  0  0  0  0  0  0  1  0  0
  -21.1737  -29.0889   20.0426 C   0  0  1  0  0  0  0  0  0  0  0  0
  -20.8721  -27.2776   16.7263 C   0  0  2  0  0  0  0  0  0  0  0  0
  -25.9660  -22.3428   23.1418 C   0  0  0  0  0  0  0  0  0  0  0  0
  -19.9249  -29.7214   20.7194 C   0  0  0  0  0  0  0  0  0  0  0  0
  -27.2891  -15.9836   19.2632 N   0  0  0  0  0  0  0  0  0  0  0  0
  -28.3346  -21.7567   22.6456 N   0  0  0  0  0  0  0  0  0  0  0  0
  -28.2512  -16.7841   18.7736 N   0  0  0  0  0  0  0  0  0  0  0  0
  -29.0826  -21.6411   21.5350 N   0  0  0  0  0  0  0  0  0  0  0  0
  -23.5074  -29.5453   20.7277 N   0  0  0  0  0  0  0  0  0  0  0  0
  -27.3377  -20.4312   18.0928 N   0  0  0  0  0  0  0  0  0  0  0  0
  -30.6011  -17.0527   18.6461 N   0  0  0  0  0  0  0  0  0  0  0  0
  -30.1150  -13.2565   21.0437 N   0  0  0  0  0  0  0  0  0  0  0  0
  -25.3885  -31.9926   22.6689 N   0  0  0  0  0  0  0  0  0  0  0  0
  -20.9701  -28.7100   18.6485 N   0  0  0  0  0  0  0  0  0  0  0  0
  -29.0046  -21.8399   19.0716 N   0  0  0  0  0  0  0  0  0  0  0  0
  -21.7640  -26.2459   16.1255 N   0  3  0  0  0  0  0  0  0  0  0  0
  -31.6457  -14.7199   20.1639 O   0  0  0  0  0  0  0  0  0  0  0  0
  -23.5145  -30.6583   23.0292 O   0  0  0  0  0  0  0  0  0  0  0  0
  -22.2931  -31.1068   19.4934 O   0  0  0  0  0  0  0  0  0  0  0  0
  -21.4880  -26.4657   18.9169 O   0  0  0  0  0  0  0  0  0  0  0  0
  -28.3850  -22.0758   16.8496 O   0  0  0  0  0  0  0  0  0  0  0  0
  -25.2940  -10.8581   22.4722 O   0  0  0  0  0  0  0  0  0  0  0  0
  -26.4276  -24.7458   23.2751 O   0  0  0  0  0  0  0  0  0  1  0  0
  -21.0939   -8.4751   19.8105 F   0  0  0  0  0  0  0  0  0  0  0  0
  -23.0833  -12.3300   21.7047 F   0  0  0  0  0  0  0  0  0  0  0  0
  1  2  1  0  0  0  0
  1  5  2  0  0  0  0
  2  6  2  0  0  0  0
  3  8  2  0  0  0  0
  3 16  1  0  0  0  0
  4  9  1  0  0  0  0
  4 16  2  0  0  0  0
  5 18  1  0  0  0  0
  6 20  1  0  0  0  0
  7 10  2  0  0  0  0
  7 19  1  0  0  0  0
  8 22  1  0  0  0  0
  9 22  2  0  0  0  0
 10 23  1  0  0  0  0
 11 12  2  0  0  0  0
 11 24  1  0  0  0  0
 12 25  1  0  0  0  0
 13 21  1  0  0  0  0
 13 23  2  0  0  0  0
 14 25  2  0  0  0  0
 14 26  1  0  0  0  0
 15 28  1  0  0  0  0
 15 29  2  0  0  0  0
 16 27  1  0  0  0  0
 17 27  1  0  0  0  0
 17 30  2  0  0  0  0
 17 31  1  0  0  0  0
 18 20  2  0  0  0  0
 18 36  1  0  0  0  0
 19 21  2  0  0  0  0
 19 37  1  0  0  0  0
 20 45  1  0  0  0  0
 21 38  1  0  0  0  0
 22 79  1  0  0  0  0
 23 80  1  0  0  0  0
 24 26  2  0  0  0  0
 24 79  1  0  0  0  0
 25 81  1  0  0  0  0
 26 82  1  0  0  0  0
 27 62  2  0  0  0  0
 28 60  1  0  0  0  0
 28 63  2  0  0  0  0
 29 65  1  0  0  0  0
 29 72  1  0  0  0  0
 30 64  1  0  0  0  0
 30 68  1  0  0  0  0
 31 69  1  0  0  0  0
 31 74  2  0  0  0  0
 32 46  1  0  0  0  0
 32 70  1  0  0  0  0
 32 75  2  0  0  0  0
 33 58  1  0  0  0  0
 33 66  1  0  0  0  0
 33 76  2  0  0  0  0
 34 59  1  0  0  0  0
 34 71  1  0  0  0  0
 34 77  2  0  0  0  0
 35 67  1  0  0  0  0
 35 72  1  0  0  0  0
 35 78  2  0  0  0  0
 36 39  1  0  0  0  0
 37 46  1  0  0  0  0
 38 66  1  0  0  0  0
 39 41  1  0  0  0  0
 40 42  1  0  0  0  0
 40 43  1  0  0  0  0
 41 45  1  0  0  0  0
 42 47  1  0  0  0  0
 43 67  1  0  0  0  0
 44 47  1  0  0  0  0
 44 67  1  0  0  0  0
 45 70  1  0  0  0  0
 46 66  1  0  0  0  0
 47 64  1  0  0  0  0
 48 59  1  0  0  0  0
 49 60  1  0  0  0  0
 50 60  1  0  0  0  0
 51 61  1  0  0  0  0
 52 61  1  0  0  0  0
 53 61  1  0  0  0  0
 54 65  1  0  0  0  0
 55 72  1  0  0  0  0
 56 73  1  0  0  0  0
 57 60  1  0  0  0  0
 57 80  1  0  0  0  0
 58 61  1  0  0  0  0
 58 71  1  0  0  0  0
 59 73  1  0  0  0  0
 62 64  1  0  0  0  0
 63 65  1  0  0  0  0
M  CHG  1  73   1
M  ISO  4  35 100  57 101  72 100  80 101
M  END
> <Batch ID>
0055

> <Smiles>
CNC(C)C(=O)NC(C(=O)N1Cc2cc([101O:1][101CH2:1]C(C)(C)c3cc([100N:0](C)[100C:0](=O)N4CCCC(n5nc(-c6ccc(Oc7ccc(F)cc7F)cc6)c(C(N)=O)c5N)C4)n(C)n3)ccc2CC1C(=O)NC1CCCc2ccccc21)C(C)(C)C

> <Shape>
0.255

> <Color>
0.047

> <Negative vol penalty>
0.000

$$$$

  -OEChem-04052317433D

 82 90  0     1  0  0  0  0  0999 V2000
  -20.0758  -32.2759   17.4163 C   0  0  0  0  0  0  0  0  0  0  0  0
  -20.5026  -31.0581   16.8965 C   0  0  0  0  0  0  0  0  0  0  0  0
  -24.8863  -12.6382   19.5818 C   0  0  0  0  0  0  0  0  0  0  0  0
  -24.9302  -13.1591   21.9405 C   0  0  0  0  0  0  0  0  0  0  0  0
  -20.8734  -32.9590   18.3335 C   0  0  0  0  0  0  0  0  0  0  0  0
  -21.7279  -30.5231   17.2928 C   0  0  0  0  0  0  0  0  0  0  0  0
  -24.9547  -24.2379   18.4759 C   0  0  0  0  0  0  0  0  0  0  0  0
  -24.7727  -11.2811   19.8835 C   0  0  0  0  0  0  0  0  0  0  0  0
  -24.8165  -11.8020   22.2423 C   0  0  0  0  0  0  0  0  0  0  0  0
  -26.1040  -23.5334   18.1201 C   0  0  0  0  0  0  0  0  0  0  0  0
  -24.1749   -8.5052   23.6343 C   0  0  0  0  0  0  0  0  0  0  0  0
  -23.2688   -8.1348   24.6280 C   0  0  0  0  0  0  0  0  0  0  0  0
  -27.3616  -24.7635   19.7706 C   0  0  0  0  0  0  0  0  0  0  0  0
  -21.4647   -9.0987   23.3422 C   0  0  0  0  0  0  0  0  0  0  0  0
  -29.6034  -25.5865   17.7969 C   0  0  0  0  0  0  0  0  0  0  0  0
  -24.9652  -13.5772   20.6103 C   0  0  0  0  0  0  0  0  0  0  0  0
  -24.0346  -15.9003   20.1154 C   0  0  0  0  0  0  0  0  0  0  0  0
  -22.1046  -32.4274   18.7485 C   0  0  0  0  0  0  0  0  0  0  0  0
  -25.0027  -25.2198   19.4758 C   0  0  0  0  0  0  0  0  0  0  0  0
  -22.5433  -31.2004   18.2154 C   0  0  0  0  0  0  0  0  0  0  0  0
  -26.2110  -25.4773   20.1390 C   0  0  0  0  0  0  0  0  0  0  0  0
  -24.7377  -10.8630   21.2138 C   0  0  0  0  0  0  0  0  0  0  0  0
  -27.3083  -23.7982   18.7655 C   0  0  0  0  0  0  0  0  0  0  0  0
  -23.7259   -9.1725   22.4946 C   0  0  0  0  0  0  0  0  0  0  0  0
  -21.9137   -8.4315   24.4819 C   0  0  0  0  0  0  0  0  0  0  0  0
  -22.3708   -9.4692   22.3486 C   0  0  0  0  0  0  0  0  0  0  0  0
  -25.0832  -14.9791   20.2991 C   0  0  0  0  0  0  0  0  0  0  0  0
  -29.9929  -24.9062   18.9220 C   0  0  0  0  0  0  0  0  0  0  0  0
  -24.6659  -17.0891   19.8420 C   0  0  0  0  0  0  0  0  0  0  0  0
  -30.6251  -27.4338   18.5989 C   0  0  0  0  0  0  0  0  0  0  0  0
  -22.6167  -15.6994   20.1857 C   0  0  0  0  0  0  0  0  0  0  0  0
  -24.4652  -28.3512   19.5723 C   0  0  0  0  0  0  0  0  0  0  0  0
  -24.8961  -27.9328   22.7601 C   0  0  0  0  0  0  0  0  0  0  0  0
  -26.2481  -26.0721   25.2813 C   0  0  0  0  0  0  0  0  0  0  0  0
  -28.4365  -20.8154   20.7686 C   0  0  0  0  0  0  0  0  0  0  0  0
  -22.9539  -33.2252   19.7062 C   0  0  0  0  0  0  0  0  0  0  0  0
  -23.7483  -25.9521   19.8665 C   0  0  0  0  0  0  0  0  0  0  0  0
  -26.3111  -26.5073   21.2333 C   0  0  0  0  0  0  0  0  0  0  0  0
  -24.0666  -32.4088   20.3587 C   0  0  0  0  0  0  0  0  0  0  0  0
  -29.4981  -18.0965   18.7804 C   0  0  0  0  0  0  0  0  0  0  0  0
  -24.8015  -31.5764   19.3130 C   0  0  0  0  0  0  0  0  0  0  0  0
  -28.3552  -17.1041   18.9898 C   0  0  0  0  0  0  0  0  0  0  0  0
  -29.8615  -18.8348   20.0701 C   0  0  0  0  0  0  0  0  0  0  0  0
  -27.5673  -18.5026   20.9354 C   0  0  0  0  0  0  0  0  0  0  0  0
  -23.8547  -30.5756   18.6395 C   0  0  1  0  0  0  0  0  0  0  0  0
  -24.0243  -27.2917   20.5423 C   0  0  1  0  0  0  0  0  0  0  0  0
  -27.1426  -17.7910   19.6415 C   0  0  2  0  0  0  0  0  0  0  0  0
  -30.9988  -28.8676   18.4431 C   0  0  0  0  0  0  0  0  0  0  0  0
  -26.4629  -26.0015   27.7805 C   0  0  0  0  0  0  0  0  0  0  0  0
  -30.7331  -22.5411   18.5300 C   0  0  0  0  0  0  0  0  0  0  0  0
  -26.9953  -30.1439   22.6397 C   0  0  0  0  0  0  0  0  0  0  0  0
  -27.8228  -29.3843   24.8772 C   0  0  0  0  0  0  0  0  0  0  0  0
  -25.4921  -30.2401   24.6360 C   0  0  0  0  0  0  0  0  0  0  0  0
  -30.8231  -21.2566   21.4856 C   0  0  0  0  0  0  0  0  0  0  0  0
  -24.8422  -23.4729   25.4448 C   0  0  0  0  0  0  0  0  0  0  0  0
  -29.4078  -23.0755   20.6054 C   0  0  0  0  0  0  0  0  0  0  0  0
  -26.0828  -27.9702   23.6924 C   0  0  1  0  0  0  0  0  0  0  0  0
  -25.6540  -25.5468   26.5757 C   0  0  2  0  0  0  0  0  0  0  0  0
  -29.6314  -23.4348   19.1221 C   0  0  1  0  0  0  0  0  0  1  0  0
  -26.5971  -29.4165   23.9394 C   0  0  0  0  0  0  0  0  0  0  0  0
  -29.9133  -26.8780   17.6072 N   0  0  0  0  0  0  0  0  0  0  0  0
  -26.2891  -15.5349   20.1545 N   0  0  0  0  0  0  0  0  0  0  0  0
  -30.7066  -25.5174   19.8848 N   0  0  0  0  0  0  0  0  0  0  0  0
  -31.0345  -26.8164   19.7246 N   0  0  0  0  0  0  0  0  0  0  0  0
  -26.0022  -16.8181   19.8769 N   0  0  0  0  0  0  0  0  0  0  0  0
  -25.0585  -27.2013   21.5750 N   0  0  0  0  0  0  0  0  0  0  0  0
  -28.6690  -19.4348   20.6839 N   0  0  0  0  0  0  0  0  0  0  0  0
  -24.2028  -18.3292   19.5775 N   0  0  0  0  0  0  0  0  0  0  0  0
  -22.1376  -14.4151   20.4775 N   0  0  0  0  0  0  0  0  0  0  0  0
  -23.6184  -29.4412   19.5066 N   0  0  0  0  0  0  0  0  0  0  0  0
  -25.6730  -27.2668   24.9031 N   0  0  0  0  0  0  0  0  0  0  0  0
  -29.5592  -21.6510   20.8665 N   0  0  0  0  0  0  0  0  0  0  0  0
  -25.6242  -24.0568   26.5648 N   0  3  0  0  0  0  0  0  0  0  0  0
  -21.7987  -16.6277   19.9792 O   0  0  0  0  0  0  0  0  0  0  0  0
  -25.4979  -28.1922   18.9321 O   0  0  0  0  0  0  0  0  0  0  0  0
  -23.8607  -28.5247   23.0750 O   0  0  0  0  0  0  0  0  0  0  0  0
  -27.1364  -25.4834   24.6689 O   0  0  0  0  0  0  0  0  0  0  0  0
  -27.2881  -21.2774   20.7652 O   0  0  0  0  0  0  0  0  0  0  0  0
  -24.6266   -9.5389   21.5087 O   0  0  0  0  0  0  0  0  0  0  0  0
  -28.4318  -23.1125   18.4198 O   0  0  0  0  0  0  0  0  0  1  0  0
  -21.0435   -8.0743   25.4355 F   0  0  0  0  0  0  0  0  0  0  0  0
  -21.9333  -10.1089   21.2553 F   0  0  0  0  0  0  0  0  0  0  0  0
  1  2  1  0  0  0  0
  1  5  2  0  0  0  0
  2  6  2  0  0  0  0
  3  8  2  0  0  0  0
  3 16  1  0  0  0  0
  4  9  1  0  0  0  0
  4 16  2  0  0  0  0
  5 18  1  0  0  0  0
  6 20  1  0  0  0  0
  7 10  2  0  0  0  0
  7 19  1  0  0  0  0
  8 22  1  0  0  0  0
  9 22  2  0  0  0  0
 10 23  1  0  0  0  0
 11 12  2  0  0  0  0
 11 24  1  0  0  0  0
 12 25  1  0  0  0  0
 13 21  1  0  0  0  0
 13 23  2  0  0  0  0
 14 25  2  0  0  0  0
 14 26  1  0  0  0  0
 15 28  1  0  0  0  0
 15 61  2  0  0  0  0
 16 27  1  0  0  0  0
 17 27  1  0  0  0  0
 17 29  2  0  0  0  0
 17 31  1  0  0  0  0
 18 20  2  0  0  0  0
 18 36  1  0  0  0  0
 19 21  2  0  0  0  0
 19 37  1  0  0  0  0
 20 45  1  0  0  0  0
 21 38  1  0  0  0  0
 22 79  1  0  0  0  0
 23 80  1  0  0  0  0
 24 26  2  0  0  0  0
 24 79  1  0  0  0  0
 25 81  1  0  0  0  0
 26 82  1  0  0  0  0
 27 62  2  0  0  0  0
 28 59  1  0  0  0  0
 28 63  2  0  0  0  0
 29 65  1  0  0  0  0
 29 68  1  0  0  0  0
 30 48  1  0  0  0  0
 30 61  1  0  0  0  0
 30 64  2  0  0  0  0
 31 69  1  0  0  0  0
 31 74  2  0  0  0  0
 32 46  1  0  0  0  0
 32 70  1  0  0  0  0
 32 75  2  0  0  0  0
 33 57  1  0  0  0  0
 33 66  1  0  0  0  0
 33 76  2  0  0  0  0
 34 58  1  0  0  0  0
 34 71  1  0  0  0  0
 34 77  2  0  0  0  0
 35 67  1  0  0  0  0
 35 72  1  0  0  0  0
 35 78  2  0  0  0  0
 36 39  1  0  0  0  0
 37 46  1  0  0  0  0
 38 66  1  0  0  0  0
 39 41  1  0  0  0  0
 40 42  1  0  0  0  0
 40 43  1  0  0  0  0
 41 45  1  0  0  0  0
 42 47  1  0  0  0  0
 43 67  1  0  0  0  0
 44 47  1  0  0  0  0
 44 67  1  0  0  0  0
 45 70  1  0  0  0  0
 46 66  1  0  0  0  0
 47 65  1  0  0  0  0
 49 58  1  0  0  0  0
 50 59  1  0  0  0  0
 51 60  1  0  0  0  0
 52 60  1  0  0  0  0
 53 60  1  0  0  0  0
 54 72  1  0  0  0  0
 55 73  1  0  0  0  0
 56 59  1  0  0  0  0
 56 72  1  0  0  0  0
 57 60  1  0  0  0  0
 57 71  1  0  0  0  0
 58 73  1  0  0  0  0
 59 80  1  0  0  0  0
 62 65  1  0  0  0  0
 63 64  1  0  0  0  0
M  CHG  1  73   1
M  ISO  4  35 100  59 101  72 100  80 101
M  END
> <Batch ID>
0055

> <Smiles>
CNC(C)C(=O)NC(C(=O)N1Cc2cc([101O:1][101C:1](C)(C[100N:0](C)[100C:0](=O)N3CCCC(n4nc(-c5ccc(Oc6ccc(F)cc6F)cc5)c(C(N)=O)c4N)C3)c3cnc(C)nn3)ccc2CC1C(=O)NC1CCCc2ccccc21)C(C)(C)C

> <Shape>
0.229

> <Color>
0.062

> <Negative vol penalty>
0.000

$$$$

  -OEChem-04052317433D

 82 90  0     1  0  0  0  0  0999 V2000
  -18.7600  -23.0141   15.8622 C   0  0  0  0  0  0  0  0  0  0  0  0
  -19.6617  -21.9568   15.9310 C   0  0  0  0  0  0  0  0  0  0  0  0
  -27.5903  -23.3401   20.6248 C   0  0  0  0  0  0  0  0  0  0  0  0
  -28.9736  -23.3626   18.6441 C   0  0  0  0  0  0  0  0  0  0  0  0
  -18.6512  -23.9064   16.9280 C   0  0  0  0  0  0  0  0  0  0  0  0
  -20.4559  -21.7920   17.0652 C   0  0  0  0  0  0  0  0  0  0  0  0
  -22.2871  -16.4976   19.5395 C   0  0  0  0  0  0  0  0  0  0  0  0
  -27.6402  -24.7332   20.6754 C   0  0  0  0  0  0  0  0  0  0  0  0
  -29.0235  -24.7556   18.6947 C   0  0  0  0  0  0  0  0  0  0  0  0
  -23.4792  -15.7809   19.4452 C   0  0  0  0  0  0  0  0  0  0  0  0
  -26.1494  -27.3374   19.1172 C   0  0  0  0  0  0  0  0  0  0  0  0
  -24.9569  -28.0205   19.3554 C   0  0  0  0  0  0  0  0  0  0  0  0
  -24.2439  -16.7944   21.4964 C   0  0  0  0  0  0  0  0  0  0  0  0
  -25.9095  -28.9861   21.3548 C   0  0  0  0  0  0  0  0  0  0  0  0
  -28.1784  -13.6600   18.4646 C   0  0  0  0  0  0  0  0  0  0  0  0
  -28.2571  -22.6548   19.6091 C   0  0  0  0  0  0  0  0  0  0  0  0
  -27.2572  -20.4226   18.8845 C   0  0  0  0  0  0  0  0  0  0  0  0
  -19.4376  -23.7468   18.0798 C   0  0  0  0  0  0  0  0  0  0  0  0
  -22.0686  -17.3779   20.6090 C   0  0  0  0  0  0  0  0  0  0  0  0
  -20.3585  -22.6838   18.1468 C   0  0  0  0  0  0  0  0  0  0  0  0
  -23.0471  -17.5193   21.6033 C   0  0  0  0  0  0  0  0  0  0  0  0
  -28.3568  -25.4409   19.7104 C   0  0  0  0  0  0  0  0  0  0  0  0
  -24.4590  -15.9314   20.4222 C   0  0  0  0  0  0  0  0  0  0  0  0
  -27.2220  -27.4785   19.9978 C   0  0  0  0  0  0  0  0  0  0  0  0
  -24.8369  -28.8449   20.4742 C   0  0  0  0  0  0  0  0  0  0  0  0
  -27.1020  -28.3029   21.1165 C   0  0  0  0  0  0  0  0  0  0  0  0
  -28.2064  -21.2158   19.5566 C   0  0  0  0  0  0  0  0  0  0  0  0
  -27.1015  -13.6693   19.3055 C   0  0  0  0  0  0  0  0  0  0  0  0
  -27.6464  -19.1305   19.1407 C   0  0  0  0  0  0  0  0  0  0  0  0
  -28.6585  -12.3771   20.2036 C   0  0  0  0  0  0  0  0  0  0  0  0
  -26.1251  -20.8183   18.0988 C   0  0  0  0  0  0  0  0  0  0  0  0
  -21.5731  -20.5065   20.8739 C   0  0  0  0  0  0  0  0  0  0  0  0
  -21.0894  -19.7711   23.9960 C   0  0  0  0  0  0  0  0  0  0  0  0
  -21.6544  -17.6243   26.5880 C   0  0  0  0  0  0  0  0  0  0  0  0
  -31.6221  -15.2352   19.5477 C   0  0  0  0  0  0  0  0  0  0  0  0
  -19.3186  -24.7642   19.1868 C   0  0  0  0  0  0  0  0  0  0  0  0
  -20.7662  -18.1236   20.7105 C   0  0  0  0  0  0  0  0  0  0  0  0
  -22.8530  -18.4362   22.7823 C   0  0  0  0  0  0  0  0  0  0  0  0
  -19.9283  -24.3015   20.5075 C   0  0  0  0  0  0  0  0  0  0  0  0
  -31.0655  -17.3049   22.3908 C   0  0  0  0  0  0  0  0  0  0  0  0
  -21.3074  -23.6928   20.2746 C   0  0  0  0  0  0  0  0  0  0  0  0
  -30.1994  -18.4440   21.8501 C   0  0  0  0  0  0  0  0  0  0  0  0
  -32.1012  -16.8480   21.3659 C   0  0  0  0  0  0  0  0  0  0  0  0
  -30.6835  -17.6256   19.5060 C   0  0  0  0  0  0  0  0  0  0  0  0
  -21.2196  -22.4573   19.3705 C   0  0  1  0  0  0  0  0  0  0  0  0
  -20.8627  -19.3803   21.5700 C   0  0  1  0  0  0  0  0  0  0  0  0
  -29.5871  -18.0827   20.4834 C   0  0  2  0  0  0  0  0  0  0  0  0
  -29.3615  -11.4699   21.1446 C   0  0  0  0  0  0  0  0  0  0  0  0
  -21.1608  -17.3092   29.0282 C   0  0  0  0  0  0  0  0  0  0  0  0
  -30.4367  -11.2496   17.6915 C   0  0  0  0  0  0  0  0  0  0  0  0
  -32.4780  -13.4556   17.2146 C   0  0  0  0  0  0  0  0  0  0  0  0
  -23.1718  -21.8910   24.6885 C   0  0  0  0  0  0  0  0  0  0  0  0
  -23.3292  -20.8888   26.9773 C   0  0  0  0  0  0  0  0  0  0  0  0
  -21.1721  -21.8634   26.1901 C   0  0  0  0  0  0  0  0  0  0  0  0
  -20.2195  -15.0844   26.0887 C   0  0  0  0  0  0  0  0  0  0  0  0
  -25.7754  -14.3647   19.2103 C   0  0  0  0  0  0  0  0  0  1  0  0
  -21.9685  -19.6691   25.2189 C   0  0  1  0  0  0  0  0  0  0  0  0
  -20.7142  -17.0054   27.6066 C   0  0  2  0  0  0  0  0  0  0  0  0
  -30.4327  -12.5657   18.4853 C   0  0  1  0  0  0  0  0  0  0  0  0
  -31.0423  -13.7311   17.6607 C   0  0  1  0  0  0  0  0  0  0  0  0
  -22.4152  -21.0622   25.7456 C   0  0  0  0  0  0  0  0  0  0  0  0
  -29.1290  -20.4885   20.1921 N   0  0  0  0  0  0  0  0  0  0  0  0
  -29.1270  -12.8531   19.0454 N   0  0  0  0  0  0  0  0  0  0  0  0
  -28.7613  -19.2247   19.9205 N   0  0  0  0  0  0  0  0  0  0  0  0
  -27.4262  -12.8670   20.3728 N   0  3  0  0  0  0  0  0  0  0  0  0
  -21.5654  -19.1483   22.8335 N   0  0  0  0  0  0  0  0  0  0  0  0
  -31.4554  -16.5190   20.0929 N   0  0  0  0  0  0  0  0  0  0  0  0
  -27.1402  -17.9344   18.7727 N   0  0  0  0  0  0  0  0  0  0  0  0
  -25.8697  -22.1868   17.9369 N   0  0  0  0  0  0  0  0  0  0  0  0
  -20.7434  -21.3149   20.1206 N   0  0  0  0  0  0  0  0  0  0  0  0
  -21.2260  -18.8731   26.1902 N   0  0  0  0  0  0  0  0  0  0  0  0
  -30.9711  -15.0045   18.3420 N   0  0  0  0  0  0  0  0  0  0  0  0
  -20.6660  -15.5258   27.4351 N   0  3  0  0  0  0  0  0  0  0  0  0
  -25.3530  -19.9829   17.5701 O   0  0  0  0  0  0  0  0  0  0  0  0
  -22.7842  -20.6335   21.0113 O   0  0  0  0  0  0  0  0  0  0  0  0
  -20.0163  -20.3749   24.0713 O   0  0  0  0  0  0  0  0  0  0  0  0
  -22.6694  -17.0582   26.1882 O   0  0  0  0  0  0  0  0  0  0  0  0
  -32.2965  -14.3578   20.0976 O   0  0  0  0  0  0  0  0  0  0  0  0
  -28.4055  -26.8002   19.7594 O   0  0  0  0  0  0  0  0  0  0  0  0
  -25.6238  -15.2335   20.3322 O   0  0  0  0  0  0  0  0  0  1  0  0
  -23.6922  -29.5020   20.7021 F   0  0  0  0  0  0  0  0  0  0  0  0
  -28.1294  -28.4433   21.9654 F   0  0  0  0  0  0  0  0  0  0  0  0
  1  2  1  0  0  0  0
  1  5  2  0  0  0  0
  2  6  2  0  0  0  0
  3  8  2  0  0  0  0
  3 16  1  0  0  0  0
  4  9  1  0  0  0  0
  4 16  2  0  0  0  0
  5 18  1  0  0  0  0
  6 20  1  0  0  0  0
  7 10  2  0  0  0  0
  7 19  1  0  0  0  0
  8 22  1  0  0  0  0
  9 22  2  0  0  0  0
 10 23  1  0  0  0  0
 11 12  2  0  0  0  0
 11 24  1  0  0  0  0
 12 25  1  0  0  0  0
 13 21  1  0  0  0  0
 13 23  2  0  0  0  0
 14 25  2  0  0  0  0
 14 26  1  0  0  0  0
 15 28  2  0  0  0  0
 15 63  1  0  0  0  0
 16 27  1  0  0  0  0
 17 27  1  0  0  0  0
 17 29  2  0  0  0  0
 17 31  1  0  0  0  0
 18 20  2  0  0  0  0
 18 36  1  0  0  0  0
 19 21  2  0  0  0  0
 19 37  1  0  0  0  0
 20 45  1  0  0  0  0
 21 38  1  0  0  0  0
 22 79  1  0  0  0  0
 23 80  1  0  0  0  0
 24 26  2  0  0  0  0
 24 79  1  0  0  0  0
 25 81  1  0  0  0  0
 26 82  1  0  0  0  0
 27 62  2  0  0  0  0
 28 56  1  0  0  0  0
 28 65  1  0  0  0  0
 29 64  1  0  0  0  0
 29 68  1  0  0  0  0
 30 48  1  0  0  0  0
 30 63  1  0  0  0  0
 30 65  2  0  0  0  0
 31 69  1  0  0  0  0
 31 74  2  0  0  0  0
 32 46  1  0  0  0  0
 32 70  1  0  0  0  0
 32 75  2  0  0  0  0
 33 57  1  0  0  0  0
 33 66  1  0  0  0  0
 33 76  2  0  0  0  0
 34 58  1  0  0  0  0
 34 71  1  0  0  0  0
 34 77  2  0  0  0  0
 35 67  1  0  0  0  0
 35 72  1  0  0  0  0
 35 78  2  0  0  0  0
 36 39  1  0  0  0  0
 37 46  1  0  0  0  0
 38 66  1  0  0  0  0
 39 41  1  0  0  0  0
 40 42  1  0  0  0  0
 40 43  1  0  0  0  0
 41 45  1  0  0  0  0
 42 47  1  0  0  0  0
 43 67  1  0  0  0  0
 44 47  1  0  0  0  0
 44 67  1  0  0  0  0
 45 70  1  0  0  0  0
 46 66  1  0  0  0  0
 47 64  1  0  0  0  0
 49 58  1  0  0  0  0
 50 59  1  0  0  0  0
 51 60  1  0  0  0  0
 52 61  1  0  0  0  0
 53 61  1  0  0  0  0
 54 61  1  0  0  0  0
 55 73  1  0  0  0  0
 56 80  1  0  0  0  0
 57 61  1  0  0  0  0
 57 71  1  0  0  0  0
 58 73  1  0  0  0  0
 59 60  1  0  0  0  0
 59 63  1  0  0  0  0
 60 72  1  0  0  0  0
 62 64  1  0  0  0  0
M  CHG  2  65   1  73   1
M  ISO  4  35 100  56 101  72 100  80 101
M  END
> <Batch ID>
0055

> <Smiles>
CNC(C)C(=O)NC(C(=O)N1Cc2cc([101O:1][101CH2:1]c3cn(C(C)C(C)[100NH:0][100C:0](=O)N4CCCC(n5nc(-c6ccc(Oc7ccc(F)cc7F)cc6)c(C(N)=O)c5N)C4)c(C)n3)ccc2CC1C(=O)NC1CCCc2ccccc21)C(C)(C)C

> <Shape>
0.191

> <Color>
0.094

> <Negative vol penalty>
0.000

$$$$

  -OEChem-04052317433D

 83 91  0     1  0  0  0  0  0999 V2000
  -21.4292  -12.3111   19.8078 C   0  0  0  0  0  0  0  0  0  0  0  0
  -21.4454  -13.5572   20.4262 C   0  0  0  0  0  0  0  0  0  0  0  0
  -22.4296  -29.4204   19.6404 C   0  0  0  0  0  0  0  0  0  0  0  0
  -22.6350  -28.2724   21.7563 C   0  0  0  0  0  0  0  0  0  0  0  0
  -22.6115  -11.5840   19.6762 C   0  0  0  0  0  0  0  0  0  0  0  0
  -22.6440  -14.0764   20.9145 C   0  0  0  0  0  0  0  0  0  0  0  0
  -24.3393  -19.9604   21.0101 C   0  0  0  0  0  0  0  0  0  0  0  0
  -21.0400  -29.3449   19.7344 C   0  0  0  0  0  0  0  0  0  0  0  0
  -21.2454  -28.1970   21.8503 C   0  0  0  0  0  0  0  0  0  0  0  0
  -24.3107  -20.9287   22.0129 C   0  0  0  0  0  0  0  0  0  0  0  0
  -18.6931  -30.2428   22.6992 C   0  0  0  0  0  0  0  0  0  0  0  0
  -18.1098  -30.5610   23.9256 C   0  0  0  0  0  0  0  0  0  0  0  0
  -26.6149  -20.4447   22.5376 C   0  0  0  0  0  0  0  0  0  0  0  0
  -17.1632  -28.3417   24.0511 C   0  0  0  0  0  0  0  0  0  0  0  0
  -23.2271  -28.8842   20.6514 C   0  0  0  0  0  0  0  0  0  0  0  0
  -25.4928  -29.9925   21.0337 C   0  0  0  0  0  0  0  0  0  0  0  0
  -23.8268  -12.0988   20.1545 C   0  0  0  0  0  0  0  0  0  0  0  0
  -25.5047  -19.2182   20.7705 C   0  0  0  0  0  0  0  0  0  0  0  0
  -23.8434  -13.3548   20.7904 C   0  0  0  0  0  0  0  0  0  0  0  0
  -26.6566  -19.4695   21.5296 C   0  0  0  0  0  0  0  0  0  0  0  0
  -20.4478  -28.7332   20.8393 C   0  0  0  0  0  0  0  0  0  0  0  0
  -25.4477  -21.1689   22.7787 C   0  0  0  0  0  0  0  0  0  0  0  0
  -18.5114  -28.9741   22.1487 C   0  0  0  0  0  0  0  0  0  0  0  0
  -17.3448  -29.6104   24.6016 C   0  0  0  0  0  0  0  0  0  0  0  0
  -17.7465  -28.0236   22.8246 C   0  0  0  0  0  0  0  0  0  0  0  0
  -24.6627  -28.9613   20.5547 C   0  0  0  0  0  0  0  0  0  0  0  0
  -26.7634  -29.5953   20.6958 C   0  0  0  0  0  0  0  0  0  0  0  0
  -28.2397  -25.1402   22.7852 C   0  0  0  0  0  0  0  0  0  0  0  0
  -26.4520  -24.8571   23.8250 C   0  0  0  0  0  0  0  0  0  0  0  0
  -25.1462  -31.2012   21.7227 C   0  0  0  0  0  0  0  0  0  0  0  0
  -26.2717  -16.1370   20.9173 C   0  0  0  0  0  0  0  0  0  0  0  0
  -29.0728  -17.1745   19.6525 C   0  0  0  0  0  0  0  0  0  0  0  0
  -31.2679  -19.7469   19.1938 C   0  0  0  0  0  0  0  0  0  0  0  0
  -28.7938  -23.9391   19.5027 C   0  0  0  0  0  0  0  0  0  0  0  0
  -25.0710  -11.2553   20.0316 C   0  0  0  0  0  0  0  0  0  0  0  0
  -25.5274  -18.1960   19.6673 C   0  0  0  0  0  0  0  0  0  0  0  0
  -27.9389  -18.7141   21.2985 C   0  0  0  0  0  0  0  0  0  0  0  0
  -26.3628  -12.0411   20.2412 C   0  0  0  0  0  0  0  0  0  0  0  0
  -29.1572  -27.0098   17.4678 C   0  0  0  0  0  0  0  0  0  0  0  0
  -26.2516  -12.9321   21.4743 C   0  0  0  0  0  0  0  0  0  0  0  0
  -28.0622  -27.9141   18.0311 C   0  0  0  0  0  0  0  0  0  0  0  0
  -28.8059  -25.5327   17.6181 C   0  0  0  0  0  0  0  0  0  0  0  0
  -27.3815  -26.0351   19.5759 C   0  0  0  0  0  0  0  0  0  0  0  0
  -25.1279  -13.9627   21.3108 C   0  0  1  0  0  0  0  0  0  0  0  0
  -26.6134  -17.1408   19.8528 C   0  0  1  0  0  0  0  0  0  0  0  0
  -27.7253  -27.5293   19.4822 C   0  0  2  0  0  0  0  0  0  0  0  0
  -33.2763  -20.9646   18.3098 C   0  0  0  0  0  0  0  0  0  0  0  0
  -26.8995  -27.9545   25.5265 C   0  0  0  0  0  0  0  0  0  0  0  0
  -27.9590  -26.0557   26.8219 C   0  0  0  0  0  0  0  0  0  0  0  0
  -30.4915  -15.7602   21.9540 C   0  0  0  0  0  0  0  0  0  0  0  0
  -32.5425  -17.0912   21.4156 C   0  0  0  0  0  0  0  0  0  0  0  0
  -31.6063  -15.5091   19.7294 C   0  0  0  0  0  0  0  0  0  0  0  0
  -29.4357  -22.5630   21.4454 C   0  0  0  0  0  0  0  0  0  0  0  0
  -29.8091  -20.6374   16.7776 C   0  0  0  0  0  0  0  0  0  0  0  0
  -29.2688  -25.0056   21.7476 C   0  0  0  0  0  0  0  0  0  0  0  0
  -25.0873  -24.4388   24.3159 C   0  0  0  0  0  0  0  0  0  0  0  0
  -24.5486  -23.2248   23.5667 C   0  0  0  0  0  0  0  0  0  1  0  0
  -30.3832  -17.6674   20.2171 C   0  0  1  0  0  0  0  0  0  0  0  0
  -31.9797  -20.2546   17.9527 C   0  0  2  0  0  0  0  0  0  0  0  0
  -26.9675  -26.4385   25.7215 C   0  0  0  0  0  0  0  0  0  0  0  0
  -31.2313  -16.5200   20.8349 C   0  0  0  0  0  0  0  0  0  0  0  0
  -25.3483  -27.9828   19.9577 N   0  0  0  0  0  0  0  0  0  0  0  0
  -27.0618  -24.4510   22.7357 N   0  0  0  0  0  0  0  0  0  0  0  0
  -28.3970  -25.9471   23.8367 N   0  0  0  0  0  0  0  0  0  0  0  0
  -26.6226  -28.3973   20.0594 N   0  0  0  0  0  0  0  0  0  0  0  0
  -27.2398  -25.7474   24.4857 N   0  0  0  0  0  0  0  0  0  0  0  0
  -27.9091  -17.7204   20.2126 N   0  0  0  0  0  0  0  0  0  0  0  0
  -28.4480  -25.2036   18.9982 N   0  0  0  0  0  0  0  0  0  0  0  0
  -27.9762  -30.1576   20.8839 N   0  0  0  0  0  0  0  0  0  0  0  0
  -23.7938  -31.4536   21.9901 N   0  0  0  0  0  0  0  0  0  0  0  0
  -25.5579  -15.0478   20.4552 N   0  0  0  0  0  0  0  0  0  0  0  0
  -31.0485  -18.3869   19.1362 N   0  0  0  0  0  0  0  0  0  0  0  0
  -29.0617  -23.8503   20.8772 N   0  0  0  0  0  0  0  0  0  0  0  0
  -31.1094  -21.2104   17.2110 N   0  3  0  0  0  0  0  0  0  0  0  0
  -26.0089  -32.0406   22.0757 O   0  0  0  0  0  0  0  0  0  0  0  0
  -26.6304  -16.3353   22.0722 O   0  0  0  0  0  0  0  0  0  0  0  0
  -29.0814  -16.3413   18.7429 O   0  0  0  0  0  0  0  0  0  0  0  0
  -30.9428  -20.4826   20.1230 O   0  0  0  0  0  0  0  0  0  0  0  0
  -28.8686  -22.9482   18.7650 O   0  0  0  0  0  0  0  0  0  0  0  0
  -19.0919  -28.6596   20.9314 O   0  0  0  0  0  0  0  0  0  0  0  0
  -25.4223  -22.1130   23.7586 O   0  0  0  0  0  0  0  0  0  1  0  0
  -16.7860  -29.9156   25.7800 F   0  0  0  0  0  0  0  0  0  0  0  0
  -17.5694  -26.8027   22.3013 F   0  0  0  0  0  0  0  0  0  0  0  0
  1  2  1  0  0  0  0
  1  5  2  0  0  0  0
  2  6  2  0  0  0  0
  3  8  2  0  0  0  0
  3 15  1  0  0  0  0
  4  9  1  0  0  0  0
  4 15  2  0  0  0  0
  5 17  1  0  0  0  0
  6 19  1  0  0  0  0
  7 10  2  0  0  0  0
  7 18  1  0  0  0  0
  8 21  1  0  0  0  0
  9 21  2  0  0  0  0
 10 22  1  0  0  0  0
 11 12  2  0  0  0  0
 11 23  1  0  0  0  0
 12 24  1  0  0  0  0
 13 20  1  0  0  0  0
 13 22  2  0  0  0  0
 14 24  2  0  0  0  0
 14 25  1  0  0  0  0
 15 26  1  0  0  0  0
 16 26  1  0  0  0  0
 16 27  2  0  0  0  0
 16 30  1  0  0  0  0
 17 19  2  0  0  0  0
 17 35  1  0  0  0  0
 18 20  2  0  0  0  0
 18 36  1  0  0  0  0
 19 44  1  0  0  0  0
 20 37  1  0  0  0  0
 21 80  1  0  0  0  0
 22 81  1  0  0  0  0
 23 25  2  0  0  0  0
 23 80  1  0  0  0  0
 24 82  1  0  0  0  0
 25 83  1  0  0  0  0
 26 62  2  0  0  0  0
 27 65  1  0  0  0  0
 27 69  1  0  0  0  0
 28 55  1  0  0  0  0
 28 63  1  0  0  0  0
 28 64  2  0  0  0  0
 29 56  1  0  0  0  0
 29 63  2  0  0  0  0
 29 66  1  0  0  0  0
 30 70  1  0  0  0  0
 30 75  2  0  0  0  0
 31 45  1  0  0  0  0
 31 71  1  0  0  0  0
 31 76  2  0  0  0  0
 32 58  1  0  0  0  0
 32 67  1  0  0  0  0
 32 77  2  0  0  0  0
 33 59  1  0  0  0  0
 33 72  1  0  0  0  0
 33 78  2  0  0  0  0
 34 68  1  0  0  0  0
 34 73  1  0  0  0  0
 34 79  2  0  0  0  0
 35 38  1  0  0  0  0
 36 45  1  0  0  0  0
 37 67  1  0  0  0  0
 38 40  1  0  0  0  0
 39 41  1  0  0  0  0
 39 42  1  0  0  0  0
 40 44  1  0  0  0  0
 41 46  1  0  0  0  0
 42 68  1  0  0  0  0
 43 46  1  0  0  0  0
 43 68  1  0  0  0  0
 44 71  1  0  0  0  0
 45 67  1  0  0  0  0
 46 65  1  0  0  0  0
 47 59  1  0  0  0  0
 48 60  1  0  0  0  0
 49 60  1  0  0  0  0
 50 61  1  0  0  0  0
 51 61  1  0  0  0  0
 52 61  1  0  0  0  0
 53 73  1  0  0  0  0
 54 74  1  0  0  0  0
 55 73  1  0  0  0  0
 56 57  1  0  0  0  0
 57 81  1  0  0  0  0
 58 61  1  0  0  0  0
 58 72  1  0  0  0  0
 59 74  1  0  0  0  0
 60 66  1  0  0  0  0
 62 65  1  0  0  0  0
 64 66  1  0  0  0  0
M  CHG  1  74   1
M  ISO  4  34 100  57 101  73 100  81 101
M  END
> <Batch ID>
0055

> <Smiles>
CNC(C)C(=O)NC(C(=O)N1Cc2cc([101O:1][101CH2:1]Cc3nc(C[100N:0](C)[100C:0](=O)N4CCCC(n5nc(-c6ccc(Oc7ccc(F)cc7F)cc6)c(C(N)=O)c5N)C4)nn3C(C)C)ccc2CC1C(=O)NC1CCCc2ccccc21)C(C)(C)C

> <Shape>
0.252

> <Color>
0.088

> <Negative vol penalty>
0.000

$$$$

  -OEChem-04052317433D

 80 88  0     1  0  0  0  0  0999 V2000
  -32.4124  -23.1397   27.4171 C   0  0  0  0  0  0  0  0  0  0  0  0
  -31.9916  -23.4438   26.1264 C   0  0  0  0  0  0  0  0  0  0  0  0
  -26.1535  -12.7820   21.6098 C   0  0  0  0  0  0  0  0  0  0  0  0
  -26.0290  -13.6093   19.3432 C   0  0  0  0  0  0  0  0  0  0  0  0
  -31.5089  -22.6084   28.3366 C   0  0  0  0  0  0  0  0  0  0  0  0
  -30.6673  -23.2157   25.7541 C   0  0  0  0  0  0  0  0  0  0  0  0
  -28.6829  -27.0885   23.1640 C   0  0  0  0  0  0  0  0  0  0  0  0
  -24.8616  -12.2691   21.4935 C   0  0  0  0  0  0  0  0  0  0  0  0
  -24.7371  -13.0964   19.2270 C   0  0  0  0  0  0  0  0  0  0  0  0
  -29.0338  -27.2017   21.8195 C   0  0  0  0  0  0  0  0  0  0  0  0
  -21.4594  -11.0561   21.9145 C   0  0  0  0  0  0  0  0  0  0  0  0
  -20.5767  -11.2718   22.9728 C   0  0  0  0  0  0  0  0  0  0  0  0
  -26.9358  -26.1894   21.1929 C   0  0  0  0  0  0  0  0  0  0  0  0
  -20.8095  -13.6587   22.6803 C   0  0  0  0  0  0  0  0  0  0  0  0
  -26.7372  -13.4521   20.5346 C   0  0  0  0  0  0  0  0  0  0  0  0
  -29.2782  -13.3255   20.3480 C   0  0  0  0  0  0  0  0  0  0  0  0
  -30.1705  -22.3827   27.9782 C   0  0  0  0  0  0  0  0  0  0  0  0
  -27.4584  -26.5140   23.5341 C   0  0  0  0  0  0  0  0  0  0  0  0
  -29.7454  -22.6797   26.6692 C   0  0  0  0  0  0  0  0  0  0  0  0
  -26.5706  -26.0724   22.5427 C   0  0  0  0  0  0  0  0  0  0  0  0
  -24.1534  -12.4263   20.3021 C   0  0  0  0  0  0  0  0  0  0  0  0
  -28.1615  -26.7495   20.8338 C   0  0  0  0  0  0  0  0  0  0  0  0
  -22.0172  -12.1416   21.2392 C   0  0  0  0  0  0  0  0  0  0  0  0
  -20.2517  -12.5731   23.3557 C   0  0  0  0  0  0  0  0  0  0  0  0
  -21.6923  -13.4430   21.6221 C   0  0  0  0  0  0  0  0  0  0  0  0
  -28.0715  -13.9826   20.6543 C   0  0  0  0  0  0  0  0  0  0  0  0
  -30.2540  -14.2498   20.6309 C   0  0  0  0  0  0  0  0  0  0  0  0
  -31.7706  -22.8203   19.5370 C   0  0  0  0  0  0  0  0  0  0  0  0
  -29.6137  -23.0727   19.6620 C   0  0  0  0  0  0  0  0  0  0  0  0
  -29.4976  -11.9983   19.8519 C   0  0  0  0  0  0  0  0  0  0  0  0
  -26.5971  -23.9606   25.2200 C   0  0  0  0  0  0  0  0  0  0  0  0
  -30.0752  -20.1852   20.7549 C   0  0  0  0  0  0  0  0  0  0  0  0
  -23.6174  -25.1718   24.8001 C   0  0  0  0  0  0  0  0  0  0  0  0
  -21.5202  -27.1316   22.9541 C   0  0  0  0  0  0  0  0  0  0  0  0
  -29.2422  -21.7627   28.9923 C   0  0  0  0  0  0  0  0  0  0  0  0
  -27.0831  -26.4235   24.9878 C   0  0  0  0  0  0  0  0  0  0  0  0
  -25.2353  -25.4665   22.8868 C   0  0  0  0  0  0  0  0  0  0  0  0
  -27.7655  -21.9009   28.6309 C   0  0  0  0  0  0  0  0  0  0  0  0
  -31.1679  -17.9986   23.4479 C   0  0  0  0  0  0  0  0  0  0  0  0
  -27.5369  -21.5313   27.1687 C   0  0  0  0  0  0  0  0  0  0  0  0
  -30.5757  -16.6587   23.0130 C   0  0  0  0  0  0  0  0  0  0  0  0
  -30.2542  -19.1634   23.0756 C   0  0  0  0  0  0  0  0  0  0  0  0
  -29.3083  -17.8730   21.1875 C   0  0  0  0  0  0  0  0  0  0  0  0
  -28.3111  -22.4696   26.2350 C   0  0  1  0  0  0  0  0  0  0  0  0
  -26.0335  -25.3526   25.2684 C   0  0  1  0  0  0  0  0  0  0  0  0
  -30.2139  -16.6746   21.5175 C   0  0  2  0  0  0  0  0  0  0  0  0
  -19.1329  -27.8962   22.8361 C   0  0  0  0  0  0  0  0  0  0  0  0
  -22.8026  -22.4488   23.6904 C   0  0  0  0  0  0  0  0  0  0  0  0
  -20.7563  -23.5286   22.7340 C   0  0  0  0  0  0  0  0  0  0  0  0
  -21.1147  -23.5065   25.2025 C   0  0  0  0  0  0  0  0  0  0  0  0
  -22.2918  -29.9704   23.2778 C   0  0  0  0  0  0  0  0  0  0  0  0
  -30.6567  -21.4590   21.3144 C   0  0  0  0  0  0  0  0  0  0  0  0
  -30.0538  -26.1768   17.8219 C   0  0  0  0  0  0  0  0  0  0  0  0
  -29.5062  -24.7581   17.7443 C   0  0  0  0  0  0  0  0  0  0  0  0
  -29.8919  -26.8001   19.2031 C   0  0  0  0  0  0  0  0  0  1  0  0
  -22.5373  -25.0161   23.7570 C   0  0  1  0  0  0  0  0  0  0  0  0
  -20.5267  -28.2051   23.3603 C   0  0  2  0  0  0  0  0  0  0  0  0
  -21.8286  -23.6346   23.8392 C   0  0  0  0  0  0  0  0  0  0  0  0
  -28.2609  -15.2281   21.0980 N   0  0  0  0  0  0  0  0  0  0  0  0
  -31.5368  -23.6776   18.5970 N   0  0  0  0  0  0  0  0  0  0  0  0
  -29.5979  -15.3610   21.0726 N   0  0  0  0  0  0  0  0  0  0  0  0
  -30.6852  -22.4066   20.2213 N   0  0  0  0  0  0  0  0  0  0  0  0
  -30.1772  -23.8629   18.6458 N   0  0  0  0  0  0  0  0  0  0  0  0
  -24.9166  -25.3941   24.3223 N   0  0  0  0  0  0  0  0  0  0  0  0
  -29.9106  -19.1271   21.6491 N   0  0  0  0  0  0  0  0  0  0  0  0
  -31.6005  -14.2124   20.5425 N   0  0  0  0  0  0  0  0  0  0  0  0
  -28.3839  -11.1809   19.6155 N   0  0  0  0  0  0  0  0  0  0  0  0
  -27.6273  -23.7394   26.1140 N   0  0  0  0  0  0  0  0  0  0  0  0
  -21.6431  -26.1570   23.9218 N   0  0  0  0  0  0  0  0  0  0  0  0
  -20.9476  -29.5302   22.8236 N   0  3  0  0  0  0  0  0  0  0  0  0
  -28.4339  -22.9977   19.9741 O   0  0  0  0  0  0  0  0  0  0  0  0
  -30.6479  -11.5448   19.6406 O   0  0  0  0  0  0  0  0  0  0  0  0
  -26.1309  -23.1471   24.4310 O   0  0  0  0  0  0  0  0  0  0  0  0
  -29.7794  -20.1332   19.5583 O   0  0  0  0  0  0  0  0  0  0  0  0
  -23.3181  -25.1059   25.9950 O   0  0  0  0  0  0  0  0  0  0  0  0
  -22.1238  -27.1533   21.8837 O   0  0  0  0  0  0  0  0  0  0  0  0
  -22.8928  -11.9258   20.1883 O   0  0  0  0  0  0  0  0  0  0  0  0
  -28.5019  -26.8582   19.5207 O   0  0  0  0  0  0  0  0  0  1  0  0
  -19.4029  -12.7801   24.3709 F   0  0  0  0  0  0  0  0  0  0  0  0
  -22.2241  -14.4899   20.9764 F   0  0  0  0  0  0  0  0  0  0  0  0
  1  2  1  0  0  0  0
  1  5  2  0  0  0  0
  2  6  2  0  0  0  0
  3  8  2  0  0  0  0
  3 15  1  0  0  0  0
  4  9  1  0  0  0  0
  4 15  2  0  0  0  0
  5 17  1  0  0  0  0
  6 19  1  0  0  0  0
  7 10  2  0  0  0  0
  7 18  1  0  0  0  0
  8 21  1  0  0  0  0
  9 21  2  0  0  0  0
 10 22  1  0  0  0  0
 11 12  2  0  0  0  0
 11 23  1  0  0  0  0
 12 24  1  0  0  0  0
 13 20  1  0  0  0  0
 13 22  2  0  0  0  0
 14 24  2  0  0  0  0
 14 25  1  0  0  0  0
 15 26  1  0  0  0  0
 16 26  1  0  0  0  0
 16 27  2  0  0  0  0
 16 30  1  0  0  0  0
 17 19  2  0  0  0  0
 17 35  1  0  0  0  0
 18 20  2  0  0  0  0
 18 36  1  0  0  0  0
 19 44  1  0  0  0  0
 20 37  1  0  0  0  0
 21 77  1  0  0  0  0
 22 78  1  0  0  0  0
 23 25  2  0  0  0  0
 23 77  1  0  0  0  0
 24 79  1  0  0  0  0
 25 80  1  0  0  0  0
 26 59  2  0  0  0  0
 27 61  1  0  0  0  0
 27 66  1  0  0  0  0
 28 60  2  0  0  0  0
 28 62  1  0  0  0  0
 29 62  1  0  0  0  0
 29 63  1  0  0  0  0
 29 71  2  0  0  0  0
 30 67  1  0  0  0  0
 30 72  2  0  0  0  0
 31 45  1  0  0  0  0
 31 68  1  0  0  0  0
 31 73  2  0  0  0  0
 32 52  1  0  0  0  0
 32 65  1  0  0  0  0
 32 74  2  0  0  0  0
 33 56  1  0  0  0  0
 33 64  1  0  0  0  0
 33 75  2  0  0  0  0
 34 57  1  0  0  0  0
 34 69  1  0  0  0  0
 34 76  2  0  0  0  0
 35 38  1  0  0  0  0
 36 45  1  0  0  0  0
 37 64  1  0  0  0  0
 38 40  1  0  0  0  0
 39 41  1  0  0  0  0
 39 42  1  0  0  0  0
 40 44  1  0  0  0  0
 41 46  1  0  0  0  0
 42 65  1  0  0  0  0
 43 46  1  0  0  0  0
 43 65  1  0  0  0  0
 44 68  1  0  0  0  0
 45 64  1  0  0  0  0
 46 61  1  0  0  0  0
 47 57  1  0  0  0  0
 48 58  1  0  0  0  0
 49 58  1  0  0  0  0
 50 58  1  0  0  0  0
 51 70  1  0  0  0  0
 52 62  1  0  0  0  0
 53 54  1  0  0  0  0
 53 55  1  0  0  0  0
 54 63  1  0  0  0  0
 55 78  1  0  0  0  0
 56 58  1  0  0  0  0
 56 69  1  0  0  0  0
 57 70  1  0  0  0  0
 59 61  1  0  0  0  0
 60 63  1  0  0  0  0
M  CHG  1  70   1
M  ISO  4  32 100  52 100  55 101  78 101
M  END
> <Batch ID>
0055

> <Smiles>
CNC(C)C(=O)NC(C(=O)N1Cc2cc([101O:1][101CH2:1]CCn3ncn([100CH2:0][100C:0](=O)N4CCCC(n5nc(-c6ccc(Oc7ccc(F)cc7F)cc6)c(C(N)=O)c5N)C4)c3=O)ccc2CC1C(=O)NC1CCCc2ccccc21)C(C)(C)C

> <Shape>
0.229

> <Color>
0.073

> <Negative vol penalty>
0.000

$$$$

  -OEChem-04052317433D

 81 89  0     1  0  0  0  0  0999 V2000
  -19.3758  -33.8963   21.3427 C   0  0  0  0  0  0  0  0  0  0  0  0
  -20.6637  -33.5207   20.9741 C   0  0  0  0  0  0  0  0  0  0  0  0
  -25.9205  -14.8582   22.4147 C   0  0  0  0  0  0  0  0  0  0  0  0
  -25.6068  -14.1985   20.1118 C   0  0  0  0  0  0  0  0  0  0  0  0
  -18.7171  -33.2132   22.3641 C   0  0  0  0  0  0  0  0  0  0  0  0
  -21.2940  -32.4624   21.6276 C   0  0  0  0  0  0  0  0  0  0  0  0
  -25.1685  -28.4038   19.1736 C   0  0  0  0  0  0  0  0  0  0  0  0
  -24.9415  -13.9464   22.8093 C   0  0  0  0  0  0  0  0  0  0  0  0
  -24.6278  -13.2866   20.5063 C   0  0  0  0  0  0  0  0  0  0  0  0
  -26.5602  -28.3223   19.1650 C   0  0  0  0  0  0  0  0  0  0  0  0
  -22.3009  -10.5279   20.9457 C   0  0  0  0  0  0  0  0  0  0  0  0
  -22.3426   -9.2494   20.3896 C   0  0  0  0  0  0  0  0  0  0  0  0
  -26.4782  -26.8271   21.0563 C   0  0  0  0  0  0  0  0  0  0  0  0
  -24.5485   -8.9176   21.3175 C   0  0  0  0  0  0  0  0  0  0  0  0
  -28.1786  -24.7127   17.6344 C   0  0  0  0  0  0  0  0  0  0  0  0
  -29.1526  -22.7845   17.1984 C   0  0  0  0  0  0  0  0  0  0  0  0
  -26.2532  -14.9843   21.0659 C   0  0  0  0  0  0  0  0  0  0  0  0
  -28.6466  -15.6907   20.5366 C   0  0  0  0  0  0  0  0  0  0  0  0
  -19.3360  -32.1398   23.0239 C   0  0  0  0  0  0  0  0  0  0  0  0
  -24.4204  -27.7051   20.1320 C   0  0  0  0  0  0  0  0  0  0  0  0
  -20.6434  -31.7652   22.6598 C   0  0  0  0  0  0  0  0  0  0  0  0
  -25.0769  -26.8994   21.0733 C   0  0  0  0  0  0  0  0  0  0  0  0
  -24.2952  -13.1606   21.8551 C   0  0  0  0  0  0  0  0  0  0  0  0
  -27.2155  -27.5361   20.1083 C   0  0  0  0  0  0  0  0  0  0  0  0
  -23.3831  -11.0013   21.6877 C   0  0  0  0  0  0  0  0  0  0  0  0
  -23.4663   -8.4442   20.5755 C   0  0  0  0  0  0  0  0  0  0  0  0
  -24.5069  -10.1961   21.8736 C   0  0  0  0  0  0  0  0  0  0  0  0
  -27.2640  -15.9264   20.6576 C   0  0  0  0  0  0  0  0  0  0  0  0
  -29.5340  -24.7721   17.8577 C   0  0  0  0  0  0  0  0  0  0  0  0
  -29.1648  -16.8928   20.1208 C   0  0  0  0  0  0  0  0  0  0  0  0
  -29.3955  -14.4922   20.7784 C   0  0  0  0  0  0  0  0  0  0  0  0
  -22.4299  -28.5366   22.4666 C   0  0  0  0  0  0  0  0  0  0  0  0
  -21.9964  -25.3311   22.7100 C   0  0  0  0  0  0  0  0  0  0  0  0
  -26.6676  -21.3905   17.1527 C   0  0  0  0  0  0  0  0  0  0  0  0
  -23.2230  -22.1924   22.1708 C   0  0  0  0  0  0  0  0  0  0  0  0
  -18.6023  -31.4621   24.1540 C   0  0  0  0  0  0  0  0  0  0  0  0
  -22.9184  -27.7824   20.1111 C   0  0  0  0  0  0  0  0  0  0  0  0
  -24.3189  -26.1134   22.1106 C   0  0  0  0  0  0  0  0  0  0  0  0
  -19.1965  -30.1107   24.5424 C   0  0  0  0  0  0  0  0  0  0  0  0
  -28.3796  -21.5994   20.3546 C   0  0  0  0  0  0  0  0  0  0  0  0
  -20.7137  -30.2102   24.6656 C   0  0  0  0  0  0  0  0  0  0  0  0
  -28.3849  -20.1360   20.7944 C   0  0  0  0  0  0  0  0  0  0  0  0
  -27.1045  -21.9520   19.5931 C   0  0  0  0  0  0  0  0  0  0  0  0
  -26.8457  -19.6041   18.8552 C   0  0  0  0  0  0  0  0  0  0  0  0
  -21.3509  -30.6064   23.3282 C   0  0  1  0  0  0  0  0  0  0  0  0
  -22.2835  -27.4359   21.4543 C   0  0  1  0  0  0  0  0  0  0  0  0
  -28.1288  -19.1999   19.6004 C   0  0  2  0  0  0  0  0  0  0  0  0
  -23.2444  -19.6847   22.0793 C   0  0  0  0  0  0  0  0  0  0  0  0
  -26.4203  -23.0645   15.3474 C   0  0  0  0  0  0  0  0  0  0  0  0
  -25.4711  -23.4532   17.6218 C   0  0  0  0  0  0  0  0  0  0  0  0
  -22.6749  -25.5904   25.6735 C   0  0  0  0  0  0  0  0  0  0  0  0
  -23.0259  -23.1124   25.7385 C   0  0  0  0  0  0  0  0  0  0  0  0
  -20.7804  -24.0377   25.1690 C   0  0  0  0  0  0  0  0  0  0  0  0
  -22.1134  -22.1674   19.4273 C   0  0  0  0  0  0  0  0  0  0  0  0
  -30.3504  -25.9463   18.3355 C   0  0  0  0  0  0  0  0  0  0  0  0
  -30.4843  -26.0246   19.8579 C   0  0  0  0  0  0  0  0  0  0  0  0
  -29.1541  -26.2385   20.5707 C   0  0  0  0  0  0  0  0  0  1  0  0
  -22.6587  -24.2186   23.4863 C   0  0  1  0  0  0  0  0  0  0  0  0
  -22.5912  -20.9554   21.5584 C   0  0  2  0  0  0  0  0  0  0  0  0
  -26.6715  -22.8684   16.8532 C   0  0  0  0  0  0  0  0  0  0  0  0
  -22.2996  -24.2560   24.9986 C   0  0  0  0  0  0  0  0  0  0  0  0
  -30.1345  -23.5687   17.5842 N   0  0  0  0  0  0  0  0  0  0  0  0
  -26.9253  -17.1798   20.3442 N   0  0  0  0  0  0  0  0  0  0  0  0
  -27.9493  -23.4336   17.2120 N   0  0  0  0  0  0  0  0  0  0  0  0
  -28.1025  -17.7425   20.0222 N   0  0  0  0  0  0  0  0  0  0  0  0
  -22.8521  -26.2266   22.0531 N   0  0  0  0  0  0  0  0  0  0  0  0
  -26.8818  -21.0207   18.4807 N   0  0  0  0  0  0  0  0  0  0  0  0
  -30.4209  -17.2953   19.8337 N   0  0  0  0  0  0  0  0  0  0  0  0
  -28.7062  -13.3474   21.2010 N   0  0  0  0  0  0  0  0  0  0  0  0
  -21.4083  -29.4665   22.4384 N   0  0  0  0  0  0  0  0  0  0  0  0
  -22.2899  -22.9768   22.8152 N   0  0  0  0  0  0  0  0  0  0  0  0
  -22.7321  -20.9822   20.0750 N   0  3  0  0  0  0  0  0  0  0  0  0
  -30.6413  -14.4426   20.6401 O   0  0  0  0  0  0  0  0  0  0  0  0
  -23.3974  -28.5409   23.2187 O   0  0  0  0  0  0  0  0  0  0  0  0
  -20.7650  -25.3987   22.6814 O   0  0  0  0  0  0  0  0  0  0  0  0
  -26.4823  -20.5902   16.2321 O   0  0  0  0  0  0  0  0  0  0  0  0
  -24.4249  -22.4363   22.0893 O   0  0  0  0  0  0  0  0  0  0  0  0
  -23.3400  -12.2705   22.2398 O   0  0  0  0  0  0  0  0  0  0  0  0
  -28.5739  -27.4553   20.1026 O   0  0  0  0  0  0  0  0  0  1  0  0
  -23.5055   -7.2159   20.0427 F   0  0  0  0  0  0  0  0  0  0  0  0
  -25.5491  -10.6450   22.5864 F   0  0  0  0  0  0  0  0  0  0  0  0
  1  2  1  0  0  0  0
  1  5  2  0  0  0  0
  2  6  2  0  0  0  0
  3  8  2  0  0  0  0
  3 17  1  0  0  0  0
  4  9  1  0  0  0  0
  4 17  2  0  0  0  0
  5 19  1  0  0  0  0
  6 21  1  0  0  0  0
  7 10  2  0  0  0  0
  7 20  1  0  0  0  0
  8 23  1  0  0  0  0
  9 23  2  0  0  0  0
 10 24  1  0  0  0  0
 11 12  2  0  0  0  0
 11 25  1  0  0  0  0
 12 26  1  0  0  0  0
 13 22  1  0  0  0  0
 13 24  2  0  0  0  0
 14 26  2  0  0  0  0
 14 27  1  0  0  0  0
 15 29  2  0  0  0  0
 15 64  1  0  0  0  0
 16 62  2  0  0  0  0
 16 64  1  0  0  0  0
 17 28  1  0  0  0  0
 18 28  1  0  0  0  0
 18 30  2  0  0  0  0
 18 31  1  0  0  0  0
 19 21  2  0  0  0  0
 19 36  1  0  0  0  0
 20 22  2  0  0  0  0
 20 37  1  0  0  0  0
 21 45  1  0  0  0  0
 22 38  1  0  0  0  0
 23 78  1  0  0  0  0
 24 79  1  0  0  0  0
 25 27  2  0  0  0  0
 25 78  1  0  0  0  0
 26 80  1  0  0  0  0
 27 81  1  0  0  0  0
 28 63  2  0  0  0  0
 29 55  1  0  0  0  0
 29 62  1  0  0  0  0
 30 65  1  0  0  0  0
 30 68  1  0  0  0  0
 31 69  1  0  0  0  0
 31 73  2  0  0  0  0
 32 46  1  0  0  0  0
 32 70  1  0  0  0  0
 32 74  2  0  0  0  0
 33 58  1  0  0  0  0
 33 66  1  0  0  0  0
 33 75  2  0  0  0  0
 34 60  1  0  0  0  0
 34 67  1  0  0  0  0
 34 76  2  0  0  0  0
 35 59  1  0  0  0  0
 35 71  1  0  0  0  0
 35 77  2  0  0  0  0
 36 39  1  0  0  0  0
 37 46  1  0  0  0  0
 38 66  1  0  0  0  0
 39 41  1  0  0  0  0
 40 42  1  0  0  0  0
 40 43  1  0  0  0  0
 41 45  1  0  0  0  0
 42 47  1  0  0  0  0
 43 67  1  0  0  0  0
 44 47  1  0  0  0  0
 44 67  1  0  0  0  0
 45 70  1  0  0  0  0
 46 66  1  0  0  0  0
 47 65  1  0  0  0  0
 48 59  1  0  0  0  0
 49 60  1  0  0  0  0
 50 60  1  0  0  0  0
 51 61  1  0  0  0  0
 52 61  1  0  0  0  0
 53 61  1  0  0  0  0
 54 72  1  0  0  0  0
 55 56  1  0  0  0  0
 56 57  1  0  0  0  0
 57 79  1  0  0  0  0
 58 61  1  0  0  0  0
 58 71  1  0  0  0  0
 59 72  1  0  0  0  0
 60 64  1  0  0  0  0
 63 65  1  0  0  0  0
M  CHG  1  72   1
M  ISO  4  34 100  57 101  60 100  79 101
M  END
> <Batch ID>
0055

> <Smiles>
CNC(C)C(=O)NC(C(=O)N1Cc2cc([101O:1][101CH2:1]CCc3cn([100C:0](C)(C)[100C:0](=O)N4CCCC(n5nc(-c6ccc(Oc7ccc(F)cc7F)cc6)c(C(N)=O)c5N)C4)cn3)ccc2CC1C(=O)NC1CCCc2ccccc21)C(C)(C)C

> <Shape>
0.237

> <Color>
0.098

> <Negative vol penalty>
0.000

$$$$

  -OEChem-04052317433D

 88 96  0     1  0  0  0  0  0999 V2000
  -28.1603  -18.2258   17.8806 C   0  0  0  0  0  0  0  0  0  0  0  0
  -27.7022  -18.5877   19.1434 C   0  0  0  0  0  0  0  0  0  0  0  0
  -28.2155  -14.4287   19.1409 C   0  0  0  0  0  0  0  0  0  0  0  0
  -28.4682  -14.4289   21.5437 C   0  0  0  0  0  0  0  0  0  0  0  0
  -28.8108  -19.1645   17.0808 C   0  0  0  0  0  0  0  0  0  0  0  0
  -27.8953  -19.8883   19.6076 C   0  0  0  0  0  0  0  0  0  0  0  0
  -23.7503  -21.8056   21.7956 C   0  0  0  0  0  0  0  0  0  0  0  0
  -29.5931  -14.5924   18.9960 C   0  0  0  0  0  0  0  0  0  0  0  0
  -29.8459  -14.5926   21.3987 C   0  0  0  0  0  0  0  0  0  0  0  0
  -23.4673  -21.3911   23.0963 C   0  0  0  0  0  0  0  0  0  0  0  0
  -33.0022  -15.3712   17.9986 C   0  0  0  0  0  0  0  0  0  0  0  0
  -33.4511  -16.3133   17.0731 C   0  0  0  0  0  0  0  0  0  0  0  0
  -24.4145  -23.4393   23.9487 C   0  0  0  0  0  0  0  0  0  0  0  0
  -32.2890  -18.0535   18.2808 C   0  0  0  0  0  0  0  0  0  0  0  0
  -19.6440  -19.7420   26.5639 C   0  0  0  0  0  0  0  0  0  0  0  0
  -27.6530  -14.3470   20.4148 C   0  0  0  0  0  0  0  0  0  0  0  0
  -25.5210  -12.9645   20.6401 C   0  0  0  0  0  0  0  0  0  0  0  0
  -29.0034  -20.4800   17.5316 C   0  0  0  0  0  0  0  0  0  0  0  0
  -24.3785  -23.0374   21.5619 C   0  0  0  0  0  0  0  0  0  0  0  0
  -28.5502  -20.8451   18.8137 C   0  0  0  0  0  0  0  0  0  0  0  0
  -24.7021  -23.8683   22.6440 C   0  0  0  0  0  0  0  0  0  0  0  0
  -30.4083  -14.6744   20.1248 C   0  0  0  0  0  0  0  0  0  0  0  0
  -23.8020  -22.2067   24.1733 C   0  0  0  0  0  0  0  0  0  0  0  0
  -32.1967  -15.7703   19.0653 C   0  0  0  0  0  0  0  0  0  0  0  0
  -33.0945  -17.6544   17.2141 C   0  0  0  0  0  0  0  0  0  0  0  0
  -31.8402  -17.1114   19.2063 C   0  0  0  0  0  0  0  0  0  0  0  0
  -26.2300  -14.1784   20.5652 C   0  0  0  0  0  0  0  0  0  0  0  0
  -18.5697  -19.0095   26.0242 C   0  0  0  0  0  0  0  0  0  0  0  0
  -20.6148  -18.8007   26.8045 C   0  0  0  0  0  0  0  0  0  0  0  0
  -24.2077  -13.3420   20.7790 C   0  0  0  0  0  0  0  0  0  0  0  0
  -26.0061  -11.6163   20.5887 C   0  0  0  0  0  0  0  0  0  0  0  0
  -27.1302  -23.9389   20.2507 C   0  0  0  0  0  0  0  0  0  0  0  0
  -25.9058  -26.9137   20.6678 C   0  0  0  0  0  0  0  0  0  0  0  0
  -23.7524  -28.9492   22.3608 C   0  0  0  0  0  0  0  0  0  0  0  0
  -20.2568  -16.4897   22.9450 C   0  0  0  0  0  0  0  0  0  0  0  0
  -29.7540  -21.4467   16.6504 C   0  0  0  0  0  0  0  0  0  0  0  0
  -24.6528  -23.4819   20.1514 C   0  0  0  0  0  0  0  0  0  0  0  0
  -25.3593  -25.2089   22.4456 C   0  0  0  0  0  0  0  0  0  0  0  0
  -29.5865  -22.9060   17.0661 C   0  0  0  0  0  0  0  0  0  0  0  0
  -21.9959  -17.8528   20.2722 C   0  0  0  0  0  0  0  0  0  0  0  0
  -29.7735  -23.0567   18.5725 C   0  0  0  0  0  0  0  0  0  0  0  0
  -23.2009  -16.9278   20.1078 C   0  0  0  0  0  0  0  0  0  0  0  0
  -21.6997  -18.1042   21.7459 C   0  0  0  0  0  0  0  0  0  0  0  0
  -22.6648  -15.9163   22.3807 C   0  0  0  0  0  0  0  0  0  0  0  0
  -28.7188  -22.2530   19.3426 C   0  0  1  0  0  0  0  0  0  0  0  0
  -25.7607  -24.5266   20.0590 C   0  0  1  0  0  0  0  0  0  0  0  0
  -23.0095  -15.6260   20.9055 C   0  0  2  0  0  0  0  0  0  0  0  0
  -23.0028  -31.3398   22.5039 C   0  0  0  0  0  0  0  0  0  0  0  0
  -17.8526  -15.0059   24.2024 C   0  0  0  0  0  0  0  0  0  0  0  0
  -19.6300  -13.4851   23.2798 C   0  0  0  0  0  0  0  0  0  0  0  0
  -17.4048  -20.5842   24.4401 C   0  0  0  0  0  0  0  0  0  0  0  0
  -16.4881  -20.2247   26.7567 C   0  0  0  0  0  0  0  0  0  0  0  0
  -16.2527  -18.4592   25.0221 C   0  0  0  0  0  0  0  0  0  0  0  0
  -28.4775  -27.6291   22.1456 C   0  0  0  0  0  0  0  0  0  0  0  0
  -27.3075  -29.6432   23.0635 C   0  0  0  0  0  0  0  0  0  0  0  0
  -27.6328  -29.4059   20.6016 C   0  0  0  0  0  0  0  0  0  0  0  0
  -20.9684  -28.2402   21.6497 C   0  0  0  0  0  0  0  0  0  0  0  0
  -22.0034  -18.9339   27.3771 C   0  0  0  0  0  0  0  0  0  0  0  0
  -22.6626  -20.2839   27.0862 C   0  0  0  0  0  0  0  0  0  0  0  0
  -20.7223  -16.3135   26.4627 C   0  0  0  0  0  0  0  0  0  0  0  0
  -21.2553  -15.8549   25.1078 C   0  0  0  0  0  0  0  0  0  0  0  0
  -22.8951  -20.5346   25.6007 C   0  0  0  0  0  0  0  0  0  1  0  0
  -25.9412  -27.9387   21.7754 C   0  0  1  0  0  0  0  0  0  0  0  0
  -22.7477  -29.9786   21.8757 C   0  0  2  0  0  0  0  0  0  0  0  0
  -19.3099  -14.5719   24.2980 C   0  0  0  0  0  0  0  0  0  0  0  0
  -17.2617  -19.5256   25.5868 C   0  0  0  0  0  0  0  0  0  0  0  0
  -27.3291  -28.6282   21.9007 C   0  0  0  0  0  0  0  0  0  0  0  0
  -25.4332  -15.2470   20.6494 N   0  0  0  0  0  0  0  0  0  0  0  0
  -18.8331  -17.7037   25.9273 N   0  0  0  0  0  0  0  0  0  0  0  0
  -20.0839  -17.6081   26.4094 N   0  0  0  0  0  0  0  0  0  0  0  0
  -24.2098  -14.7059   20.7786 N   0  0  0  0  0  0  0  0  0  0  0  0
  -25.6128  -25.5963   21.0480 N   0  0  0  0  0  0  0  0  0  0  0  0
  -21.5290  -16.8465   22.4738 N   0  0  0  0  0  0  0  0  0  0  0  0
  -23.0628  -12.6370   20.9002 N   0  0  0  0  0  0  0  0  0  0  0  0
  -27.3843  -11.4072   20.4430 N   0  0  0  0  0  0  0  0  0  0  0  0
  -27.4507  -22.9503   19.3399 N   0  0  0  0  0  0  0  0  0  0  0  0
  -24.8385  -28.8581   21.5162 N   0  0  0  0  0  0  0  0  0  0  0  0
  -20.1993  -15.7174   24.1150 N   0  0  0  0  0  0  0  0  0  0  0  0
  -21.3620  -29.5533   22.2223 N   0  3  0  0  0  0  0  0  0  0  0  0
  -25.2384  -10.6264   20.6532 O   0  0  0  0  0  0  0  0  0  0  0  0
  -27.8438  -24.3527   21.1569 O   0  0  0  0  0  0  0  0  0  0  0  0
  -26.1227  -27.2700   19.5069 O   0  0  0  0  0  0  0  0  0  0  0  0
  -23.5918  -28.2943   23.3883 O   0  0  0  0  0  0  0  0  0  0  0  0
  -19.2275  -16.8473   22.3578 O   0  0  0  0  0  0  0  0  0  0  0  0
  -31.7526  -14.8339   19.9838 O   0  0  0  0  0  0  0  0  0  0  0  0
  -23.5274  -21.8042   25.4439 O   0  0  0  0  0  0  0  0  0  1  0  0
  -33.5269  -18.5592   16.3261 F   0  0  0  0  0  0  0  0  0  0  0  0
  -31.0676  -17.5009   20.2296 F   0  0  0  0  0  0  0  0  0  0  0  0
  1  2  1  0  0  0  0
  1  5  2  0  0  0  0
  2  6  2  0  0  0  0
  3  8  2  0  0  0  0
  3 16  1  0  0  0  0
  4  9  1  0  0  0  0
  4 16  2  0  0  0  0
  5 18  1  0  0  0  0
  6 20  1  0  0  0  0
  7 10  2  0  0  0  0
  7 19  1  0  0  0  0
  8 22  1  0  0  0  0
  9 22  2  0  0  0  0
 10 23  1  0  0  0  0
 11 12  2  0  0  0  0
 11 24  1  0  0  0  0
 12 25  1  0  0  0  0
 13 21  1  0  0  0  0
 13 23  2  0  0  0  0
 14 25  2  0  0  0  0
 14 26  1  0  0  0  0
 15 28  1  0  0  0  0
 15 29  2  0  0  0  0
 16 27  1  0  0  0  0
 17 27  1  0  0  0  0
 17 30  2  0  0  0  0
 17 31  1  0  0  0  0
 18 20  2  0  0  0  0
 18 36  1  0  0  0  0
 19 21  2  0  0  0  0
 19 37  1  0  0  0  0
 20 45  1  0  0  0  0
 21 38  1  0  0  0  0
 22 85  1  0  0  0  0
 23 86  1  0  0  0  0
 24 26  2  0  0  0  0
 24 85  1  0  0  0  0
 25 87  1  0  0  0  0
 26 88  1  0  0  0  0
 27 68  2  0  0  0  0
 28 66  1  0  0  0  0
 28 69  2  0  0  0  0
 29 58  1  0  0  0  0
 29 70  1  0  0  0  0
 30 71  1  0  0  0  0
 30 74  1  0  0  0  0
 31 75  1  0  0  0  0
 31 80  2  0  0  0  0
 32 46  1  0  0  0  0
 32 76  1  0  0  0  0
 32 81  2  0  0  0  0
 33 63  1  0  0  0  0
 33 72  1  0  0  0  0
 33 82  2  0  0  0  0
 34 64  1  0  0  0  0
 34 77  1  0  0  0  0
 34 83  2  0  0  0  0
 35 73  1  0  0  0  0
 35 78  1  0  0  0  0
 35 84  2  0  0  0  0
 36 39  1  0  0  0  0
 37 46  1  0  0  0  0
 38 72  1  0  0  0  0
 39 41  1  0  0  0  0
 40 42  1  0  0  0  0
 40 43  1  0  0  0  0
 41 45  1  0  0  0  0
 42 47  1  0  0  0  0
 43 73  1  0  0  0  0
 44 47  1  0  0  0  0
 44 73  1  0  0  0  0
 45 76  1  0  0  0  0
 46 72  1  0  0  0  0
 47 71  1  0  0  0  0
 48 64  1  0  0  0  0
 49 65  1  0  0  0  0
 50 65  1  0  0  0  0
 51 66  1  0  0  0  0
 52 66  1  0  0  0  0
 53 66  1  0  0  0  0
 54 67  1  0  0  0  0
 55 67  1  0  0  0  0
 56 67  1  0  0  0  0
 57 79  1  0  0  0  0
 58 59  1  0  0  0  0
 59 62  1  0  0  0  0
 60 61  1  0  0  0  0
 60 70  1  0  0  0  0
 61 78  1  0  0  0  0
 62 86  1  0  0  0  0
 63 67  1  0  0  0  0
 63 77  1  0  0  0  0
 64 79  1  0  0  0  0
 65 78  1  0  0  0  0
 68 71  1  0  0  0  0
 69 70  1  0  0  0  0
M  CHG  1  79   1
M  ISO  4  35 100  62 101  78 100  86 101
M  END
> <Batch ID>
0055

> <Smiles>
CNC(C)C(=O)NC(C(=O)N1Cc2cc([101O:1][101CH2:1]CCc3cc(C(C)(C)C)nn3CC[100N:0](C(C)C)[100C:0](=O)N3CCCC(n4nc(-c5ccc(Oc6ccc(F)cc6F)cc5)c(C(N)=O)c4N)C3)ccc2CC1C(=O)NC1CCCc2ccccc21)C(C)(C)C

> <Shape>
0.178

> <Color>
0.078

> <Negative vol penalty>
0.000

$$$$

  -OEChem-04052317433D

 81 89  0     1  0  0  0  0  0999 V2000
  -30.0337   -5.8650   24.7653 C   0  0  0  0  0  0  0  0  0  0  0  0
  -29.7846   -7.2336   24.7492 C   0  0  0  0  0  0  0  0  0  0  0  0
  -23.2850   -9.7991   19.9117 C   0  0  0  0  0  0  0  0  0  0  0  0
  -23.7270   -9.9411   22.2827 C   0  0  0  0  0  0  0  0  0  0  0  0
  -28.9698   -4.9639   24.7648 C   0  0  0  0  0  0  0  0  0  0  0  0
  -28.4713   -7.7019   24.7315 C   0  0  0  0  0  0  0  0  0  0  0  0
  -27.7256  -11.5175   27.9766 C   0  0  0  0  0  0  0  0  0  0  0  0
  -22.5549   -8.6287   20.1178 C   0  0  0  0  0  0  0  0  0  0  0  0
  -22.9969   -8.7706   22.4889 C   0  0  0  0  0  0  0  0  0  0  0  0
  -28.1733  -12.7797   27.5890 C   0  0  0  0  0  0  0  0  0  0  0  0
  -23.1982   -5.3532   20.6490 C   0  0  0  0  0  0  0  0  0  0  0  0
  -23.4274   -4.2860   19.7807 C   0  0  0  0  0  0  0  0  0  0  0  0
  -25.9248  -13.3739   26.9486 C   0  0  0  0  0  0  0  0  0  0  0  0
  -21.1080   -4.3369   19.1061 C   0  0  0  0  0  0  0  0  0  0  0  0
  -29.0201  -14.2460   23.8072 C   0  0  0  0  0  0  0  0  0  0  0  0
  -31.0253  -15.0907   23.4580 C   0  0  0  0  0  0  0  0  0  0  0  0
  -23.8711  -10.4553   20.9941 C   0  0  0  0  0  0  0  0  0  0  0  0
  -24.1376  -12.9845   20.7939 C   0  0  0  0  0  0  0  0  0  0  0  0
  -27.6427   -5.4215   24.7569 C   0  0  0  0  0  0  0  0  0  0  0  0
  -26.3738  -11.1696   27.8427 C   0  0  0  0  0  0  0  0  0  0  0  0
  -27.3886   -6.8061   24.7296 C   0  0  0  0  0  0  0  0  0  0  0  0
  -25.4620  -12.1075   27.3376 C   0  0  0  0  0  0  0  0  0  0  0  0
  -22.4108   -8.1144   21.4064 C   0  0  0  0  0  0  0  0  0  0  0  0
  -27.2734  -13.7071   27.0723 C   0  0  0  0  0  0  0  0  0  0  0  0
  -21.9240   -5.9123   20.7460 C   0  0  0  0  0  0  0  0  0  0  0  0
  -22.3823   -3.7778   19.0092 C   0  0  0  0  0  0  0  0  0  0  0  0
  -20.8789   -5.4042   19.9745 C   0  0  0  0  0  0  0  0  0  0  0  0
  -24.6259  -11.6642   20.7817 C   0  0  0  0  0  0  0  0  0  0  0  0
  -29.0811  -15.5677   24.1810 C   0  0  0  0  0  0  0  0  0  0  0  0
  -25.2420  -13.7614   20.5424 C   0  0  0  0  0  0  0  0  0  0  0  0
  -22.8049  -13.4657   21.0132 C   0  0  0  0  0  0  0  0  0  0  0  0
  -24.7765   -8.9671   26.1992 C   0  0  0  0  0  0  0  0  0  0  0  0
  -31.1111  -12.7852   21.3863 C   0  0  0  0  0  0  0  0  0  0  0  0
  -22.2472  -10.1077   27.8798 C   0  0  0  0  0  0  0  0  0  0  0  0
  -20.8487  -12.6945   29.6116 C   0  0  0  0  0  0  0  0  0  0  0  0
  -26.5260   -4.4090   24.7091 C   0  0  0  0  0  0  0  0  0  0  0  0
  -25.9021   -9.8133   28.2903 C   0  0  0  0  0  0  0  0  0  0  0  0
  -23.9968  -11.7905   27.1925 C   0  0  0  0  0  0  0  0  0  0  0  0
  -25.1609   -4.9903   25.0685 C   0  0  0  0  0  0  0  0  0  0  0  0
  -29.4713  -13.6646   18.3240 C   0  0  0  0  0  0  0  0  0  0  0  0
  -24.9311   -6.3069   24.3333 C   0  0  0  0  0  0  0  0  0  0  0  0
  -28.0025  -13.3445   18.5985 C   0  0  0  0  0  0  0  0  0  0  0  0
  -30.3985  -12.6739   19.0211 C   0  0  0  0  0  0  0  0  0  0  0  0
  -28.7033  -12.2423   20.7708 C   0  0  0  0  0  0  0  0  0  0  0  0
  -25.9777   -7.3532   24.7352 C   0  0  1  0  0  0  0  0  0  0  0  0
  -24.5943   -9.3877   27.6301 C   0  0  1  0  0  0  0  0  0  0  0  0
  -27.7332  -13.2376   20.1099 C   0  0  2  0  0  0  0  0  0  0  0  0
  -31.8816  -12.1057   23.6490 C   0  0  0  0  0  0  0  0  0  0  0  0
  -18.7557  -13.3429   30.8347 C   0  0  0  0  0  0  0  0  0  0  0  0
  -27.1207  -17.1835   23.7063 C   0  0  0  0  0  0  0  0  0  0  0  0
  -28.5923  -17.5259   25.6798 C   0  0  0  0  0  0  0  0  0  0  0  0
  -20.8167  -10.5079   25.2146 C   0  0  0  0  0  0  0  0  0  0  0  0
  -19.1843  -11.9957   26.3937 C   0  0  0  0  0  0  0  0  0  0  0  0
  -19.3770   -9.5953   27.0446 C   0  0  0  0  0  0  0  0  0  0  0  0
  -22.3148  -13.0795   32.1535 C   0  0  0  0  0  0  0  0  0  0  0  0
  -27.0003  -15.5790   25.6310 C   0  0  0  0  0  0  0  0  0  1  0  0
  -30.7221  -12.6809   22.8395 C   0  0  1  0  0  0  0  0  0  0  0  0
  -21.2280  -11.2009   27.6675 C   0  0  1  0  0  0  0  0  0  0  0  0
  -20.1480  -12.7436   30.9573 C   0  0  2  0  0  0  0  0  0  0  0  0
  -27.9613  -16.4432   24.7743 C   0  0  0  0  0  0  0  0  0  0  0  0
  -20.1794  -10.8306   26.5809 C   0  0  0  0  0  0  0  0  0  0  0  0
  -30.3319  -16.0878   23.9608 N   0  0  0  0  0  0  0  0  0  0  0  0
  -25.9383  -11.6020   20.5413 N   0  0  0  0  0  0  0  0  0  0  0  0
  -30.2728  -13.9547   23.3457 N   0  0  0  0  0  0  0  0  0  0  0  0
  -26.2840  -12.8930   20.4000 N   0  0  0  0  0  0  0  0  0  0  0  0
  -23.5855  -10.4490   27.6381 N   0  0  0  0  0  0  0  0  0  0  0  0
  -30.0960  -12.5845   20.4507 N   0  0  0  0  0  0  0  0  0  0  0  0
  -25.4137  -15.0957   20.4313 N   0  0  0  0  0  0  0  0  0  0  0  0
  -21.7890  -12.5315   21.2577 N   0  0  0  0  0  0  0  0  0  0  0  0
  -25.6580   -7.9166   26.0294 N   0  0  0  0  0  0  0  0  0  0  0  0
  -20.6549  -11.4849   28.9787 N   0  0  0  0  0  0  0  0  0  0  0  0
  -20.9317  -13.5687   31.9196 N   0  3  0  0  0  0  0  0  0  0  0  0
  -22.5202  -14.6868   20.9765 O   0  0  0  0  0  0  0  0  0  0  0  0
  -24.1617   -9.5515   25.3148 O   0  0  0  0  0  0  0  0  0  0  0  0
  -32.2821  -13.0406   21.0934 O   0  0  0  0  0  0  0  0  0  0  0  0
  -21.8706   -8.9940   28.2533 O   0  0  0  0  0  0  0  0  0  0  0  0
  -21.4996  -13.6364   29.1647 O   0  0  0  0  0  0  0  0  0  0  0  0
  -21.6983   -6.9724   21.6080 O   0  0  0  0  0  0  0  0  0  0  0  0
  -27.7078  -14.9396   26.6926 O   0  0  0  0  0  0  0  0  0  1  0  0
  -22.6028   -2.7539   18.1742 F   0  0  0  0  0  0  0  0  0  0  0  0
  -19.6528   -5.9379   20.0625 F   0  0  0  0  0  0  0  0  0  0  0  0
  1  2  1  0  0  0  0
  1  5  2  0  0  0  0
  2  6  2  0  0  0  0
  3  8  2  0  0  0  0
  3 17  1  0  0  0  0
  4  9  1  0  0  0  0
  4 17  2  0  0  0  0
  5 19  1  0  0  0  0
  6 21  1  0  0  0  0
  7 10  2  0  0  0  0
  7 20  1  0  0  0  0
  8 23  1  0  0  0  0
  9 23  2  0  0  0  0
 10 24  1  0  0  0  0
 11 12  2  0  0  0  0
 11 25  1  0  0  0  0
 12 26  1  0  0  0  0
 13 22  1  0  0  0  0
 13 24  2  0  0  0  0
 14 26  2  0  0  0  0
 14 27  1  0  0  0  0
 15 29  2  0  0  0  0
 15 64  1  0  0  0  0
 16 62  2  0  0  0  0
 16 64  1  0  0  0  0
 17 28  1  0  0  0  0
 18 28  1  0  0  0  0
 18 30  2  0  0  0  0
 18 31  1  0  0  0  0
 19 21  2  0  0  0  0
 19 36  1  0  0  0  0
 20 22  2  0  0  0  0
 20 37  1  0  0  0  0
 21 45  1  0  0  0  0
 22 38  1  0  0  0  0
 23 78  1  0  0  0  0
 24 79  1  0  0  0  0
 25 27  2  0  0  0  0
 25 78  1  0  0  0  0
 26 80  1  0  0  0  0
 27 81  1  0  0  0  0
 28 63  2  0  0  0  0
 29 60  1  0  0  0  0
 29 62  1  0  0  0  0
 30 65  1  0  0  0  0
 30 68  1  0  0  0  0
 31 69  1  0  0  0  0
 31 73  2  0  0  0  0
 32 46  1  0  0  0  0
 32 70  1  0  0  0  0
 32 74  2  0  0  0  0
 33 57  1  0  0  0  0
 33 67  1  0  0  0  0
 33 75  2  0  0  0  0
 34 58  1  0  0  0  0
 34 66  1  0  0  0  0
 34 76  2  0  0  0  0
 35 59  1  0  0  0  0
 35 71  1  0  0  0  0
 35 77  2  0  0  0  0
 36 39  1  0  0  0  0
 37 46  1  0  0  0  0
 38 66  1  0  0  0  0
 39 41  1  0  0  0  0
 40 42  1  0  0  0  0
 40 43  1  0  0  0  0
 41 45  1  0  0  0  0
 42 47  1  0  0  0  0
 43 67  1  0  0  0  0
 44 47  1  0  0  0  0
 44 67  1  0  0  0  0
 45 70  1  0  0  0  0
 46 66  1  0  0  0  0
 47 65  1  0  0  0  0
 48 57  1  0  0  0  0
 49 59  1  0  0  0  0
 50 60  1  0  0  0  0
 51 60  1  0  0  0  0
 52 61  1  0  0  0  0
 53 61  1  0  0  0  0
 54 61  1  0  0  0  0
 55 72  1  0  0  0  0
 56 60  1  0  0  0  0
 56 79  1  0  0  0  0
 57 64  1  0  0  0  0
 58 61  1  0  0  0  0
 58 71  1  0  0  0  0
 59 72  1  0  0  0  0
 63 65  1  0  0  0  0
M  CHG  1  72   1
M  ISO  4  33 100  56 101  57 100  79 101
M  END
> <Batch ID>
0055

> <Smiles>
CNC(C)C(=O)NC(C(=O)N1Cc2cc([101O:1][101CH2:1]C(C)(C)c3cn([100CH:0](C)[100C:0](=O)N4CCCC(n5nc(-c6ccc(Oc7ccc(F)cc7F)cc6)c(C(N)=O)c5N)C4)cn3)ccc2CC1C(=O)NC1CCCc2ccccc21)C(C)(C)C

> <Shape>
0.127

> <Color>
0.174

> <Negative vol penalty>
0.000

$$$$

  -OEChem-04052317433D

 82 90  0     1  0  0  0  0  0999 V2000
  -24.5524  -37.1778   17.6626 C   0  0  0  0  0  0  0  0  0  0  0  0
  -24.5385  -35.8927   17.1300 C   0  0  0  0  0  0  0  0  0  0  0  0
  -27.7389  -12.4721   18.6619 C   0  0  0  0  0  0  0  0  0  0  0  0
  -28.5318  -13.5918   20.6506 C   0  0  0  0  0  0  0  0  0  0  0  0
  -25.1721  -37.4164   18.8886 C   0  0  0  0  0  0  0  0  0  0  0  0
  -25.1454  -34.8455   17.8227 C   0  0  0  0  0  0  0  0  0  0  0  0
  -24.4832  -27.8120   19.0089 C   0  0  0  0  0  0  0  0  0  0  0  0
  -28.9370  -11.7621   18.5840 C   0  0  0  0  0  0  0  0  0  0  0  0
  -29.7298  -12.8817   20.5727 C   0  0  0  0  0  0  0  0  0  0  0  0
  -25.2282  -26.6350   18.9505 C   0  0  0  0  0  0  0  0  0  0  0  0
  -30.8401   -9.7819   21.3337 C   0  0  0  0  0  0  0  0  0  0  0  0
  -31.3382   -9.2231   22.5107 C   0  0  0  0  0  0  0  0  0  0  0  0
  -26.1995  -27.1504   21.0976 C   0  0  0  0  0  0  0  0  0  0  0  0
  -33.3513  -10.5395   22.2838 C   0  0  0  0  0  0  0  0  0  0  0  0
  -28.3023  -21.6225   23.4173 C   0  0  0  0  0  0  0  0  0  0  0  0
  -29.0469  -22.1065   22.3676 C   0  0  0  0  0  0  0  0  0  0  0  0
  -27.5363  -13.3870   19.6952 C   0  0  0  0  0  0  0  0  0  0  0  0
  -25.1277  -13.7407   20.4574 C   0  0  0  0  0  0  0  0  0  0  0  0
  -25.7785  -36.3699   19.6011 C   0  0  0  0  0  0  0  0  0  0  0  0
  -24.5991  -28.6739   20.1090 C   0  0  0  0  0  0  0  0  0  0  0  0
  -25.7749  -35.0706   19.0586 C   0  0  0  0  0  0  0  0  0  0  0  0
  -25.4530  -28.3364   21.1688 C   0  0  0  0  0  0  0  0  0  0  0  0
  -29.9324  -11.9668   19.5394 C   0  0  0  0  0  0  0  0  0  0  0  0
  -26.0887  -26.3055   19.9936 C   0  0  0  0  0  0  0  0  0  0  0  0
  -31.5977  -10.7195   20.6317 C   0  0  0  0  0  0  0  0  0  0  0  0
  -32.5938   -9.6019   22.9857 C   0  0  0  0  0  0  0  0  0  0  0  0
  -32.8533  -11.0983   21.1068 C   0  0  0  0  0  0  0  0  0  0  0  0
  -26.2992  -14.1213   19.7759 C   0  0  0  0  0  0  0  0  0  0  0  0
  -24.2479  -14.7705   20.2294 C   0  0  0  0  0  0  0  0  0  0  0  0
  -26.9399  -21.8115   21.7930 C   0  0  0  0  0  0  0  0  0  0  0  0
  -24.8588  -12.5617   21.2278 C   0  0  0  0  0  0  0  0  0  0  0  0
  -25.5457  -31.6814   20.5123 C   0  0  0  0  0  0  0  0  0  0  0  0
  -24.5333  -31.1819   23.5534 C   0  0  0  0  0  0  0  0  0  0  0  0
  -23.8608  -28.9600   26.0549 C   0  0  0  0  0  0  0  0  0  0  0  0
  -25.0031  -20.5629   18.9149 C   0  0  0  0  0  0  0  0  0  0  0  0
  -26.4772  -36.6853   20.9000 C   0  0  0  0  0  0  0  0  0  0  0  0
  -23.7685  -29.9264   20.1692 C   0  0  0  0  0  0  0  0  0  0  0  0
  -25.5983  -29.2177   22.3815 C   0  0  0  0  0  0  0  0  0  0  0  0
  -26.7708  -35.4512   21.7490 C   0  0  0  0  0  0  0  0  0  0  0  0
  -23.1961  -18.1544   17.0148 C   0  0  0  0  0  0  0  0  0  0  0  0
  -27.3753  -34.3444   20.8909 C   0  0  0  0  0  0  0  0  0  0  0  0
  -23.6808  -16.8133   17.5685 C   0  0  0  0  0  0  0  0  0  0  0  0
  -24.3207  -19.1866   16.9716 C   0  0  0  0  0  0  0  0  0  0  0  0
  -25.5101  -18.0475   18.8050 C   0  0  0  0  0  0  0  0  0  0  0  0
  -26.4008  -33.9041   19.7918 C   0  0  1  0  0  0  0  0  0  0  0  0
  -24.3509  -30.9854   21.1003 C   0  0  1  0  0  0  0  0  0  0  0  0
  -24.3981  -16.9910   18.9202 C   0  0  2  0  0  0  0  0  0  0  0  0
  -24.4296  -22.0433   21.7130 C   0  0  0  0  0  0  0  0  0  0  0  0
  -23.0837  -28.8532   28.4386 C   0  0  0  0  0  0  0  0  0  0  0  0
  -29.4899  -21.7773   19.2547 C   0  0  0  0  0  0  0  0  0  0  0  0
  -27.2839  -32.1137   24.4892 C   0  0  0  0  0  0  0  0  0  0  0  0
  -26.7886  -31.1028   26.7254 C   0  0  0  0  0  0  0  0  0  0  0  0
  -25.3724  -32.9646   25.8590 C   0  0  0  0  0  0  0  0  0  0  0  0
  -21.4815  -27.3565   25.3292 C   0  0  0  0  0  0  0  0  0  0  0  0
  -29.0199  -24.1659   19.9192 C   0  0  0  0  0  0  0  0  0  0  0  0
  -28.0815  -25.1585   20.6012 C   0  0  0  0  0  0  0  0  0  1  0  0
  -25.7380  -21.8045   20.9343 C   0  0  2  0  0  0  0  0  0  0  0  0
  -25.1709  -30.6679   24.8216 C   0  0  1  0  0  0  0  0  0  0  0  0
  -22.6641  -28.8137   26.9774 C   0  0  2  0  0  0  0  0  0  0  0  0
  -28.4904  -22.7190   19.9370 C   0  0  2  0  0  0  0  0  0  0  0  0
  -26.1529  -31.6964   25.4502 C   0  0  0  0  0  0  0  0  0  0  0  0
  -26.9916  -21.4408   23.0531 N   0  0  0  0  0  0  0  0  0  0  0  0
  -26.1778  -15.3007   19.1608 N   0  0  0  0  0  0  0  0  0  0  0  0
  -28.1606  -22.2220   21.3340 N   0  0  0  0  0  0  0  0  0  0  0  0
  -24.9196  -15.6701   19.4550 N   0  0  0  0  0  0  0  0  0  0  0  0
  -24.7698  -30.4346   22.3908 N   0  0  0  0  0  0  0  0  0  0  0  0
  -24.9585  -19.3084   18.2847 N   0  0  0  0  0  0  0  0  0  0  0  0
  -22.9729  -14.9851   20.6177 N   0  0  0  0  0  0  0  0  0  0  0  0
  -25.8740  -11.6047   21.3610 N   0  0  0  0  0  0  0  0  0  0  0  0
  -25.3761  -33.0420   20.3405 N   0  0  0  0  0  0  0  0  0  0  0  0
  -24.0740  -30.2751   25.6997 N   0  0  0  0  0  0  0  0  0  0  0  0
  -25.6199  -20.5891   20.1598 N   0  0  0  0  0  0  0  0  0  0  0  0
  -21.9689  -27.5202   26.7229 N   0  3  0  0  0  0  0  0  0  0  0  0
  -23.7457  -12.3552   21.7680 O   0  0  0  0  0  0  0  0  0  0  0  0
  -26.5478  -31.0323   20.2365 O   0  0  0  0  0  0  0  0  0  0  0  0
  -23.8448  -32.2046   23.5941 O   0  0  0  0  0  0  0  0  0  0  0  0
  -24.5407  -28.0037   25.6892 O   0  0  0  0  0  0  0  0  0  0  0  0
  -24.5238  -21.5830   18.4083 O   0  0  0  0  0  0  0  0  0  0  0  0
  -31.1015  -11.2739   19.4638 O   0  0  0  0  0  0  0  0  0  0  0  0
  -26.8176  -25.1576   19.9387 O   0  0  0  0  0  0  0  0  0  1  0  0
  -33.0713   -9.0663   24.1168 F   0  0  0  0  0  0  0  0  0  0  0  0
  -33.5851  -11.9994   20.4374 F   0  0  0  0  0  0  0  0  0  0  0  0
  1  2  1  0  0  0  0
  1  5  2  0  0  0  0
  2  6  2  0  0  0  0
  3  8  2  0  0  0  0
  3 17  1  0  0  0  0
  4  9  1  0  0  0  0
  4 17  2  0  0  0  0
  5 19  1  0  0  0  0
  6 21  1  0  0  0  0
  7 10  2  0  0  0  0
  7 20  1  0  0  0  0
  8 23  1  0  0  0  0
  9 23  2  0  0  0  0
 10 24  1  0  0  0  0
 11 12  2  0  0  0  0
 11 25  1  0  0  0  0
 12 26  1  0  0  0  0
 13 22  1  0  0  0  0
 13 24  2  0  0  0  0
 14 26  2  0  0  0  0
 14 27  1  0  0  0  0
 15 16  2  0  0  0  0
 15 62  1  0  0  0  0
 16 64  1  0  0  0  0
 17 28  1  0  0  0  0
 18 28  1  0  0  0  0
 18 29  2  0  0  0  0
 18 31  1  0  0  0  0
 19 21  2  0  0  0  0
 19 36  1  0  0  0  0
 20 22  2  0  0  0  0
 20 37  1  0  0  0  0
 21 45  1  0  0  0  0
 22 38  1  0  0  0  0
 23 79  1  0  0  0  0
 24 80  1  0  0  0  0
 25 27  2  0  0  0  0
 25 79  1  0  0  0  0
 26 81  1  0  0  0  0
 27 82  1  0  0  0  0
 28 63  2  0  0  0  0
 29 65  1  0  0  0  0
 29 68  1  0  0  0  0
 30 57  1  0  0  0  0
 30 62  2  0  0  0  0
 30 64  1  0  0  0  0
 31 69  1  0  0  0  0
 31 74  2  0  0  0  0
 32 46  1  0  0  0  0
 32 70  1  0  0  0  0
 32 75  2  0  0  0  0
 33 58  1  0  0  0  0
 33 66  1  0  0  0  0
 33 76  2  0  0  0  0
 34 59  1  0  0  0  0
 34 71  1  0  0  0  0
 34 77  2  0  0  0  0
 35 67  1  0  0  0  0
 35 72  1  0  0  0  0
 35 78  2  0  0  0  0
 36 39  1  0  0  0  0
 37 46  1  0  0  0  0
 38 66  1  0  0  0  0
 39 41  1  0  0  0  0
 40 42  1  0  0  0  0
 40 43  1  0  0  0  0
 41 45  1  0  0  0  0
 42 47  1  0  0  0  0
 43 67  1  0  0  0  0
 44 47  1  0  0  0  0
 44 67  1  0  0  0  0
 45 70  1  0  0  0  0
 46 66  1  0  0  0  0
 47 65  1  0  0  0  0
 48 57  1  0  0  0  0
 49 59  1  0  0  0  0
 50 60  1  0  0  0  0
 51 61  1  0  0  0  0
 52 61  1  0  0  0  0
 53 61  1  0  0  0  0
 54 73  1  0  0  0  0
 55 56  1  0  0  0  0
 55 60  1  0  0  0  0
 56 80  1  0  0  0  0
 57 72  1  0  0  0  0
 58 61  1  0  0  0  0
 58 71  1  0  0  0  0
 59 73  1  0  0  0  0
 60 64  1  0  0  0  0
 63 65  1  0  0  0  0
M  CHG  1  73   1
M  ISO  4  35 100  56 101  72 100  80 101
M  END
> <Batch ID>
0055

> <Smiles>
CNC(C)C(=O)NC(C(=O)N1Cc2cc([101O:1][101CH2:1]CC(C)n3ccnc3C(C)[100NH:0][100C:0](=O)N3CCCC(n4nc(-c5ccc(Oc6ccc(F)cc6F)cc5)c(C(N)=O)c4N)C3)ccc2CC1C(=O)NC1CCCc2ccccc21)C(C)(C)C

> <Shape>
0.221

> <Color>
0.082

> <Negative vol penalty>
0.000

$$$$

  -OEChem-04052317433D

 78 86  0     1  0  0  0  0  0999 V2000
  -32.1287  -35.8164   18.0925 C   0  0  0  0  0  0  0  0  0  0  0  0
  -31.9351  -34.5883   17.4682 C   0  0  0  0  0  0  0  0  0  0  0  0
  -24.6172   -9.7840   21.3805 C   0  0  0  0  0  0  0  0  0  0  0  0
  -24.8609  -10.8459   23.5369 C   0  0  0  0  0  0  0  0  0  0  0  0
  -31.9529  -35.9319   19.4708 C   0  0  0  0  0  0  0  0  0  0  0  0
  -31.5667  -33.4746   18.2221 C   0  0  0  0  0  0  0  0  0  0  0  0
  -27.7043  -27.4583   17.7731 C   0  0  0  0  0  0  0  0  0  0  0  0
  -24.3497   -8.5681   22.0094 C   0  0  0  0  0  0  0  0  0  0  0  0
  -24.5933   -9.6300   24.1659 C   0  0  0  0  0  0  0  0  0  0  0  0
  -27.8216  -26.0849   17.9824 C   0  0  0  0  0  0  0  0  0  0  0  0
  -21.7282   -7.0795   23.5407 C   0  0  0  0  0  0  0  0  0  0  0  0
  -20.6619   -6.3208   23.0580 C   0  0  0  0  0  0  0  0  0  0  0  0
  -27.4693  -26.4208   20.3450 C   0  0  0  0  0  0  0  0  0  0  0  0
  -22.1770   -4.5044   22.5660 C   0  0  0  0  0  0  0  0  0  0  0  0
  -29.0550  -21.7083   20.4056 C   0  0  0  0  0  0  0  0  0  0  0  0
  -27.0539  -20.1946   21.3176 C   0  0  0  0  0  0  0  0  0  0  0  0
  -24.8729  -10.9229   22.1442 C   0  0  0  0  0  0  0  0  0  0  0  0
  -24.2179  -13.1637   21.1157 C   0  0  0  0  0  0  0  0  0  0  0  0
  -31.5728  -34.8212   20.2406 C   0  0  0  0  0  0  0  0  0  0  0  0
  -27.4790  -28.3259   18.8516 C   0  0  0  0  0  0  0  0  0  0  0  0
  -31.3870  -33.5750   19.6122 C   0  0  0  0  0  0  0  0  0  0  0  0
  -27.3469  -27.8046   20.1465 C   0  0  0  0  0  0  0  0  0  0  0  0
  -24.3377   -8.4911   23.4021 C   0  0  0  0  0  0  0  0  0  0  0  0
  -27.7070  -25.5663   19.2688 C   0  0  0  0  0  0  0  0  0  0  0  0
  -23.0189   -6.5507   23.5359 C   0  0  0  0  0  0  0  0  0  0  0  0
  -20.8863   -5.0332   22.5707 C   0  0  0  0  0  0  0  0  0  0  0  0
  -23.2433   -5.2631   23.0486 C   0  0  0  0  0  0  0  0  0  0  0  0
  -25.1499  -12.1791   21.4950 C   0  0  0  0  0  0  0  0  0  0  0  0
  -27.8782  -22.2745   20.8442 C   0  0  0  0  0  0  0  0  0  0  0  0
  -28.2303  -19.6283   20.8784 C   0  0  0  0  0  0  0  0  0  0  0  0
  -24.9783  -14.1538   20.5432 C   0  0  0  0  0  0  0  0  0  0  0  0
  -22.7923  -13.1816   21.2675 C   0  0  0  0  0  0  0  0  0  0  0  0
  -29.0779  -30.7425   20.1581 C   0  0  0  0  0  0  0  0  0  0  0  0
  -26.3929  -31.0373   21.9542 C   0  0  0  0  0  0  0  0  0  0  0  0
  -23.6046  -29.5651   23.2599 C   0  0  0  0  0  0  0  0  0  0  0  0
  -29.4599  -17.4582   20.5250 C   0  0  0  0  0  0  0  0  0  0  0  0
  -31.4409  -34.9840   21.7341 C   0  0  0  0  0  0  0  0  0  0  0  0
  -27.3282  -29.8021   18.6057 C   0  0  0  0  0  0  0  0  0  0  0  0
  -27.0848  -28.6913   21.3354 C   0  0  0  0  0  0  0  0  0  0  0  0
  -30.6850  -33.8411   22.4070 C   0  0  0  0  0  0  0  0  0  0  0  0
  -29.8508  -14.1881   19.1719 C   0  0  0  0  0  0  0  0  0  0  0  0
  -31.1929  -32.4946   21.9014 C   0  0  0  0  0  0  0  0  0  0  0  0
  -28.5859  -13.4549   19.6245 C   0  0  0  0  0  0  0  0  0  0  0  0
  -30.3561  -15.1583   20.2382 C   0  0  0  0  0  0  0  0  0  0  0  0
  -28.0921  -15.3818   21.1833 C   0  0  0  0  0  0  0  0  0  0  0  0
  -30.9630  -32.3495   20.3923 C   0  0  1  0  0  0  0  0  0  0  0  0
  -27.6116  -30.6462   19.8444 C   0  0  1  0  0  0  0  0  0  0  0  0
  -27.5085  -14.4410   20.1165 C   0  0  2  0  0  0  0  0  0  0  0  0
  -21.6210  -30.0493   24.7188 C   0  0  0  0  0  0  0  0  0  0  0  0
  -28.1814  -30.9125   24.4232 C   0  0  0  0  0  0  0  0  0  0  0  0
  -26.1389  -30.4442   25.7933 C   0  0  0  0  0  0  0  0  0  0  0  0
  -26.3397  -32.5994   24.5533 C   0  0  0  0  0  0  0  0  0  0  0  0
  -21.7029  -28.9555   21.0756 C   0  0  0  0  0  0  0  0  0  0  0  0
  -27.6937  -23.7633   20.8197 C   0  0  0  0  0  0  0  0  0  1  0  0
  -25.9167  -30.4642   23.2672 C   0  0  1  0  0  0  0  0  0  0  0  0
  -22.1534  -30.0095   23.2948 C   0  0  2  0  0  0  0  0  0  0  0  0
  -26.6510  -31.0883   24.4873 C   0  0  0  0  0  0  0  0  0  0  0  0
  -26.8567  -21.5278   21.3084 N   0  0  0  0  0  0  0  0  0  0  0  0
  -29.2520  -20.3751   20.4146 N   0  0  0  0  0  0  0  0  0  0  0  0
  -26.4063  -12.5133   21.1891 N   0  0  0  0  0  0  0  0  0  0  0  0
  -26.2692  -13.7189   20.6113 N   0  0  0  0  0  0  0  0  0  0  0  0
  -26.9514  -30.1283   21.0445 N   0  0  0  0  0  0  0  0  0  0  0  0
  -29.2827  -16.0642   20.6528 N   0  0  0  0  0  0  0  0  0  0  0  0
  -24.6620  -15.3453   19.9930 N   0  0  0  0  0  0  0  0  0  0  0  0
  -22.1714  -12.0832   21.8777 N   0  0  0  0  0  0  0  0  0  0  0  0
  -28.3594  -18.2179   20.9204 N   0  0  0  0  0  0  0  0  0  0  0  0
  -29.5779  -32.0302   20.1204 N   0  0  0  0  0  0  0  0  0  0  0  0
  -24.4685  -30.6394   23.2877 N   0  0  0  0  0  0  0  0  0  0  0  0
  -21.3061  -29.0742   22.5022 N   0  3  0  0  0  0  0  0  0  0  0  0
  -22.0882  -14.1360   20.8588 O   0  0  0  0  0  0  0  0  0  0  0  0
  -29.7086  -29.7242   20.4166 O   0  0  0  0  0  0  0  0  0  0  0  0
  -26.2672  -32.2457   21.7407 O   0  0  0  0  0  0  0  0  0  0  0  0
  -23.9384  -28.3831   23.2163 O   0  0  0  0  0  0  0  0  0  0  0  0
  -30.5002  -17.9412   20.0707 O   0  0  0  0  0  0  0  0  0  0  0  0
  -24.0764   -7.3048   24.0162 O   0  0  0  0  0  0  0  0  0  0  0  0
  -27.8218  -24.2262   19.4759 O   0  0  0  0  0  0  0  0  0  1  0  0
  -19.8619   -4.3042   22.1087 F   0  0  0  0  0  0  0  0  0  0  0  0
  -24.4809   -4.7492   23.0427 F   0  0  0  0  0  0  0  0  0  0  0  0
  1  2  1  0  0  0  0
  1  5  2  0  0  0  0
  2  6  2  0  0  0  0
  3  8  2  0  0  0  0
  3 17  1  0  0  0  0
  4  9  1  0  0  0  0
  4 17  2  0  0  0  0
  5 19  1  0  0  0  0
  6 21  1  0  0  0  0
  7 10  2  0  0  0  0
  7 20  1  0  0  0  0
  8 23  1  0  0  0  0
  9 23  2  0  0  0  0
 10 24  1  0  0  0  0
 11 12  2  0  0  0  0
 11 25  1  0  0  0  0
 12 26  1  0  0  0  0
 13 22  1  0  0  0  0
 13 24  2  0  0  0  0
 14 26  2  0  0  0  0
 14 27  1  0  0  0  0
 15 29  1  0  0  0  0
 15 59  2  0  0  0  0
 16 30  2  0  0  0  0
 16 58  1  0  0  0  0
 17 28  1  0  0  0  0
 18 28  1  0  0  0  0
 18 31  2  0  0  0  0
 18 32  1  0  0  0  0
 19 21  2  0  0  0  0
 19 37  1  0  0  0  0
 20 22  2  0  0  0  0
 20 38  1  0  0  0  0
 21 46  1  0  0  0  0
 22 39  1  0  0  0  0
 23 75  1  0  0  0  0
 24 76  1  0  0  0  0
 25 27  2  0  0  0  0
 25 75  1  0  0  0  0
 26 77  1  0  0  0  0
 27 78  1  0  0  0  0
 28 60  2  0  0  0  0
 29 54  1  0  0  0  0
 29 58  2  0  0  0  0
 30 59  1  0  0  0  0
 30 66  1  0  0  0  0
 31 61  1  0  0  0  0
 31 64  1  0  0  0  0
 32 65  1  0  0  0  0
 32 70  2  0  0  0  0
 33 47  1  0  0  0  0
 33 67  1  0  0  0  0
 33 71  2  0  0  0  0
 34 55  1  0  0  0  0
 34 62  1  0  0  0  0
 34 72  2  0  0  0  0
 35 56  1  0  0  0  0
 35 68  1  0  0  0  0
 35 73  2  0  0  0  0
 36 63  1  0  0  0  0
 36 66  1  0  0  0  0
 36 74  2  0  0  0  0
 37 40  1  0  0  0  0
 38 47  1  0  0  0  0
 39 62  1  0  0  0  0
 40 42  1  0  0  0  0
 41 43  1  0  0  0  0
 41 44  1  0  0  0  0
 42 46  1  0  0  0  0
 43 48  1  0  0  0  0
 44 63  1  0  0  0  0
 45 48  1  0  0  0  0
 45 63  1  0  0  0  0
 46 67  1  0  0  0  0
 47 62  1  0  0  0  0
 48 61  1  0  0  0  0
 49 56  1  0  0  0  0
 50 57  1  0  0  0  0
 51 57  1  0  0  0  0
 52 57  1  0  0  0  0
 53 69  1  0  0  0  0
 54 76  1  0  0  0  0
 55 57  1  0  0  0  0
 55 68  1  0  0  0  0
 56 69  1  0  0  0  0
 60 61  1  0  0  0  0
M  CHG  1  69   1
M  ISO  4  36 100  54 101  66 100  76 101
M  END
> <Batch ID>
0055

> <Smiles>
CNC(C)C(=O)NC(C(=O)N1Cc2cc([101O:1][101CH2:1]c3cnc([100NH:0][100C:0](=O)N4CCCC(n5nc(-c6ccc(Oc7ccc(F)cc7F)cc6)c(C(N)=O)c5N)C4)cn3)ccc2CC1C(=O)NC1CCCc2ccccc21)C(C)(C)C

> <Shape>
0.283

> <Color>
0.160

> <Negative vol penalty>
0.000

$$$$

  -OEChem-04052317433D

 83 91  0     1  0  0  0  0  0999 V2000
  -19.9197  -31.2846   21.7845 C   0  0  0  0  0  0  0  0  0  0  0  0
  -21.0306  -30.6769   21.2083 C   0  0  0  0  0  0  0  0  0  0  0  0
  -25.6978  -15.7460   21.6938 C   0  0  0  0  0  0  0  0  0  0  0  0
  -25.3410  -16.3997   19.3954 C   0  0  0  0  0  0  0  0  0  0  0  0
  -18.9618  -30.5089   22.4361 C   0  0  0  0  0  0  0  0  0  0  0  0
  -21.1847  -29.2931   21.2844 C   0  0  0  0  0  0  0  0  0  0  0  0
  -22.5995  -27.2505   16.8717 C   0  0  0  0  0  0  0  0  0  0  0  0
  -24.4230  -15.1811   21.7310 C   0  0  0  0  0  0  0  0  0  0  0  0
  -24.0662  -15.8347   19.4326 C   0  0  0  0  0  0  0  0  0  0  0  0
  -23.9416  -27.3731   16.5145 C   0  0  0  0  0  0  0  0  0  0  0  0
  -22.9281  -12.3352   20.6828 C   0  0  0  0  0  0  0  0  0  0  0  0
  -22.7952  -11.0728   21.2608 C   0  0  0  0  0  0  0  0  0  0  0  0
  -24.3413  -25.1156   17.2649 C   0  0  0  0  0  0  0  0  0  0  0  0
  -21.2679  -11.9827   22.8969 C   0  0  0  0  0  0  0  0  0  0  0  0
  -29.2374  -25.7970   18.2958 C   0  0  0  0  0  0  0  0  0  0  0  0
  -26.1568  -16.3554   20.5260 C   0  0  0  0  0  0  0  0  0  0  0  0
  -28.6747  -16.3045   20.1197 C   0  0  0  0  0  0  0  0  0  0  0  0
  -19.0994  -29.1139   22.5118 C   0  0  0  0  0  0  0  0  0  0  0  0
  -22.1198  -26.0613   17.4392 C   0  0  0  0  0  0  0  0  0  0  0  0
  -20.2284  -28.4981   21.9388 C   0  0  0  0  0  0  0  0  0  0  0  0
  -22.9922  -24.9795   17.6260 C   0  0  0  0  0  0  0  0  0  0  0  0
  -23.6072  -15.2254   20.6005 C   0  0  0  0  0  0  0  0  0  0  0  0
  -24.8133  -26.3066   16.7138 C   0  0  0  0  0  0  0  0  0  0  0  0
  -22.2310  -13.4214   21.2119 C   0  0  0  0  0  0  0  0  0  0  0  0
  -21.9651  -10.8965   22.3679 C   0  0  0  0  0  0  0  0  0  0  0  0
  -21.4009  -13.2451   22.3189 C   0  0  0  0  0  0  0  0  0  0  0  0
  -27.4733  -16.9397   20.4870 C   0  0  0  0  0  0  0  0  0  0  0  0
  -28.5196  -26.9245   18.0123 C   0  0  0  0  0  0  0  0  0  0  0  0
  -29.6323  -17.2807   20.2478 C   0  0  0  0  0  0  0  0  0  0  0  0
  -28.4329  -26.5913   20.1991 C   0  0  0  0  0  0  0  0  0  0  0  0
  -28.9045  -14.9529   19.7001 C   0  0  0  0  0  0  0  0  0  0  0  0
  -20.8030  -25.2761   20.2237 C   0  0  0  0  0  0  0  0  0  0  0  0
  -29.2193  -23.1992   19.9711 C   0  0  0  0  0  0  0  0  0  0  0  0
  -20.4287  -22.3906   18.7898 C   0  0  0  0  0  0  0  0  0  0  0  0
  -21.4572  -20.1926   16.3903 C   0  0  0  0  0  0  0  0  0  0  0  0
  -18.0619  -28.3221   23.2677 C   0  0  0  0  0  0  0  0  0  0  0  0
  -20.6636  -25.9356   17.7944 C   0  0  0  0  0  0  0  0  0  0  0  0
  -22.5226  -23.6743   18.2129 C   0  0  0  0  0  0  0  0  0  0  0  0
  -18.1095  -26.8239   22.9789 C   0  0  0  0  0  0  0  0  0  0  0  0
  -30.6335  -21.2561   22.7009 C   0  0  0  0  0  0  0  0  0  0  0  0
  -19.5459  -26.3141   23.0387 C   0  0  0  0  0  0  0  0  0  0  0  0
  -30.0615  -19.8680   22.4163 C   0  0  0  0  0  0  0  0  0  0  0  0
  -29.6432  -22.3576   22.3320 C   0  0  0  0  0  0  0  0  0  0  0  0
  -28.5898  -20.8996   20.6323 C   0  0  0  0  0  0  0  0  0  0  0  0
  -20.4184  -26.9973   21.9788 C   0  0  1  0  0  0  0  0  0  0  0  0
  -20.3944  -24.8576   18.8397 C   0  0  1  0  0  0  0  0  0  0  0  0
  -29.5696  -19.7612   20.9622 C   0  0  2  0  0  0  0  0  0  0  0  0
  -27.0140  -25.8155   22.1151 C   0  0  0  0  0  0  0  0  0  0  0  0
  -31.3120  -24.5157   20.2209 C   0  0  0  0  0  0  0  0  0  0  0  0
  -20.9844  -17.9000   15.4861 C   0  0  0  0  0  0  0  0  0  0  0  0
  -28.8704  -26.9442   15.4519 C   0  0  0  0  0  0  0  0  0  0  0  0
  -28.8057  -29.0713   16.7360 C   0  0  0  0  0  0  0  0  0  0  0  0
  -21.8495  -21.1537   21.1901 C   0  0  0  0  0  0  0  0  0  0  0  0
  -22.1914  -19.0793   19.8305 C   0  0  0  0  0  0  0  0  0  0  0  0
  -19.8803  -19.8545   20.3601 C   0  0  0  0  0  0  0  0  0  0  0  0
  -20.7654  -21.2623   13.7189 C   0  0  0  0  0  0  0  0  0  0  0  0
  -28.1091  -26.7695   21.6365 C   0  0  0  0  0  0  0  0  0  0  0  0
  -26.7006  -27.7272   16.4379 C   0  0  0  0  0  0  0  0  0  1  0  0
  -29.7943  -24.5303   20.3851 C   0  0  1  0  0  0  0  0  0  0  0  0
  -21.2624  -21.1372   18.6759 C   0  0  1  0  0  0  0  0  0  0  0  0
  -20.6818  -19.3854   15.3648 C   0  0  2  0  0  0  0  0  0  0  0  0
  -28.2297  -27.6377   16.6783 C   0  0  0  0  0  0  0  0  0  0  0  0
  -21.3055  -20.3313   20.0049 C   0  0  0  0  0  0  0  0  0  0  0  0
  -27.6490  -18.2203   20.8234 N   0  0  0  0  0  0  0  0  0  0  0  0
  -29.1672  -25.6148   19.6560 N   0  0  0  0  0  0  0  0  0  0  0  0
  -28.9721  -18.3977   20.6680 N   0  0  0  0  0  0  0  0  0  0  0  0
  -28.0331  -27.3948   19.2082 N   0  3  0  0  0  0  0  0  0  0  0  0
  -21.0913  -23.6027   18.5499 N   0  0  0  0  0  0  0  0  0  0  0  0
  -29.1777  -22.2045   20.9485 N   0  0  0  0  0  0  0  0  0  0  0  0
  -30.9663  -17.2841   20.0409 N   0  0  0  0  0  0  0  0  0  0  0  0
  -27.8093  -14.0818   19.6232 N   0  0  0  0  0  0  0  0  0  0  0  0
  -20.1734  -26.4207   20.6742 N   0  0  0  0  0  0  0  0  0  0  0  0
  -20.7261  -20.3919   17.5422 N   0  0  0  0  0  0  0  0  0  0  0  0
  -21.0339  -19.8256   13.9852 N   0  3  0  0  0  0  0  0  0  0  0  0
  -30.0497  -14.5257   19.4180 O   0  0  0  0  0  0  0  0  0  0  0  0
  -21.6274  -24.6092   20.8380 O   0  0  0  0  0  0  0  0  0  0  0  0
  -28.8222  -23.0490   18.8127 O   0  0  0  0  0  0  0  0  0  0  0  0
  -19.2320  -22.2972   19.0740 O   0  0  0  0  0  0  0  0  0  0  0  0
  -22.5987  -20.6021   16.1909 O   0  0  0  0  0  0  0  0  0  0  0  0
  -22.3634  -14.6740   20.6364 O   0  0  0  0  0  0  0  0  0  0  0  0
  -26.1239  -26.4239   16.3666 O   0  0  0  0  0  0  0  0  0  1  0  0
  -21.8363   -9.6838   22.9219 F   0  0  0  0  0  0  0  0  0  0  0  0
  -20.7277  -14.2846   22.8309 F   0  0  0  0  0  0  0  0  0  0  0  0
  1  2  1  0  0  0  0
  1  5  2  0  0  0  0
  2  6  2  0  0  0  0
  3  8  2  0  0  0  0
  3 16  1  0  0  0  0
  4  9  1  0  0  0  0
  4 16  2  0  0  0  0
  5 18  1  0  0  0  0
  6 20  1  0  0  0  0
  7 10  2  0  0  0  0
  7 19  1  0  0  0  0
  8 22  1  0  0  0  0
  9 22  2  0  0  0  0
 10 23  1  0  0  0  0
 11 12  2  0  0  0  0
 11 24  1  0  0  0  0
 12 25  1  0  0  0  0
 13 21  1  0  0  0  0
 13 23  2  0  0  0  0
 14 25  2  0  0  0  0
 14 26  1  0  0  0  0
 15 28  2  0  0  0  0
 15 65  1  0  0  0  0
 16 27  1  0  0  0  0
 17 27  1  0  0  0  0
 17 29  2  0  0  0  0
 17 31  1  0  0  0  0
 18 20  2  0  0  0  0
 18 36  1  0  0  0  0
 19 21  2  0  0  0  0
 19 37  1  0  0  0  0
 20 45  1  0  0  0  0
 21 38  1  0  0  0  0
 22 80  1  0  0  0  0
 23 81  1  0  0  0  0
 24 26  2  0  0  0  0
 24 80  1  0  0  0  0
 25 82  1  0  0  0  0
 26 83  1  0  0  0  0
 27 64  2  0  0  0  0
 28 62  1  0  0  0  0
 28 67  1  0  0  0  0
 29 66  1  0  0  0  0
 29 70  1  0  0  0  0
 30 57  1  0  0  0  0
 30 65  1  0  0  0  0
 30 67  2  0  0  0  0
 31 71  1  0  0  0  0
 31 75  2  0  0  0  0
 32 46  1  0  0  0  0
 32 72  1  0  0  0  0
 32 76  2  0  0  0  0
 33 59  1  0  0  0  0
 33 69  1  0  0  0  0
 33 77  2  0  0  0  0
 34 60  1  0  0  0  0
 34 68  1  0  0  0  0
 34 78  2  0  0  0  0
 35 61  1  0  0  0  0
 35 73  1  0  0  0  0
 35 79  2  0  0  0  0
 36 39  1  0  0  0  0
 37 46  1  0  0  0  0
 38 68  1  0  0  0  0
 39 41  1  0  0  0  0
 40 42  1  0  0  0  0
 40 43  1  0  0  0  0
 41 45  1  0  0  0  0
 42 47  1  0  0  0  0
 43 69  1  0  0  0  0
 44 47  1  0  0  0  0
 44 69  1  0  0  0  0
 45 72  1  0  0  0  0
 46 68  1  0  0  0  0
 47 66  1  0  0  0  0
 48 57  1  0  0  0  0
 49 59  1  0  0  0  0
 50 61  1  0  0  0  0
 51 62  1  0  0  0  0
 52 62  1  0  0  0  0
 53 63  1  0  0  0  0
 54 63  1  0  0  0  0
 55 63  1  0  0  0  0
 56 74  1  0  0  0  0
 58 62  1  0  0  0  0
 58 81  1  0  0  0  0
 59 65  1  0  0  0  0
 60 63  1  0  0  0  0
 60 73  1  0  0  0  0
 61 74  1  0  0  0  0
 64 66  1  0  0  0  0
M  CHG  2  67   1  74   1
M  ISO  4  33 100  58 101  59 100  81 101
M  END
> <Batch ID>
0055

> <Smiles>
CCc1nc(C(C)(C)[101CH2:1][101O:1]c2ccc3c(c2)CN(C(=O)C(NC(=O)C(C)NC)C(C)(C)C)C(C(=O)NC2CCCc4ccccc42)C3)cn1[100CH:0](C)[100C:0](=O)N1CCCC(n2nc(-c3ccc(Oc4ccc(F)cc4F)cc3)c(C(N)=O)c2N)C1

> <Shape>
0.196

> <Color>
0.067

> <Negative vol penalty>
0.000

$$$$

  -OEChem-04052317433D

 88 96  0     1  0  0  0  0  0999 V2000
  -21.1512  -23.1627   16.0279 C   0  0  0  0  0  0  0  0  0  0  0  0
  -22.0156  -22.1359   16.3942 C   0  0  0  0  0  0  0  0  0  0  0  0
  -20.6295  -22.6778   23.0335 C   0  0  0  0  0  0  0  0  0  0  0  0
  -22.5221  -22.6658   21.5319 C   0  0  0  0  0  0  0  0  0  0  0  0
  -21.6563  -24.4330   15.7538 C   0  0  0  0  0  0  0  0  0  0  0  0
  -23.3857  -22.3787   16.4855 C   0  0  0  0  0  0  0  0  0  0  0  0
  -27.3105  -19.8774   20.4662 C   0  0  0  0  0  0  0  0  0  0  0  0
  -20.7540  -24.0593   23.1795 C   0  0  0  0  0  0  0  0  0  0  0  0
  -22.6466  -24.0474   21.6778 C   0  0  0  0  0  0  0  0  0  0  0  0
  -28.2053  -18.8137   20.3586 C   0  0  0  0  0  0  0  0  0  0  0  0
  -19.9482  -26.8327   21.4210 C   0  0  0  0  0  0  0  0  0  0  0  0
  -18.7850  -27.5993   21.3516 C   0  0  0  0  0  0  0  0  0  0  0  0
  -29.9826  -20.3671   19.8610 C   0  0  0  0  0  0  0  0  0  0  0  0
  -19.1840  -28.4077   23.5931 C   0  0  0  0  0  0  0  0  0  0  0  0
  -27.5140  -13.7720   21.3798 C   0  0  0  0  0  0  0  0  0  0  0  0
  -21.5136  -21.9810   22.2097 C   0  0  0  0  0  0  0  0  0  0  0  0
  -20.6200  -19.8655   21.0990 C   0  0  0  0  0  0  0  0  0  0  0  0
  -23.0322  -24.6939   15.8511 C   0  0  0  0  0  0  0  0  0  0  0  0
  -27.7434  -21.1953   20.2609 C   0  0  0  0  0  0  0  0  0  0  0  0
  -23.9097  -23.6533   16.2111 C   0  0  0  0  0  0  0  0  0  0  0  0
  -29.0918  -21.4459   19.9691 C   0  0  0  0  0  0  0  0  0  0  0  0
  -21.7625  -24.7442   22.5016 C   0  0  0  0  0  0  0  0  0  0  0  0
  -29.5410  -19.0582   20.0531 C   0  0  0  0  0  0  0  0  0  0  0  0
  -20.7292  -26.8535   22.5766 C   0  0  0  0  0  0  0  0  0  0  0  0
  -18.4029  -28.3868   22.4376 C   0  0  0  0  0  0  0  0  0  0  0  0
  -20.3471  -27.6410   23.6626 C   0  0  0  0  0  0  0  0  0  0  0  0
  -21.3858  -20.5537   22.0590 C   0  0  0  0  0  0  0  0  0  0  0  0
  -26.7519  -14.4249   20.4452 C   0  0  0  0  0  0  0  0  0  0  0  0
  -20.8335  -18.5375   21.3772 C   0  0  0  0  0  0  0  0  0  0  0  0
  -29.0133  -13.2774   19.7652 C   0  0  0  0  0  0  0  0  0  0  0  0
  -19.7899  -20.3805   20.0495 C   0  0  0  0  0  0  0  0  0  0  0  0
  -27.0305  -23.4926   18.1829 C   0  0  0  0  0  0  0  0  0  0  0  0
  -28.9829  -25.2678   20.0695 C   0  0  0  0  0  0  0  0  0  0  0  0
  -31.5502  -25.3503   22.3165 C   0  0  0  0  0  0  0  0  0  0  0  0
  -24.0847  -14.3103   22.7071 C   0  0  0  0  0  0  0  0  0  0  0  0
  -23.5366  -26.0709   15.4992 C   0  0  0  0  0  0  0  0  0  0  0  0
  -26.7713  -22.3338   20.4069 C   0  0  0  0  0  0  0  0  0  0  0  0
  -29.6112  -22.8440   19.7594 C   0  0  0  0  0  0  0  0  0  0  0  0
  -24.9591  -26.3406   15.9830 C   0  0  0  0  0  0  0  0  0  0  0  0
  -23.0253  -16.3036   25.3398 C   0  0  0  0  0  0  0  0  0  0  0  0
  -25.8698  -25.1645   15.6453 C   0  0  0  0  0  0  0  0  0  0  0  0
  -22.4411  -17.5379   24.6541 C   0  0  0  0  0  0  0  0  0  0  0  0
  -24.2979  -15.8428   24.6391 C   0  0  0  0  0  0  0  0  0  0  0  0
  -23.5265  -16.7767   22.4818 C   0  0  0  0  0  0  0  0  0  0  0  0
  -25.3994  -23.8837   16.3452 C   0  0  1  0  0  0  0  0  0  0  0  0
  -27.2131  -23.5949   19.6708 C   0  0  1  0  0  0  0  0  0  0  0  0
  -22.2333  -17.2866   23.1504 C   0  0  2  0  0  0  0  0  0  0  0  0
  -32.9498  -26.9499   23.6505 C   0  0  0  0  0  0  0  0  0  0  0  0
  -23.9036  -11.8133   20.8918 C   0  0  0  0  0  0  0  0  0  0  0  0
  -22.4161  -13.7116   20.1794 C   0  0  0  0  0  0  0  0  0  0  0  0
  -30.5473  -25.9943   17.5526 C   0  0  0  0  0  0  0  0  0  0  0  0
  -32.4183  -26.7708   19.0238 C   0  0  0  0  0  0  0  0  0  0  0  0
  -30.1925  -27.8905   19.1441 C   0  0  0  0  0  0  0  0  0  0  0  0
  -30.6465  -24.1830   24.8816 C   0  0  0  0  0  0  0  0  0  0  0  0
  -32.0540  -14.6682   17.6720 C   0  0  0  0  0  0  0  0  0  0  0  0
  -25.4695  -15.0786   20.8178 C   0  0  0  0  0  0  0  0  0  0  0  0
  -30.3020  -12.6309   19.3465 C   0  0  0  0  0  0  0  0  0  0  0  0
  -31.4841  -16.2089   21.0987 C   0  0  0  0  0  0  0  0  0  0  0  0
  -31.5460  -13.4106   19.7603 C   0  0  0  0  0  0  0  0  0  0  0  0
  -32.2975  -15.7813   19.8864 C   0  0  0  0  0  0  0  0  0  0  0  0
  -30.1564  -16.8676   20.7449 C   0  0  0  0  0  0  0  0  0  1  0  0
  -30.4629  -25.5644   20.0970 C   0  0  1  0  0  0  0  0  0  0  0  0
  -31.7062  -26.0745   23.6415 C   0  0  2  0  0  0  0  0  0  0  0  0
  -23.8514  -13.2599   20.4165 C   0  0  0  0  0  0  0  0  0  0  0  0
  -30.8953  -26.5284   18.9563 C   0  0  0  0  0  0  0  0  0  0  0  0
  -28.6732  -13.1777   21.0588 N   0  0  0  0  0  0  0  0  0  0  0  0
  -22.0370  -19.7310   22.8854 N   0  0  0  0  0  0  0  0  0  0  0  0
  -27.1447  -14.4920   19.1603 N   0  0  0  0  0  0  0  0  0  0  0  0
  -28.3060  -13.9042   18.8045 N   0  0  0  0  0  0  0  0  0  0  0  0
  -21.6809  -18.5121   22.4456 N   0  0  0  0  0  0  0  0  0  0  0  0
  -28.6206  -23.9231   19.9066 N   0  0  0  0  0  0  0  0  0  0  0  0
  -24.0653  -15.6189   23.2120 N   0  0  0  0  0  0  0  0  0  0  0  0
  -20.3770  -17.4008   20.8098 N   0  0  0  0  0  0  0  0  0  0  0  0
  -19.6822  -21.7703   19.9039 N   0  0  0  0  0  0  0  0  0  0  0  0
  -25.7862  -23.8986   17.7396 N   0  0  0  0  0  0  0  0  0  0  0  0
  -30.7556  -26.0569   21.4387 N   0  0  0  0  0  0  0  0  0  0  0  0
  -24.5085  -14.1406   21.3804 N   0  0  0  0  0  0  0  0  0  0  0  0
  -31.8137  -25.0937   24.7584 N   0  3  0  0  0  0  0  0  0  0  0  0
  -31.5620  -14.7664   19.0961 N   0  3  1  0  0  0  0  0  0  0  0  0
  -19.1493  -19.6306   19.2744 O   0  0  0  0  0  0  0  0  0  0  0  0
  -27.9508  -23.0776   17.4883 O   0  0  0  0  0  0  0  0  0  0  0  0
  -28.1780  -26.1941   20.1953 O   0  0  0  0  0  0  0  0  0  0  0  0
  -32.0831  -24.2678   22.0822 O   0  0  0  0  0  0  0  0  0  0  0  0
  -23.7493  -13.3445   23.4050 O   0  0  0  0  0  0  0  0  0  0  0  0
  -21.8842  -26.0924   22.6437 O   0  0  0  0  0  0  0  0  0  0  0  0
  -30.4164  -18.0217   19.9469 O   0  0  0  0  0  0  0  0  0  1  0  0
  -17.2867  -29.1242   22.3702 F   0  0  0  0  0  0  0  0  0  0  0  0
  -21.0941  -27.6660   24.7749 F   0  0  0  0  0  0  0  0  0  0  0  0
  1  2  1  0  0  0  0
  1  5  2  0  0  0  0
  2  6  2  0  0  0  0
  3  8  2  0  0  0  0
  3 16  1  0  0  0  0
  4  9  1  0  0  0  0
  4 16  2  0  0  0  0
  5 18  1  0  0  0  0
  6 20  1  0  0  0  0
  7 10  2  0  0  0  0
  7 19  1  0  0  0  0
  8 22  1  0  0  0  0
  9 22  2  0  0  0  0
 10 23  1  0  0  0  0
 11 12  2  0  0  0  0
 11 24  1  0  0  0  0
 12 25  1  0  0  0  0
 13 21  1  0  0  0  0
 13 23  2  0  0  0  0
 14 25  2  0  0  0  0
 14 26  1  0  0  0  0
 15 28  1  0  0  0  0
 15 66  2  0  0  0  0
 16 27  1  0  0  0  0
 17 27  1  0  0  0  0
 17 29  2  0  0  0  0
 17 31  1  0  0  0  0
 18 20  2  0  0  0  0
 18 36  1  0  0  0  0
 19 21  2  0  0  0  0
 19 37  1  0  0  0  0
 20 45  1  0  0  0  0
 21 38  1  0  0  0  0
 22 85  1  0  0  0  0
 23 86  1  0  0  0  0
 24 26  2  0  0  0  0
 24 85  1  0  0  0  0
 25 87  1  0  0  0  0
 26 88  1  0  0  0  0
 27 67  2  0  0  0  0
 28 56  1  0  0  0  0
 28 68  2  0  0  0  0
 29 70  1  0  0  0  0
 29 73  1  0  0  0  0
 30 57  1  0  0  0  0
 30 66  1  0  0  0  0
 30 69  2  0  0  0  0
 31 74  1  0  0  0  0
 31 80  2  0  0  0  0
 32 46  1  0  0  0  0
 32 75  1  0  0  0  0
 32 81  2  0  0  0  0
 33 62  1  0  0  0  0
 33 71  1  0  0  0  0
 33 82  2  0  0  0  0
 34 63  1  0  0  0  0
 34 76  1  0  0  0  0
 34 83  2  0  0  0  0
 35 72  1  0  0  0  0
 35 77  1  0  0  0  0
 35 84  2  0  0  0  0
 36 39  1  0  0  0  0
 37 46  1  0  0  0  0
 38 71  1  0  0  0  0
 39 41  1  0  0  0  0
 40 42  1  0  0  0  0
 40 43  1  0  0  0  0
 41 45  1  0  0  0  0
 42 47  1  0  0  0  0
 43 72  1  0  0  0  0
 44 47  1  0  0  0  0
 44 72  1  0  0  0  0
 45 75  1  0  0  0  0
 46 71  1  0  0  0  0
 47 70  1  0  0  0  0
 48 63  1  0  0  0  0
 49 64  1  0  0  0  0
 50 64  1  0  0  0  0
 51 65  1  0  0  0  0
 52 65  1  0  0  0  0
 53 65  1  0  0  0  0
 54 78  1  0  0  0  0
 55 79  1  0  0  0  0
 56 77  1  0  0  0  0
 57 59  1  0  0  0  0
 58 60  1  0  0  0  0
 58 61  1  0  0  0  0
 59 79  1  0  0  0  0
 60 79  1  0  0  0  0
 61 86  1  0  0  0  0
 62 65  1  0  0  0  0
 62 76  1  0  0  0  0
 63 78  1  0  0  0  0
 64 77  1  0  0  0  0
 67 70  1  0  0  0  0
 68 69  1  0  0  0  0
M  CHG  2  78   1  79   1
M  ISO  4  35 100  61 101  77 100  86 101
M  END
> <Batch ID>
0055

> <Smiles>
CNC(C)C(=O)NC(C(=O)N1Cc2cc([101O:1][101CH2:1]CCN(C)CCc3ncc(C[100N:0](C(C)C)[100C:0](=O)N4CCCC(n5nc(-c6ccc(Oc7ccc(F)cc7F)cc6)c(C(N)=O)c5N)C4)nn3)ccc2CC1C(=O)NC1CCCc2ccccc21)C(C)(C)C

> <Shape>
0.214

> <Color>
0.047

> <Negative vol penalty>
0.000

$$$$

  -OEChem-04052317433D

 86 94  0     1  0  0  0  0  0999 V2000
  -32.4317  -30.7378   17.1201 C   0  0  0  0  0  0  0  0  0  0  0  0
  -32.0217  -29.7444   18.0035 C   0  0  0  0  0  0  0  0  0  0  0  0
  -23.7948   -9.5162   20.4607 C   0  0  0  0  0  0  0  0  0  0  0  0
  -24.3628  -10.0781   22.7408 C   0  0  0  0  0  0  0  0  0  0  0  0
  -31.8400  -31.9993   17.1680 C   0  0  0  0  0  0  0  0  0  0  0  0
  -31.0203  -30.0123   18.9362 C   0  0  0  0  0  0  0  0  0  0  0  0
  -27.5929  -26.2959   19.2284 C   0  0  0  0  0  0  0  0  0  0  0  0
  -23.3138   -8.2779   20.8856 C   0  0  0  0  0  0  0  0  0  0  0  0
  -23.8817   -8.8397   23.1658 C   0  0  0  0  0  0  0  0  0  0  0  0
  -27.9489  -25.1565   19.9487 C   0  0  0  0  0  0  0  0  0  0  0  0
  -20.8811   -7.4165   23.7916 C   0  0  0  0  0  0  0  0  0  0  0  0
  -20.0686   -7.3929   24.9251 C   0  0  0  0  0  0  0  0  0  0  0  0
  -26.6885  -25.9656   21.8397 C   0  0  0  0  0  0  0  0  0  0  0  0
  -21.6572   -5.9491   26.0337 C   0  0  0  0  0  0  0  0  0  0  0  0
  -28.3390  -20.4868   22.1683 C   0  0  0  0  0  0  0  0  0  0  0  0
  -24.3194  -10.4163   21.3883 C   0  0  0  0  0  0  0  0  0  0  0  0
  -24.0911  -12.8962   20.8350 C   0  0  0  0  0  0  0  0  0  0  0  0
  -30.8241  -32.2799   18.0954 C   0  0  0  0  0  0  0  0  0  0  0  0
  -26.7896  -27.2855   19.8131 C   0  0  0  0  0  0  0  0  0  0  0  0
  -30.4154  -31.2792   18.9975 C   0  0  0  0  0  0  0  0  0  0  0  0
  -26.3216  -27.1153   21.1238 C   0  0  0  0  0  0  0  0  0  0  0  0
  -23.3571   -7.9396   22.2382 C   0  0  0  0  0  0  0  0  0  0  0  0
  -27.4992  -24.9926   21.2556 C   0  0  0  0  0  0  0  0  0  0  0  0
  -22.0816   -6.7063   23.7791 C   0  0  0  0  0  0  0  0  0  0  0  0
  -20.4567   -6.6592   26.0462 C   0  0  0  0  0  0  0  0  0  0  0  0
  -22.4697   -5.9727   24.9001 C   0  0  0  0  0  0  0  0  0  0  0  0
  -24.8171  -11.6955   20.9498 C   0  0  0  0  0  0  0  0  0  0  0  0
  -28.9180  -21.7687   22.2253 C   0  0  0  0  0  0  0  0  0  0  0  0
  -28.8944  -19.8117   23.2277 C   0  0  0  0  0  0  0  0  0  0  0  0
  -25.0099  -13.8109   20.3816 C   0  0  0  0  0  0  0  0  0  0  0  0
  -22.7097  -13.1609   21.1134 C   0  0  0  0  0  0  0  0  0  0  0  0
  -27.1757  -30.3607   20.5186 C   0  0  0  0  0  0  0  0  0  0  0  0
  -24.0329  -30.1746   21.3002 C   0  0  0  0  0  0  0  0  0  0  0  0
  -21.3971  -28.2327   22.2634 C   0  0  0  0  0  0  0  0  0  0  0  0
  -30.9756  -14.1366   20.7758 C   0  0  0  0  0  0  0  0  0  0  0  0
  -30.2473  -33.6727   18.1409 C   0  0  0  0  0  0  0  0  0  0  0  0
  -26.3923  -28.4960   19.0135 C   0  0  0  0  0  0  0  0  0  0  0  0
  -25.4402  -28.1387   21.7903 C   0  0  0  0  0  0  0  0  0  0  0  0
  -28.9315  -33.7622   18.9097 C   0  0  0  0  0  0  0  0  0  0  0  0
  -29.0246  -14.1201   17.7976 C   0  0  0  0  0  0  0  0  0  0  0  0
  -29.0357  -33.0143   20.2351 C   0  0  0  0  0  0  0  0  0  0  0  0
  -27.6595  -13.6051   18.2574 C   0  0  0  0  0  0  0  0  0  0  0  0
  -30.1670  -13.4331   18.5425 C   0  0  0  0  0  0  0  0  0  0  0  0
  -28.7050  -12.9749   20.4729 C   0  0  0  0  0  0  0  0  0  0  0  0
  -29.3149  -31.5238   20.0070 C   0  0  1  0  0  0  0  0  0  0  0  0
  -25.9937  -29.6831   19.8848 C   0  0  1  0  0  0  0  0  0  0  0  0
  -27.5197  -13.6783   19.7898 C   0  0  2  0  0  0  0  0  0  0  0  0
  -18.9637  -28.3702   22.8610 C   0  0  0  0  0  0  0  0  0  0  0  0
  -24.7699  -31.3383   24.0228 C   0  0  0  0  0  0  0  0  0  0  0  0
  -22.5426  -30.5748   24.8742 C   0  0  0  0  0  0  0  0  0  0  0  0
  -22.6634  -32.2533   23.0328 C   0  0  0  0  0  0  0  0  0  0  0  0
  -31.9521  -16.4371   24.9358 C   0  0  0  0  0  0  0  0  0  0  0  0
  -30.6637  -14.3450   25.3598 C   0  0  0  0  0  0  0  0  0  0  0  0
  -30.5585  -20.4563   24.9967 C   0  0  0  0  0  0  0  0  0  0  0  0
  -20.6291  -26.4450   20.0333 C   0  0  0  0  0  0  0  0  0  0  0  0
  -30.1256  -17.4575   21.9138 C   0  0  0  0  0  0  0  0  0  0  0  0
  -28.6727  -22.9246   21.3006 C   0  0  0  0  0  0  0  0  0  1  0  0
  -28.6979  -18.4312   23.7066 C   0  0  0  0  0  0  0  0  0  0  0  0
  -31.6413  -14.7946   23.0743 C   0  0  0  0  0  0  0  0  0  0  0  0
  -29.6273  -16.1355   23.9645 C   0  0  0  0  0  0  0  0  0  0  0  0
  -23.2611  -29.8437   22.5546 C   0  0  1  0  0  0  0  0  0  0  0  0
  -19.9727  -28.1396   21.7468 C   0  0  2  0  0  0  0  0  0  0  0  0
  -23.3274  -30.9840   23.6095 C   0  0  0  0  0  0  0  0  0  0  0  0
  -30.9618  -15.4347   24.3082 C   0  0  0  0  0  0  0  0  0  0  0  0
  -26.0982  -11.8319   20.5976 N   0  0  0  0  0  0  0  0  0  0  0  0
  -29.7753  -21.9025   23.2407 N   0  0  0  0  0  0  0  0  0  0  0  0
  -29.7391  -20.6960   23.8315 N   0  0  0  0  0  0  0  0  0  0  0  0
  -26.1845  -13.1291   20.2570 N   0  0  0  0  0  0  0  0  0  0  0  0
  -25.0844  -29.3080   20.9695 N   0  0  0  0  0  0  0  0  0  0  0  0
  -29.9751  -13.5400   19.9908 N   0  0  0  0  0  0  0  0  0  0  0  0
  -24.9195  -15.1240   20.0814 N   0  0  0  0  0  0  0  0  0  0  0  0
  -21.9068  -12.1077   21.5721 N   0  0  0  0  0  0  0  0  0  0  0  0
  -28.1035  -30.8374   19.6123 N   0  0  0  0  0  0  0  0  0  0  0  0
  -21.9086  -29.5056   22.1244 N   0  0  0  0  0  0  0  0  0  0  0  0
  -30.7111  -14.2035   22.1383 N   0  0  0  0  0  0  0  0  0  0  0  0
  -19.7224  -26.7940   21.1572 N   0  3  0  0  0  0  0  0  0  0  0  0
  -29.8327  -17.5100   23.3885 N   0  3  1  0  0  0  0  0  0  0  0  0
  -22.1986  -14.2939   20.9442 O   0  0  0  0  0  0  0  0  0  0  0  0
  -27.2403  -30.4460   21.7393 O   0  0  0  0  0  0  0  0  0  0  0  0
  -23.7102  -31.1615   20.6342 O   0  0  0  0  0  0  0  0  0  0  0  0
  -21.9948  -27.2732   22.7457 O   0  0  0  0  0  0  0  0  0  0  0  0
  -32.0243  -14.5817   20.2972 O   0  0  0  0  0  0  0  0  0  0  0  0
  -22.8875   -6.7314   22.6532 O   0  0  0  0  0  0  0  0  0  0  0  0
  -27.8458  -23.8818   21.9611 O   0  0  0  0  0  0  0  0  0  1  0  0
  -19.6771   -6.6379   27.1352 F   0  0  0  0  0  0  0  0  0  0  0  0
  -23.6225   -5.2894   24.8945 F   0  0  0  0  0  0  0  0  0  0  0  0
  1  2  1  0  0  0  0
  1  5  2  0  0  0  0
  2  6  2  0  0  0  0
  3  8  2  0  0  0  0
  3 16  1  0  0  0  0
  4  9  1  0  0  0  0
  4 16  2  0  0  0  0
  5 18  1  0  0  0  0
  6 20  1  0  0  0  0
  7 10  2  0  0  0  0
  7 19  1  0  0  0  0
  8 22  1  0  0  0  0
  9 22  2  0  0  0  0
 10 23  1  0  0  0  0
 11 12  2  0  0  0  0
 11 24  1  0  0  0  0
 12 25  1  0  0  0  0
 13 21  1  0  0  0  0
 13 23  2  0  0  0  0
 14 25  2  0  0  0  0
 14 26  1  0  0  0  0
 15 28  1  0  0  0  0
 15 29  2  0  0  0  0
 16 27  1  0  0  0  0
 17 27  1  0  0  0  0
 17 30  2  0  0  0  0
 17 31  1  0  0  0  0
 18 20  2  0  0  0  0
 18 36  1  0  0  0  0
 19 21  2  0  0  0  0
 19 37  1  0  0  0  0
 20 45  1  0  0  0  0
 21 38  1  0  0  0  0
 22 83  1  0  0  0  0
 23 84  1  0  0  0  0
 24 26  2  0  0  0  0
 24 83  1  0  0  0  0
 25 85  1  0  0  0  0
 26 86  1  0  0  0  0
 27 65  2  0  0  0  0
 28 57  1  0  0  0  0
 28 66  2  0  0  0  0
 29 58  1  0  0  0  0
 29 67  1  0  0  0  0
 30 68  1  0  0  0  0
 30 71  1  0  0  0  0
 31 72  1  0  0  0  0
 31 78  2  0  0  0  0
 32 46  1  0  0  0  0
 32 73  1  0  0  0  0
 32 79  2  0  0  0  0
 33 61  1  0  0  0  0
 33 69  1  0  0  0  0
 33 80  2  0  0  0  0
 34 62  1  0  0  0  0
 34 74  1  0  0  0  0
 34 81  2  0  0  0  0
 35 70  1  0  0  0  0
 35 75  1  0  0  0  0
 35 82  2  0  0  0  0
 36 39  1  0  0  0  0
 37 46  1  0  0  0  0
 38 69  1  0  0  0  0
 39 41  1  0  0  0  0
 40 42  1  0  0  0  0
 40 43  1  0  0  0  0
 41 45  1  0  0  0  0
 42 47  1  0  0  0  0
 43 70  1  0  0  0  0
 44 47  1  0  0  0  0
 44 70  1  0  0  0  0
 45 73  1  0  0  0  0
 46 69  1  0  0  0  0
 47 68  1  0  0  0  0
 48 62  1  0  0  0  0
 49 63  1  0  0  0  0
 50 63  1  0  0  0  0
 51 63  1  0  0  0  0
 52 64  1  0  0  0  0
 53 64  1  0  0  0  0
 54 67  1  0  0  0  0
 55 76  1  0  0  0  0
 56 77  1  0  0  0  0
 57 84  1  0  0  0  0
 58 77  1  0  0  0  0
 59 64  1  0  0  0  0
 59 75  1  0  0  0  0
 60 64  1  0  0  0  0
 60 77  1  0  0  0  0
 61 63  1  0  0  0  0
 61 74  1  0  0  0  0
 62 76  1  0  0  0  0
 65 68  1  0  0  0  0
 66 67  1  0  0  0  0
M  CHG  2  76   1  77   1
M  ISO  4  35 100  57 101  75 100  84 101
M  END
> <Batch ID>
0055

> <Smiles>
CNC(C)C(=O)NC(C(=O)N1Cc2cc([101O:1][101CH2:1]c3cc(CN(C)CC(C)(C)C[100NH:0][100C:0](=O)N4CCCC(n5nc(-c6ccc(Oc7ccc(F)cc7F)cc6)c(C(N)=O)c5N)C4)n(C)n3)ccc2CC1C(=O)NC1CCCc2ccccc21)C(C)(C)C

> <Shape>
0.295

> <Color>
0.163

> <Negative vol penalty>
0.000

$$$$

  -OEChem-04052317433D

 88 96  0     1  0  0  0  0  0999 V2000
  -32.2672  -14.5851   20.3095 C   0  0  0  0  0  0  0  0  0  0  0  0
  -31.3587  -15.6272   20.4647 C   0  0  0  0  0  0  0  0  0  0  0  0
  -28.6859  -27.0718   21.5315 C   0  0  0  0  0  0  0  0  0  0  0  0
  -26.8596  -25.6074   20.9337 C   0  0  0  0  0  0  0  0  0  0  0  0
  -31.8131  -13.3096   19.9766 C   0  0  0  0  0  0  0  0  0  0  0  0
  -29.9955  -15.3946   20.2859 C   0  0  0  0  0  0  0  0  0  0  0  0
  -25.3806  -18.0380   23.3224 C   0  0  0  0  0  0  0  0  0  0  0  0
  -29.4002  -25.9798   22.0243 C   0  0  0  0  0  0  0  0  0  0  0  0
  -27.5739  -24.5154   21.4264 C   0  0  0  0  0  0  0  0  0  0  0  0
  -24.5377  -19.1026   23.0063 C   0  0  0  0  0  0  0  0  0  0  0  0
  -29.0650  -21.2905   22.1980 C   0  0  0  0  0  0  0  0  0  0  0  0
  -29.0926  -20.1303   21.4243 C   0  0  0  0  0  0  0  0  0  0  0  0
  -22.8788  -17.5441   22.2073 C   0  0  0  0  0  0  0  0  0  0  0  0
  -30.1278  -21.3585   19.6195 C   0  0  0  0  0  0  0  0  0  0  0  0
  -19.4412  -25.3869   23.0087 C   0  0  0  0  0  0  0  0  0  0  0  0
  -27.4155  -26.8856   20.9863 C   0  0  0  0  0  0  0  0  0  0  0  0
  -26.6986  -28.5218   19.1651 C   0  0  0  0  0  0  0  0  0  0  0  0
  -30.4427  -13.0591   19.8032 C   0  0  0  0  0  0  0  0  0  0  0  0
  -24.9827  -16.7167   23.0728 C   0  0  0  0  0  0  0  0  0  0  0  0
  -29.5227  -14.1148   19.9490 C   0  0  0  0  0  0  0  0  0  0  0  0
  -23.7175  -16.4644   22.5235 C   0  0  0  0  0  0  0  0  0  0  0  0
  -28.8443  -24.7015   21.9716 C   0  0  0  0  0  0  0  0  0  0  0  0
  -23.2877  -18.8559   22.4460 C   0  0  0  0  0  0  0  0  0  0  0  0
  -29.5686  -22.4848   21.6824 C   0  0  0  0  0  0  0  0  0  0  0  0
  -29.6241  -20.1642   20.1351 C   0  0  0  0  0  0  0  0  0  0  0  0
  -30.1000  -22.5188   20.3932 C   0  0  0  0  0  0  0  0  0  0  0  0
  -26.6769  -28.0134   20.4777 C   0  0  0  0  0  0  0  0  0  0  0  0
  -19.5363  -25.1131   21.6621 C   0  0  0  0  0  0  0  0  0  0  0  0
  -20.6589  -27.0796   21.3416 C   0  0  0  0  0  0  0  0  0  0  0  0
  -20.5631  -27.3536   22.6882 C   0  0  0  0  0  0  0  0  0  0  0  0
  -25.8330  -29.5877   19.1953 C   0  0  0  0  0  0  0  0  0  0  0  0
  -27.4354  -28.0708   18.0208 C   0  0  0  0  0  0  0  0  0  0  0  0
  -26.0718  -14.3528   21.2482 C   0  0  0  0  0  0  0  0  0  0  0  0
  -23.7606  -12.6469   22.7550 C   0  0  0  0  0  0  0  0  0  0  0  0
  -20.7939  -12.6473   24.4420 C   0  0  0  0  0  0  0  0  0  0  0  0
  -21.1842  -31.0170   22.5154 C   0  0  0  0  0  0  0  0  0  0  0  0
  -30.0036  -11.6745   19.3973 C   0  0  0  0  0  0  0  0  0  0  0  0
  -25.8927  -15.5782   23.4442 C   0  0  0  0  0  0  0  0  0  0  0  0
  -23.2348  -15.0633   22.2546 C   0  0  0  0  0  0  0  0  0  0  0  0
  -28.5100  -11.4274   19.5931 C   0  0  0  0  0  0  0  0  0  0  0  0
  -24.0671  -32.9075   22.1397 C   0  0  0  0  0  0  0  0  0  0  0  0
  -27.6989  -12.5974   19.0452 C   0  0  0  0  0  0  0  0  0  0  0  0
  -25.0759  -31.9252   21.5461 C   0  0  0  0  0  0  0  0  0  0  0  0
  -23.2216  -32.2360   23.2153 C   0  0  0  0  0  0  0  0  0  0  0  0
  -23.4905  -30.0247   22.1387 C   0  0  0  0  0  0  0  0  0  0  0  0
  -28.0339  -13.8966   19.7878 C   0  0  1  0  0  0  0  0  0  0  0  0
  -25.5932  -14.2974   22.6714 C   0  0  1  0  0  0  0  0  0  0  0  0
  -24.3742  -30.6522   21.0412 C   0  0  2  0  0  0  0  0  0  0  0  0
  -21.3375  -28.0187   20.4039 C   0  0  0  0  0  0  0  0  0  0  0  0
  -19.1370  -11.0970   25.5137 C   0  0  0  0  0  0  0  0  0  0  0  0
  -22.6696  -28.7927   23.0889 C   0  0  0  0  0  0  0  0  0  0  0  0
  -20.8640  -28.6640   24.8007 C   0  0  0  0  0  0  0  0  0  0  0  0
  -22.7248  -11.8515   19.9974 C   0  0  0  0  0  0  0  0  0  0  0  0
  -20.5879  -11.1306   21.0847 C   0  0  0  0  0  0  0  0  0  0  0  0
  -22.7315  -10.0034   21.6823 C   0  0  0  0  0  0  0  0  0  0  0  0
  -19.0817  -29.7298   22.4924 C   0  0  0  0  0  0  0  0  0  0  0  0
  -21.1778  -13.8883   27.1012 C   0  0  0  0  0  0  0  0  0  0  0  0
  -19.3465  -22.0853   19.3869 C   0  0  0  0  0  0  0  0  0  0  0  0
  -18.9538  -23.8504   21.0989 C   0  0  0  0  0  0  0  0  0  0  0  0
  -22.1610  -21.8704   20.8121 C   0  0  0  0  0  0  0  0  0  0  0  0
  -20.8012  -22.2090   21.4044 C   0  0  0  0  0  0  0  0  0  0  0  0
  -23.0807  -21.1276   21.7735 C   0  0  0  0  0  0  0  0  0  1  0  0
  -22.3019  -12.3591   22.4933 C   0  0  1  0  0  0  0  0  0  0  0  0
  -20.3670  -11.9651   25.7291 C   0  0  2  0  0  0  0  0  0  0  0  0
  -21.1335  -28.6019   23.2700 C   0  0  0  0  0  0  0  0  0  0  0  0
  -22.0961  -11.3628   21.3176 C   0  0  0  0  0  0  0  0  0  0  0  0
  -19.9528  -26.5121   23.5460 N   0  0  0  0  0  0  0  0  0  0  0  0
  -25.8620  -28.6999   21.2831 N   0  0  0  0  0  0  0  0  0  0  0  0
  -20.1469  -25.9546   20.8043 N   0  0  0  0  0  0  0  0  0  0  0  0
  -25.3638  -29.6507   20.4745 N   0  0  0  0  0  0  0  0  0  0  0  0
  -24.1634  -13.9840   22.6292 N   0  0  0  0  0  0  0  0  0  0  0  0
  -22.5744  -31.0280   22.7027 N   0  0  0  0  0  0  0  0  0  0  0  0
  -25.4350  -30.4679   18.2524 N   0  0  0  0  0  0  0  0  0  0  0  0
  -28.2793  -26.9610   18.1644 N   0  0  0  0  0  0  0  0  0  0  0  0
  -27.3750  -13.9268   21.0759 N   0  0  0  0  0  0  0  0  0  0  0  0
  -21.7403  -11.9098   23.7626 N   0  0  0  0  0  0  0  0  0  0  0  0
  -20.5259  -29.7875   22.6687 N   0  0  0  0  0  0  0  0  0  0  0  0
  -20.0487  -12.9804   26.7726 N   0  3  0  0  0  0  0  0  0  0  0  0
  -19.9831  -22.9703   20.4314 N   0  3  1  0  0  0  0  0  0  0  0  0
  -27.3606  -28.6453   16.9082 O   0  0  0  0  0  0  0  0  0  0  0  0
  -25.3144  -14.7511   20.3711 O   0  0  0  0  0  0  0  0  0  0  0  0
  -24.5132  -11.7207   23.0668 O   0  0  0  0  0  0  0  0  0  0  0  0
  -20.3311  -13.7248   24.0740 O   0  0  0  0  0  0  0  0  0  0  0  0
  -20.5629  -32.0500   22.2342 O   0  0  0  0  0  0  0  0  0  0  0  0
  -29.5411  -23.6357   22.4521 O   0  0  0  0  0  0  0  0  0  0  0  0
  -22.4633  -19.8932   22.1359 O   0  0  0  0  0  0  0  0  0  1  0  0
  -29.6520  -19.0496   19.3928 F   0  0  0  0  0  0  0  0  0  0  0  0
  -30.5865  -23.6628   19.8930 F   0  0  0  0  0  0  0  0  0  0  0  0
  1  2  1  0  0  0  0
  1  5  2  0  0  0  0
  2  6  2  0  0  0  0
  3  8  2  0  0  0  0
  3 16  1  0  0  0  0
  4  9  1  0  0  0  0
  4 16  2  0  0  0  0
  5 18  1  0  0  0  0
  6 20  1  0  0  0  0
  7 10  2  0  0  0  0
  7 19  1  0  0  0  0
  8 22  1  0  0  0  0
  9 22  2  0  0  0  0
 10 23  1  0  0  0  0
 11 12  2  0  0  0  0
 11 24  1  0  0  0  0
 12 25  1  0  0  0  0
 13 21  1  0  0  0  0
 13 23  2  0  0  0  0
 14 25  2  0  0  0  0
 14 26  1  0  0  0  0
 15 28  1  0  0  0  0
 15 67  2  0  0  0  0
 16 27  1  0  0  0  0
 17 27  1  0  0  0  0
 17 31  2  0  0  0  0
 17 32  1  0  0  0  0
 18 20  2  0  0  0  0
 18 37  1  0  0  0  0
 19 21  2  0  0  0  0
 19 38  1  0  0  0  0
 20 46  1  0  0  0  0
 21 39  1  0  0  0  0
 22 85  1  0  0  0  0
 23 86  1  0  0  0  0
 24 26  2  0  0  0  0
 24 85  1  0  0  0  0
 25 87  1  0  0  0  0
 26 88  1  0  0  0  0
 27 68  2  0  0  0  0
 28 59  1  0  0  0  0
 28 69  2  0  0  0  0
 29 30  2  0  0  0  0
 29 49  1  0  0  0  0
 29 69  1  0  0  0  0
 30 65  1  0  0  0  0
 30 67  1  0  0  0  0
 31 70  1  0  0  0  0
 31 73  1  0  0  0  0
 32 74  1  0  0  0  0
 32 80  2  0  0  0  0
 33 47  1  0  0  0  0
 33 75  1  0  0  0  0
 33 81  2  0  0  0  0
 34 63  1  0  0  0  0
 34 71  1  0  0  0  0
 34 82  2  0  0  0  0
 35 64  1  0  0  0  0
 35 76  1  0  0  0  0
 35 83  2  0  0  0  0
 36 72  1  0  0  0  0
 36 77  1  0  0  0  0
 36 84  2  0  0  0  0
 37 40  1  0  0  0  0
 38 47  1  0  0  0  0
 39 71  1  0  0  0  0
 40 42  1  0  0  0  0
 41 43  1  0  0  0  0
 41 44  1  0  0  0  0
 42 46  1  0  0  0  0
 43 48  1  0  0  0  0
 44 72  1  0  0  0  0
 45 48  1  0  0  0  0
 45 72  1  0  0  0  0
 46 75  1  0  0  0  0
 47 71  1  0  0  0  0
 48 70  1  0  0  0  0
 50 64  1  0  0  0  0
 51 65  1  0  0  0  0
 52 65  1  0  0  0  0
 53 66  1  0  0  0  0
 54 66  1  0  0  0  0
 55 66  1  0  0  0  0
 56 77  1  0  0  0  0
 57 78  1  0  0  0  0
 58 79  1  0  0  0  0
 59 79  1  0  0  0  0
 60 61  1  0  0  0  0
 60 62  1  0  0  0  0
 61 79  1  0  0  0  0
 62 86  1  0  0  0  0
 63 66  1  0  0  0  0
 63 76  1  0  0  0  0
 64 78  1  0  0  0  0
 65 77  1  0  0  0  0
 68 70  1  0  0  0  0
M  CHG  2  78   1  79   1
M  ISO  4  36 100  62 101  77 100  86 101
M  END
> <Batch ID>
0055

> <Smiles>
CNC(C)C(=O)NC(C(=O)N1Cc2cc([101O:1][101CH2:1]CCN(C)Cc3cnc(C(C)(C)[100N:0](C)[100C:0](=O)N4CCCC(n5nc(-c6ccc(Oc7ccc(F)cc7F)cc6)c(C(N)=O)c5N)C4)c(C)n3)ccc2CC1C(=O)NC1CCCc2ccccc21)C(C)(C)C

> <Shape>
0.262

> <Color>
0.047

> <Negative vol penalty>
0.000

$$$$

  -OEChem-04052317433D

 80 88  0     1  0  0  0  0  0999 V2000
  -28.0997  -10.3762   19.1379 C   0  0  0  0  0  0  0  0  0  0  0  0
  -28.5541  -11.6393   18.7724 C   0  0  0  0  0  0  0  0  0  0  0  0
  -23.0026  -29.6070   21.5555 C   0  0  0  0  0  0  0  0  0  0  0  0
  -22.4576  -28.6070   19.4247 C   0  0  0  0  0  0  0  0  0  0  0  0
  -26.8977  -10.2428   19.8316 C   0  0  0  0  0  0  0  0  0  0  0  0
  -27.8060  -12.7697   19.0994 C   0  0  0  0  0  0  0  0  0  0  0  0
  -29.9603  -18.3025   20.6003 C   0  0  0  0  0  0  0  0  0  0  0  0
  -21.6768  -30.0141   21.7036 C   0  0  0  0  0  0  0  0  0  0  0  0
  -21.1317  -29.0141   19.5729 C   0  0  0  0  0  0  0  0  0  0  0  0
  -30.1292  -19.4746   19.8644 C   0  0  0  0  0  0  0  0  0  0  0  0
  -18.3581  -31.0024   22.8101 C   0  0  0  0  0  0  0  0  0  0  0  0
  -17.7527  -30.8016   24.0506 C   0  0  0  0  0  0  0  0  0  0  0  0
  -28.0054  -20.2822   20.6748 C   0  0  0  0  0  0  0  0  0  0  0  0
  -18.1233  -28.4229   23.8463 C   0  0  0  0  0  0  0  0  0  0  0  0
  -28.1256  -24.1159   17.1671 C   0  0  0  0  0  0  0  0  0  0  0  0
  -23.3931  -28.9035   20.4160 C   0  0  0  0  0  0  0  0  0  0  0  0
  -25.3316  -27.2675   20.6869 C   0  0  0  0  0  0  0  0  0  0  0  0
  -26.1393  -11.3729   20.1757 C   0  0  0  0  0  0  0  0  0  0  0  0
  -28.8057  -18.1065   21.3716 C   0  0  0  0  0  0  0  0  0  0  0  0
  -26.5920  -12.6512   19.7972 C   0  0  0  0  0  0  0  0  0  0  0  0
  -27.8255  -19.1079   21.4215 C   0  0  0  0  0  0  0  0  0  0  0  0
  -20.7413  -29.7177   20.7123 C   0  0  0  0  0  0  0  0  0  0  0  0
  -29.1504  -20.4634   19.8993 C   0  0  0  0  0  0  0  0  0  0  0  0
  -18.8460  -29.9135   22.0877 C   0  0  0  0  0  0  0  0  0  0  0  0
  -17.6353  -29.5118   24.5687 C   0  0  0  0  0  0  0  0  0  0  0  0
  -18.7286  -28.6237   22.6058 C   0  0  0  0  0  0  0  0  0  0  0  0
  -24.7626  -28.4831   20.2622 C   0  0  0  0  0  0  0  0  0  0  0  0
  -28.6181  -23.7461   18.3868 C   0  0  0  0  0  0  0  0  0  0  0  0
  -26.6490  -27.3542   20.3083 C   0  0  0  0  0  0  0  0  0  0  0  0
  -29.6598  -25.5968   17.7620 C   0  0  0  0  0  0  0  0  0  0  0  0
  -24.7236  -26.1590   21.3631 C   0  0  0  0  0  0  0  0  0  0  0  0
  -26.4264  -15.9989   21.3524 C   0  0  0  0  0  0  0  0  0  0  0  0
  -25.5595  -17.5382   24.0729 C   0  0  0  0  0  0  0  0  0  0  0  0
  -25.6771  -20.3821   25.9557 C   0  0  0  0  0  0  0  0  0  0  0  0
  -30.2352  -28.6809   16.1015 C   0  0  0  0  0  0  0  0  0  0  0  0
  -24.8228  -11.1752   20.8845 C   0  0  0  0  0  0  0  0  0  0  0  0
  -28.6509  -16.8480   22.1807 C   0  0  0  0  0  0  0  0  0  0  0  0
  -26.5770  -18.9549   22.2500 C   0  0  0  0  0  0  0  0  0  0  0  0
  -24.2763  -12.4505   21.5212 C   0  0  0  0  0  0  0  0  0  0  0  0
  -29.3526  -31.2628   18.6028 C   0  0  0  0  0  0  0  0  0  0  0  0
  -24.3649  -13.6165   20.5417 C   0  0  0  0  0  0  0  0  0  0  0  0
  -28.0849  -30.6928   19.2368 C   0  0  0  0  0  0  0  0  0  0  0  0
  -29.5260  -30.7941   17.1614 C   0  0  0  0  0  0  0  0  0  0  0  0
  -28.2257  -28.7449   17.6349 C   0  0  0  0  0  0  0  0  0  0  0  0
  -25.8210  -13.9031   20.1555 C   0  0  1  0  0  0  0  0  0  0  0  0
  -27.1983  -16.5340   22.5251 C   0  0  1  0  0  0  0  0  0  0  0  0
  -28.0455  -29.1606   19.1026 C   0  0  2  0  0  0  0  0  0  0  0  0
  -24.8407  -21.3519   28.1138 C   0  0  0  0  0  0  0  0  0  0  0  0
  -22.7999  -17.9207   22.8286 C   0  0  0  0  0  0  0  0  0  0  0  0
  -22.3363  -19.6653   24.5634 C   0  0  0  0  0  0  0  0  0  0  0  0
  -22.7752  -17.3086   25.2533 C   0  0  0  0  0  0  0  0  0  0  0  0
  -30.3483  -24.6793   19.9524 C   0  0  0  0  0  0  0  0  0  0  0  0
  -31.4921  -26.6611   15.4534 C   0  0  0  0  0  0  0  0  0  0  0  0
  -28.4259  -20.7652   26.9834 C   0  0  0  0  0  0  0  0  0  0  0  0
  -28.2699  -22.5792   19.2634 C   0  0  0  0  0  0  0  0  0  1  0  0
  -30.5605  -26.7758   17.7348 C   0  0  0  0  0  0  0  0  0  0  0  0
  -24.6859  -18.7259   24.3973 C   0  0  1  0  0  0  0  0  0  0  0  0
  -25.9734  -20.6040   27.4279 C   0  0  2  0  0  0  0  0  0  0  0  0
  -23.1719  -18.4075   24.2434 C   0  0  0  0  0  0  0  0  0  0  0  0
  -25.6463  -29.2835   19.6600 N   0  0  0  0  0  0  0  0  0  0  0  0
  -29.5659  -24.6798   18.7304 N   0  0  0  0  0  0  0  0  0  0  0  0
  -26.7839  -28.5693   19.7036 N   0  0  0  0  0  0  0  0  0  0  0  0
  -28.7877  -25.2641   16.8048 N   0  3  0  0  0  0  0  0  0  0  0  0
  -26.4688  -17.7038   23.0186 N   0  0  0  0  0  0  0  0  0  0  0  0
  -29.4413  -29.3370   17.0566 N   0  0  0  0  0  0  0  0  0  0  0  0
  -27.6937  -26.5089   20.4369 N   0  0  0  0  0  0  0  0  0  0  0  0
  -23.3598  -26.2346   21.6774 N   0  0  0  0  0  0  0  0  0  0  0  0
  -26.4921  -14.6254   21.2149 N   0  0  0  0  0  0  0  0  0  0  0  0
  -25.0717  -19.1632   25.7345 N   0  0  0  0  0  0  0  0  0  0  0  0
  -30.6577  -27.3783   16.4070 N   0  0  0  0  0  0  0  0  0  0  0  0
  -27.2256  -21.3954   27.5908 N   0  3  0  0  0  0  0  0  0  0  0  0
  -25.3742  -25.1389   21.6939 O   0  0  0  0  0  0  0  0  0  0  0  0
  -25.8151  -16.7744   20.6267 O   0  0  0  0  0  0  0  0  0  0  0  0
  -25.4445  -16.5040   24.7354 O   0  0  0  0  0  0  0  0  0  0  0  0
  -25.9517  -21.2092   25.0890 O   0  0  0  0  0  0  0  0  0  0  0  0
  -30.5564  -29.2318   15.0408 O   0  0  0  0  0  0  0  0  0  0  0  0
  -19.4474  -30.1146   20.8566 O   0  0  0  0  0  0  0  0  0  0  0  0
  -29.3124  -21.6082   19.1815 O   0  0  0  0  0  0  0  0  0  1  0  0
  -17.0554  -29.3193   25.7607 F   0  0  0  0  0  0  0  0  0  0  0  0
  -19.1965  -27.5738   21.9169 F   0  0  0  0  0  0  0  0  0  0  0  0
  1  2  1  0  0  0  0
  1  5  2  0  0  0  0
  2  6  2  0  0  0  0
  3  8  2  0  0  0  0
  3 16  1  0  0  0  0
  4  9  1  0  0  0  0
  4 16  2  0  0  0  0
  5 18  1  0  0  0  0
  6 20  1  0  0  0  0
  7 10  2  0  0  0  0
  7 19  1  0  0  0  0
  8 22  1  0  0  0  0
  9 22  2  0  0  0  0
 10 23  1  0  0  0  0
 11 12  2  0  0  0  0
 11 24  1  0  0  0  0
 12 25  1  0  0  0  0
 13 21  1  0  0  0  0
 13 23  2  0  0  0  0
 14 25  2  0  0  0  0
 14 26  1  0  0  0  0
 15 28  2  0  0  0  0
 15 63  1  0  0  0  0
 16 27  1  0  0  0  0
 17 27  1  0  0  0  0
 17 29  2  0  0  0  0
 17 31  1  0  0  0  0
 18 20  2  0  0  0  0
 18 36  1  0  0  0  0
 19 21  2  0  0  0  0
 19 37  1  0  0  0  0
 20 45  1  0  0  0  0
 21 38  1  0  0  0  0
 22 77  1  0  0  0  0
 23 78  1  0  0  0  0
 24 26  2  0  0  0  0
 24 77  1  0  0  0  0
 25 79  1  0  0  0  0
 26 80  1  0  0  0  0
 27 60  2  0  0  0  0
 28 55  1  0  0  0  0
 28 61  1  0  0  0  0
 29 62  1  0  0  0  0
 29 66  1  0  0  0  0
 30 56  1  0  0  0  0
 30 61  1  0  0  0  0
 30 63  2  0  0  0  0
 31 67  1  0  0  0  0
 31 72  2  0  0  0  0
 32 46  1  0  0  0  0
 32 68  1  0  0  0  0
 32 73  2  0  0  0  0
 33 57  1  0  0  0  0
 33 64  1  0  0  0  0
 33 74  2  0  0  0  0
 34 58  1  0  0  0  0
 34 69  1  0  0  0  0
 34 75  2  0  0  0  0
 35 65  1  0  0  0  0
 35 70  1  0  0  0  0
 35 76  2  0  0  0  0
 36 39  1  0  0  0  0
 37 46  1  0  0  0  0
 38 64  1  0  0  0  0
 39 41  1  0  0  0  0
 40 42  1  0  0  0  0
 40 43  1  0  0  0  0
 41 45  1  0  0  0  0
 42 47  1  0  0  0  0
 43 65  1  0  0  0  0
 44 47  1  0  0  0  0
 44 65  1  0  0  0  0
 45 68  1  0  0  0  0
 46 64  1  0  0  0  0
 47 62  1  0  0  0  0
 48 58  1  0  0  0  0
 49 59  1  0  0  0  0
 50 59  1  0  0  0  0
 51 59  1  0  0  0  0
 52 61  1  0  0  0  0
 53 70  1  0  0  0  0
 54 71  1  0  0  0  0
 55 78  1  0  0  0  0
 56 70  1  0  0  0  0
 57 59  1  0  0  0  0
 57 69  1  0  0  0  0
 58 71  1  0  0  0  0
 60 62  1  0  0  0  0
M  CHG  2  63   1  71   1
M  ISO  4  35 100  55 101  70 100  78 101
M  END
> <Batch ID>
0055

> <Smiles>
CNC(C)C(=O)NC(C(=O)N1Cc2cc([101O:1][101CH2:1]c3cnc(C[100N:0](C)[100C:0](=O)N4CCCC(n5nc(-c6ccc(Oc7ccc(F)cc7F)cc6)c(C(N)=O)c5N)C4)n3C)ccc2CC1C(=O)NC1CCCc2ccccc21)C(C)(C)C

> <Shape>
0.219

> <Color>
0.070

> <Negative vol penalty>
0.000

$$$$

  -OEChem-04052317433D

 85 93  0     1  0  0  0  0  0999 V2000
  -26.2218  -20.1380   16.9343 C   0  0  0  0  0  0  0  0  0  0  0  0
  -25.8806  -20.4931   18.2344 C   0  0  0  0  0  0  0  0  0  0  0  0
  -29.5717  -17.7142   19.2206 C   0  0  0  0  0  0  0  0  0  0  0  0
  -31.0134  -18.0540   21.1292 C   0  0  0  0  0  0  0  0  0  0  0  0
  -26.3405  -21.1222   15.9553 C   0  0  0  0  0  0  0  0  0  0  0  0
  -25.6465  -21.8312   18.5534 C   0  0  0  0  0  0  0  0  0  0  0  0
  -23.9469  -22.7877   23.0700 C   0  0  0  0  0  0  0  0  0  0  0  0
  -29.9684  -16.3784   19.1587 C   0  0  0  0  0  0  0  0  0  0  0  0
  -31.4101  -16.7181   21.0674 C   0  0  0  0  0  0  0  0  0  0  0  0
  -24.7380  -22.6750   24.2125 C   0  0  0  0  0  0  0  0  0  0  0  0
  -30.3279  -12.7875   18.7211 C   0  0  0  0  0  0  0  0  0  0  0  0
  -29.3362  -11.8245   18.5349 C   0  0  0  0  0  0  0  0  0  0  0  0
  -24.9538  -25.0763   24.2926 C   0  0  0  0  0  0  0  0  0  0  0  0
  -28.2682  -12.5278   20.5847 C   0  0  0  0  0  0  0  0  0  0  0  0
  -29.7704  -27.4552   24.4116 C   0  0  0  0  0  0  0  0  0  0  0  0
  -30.9570  -25.2131   25.2435 C   0  0  0  0  0  0  0  0  0  0  0  0
  -30.0943  -18.5520   20.2058 C   0  0  0  0  0  0  0  0  0  0  0  0
  -28.6018  -20.4650   20.9937 C   0  0  0  0  0  0  0  0  0  0  0  0
  -26.1197  -22.4741   16.2661 C   0  0  0  0  0  0  0  0  0  0  0  0
  -23.6619  -24.0470   22.5230 C   0  0  0  0  0  0  0  0  0  0  0  0
  -25.7379  -22.8366   17.5739 C   0  0  0  0  0  0  0  0  0  0  0  0
  -24.1567  -25.2024   23.1446 C   0  0  0  0  0  0  0  0  0  0  0  0
  -30.8876  -15.8803   20.0821 C   0  0  0  0  0  0  0  0  0  0  0  0
  -25.2439  -23.8192   24.8223 C   0  0  0  0  0  0  0  0  0  0  0  0
  -30.2898  -13.6207   19.8392 C   0  0  0  0  0  0  0  0  0  0  0  0
  -28.3063  -11.6946   19.4666 C   0  0  0  0  0  0  0  0  0  0  0  0
  -29.2600  -13.4909   20.7709 C   0  0  0  0  0  0  0  0  0  0  0  0
  -29.6853  -19.9321   20.2699 C   0  0  0  0  0  0  0  0  0  0  0  0
  -30.8344  -26.9163   23.7225 C   0  0  0  0  0  0  0  0  0  0  0  0
  -29.8934  -25.7523   25.9331 C   0  0  0  0  0  0  0  0  0  0  0  0
  -28.6396  -21.8117   20.7265 C   0  0  0  0  0  0  0  0  0  0  0  0
  -27.6467  -19.8019   21.8326 C   0  0  0  0  0  0  0  0  0  0  0  0
  -24.2615  -25.4748   19.7471 C   0  0  0  0  0  0  0  0  0  0  0  0
  -22.3739  -27.8056   20.9827 C   0  0  0  0  0  0  0  0  0  0  0  0
  -21.0757  -29.3176   23.7531 C   0  0  0  0  0  0  0  0  0  0  0  0
  -31.9392  -26.4286   20.3893 C   0  0  0  0  0  0  0  0  0  0  0  0
  -26.2542  -23.4974   15.1661 C   0  0  0  0  0  0  0  0  0  0  0  0
  -22.7849  -24.1532   21.3056 C   0  0  0  0  0  0  0  0  0  0  0  0
  -23.8630  -26.5790   22.6086 C   0  0  0  0  0  0  0  0  0  0  0  0
  -26.4230  -24.9185   15.6935 C   0  0  0  0  0  0  0  0  0  0  0  0
  -31.2995  -24.4400   17.3336 C   0  0  0  0  0  0  0  0  0  0  0  0
  -25.3573  -25.2154   16.7378 C   0  0  0  0  0  0  0  0  0  0  0  0
  -30.8016  -23.1110   17.8992 C   0  0  0  0  0  0  0  0  0  0  0  0
  -32.2425  -25.1500   18.3002 C   0  0  0  0  0  0  0  0  0  0  0  0
  -31.1729  -24.0248   20.2247 C   0  0  0  0  0  0  0  0  0  0  0  0
  -25.5084  -24.2890   17.9510 C   0  0  1  0  0  0  0  0  0  0  0  0
  -22.9838  -25.4562   20.5376 C   0  0  1  0  0  0  0  0  0  0  0  0
  -30.1839  -23.3058   19.2948 C   0  0  2  0  0  0  0  0  0  0  0  0
  -29.1533  -28.2876   20.3559 C   0  0  0  0  0  0  0  0  0  0  0  0
  -19.5956  -31.2217   24.4470 C   0  0  0  0  0  0  0  0  0  0  0  0
  -30.4414  -24.2988   28.0013 C   0  0  0  0  0  0  0  0  0  0  0  0
  -28.8201  -26.1674   28.1574 C   0  0  0  0  0  0  0  0  0  0  0  0
  -24.6330  -29.7715   20.3983 C   0  0  0  0  0  0  0  0  0  0  0  0
  -23.5176  -31.4026   21.9355 C   0  0  0  0  0  0  0  0  0  0  0  0
  -22.3426  -30.6289   19.8755 C   0  0  0  0  0  0  0  0  0  0  0  0
  -19.1404  -27.4928   25.0506 C   0  0  0  0  0  0  0  0  0  0  0  0
  -31.3492  -27.5754   22.4909 C   0  0  0  0  0  0  0  0  0  0  0  0
  -28.1906  -24.0954   26.8769 C   0  0  0  0  0  0  0  0  0  0  0  0
  -29.5269  -26.9455   20.9520 C   0  0  0  0  0  0  0  0  0  0  0  0
  -27.0060  -24.7202   26.1411 C   0  0  0  0  0  0  0  0  0  1  0  0
  -22.6082  -29.0380   21.8225 C   0  0  1  0  0  0  0  0  0  0  0  0
  -19.6599  -29.7427   24.0985 C   0  0  2  0  0  0  0  0  0  0  0  0
  -29.3608  -25.0705   27.2065 C   0  0  0  0  0  0  0  0  0  0  0  0
  -23.2827  -30.1844   21.0172 C   0  0  0  0  0  0  0  0  0  0  0  0
  -31.4466  -25.7854   24.1259 N   0  0  0  0  0  0  0  0  0  0  0  0
  -29.2810  -26.8830   25.5295 N   0  0  0  0  0  0  0  0  0  0  0  0
  -30.3619  -20.8643   19.5935 N   0  0  0  0  0  0  0  0  0  0  0  0
  -29.7018  -21.9964   19.8912 N   0  0  0  0  0  0  0  0  0  0  0  0
  -23.0060  -26.6302   21.4126 N   0  0  0  0  0  0  0  0  0  0  0  0
  -31.6475  -25.2834   19.6303 N   0  0  0  0  0  0  0  0  0  0  0  0
  -27.8674  -22.8441   21.1269 N   0  0  0  0  0  0  0  0  0  0  0  0
  -27.7528  -18.4143   21.9985 N   0  0  0  0  0  0  0  0  0  0  0  0
  -24.3633  -24.4565   18.8185 N   0  0  0  0  0  0  0  0  0  0  0  0
  -21.3150  -29.3923   22.3973 N   0  0  0  0  0  0  0  0  0  0  0  0
  -30.9497  -26.8762   21.2778 N   0  0  0  0  0  0  0  0  0  0  0  0
  -19.1546  -28.9630   25.2636 N   0  3  0  0  0  0  0  0  0  0  0  0
  -26.7166  -20.4193   22.4046 O   0  0  0  0  0  0  0  0  0  0  0  0
  -25.0926  -26.3491   19.9625 O   0  0  0  0  0  0  0  0  0  0  0  0
  -21.6507  -27.8812   19.9863 O   0  0  0  0  0  0  0  0  0  0  0  0
  -21.8893  -28.9590   24.6017 O   0  0  0  0  0  0  0  0  0  0  0  0
  -33.0185  -27.0231   20.2722 O   0  0  0  0  0  0  0  0  0  0  0  0
  -31.2747  -14.5768   20.0222 O   0  0  0  0  0  0  0  0  0  0  0  0
  -26.0169  -23.7120   25.9372 O   0  0  0  0  0  0  0  0  0  1  0  0
  -27.3532  -10.7708   19.2869 F   0  0  0  0  0  0  0  0  0  0  0  0
  -29.2174  -14.2892   21.8464 F   0  0  0  0  0  0  0  0  0  0  0  0
  1  2  1  0  0  0  0
  1  5  2  0  0  0  0
  2  6  2  0  0  0  0
  3  8  2  0  0  0  0
  3 17  1  0  0  0  0
  4  9  1  0  0  0  0
  4 17  2  0  0  0  0
  5 19  1  0  0  0  0
  6 21  1  0  0  0  0
  7 10  2  0  0  0  0
  7 20  1  0  0  0  0
  8 23  1  0  0  0  0
  9 23  2  0  0  0  0
 10 24  1  0  0  0  0
 11 12  2  0  0  0  0
 11 25  1  0  0  0  0
 12 26  1  0  0  0  0
 13 22  1  0  0  0  0
 13 24  2  0  0  0  0
 14 26  2  0  0  0  0
 14 27  1  0  0  0  0
 15 29  1  0  0  0  0
 15 66  2  0  0  0  0
 16 30  2  0  0  0  0
 16 65  1  0  0  0  0
 17 28  1  0  0  0  0
 18 28  1  0  0  0  0
 18 31  2  0  0  0  0
 18 32  1  0  0  0  0
 19 21  2  0  0  0  0
 19 37  1  0  0  0  0
 20 22  2  0  0  0  0
 20 38  1  0  0  0  0
 21 46  1  0  0  0  0
 22 39  1  0  0  0  0
 23 82  1  0  0  0  0
 24 83  1  0  0  0  0
 25 27  2  0  0  0  0
 25 82  1  0  0  0  0
 26 84  1  0  0  0  0
 27 85  1  0  0  0  0
 28 67  2  0  0  0  0
 29 57  1  0  0  0  0
 29 65  2  0  0  0  0
 30 63  1  0  0  0  0
 30 66  1  0  0  0  0
 31 68  1  0  0  0  0
 31 71  1  0  0  0  0
 32 72  1  0  0  0  0
 32 77  2  0  0  0  0
 33 47  1  0  0  0  0
 33 73  1  0  0  0  0
 33 78  2  0  0  0  0
 34 61  1  0  0  0  0
 34 69  1  0  0  0  0
 34 79  2  0  0  0  0
 35 62  1  0  0  0  0
 35 74  1  0  0  0  0
 35 80  2  0  0  0  0
 36 70  1  0  0  0  0
 36 75  1  0  0  0  0
 36 81  2  0  0  0  0
 37 40  1  0  0  0  0
 38 47  1  0  0  0  0
 39 69  1  0  0  0  0
 40 42  1  0  0  0  0
 41 43  1  0  0  0  0
 41 44  1  0  0  0  0
 42 46  1  0  0  0  0
 43 48  1  0  0  0  0
 44 70  1  0  0  0  0
 45 48  1  0  0  0  0
 45 70  1  0  0  0  0
 46 73  1  0  0  0  0
 47 69  1  0  0  0  0
 48 68  1  0  0  0  0
 49 59  1  0  0  0  0
 50 62  1  0  0  0  0
 51 63  1  0  0  0  0
 52 63  1  0  0  0  0
 53 64  1  0  0  0  0
 54 64  1  0  0  0  0
 55 64  1  0  0  0  0
 56 76  1  0  0  0  0
 57 75  1  0  0  0  0
 58 60  1  0  0  0  0
 58 63  1  0  0  0  0
 59 75  1  0  0  0  0
 60 83  1  0  0  0  0
 61 64  1  0  0  0  0
 61 74  1  0  0  0  0
 62 76  1  0  0  0  0
 67 68  1  0  0  0  0
M  CHG  1  76   1
M  ISO  4  36 100  60 101  75 100  83 101
M  END
> <Batch ID>
0055

> <Smiles>
CC[100N:0](Cc1cnc(C(C)(C)C[101CH2:1][101O:1]c2ccc3c(c2)CN(C(=O)C(NC(=O)C(C)NC)C(C)(C)C)C(C(=O)NC2CCCc4ccccc42)C3)cn1)[100C:0](=O)N1CCCC(n2nc(-c3ccc(Oc4ccc(F)cc4F)cc3)c(C(N)=O)c2N)C1

> <Shape>
0.218

> <Color>
0.056

> <Negative vol penalty>
0.000

$$$$

  -OEChem-04052317433D

 93102  0     1  0  0  0  0  0999 V2000
  -21.2301  -33.8097   19.9843 C   0  0  0  0  0  0  0  0  0  0  0  0
  -22.0610  -32.7688   19.5826 C   0  0  0  0  0  0  0  0  0  0  0  0
  -23.7556   -9.5483   20.0741 C   0  0  0  0  0  0  0  0  0  0  0  0
  -23.5637  -10.1431   22.4079 C   0  0  0  0  0  0  0  0  0  0  0  0
  -20.7937  -33.8812   21.3066 C   0  0  0  0  0  0  0  0  0  0  0  0
  -22.4570  -31.7993   20.5033 C   0  0  0  0  0  0  0  0  0  0  0  0
  -23.3998  -25.8482   19.4070 C   0  0  0  0  0  0  0  0  0  0  0  0
  -23.1454   -8.3218   20.3365 C   0  0  0  0  0  0  0  0  0  0  0  0
  -22.9535   -8.9166   22.6703 C   0  0  0  0  0  0  0  0  0  0  0  0
  -24.5588  -25.1099   19.1716 C   0  0  0  0  0  0  0  0  0  0  0  0
  -19.8918   -7.5320   22.3101 C   0  0  0  0  0  0  0  0  0  0  0  0
  -18.7562   -7.5350   23.1200 C   0  0  0  0  0  0  0  0  0  0  0  0
  -24.6413  -24.5066   21.5058 C   0  0  0  0  0  0  0  0  0  0  0  0
  -19.8804   -6.0954   24.7015 C   0  0  0  0  0  0  0  0  0  0  0  0
  -30.2301  -21.2871   18.5096 C   0  0  0  0  0  0  0  0  0  0  0  0
  -26.0712  -19.0227   19.2747 C   0  0  0  0  0  0  0  0  0  0  0  0
  -23.9648  -10.4590   21.1098 C   0  0  0  0  0  0  0  0  0  0  0  0
  -23.9629  -12.9312   20.4805 C   0  0  0  0  0  0  0  0  0  0  0  0
  -21.1767  -32.9068   22.2417 C   0  0  0  0  0  0  0  0  0  0  0  0
  -22.8580  -25.9303   20.6978 C   0  0  0  0  0  0  0  0  0  0  0  0
  -22.0264  -31.8586   21.8397 C   0  0  0  0  0  0  0  0  0  0  0  0
  -23.4739  -25.2445   21.7545 C   0  0  0  0  0  0  0  0  0  0  0  0
  -22.7443   -8.0059   21.6346 C   0  0  0  0  0  0  0  0  0  0  0  0
  -25.1813  -24.4413   20.2216 C   0  0  0  0  0  0  0  0  0  0  0  0
  -21.0217   -6.8107   22.6958 C   0  0  0  0  0  0  0  0  0  0  0  0
  -18.7505   -6.8168   24.3157 C   0  0  0  0  0  0  0  0  0  0  0  0
  -21.0160   -6.0924   23.8915 C   0  0  0  0  0  0  0  0  0  0  0  0
  -24.5956  -11.7259   20.8395 C   0  0  0  0  0  0  0  0  0  0  0  0
  -30.2469  -22.5567   19.0501 C   0  0  0  0  0  0  0  0  0  0  0  0
  -29.0112  -20.8619   18.0221 C   0  0  0  0  0  0  0  0  0  0  0  0
  -25.5002  -19.4629   20.4353 C   0  0  0  0  0  0  0  0  0  0  0  0
  -24.9918  -13.8296   20.3369 C   0  0  0  0  0  0  0  0  0  0  0  0
  -28.0343  -22.8295   18.6062 C   0  0  0  0  0  0  0  0  0  0  0  0
  -27.6743  -19.2373   20.7861 C   0  0  0  0  0  0  0  0  0  0  0  0
  -22.5697  -13.2134   20.2936 C   0  0  0  0  0  0  0  0  0  0  0  0
  -22.3137  -28.2906   22.7561 C   0  0  0  0  0  0  0  0  0  0  0  0
  -20.8688  -25.9432   24.4662 C   0  0  0  0  0  0  0  0  0  0  0  0
  -20.5821  -22.6111   25.1457 C   0  0  0  0  0  0  0  0  0  0  0  0
  -29.7737  -16.0798   22.1302 C   0  0  0  0  0  0  0  0  0  0  0  0
  -20.7181  -33.0523   23.6711 C   0  0  0  0  0  0  0  0  0  0  0  0
  -21.5923  -26.7089   20.9302 C   0  0  0  0  0  0  0  0  0  0  0  0
  -22.9210  -25.2842   23.1549 C   0  0  0  0  0  0  0  0  0  0  0  0
  -20.8793  -31.7776   24.4953 C   0  0  0  0  0  0  0  0  0  0  0  0
  -29.9959  -13.1072   20.1831 C   0  0  0  0  0  0  0  0  0  0  0  0
  -22.2598  -31.1684   24.2718 C   0  0  0  0  0  0  0  0  0  0  0  0
  -28.5604  -12.5795   20.1561 C   0  0  0  0  0  0  0  0  0  0  0  0
  -30.3379  -13.7440   21.5283 C   0  0  0  0  0  0  0  0  0  0  0  0
  -27.9656  -14.2650   21.9460 C   0  0  0  0  0  0  0  0  0  0  0  0
  -22.4576  -30.7741   22.8031 C   0  0  1  0  0  0  0  0  0  0  0  0
  -21.4168  -27.1447   22.3816 C   0  0  1  0  0  0  0  0  0  0  0  0
  -27.5561  -13.6638   20.5906 C   0  0  2  0  0  0  0  0  0  0  0  0
  -31.5205  -23.1040   19.6021 C   0  0  0  0  0  0  0  0  0  0  0  0
  -24.1093  -19.7778   20.7712 C   0  0  0  0  0  0  0  0  0  0  0  0
  -30.2235  -17.5961   16.0678 C   0  0  0  0  0  0  0  0  0  0  0  0
  -27.9539  -20.4119   15.1403 C   0  0  0  0  0  0  0  0  0  0  0  0
  -19.3440  -21.0004   26.6189 C   0  0  0  0  0  0  0  0  0  0  0  0
  -22.6334  -26.7458   26.8225 C   0  0  0  0  0  0  0  0  0  0  0  0
  -22.0587  -24.5634   27.9064 C   0  0  0  0  0  0  0  0  0  0  0  0
  -20.2624  -26.2258   27.4244 C   0  0  0  0  0  0  0  0  0  0  0  0
  -19.3701  -21.2368   22.8216 C   0  0  0  0  0  0  0  0  0  0  0  0
  -26.8078  -23.6923   18.6565 C   0  0  0  0  0  0  0  0  0  1  0  0
  -28.9975  -19.2397   21.4583 C   0  0  0  0  0  0  0  0  0  0  0  0
  -30.2295  -18.9770   16.7204 C   0  0  0  0  0  0  0  0  0  0  0  0
  -27.7484  -19.4531   16.3108 C   0  0  0  0  0  0  0  0  0  0  0  0
  -28.4461  -18.4288   18.5093 C   0  0  0  0  0  0  0  0  0  0  0  0
  -29.0507  -18.3773   22.7286 C   0  0  0  0  0  0  0  0  0  0  0  0
  -21.3176  -24.9518   25.5125 C   0  0  1  0  0  0  0  0  0  0  0  0
  -19.3671  -21.7101   25.2741 C   0  0  2  0  0  0  0  0  0  0  0  0
  -28.8953  -19.5030   17.4168 C   0  0  0  0  0  0  0  0  0  0  0  0
  -21.5798  -25.6223   26.8905 C   0  0  0  0  0  0  0  0  0  0  0  0
  -25.9237  -11.8445   20.9189 N   0  0  0  0  0  0  0  0  0  0  0  0
  -29.1636  -23.3583   19.1148 N   0  0  0  0  0  0  0  0  0  0  0  0
  -27.8887  -21.6097   18.0545 N   0  0  0  0  0  0  0  0  0  0  0  0
  -27.4168  -18.8922   19.5203 N   0  0  0  0  0  0  0  0  0  0  0  0
  -26.1338  -13.1349   20.6078 N   0  0  0  0  0  0  0  0  0  0  0  0
  -26.5151  -19.5867   21.3533 N   0  3  0  0  0  0  0  0  0  0  0  0
  -21.6850  -26.0640   23.3326 N   0  0  0  0  0  0  0  0  0  0  0  0
  -29.3480  -14.7645   21.8813 N   0  0  0  0  0  0  0  0  0  0  0  0
  -25.0221  -15.1382   20.0066 N   0  0  0  0  0  0  0  0  0  0  0  0
  -21.6467  -12.1755   20.4814 N   0  0  0  0  0  0  0  0  0  0  0  0
  -21.7659  -29.5360   22.5147 N   0  0  0  0  0  0  0  0  0  0  0  0
  -20.3046  -23.9024   25.5416 N   0  0  0  0  0  0  0  0  0  0  0  0
  -28.7707  -16.9859   22.4520 N   0  0  0  0  0  0  0  0  0  0  0  0
  -19.3710  -20.6787   24.1984 N   0  3  0  0  0  0  0  0  0  0  0  0
  -22.1568  -14.3480   19.9535 O   0  0  0  0  0  0  0  0  0  0  0  0
  -23.4202  -28.0617   23.2304 O   0  0  0  0  0  0  0  0  0  0  0  0
  -19.8285  -26.5815   24.6448 O   0  0  0  0  0  0  0  0  0  0  0  0
  -21.6697  -22.2086   24.7386 O   0  0  0  0  0  0  0  0  0  0  0  0
  -30.9592  -16.4224   22.0650 O   0  0  0  0  0  0  0  0  0  0  0  0
  -22.1486   -6.8093   21.8910 O   0  0  0  0  0  0  0  0  0  0  0  0
  -26.3131  -23.7205   19.9947 O   0  0  0  0  0  0  0  0  0  1  0  0
  -17.6605   -6.8210   25.0942 F   0  0  0  0  0  0  0  0  0  0  0  0
  -22.0988   -5.3984   24.2679 F   0  0  0  0  0  0  0  0  0  0  0  0
  1  2  1  0  0  0  0
  1  5  2  0  0  0  0
  2  6  2  0  0  0  0
  3  8  2  0  0  0  0
  3 17  1  0  0  0  0
  4  9  1  0  0  0  0
  4 17  2  0  0  0  0
  5 19  1  0  0  0  0
  6 21  1  0  0  0  0
  7 10  2  0  0  0  0
  7 20  1  0  0  0  0
  8 23  1  0  0  0  0
  9 23  2  0  0  0  0
 10 24  1  0  0  0  0
 11 12  2  0  0  0  0
 11 25  1  0  0  0  0
 12 26  1  0  0  0  0
 13 22  1  0  0  0  0
 13 24  2  0  0  0  0
 14 26  2  0  0  0  0
 14 27  1  0  0  0  0
 15 29  2  0  0  0  0
 15 30  1  0  0  0  0
 16 31  2  0  0  0  0
 16 74  1  0  0  0  0
 17 28  1  0  0  0  0
 18 28  1  0  0  0  0
 18 32  2  0  0  0  0
 18 35  1  0  0  0  0
 19 21  2  0  0  0  0
 19 40  1  0  0  0  0
 20 22  2  0  0  0  0
 20 41  1  0  0  0  0
 21 49  1  0  0  0  0
 22 42  1  0  0  0  0
 23 90  1  0  0  0  0
 24 91  1  0  0  0  0
 25 27  2  0  0  0  0
 25 90  1  0  0  0  0
 26 92  1  0  0  0  0
 27 93  1  0  0  0  0
 28 71  2  0  0  0  0
 29 52  1  0  0  0  0
 29 72  1  0  0  0  0
 30 69  1  0  0  0  0
 30 73  2  0  0  0  0
 31 53  1  0  0  0  0
 31 76  1  0  0  0  0
 32 75  1  0  0  0  0
 32 79  1  0  0  0  0
 33 61  1  0  0  0  0
 33 72  2  0  0  0  0
 33 73  1  0  0  0  0
 34 62  1  0  0  0  0
 34 74  1  0  0  0  0
 34 76  2  0  0  0  0
 35 80  1  0  0  0  0
 35 85  2  0  0  0  0
 36 50  1  0  0  0  0
 36 81  1  0  0  0  0
 36 86  2  0  0  0  0
 37 67  1  0  0  0  0
 37 77  1  0  0  0  0
 37 87  2  0  0  0  0
 38 68  1  0  0  0  0
 38 82  1  0  0  0  0
 38 88  2  0  0  0  0
 39 78  1  0  0  0  0
 39 83  1  0  0  0  0
 39 89  2  0  0  0  0
 40 43  1  0  0  0  0
 41 50  1  0  0  0  0
 42 77  1  0  0  0  0
 43 45  1  0  0  0  0
 44 46  1  0  0  0  0
 44 47  1  0  0  0  0
 45 49  1  0  0  0  0
 46 51  1  0  0  0  0
 47 78  1  0  0  0  0
 48 51  1  0  0  0  0
 48 78  1  0  0  0  0
 49 81  1  0  0  0  0
 50 77  1  0  0  0  0
 51 75  1  0  0  0  0
 54 63  1  0  0  0  0
 55 64  1  0  0  0  0
 56 68  1  0  0  0  0
 57 70  1  0  0  0  0
 58 70  1  0  0  0  0
 59 70  1  0  0  0  0
 60 84  1  0  0  0  0
 61 91  1  0  0  0  0
 62 66  1  0  0  0  0
 63 69  1  0  0  0  0
 64 69  1  0  0  0  0
 65 69  1  0  0  0  0
 65 74  1  0  0  0  0
 66 83  1  0  0  0  0
 67 70  1  0  0  0  0
 67 82  1  0  0  0  0
 68 84  1  0  0  0  0
 71 75  1  0  0  0  0
M  CHG  2  76   1  84   1
M  ISO  4  39 100  61 101  83 100  91 101
M  END
> <Batch ID>
0055

> <Smiles>
CCC(CC)(Cn1cc(C)nc1CC[100NH:0][100C:0](=O)N1CCCC(n2nc(-c3ccc(Oc4ccc(F)cc4F)cc3)c(C(N)=O)c2N)C1)c1cc(C)nc([101CH2:1][101O:1]c2ccc3c(c2)CN(C(=O)C(NC(=O)C(C)NC)C(C)(C)C)C(C(=O)NC2CCCc4ccccc42)C3)n1

> <Shape>
0.226

> <Color>
0.146

> <Negative vol penalty>
0.000

$$$$

  -OEChem-04052317433D

 83 91  0     1  0  0  0  0  0999 V2000
  -28.8334  -22.8945   28.6461 C   0  0  0  0  0  0  0  0  0  0  0  0
  -29.1195  -22.9409   27.2854 C   0  0  0  0  0  0  0  0  0  0  0  0
  -25.9930  -13.9849   21.6799 C   0  0  0  0  0  0  0  0  0  0  0  0
  -24.6245  -15.2282   20.1248 C   0  0  0  0  0  0  0  0  0  0  0  0
  -27.5503  -23.1996   29.0982 C   0  0  0  0  0  0  0  0  0  0  0  0
  -28.1224  -23.2916   26.3760 C   0  0  0  0  0  0  0  0  0  0  0  0
  -29.7425  -26.5918   22.8934 C   0  0  0  0  0  0  0  0  0  0  0  0
  -24.9791  -13.0364   21.8139 C   0  0  0  0  0  0  0  0  0  0  0  0
  -23.6106  -14.2797   20.2587 C   0  0  0  0  0  0  0  0  0  0  0  0
  -30.5103  -26.0859   21.8454 C   0  0  0  0  0  0  0  0  0  0  0  0
  -22.8926  -10.0977   22.2888 C   0  0  0  0  0  0  0  0  0  0  0  0
  -23.2550   -8.7513   22.2517 C   0  0  0  0  0  0  0  0  0  0  0  0
  -29.3963  -20.4108   18.1198 C   0  0  0  0  0  0  0  0  0  0  0  0
  -28.5644  -26.1022   20.4198 C   0  0  0  0  0  0  0  0  0  0  0  0
  -24.1484   -9.0529   20.0273 C   0  0  0  0  0  0  0  0  0  0  0  0
  -28.1087  -20.0535   18.4373 C   0  0  0  0  0  0  0  0  0  0  0  0
  -25.8157  -15.0808   20.8353 C   0  0  0  0  0  0  0  0  0  0  0  0
  -28.1758  -15.8436   20.2387 C   0  0  0  0  0  0  0  0  0  0  0  0
  -26.5394  -23.5636   28.1947 C   0  0  0  0  0  0  0  0  0  0  0  0
  -28.3751  -26.8468   22.7153 C   0  0  0  0  0  0  0  0  0  0  0  0
  -26.8242  -23.6006   26.8164 C   0  0  0  0  0  0  0  0  0  0  0  0
  -27.7820  -26.6137   21.4663 C   0  0  0  0  0  0  0  0  0  0  0  0
  -23.7878  -13.1839   21.1033 C   0  0  0  0  0  0  0  0  0  0  0  0
  -29.9207  -25.8383   20.6092 C   0  0  0  0  0  0  0  0  0  0  0  0
  -23.1580  -10.9217   21.1950 C   0  0  0  0  0  0  0  0  0  0  0  0
  -23.8829   -8.2289   21.1210 C   0  0  0  0  0  0  0  0  0  0  0  0
  -23.7859  -10.3994   20.0643 C   0  0  0  0  0  0  0  0  0  0  0  0
  -26.8625  -16.0612   20.6969 C   0  0  0  0  0  0  0  0  0  0  0  0
  -29.2765  -21.6957   17.5573 C   0  0  0  0  0  0  0  0  0  0  0  0
  -28.7683  -17.0815   20.2944 C   0  0  0  0  0  0  0  0  0  0  0  0
  -28.8038  -14.6311   19.8017 C   0  0  0  0  0  0  0  0  0  0  0  0
  -25.6976  -25.7341   24.0178 C   0  0  0  0  0  0  0  0  0  0  0  0
  -24.3187  -28.0528   22.2166 C   0  0  0  0  0  0  0  0  0  0  0  0
  -26.4799  -22.6360   20.1441 C   0  0  0  0  0  0  0  0  0  0  0  0
  -24.4996  -30.0929   19.4867 C   0  0  0  0  0  0  0  0  0  0  0  0
  -25.1552  -23.8390   28.7265 C   0  0  0  0  0  0  0  0  0  0  0  0
  -27.5665  -27.4176   23.8479 C   0  0  0  0  0  0  0  0  0  0  0  0
  -26.3224  -26.8897   21.2177 C   0  0  0  0  0  0  0  0  0  0  0  0
  -24.2537  -24.5652   27.7314 C   0  0  0  0  0  0  0  0  0  0  0  0
  -28.5924  -21.2222   22.6697 C   0  0  0  0  0  0  0  0  0  0  0  0
  -24.3479  -23.9167   26.3539 C   0  0  0  0  0  0  0  0  0  0  0  0
  -28.4851  -19.7174   22.4264 C   0  0  0  0  0  0  0  0  0  0  0  0
  -27.2734  -21.9305   22.3773 C   0  0  0  0  0  0  0  0  0  0  0  0
  -26.6303  -20.1723   20.7597 C   0  0  0  0  0  0  0  0  0  0  0  0
  -25.7757  -24.0007   25.8010 C   0  0  1  0  0  0  0  0  0  0  0  0
  -26.0704  -27.1557   23.7053 C   0  0  1  0  0  0  0  0  0  0  0  0
  -27.9501  -19.4226   21.0138 C   0  0  2  0  0  0  0  0  0  0  0  0
  -23.8417  -31.9208   17.8982 C   0  0  0  0  0  0  0  0  0  0  0  0
  -25.2122  -21.1956   16.8105 C   0  0  0  0  0  0  0  0  0  0  0  0
  -24.1109  -22.0356   19.9021 C   0  0  0  0  0  0  0  0  0  0  0  0
  -25.2115  -23.6723   18.3598 C   0  0  0  0  0  0  0  0  0  0  0  0
  -22.4934  -25.8970   21.0631 C   0  0  0  0  0  0  0  0  0  0  0  0
  -21.9095  -27.4795   19.2130 C   0  0  0  0  0  0  0  0  0  0  0  0
  -21.3548  -28.0643   21.5737 C   0  0  0  0  0  0  0  0  0  0  0  0
  -25.9813  -32.1325   21.0372 C   0  0  0  0  0  0  0  0  0  0  0  0
  -30.3827  -22.5729   17.0278 C   0  0  0  0  0  0  0  0  0  0  0  0
  -30.9895  -23.5023   18.0811 C   0  0  0  0  0  0  0  0  0  0  0  0
  -29.9978  -24.5212   18.6305 C   0  0  0  0  0  0  0  0  0  1  0  0
  -23.7653  -28.1300   20.8141 C   0  0  1  0  0  0  0  0  0  0  0  0
  -24.2500  -31.5813   19.3232 C   0  0  2  0  0  0  0  0  0  0  0  0
  -25.8921  -21.1962   18.1934 C   0  0  2  0  0  0  0  0  0  0  0  0
  -25.3999  -22.3531   19.1305 C   0  0  0  0  0  0  0  0  0  0  0  0
  -22.4078  -27.3856   20.6709 C   0  0  0  0  0  0  0  0  0  0  0  0
  -26.6339  -17.3368   21.0201 N   0  0  0  0  0  0  0  0  0  0  0  0
  -28.0125  -22.1256   17.5182 N   0  0  0  0  0  0  0  0  0  0  0  0
  -27.3263  -21.1050   18.0601 N   0  0  0  0  0  0  0  0  0  0  0  0
  -27.8114  -17.9320   20.7647 N   0  0  0  0  0  0  0  0  0  0  0  0
  -25.5725  -27.4414   22.3582 N   0  0  0  0  0  0  0  0  0  0  0  0
  -26.7872  -21.6072   21.0348 N   0  0  0  0  0  0  0  0  0  0  0  0
  -30.0094  -17.5145   19.9867 N   0  0  0  0  0  0  0  0  0  0  0  0
  -28.7312  -14.2930   18.4434 N   0  0  0  0  0  0  0  0  0  0  0  0
  -26.0436  -25.3290   25.2928 N   0  0  0  0  0  0  0  0  0  0  0  0
  -23.7080  -29.5478   20.4754 N   0  0  0  0  0  0  0  0  0  0  0  0
  -25.4810  -32.3526   19.6558 N   0  3  0  0  0  0  0  0  0  0  0  0
  -29.3973  -13.8617   20.5950 O   0  0  0  0  0  0  0  0  0  0  0  0
  -25.1362  -25.0554   23.1658 O   0  0  0  0  0  0  0  0  0  0  0  0
  -23.6659  -28.5243   23.1510 O   0  0  0  0  0  0  0  0  0  0  0  0
  -27.0348  -23.7380   20.1410 O   0  0  0  0  0  0  0  0  0  0  0  0
  -25.3127  -29.4749   18.8031 O   0  0  0  0  0  0  0  0  0  0  0  0
  -22.7983  -12.2584   21.2337 O   0  0  0  0  0  0  0  0  0  0  0  0
  -30.6677  -25.3440   19.5848 O   0  0  0  0  0  0  0  0  0  1  0  0
  -24.2323   -6.9362   21.0862 F   0  0  0  0  0  0  0  0  0  0  0  0
  -24.0445  -11.1864   19.0110 F   0  0  0  0  0  0  0  0  0  0  0  0
  1  2  1  0  0  0  0
  1  5  2  0  0  0  0
  2  6  2  0  0  0  0
  3  8  2  0  0  0  0
  3 17  1  0  0  0  0
  4  9  1  0  0  0  0
  4 17  2  0  0  0  0
  5 19  1  0  0  0  0
  6 21  1  0  0  0  0
  7 10  2  0  0  0  0
  7 20  1  0  0  0  0
  8 23  1  0  0  0  0
  9 23  2  0  0  0  0
 10 24  1  0  0  0  0
 11 12  2  0  0  0  0
 11 25  1  0  0  0  0
 12 26  1  0  0  0  0
 13 16  2  0  0  0  0
 13 29  1  0  0  0  0
 14 22  1  0  0  0  0
 14 24  2  0  0  0  0
 15 26  2  0  0  0  0
 15 27  1  0  0  0  0
 16 66  1  0  0  0  0
 17 28  1  0  0  0  0
 18 28  1  0  0  0  0
 18 30  2  0  0  0  0
 18 31  1  0  0  0  0
 19 21  2  0  0  0  0
 19 36  1  0  0  0  0
 20 22  2  0  0  0  0
 20 37  1  0  0  0  0
 21 45  1  0  0  0  0
 22 38  1  0  0  0  0
 23 80  1  0  0  0  0
 24 81  1  0  0  0  0
 25 27  2  0  0  0  0
 25 80  1  0  0  0  0
 26 82  1  0  0  0  0
 27 83  1  0  0  0  0
 28 64  2  0  0  0  0
 29 56  1  0  0  0  0
 29 65  2  0  0  0  0
 30 67  1  0  0  0  0
 30 70  1  0  0  0  0
 31 71  1  0  0  0  0
 31 75  2  0  0  0  0
 32 46  1  0  0  0  0
 32 72  1  0  0  0  0
 32 76  2  0  0  0  0
 33 59  1  0  0  0  0
 33 68  1  0  0  0  0
 33 77  2  0  0  0  0
 34 62  1  0  0  0  0
 34 69  1  0  0  0  0
 34 78  2  0  0  0  0
 35 60  1  0  0  0  0
 35 73  1  0  0  0  0
 35 79  2  0  0  0  0
 36 39  1  0  0  0  0
 37 46  1  0  0  0  0
 38 68  1  0  0  0  0
 39 41  1  0  0  0  0
 40 42  1  0  0  0  0
 40 43  1  0  0  0  0
 41 45  1  0  0  0  0
 42 47  1  0  0  0  0
 43 69  1  0  0  0  0
 44 47  1  0  0  0  0
 44 69  1  0  0  0  0
 45 72  1  0  0  0  0
 46 68  1  0  0  0  0
 47 67  1  0  0  0  0
 48 60  1  0  0  0  0
 49 61  1  0  0  0  0
 50 62  1  0  0  0  0
 51 62  1  0  0  0  0
 52 63  1  0  0  0  0
 53 63  1  0  0  0  0
 54 63  1  0  0  0  0
 55 74  1  0  0  0  0
 56 57  1  0  0  0  0
 57 58  1  0  0  0  0
 58 81  1  0  0  0  0
 59 63  1  0  0  0  0
 59 73  1  0  0  0  0
 60 74  1  0  0  0  0
 61 62  1  0  0  0  0
 61 66  1  0  0  0  0
 64 67  1  0  0  0  0
 65 66  1  0  0  0  0
M  CHG  1  74   1
M  ISO  4  34 100  58 101  62 100  81 101
M  END
> <Batch ID>
0055

> <Smiles>
CNC(C)C(=O)NC(C(=O)N1Cc2cc([101O:1][101CH2:1]CCc3ccn(C(C)[100C:0](C)(C)[100C:0](=O)N4CCCC(n5nc(-c6ccc(Oc7ccc(F)cc7F)cc6)c(C(N)=O)c5N)C4)n3)ccc2CC1C(=O)NC1CCCc2ccccc21)C(C)(C)C

> <Shape>
0.198

> <Color>
0.070

> <Negative vol penalty>
0.000

$$$$

  -OEChem-04052317433D

 83 91  0     1  0  0  0  0  0999 V2000
  -30.7314  -30.9681   24.0297 C   0  0  0  0  0  0  0  0  0  0  0  0
  -31.0739  -29.6306   23.8588 C   0  0  0  0  0  0  0  0  0  0  0  0
  -23.0541   -9.8975   19.9116 C   0  0  0  0  0  0  0  0  0  0  0  0
  -23.8409   -9.8364   22.1951 C   0  0  0  0  0  0  0  0  0  0  0  0
  -29.9204  -31.6043   23.0909 C   0  0  0  0  0  0  0  0  0  0  0  0
  -30.6046  -28.9282   22.7494 C   0  0  0  0  0  0  0  0  0  0  0  0
  -33.5429  -24.5282   19.6652 C   0  0  0  0  0  0  0  0  0  0  0  0
  -22.3079   -8.7410   20.1378 C   0  0  0  0  0  0  0  0  0  0  0  0
  -23.0946   -8.6799   22.4213 C   0  0  0  0  0  0  0  0  0  0  0  0
  -33.4666  -23.1370   19.7147 C   0  0  0  0  0  0  0  0  0  0  0  0
  -19.3731   -7.9166   21.6009 C   0  0  0  0  0  0  0  0  0  0  0  0
  -18.0605   -7.8898   21.1300 C   0  0  0  0  0  0  0  0  0  0  0  0
  -31.9291  -23.1610   17.8560 C   0  0  0  0  0  0  0  0  0  0  0  0
  -18.5955   -5.9824   19.7470 C   0  0  0  0  0  0  0  0  0  0  0  0
  -31.5074  -18.5071   20.1351 C   0  0  0  0  0  0  0  0  0  0  0  0
  -23.8207  -10.4452   20.9403 C   0  0  0  0  0  0  0  0  0  0  0  0
  -24.1730  -12.9712   20.8875 C   0  0  0  0  0  0  0  0  0  0  0  0
  -29.4489  -30.9121   21.9643 C   0  0  0  0  0  0  0  0  0  0  0  0
  -32.8031  -25.2482   18.7161 C   0  0  0  0  0  0  0  0  0  0  0  0
  -29.7855  -29.5554   21.7952 C   0  0  0  0  0  0  0  0  0  0  0  0
  -31.9997  -24.5611   17.7948 C   0  0  0  0  0  0  0  0  0  0  0  0
  -22.3280   -8.1322   21.3926 C   0  0  0  0  0  0  0  0  0  0  0  0
  -32.6574  -22.4533   18.8120 C   0  0  0  0  0  0  0  0  0  0  0  0
  -20.2971   -6.9764   21.1447 C   0  0  0  0  0  0  0  0  0  0  0  0
  -17.6716   -6.9227   20.2031 C   0  0  0  0  0  0  0  0  0  0  0  0
  -19.9082   -6.0093   20.2178 C   0  0  0  0  0  0  0  0  0  0  0  0
  -24.5923  -11.6395   20.7071 C   0  0  0  0  0  0  0  0  0  0  0  0
  -30.6633  -17.9493   21.0533 C   0  0  0  0  0  0  0  0  0  0  0  0
  -25.2643  -13.7259   20.5326 C   0  0  0  0  0  0  0  0  0  0  0  0
  -29.5922  -19.6151   20.0640 C   0  0  0  0  0  0  0  0  0  0  0  0
  -22.9099  -13.4805   21.3358 C   0  0  0  0  0  0  0  0  0  0  0  0
  -30.4993  -27.4338   18.8555 C   0  0  0  0  0  0  0  0  0  0  0  0
  -30.9436  -27.5423   15.6441 C   0  0  0  0  0  0  0  0  0  0  0  0
  -32.0177  -25.9680   12.8131 C   0  0  0  0  0  0  0  0  0  0  0  0
  -30.7546  -14.7153   20.6846 C   0  0  0  0  0  0  0  0  0  0  0  0
  -28.5362  -31.6290   21.0012 C   0  0  0  0  0  0  0  0  0  0  0  0
  -32.9170  -26.7469   18.6584 C   0  0  0  0  0  0  0  0  0  0  0  0
  -31.2013  -25.2861   16.7434 C   0  0  0  0  0  0  0  0  0  0  0  0
  -28.3880  -30.9179   19.6586 C   0  0  0  0  0  0  0  0  0  0  0  0
  -29.5779  -12.4042   18.2451 C   0  0  0  0  0  0  0  0  0  0  0  0
  -28.1372  -29.4280   19.8684 C   0  0  0  0  0  0  0  0  0  0  0  0
  -28.1443  -12.1046   18.6866 C   0  0  0  0  0  0  0  0  0  0  0  0
  -30.5101  -12.5870   19.4408 C   0  0  0  0  0  0  0  0  0  0  0  0
  -28.6282  -13.2868   20.8699 C   0  0  0  0  0  0  0  0  0  0  0  0
  -29.3164  -28.7666   20.5919 C   0  0  1  0  0  0  0  0  0  0  0  0
  -31.7218  -27.4114   17.9822 C   0  0  1  0  0  0  0  0  0  0  0  0
  -27.6395  -13.1498   19.6995 C   0  0  2  0  0  0  0  0  0  0  0  0
  -32.2188  -26.2946   10.3331 C   0  0  0  0  0  0  0  0  0  0  0  0
  -31.7094  -19.6045   17.2105 C   0  0  0  0  0  0  0  0  0  0  0  0
  -28.1316  -20.4652   18.1960 C   0  0  0  0  0  0  0  0  0  0  0  0
  -28.9888  -22.0582   19.9463 C   0  0  0  0  0  0  0  0  0  0  0  0
  -27.1819  -20.4406   20.4937 C   0  0  0  0  0  0  0  0  0  0  0  0
  -27.9478  -27.0503   15.3389 C   0  0  0  0  0  0  0  0  0  0  0  0
  -28.3616  -26.4463   12.9447 C   0  0  0  0  0  0  0  0  0  0  0  0
  -28.8932  -28.7433   13.7595 C   0  0  0  0  0  0  0  0  0  0  0  0
  -34.9636  -25.6968   12.8991 C   0  0  0  0  0  0  0  0  0  0  0  0
  -30.8450  -16.8297   21.9808 C   0  0  0  0  0  0  0  0  0  0  0  0
  -30.3631  -26.8089   14.4591 C   0  0  1  0  0  0  0  0  0  0  0  0
  -32.9127  -26.4344   11.6790 C   0  0  2  0  0  0  0  0  0  0  0  0
  -31.3685  -20.4364   18.4490 C   0  0  1  0  0  0  0  0  0  1  0  0
  -28.5282  -20.5847   19.7030 C   0  0  0  0  0  0  0  0  0  0  0  0
  -28.9048  -27.2483   14.1465 C   0  0  0  0  0  0  0  0  0  0  0  0
  -25.8517  -11.5500   20.2714 N   0  0  0  0  0  0  0  0  0  0  0  0
  -30.8186  -19.5350   19.5375 N   0  0  0  0  0  0  0  0  0  0  0  0
  -26.2331  -12.8350   20.1748 N   0  0  0  0  0  0  0  0  0  0  0  0
  -29.4859  -18.6547   20.9881 N   0  3  0  0  0  0  0  0  0  0  0  0
  -31.3411  -26.7516   16.7316 N   0  0  0  0  0  0  0  0  0  0  0  0
  -29.9748  -13.5924   20.3619 N   0  0  0  0  0  0  0  0  0  0  0  0
  -25.4801  -15.0579   20.4947 N   0  0  0  0  0  0  0  0  0  0  0  0
  -21.8978  -12.5666   21.6593 N   0  0  0  0  0  0  0  0  0  0  0  0
  -30.4125  -28.5441   19.6735 N   0  0  0  0  0  0  0  0  0  0  0  0
  -31.2972  -27.0104   13.3568 N   0  0  0  0  0  0  0  0  0  0  0  0
  -30.1697  -15.6225   21.5595 N   0  0  0  0  0  0  0  0  0  0  0  0
  -34.1680  -25.6318   11.6462 N   0  3  0  0  0  0  0  0  0  0  0  0
  -22.6801  -14.7100   21.4307 O   0  0  0  0  0  0  0  0  0  0  0  0
  -29.6937  -26.5127   18.7909 O   0  0  0  0  0  0  0  0  0  0  0  0
  -31.0473  -28.7708   15.6033 O   0  0  0  0  0  0  0  0  0  0  0  0
  -31.9606  -24.7957   13.1775 O   0  0  0  0  0  0  0  0  0  0  0  0
  -31.8860  -14.8985   20.2226 O   0  0  0  0  0  0  0  0  0  0  0  0
  -21.5997   -7.0038   21.6137 O   0  0  0  0  0  0  0  0  0  0  0  0
  -32.5806  -21.0955   18.8586 O   0  0  0  0  0  0  0  0  0  1  0  0
  -16.4106   -6.8961   19.7522 F   0  0  0  0  0  0  0  0  0  0  0  0
  -20.7910   -5.1027   19.7768 F   0  0  0  0  0  0  0  0  0  0  0  0
  1  2  1  0  0  0  0
  1  5  2  0  0  0  0
  2  6  2  0  0  0  0
  3  8  2  0  0  0  0
  3 16  1  0  0  0  0
  4  9  1  0  0  0  0
  4 16  2  0  0  0  0
  5 18  1  0  0  0  0
  6 20  1  0  0  0  0
  7 10  2  0  0  0  0
  7 19  1  0  0  0  0
  8 22  1  0  0  0  0
  9 22  2  0  0  0  0
 10 23  1  0  0  0  0
 11 12  2  0  0  0  0
 11 24  1  0  0  0  0
 12 25  1  0  0  0  0
 13 21  1  0  0  0  0
 13 23  2  0  0  0  0
 14 25  2  0  0  0  0
 14 26  1  0  0  0  0
 15 28  2  0  0  0  0
 15 64  1  0  0  0  0
 16 27  1  0  0  0  0
 17 27  1  0  0  0  0
 17 29  2  0  0  0  0
 17 31  1  0  0  0  0
 18 20  2  0  0  0  0
 18 36  1  0  0  0  0
 19 21  2  0  0  0  0
 19 37  1  0  0  0  0
 20 45  1  0  0  0  0
 21 38  1  0  0  0  0
 22 80  1  0  0  0  0
 23 81  1  0  0  0  0
 24 26  2  0  0  0  0
 24 80  1  0  0  0  0
 25 82  1  0  0  0  0
 26 83  1  0  0  0  0
 27 63  2  0  0  0  0
 28 57  1  0  0  0  0
 28 66  1  0  0  0  0
 29 65  1  0  0  0  0
 29 69  1  0  0  0  0
 30 61  1  0  0  0  0
 30 64  1  0  0  0  0
 30 66  2  0  0  0  0
 31 70  1  0  0  0  0
 31 75  2  0  0  0  0
 32 46  1  0  0  0  0
 32 71  1  0  0  0  0
 32 76  2  0  0  0  0
 33 58  1  0  0  0  0
 33 67  1  0  0  0  0
 33 77  2  0  0  0  0
 34 59  1  0  0  0  0
 34 72  1  0  0  0  0
 34 78  2  0  0  0  0
 35 68  1  0  0  0  0
 35 73  1  0  0  0  0
 35 79  2  0  0  0  0
 36 39  1  0  0  0  0
 37 46  1  0  0  0  0
 38 67  1  0  0  0  0
 39 41  1  0  0  0  0
 40 42  1  0  0  0  0
 40 43  1  0  0  0  0
 41 45  1  0  0  0  0
 42 47  1  0  0  0  0
 43 68  1  0  0  0  0
 44 47  1  0  0  0  0
 44 68  1  0  0  0  0
 45 71  1  0  0  0  0
 46 67  1  0  0  0  0
 47 65  1  0  0  0  0
 48 59  1  0  0  0  0
 49 60  1  0  0  0  0
 50 61  1  0  0  0  0
 51 61  1  0  0  0  0
 52 61  1  0  0  0  0
 53 62  1  0  0  0  0
 54 62  1  0  0  0  0
 55 62  1  0  0  0  0
 56 74  1  0  0  0  0
 57 73  1  0  0  0  0
 58 62  1  0  0  0  0
 58 72  1  0  0  0  0
 59 74  1  0  0  0  0
 60 64  1  0  0  0  0
 60 81  1  0  0  0  0
 63 65  1  0  0  0  0
M  CHG  2  66   1  74   1
M  ISO  4  35 100  60 101  73 100  81 101
M  END
> <Batch ID>
0055

> <Smiles>
CNC(C)C(=O)NC(C(=O)N1Cc2cc([101O:1][101CH:1](C)n3cc(C[100NH:0][100C:0](=O)N4CCCC(n5nc(-c6ccc(Oc7ccc(F)cc7F)cc6)c(C(N)=O)c5N)C4)nc3C(C)(C)C)ccc2CC1C(=O)NC1CCCc2ccccc21)C(C)(C)C

> <Shape>
0.227

> <Color>
0.189

> <Negative vol penalty>
0.000

$$$$

  -OEChem-04052317433D

 83 91  0     1  0  0  0  0  0999 V2000
  -18.2554  -14.4535   18.2615 C   0  0  0  0  0  0  0  0  0  0  0  0
  -19.6427  -14.5556   18.2853 C   0  0  0  0  0  0  0  0  0  0  0  0
  -23.0725   -9.8705   19.9419 C   0  0  0  0  0  0  0  0  0  0  0  0
  -23.8351   -9.8769   22.2344 C   0  0  0  0  0  0  0  0  0  0  0  0
  -17.6421  -13.4901   17.4618 C   0  0  0  0  0  0  0  0  0  0  0  0
  -20.4175  -13.6935   17.5101 C   0  0  0  0  0  0  0  0  0  0  0  0
  -24.1430  -16.0985   15.0645 C   0  0  0  0  0  0  0  0  0  0  0  0
  -22.3294   -8.7170   20.1922 C   0  0  0  0  0  0  0  0  0  0  0  0
  -23.0919   -8.7233   22.4848 C   0  0  0  0  0  0  0  0  0  0  0  0
  -25.2747  -16.4386   15.8044 C   0  0  0  0  0  0  0  0  0  0  0  0
  -19.3831   -7.9187   21.6466 C   0  0  0  0  0  0  0  0  0  0  0  0
  -18.0757   -7.8722   21.1628 C   0  0  0  0  0  0  0  0  0  0  0  0
  -26.4288  -14.5180   14.9109 C   0  0  0  0  0  0  0  0  0  0  0  0
  -18.6346   -5.9299   19.8391 C   0  0  0  0  0  0  0  0  0  0  0  0
  -29.0068  -17.3967   19.3377 C   0  0  0  0  0  0  0  0  0  0  0  0
  -23.8254  -10.4504   20.9629 C   0  0  0  0  0  0  0  0  0  0  0  0
  -24.1662  -12.9758   20.8435 C   0  0  0  0  0  0  0  0  0  0  0  0
  -18.4094  -12.6221   16.6690 C   0  0  0  0  0  0  0  0  0  0  0  0
  -24.1421  -14.9575   14.2492 C   0  0  0  0  0  0  0  0  0  0  0  0
  -19.8139  -12.7167   16.7001 C   0  0  0  0  0  0  0  0  0  0  0  0
  -25.2967  -14.1670   14.1596 C   0  0  0  0  0  0  0  0  0  0  0  0
  -22.3390   -8.1434   21.4636 C   0  0  0  0  0  0  0  0  0  0  0  0
  -26.4168  -15.6467   15.7299 C   0  0  0  0  0  0  0  0  0  0  0  0
  -20.3163   -6.9709   21.2266 C   0  0  0  0  0  0  0  0  0  0  0  0
  -17.7014   -6.8778   20.2591 C   0  0  0  0  0  0  0  0  0  0  0  0
  -19.9421   -5.9764   20.3229 C   0  0  0  0  0  0  0  0  0  0  0  0
  -24.5938  -11.6417   20.7048 C   0  0  0  0  0  0  0  0  0  0  0  0
  -28.7598  -17.3550   17.9524 C   0  0  0  0  0  0  0  0  0  0  0  0
  -30.3603  -17.6070   19.4390 C   0  0  0  0  0  0  0  0  0  0  0  0
  -25.2576  -13.7258   20.4793 C   0  0  0  0  0  0  0  0  0  0  0  0
  -22.8960  -13.4909   21.2641 C   0  0  0  0  0  0  0  0  0  0  0  0
  -22.4754  -12.2518   14.1795 C   0  0  0  0  0  0  0  0  0  0  0  0
  -24.1182  -11.7670   11.4248 C   0  0  0  0  0  0  0  0  0  0  0  0
  -26.8838  -12.4439    9.5434 C   0  0  0  0  0  0  0  0  0  0  0  0
  -30.7412  -14.7468   20.6618 C   0  0  0  0  0  0  0  0  0  0  0  0
  -17.7033  -11.5655   15.8569 C   0  0  0  0  0  0  0  0  0  0  0  0
  -22.9224  -14.6192   13.4367 C   0  0  0  0  0  0  0  0  0  0  0  0
  -25.3539  -12.9432   13.2836 C   0  0  0  0  0  0  0  0  0  0  0  0
  -18.5824  -10.9374   14.7785 C   0  0  0  0  0  0  0  0  0  0  0  0
  -29.6017  -12.3629   18.2753 C   0  0  0  0  0  0  0  0  0  0  0  0
  -19.9483  -10.5707   15.3500 C   0  0  0  0  0  0  0  0  0  0  0  0
  -28.1649  -12.0684   18.7098 C   0  0  0  0  0  0  0  0  0  0  0  0
  -30.5202  -12.5835   19.4753 C   0  0  0  0  0  0  0  0  0  0  0  0
  -28.6198  -13.3133   20.8643 C   0  0  0  0  0  0  0  0  0  0  0  0
  -20.6877  -11.8160   15.8543 C   0  0  1  0  0  0  0  0  0  0  0  0
  -22.8600  -13.1484   13.0367 C   0  0  1  0  0  0  0  0  0  0  0  0
  -27.6443  -13.1389   19.6878 C   0  0  2  0  0  0  0  0  0  0  0  0
  -31.4927  -19.2383   20.9837 C   0  0  0  0  0  0  0  0  0  0  0  0
  -27.9651  -11.8695    7.3528 C   0  0  0  0  0  0  0  0  0  0  0  0
  -24.9799   -9.0692   12.5603 C   0  0  0  0  0  0  0  0  0  0  0  0
  -26.7639   -8.9791   10.8060 C   0  0  0  0  0  0  0  0  0  0  0  0
  -24.3612   -9.0316   10.1375 C   0  0  0  0  0  0  0  0  0  0  0  0
  -29.8577  -17.6783   22.8288 C   0  0  0  0  0  0  0  0  0  0  0  0
  -32.0567  -16.5288   22.7255 C   0  0  0  0  0  0  0  0  0  0  0  0
  -32.1898  -17.8878   17.7395 C   0  0  0  0  0  0  0  0  0  0  0  0
  -26.7799  -15.2547    8.6225 C   0  0  0  0  0  0  0  0  0  0  0  0
  -27.4428  -17.1463   17.2643 C   0  0  0  0  0  0  0  0  0  1  0  0
  -31.2333  -17.7450   20.6190 C   0  0  1  0  0  0  0  0  0  0  0  0
  -25.4357  -11.1239   11.0648 C   0  0  1  0  0  0  0  0  0  0  0  0
  -27.0392  -12.8296    8.0834 C   0  0  2  0  0  0  0  0  0  0  0  0
  -25.3838   -9.5729   11.1603 C   0  0  0  0  0  0  0  0  0  0  0  0
  -30.8077  -16.8969   21.8995 C   0  0  0  0  0  0  0  0  0  0  0  0
  -25.8582  -11.5465   20.2850 N   0  0  0  0  0  0  0  0  0  0  0  0
  -29.8675  -17.5253   17.2258 N   0  0  0  0  0  0  0  0  0  0  0  0
  -30.8236  -17.6761   18.1581 N   0  0  0  0  0  0  0  0  0  0  0  0
  -26.2345  -12.8303   20.1568 N   0  0  0  0  0  0  0  0  0  0  0  0
  -24.1338  -12.6504   12.5134 N   0  0  0  0  0  0  0  0  0  0  0  0
  -29.9703  -13.6115   20.3623 N   0  0  0  0  0  0  0  0  0  0  0  0
  -25.4675  -15.0574   20.4066 N   0  0  0  0  0  0  0  0  0  0  0  0
  -21.8848  -12.5812   21.6022 N   0  0  0  0  0  0  0  0  0  0  0  0
  -21.2507  -12.5538   14.7439 N   0  0  0  0  0  0  0  0  0  0  0  0
  -25.7891  -11.6297    9.7428 N   0  0  0  0  0  0  0  0  0  0  0  0
  -30.1427  -15.6751   21.5049 N   0  0  0  0  0  0  0  0  0  0  0  0
  -27.6021  -14.2047    7.9680 N   0  3  0  0  0  0  0  0  0  0  0  0
  -22.6593  -14.7214   21.3223 O   0  0  0  0  0  0  0  0  0  0  0  0
  -23.2329  -11.3518   14.5228 O   0  0  0  0  0  0  0  0  0  0  0  0
  -23.1138  -11.5009   10.7600 O   0  0  0  0  0  0  0  0  0  0  0  0
  -27.6585  -12.8237   10.4187 O   0  0  0  0  0  0  0  0  0  0  0  0
  -31.8766  -14.9229   20.2069 O   0  0  0  0  0  0  0  0  0  0  0  0
  -21.6138   -7.0179   21.7084 O   0  0  0  0  0  0  0  0  0  0  0  0
  -27.5225  -15.9761   16.4516 O   0  0  0  0  0  0  0  0  0  1  0  0
  -16.4454   -6.8323   19.7958 F   0  0  0  0  0  0  0  0  0  0  0  0
  -20.8339   -5.0624   19.9167 F   0  0  0  0  0  0  0  0  0  0  0  0
  1  2  1  0  0  0  0
  1  5  2  0  0  0  0
  2  6  2  0  0  0  0
  3  8  2  0  0  0  0
  3 16  1  0  0  0  0
  4  9  1  0  0  0  0
  4 16  2  0  0  0  0
  5 18  1  0  0  0  0
  6 20  1  0  0  0  0
  7 10  2  0  0  0  0
  7 19  1  0  0  0  0
  8 22  1  0  0  0  0
  9 22  2  0  0  0  0
 10 23  1  0  0  0  0
 11 12  2  0  0  0  0
 11 24  1  0  0  0  0
 12 25  1  0  0  0  0
 13 21  1  0  0  0  0
 13 23  2  0  0  0  0
 14 25  2  0  0  0  0
 14 26  1  0  0  0  0
 15 28  1  0  0  0  0
 15 29  2  0  0  0  0
 16 27  1  0  0  0  0
 17 27  1  0  0  0  0
 17 30  2  0  0  0  0
 17 31  1  0  0  0  0
 18 20  2  0  0  0  0
 18 36  1  0  0  0  0
 19 21  2  0  0  0  0
 19 37  1  0  0  0  0
 20 45  1  0  0  0  0
 21 38  1  0  0  0  0
 22 80  1  0  0  0  0
 23 81  1  0  0  0  0
 24 26  2  0  0  0  0
 24 80  1  0  0  0  0
 25 82  1  0  0  0  0
 26 83  1  0  0  0  0
 27 63  2  0  0  0  0
 28 57  1  0  0  0  0
 28 64  2  0  0  0  0
 29 58  1  0  0  0  0
 29 65  1  0  0  0  0
 30 66  1  0  0  0  0
 30 69  1  0  0  0  0
 31 70  1  0  0  0  0
 31 75  2  0  0  0  0
 32 46  1  0  0  0  0
 32 71  1  0  0  0  0
 32 76  2  0  0  0  0
 33 59  1  0  0  0  0
 33 67  1  0  0  0  0
 33 77  2  0  0  0  0
 34 60  1  0  0  0  0
 34 72  1  0  0  0  0
 34 78  2  0  0  0  0
 35 68  1  0  0  0  0
 35 73  1  0  0  0  0
 35 79  2  0  0  0  0
 36 39  1  0  0  0  0
 37 46  1  0  0  0  0
 38 67  1  0  0  0  0
 39 41  1  0  0  0  0
 40 42  1  0  0  0  0
 40 43  1  0  0  0  0
 41 45  1  0  0  0  0
 42 47  1  0  0  0  0
 43 68  1  0  0  0  0
 44 47  1  0  0  0  0
 44 68  1  0  0  0  0
 45 71  1  0  0  0  0
 46 67  1  0  0  0  0
 47 66  1  0  0  0  0
 48 58  1  0  0  0  0
 49 60  1  0  0  0  0
 50 61  1  0  0  0  0
 51 61  1  0  0  0  0
 52 61  1  0  0  0  0
 53 62  1  0  0  0  0
 54 62  1  0  0  0  0
 55 65  1  0  0  0  0
 56 74  1  0  0  0  0
 57 81  1  0  0  0  0
 58 62  1  0  0  0  0
 59 61  1  0  0  0  0
 59 72  1  0  0  0  0
 60 74  1  0  0  0  0
 62 73  1  0  0  0  0
 63 66  1  0  0  0  0
 64 65  1  0  0  0  0
M  CHG  1  74   1
M  ISO  4  35 100  57 101  73 100  81 101
M  END
> <Batch ID>
0055

> <Smiles>
CNC(C)C(=O)NC(C(=O)N1Cc2cc([101O:1][101CH2:1]c3cc(C(C)C(C)(C)[100NH:0][100C:0](=O)N4CCCC(n5nc(-c6ccc(Oc7ccc(F)cc7F)cc6)c(C(N)=O)c5N)C4)n(C)n3)ccc2CC1C(=O)NC1CCCc2ccccc21)C(C)(C)C

> <Shape>
0.172

> <Color>
0.187

> <Negative vol penalty>
0.000

$$$$

  -OEChem-04052317433D

 80 88  0     1  0  0  0  0  0999 V2000
  -33.5025  -32.7631   21.8382 C   0  0  0  0  0  0  0  0  0  0  0  0
  -33.9340  -31.4769   21.5301 C   0  0  0  0  0  0  0  0  0  0  0  0
  -23.5256   -9.6634   20.8324 C   0  0  0  0  0  0  0  0  0  0  0  0
  -24.1672  -10.3581   23.0557 C   0  0  0  0  0  0  0  0  0  0  0  0
  -32.2458  -32.9573   22.4099 C   0  0  0  0  0  0  0  0  0  0  0  0
  -33.1094  -30.3840   21.7946 C   0  0  0  0  0  0  0  0  0  0  0  0
  -31.4551  -23.8942   19.2527 C   0  0  0  0  0  0  0  0  0  0  0  0
  -22.9352   -8.5157   21.3613 C   0  0  0  0  0  0  0  0  0  0  0  0
  -23.5767   -9.2104   23.5847 C   0  0  0  0  0  0  0  0  0  0  0  0
  -31.3531  -22.5678   19.6700 C   0  0  0  0  0  0  0  0  0  0  0  0
  -20.4628   -8.1332   24.3354 C   0  0  0  0  0  0  0  0  0  0  0  0
  -19.6634   -8.2810   25.4689 C   0  0  0  0  0  0  0  0  0  0  0  0
  -29.1702  -23.0304   20.5866 C   0  0  0  0  0  0  0  0  0  0  0  0
  -21.1214   -6.7920   26.6913 C   0  0  0  0  0  0  0  0  0  0  0  0
  -30.9473  -18.3036   22.2969 C   0  0  0  0  0  0  0  0  0  0  0  0
  -24.1417  -10.5846   21.6796 C   0  0  0  0  0  0  0  0  0  0  0  0
  -24.1406  -13.0199   20.9199 C   0  0  0  0  0  0  0  0  0  0  0  0
  -31.4015  -31.8671   22.6727 C   0  0  0  0  0  0  0  0  0  0  0  0
  -30.4182  -24.8028   19.5092 C   0  0  0  0  0  0  0  0  0  0  0  0
  -31.8408  -30.5637   22.3716 C   0  0  0  0  0  0  0  0  0  0  0  0
  -29.2604  -24.3671   20.1693 C   0  0  0  0  0  0  0  0  0  0  0  0
  -22.9607   -8.2892   22.7375 C   0  0  0  0  0  0  0  0  0  0  0  0
  -30.2117  -22.1365   20.3397 C   0  0  0  0  0  0  0  0  0  0  0  0
  -21.5915   -7.3147   24.3799 C   0  0  0  0  0  0  0  0  0  0  0  0
  -19.9927   -7.6105   26.6468 C   0  0  0  0  0  0  0  0  0  0  0  0
  -21.9207   -6.6441   25.5578 C   0  0  0  0  0  0  0  0  0  0  0  0
  -24.7522  -11.7701   21.1337 C   0  0  0  0  0  0  0  0  0  0  0  0
  -30.8969  -18.6019   20.9594 C   0  0  0  0  0  0  0  0  0  0  0  0
  -25.1361  -13.8030   20.3888 C   0  0  0  0  0  0  0  0  0  0  0  0
  -30.3452  -16.1813   21.8137 C   0  0  0  0  0  0  0  0  0  0  0  0
  -22.7930  -13.4358   21.1783 C   0  0  0  0  0  0  0  0  0  0  0  0
  -30.1596  -27.5003   21.1706 C   0  0  0  0  0  0  0  0  0  0  0  0
  -27.1975  -27.5720   19.8502 C   0  0  0  0  0  0  0  0  0  0  0  0
  -24.6072  -25.8469   18.4499 C   0  0  0  0  0  0  0  0  0  0  0  0
  -31.2027  -13.0736   20.8391 C   0  0  0  0  0  0  0  0  0  0  0  0
  -30.0709  -32.1225   23.3351 C   0  0  0  0  0  0  0  0  0  0  0  0
  -30.5323  -26.2236   19.0289 C   0  0  0  0  0  0  0  0  0  0  0  0
  -28.1105  -25.2981   20.4512 C   0  0  0  0  0  0  0  0  0  0  0  0
  -29.1060  -30.9436   23.2384 C   0  0  0  0  0  0  0  0  0  0  0  0
  -29.1434  -13.5404   17.7989 C   0  0  0  0  0  0  0  0  0  0  0  0
  -29.8163  -29.6417   23.5953 C   0  0  0  0  0  0  0  0  0  0  0  0
  -27.7427  -13.1730   18.2857 C   0  0  0  0  0  0  0  0  0  0  0  0
  -30.2272  -12.8113   18.5871 C   0  0  0  0  0  0  0  0  0  0  0  0
  -28.7302  -12.6328   20.5470 C   0  0  0  0  0  0  0  0  0  0  0  0
  -30.9650  -29.3549   22.6207 C   0  0  1  0  0  0  0  0  0  0  0  0
  -29.6346  -27.1882   19.7978 C   0  0  1  0  0  0  0  0  0  0  0  0
  -27.6163  -13.3859   19.8043 C   0  0  2  0  0  0  0  0  0  0  0  0
  -22.3057  -26.1732   17.5045 C   0  0  0  0  0  0  0  0  0  0  0  0
  -26.0822  -27.8696   22.6747 C   0  0  0  0  0  0  0  0  0  0  0  0
  -23.8313  -27.2400   21.7772 C   0  0  0  0  0  0  0  0  0  0  0  0
  -24.9668  -29.3038   20.9561 C   0  0  0  0  0  0  0  0  0  0  0  0
  -32.2775  -13.9816   22.8639 C   0  0  0  0  0  0  0  0  0  0  0  0
  -25.4278  -24.8299   15.7944 C   0  0  0  0  0  0  0  0  0  0  0  0
  -31.2100  -19.9812   20.4586 C   0  0  0  0  0  0  0  0  0  1  0  0
  -30.0272  -14.7989   22.2688 C   0  0  0  0  0  0  0  0  0  0  0  0
  -25.8395  -27.0412   20.2414 C   0  0  1  0  0  0  0  0  0  0  0  0
  -23.7924  -26.0973   17.1937 C   0  0  2  0  0  0  0  0  0  0  0  0
  -25.2023  -27.8463   21.4089 C   0  0  0  0  0  0  0  0  0  0  0  0
  -30.6703  -17.0751   22.7596 N   0  0  0  0  0  0  0  0  0  0  0  0
  -26.0368  -11.7554   20.7682 N   0  0  0  0  0  0  0  0  0  0  0  0
  -30.5639  -17.6626   20.0556 N   0  0  0  0  0  0  0  0  0  0  0  0
  -30.2792  -16.4167   20.4885 N   0  0  0  0  0  0  0  0  0  0  0  0
  -26.2405  -13.0057   20.3192 N   0  0  0  0  0  0  0  0  0  0  0  0
  -28.2722  -26.6791   19.9672 N   0  0  0  0  0  0  0  0  0  0  0  0
  -30.0580  -12.9949   20.0290 N   0  0  0  0  0  0  0  0  0  0  0  0
  -25.1659  -15.0890   19.9792 N   0  0  0  0  0  0  0  0  0  0  0  0
  -21.8999  -12.5049   21.7261 N   0  0  0  0  0  0  0  0  0  0  0  0
  -30.4503  -28.8362   21.3715 N   0  0  0  0  0  0  0  0  0  0  0  0
  -25.0406  -27.0248   19.0208 N   0  0  0  0  0  0  0  0  0  0  0  0
  -31.1134  -13.8596   21.9979 N   0  0  0  0  0  0  0  0  0  0  0  0
  -24.0111  -25.0017   16.2075 N   0  3  0  0  0  0  0  0  0  0  0  0
  -22.3883  -14.5937   20.9155 O   0  0  0  0  0  0  0  0  0  0  0  0
  -30.2897  -26.5963   21.9877 O   0  0  0  0  0  0  0  0  0  0  0  0
  -27.3000  -28.7339   19.4487 O   0  0  0  0  0  0  0  0  0  0  0  0
  -24.8333  -24.7193   18.8834 O   0  0  0  0  0  0  0  0  0  0  0  0
  -32.2481  -12.4831   20.5384 O   0  0  0  0  0  0  0  0  0  0  0  0
  -22.3845   -7.1695   23.2540 O   0  0  0  0  0  0  0  0  0  0  0  0
  -30.1099  -20.8426   20.7487 O   0  0  0  0  0  0  0  0  0  1  0  0
  -19.2258   -7.7538   27.7356 F   0  0  0  0  0  0  0  0  0  0  0  0
  -23.0044   -5.8574   25.6070 F   0  0  0  0  0  0  0  0  0  0  0  0
  1  2  1  0  0  0  0
  1  5  2  0  0  0  0
  2  6  2  0  0  0  0
  3  8  2  0  0  0  0
  3 16  1  0  0  0  0
  4  9  1  0  0  0  0
  4 16  2  0  0  0  0
  5 18  1  0  0  0  0
  6 20  1  0  0  0  0
  7 10  2  0  0  0  0
  7 19  1  0  0  0  0
  8 22  1  0  0  0  0
  9 22  2  0  0  0  0
 10 23  1  0  0  0  0
 11 12  2  0  0  0  0
 11 24  1  0  0  0  0
 12 25  1  0  0  0  0
 13 21  1  0  0  0  0
 13 23  2  0  0  0  0
 14 25  2  0  0  0  0
 14 26  1  0  0  0  0
 15 28  1  0  0  0  0
 15 59  2  0  0  0  0
 16 27  1  0  0  0  0
 17 27  1  0  0  0  0
 17 29  2  0  0  0  0
 17 31  1  0  0  0  0
 18 20  2  0  0  0  0
 18 36  1  0  0  0  0
 19 21  2  0  0  0  0
 19 37  1  0  0  0  0
 20 45  1  0  0  0  0
 21 38  1  0  0  0  0
 22 77  1  0  0  0  0
 23 78  1  0  0  0  0
 24 26  2  0  0  0  0
 24 77  1  0  0  0  0
 25 79  1  0  0  0  0
 26 80  1  0  0  0  0
 27 60  2  0  0  0  0
 28 54  1  0  0  0  0
 28 61  2  0  0  0  0
 29 63  1  0  0  0  0
 29 66  1  0  0  0  0
 30 55  1  0  0  0  0
 30 59  1  0  0  0  0
 30 62  2  0  0  0  0
 31 67  1  0  0  0  0
 31 72  2  0  0  0  0
 32 46  1  0  0  0  0
 32 68  1  0  0  0  0
 32 73  2  0  0  0  0
 33 56  1  0  0  0  0
 33 64  1  0  0  0  0
 33 74  2  0  0  0  0
 34 57  1  0  0  0  0
 34 69  1  0  0  0  0
 34 75  2  0  0  0  0
 35 65  1  0  0  0  0
 35 70  1  0  0  0  0
 35 76  2  0  0  0  0
 36 39  1  0  0  0  0
 37 46  1  0  0  0  0
 38 64  1  0  0  0  0
 39 41  1  0  0  0  0
 40 42  1  0  0  0  0
 40 43  1  0  0  0  0
 41 45  1  0  0  0  0
 42 47  1  0  0  0  0
 43 65  1  0  0  0  0
 44 47  1  0  0  0  0
 44 65  1  0  0  0  0
 45 68  1  0  0  0  0
 46 64  1  0  0  0  0
 47 63  1  0  0  0  0
 48 57  1  0  0  0  0
 49 58  1  0  0  0  0
 50 58  1  0  0  0  0
 51 58  1  0  0  0  0
 52 70  1  0  0  0  0
 53 71  1  0  0  0  0
 54 78  1  0  0  0  0
 55 70  1  0  0  0  0
 56 58  1  0  0  0  0
 56 69  1  0  0  0  0
 57 71  1  0  0  0  0
 60 63  1  0  0  0  0
 61 62  1  0  0  0  0
M  CHG  1  71   1
M  ISO  4  35 100  54 101  70 100  78 101
M  END
> <Batch ID>
0055

> <Smiles>
CNC(C)C(=O)NC(C(=O)N1Cc2cc([101O:1][101CH2:1]c3cnc(C[100N:0](C)[100C:0](=O)N4CCCC(n5nc(-c6ccc(Oc7ccc(F)cc7F)cc6)c(C(N)=O)c5N)C4)nn3)ccc2CC1C(=O)NC1CCCc2ccccc21)C(C)(C)C

> <Shape>
0.281

> <Color>
0.158

> <Negative vol penalty>
0.000

$$$$

  -OEChem-04052317433D

 85 93  0     1  0  0  0  0  0999 V2000
  -17.6476  -14.7685   21.1149 C   0  0  0  0  0  0  0  0  0  0  0  0
  -18.5554  -15.7748   20.8008 C   0  0  0  0  0  0  0  0  0  0  0  0
  -22.5307  -27.4613   22.4857 C   0  0  0  0  0  0  0  0  0  0  0  0
  -23.5749  -29.6236   22.2187 C   0  0  0  0  0  0  0  0  0  0  0  0
  -18.0526  -13.6833   21.8910 C   0  0  0  0  0  0  0  0  0  0  0  0
  -19.8684  -15.6971   21.2636 C   0  0  0  0  0  0  0  0  0  0  0  0
  -24.9122  -17.6154   18.3676 C   0  0  0  0  0  0  0  0  0  0  0  0
  -21.4803  -28.0550   23.1856 C   0  0  0  0  0  0  0  0  0  0  0  0
  -22.5245  -30.2173   22.9186 C   0  0  0  0  0  0  0  0  0  0  0  0
  -25.6717  -18.7793   18.4779 C   0  0  0  0  0  0  0  0  0  0  0  0
  -18.6858  -29.8159   22.4623 C   0  0  0  0  0  0  0  0  0  0  0  0
  -17.3869  -29.4285   22.1333 C   0  0  0  0  0  0  0  0  0  0  0  0
  -27.1836  -17.6435   19.9757 C   0  0  0  0  0  0  0  0  0  0  0  0
  -17.0415  -28.6630   24.3987 C   0  0  0  0  0  0  0  0  0  0  0  0
  -30.0566  -22.0158   20.4360 C   0  0  0  0  0  0  0  0  0  0  0  0
  -23.5781  -28.2456   22.0023 C   0  0  0  0  0  0  0  0  0  0  0  0
  -24.7478  -27.4209   19.8906 C   0  0  0  0  0  0  0  0  0  0  0  0
  -19.3738  -13.5874   22.3554 C   0  0  0  0  0  0  0  0  0  0  0  0
  -25.2771  -16.4581   19.0703 C   0  0  0  0  0  0  0  0  0  0  0  0
  -20.2911  -14.6103   22.0477 C   0  0  0  0  0  0  0  0  0  0  0  0
  -26.4285  -16.4655   19.8706 C   0  0  0  0  0  0  0  0  0  0  0  0
  -31.1420  -22.4849   19.7372 C   0  0  0  0  0  0  0  0  0  0  0  0
  -21.4772  -29.4330   23.4020 C   0  0  0  0  0  0  0  0  0  0  0  0
  -26.8060  -18.7943   19.2843 C   0  0  0  0  0  0  0  0  0  0  0  0
  -19.1627  -29.6268   23.7594 C   0  0  0  0  0  0  0  0  0  0  0  0
  -16.5647  -28.8521   23.1015 C   0  0  0  0  0  0  0  0  0  0  0  0
  -18.3405  -29.0504   24.7276 C   0  0  0  0  0  0  0  0  0  0  0  0
  -24.6637  -27.6329   21.2798 C   0  0  0  0  0  0  0  0  0  0  0  0
  -30.5849  -23.2123   18.6684 C   0  0  0  0  0  0  0  0  0  0  0  0
  -25.9652  -26.8115   19.7094 C   0  0  0  0  0  0  0  0  0  0  0  0
  -23.8093  -27.7460   18.8565 C   0  0  0  0  0  0  0  0  0  0  0  0
  -23.9139  -14.6786   21.3239 C   0  0  0  0  0  0  0  0  0  0  0  0
  -26.4775  -12.7585   20.8110 C   0  0  0  0  0  0  0  0  0  0  0  0
  -31.4390  -26.5466   20.8308 C   0  0  0  0  0  0  0  0  0  0  0  0
  -29.6955  -12.4529   19.7163 C   0  0  0  0  0  0  0  0  0  0  0  0
  -19.7526  -12.4191   23.2307 C   0  0  0  0  0  0  0  0  0  0  0  0
  -24.4622  -15.2028   18.9196 C   0  0  0  0  0  0  0  0  0  0  0  0
  -26.8745  -15.2434   20.6296 C   0  0  0  0  0  0  0  0  0  0  0  0
  -21.2604  -12.2245   23.3680 C   0  0  0  0  0  0  0  0  0  0  0  0
  -29.2008  -24.8419   23.0500 C   0  0  0  0  0  0  0  0  0  0  0  0
  -21.9463  -13.5557   23.6584 C   0  0  0  0  0  0  0  0  0  0  0  0
  -27.8321  -25.4208   22.6939 C   0  0  0  0  0  0  0  0  0  0  0  0
  -30.3005  -25.8919   22.9260 C   0  0  0  0  0  0  0  0  0  0  0  0
  -28.9951  -27.1307   21.2281 C   0  0  0  0  0  0  0  0  0  0  0  0
  -21.7307  -14.5493   22.5104 C   0  0  1  0  0  0  0  0  0  0  0  0
  -24.6373  -14.2334   20.0845 C   0  0  1  0  0  0  0  0  0  0  0  0
  -27.8600  -26.0949   21.3107 C   0  0  2  0  0  0  0  0  0  0  0  0
  -33.2210  -21.2140   19.1466 C   0  0  0  0  0  0  0  0  0  0  0  0
  -32.6851  -27.7464   19.0320 C   0  0  0  0  0  0  0  0  0  0  0  0
  -31.5361  -10.7671   19.4564 C   0  0  0  0  0  0  0  0  0  0  0  0
  -27.0198  -12.8917   23.8107 C   0  0  0  0  0  0  0  0  0  0  0  0
  -29.3246  -12.0230   23.3620 C   0  0  0  0  0  0  0  0  0  0  0  0
  -27.3356  -10.6292   22.7929 C   0  0  0  0  0  0  0  0  0  0  0  0
  -29.7715  -12.8164   16.7801 C   0  0  0  0  0  0  0  0  0  0  0  0
  -30.1591  -26.8910   17.3120 C   0  0  0  0  0  0  0  0  0  0  0  0
  -32.5652  -22.2681   20.0472 C   0  0  0  0  0  0  0  0  0  0  0  0
  -31.2966  -23.9342   17.5992 C   0  0  0  0  0  0  0  0  0  0  0  0
  -27.5167  -22.2252   20.1423 C   0  0  0  0  0  0  0  0  0  0  0  0
  -31.9138  -25.2750   18.0271 C   0  0  0  0  0  0  0  0  0  0  0  0
  -26.8608  -21.1718   19.2561 C   0  0  0  0  0  0  0  0  0  1  0  0
  -27.8706  -12.6592   21.3841 C   0  0  1  0  0  0  0  0  0  0  0  0
  -31.3383  -27.2126   19.4816 C   0  0  1  0  0  0  0  0  0  0  0  0
  -30.3523  -11.4479   18.7872 C   0  0  2  0  0  0  0  0  0  0  0  0
  -27.8784  -12.0746   22.8248 C   0  0  0  0  0  0  0  0  0  0  0  0
  -25.7418  -27.1936   21.9346 N   0  0  0  0  0  0  0  0  0  0  0  0
  -29.2493  -23.2082   18.6827 N   0  0  0  0  0  0  0  0  0  0  0  0
  -28.9581  -22.4725   19.7690 N   0  0  0  0  0  0  0  0  0  0  0  0
  -26.5148  -26.6995   20.9526 N   0  0  0  0  0  0  0  0  0  0  0  0
  -26.0411  -14.0424   20.4549 N   0  0  0  0  0  0  0  0  0  0  0  0
  -30.2794  -26.5246   21.6060 N   0  0  0  0  0  0  0  0  0  0  0  0
  -26.6085  -26.3658   18.6094 N   0  0  0  0  0  0  0  0  0  0  0  0
  -22.6074  -28.3701   19.2171 N   0  0  0  0  0  0  0  0  0  0  0  0
  -22.6065  -14.2378   21.4012 N   0  0  0  0  0  0  0  0  0  0  0  0
  -28.6536  -11.8903   20.4229 N   0  0  0  0  0  0  0  0  0  0  0  0
  -30.8365  -12.1248   17.5510 N   0  3  0  0  0  0  0  0  0  0  0  0
  -30.8475  -26.2079   18.4681 N   0  3  1  0  0  0  0  0  0  0  0  0
  -24.0229  -27.4756   17.6504 O   0  0  0  0  0  0  0  0  0  0  0  0
  -24.4990  -15.3696   22.1497 O   0  0  0  0  0  0  0  0  0  0  0  0
  -25.8042  -11.7336   20.6773 O   0  0  0  0  0  0  0  0  0  0  0  0
  -32.5162  -26.0585   21.1824 O   0  0  0  0  0  0  0  0  0  0  0  0
  -30.0716  -13.6193   19.8088 O   0  0  0  0  0  0  0  0  0  0  0  0
  -20.4523  -30.0127   24.0847 O   0  0  0  0  0  0  0  0  0  0  0  0
  -27.5489  -19.9293   19.3942 O   0  0  0  0  0  0  0  0  0  1  0  0
  -15.3168  -28.4815   22.7859 F   0  0  0  0  0  0  0  0  0  0  0  0
  -18.7926  -28.8673   25.9758 F   0  0  0  0  0  0  0  0  0  0  0  0
  1  2  1  0  0  0  0
  1  5  2  0  0  0  0
  2  6  2  0  0  0  0
  3  8  2  0  0  0  0
  3 16  1  0  0  0  0
  4  9  1  0  0  0  0
  4 16  2  0  0  0  0
  5 18  1  0  0  0  0
  6 20  1  0  0  0  0
  7 10  2  0  0  0  0
  7 19  1  0  0  0  0
  8 23  1  0  0  0  0
  9 23  2  0  0  0  0
 10 24  1  0  0  0  0
 11 12  2  0  0  0  0
 11 25  1  0  0  0  0
 12 26  1  0  0  0  0
 13 21  1  0  0  0  0
 13 24  2  0  0  0  0
 14 26  2  0  0  0  0
 14 27  1  0  0  0  0
 15 22  2  0  0  0  0
 15 67  1  0  0  0  0
 16 28  1  0  0  0  0
 17 28  1  0  0  0  0
 17 30  2  0  0  0  0
 17 31  1  0  0  0  0
 18 20  2  0  0  0  0
 18 36  1  0  0  0  0
 19 21  2  0  0  0  0
 19 37  1  0  0  0  0
 20 45  1  0  0  0  0
 21 38  1  0  0  0  0
 22 29  1  0  0  0  0
 22 56  1  0  0  0  0
 23 82  1  0  0  0  0
 24 83  1  0  0  0  0
 25 27  2  0  0  0  0
 25 82  1  0  0  0  0
 26 84  1  0  0  0  0
 27 85  1  0  0  0  0
 28 65  2  0  0  0  0
 29 57  1  0  0  0  0
 29 66  2  0  0  0  0
 30 68  1  0  0  0  0
 30 71  1  0  0  0  0
 31 72  1  0  0  0  0
 31 77  2  0  0  0  0
 32 46  1  0  0  0  0
 32 73  1  0  0  0  0
 32 78  2  0  0  0  0
 33 61  1  0  0  0  0
 33 69  1  0  0  0  0
 33 79  2  0  0  0  0
 34 62  1  0  0  0  0
 34 70  1  0  0  0  0
 34 80  2  0  0  0  0
 35 63  1  0  0  0  0
 35 74  1  0  0  0  0
 35 81  2  0  0  0  0
 36 39  1  0  0  0  0
 37 46  1  0  0  0  0
 38 69  1  0  0  0  0
 39 41  1  0  0  0  0
 40 42  1  0  0  0  0
 40 43  1  0  0  0  0
 41 45  1  0  0  0  0
 42 47  1  0  0  0  0
 43 70  1  0  0  0  0
 44 47  1  0  0  0  0
 44 70  1  0  0  0  0
 45 73  1  0  0  0  0
 46 69  1  0  0  0  0
 47 68  1  0  0  0  0
 48 56  1  0  0  0  0
 49 62  1  0  0  0  0
 50 63  1  0  0  0  0
 51 64  1  0  0  0  0
 52 64  1  0  0  0  0
 53 64  1  0  0  0  0
 54 75  1  0  0  0  0
 55 76  1  0  0  0  0
 57 59  1  0  0  0  0
 58 60  1  0  0  0  0
 58 67  1  0  0  0  0
 59 76  1  0  0  0  0
 60 83  1  0  0  0  0
 61 64  1  0  0  0  0
 61 74  1  0  0  0  0
 62 76  1  0  0  0  0
 63 75  1  0  0  0  0
 65 68  1  0  0  0  0
 66 67  1  0  0  0  0
M  CHG  2  75   1  76   1
M  ISO  4  34 100  60 101  62 100  83 101
M  END
> <Batch ID>
0055

> <Smiles>
CCc1cn(C[101CH2:1][101O:1]c2ccc3c(c2)CN(C(=O)C(NC(=O)C(C)NC)C(C)(C)C)C(C(=O)NC2CCCc4ccccc42)C3)nc1CCN(C)[100CH:0](C)[100C:0](=O)N1CCCC(n2nc(-c3ccc(Oc4ccc(F)cc4F)cc3)c(C(N)=O)c2N)C1

> <Shape>
0.268

> <Color>
0.058

> <Negative vol penalty>
0.000

$$$$

  -OEChem-04052317433D

 82 90  0     1  0  0  0  0  0999 V2000
  -18.2563  -28.5506   23.8764 C   0  0  0  0  0  0  0  0  0  0  0  0
  -18.9708  -27.3644   23.7426 C   0  0  0  0  0  0  0  0  0  0  0  0
  -23.1394   -9.8454   19.9217 C   0  0  0  0  0  0  0  0  0  0  0  0
  -23.9151   -9.8485   22.2097 C   0  0  0  0  0  0  0  0  0  0  0  0
  -18.3277  -29.5224   22.8792 C   0  0  0  0  0  0  0  0  0  0  0  0
  -19.7563  -27.1489   22.6108 C   0  0  0  0  0  0  0  0  0  0  0  0
  -25.0784  -24.1306   22.3437 C   0  0  0  0  0  0  0  0  0  0  0  0
  -22.4200   -8.6758   20.1671 C   0  0  0  0  0  0  0  0  0  0  0  0
  -23.1957   -8.6790   22.4552 C   0  0  0  0  0  0  0  0  0  0  0  0
  -25.3995  -22.8268   21.9684 C   0  0  0  0  0  0  0  0  0  0  0  0
  -19.9881   -7.8129   23.0732 C   0  0  0  0  0  0  0  0  0  0  0  0
  -19.2403   -7.7485   24.2489 C   0  0  0  0  0  0  0  0  0  0  0  0
  -25.9376  -23.6046   19.7492 C   0  0  0  0  0  0  0  0  0  0  0  0
  -20.5246   -5.8299   24.9607 C   0  0  0  0  0  0  0  0  0  0  0  0
  -23.8870  -10.4317   20.9430 C   0  0  0  0  0  0  0  0  0  0  0  0
  -24.1783  -12.9640   20.8416 C   0  0  0  0  0  0  0  0  0  0  0  0
  -19.1221  -29.3227   21.7392 C   0  0  0  0  0  0  0  0  0  0  0  0
  -25.1742  -25.1812   21.4199 C   0  0  0  0  0  0  0  0  0  0  0  0
  -19.8374  -28.1184   21.5968 C   0  0  0  0  0  0  0  0  0  0  0  0
  -25.6196  -24.9212   20.1160 C   0  0  0  0  0  0  0  0  0  0  0  0
  -22.4482   -8.0926   21.4339 C   0  0  0  0  0  0  0  0  0  0  0  0
  -25.8264  -22.5632   20.6702 C   0  0  0  0  0  0  0  0  0  0  0  0
  -21.0041   -6.8858   22.8412 C   0  0  0  0  0  0  0  0  0  0  0  0
  -19.5086   -6.7570   25.1926 C   0  0  0  0  0  0  0  0  0  0  0  0
  -21.2724   -5.8943   23.7849 C   0  0  0  0  0  0  0  0  0  0  0  0
  -24.6307  -11.6396   20.6899 C   0  0  0  0  0  0  0  0  0  0  0  0
  -25.2530  -13.7378   20.4771 C   0  0  0  0  0  0  0  0  0  0  0  0
  -26.2297  -17.6532   17.8727 C   0  0  0  0  0  0  0  0  0  0  0  0
  -28.1410  -17.8301   19.0357 C   0  0  0  0  0  0  0  0  0  0  0  0
  -26.8383  -19.6331   18.7369 C   0  0  0  0  0  0  0  0  0  0  0  0
  -22.9010  -13.4513   21.2735 C   0  0  0  0  0  0  0  0  0  0  0  0
  -23.1151  -27.2354   20.1375 C   0  0  0  0  0  0  0  0  0  0  0  0
  -25.8012  -28.5288   18.8590 C   0  0  0  0  0  0  0  0  0  0  0  0
  -29.0434  -28.0986   17.8845 C   0  0  0  0  0  0  0  0  0  0  0  0
  -30.8481  -14.5556   21.0626 C   0  0  0  0  0  0  0  0  0  0  0  0
  -19.1306  -30.3821   20.6657 C   0  0  0  0  0  0  0  0  0  0  0  0
  -24.8497  -26.5862   21.8480 C   0  0  0  0  0  0  0  0  0  0  0  0
  -25.7589  -26.0170   19.0922 C   0  0  0  0  0  0  0  0  0  0  0  0
  -20.2814  -30.2347   19.6736 C   0  0  0  0  0  0  0  0  0  0  0  0
  -29.6088  -12.5091   18.2382 C   0  0  0  0  0  0  0  0  0  0  0  0
  -20.4083  -28.7856   19.2146 C   0  0  0  0  0  0  0  0  0  0  0  0
  -28.1898  -12.1556   18.6804 C   0  0  0  0  0  0  0  0  0  0  0  0
  -30.5353  -12.7316   19.4296 C   0  0  0  0  0  0  0  0  0  0  0  0
  -28.6161  -13.3881   20.8437 C   0  0  0  0  0  0  0  0  0  0  0  0
  -20.7201  -27.8582   20.3954 C   0  0  1  0  0  0  0  0  0  0  0  0
  -24.4915  -27.4992   20.6795 C   0  0  1  0  0  0  0  0  0  0  0  0
  -27.6458  -13.2032   19.6674 C   0  0  2  0  0  0  0  0  0  0  0  0
  -25.2633  -16.8260   17.0952 C   0  0  0  0  0  0  0  0  0  0  0  0
  -30.9660  -29.3273   16.8399 C   0  0  0  0  0  0  0  0  0  0  0  0
  -24.4621  -28.2968   16.1272 C   0  0  0  0  0  0  0  0  0  0  0  0
  -26.7102  -28.6241   15.0749 C   0  0  0  0  0  0  0  0  0  0  0  0
  -25.7246  -30.4244   16.4927 C   0  0  0  0  0  0  0  0  0  0  0  0
  -31.2309  -16.7515   22.1167 C   0  0  0  0  0  0  0  0  0  0  0  0
  -30.7429  -27.7084   20.2758 C   0  0  0  0  0  0  0  0  0  0  0  0
  -29.3736  -17.2066   19.5965 C   0  0  0  0  0  0  0  0  0  0  0  0
  -26.5704  -21.0932   18.9551 C   0  0  0  0  0  0  0  0  0  1  0  0
  -29.1266  -16.4009   20.8778 C   0  0  0  0  0  0  0  0  0  0  0  0
  -26.5899  -28.3171   17.5894 C   0  0  1  0  0  0  0  0  0  0  0  0
  -30.2906  -28.9248   18.1417 C   0  0  2  0  0  0  0  0  0  0  0  0
  -25.8673  -28.8944   16.3395 C   0  0  0  0  0  0  0  0  0  0  0  0
  -25.8942  -11.5721   20.2622 N   0  0  0  0  0  0  0  0  0  0  0  0
  -27.3172  -17.0240   18.3471 N   0  0  0  0  0  0  0  0  0  0  0  0
  -25.9242  -18.9516   18.0275 N   0  0  0  0  0  0  0  0  0  0  0  0
  -27.9677  -19.1408   19.2707 N   0  0  0  0  0  0  0  0  0  0  0  0
  -26.2450  -12.8638   20.1419 N   0  0  0  0  0  0  0  0  0  0  0  0
  -25.4237  -27.3731   19.5573 N   0  0  0  0  0  0  0  0  0  0  0  0
  -29.9742  -13.6992   20.3730 N   0  0  0  0  0  0  0  0  0  0  0  0
  -25.4367  -15.0737   20.4137 N   0  0  0  0  0  0  0  0  0  0  0  0
  -21.9095  -12.5197   21.6101 N   0  0  0  0  0  0  0  0  0  0  0  0
  -22.1166  -27.9584   20.7617 N   0  0  0  0  0  0  0  0  0  0  0  0
  -27.9120  -28.8848   17.8306 N   0  0  0  0  0  0  0  0  0  0  0  0
  -30.3586  -15.8236   21.4110 N   0  0  0  0  0  0  0  0  0  0  0  0
  -31.2670  -28.1487   18.9574 N   0  3  0  0  0  0  0  0  0  0  0  0
  -22.6410  -14.6765   21.3427 O   0  0  0  0  0  0  0  0  0  0  0  0
  -22.9701  -26.4362   19.2199 O   0  0  0  0  0  0  0  0  0  0  0  0
  -25.5361  -29.6777   19.2218 O   0  0  0  0  0  0  0  0  0  0  0  0
  -29.0706  -26.8782   17.7417 O   0  0  0  0  0  0  0  0  0  0  0  0
  -32.0034  -14.2104   21.3420 O   0  0  0  0  0  0  0  0  0  0  0  0
  -21.7462   -6.9515   21.6738 O   0  0  0  0  0  0  0  0  0  0  0  0
  -26.1398  -21.2914   20.3011 O   0  0  0  0  0  0  0  0  0  1  0  0
  -18.7914   -6.6963   26.3223 F   0  0  0  0  0  0  0  0  0  0  0  0
  -22.2480   -5.0015   23.5681 F   0  0  0  0  0  0  0  0  0  0  0  0
  1  2  1  0  0  0  0
  1  5  2  0  0  0  0
  2  6  2  0  0  0  0
  3  8  2  0  0  0  0
  3 15  1  0  0  0  0
  4  9  1  0  0  0  0
  4 15  2  0  0  0  0
  5 17  1  0  0  0  0
  6 19  1  0  0  0  0
  7 10  2  0  0  0  0
  7 18  1  0  0  0  0
  8 21  1  0  0  0  0
  9 21  2  0  0  0  0
 10 22  1  0  0  0  0
 11 12  2  0  0  0  0
 11 23  1  0  0  0  0
 12 24  1  0  0  0  0
 13 20  1  0  0  0  0
 13 22  2  0  0  0  0
 14 24  2  0  0  0  0
 14 25  1  0  0  0  0
 15 26  1  0  0  0  0
 16 26  1  0  0  0  0
 16 27  2  0  0  0  0
 16 31  1  0  0  0  0
 17 19  2  0  0  0  0
 17 36  1  0  0  0  0
 18 20  2  0  0  0  0
 18 37  1  0  0  0  0
 19 45  1  0  0  0  0
 20 38  1  0  0  0  0
 21 79  1  0  0  0  0
 22 80  1  0  0  0  0
 23 25  2  0  0  0  0
 23 79  1  0  0  0  0
 24 81  1  0  0  0  0
 25 82  1  0  0  0  0
 26 61  2  0  0  0  0
 27 65  1  0  0  0  0
 27 68  1  0  0  0  0
 28 48  1  0  0  0  0
 28 62  1  0  0  0  0
 28 63  2  0  0  0  0
 29 55  1  0  0  0  0
 29 62  2  0  0  0  0
 29 64  1  0  0  0  0
 30 56  1  0  0  0  0
 30 63  1  0  0  0  0
 30 64  2  0  0  0  0
 31 69  1  0  0  0  0
 31 74  2  0  0  0  0
 32 46  1  0  0  0  0
 32 70  1  0  0  0  0
 32 75  2  0  0  0  0
 33 58  1  0  0  0  0
 33 66  1  0  0  0  0
 33 76  2  0  0  0  0
 34 59  1  0  0  0  0
 34 71  1  0  0  0  0
 34 77  2  0  0  0  0
 35 67  1  0  0  0  0
 35 72  1  0  0  0  0
 35 78  2  0  0  0  0
 36 39  1  0  0  0  0
 37 46  1  0  0  0  0
 38 66  1  0  0  0  0
 39 41  1  0  0  0  0
 40 42  1  0  0  0  0
 40 43  1  0  0  0  0
 41 45  1  0  0  0  0
 42 47  1  0  0  0  0
 43 67  1  0  0  0  0
 44 47  1  0  0  0  0
 44 67  1  0  0  0  0
 45 70  1  0  0  0  0
 46 66  1  0  0  0  0
 47 65  1  0  0  0  0
 49 59  1  0  0  0  0
 50 60  1  0  0  0  0
 51 60  1  0  0  0  0
 52 60  1  0  0  0  0
 53 72  1  0  0  0  0
 54 73  1  0  0  0  0
 55 57  1  0  0  0  0
 56 80  1  0  0  0  0
 57 72  1  0  0  0  0
 58 60  1  0  0  0  0
 58 71  1  0  0  0  0
 59 73  1  0  0  0  0
 61 65  1  0  0  0  0
M  CHG  1  73   1
M  ISO  4  35 100  56 101  72 100  80 101
M  END
> <Batch ID>
0055

> <Smiles>
CNC(C)C(=O)NC(C(=O)N1Cc2cc([101O:1][101CH2:1]c3nc(C)nc(CC[100N:0](C)[100C:0](=O)N4CCCC(n5nc(-c6ccc(Oc7ccc(F)cc7F)cc6)c(C(N)=O)c5N)C4)n3)ccc2CC1C(=O)NC1CCCc2ccccc21)C(C)(C)C

> <Shape>
0.281

> <Color>
0.188

> <Negative vol penalty>
0.000

$$$$

  -OEChem-04052317433D

 84 92  0     1  0  0  0  0  0999 V2000
  -25.6890  -32.1351   24.2493 C   0  0  0  0  0  0  0  0  0  0  0  0
  -26.2805  -30.8932   24.0412 C   0  0  0  0  0  0  0  0  0  0  0  0
  -23.6277   -9.7378   22.3831 C   0  0  0  0  0  0  0  0  0  0  0  0
  -23.4980   -9.7288   19.9706 C   0  0  0  0  0  0  0  0  0  0  0  0
  -24.7380  -32.6127   23.3484 C   0  0  0  0  0  0  0  0  0  0  0  0
  -25.9205  -30.1277   22.9327 C   0  0  0  0  0  0  0  0  0  0  0  0
  -29.5568  -26.4321   19.6731 C   0  0  0  0  0  0  0  0  0  0  0  0
  -22.8060   -8.6117   22.4314 C   0  0  0  0  0  0  0  0  0  0  0  0
  -22.6764   -8.6026   20.0189 C   0  0  0  0  0  0  0  0  0  0  0  0
  -29.7559  -25.0524   19.6971 C   0  0  0  0  0  0  0  0  0  0  0  0
  -23.0417   -5.2718   20.4581 C   0  0  0  0  0  0  0  0  0  0  0  0
  -23.3191   -4.2305   19.5725 C   0  0  0  0  0  0  0  0  0  0  0  0
  -28.1816  -24.7998   17.8869 C   0  0  0  0  0  0  0  0  0  0  0  0
  -21.1183   -4.4674   18.6044 C   0  0  0  0  0  0  0  0  0  0  0  0
  -23.9736  -10.2964   21.1526 C   0  0  0  0  0  0  0  0  0  0  0  0
  -26.2274  -11.4847   21.0262 C   0  0  0  0  0  0  0  0  0  0  0  0
  -24.3733  -31.8569   22.2231 C   0  0  0  0  0  0  0  0  0  0  0  0
  -28.6590  -27.0059   18.7615 C   0  0  0  0  0  0  0  0  0  0  0  0
  -24.9628  -30.5950   22.0167 C   0  0  0  0  0  0  0  0  0  0  0  0
  -27.9748  -26.1873   17.8516 C   0  0  0  0  0  0  0  0  0  0  0  0
  -22.3304   -8.0441   21.2494 C   0  0  0  0  0  0  0  0  0  0  0  0
  -29.0660  -24.2357   18.8059 C   0  0  0  0  0  0  0  0  0  0  0  0
  -21.8024   -5.9109   20.4169 C   0  0  0  0  0  0  0  0  0  0  0  0
  -22.3575   -3.8283   18.6457 C   0  0  0  0  0  0  0  0  0  0  0  0
  -20.8408   -5.5087   19.4900 C   0  0  0  0  0  0  0  0  0  0  0  0
  -24.8219  -11.4600   21.1020 C   0  0  0  0  0  0  0  0  0  0  0  0
  -26.5466  -12.8204   21.0032 C   0  0  0  0  0  0  0  0  0  0  0  0
  -31.3975  -19.0742   18.9439 C   0  0  0  0  0  0  0  0  0  0  0  0
  -30.2750  -20.8899   19.6369 C   0  0  0  0  0  0  0  0  0  0  0  0
  -29.3966  -18.8462   19.9346 C   0  0  0  0  0  0  0  0  0  0  0  0
  -27.1610  -10.3976   20.9805 C   0  0  0  0  0  0  0  0  0  0  0  0
  -25.9782  -28.6951   19.0147 C   0  0  0  0  0  0  0  0  0  0  0  0
  -26.2841  -28.9326   15.7941 C   0  0  0  0  0  0  0  0  0  0  0  0
  -27.5493  -27.6385   12.9008 C   0  0  0  0  0  0  0  0  0  0  0  0
  -25.3660  -17.8785   18.6925 C   0  0  0  0  0  0  0  0  0  0  0  0
  -23.3060  -32.3940   21.3027 C   0  0  0  0  0  0  0  0  0  0  0  0
  -28.4755  -28.4985   18.7305 C   0  0  0  0  0  0  0  0  0  0  0  0
  -27.0151  -26.7559   16.8397 C   0  0  0  0  0  0  0  0  0  0  0  0
  -23.2546  -31.6861   19.9512 C   0  0  0  0  0  0  0  0  0  0  0  0
  -23.7195  -16.9145   21.8645 C   0  0  0  0  0  0  0  0  0  0  0  0
  -23.3073  -30.1732   20.1387 C   0  0  0  0  0  0  0  0  0  0  0  0
  -23.9193  -15.4002   21.8966 C   0  0  0  0  0  0  0  0  0  0  0  0
  -23.6731  -17.4503   20.4367 C   0  0  0  0  0  0  0  0  0  0  0  0
  -25.0528  -15.5573   19.6447 C   0  0  0  0  0  0  0  0  0  0  0  0
  -24.6168  -29.7461   20.8127 C   0  0  1  0  0  0  0  0  0  0  0  0
  -27.1513  -28.9249   18.1044 C   0  0  1  0  0  0  0  0  0  0  0  0
  -25.1506  -14.9916   21.0695 C   0  0  2  0  0  0  0  0  0  0  0  0
  -32.5953  -18.4654   18.2980 C   0  0  0  0  0  0  0  0  0  0  0  0
  -27.5987  -28.0320   10.4228 C   0  0  0  0  0  0  0  0  0  0  0  0
  -27.0840  -18.7264   21.0896 C   0  0  0  0  0  0  0  0  0  0  0  0
  -28.8156  -17.0077   21.5409 C   0  0  0  0  0  0  0  0  0  0  0  0
  -23.4338  -27.8668   15.5704 C   0  0  0  0  0  0  0  0  0  0  0  0
  -23.8767  -27.3884   13.1531 C   0  0  0  0  0  0  0  0  0  0  0  0
  -23.9760  -29.7337   13.9972 C   0  0  0  0  0  0  0  0  0  0  0  0
  -27.3452  -18.6767   17.4575 C   0  0  0  0  0  0  0  0  0  0  0  0
  -30.4924  -27.9491   12.8918 C   0  0  0  0  0  0  0  0  0  0  0  0
  -30.1807  -22.3795   19.7897 C   0  0  0  0  0  0  0  0  0  1  0  0
  -27.6858  -17.0689   19.2972 C   0  0  0  0  0  0  0  0  0  0  0  0
  -25.8186  -28.1158   14.6129 C   0  0  1  0  0  0  0  0  0  0  0  0
  -28.2969  -28.2868   11.7496 C   0  0  2  0  0  0  0  0  0  0  0  0
  -28.2923  -17.9750   20.4287 C   0  0  0  0  0  0  0  0  0  0  0  0
  -24.2928  -28.2650   14.3536 C   0  0  0  0  0  0  0  0  0  0  0  0
  -24.2852  -12.6829   21.1258 N   0  0  0  0  0  0  0  0  0  0  0  0
  -31.3824  -20.4132   19.0460 N   0  0  0  0  0  0  0  0  0  0  0  0
  -30.4433  -18.2280   19.3643 N   0  0  0  0  0  0  0  0  0  0  0  0
  -29.2433  -20.1692   20.1050 N   0  0  0  0  0  0  0  0  0  0  0  0
  -25.3591  -13.4885   21.0646 N   0  0  0  0  0  0  0  0  0  0  0  0
  -26.8651  -28.2204   16.8529 N   0  0  0  0  0  0  0  0  0  0  0  0
  -24.8333  -17.0113   19.6604 N   0  0  0  0  0  0  0  0  0  0  0  0
  -27.7243  -13.4769   20.9368 N   0  0  0  0  0  0  0  0  0  0  0  0
  -26.6634   -9.0877   21.0129 N   0  0  0  0  0  0  0  0  0  0  0  0
  -25.7036  -29.7555   19.8570 N   0  0  0  0  0  0  0  0  0  0  0  0
  -26.6575  -28.5117   13.4869 N   0  0  0  0  0  0  0  0  0  0  0  0
  -26.7441  -17.7905   18.4440 N   0  0  0  0  0  0  0  0  0  0  0  0
  -29.6831  -27.7465   11.6626 N   0  3  0  0  0  0  0  0  0  0  0  0
  -28.4007  -10.5822   20.9296 O   0  0  0  0  0  0  0  0  0  0  0  0
  -25.3666  -27.6348   18.9562 O   0  0  0  0  0  0  0  0  0  0  0  0
  -26.1441  -30.1580   15.7749 O   0  0  0  0  0  0  0  0  0  0  0  0
  -27.7348  -26.4728   13.2432 O   0  0  0  0  0  0  0  0  0  0  0  0
  -24.6523  -18.6919   18.0918 O   0  0  0  0  0  0  0  0  0  0  0  0
  -21.5288   -6.9451   21.2962 O   0  0  0  0  0  0  0  0  0  0  0  0
  -29.2580  -22.8887   18.8276 O   0  0  0  0  0  0  0  0  0  1  0  0
  -22.6246   -2.8293   17.7943 F   0  0  0  0  0  0  0  0  0  0  0  0
  -19.6489   -6.1196   19.4449 F   0  0  0  0  0  0  0  0  0  0  0  0
  1  2  1  0  0  0  0
  1  5  2  0  0  0  0
  2  6  2  0  0  0  0
  3  8  2  0  0  0  0
  3 15  1  0  0  0  0
  4  9  1  0  0  0  0
  4 15  2  0  0  0  0
  5 17  1  0  0  0  0
  6 19  1  0  0  0  0
  7 10  2  0  0  0  0
  7 18  1  0  0  0  0
  8 21  1  0  0  0  0
  9 21  2  0  0  0  0
 10 22  1  0  0  0  0
 11 12  2  0  0  0  0
 11 23  1  0  0  0  0
 12 24  1  0  0  0  0
 13 20  1  0  0  0  0
 13 22  2  0  0  0  0
 14 24  2  0  0  0  0
 14 25  1  0  0  0  0
 15 26  1  0  0  0  0
 16 26  1  0  0  0  0
 16 27  2  0  0  0  0
 16 31  1  0  0  0  0
 17 19  2  0  0  0  0
 17 36  1  0  0  0  0
 18 20  2  0  0  0  0
 18 37  1  0  0  0  0
 19 45  1  0  0  0  0
 20 38  1  0  0  0  0
 21 81  1  0  0  0  0
 22 82  1  0  0  0  0
 23 25  2  0  0  0  0
 23 81  1  0  0  0  0
 24 83  1  0  0  0  0
 25 84  1  0  0  0  0
 26 63  2  0  0  0  0
 27 67  1  0  0  0  0
 27 70  1  0  0  0  0
 28 48  1  0  0  0  0
 28 64  2  0  0  0  0
 28 65  1  0  0  0  0
 29 57  1  0  0  0  0
 29 64  1  0  0  0  0
 29 66  2  0  0  0  0
 30 61  1  0  0  0  0
 30 65  2  0  0  0  0
 30 66  1  0  0  0  0
 31 71  1  0  0  0  0
 31 76  2  0  0  0  0
 32 46  1  0  0  0  0
 32 72  1  0  0  0  0
 32 77  2  0  0  0  0
 33 59  1  0  0  0  0
 33 68  1  0  0  0  0
 33 78  2  0  0  0  0
 34 60  1  0  0  0  0
 34 73  1  0  0  0  0
 34 79  2  0  0  0  0
 35 69  1  0  0  0  0
 35 74  1  0  0  0  0
 35 80  2  0  0  0  0
 36 39  1  0  0  0  0
 37 46  1  0  0  0  0
 38 68  1  0  0  0  0
 39 41  1  0  0  0  0
 40 42  1  0  0  0  0
 40 43  1  0  0  0  0
 41 45  1  0  0  0  0
 42 47  1  0  0  0  0
 43 69  1  0  0  0  0
 44 47  1  0  0  0  0
 44 69  1  0  0  0  0
 45 72  1  0  0  0  0
 46 68  1  0  0  0  0
 47 67  1  0  0  0  0
 49 60  1  0  0  0  0
 50 61  1  0  0  0  0
 51 61  1  0  0  0  0
 52 62  1  0  0  0  0
 53 62  1  0  0  0  0
 54 62  1  0  0  0  0
 55 74  1  0  0  0  0
 56 75  1  0  0  0  0
 57 82  1  0  0  0  0
 58 61  1  0  0  0  0
 58 74  1  0  0  0  0
 59 62  1  0  0  0  0
 59 73  1  0  0  0  0
 60 75  1  0  0  0  0
 63 67  1  0  0  0  0
M  CHG  1  75   1
M  ISO  4  35 100  57 101  74 100  82 101
M  END
> <Batch ID>
0055

> <Smiles>
CNC(C)C(=O)NC(C(=O)N1Cc2cc([101O:1][101CH2:1]c3nc(C)nc(C(C)(C)C[100N:0](C)[100C:0](=O)N4CCCC(n5nc(-c6ccc(Oc7ccc(F)cc7F)cc6)c(C(N)=O)c5N)C4)n3)ccc2CC1C(=O)NC1CCCc2ccccc21)C(C)(C)C

> <Shape>
0.228

> <Color>
0.103

> <Negative vol penalty>
0.000

$$$$

  -OEChem-04052317433D

 86 94  0     1  0  0  0  0  0999 V2000
  -27.9998  -32.1184   27.2501 C   0  0  0  0  0  0  0  0  0  0  0  0
  -28.5484  -30.9391   26.7564 C   0  0  0  0  0  0  0  0  0  0  0  0
  -23.2931   -9.8363   21.4180 C   0  0  0  0  0  0  0  0  0  0  0  0
  -24.0438  -10.7624   23.5194 C   0  0  0  0  0  0  0  0  0  0  0  0
  -26.8205  -32.6204   26.7016 C   0  0  0  0  0  0  0  0  0  0  0  0
  -27.9173  -30.2606   25.7144 C   0  0  0  0  0  0  0  0  0  0  0  0
  -30.6121  -27.1109   21.2063 C   0  0  0  0  0  0  0  0  0  0  0  0
  -22.6582   -8.7995   22.1017 C   0  0  0  0  0  0  0  0  0  0  0  0
  -23.4088   -9.7256   24.2032 C   0  0  0  0  0  0  0  0  0  0  0  0
  -30.8532  -25.7494   21.0274 C   0  0  0  0  0  0  0  0  0  0  0  0
  -23.5336   -5.8908   23.5842 C   0  0  0  0  0  0  0  0  0  0  0  0
  -23.6973   -4.5957   23.0929 C   0  0  0  0  0  0  0  0  0  0  0  0
  -28.8445  -25.5738   19.7033 C   0  0  0  0  0  0  0  0  0  0  0  0
  -30.6319  -20.7365   21.0197 C   0  0  0  0  0  0  0  0  0  0  0  0
  -21.3085   -4.4118   22.7817 C   0  0  0  0  0  0  0  0  0  0  0  0
  -32.4324  -19.8444   19.1736 C   0  0  0  0  0  0  0  0  0  0  0  0
  -23.9859  -10.8178   22.1269 C   0  0  0  0  0  0  0  0  0  0  0  0
  -24.0936  -13.1360   21.0678 C   0  0  0  0  0  0  0  0  0  0  0  0
  -26.1797  -31.9529   25.6459 C   0  0  0  0  0  0  0  0  0  0  0  0
  -29.4776  -27.7128   20.6432 C   0  0  0  0  0  0  0  0  0  0  0  0
  -26.7275  -30.7535   25.1521 C   0  0  0  0  0  0  0  0  0  0  0  0
  -28.5926  -26.9436   19.8744 C   0  0  0  0  0  0  0  0  0  0  0  0
  -31.4656  -21.6495   20.3834 C   0  0  0  0  0  0  0  0  0  0  0  0
  -22.7160   -8.7441   23.4943 C   0  0  0  0  0  0  0  0  0  0  0  0
  -29.9678  -24.9800   20.2783 C   0  0  0  0  0  0  0  0  0  0  0  0
  -22.2572   -6.4464   23.6744 C   0  0  0  0  0  0  0  0  0  0  0  0
  -22.5848   -3.8562   22.6916 C   0  0  0  0  0  0  0  0  0  0  0  0
  -21.1447   -5.7069   23.2732 C   0  0  0  0  0  0  0  0  0  0  0  0
  -32.3858  -21.2030   19.4415 C   0  0  0  0  0  0  0  0  0  0  0  0
  -24.6425  -11.8888   21.4212 C   0  0  0  0  0  0  0  0  0  0  0  0
  -30.7569  -19.3988   20.6810 C   0  0  0  0  0  0  0  0  0  0  0  0
  -25.1128  -13.7878   20.4174 C   0  0  0  0  0  0  0  0  0  0  0  0
  -22.7800  -13.6588   21.3062 C   0  0  0  0  0  0  0  0  0  0  0  0
  -26.9227  -29.2073   21.8019 C   0  0  0  0  0  0  0  0  0  0  0  0
  -26.3086  -29.7633   18.6656 C   0  0  0  0  0  0  0  0  0  0  0  0
  -30.8932  -14.3030   20.6805 C   0  0  0  0  0  0  0  0  0  0  0  0
  -26.7548  -28.8240   15.4152 C   0  0  0  0  0  0  0  0  0  0  0  0
  -24.8814  -32.5089   25.1170 C   0  0  0  0  0  0  0  0  0  0  0  0
  -29.2459  -29.1881   20.8230 C   0  0  0  0  0  0  0  0  0  0  0  0
  -27.3708  -27.5460   19.2318 C   0  0  0  0  0  0  0  0  0  0  0  0
  -24.4766  -31.9290   23.7642 C   0  0  0  0  0  0  0  0  0  0  0  0
  -29.2571  -12.3884   18.1314 C   0  0  0  0  0  0  0  0  0  0  0  0
  -24.6272  -30.4110   23.7675 C   0  0  0  0  0  0  0  0  0  0  0  0
  -27.8570  -12.1578   18.6986 C   0  0  0  0  0  0  0  0  0  0  0  0
  -30.3131  -12.3845   19.2323 C   0  0  0  0  0  0  0  0  0  0  0  0
  -28.6467  -13.1301   20.9022 C   0  0  0  0  0  0  0  0  0  0  0  0
  -26.0856  -30.0019   24.0061 C   0  0  1  0  0  0  0  0  0  0  0  0
  -27.7868  -29.5912   20.6341 C   0  0  1  0  0  0  0  0  0  0  0  0
  -27.5462  -13.1572   19.8268 C   0  0  2  0  0  0  0  0  0  0  0  0
  -26.0973  -29.4502   13.0757 C   0  0  0  0  0  0  0  0  0  0  0  0
  -28.2584  -16.4680   22.3957 C   0  0  0  0  0  0  0  0  0  0  0  0
  -31.6454  -16.2062   22.0084 C   0  0  0  0  0  0  0  0  0  0  0  0
  -30.2420  -14.4176   23.0544 C   0  0  0  0  0  0  0  0  0  0  0  0
  -23.5444  -28.5544   19.1215 C   0  0  0  0  0  0  0  0  0  0  0  0
  -23.3089  -28.3320   16.6389 C   0  0  0  0  0  0  0  0  0  0  0  0
  -23.5662  -30.5896   17.6683 C   0  0  0  0  0  0  0  0  0  0  0  0
  -29.5669  -29.3098   14.6309 C   0  0  0  0  0  0  0  0  0  0  0  0
  -28.5491  -17.5169   19.4275 C   0  0  0  0  0  0  0  0  0  0  0  0
  -31.3710  -23.1099   20.7141 C   0  0  0  0  0  0  0  0  0  1  0  0
  -29.8778  -18.3911   21.3434 C   0  0  0  0  0  0  0  0  0  0  0  0
  -25.5575  -29.0344   17.5777 C   0  0  1  0  0  0  0  0  0  0  0  0
  -27.1301  -29.6209   14.1788 C   0  0  2  0  0  0  0  0  0  0  0  0
  -29.2005  -15.9955   21.2884 C   0  0  2  0  0  0  0  0  0  0  0  0
  -30.4666  -15.2433   21.7795 C   0  0  0  0  0  0  0  0  0  0  0  0
  -24.0161  -29.1155   17.7652 C   0  0  0  0  0  0  0  0  0  0  0  0
  -31.6388  -18.9275   19.7712 N   0  0  0  0  0  0  0  0  0  0  0  0
  -25.9117  -11.7539   21.0278 N   0  0  0  0  0  0  0  0  0  0  0  0
  -26.1689  -12.9248   20.4204 N   0  0  0  0  0  0  0  0  0  0  0  0
  -27.1845  -28.9912   19.4418 N   0  0  0  0  0  0  0  0  0  0  0  0
  -29.9701  -13.3303   20.2957 N   0  0  0  0  0  0  0  0  0  0  0  0
  -25.1996  -15.0092   19.8490 N   0  0  0  0  0  0  0  0  0  0  0  0
  -21.8555  -12.8567   21.9890 N   0  0  0  0  0  0  0  0  0  0  0  0
  -26.8612  -30.1658   22.7953 N   0  0  0  0  0  0  0  0  0  0  0  0
  -26.0354  -29.5835   16.3134 N   0  0  0  0  0  0  0  0  0  0  0  0
  -28.4530  -29.1751   13.6571 N   0  3  0  0  0  0  0  0  0  0  0  0
  -29.5797  -17.2125   20.4842 N   0  3  1  0  0  0  0  0  0  0  0  0
  -22.4311  -14.7969   20.9105 O   0  0  0  0  0  0  0  0  0  0  0  0
  -26.3528  -28.1225   21.8010 O   0  0  0  0  0  0  0  0  0  0  0  0
  -26.1303  -30.9745   18.8164 O   0  0  0  0  0  0  0  0  0  0  0  0
  -32.0126  -14.4325   20.1781 O   0  0  0  0  0  0  0  0  0  0  0  0
  -27.0652  -27.6445   15.5671 O   0  0  0  0  0  0  0  0  0  0  0  0
  -22.0964   -7.7326   24.1618 O   0  0  0  0  0  0  0  0  0  0  0  0
  -30.2005  -23.6508   20.1027 O   0  0  0  0  0  0  0  0  0  1  0  0
  -22.7423   -2.6131   22.2183 F   0  0  0  0  0  0  0  0  0  0  0  0
  -19.9162   -6.2357   23.3563 F   0  0  0  0  0  0  0  0  0  0  0  0
  -33.2050  -22.0520   18.8091 F   0  0  0  0  0  0  0  0  0  0  0  0
  1  2  1  0  0  0  0
  1  5  2  0  0  0  0
  2  6  2  0  0  0  0
  3  8  2  0  0  0  0
  3 17  1  0  0  0  0
  4  9  1  0  0  0  0
  4 17  2  0  0  0  0
  5 19  1  0  0  0  0
  6 21  1  0  0  0  0
  7 10  2  0  0  0  0
  7 20  1  0  0  0  0
  8 24  1  0  0  0  0
  9 24  2  0  0  0  0
 10 25  1  0  0  0  0
 11 12  2  0  0  0  0
 11 26  1  0  0  0  0
 12 27  1  0  0  0  0
 13 22  1  0  0  0  0
 13 25  2  0  0  0  0
 14 23  1  0  0  0  0
 14 31  2  0  0  0  0
 15 27  2  0  0  0  0
 15 28  1  0  0  0  0
 16 29  1  0  0  0  0
 16 66  2  0  0  0  0
 17 30  1  0  0  0  0
 18 30  1  0  0  0  0
 18 32  2  0  0  0  0
 18 33  1  0  0  0  0
 19 21  2  0  0  0  0
 19 38  1  0  0  0  0
 20 22  2  0  0  0  0
 20 39  1  0  0  0  0
 21 47  1  0  0  0  0
 22 40  1  0  0  0  0
 23 29  2  0  0  0  0
 23 59  1  0  0  0  0
 24 82  1  0  0  0  0
 25 83  1  0  0  0  0
 26 28  2  0  0  0  0
 26 82  1  0  0  0  0
 27 84  1  0  0  0  0
 28 85  1  0  0  0  0
 29 86  1  0  0  0  0
 30 67  2  0  0  0  0
 31 60  1  0  0  0  0
 31 66  1  0  0  0  0
 32 68  1  0  0  0  0
 32 71  1  0  0  0  0
 33 72  1  0  0  0  0
 33 77  2  0  0  0  0
 34 48  1  0  0  0  0
 34 73  1  0  0  0  0
 34 78  2  0  0  0  0
 35 61  1  0  0  0  0
 35 69  1  0  0  0  0
 35 79  2  0  0  0  0
 36 64  1  0  0  0  0
 36 70  1  0  0  0  0
 36 80  2  0  0  0  0
 37 62  1  0  0  0  0
 37 74  1  0  0  0  0
 37 81  2  0  0  0  0
 38 41  1  0  0  0  0
 39 48  1  0  0  0  0
 40 69  1  0  0  0  0
 41 43  1  0  0  0  0
 42 44  1  0  0  0  0
 42 45  1  0  0  0  0
 43 47  1  0  0  0  0
 44 49  1  0  0  0  0
 45 70  1  0  0  0  0
 46 49  1  0  0  0  0
 46 70  1  0  0  0  0
 47 73  1  0  0  0  0
 48 69  1  0  0  0  0
 49 68  1  0  0  0  0
 50 62  1  0  0  0  0
 51 63  1  0  0  0  0
 52 64  1  0  0  0  0
 53 64  1  0  0  0  0
 54 65  1  0  0  0  0
 55 65  1  0  0  0  0
 56 65  1  0  0  0  0
 57 75  1  0  0  0  0
 58 76  1  0  0  0  0
 59 83  1  0  0  0  0
 60 76  1  0  0  0  0
 61 65  1  0  0  0  0
 61 74  1  0  0  0  0
 62 75  1  0  0  0  0
 63 64  1  0  0  0  0
 63 76  1  0  0  0  0
 67 68  1  0  0  0  0
M  CHG  2  75   1  76   1
M  ISO  4  36 100  59 101  64 100  83 101
M  END
> <Batch ID>
0055

> <Smiles>
CNC(C)C(=O)NC(C(=O)N1Cc2cc([101O:1][101CH2:1]c3cc(CN(C)C(C)[100C:0](C)(C)[100C:0](=O)N4CCCC(n5nc(-c6ccc(Oc7ccc(F)cc7F)cc6)c(C(N)=O)c5N)C4)ncc3F)ccc2CC1C(=O)NC1CCCc2ccccc21)C(C)(C)C

> <Shape>
0.331

> <Color>
0.150

> <Negative vol penalty>
0.000

$$$$

  -OEChem-04052317433D

 84 92  0     1  0  0  0  0  0999 V2000
  -29.7458  -22.5669   26.3830 C   0  0  0  0  0  0  0  0  0  0  0  0
  -28.9733  -23.5146   25.7192 C   0  0  0  0  0  0  0  0  0  0  0  0
  -29.1792  -17.4659   19.0080 C   0  0  0  0  0  0  0  0  0  0  0  0
  -29.6552  -18.0245   21.3099 C   0  0  0  0  0  0  0  0  0  0  0  0
  -29.3098  -21.2449   26.4613 C   0  0  0  0  0  0  0  0  0  0  0  0
  -27.7649  -23.1406   25.1324 C   0  0  0  0  0  0  0  0  0  0  0  0
  -24.0366  -26.4289   26.0977 C   0  0  0  0  0  0  0  0  0  0  0  0
  -29.7261  -16.1976   19.2027 C   0  0  0  0  0  0  0  0  0  0  0  0
  -30.2021  -16.7561   21.5046 C   0  0  0  0  0  0  0  0  0  0  0  0
  -24.0221  -27.6103   25.3575 C   0  0  0  0  0  0  0  0  0  0  0  0
  -28.7762  -13.2603   20.5821 C   0  0  0  0  0  0  0  0  0  0  0  0
  -28.0725  -12.1666   20.0780 C   0  0  0  0  0  0  0  0  0  0  0  0
  -22.3270  -26.6790   23.9158 C   0  0  0  0  0  0  0  0  0  0  0  0
  -29.9631  -11.5907   18.6883 C   0  0  0  0  0  0  0  0  0  0  0  0
  -29.1438  -18.3794   20.0616 C   0  0  0  0  0  0  0  0  0  0  0  0
  -27.2381  -20.0751   20.0451 C   0  0  0  0  0  0  0  0  0  0  0  0
  -28.0908  -20.8565   25.8836 C   0  0  0  0  0  0  0  0  0  0  0  0
  -23.2029  -25.3579   25.7453 C   0  0  0  0  0  0  0  0  0  0  0  0
  -27.3129  -21.8119   25.2020 C   0  0  0  0  0  0  0  0  0  0  0  0
  -22.3310  -25.4861   24.6547 C   0  0  0  0  0  0  0  0  0  0  0  0
  -30.2375  -15.8427   20.4510 C   0  0  0  0  0  0  0  0  0  0  0  0
  -23.1693  -27.7344   24.2646 C   0  0  0  0  0  0  0  0  0  0  0  0
  -30.0734  -13.5193   20.1393 C   0  0  0  0  0  0  0  0  0  0  0  0
  -28.6660  -11.3317   19.1311 C   0  0  0  0  0  0  0  0  0  0  0  0
  -30.6668  -12.6845   19.1924 C   0  0  0  0  0  0  0  0  0  0  0  0
  -28.5795  -19.6899   19.8610 C   0  0  0  0  0  0  0  0  0  0  0  0
  -27.2176  -21.4109   19.7261 C   0  0  0  0  0  0  0  0  0  0  0  0
  -25.6782  -30.8483   20.8198 C   0  0  0  0  0  0  0  0  0  0  0  0
  -26.3111  -28.9018   19.9883 C   0  0  0  0  0  0  0  0  0  0  0  0
  -25.5795  -32.1247   21.2105 C   0  0  0  0  0  0  0  0  0  0  0  0
  -26.1113  -19.2953   20.4668 C   0  0  0  0  0  0  0  0  0  0  0  0
  -23.6797  -22.3579   24.8091 C   0  0  0  0  0  0  0  0  0  0  0  0
  -20.4499  -22.1798   25.0532 C   0  0  0  0  0  0  0  0  0  0  0  0
  -17.4502  -23.8072   25.0509 C   0  0  0  0  0  0  0  0  0  0  0  0
  -29.7731  -26.4376   20.4465 C   0  0  0  0  0  0  0  0  0  0  0  0
  -27.6839  -19.4059   25.9534 C   0  0  0  0  0  0  0  0  0  0  0  0
  -23.2112  -24.1001   26.5702 C   0  0  0  0  0  0  0  0  0  0  0  0
  -21.4016  -24.3731   24.2474 C   0  0  0  0  0  0  0  0  0  0  0  0
  -26.2111  -19.1701   25.6284 C   0  0  0  0  0  0  0  0  0  0  0  0
  -30.6947  -24.3447   17.5358 C   0  0  0  0  0  0  0  0  0  0  0  0
  -25.8115  -19.9397   24.3735 C   0  0  0  0  0  0  0  0  0  0  0  0
  -30.1745  -22.9660   17.9388 C   0  0  0  0  0  0  0  0  0  0  0  0
  -31.0623  -25.1899   18.7515 C   0  0  0  0  0  0  0  0  0  0  0  0
  -29.4421  -23.9488   20.1475 C   0  0  0  0  0  0  0  0  0  0  0  0
  -25.9843  -21.4501   24.5742 C   0  0  1  0  0  0  0  0  0  0  0  0
  -22.6906  -22.8839   25.8105 C   0  0  1  0  0  0  0  0  0  0  0  0
  -29.0189  -23.0888   18.9471 C   0  0  2  0  0  0  0  0  0  0  0  0
  -26.1857  -27.6028   17.9145 C   0  0  0  0  0  0  0  0  0  0  0  0
  -14.9825  -23.3897   25.2336 C   0  0  0  0  0  0  0  0  0  0  0  0
  -20.4156  -21.1417   22.1842 C   0  0  0  0  0  0  0  0  0  0  0  0
  -17.9645  -21.6460   22.1049 C   0  0  0  0  0  0  0  0  0  0  0  0
  -18.8398  -19.9732   23.7353 C   0  0  0  0  0  0  0  0  0  0  0  0
  -27.3301  -30.9326   18.9189 C   0  0  0  0  0  0  0  0  0  0  0  0
  -28.2359  -27.5149   22.0452 C   0  0  0  0  0  0  0  0  0  0  0  0
  -17.2326  -25.4667   27.4917 C   0  0  0  0  0  0  0  0  0  0  0  0
  -27.2995  -26.6204   19.9455 C   0  0  0  0  0  0  0  0  0  0  0  0
  -23.4822  -29.9106   21.3894 C   0  0  0  0  0  0  0  0  0  0  0  0
  -22.8274  -28.7778   22.1550 C   0  0  0  0  0  0  0  0  0  1  0  0
  -27.0331  -27.8979   19.1486 C   0  0  2  0  0  0  0  0  0  0  0  0
  -19.2917  -22.4311   24.1182 C   0  0  1  0  0  0  0  0  0  0  0  0
  -16.2592  -23.7255   25.9886 C   0  0  2  0  0  0  0  0  0  0  0  0
  -19.1467  -21.3185   23.0419 C   0  0  0  0  0  0  0  0  0  0  0  0
  -29.3550  -20.6993   19.4562 N   0  0  0  0  0  0  0  0  0  0  0  0
  -25.4998  -28.5351   20.9519 N   0  0  0  0  0  0  0  0  0  0  0  0
  -28.4980  -21.7320   19.3833 N   0  0  0  0  0  0  0  0  0  0  0  0
  -26.4353  -30.2609   19.8339 N   0  0  0  0  0  0  0  0  0  0  0  0
  -21.4512  -23.1609   25.0814 N   0  0  0  0  0  0  0  0  0  0  0  0
  -29.9615  -25.2543   19.7135 N   0  0  0  0  0  0  0  0  0  0  0  0
  -26.2293  -22.3304   19.7080 N   0  0  0  0  0  0  0  0  0  0  0  0
  -26.3084  -17.9378   20.7547 N   0  0  0  0  0  0  0  0  0  0  0  0
  -24.8914  -21.9841   25.3582 N   0  0  0  0  0  0  0  0  0  0  0  0
  -18.1147  -22.6022   24.9631 N   0  0  0  0  0  0  0  0  0  0  0  0
  -28.4593  -26.7533   20.8246 N   0  0  0  0  0  0  0  0  0  0  0  0
  -24.9560  -29.8187   21.5436 N   0  3  1  0  0  0  0  0  0  0  0  0
  -16.0622  -25.0255   26.6902 N   0  3  0  0  0  0  0  0  0  0  0  0
  -24.9605  -19.7837   20.5691 O   0  0  0  0  0  0  0  0  0  0  0  0
  -23.3661  -22.2944   23.6262 O   0  0  0  0  0  0  0  0  0  0  0  0
  -20.4623  -21.1544   25.7387 O   0  0  0  0  0  0  0  0  0  0  0  0
  -17.7579  -24.8359   24.4529 O   0  0  0  0  0  0  0  0  0  0  0  0
  -30.7236  -27.1749   20.7375 O   0  0  0  0  0  0  0  0  0  0  0  0
  -30.7710  -14.6051   20.6413 O   0  0  0  0  0  0  0  0  0  0  0  0
  -23.1536  -28.8862   23.5400 O   0  0  0  0  0  0  0  0  0  1  0  0
  -27.9906  -10.2806   18.6482 F   0  0  0  0  0  0  0  0  0  0  0  0
  -31.9131  -12.9275   18.7641 F   0  0  0  0  0  0  0  0  0  0  0  0
  1  2  1  0  0  0  0
  1  5  2  0  0  0  0
  2  6  2  0  0  0  0
  3  8  2  0  0  0  0
  3 15  1  0  0  0  0
  4  9  1  0  0  0  0
  4 15  2  0  0  0  0
  5 17  1  0  0  0  0
  6 19  1  0  0  0  0
  7 10  2  0  0  0  0
  7 18  1  0  0  0  0
  8 21  1  0  0  0  0
  9 21  2  0  0  0  0
 10 22  1  0  0  0  0
 11 12  2  0  0  0  0
 11 23  1  0  0  0  0
 12 24  1  0  0  0  0
 13 20  1  0  0  0  0
 13 22  2  0  0  0  0
 14 24  2  0  0  0  0
 14 25  1  0  0  0  0
 15 26  1  0  0  0  0
 16 26  1  0  0  0  0
 16 27  2  0  0  0  0
 16 31  1  0  0  0  0
 17 19  2  0  0  0  0
 17 36  1  0  0  0  0
 18 20  2  0  0  0  0
 18 37  1  0  0  0  0
 19 45  1  0  0  0  0
 20 38  1  0  0  0  0
 21 81  1  0  0  0  0
 22 82  1  0  0  0  0
 23 25  2  0  0  0  0
 23 81  1  0  0  0  0
 24 83  1  0  0  0  0
 25 84  1  0  0  0  0
 26 63  2  0  0  0  0
 27 65  1  0  0  0  0
 27 69  1  0  0  0  0
 28 30  2  0  0  0  0
 28 66  1  0  0  0  0
 28 74  1  0  0  0  0
 29 59  1  0  0  0  0
 29 64  2  0  0  0  0
 29 66  1  0  0  0  0
 31 70  1  0  0  0  0
 31 76  2  0  0  0  0
 32 46  1  0  0  0  0
 32 71  1  0  0  0  0
 32 77  2  0  0  0  0
 33 60  1  0  0  0  0
 33 67  1  0  0  0  0
 33 78  2  0  0  0  0
 34 61  1  0  0  0  0
 34 72  1  0  0  0  0
 34 79  2  0  0  0  0
 35 68  1  0  0  0  0
 35 73  1  0  0  0  0
 35 80  2  0  0  0  0
 36 39  1  0  0  0  0
 37 46  1  0  0  0  0
 38 67  1  0  0  0  0
 39 41  1  0  0  0  0
 40 42  1  0  0  0  0
 40 43  1  0  0  0  0
 41 45  1  0  0  0  0
 42 47  1  0  0  0  0
 43 68  1  0  0  0  0
 44 47  1  0  0  0  0
 44 68  1  0  0  0  0
 45 71  1  0  0  0  0
 46 67  1  0  0  0  0
 47 65  1  0  0  0  0
 48 59  1  0  0  0  0
 49 61  1  0  0  0  0
 50 62  1  0  0  0  0
 51 62  1  0  0  0  0
 52 62  1  0  0  0  0
 53 66  1  0  0  0  0
 54 73  1  0  0  0  0
 55 75  1  0  0  0  0
 56 59  1  0  0  0  0
 56 73  1  0  0  0  0
 57 58  1  0  0  0  0
 57 74  1  0  0  0  0
 58 82  1  0  0  0  0
 60 62  1  0  0  0  0
 60 72  1  0  0  0  0
 61 75  1  0  0  0  0
 63 65  1  0  0  0  0
 64 74  1  0  0  0  0
M  CHG  2  74   1  75   1
M  ISO  4  35 100  58 101  73 100  82 101
M  END
> <Batch ID>
0055

> <Smiles>
C=C1N(C[101CH2:1][101O:1]c2ccc3c(c2)CN(C(=O)C(NC(=O)C(C)NC)C(C)(C)C)C(C(=O)NC2CCCc4ccccc42)C3)N=C(C(C)C[100N:0](C)[100C:0](=O)N2CCCC(n3nc(-c4ccc(Oc5ccc(F)cc5F)cc4)c(C(N)=O)c3N)C2)N1C

> <Shape>
0.218

> <Color>
0.057

> <Negative vol penalty>
0.000

$$$$

  -OEChem-04052317433D

 83 91  0     1  0  0  0  0  0999 V2000
  -21.4327  -14.3493   19.4740 C   0  0  0  0  0  0  0  0  0  0  0  0
  -21.7612  -15.6663   19.1691 C   0  0  0  0  0  0  0  0  0  0  0  0
  -28.3626  -17.4202   21.0309 C   0  0  0  0  0  0  0  0  0  0  0  0
  -30.6735  -17.9443   21.5020 C   0  0  0  0  0  0  0  0  0  0  0  0
  -20.9334  -14.0309   20.7363 C   0  0  0  0  0  0  0  0  0  0  0  0
  -21.5894  -16.6660   20.1260 C   0  0  0  0  0  0  0  0  0  0  0  0
  -25.1024  -21.6139   20.9521 C   0  0  0  0  0  0  0  0  0  0  0  0
  -28.6496  -16.0593   21.1368 C   0  0  0  0  0  0  0  0  0  0  0  0
  -30.9606  -16.5833   21.6079 C   0  0  0  0  0  0  0  0  0  0  0  0
  -24.9661  -22.9399   20.5435 C   0  0  0  0  0  0  0  0  0  0  0  0
  -30.0525  -13.6536   19.2213 C   0  0  0  0  0  0  0  0  0  0  0  0
  -29.5315  -12.8043   18.2452 C   0  0  0  0  0  0  0  0  0  0  0  0
  -23.9991  -23.4935   22.6830 C   0  0  0  0  0  0  0  0  0  0  0  0
  -28.3282  -11.5847   19.9487 C   0  0  0  0  0  0  0  0  0  0  0  0
  -29.3746  -18.3627   21.2135 C   0  0  0  0  0  0  0  0  0  0  0  0
  -28.6721  -20.6349   22.1361 C   0  0  0  0  0  0  0  0  0  0  0  0
  -20.7645  -15.0257   21.7123 C   0  0  0  0  0  0  0  0  0  0  0  0
  -24.6774  -21.2148   22.2274 C   0  0  0  0  0  0  0  0  0  0  0  0
  -21.0861  -16.3608   21.4020 C   0  0  0  0  0  0  0  0  0  0  0  0
  -24.1335  -22.1624   23.1063 C   0  0  0  0  0  0  0  0  0  0  0  0
  -29.9486  -15.6409   21.4253 C   0  0  0  0  0  0  0  0  0  0  0  0
  -24.4117  -23.8793   21.4079 C   0  0  0  0  0  0  0  0  0  0  0  0
  -29.7115  -13.4685   20.5611 C   0  0  0  0  0  0  0  0  0  0  0  0
  -28.6693  -11.7699   18.6089 C   0  0  0  0  0  0  0  0  0  0  0  0
  -28.8493  -12.4341   20.9248 C   0  0  0  0  0  0  0  0  0  0  0  0
  -29.0788  -19.7686   21.1037 C   0  0  0  0  0  0  0  0  0  0  0  0
  -28.5217  -21.8542   21.5219 C   0  0  0  0  0  0  0  0  0  0  0  0
  -25.9667  -29.3672   21.0249 C   0  0  0  0  0  0  0  0  0  0  0  0
  -27.2685  -28.1716   19.6420 C   0  0  0  0  0  0  0  0  0  0  0  0
  -25.0757  -27.7175   19.7914 C   0  0  0  0  0  0  0  0  0  0  0  0
  -28.4503  -20.3619   23.5260 C   0  0  0  0  0  0  0  0  0  0  0  0
  -22.5028  -19.1759   23.3310 C   0  0  0  0  0  0  0  0  0  0  0  0
  -23.8142  -19.9351   26.1992 C   0  0  0  0  0  0  0  0  0  0  0  0
  -25.5668  -22.1791   28.0806 C   0  0  0  0  0  0  0  0  0  0  0  0
  -30.8516  -25.6233   17.9607 C   0  0  0  0  0  0  0  0  0  0  0  0
  -20.1770  -14.6408   23.0470 C   0  0  0  0  0  0  0  0  0  0  0  0
  -24.8559  -19.7862   22.6628 C   0  0  0  0  0  0  0  0  0  0  0  0
  -23.6803  -21.7892   24.4933 C   0  0  0  0  0  0  0  0  0  0  0  0
  -20.3775  -15.6991   24.1287 C   0  0  0  0  0  0  0  0  0  0  0  0
  -28.4760  -23.1144   16.6327 C   0  0  0  0  0  0  0  0  0  0  0  0
  -20.0260  -17.0834   23.5929 C   0  0  0  0  0  0  0  0  0  0  0  0
  -28.4503  -22.0615   17.7393 C   0  0  0  0  0  0  0  0  0  0  0  0
  -29.8076  -23.8579   16.5879 C   0  0  0  0  0  0  0  0  0  0  0  0
  -30.1740  -23.4170   18.9932 C   0  0  0  0  0  0  0  0  0  0  0  0
  -20.9373  -17.4693   22.4215 C   0  0  1  0  0  0  0  0  0  0  0  0
  -23.9163  -19.3850   23.7958 C   0  0  1  0  0  0  0  0  0  0  0  0
  -28.8293  -22.6816   19.0955 C   0  0  2  0  0  0  0  0  0  0  0  0
  -25.8091  -30.4584   22.0284 C   0  0  0  0  0  0  0  0  0  0  0  0
  -26.4516  -22.5383   30.4012 C   0  0  0  0  0  0  0  0  0  0  0  0
  -21.0014  -20.6200   27.1630 C   0  0  0  0  0  0  0  0  0  0  0  0
  -22.0341  -21.8403   29.0898 C   0  0  0  0  0  0  0  0  0  0  0  0
  -22.4031  -19.3873   28.8273 C   0  0  0  0  0  0  0  0  0  0  0  0
  -31.6800  -27.3149   19.5519 C   0  0  0  0  0  0  0  0  0  0  0  0
  -28.3646  -22.2897   27.1218 C   0  0  0  0  0  0  0  0  0  0  0  0
  -28.6087  -27.8871   19.0542 C   0  0  0  0  0  0  0  0  0  0  0  0
  -23.8783  -26.9006   19.3705 C   0  0  0  0  0  0  0  0  0  0  0  0
  -29.3029  -26.6656   19.6689 C   0  0  0  0  0  0  0  0  0  0  0  0
  -24.0778  -25.4093   19.6180 C   0  0  0  0  0  0  0  0  0  1  0  0
  -23.5552  -20.9901   27.2475 C   0  0  1  0  0  0  0  0  0  0  0  0
  -26.7544  -22.0044   29.0098 C   0  0  2  0  0  0  0  0  0  0  0  0
  -22.2551  -20.7164   28.0551 C   0  0  0  0  0  0  0  0  0  0  0  0
  -29.1802  -20.3851   19.9231 N   0  0  0  0  0  0  0  0  0  0  0  0
  -27.2028  -29.1685   20.5391 N   0  0  0  0  0  0  0  0  0  0  0  0
  -24.8582  -28.6830   20.6988 N   0  0  0  0  0  0  0  0  0  0  0  0
  -26.2501  -27.4047   19.2205 N   0  0  0  0  0  0  0  0  0  0  0  0
  -28.8349  -21.6518   20.2100 N   0  0  0  0  0  0  0  0  0  0  0  0
  -23.8700  -20.3787   24.8703 N   0  0  0  0  0  0  0  0  0  0  0  0
  -30.1643  -24.3999   17.8994 N   0  0  0  0  0  0  0  0  0  0  0  0
  -28.1533  -23.0689   21.9814 N   0  0  0  0  0  0  0  0  0  0  0  0
  -28.6512  -19.0549   23.9906 N   0  0  0  0  0  0  0  0  0  0  0  0
  -22.2346  -17.8883   22.9072 N   0  0  0  0  0  0  0  0  0  0  0  0
  -24.7623  -21.0594   28.0638 N   0  0  0  0  0  0  0  0  0  0  0  0
  -30.6218  -26.4304   19.0852 N   0  0  0  0  0  0  0  0  0  0  0  0
  -27.9412  -22.7305   28.4758 N   0  3  0  0  0  0  0  0  0  0  0  0
  -28.0688  -21.2470   24.3289 O   0  0  0  0  0  0  0  0  0  0  0  0
  -21.7136  -20.1130   23.3566 O   0  0  0  0  0  0  0  0  0  0  0  0
  -23.9687  -18.7618   26.5473 O   0  0  0  0  0  0  0  0  0  0  0  0
  -25.3703  -23.2075   27.4370 O   0  0  0  0  0  0  0  0  0  0  0  0
  -31.6192  -25.9784   17.0571 O   0  0  0  0  0  0  0  0  0  0  0  0
  -30.2290  -14.3130   21.5289 O   0  0  0  0  0  0  0  0  0  0  0  0
  -24.2769  -25.1741   21.0114 O   0  0  0  0  0  0  0  0  0  1  0  0
  -28.1678  -10.9553   17.6713 F   0  0  0  0  0  0  0  0  0  0  0  0
  -28.5171  -12.2520   22.2102 F   0  0  0  0  0  0  0  0  0  0  0  0
  1  2  1  0  0  0  0
  1  5  2  0  0  0  0
  2  6  2  0  0  0  0
  3  8  2  0  0  0  0
  3 15  1  0  0  0  0
  4  9  1  0  0  0  0
  4 15  2  0  0  0  0
  5 17  1  0  0  0  0
  6 19  1  0  0  0  0
  7 10  2  0  0  0  0
  7 18  1  0  0  0  0
  8 21  1  0  0  0  0
  9 21  2  0  0  0  0
 10 22  1  0  0  0  0
 11 12  2  0  0  0  0
 11 23  1  0  0  0  0
 12 24  1  0  0  0  0
 13 20  1  0  0  0  0
 13 22  2  0  0  0  0
 14 24  2  0  0  0  0
 14 25  1  0  0  0  0
 15 26  1  0  0  0  0
 16 26  1  0  0  0  0
 16 27  2  0  0  0  0
 16 31  1  0  0  0  0
 17 19  2  0  0  0  0
 17 36  1  0  0  0  0
 18 20  2  0  0  0  0
 18 37  1  0  0  0  0
 19 45  1  0  0  0  0
 20 38  1  0  0  0  0
 21 80  1  0  0  0  0
 22 81  1  0  0  0  0
 23 25  2  0  0  0  0
 23 80  1  0  0  0  0
 24 82  1  0  0  0  0
 25 83  1  0  0  0  0
 26 62  2  0  0  0  0
 27 66  1  0  0  0  0
 27 69  1  0  0  0  0
 28 48  1  0  0  0  0
 28 63  1  0  0  0  0
 28 64  2  0  0  0  0
 29 55  1  0  0  0  0
 29 63  2  0  0  0  0
 29 65  1  0  0  0  0
 30 56  1  0  0  0  0
 30 64  1  0  0  0  0
 30 65  2  0  0  0  0
 31 70  1  0  0  0  0
 31 75  2  0  0  0  0
 32 46  1  0  0  0  0
 32 71  1  0  0  0  0
 32 76  2  0  0  0  0
 33 59  1  0  0  0  0
 33 67  1  0  0  0  0
 33 77  2  0  0  0  0
 34 60  1  0  0  0  0
 34 72  1  0  0  0  0
 34 78  2  0  0  0  0
 35 68  1  0  0  0  0
 35 73  1  0  0  0  0
 35 79  2  0  0  0  0
 36 39  1  0  0  0  0
 37 46  1  0  0  0  0
 38 67  1  0  0  0  0
 39 41  1  0  0  0  0
 40 42  1  0  0  0  0
 40 43  1  0  0  0  0
 41 45  1  0  0  0  0
 42 47  1  0  0  0  0
 43 68  1  0  0  0  0
 44 47  1  0  0  0  0
 44 68  1  0  0  0  0
 45 71  1  0  0  0  0
 46 67  1  0  0  0  0
 47 66  1  0  0  0  0
 49 60  1  0  0  0  0
 50 61  1  0  0  0  0
 51 61  1  0  0  0  0
 52 61  1  0  0  0  0
 53 73  1  0  0  0  0
 54 74  1  0  0  0  0
 55 57  1  0  0  0  0
 56 58  1  0  0  0  0
 57 73  1  0  0  0  0
 58 81  1  0  0  0  0
 59 61  1  0  0  0  0
 59 72  1  0  0  0  0
 60 74  1  0  0  0  0
 62 66  1  0  0  0  0
M  CHG  1  74   1
M  ISO  4  35 100  58 101  73 100  81 101
M  END
> <Batch ID>
0055

> <Smiles>
CNC(C)C(=O)NC(C(=O)N1Cc2cc([101O:1][101CH2:1]Cc3nc(C)nc(CC[100N:0](C)[100C:0](=O)N4CCCC(n5nc(-c6ccc(Oc7ccc(F)cc7F)cc6)c(C(N)=O)c5N)C4)n3)ccc2CC1C(=O)NC1CCCc2ccccc21)C(C)(C)C

> <Shape>
0.203

> <Color>
0.055

> <Negative vol penalty>
0.000

$$$$

  -OEChem-04052317433D

 85 93  0     1  0  0  0  0  0999 V2000
  -23.2849  -16.6755   22.8424 C   0  0  0  0  0  0  0  0  0  0  0  0
  -24.4095  -17.4928   22.7901 C   0  0  0  0  0  0  0  0  0  0  0  0
  -26.4138  -12.5050   21.4987 C   0  0  0  0  0  0  0  0  0  0  0  0
  -25.6657  -13.5704   19.4634 C   0  0  0  0  0  0  0  0  0  0  0  0
  -22.0655  -17.1372   22.3488 C   0  0  0  0  0  0  0  0  0  0  0  0
  -24.3155  -18.7720   22.2430 C   0  0  0  0  0  0  0  0  0  0  0  0
  -27.3598  -23.7749   24.0346 C   0  0  0  0  0  0  0  0  0  0  0  0
  -25.2168  -11.7921   21.5655 C   0  0  0  0  0  0  0  0  0  0  0  0
  -24.4687  -12.8573   19.5301 C   0  0  0  0  0  0  0  0  0  0  0  0
  -28.5069  -24.3996   23.5471 C   0  0  0  0  0  0  0  0  0  0  0  0
  -23.8587   -9.0622   20.1040 C   0  0  0  0  0  0  0  0  0  0  0  0
  -23.9306   -7.7010   20.3999 C   0  0  0  0  0  0  0  0  0  0  0  0
  -27.1316  -25.9154   22.2704 C   0  0  0  0  0  0  0  0  0  0  0  0
  -22.5798   -8.0582   22.3709 C   0  0  0  0  0  0  0  0  0  0  0  0
  -31.1478  -24.5892   18.9156 C   0  0  0  0  0  0  0  0  0  0  0  0
  -26.6382  -13.3943   20.4477 C   0  0  0  0  0  0  0  0  0  0  0  0
  -29.1758  -13.6025   20.2890 C   0  0  0  0  0  0  0  0  0  0  0  0
  -21.9543  -18.4263   21.8043 C   0  0  0  0  0  0  0  0  0  0  0  0
  -26.0880  -24.2094   23.6344 C   0  0  0  0  0  0  0  0  0  0  0  0
  -23.0937  -19.2509   21.7405 C   0  0  0  0  0  0  0  0  0  0  0  0
  -25.9699  -25.2961   22.7562 C   0  0  0  0  0  0  0  0  0  0  0  0
  -24.2443  -11.9682   20.5812 C   0  0  0  0  0  0  0  0  0  0  0  0
  -28.3930  -25.4682   22.6627 C   0  0  0  0  0  0  0  0  0  0  0  0
  -23.1474   -9.9214   20.9415 C   0  0  0  0  0  0  0  0  0  0  0  0
  -23.2912   -7.1990   21.5334 C   0  0  0  0  0  0  0  0  0  0  0  0
  -22.5079   -9.4194   22.0750 C   0  0  0  0  0  0  0  0  0  0  0  0
  -27.8743  -14.1315   20.3785 C   0  0  0  0  0  0  0  0  0  0  0  0
  -31.3910  -25.2944   20.0766 C   0  0  0  0  0  0  0  0  0  0  0  0
  -31.7143  -23.3325   18.8507 C   0  0  0  0  0  0  0  0  0  0  0  0
  -29.9930  -14.7057   20.2510 C   0  0  0  0  0  0  0  0  0  0  0  0
  -32.6263  -23.5817   20.9178 C   0  0  0  0  0  0  0  0  0  0  0  0
  -29.6074  -12.2360   20.2442 C   0  0  0  0  0  0  0  0  0  0  0  0
  -23.6537  -22.8878   22.0751 C   0  0  0  0  0  0  0  0  0  0  0  0
  -22.1640  -25.6668   22.8369 C   0  0  0  0  0  0  0  0  0  0  0  0
  -22.4343  -28.9665   23.6650 C   0  0  0  0  0  0  0  0  0  0  0  0
  -29.2571  -20.1609   18.4326 C   0  0  0  0  0  0  0  0  0  0  0  0
  -20.6258  -18.8639   21.2401 C   0  0  0  0  0  0  0  0  0  0  0  0
  -24.8599  -23.5421   24.1901 C   0  0  0  0  0  0  0  0  0  0  0  0
  -24.6273  -25.8140   22.3115 C   0  0  0  0  0  0  0  0  0  0  0  0
  -20.5250  -20.3708   21.0181 C   0  0  0  0  0  0  0  0  0  0  0  0
  -30.2351  -19.2499   21.7014 C   0  0  0  0  0  0  0  0  0  0  0  0
  -21.7770  -20.8926   20.3203 C   0  0  0  0  0  0  0  0  0  0  0  0
  -29.8564  -17.7698   21.7291 C   0  0  0  0  0  0  0  0  0  0  0  0
  -29.1922  -20.0962   20.9689 C   0  0  0  0  0  0  0  0  0  0  0  0
  -28.5007  -18.1315   19.6331 C   0  0  0  0  0  0  0  0  0  0  0  0
  -23.0262  -20.6538   21.1772 C   0  0  1  0  0  0  0  0  0  0  0  0
  -23.6260  -23.7370   23.3144 C   0  0  1  0  0  0  0  0  0  0  0  0
  -29.5615  -17.2507   20.3111 C   0  0  2  0  0  0  0  0  0  0  0  0
  -33.4445  -23.0202   22.0310 C   0  0  0  0  0  0  0  0  0  0  0  0
  -21.6957  -31.2560   24.3791 C   0  0  0  0  0  0  0  0  0  0  0  0
  -32.1909  -21.0837   17.6622 C   0  0  0  0  0  0  0  0  0  0  0  0
  -32.1010  -23.2026   16.3746 C   0  0  0  0  0  0  0  0  0  0  0  0
  -21.5138  -25.9853   19.8728 C   0  0  0  0  0  0  0  0  0  0  0  0
  -20.9927  -28.3934   20.3173 C   0  0  0  0  0  0  0  0  0  0  0  0
  -19.6506  -26.6043   21.4219 C   0  0  0  0  0  0  0  0  0  0  0  0
  -28.4686  -22.4157   19.2689 C   0  0  0  0  0  0  0  0  0  0  0  0
  -22.7001  -28.2846   26.5326 C   0  0  0  0  0  0  0  0  0  0  0  0
  -30.8124  -26.6788   20.2409 C   0  0  0  0  0  0  0  0  0  0  0  0
  -29.9844  -22.2428   17.3302 C   0  0  0  0  0  0  0  0  0  0  0  0
  -29.4294  -26.6569   20.8826 C   0  0  0  0  0  0  0  0  0  1  0  0
  -22.0257  -27.0201   22.1822 C   0  0  1  0  0  0  0  0  0  0  0  0
  -21.7796  -29.7867   24.7619 C   0  0  2  0  0  0  0  0  0  0  0  0
  -31.5049  -22.4939   17.6345 C   0  0  0  0  0  0  0  0  0  0  0  0
  -21.0712  -26.9900   20.9552 C   0  0  0  0  0  0  0  0  0  0  0  0
  -27.8606  -15.4670   20.3965 N   0  0  0  0  0  0  0  0  0  0  0  0
  -32.1285  -24.8194   21.1016 N   0  0  0  0  0  0  0  0  0  0  0  0
  -32.4621  -22.7955   19.8369 N   0  0  0  0  0  0  0  0  0  0  0  0
  -29.1636  -15.7864   20.3178 N   0  0  0  0  0  0  0  0  0  0  0  0
  -23.4563  -25.1243   22.8776 N   0  0  0  0  0  0  0  0  0  0  0  0
  -28.9057  -19.5393   19.6398 N   0  0  0  0  0  0  0  0  0  0  0  0
  -31.3329  -14.8472   20.1673 N   0  0  0  0  0  0  0  0  0  0  0  0
  -29.7304  -11.6148   18.9938 N   0  0  0  0  0  0  0  0  0  0  0  0
  -23.1033  -21.6314   22.2416 N   0  0  0  0  0  0  0  0  0  0  0  0
  -21.6163  -27.9431   23.2352 N   0  0  0  0  0  0  0  0  0  0  0  0
  -29.2995  -21.5632   18.4208 N   0  0  0  0  0  0  0  0  0  0  0  0
  -22.5585  -29.6745   26.0275 N   0  3  0  0  0  0  0  0  0  0  0  0
  -29.8604  -11.5800   21.2830 O   0  0  0  0  0  0  0  0  0  0  0  0
  -24.1373  -23.3397   21.0438 O   0  0  0  0  0  0  0  0  0  0  0  0
  -21.1636  -25.1148   23.3016 O   0  0  0  0  0  0  0  0  0  0  0  0
  -23.5574  -29.2117   23.2301 O   0  0  0  0  0  0  0  0  0  0  0  0
  -29.5117  -19.5004   17.4172 O   0  0  0  0  0  0  0  0  0  0  0  0
  -23.0763  -11.2724   20.6459 O   0  0  0  0  0  0  0  0  0  0  0  0
  -29.5111  -26.0793   22.1849 O   0  0  0  0  0  0  0  0  0  1  0  0
  -23.3591   -5.8916   21.8166 F   0  0  0  0  0  0  0  0  0  0  0  0
  -21.8221  -10.2398   22.8827 F   0  0  0  0  0  0  0  0  0  0  0  0
  1  2  1  0  0  0  0
  1  5  2  0  0  0  0
  2  6  2  0  0  0  0
  3  8  2  0  0  0  0
  3 16  1  0  0  0  0
  4  9  1  0  0  0  0
  4 16  2  0  0  0  0
  5 18  1  0  0  0  0
  6 20  1  0  0  0  0
  7 10  2  0  0  0  0
  7 19  1  0  0  0  0
  8 22  1  0  0  0  0
  9 22  2  0  0  0  0
 10 23  1  0  0  0  0
 11 12  2  0  0  0  0
 11 24  1  0  0  0  0
 12 25  1  0  0  0  0
 13 21  1  0  0  0  0
 13 23  2  0  0  0  0
 14 25  2  0  0  0  0
 14 26  1  0  0  0  0
 15 28  1  0  0  0  0
 15 29  2  0  0  0  0
 16 27  1  0  0  0  0
 17 27  1  0  0  0  0
 17 30  2  0  0  0  0
 17 32  1  0  0  0  0
 18 20  2  0  0  0  0
 18 37  1  0  0  0  0
 19 21  2  0  0  0  0
 19 38  1  0  0  0  0
 20 46  1  0  0  0  0
 21 39  1  0  0  0  0
 22 82  1  0  0  0  0
 23 83  1  0  0  0  0
 24 26  2  0  0  0  0
 24 82  1  0  0  0  0
 25 84  1  0  0  0  0
 26 85  1  0  0  0  0
 27 65  2  0  0  0  0
 28 58  1  0  0  0  0
 28 66  2  0  0  0  0
 29 63  1  0  0  0  0
 29 67  1  0  0  0  0
 30 68  1  0  0  0  0
 30 71  1  0  0  0  0
 31 49  1  0  0  0  0
 31 66  1  0  0  0  0
 31 67  2  0  0  0  0
 32 72  1  0  0  0  0
 32 77  2  0  0  0  0
 33 47  1  0  0  0  0
 33 73  1  0  0  0  0
 33 78  2  0  0  0  0
 34 61  1  0  0  0  0
 34 69  1  0  0  0  0
 34 79  2  0  0  0  0
 35 62  1  0  0  0  0
 35 74  1  0  0  0  0
 35 80  2  0  0  0  0
 36 70  1  0  0  0  0
 36 75  1  0  0  0  0
 36 81  2  0  0  0  0
 37 40  1  0  0  0  0
 38 47  1  0  0  0  0
 39 69  1  0  0  0  0
 40 42  1  0  0  0  0
 41 43  1  0  0  0  0
 41 44  1  0  0  0  0
 42 46  1  0  0  0  0
 43 48  1  0  0  0  0
 44 70  1  0  0  0  0
 45 48  1  0  0  0  0
 45 70  1  0  0  0  0
 46 73  1  0  0  0  0
 47 69  1  0  0  0  0
 48 68  1  0  0  0  0
 50 62  1  0  0  0  0
 51 63  1  0  0  0  0
 52 63  1  0  0  0  0
 53 64  1  0  0  0  0
 54 64  1  0  0  0  0
 55 64  1  0  0  0  0
 56 75  1  0  0  0  0
 57 76  1  0  0  0  0
 58 60  1  0  0  0  0
 59 63  1  0  0  0  0
 59 75  1  0  0  0  0
 60 83  1  0  0  0  0
 61 64  1  0  0  0  0
 61 74  1  0  0  0  0
 62 76  1  0  0  0  0
 65 68  1  0  0  0  0
M  CHG  1  76   1
M  ISO  4  36 100  60 101  75 100  83 101
M  END
> <Batch ID>
0055

> <Smiles>
CNC(C)C(=O)NC(C(=O)N1Cc2cc([101O:1][101CH2:1]Cc3cc(C(C)(C)C[100N:0](C)[100C:0](=O)N4CCCC(n5nc(-c6ccc(Oc7ccc(F)cc7F)cc6)c(C(N)=O)c5N)C4)nc(C)n3)ccc2CC1C(=O)NC1CCCc2ccccc21)C(C)(C)C

> <Shape>
0.221

> <Color>
0.062

> <Negative vol penalty>
0.000

$$$$

  -OEChem-04052317433D

 84 92  0     1  0  0  0  0  0999 V2000
  -29.4255  -36.0515   23.3525 C   0  0  0  0  0  0  0  0  0  0  0  0
  -29.6020  -34.7336   22.9433 C   0  0  0  0  0  0  0  0  0  0  0  0
  -25.0805   -9.2180   19.5830 C   0  0  0  0  0  0  0  0  0  0  0  0
  -25.4761   -9.3591   21.9622 C   0  0  0  0  0  0  0  0  0  0  0  0
  -28.2589  -36.4228   24.0196 C   0  0  0  0  0  0  0  0  0  0  0  0
  -28.6124  -33.7859   23.2020 C   0  0  0  0  0  0  0  0  0  0  0  0
  -27.0373  -29.0462   19.6580 C   0  0  0  0  0  0  0  0  0  0  0  0
  -25.2978   -7.8409   19.6285 C   0  0  0  0  0  0  0  0  0  0  0  0
  -25.6933   -7.9820   22.0078 C   0  0  0  0  0  0  0  0  0  0  0  0
  -27.3742  -27.6939   19.6960 C   0  0  0  0  0  0  0  0  0  0  0  0
  -25.9974   -4.4497   22.8132 C   0  0  0  0  0  0  0  0  0  0  0  0
  -25.3921   -3.7307   23.8438 C   0  0  0  0  0  0  0  0  0  0  0  0
  -25.3420  -27.2279   20.9093 C   0  0  0  0  0  0  0  0  0  0  0  0
  -23.2191   -4.4448   23.0657 C   0  0  0  0  0  0  0  0  0  0  0  0
  -29.2921  -22.8970   20.4974 C   0  0  0  0  0  0  0  0  0  0  0  0
  -25.1697   -9.9771   20.7498 C   0  0  0  0  0  0  0  0  0  0  0  0
  -23.7207  -12.0734   20.8673 C   0  0  0  0  0  0  0  0  0  0  0  0
  -27.2502  -35.4813   24.2780 C   0  0  0  0  0  0  0  0  0  0  0  0
  -25.8536  -29.5019   20.2559 C   0  0  0  0  0  0  0  0  0  0  0  0
  -27.4317  -34.1447   23.8744 C   0  0  0  0  0  0  0  0  0  0  0  0
  -24.9911  -28.5862   20.8753 C   0  0  0  0  0  0  0  0  0  0  0  0
  -25.6042   -7.2229   20.8409 C   0  0  0  0  0  0  0  0  0  0  0  0
  -26.5279  -26.7849   20.3242 C   0  0  0  0  0  0  0  0  0  0  0  0
  -25.2136   -5.1664   21.9089 C   0  0  0  0  0  0  0  0  0  0  0  0
  -24.0029   -3.7282   23.9700 C   0  0  0  0  0  0  0  0  0  0  0  0
  -23.8245   -5.1639   22.0351 C   0  0  0  0  0  0  0  0  0  0  0  0
  -24.9459  -11.3997   20.7033 C   0  0  0  0  0  0  0  0  0  0  0  0
  -28.2457  -23.5937   19.8636 C   0  0  0  0  0  0  0  0  0  0  0  0
  -28.9718  -21.5717   20.3320 C   0  0  0  0  0  0  0  0  0  0  0  0
  -24.0396  -13.4029   20.7362 C   0  0  0  0  0  0  0  0  0  0  0  0
  -22.4114  -11.5446   21.1159 C   0  0  0  0  0  0  0  0  0  0  0  0
  -25.1642  -31.5101   22.6214 C   0  0  0  0  0  0  0  0  0  0  0  0
  -22.1115  -30.9771   21.6625 C   0  0  0  0  0  0  0  0  0  0  0  0
  -19.8855  -28.9232   20.0899 C   0  0  0  0  0  0  0  0  0  0  0  0
  -28.8609  -16.4694   21.7153 C   0  0  0  0  0  0  0  0  0  0  0  0
  -26.0272  -35.9196   25.0441 C   0  0  0  0  0  0  0  0  0  0  0  0
  -25.4914  -30.9600   20.1829 C   0  0  0  0  0  0  0  0  0  0  0  0
  -23.6986  -29.0215   21.5144 C   0  0  0  0  0  0  0  0  0  0  0  0
  -24.8635  -34.9363   24.9478 C   0  0  0  0  0  0  0  0  0  0  0  0
  -27.1714  -16.3209   18.6177 C   0  0  0  0  0  0  0  0  0  0  0  0
  -25.3496  -33.5094   25.1808 C   0  0  0  0  0  0  0  0  0  0  0  0
  -26.2866  -15.0907   18.8143 C   0  0  0  0  0  0  0  0  0  0  0  0
  -28.5653  -16.1280   19.2178 C   0  0  0  0  0  0  0  0  0  0  0  0
  -27.6675  -14.4856   20.8363 C   0  0  0  0  0  0  0  0  0  0  0  0
  -26.3702  -33.0932   24.1147 C   0  0  1  0  0  0  0  0  0  0  0  0
  -24.5133  -31.3880   21.2727 C   0  0  1  0  0  0  0  0  0  0  0  0
  -26.2422  -14.6760   20.2952 C   0  0  2  0  0  0  0  0  0  0  0  0
  -17.4539  -28.7391   19.4974 C   0  0  0  0  0  0  0  0  0  0  0  0
  -21.4666  -30.2337   24.5507 C   0  0  0  0  0  0  0  0  0  0  0  0
  -19.3514  -29.1735   23.7321 C   0  0  0  0  0  0  0  0  0  0  0  0
  -19.7217  -31.6200   23.4158 C   0  0  0  0  0  0  0  0  0  0  0  0
  -29.6137  -20.7722   23.2925 C   0  0  0  0  0  0  0  0  0  0  0  0
  -27.7935  -19.4479   22.2310 C   0  0  0  0  0  0  0  0  0  0  0  0
  -27.0551  -20.3911   19.2154 C   0  0  0  0  0  0  0  0  0  0  0  0
  -30.9835  -17.2080   20.5518 C   0  0  0  0  0  0  0  0  0  0  0  0
  -20.4765  -28.8729   17.1904 C   0  0  0  0  0  0  0  0  0  0  0  0
  -28.0796  -25.0798   19.7405 C   0  0  0  0  0  0  0  0  0  1  0  0
  -29.6662  -20.3460   20.7670 C   0  0  0  0  0  0  0  0  0  0  0  0
  -30.1016  -18.4543   22.4895 C   0  0  0  0  0  0  0  0  0  0  0  0
  -21.0387  -29.9761   22.0176 C   0  0  1  0  0  0  0  0  0  0  0  0
  -18.8276  -29.2019   19.0375 C   0  0  2  0  0  0  0  0  0  0  0  0
  -20.4198  -30.2426   23.4188 C   0  0  0  0  0  0  0  0  0  0  0  0
  -29.3096  -19.7472   22.1806 C   0  0  0  0  0  0  0  0  0  0  0  0
  -25.9670  -12.2326   20.4847 N   0  0  0  0  0  0  0  0  0  0  0  0
  -27.3294  -22.7783   19.3349 N   0  0  0  0  0  0  0  0  0  0  0  0
  -27.7990  -21.5557   19.6360 N   0  0  0  0  0  0  0  0  0  0  0  0
  -25.3840  -13.4432   20.5102 N   0  0  0  0  0  0  0  0  0  0  0  0
  -23.3918  -30.4585   21.4224 N   0  0  0  0  0  0  0  0  0  0  0  0
  -28.4768  -15.6868   20.6165 N   0  0  0  0  0  0  0  0  0  0  0  0
  -23.2984  -14.5297   20.7933 N   0  0  0  0  0  0  0  0  0  0  0  0
  -22.2611  -10.1552   21.2225 N   0  0  0  0  0  0  0  0  0  0  0  0
  -25.6998  -32.7581   22.8767 N   0  0  0  0  0  0  0  0  0  0  0  0
  -20.0746  -30.0055   20.9231 N   0  0  0  0  0  0  0  0  0  0  0  0
  -29.9002  -17.3905   21.5158 N   0  0  0  0  0  0  0  0  0  0  0  0
  -19.1609  -28.4956   17.7682 N   0  3  0  0  0  0  0  0  0  0  0  0
  -21.4019  -12.2813   21.2234 O   0  0  0  0  0  0  0  0  0  0  0  0
  -25.1781  -30.5441   23.3753 O   0  0  0  0  0  0  0  0  0  0  0  0
  -21.8225  -32.1743   21.5936 O   0  0  0  0  0  0  0  0  0  0  0  0
  -20.4816  -27.8513   20.1676 O   0  0  0  0  0  0  0  0  0  0  0  0
  -28.3115  -16.3473   22.8177 O   0  0  0  0  0  0  0  0  0  0  0  0
  -25.8161   -5.8792   20.8858 O   0  0  0  0  0  0  0  0  0  0  0  0
  -26.8547  -25.4645   20.3633 O   0  0  0  0  0  0  0  0  0  1  0  0
  -23.4217   -3.0364   24.9588 F   0  0  0  0  0  0  0  0  0  0  0  0
  -23.0662   -5.8496   21.1687 F   0  0  0  0  0  0  0  0  0  0  0  0
  1  2  1  0  0  0  0
  1  5  2  0  0  0  0
  2  6  2  0  0  0  0
  3  8  2  0  0  0  0
  3 16  1  0  0  0  0
  4  9  1  0  0  0  0
  4 16  2  0  0  0  0
  5 18  1  0  0  0  0
  6 20  1  0  0  0  0
  7 10  2  0  0  0  0
  7 19  1  0  0  0  0
  8 22  1  0  0  0  0
  9 22  2  0  0  0  0
 10 23  1  0  0  0  0
 11 12  2  0  0  0  0
 11 24  1  0  0  0  0
 12 25  1  0  0  0  0
 13 21  1  0  0  0  0
 13 23  2  0  0  0  0
 14 25  2  0  0  0  0
 14 26  1  0  0  0  0
 15 28  1  0  0  0  0
 15 29  2  0  0  0  0
 16 27  1  0  0  0  0
 17 27  1  0  0  0  0
 17 30  2  0  0  0  0
 17 31  1  0  0  0  0
 18 20  2  0  0  0  0
 18 36  1  0  0  0  0
 19 21  2  0  0  0  0
 19 37  1  0  0  0  0
 20 45  1  0  0  0  0
 21 38  1  0  0  0  0
 22 81  1  0  0  0  0
 23 82  1  0  0  0  0
 24 26  2  0  0  0  0
 24 81  1  0  0  0  0
 25 83  1  0  0  0  0
 26 84  1  0  0  0  0
 27 64  2  0  0  0  0
 28 57  1  0  0  0  0
 28 65  2  0  0  0  0
 29 58  1  0  0  0  0
 29 66  1  0  0  0  0
 30 67  1  0  0  0  0
 30 70  1  0  0  0  0
 31 71  1  0  0  0  0
 31 76  2  0  0  0  0
 32 46  1  0  0  0  0
 32 72  1  0  0  0  0
 32 77  2  0  0  0  0
 33 60  1  0  0  0  0
 33 68  1  0  0  0  0
 33 78  2  0  0  0  0
 34 61  1  0  0  0  0
 34 73  1  0  0  0  0
 34 79  2  0  0  0  0
 35 69  1  0  0  0  0
 35 74  1  0  0  0  0
 35 80  2  0  0  0  0
 36 39  1  0  0  0  0
 37 46  1  0  0  0  0
 38 68  1  0  0  0  0
 39 41  1  0  0  0  0
 40 42  1  0  0  0  0
 40 43  1  0  0  0  0
 41 45  1  0  0  0  0
 42 47  1  0  0  0  0
 43 69  1  0  0  0  0
 44 47  1  0  0  0  0
 44 69  1  0  0  0  0
 45 72  1  0  0  0  0
 46 68  1  0  0  0  0
 47 67  1  0  0  0  0
 48 61  1  0  0  0  0
 49 62  1  0  0  0  0
 50 62  1  0  0  0  0
 51 62  1  0  0  0  0
 52 63  1  0  0  0  0
 53 63  1  0  0  0  0
 54 66  1  0  0  0  0
 55 74  1  0  0  0  0
 56 75  1  0  0  0  0
 57 82  1  0  0  0  0
 58 63  1  0  0  0  0
 59 63  1  0  0  0  0
 59 74  1  0  0  0  0
 60 62  1  0  0  0  0
 60 73  1  0  0  0  0
 61 75  1  0  0  0  0
 64 67  1  0  0  0  0
 65 66  1  0  0  0  0
M  CHG  1  75   1
M  ISO  4  35 100  57 101  74 100  82 101
M  END
> <Batch ID>
0055

> <Smiles>
CNC(C)C(=O)NC(C(=O)N1Cc2cc([101O:1][101CH2:1]c3cc(CC(C)(C)C[100N:0](C)[100C:0](=O)N4CCCC(n5nc(-c6ccc(Oc7ccc(F)cc7F)cc6)c(C(N)=O)c5N)C4)n(C)n3)ccc2CC1C(=O)NC1CCCc2ccccc21)C(C)(C)C

> <Shape>
0.285

> <Color>
0.079

> <Negative vol penalty>
0.000

$$$$

  -OEChem-04052317433D

 84 92  0     1  0  0  0  0  0999 V2000
  -27.1081  -36.9077   27.3281 C   0  0  0  0  0  0  0  0  0  0  0  0
  -27.9932  -36.0431   26.6921 C   0  0  0  0  0  0  0  0  0  0  0  0
  -22.9715   -9.9680   20.1081 C   0  0  0  0  0  0  0  0  0  0  0  0
  -24.5228   -9.1939   21.7908 C   0  0  0  0  0  0  0  0  0  0  0  0
  -25.7525  -36.5891   27.3969 C   0  0  0  0  0  0  0  0  0  0  0  0
  -27.5233  -34.8587   26.1256 C   0  0  0  0  0  0  0  0  0  0  0  0
  -28.7555  -30.4219   20.6380 C   0  0  0  0  0  0  0  0  0  0  0  0
  -21.9305   -9.3141   20.7670 C   0  0  0  0  0  0  0  0  0  0  0  0
  -23.4817   -8.5400   22.4497 C   0  0  0  0  0  0  0  0  0  0  0  0
  -28.9790  -29.0713   20.3742 C   0  0  0  0  0  0  0  0  0  0  0  0
  -21.7278   -5.6702   22.1044 C   0  0  0  0  0  0  0  0  0  0  0  0
  -21.9572   -4.3670   22.5455 C   0  0  0  0  0  0  0  0  0  0  0  0
  -26.6041  -28.6629   20.4847 C   0  0  0  0  0  0  0  0  0  0  0  0
  -21.5273   -5.0611   24.8194 C   0  0  0  0  0  0  0  0  0  0  0  0
  -29.7059  -24.3083   18.3946 C   0  0  0  0  0  0  0  0  0  0  0  0
  -24.2677   -9.9079   20.6200 C   0  0  0  0  0  0  0  0  0  0  0  0
  -25.7885  -10.3605   18.6225 C   0  0  0  0  0  0  0  0  0  0  0  0
  -25.2642  -35.4049   26.8225 C   0  0  0  0  0  0  0  0  0  0  0  0
  -27.4533  -30.9021   20.8383 C   0  0  0  0  0  0  0  0  0  0  0  0
  -26.1601  -34.5233   26.1879 C   0  0  0  0  0  0  0  0  0  0  0  0
  -26.3666  -30.0206   20.7484 C   0  0  0  0  0  0  0  0  0  0  0  0
  -22.1855   -8.6001   21.9378 C   0  0  0  0  0  0  0  0  0  0  0  0
  -27.9035  -28.1910   20.3004 C   0  0  0  0  0  0  0  0  0  0  0  0
  -21.3981   -6.6689   23.0207 C   0  0  0  0  0  0  0  0  0  0  0  0
  -21.8570   -4.0624   23.9030 C   0  0  0  0  0  0  0  0  0  0  0  0
  -21.2978   -6.3643   24.3782 C   0  0  0  0  0  0  0  0  0  0  0  0
  -25.3437  -10.5827   19.9395 C   0  0  0  0  0  0  0  0  0  0  0  0
  -29.4988  -24.9886   19.5613 C   0  0  0  0  0  0  0  0  0  0  0  0
  -26.8244  -11.2468   18.4558 C   0  0  0  0  0  0  0  0  0  0  0  0
  -29.3712  -22.8228   20.0014 C   0  0  0  0  0  0  0  0  0  0  0  0
  -25.3082   -9.4357   17.6377 C   0  0  0  0  0  0  0  0  0  0  0  0
  -25.9219  -32.2934   23.2514 C   0  0  0  0  0  0  0  0  0  0  0  0
  -23.5437  -32.5818   21.0643 C   0  0  0  0  0  0  0  0  0  0  0  0
  -22.1004  -31.4480   18.1871 C   0  0  0  0  0  0  0  0  0  0  0  0
  -28.1043  -16.3847   20.8162 C   0  0  0  0  0  0  0  0  0  0  0  0
  -23.7981  -35.0804   26.9634 C   0  0  0  0  0  0  0  0  0  0  0  0
  -27.2269  -32.3666   21.0955 C   0  0  0  0  0  0  0  0  0  0  0  0
  -24.9476  -30.4894   20.9356 C   0  0  0  0  0  0  0  0  0  0  0  0
  -23.3219  -33.9870   26.0106 C   0  0  0  0  0  0  0  0  0  0  0  0
  -30.2180  -13.5567   20.8970 C   0  0  0  0  0  0  0  0  0  0  0  0
  -24.2933  -32.8110   26.0194 C   0  0  0  0  0  0  0  0  0  0  0  0
  -29.2410  -12.4383   20.5373 C   0  0  0  0  0  0  0  0  0  0  0  0
  -29.5877  -14.5922   21.8301 C   0  0  0  0  0  0  0  0  0  0  0  0
  -27.3366  -14.0352   20.9672 C   0  0  0  0  0  0  0  0  0  0  0  0
  -25.6848  -33.2412   25.5397 C   0  0  1  0  0  0  0  0  0  0  0  0
  -25.9004  -32.6528   21.7926 C   0  0  1  0  0  0  0  0  0  0  0  0
  -27.9262  -13.0135   19.9827 C   0  0  2  0  0  0  0  0  0  0  0  0
  -20.1449  -31.8596   16.6693 C   0  0  0  0  0  0  0  0  0  0  0  0
  -21.6984  -31.2188   23.0761 C   0  0  0  0  0  0  0  0  0  0  0  0
  -20.0828  -30.8053   21.2087 C   0  0  0  0  0  0  0  0  0  0  0  0
  -20.6694  -33.1425   21.8534 C   0  0  0  0  0  0  0  0  0  0  0  0
  -29.7816  -21.8895   17.7439 C   0  0  0  0  0  0  0  0  0  0  0  0
  -29.3190  -17.3816   22.8000 C   0  0  0  0  0  0  0  0  0  0  0  0
  -26.8219  -21.8003   20.8989 C   0  0  0  0  0  0  0  0  0  0  0  0
  -23.8636  -32.0715   15.8934 C   0  0  0  0  0  0  0  0  0  0  0  0
  -29.4723  -26.4587   19.8604 C   0  0  0  0  0  0  0  0  0  1  0  0
  -29.2056  -21.5455   20.7389 C   0  0  0  0  0  0  0  0  0  0  0  0
  -28.9421  -18.7025   20.7508 C   0  0  0  0  0  0  0  0  0  0  0  0
  -27.8205  -19.6341   21.1875 C   0  0  0  0  0  0  0  0  0  0  0  0
  -22.3750  -31.7272   20.6368 C   0  0  1  0  0  0  0  0  0  0  0  0
  -21.6043  -32.1795   16.9529 C   0  0  2  0  0  0  0  0  0  0  0  0
  -21.2332  -31.7139   21.6921 C   0  0  0  0  0  0  0  0  0  0  0  0
  -26.0401  -11.5353   20.5652 N   0  0  0  0  0  0  0  0  0  0  0  0
  -29.6219  -22.9704   18.6964 N   0  0  0  0  0  0  0  0  0  0  0  0
  -26.9331  -11.9195   19.6373 N   0  0  0  0  0  0  0  0  0  0  0  0
  -29.2941  -24.0446   20.5386 N   0  3  0  0  0  0  0  0  0  0  0  0
  -24.7782  -31.9294   21.1911 N   0  0  0  0  0  0  0  0  0  0  0  0
  -28.3128  -15.0798   21.2864 N   0  0  0  0  0  0  0  0  0  0  0  0
  -27.6439  -11.5085   17.4154 N   0  0  0  0  0  0  0  0  0  0  0  0
  -24.2361   -8.5981   17.9745 N   0  0  0  0  0  0  0  0  0  0  0  0
  -25.7067  -33.3642   24.0978 N   0  0  0  0  0  0  0  0  0  0  0  0
  -21.9695  -32.2173   19.3239 N   0  0  0  0  0  0  0  0  0  0  0  0
  -28.8506  -17.4103   21.4158 N   0  0  0  0  0  0  0  0  0  0  0  0
  -27.9271  -20.9229   20.4903 N   0  0  1  0  0  0  0  0  0  0  0  0
  -22.4107  -31.7910   15.7614 N   0  3  0  0  0  0  0  0  0  0  0  0
  -25.8253   -9.3431   16.4987 O   0  0  0  0  0  0  0  0  0  0  0  0
  -26.1178  -31.1304   23.5843 O   0  0  0  0  0  0  0  0  0  0  0  0
  -23.3692  -33.7853   21.2710 O   0  0  0  0  0  0  0  0  0  0  0  0
  -22.5548  -30.3067   18.1474 O   0  0  0  0  0  0  0  0  0  0  0  0
  -27.2899  -16.6231   19.9150 O   0  0  0  0  0  0  0  0  0  0  0  0
  -21.1698   -7.9621   22.5811 O   0  0  0  0  0  0  0  0  0  0  0  0
  -28.1189  -26.8721   20.0437 O   0  0  0  0  0  0  0  0  0  1  0  0
  -22.0758   -2.8106   24.3263 F   0  0  0  0  0  0  0  0  0  0  0  0
  -20.9803   -7.3192   25.2632 F   0  0  0  0  0  0  0  0  0  0  0  0
  1  2  1  0  0  0  0
  1  5  2  0  0  0  0
  2  6  2  0  0  0  0
  3  8  2  0  0  0  0
  3 16  1  0  0  0  0
  4  9  1  0  0  0  0
  4 16  2  0  0  0  0
  5 18  1  0  0  0  0
  6 20  1  0  0  0  0
  7 10  2  0  0  0  0
  7 19  1  0  0  0  0
  8 22  1  0  0  0  0
  9 22  2  0  0  0  0
 10 23  1  0  0  0  0
 11 12  2  0  0  0  0
 11 24  1  0  0  0  0
 12 25  1  0  0  0  0
 13 21  1  0  0  0  0
 13 23  2  0  0  0  0
 14 25  2  0  0  0  0
 14 26  1  0  0  0  0
 15 28  2  0  0  0  0
 15 64  1  0  0  0  0
 16 27  1  0  0  0  0
 17 27  1  0  0  0  0
 17 29  2  0  0  0  0
 17 31  1  0  0  0  0
 18 20  2  0  0  0  0
 18 36  1  0  0  0  0
 19 21  2  0  0  0  0
 19 37  1  0  0  0  0
 20 45  1  0  0  0  0
 21 38  1  0  0  0  0
 22 81  1  0  0  0  0
 23 82  1  0  0  0  0
 24 26  2  0  0  0  0
 24 81  1  0  0  0  0
 25 83  1  0  0  0  0
 26 84  1  0  0  0  0
 27 63  2  0  0  0  0
 28 56  1  0  0  0  0
 28 66  1  0  0  0  0
 29 65  1  0  0  0  0
 29 69  1  0  0  0  0
 30 57  1  0  0  0  0
 30 64  1  0  0  0  0
 30 66  2  0  0  0  0
 31 70  1  0  0  0  0
 31 76  2  0  0  0  0
 32 46  1  0  0  0  0
 32 71  1  0  0  0  0
 32 77  2  0  0  0  0
 33 60  1  0  0  0  0
 33 67  1  0  0  0  0
 33 78  2  0  0  0  0
 34 61  1  0  0  0  0
 34 72  1  0  0  0  0
 34 79  2  0  0  0  0
 35 68  1  0  0  0  0
 35 73  1  0  0  0  0
 35 80  2  0  0  0  0
 36 39  1  0  0  0  0
 37 46  1  0  0  0  0
 38 67  1  0  0  0  0
 39 41  1  0  0  0  0
 40 42  1  0  0  0  0
 40 43  1  0  0  0  0
 41 45  1  0  0  0  0
 42 47  1  0  0  0  0
 43 68  1  0  0  0  0
 44 47  1  0  0  0  0
 44 68  1  0  0  0  0
 45 71  1  0  0  0  0
 46 67  1  0  0  0  0
 47 65  1  0  0  0  0
 48 61  1  0  0  0  0
 49 62  1  0  0  0  0
 50 62  1  0  0  0  0
 51 62  1  0  0  0  0
 52 64  1  0  0  0  0
 53 73  1  0  0  0  0
 54 74  1  0  0  0  0
 55 75  1  0  0  0  0
 56 82  1  0  0  0  0
 57 74  1  0  0  0  0
 58 59  1  0  0  0  0
 58 73  1  0  0  0  0
 59 74  1  0  0  0  0
 60 62  1  0  0  0  0
 60 72  1  0  0  0  0
 61 75  1  0  0  0  0
 63 65  1  0  0  0  0
M  CHG  2  66   1  75   1
M  ISO  4  35 100  56 101  73 100  82 101
M  END
> <Batch ID>
0055

> <Smiles>
CNC(C)C(=O)NC(C(=O)N1Cc2cc([101O:1][101CH2:1]c3cn(C)c(CN(C)CC[100N:0](C)[100C:0](=O)N4CCCC(n5nc(-c6ccc(Oc7ccc(F)cc7F)cc6)c(C(N)=O)c5N)C4)n3)ccc2CC1C(=O)NC1CCCc2ccccc21)C(C)(C)C

> <Shape>
0.316

> <Color>
0.092

> <Negative vol penalty>
0.000

$$$$

  -OEChem-04052317433D

 84 92  0     1  0  0  0  0  0999 V2000
  -16.9120  -25.5909   23.4605 C   0  0  0  0  0  0  0  0  0  0  0  0
  -18.1585  -24.9895   23.3194 C   0  0  0  0  0  0  0  0  0  0  0  0
  -23.2322   -9.9158   21.4902 C   0  0  0  0  0  0  0  0  0  0  0  0
  -23.7541  -10.9160   23.6266 C   0  0  0  0  0  0  0  0  0  0  0  0
  -16.8069  -26.9812   23.4679 C   0  0  0  0  0  0  0  0  0  0  0  0
  -19.3006  -25.7780   23.1846 C   0  0  0  0  0  0  0  0  0  0  0  0
  -23.1368  -24.1492   26.0614 C   0  0  0  0  0  0  0  0  0  0  0  0
  -22.5140   -8.9098   22.1366 C   0  0  0  0  0  0  0  0  0  0  0  0
  -23.0359   -9.9100   24.2730 C   0  0  0  0  0  0  0  0  0  0  0  0
  -23.8534  -23.0453   25.6015 C   0  0  0  0  0  0  0  0  0  0  0  0
  -23.1876   -6.0538   23.8141 C   0  0  0  0  0  0  0  0  0  0  0  0
  -23.3911   -4.7400   23.3923 C   0  0  0  0  0  0  0  0  0  0  0  0
  -25.5802  -24.5160   24.7803 C   0  0  0  0  0  0  0  0  0  0  0  0
  -21.0500   -4.5600   22.8233 C   0  0  0  0  0  0  0  0  0  0  0  0
  -26.9708  -18.9577   24.9239 C   0  0  0  0  0  0  0  0  0  0  0  0
  -23.8523  -10.9189   22.2352 C   0  0  0  0  0  0  0  0  0  0  0  0
  -24.1021  -13.1946   21.1098 C   0  0  0  0  0  0  0  0  0  0  0  0
  -17.9494  -27.7872   23.3428 C   0  0  0  0  0  0  0  0  0  0  0  0
  -23.6321  -25.4477   25.8741 C   0  0  0  0  0  0  0  0  0  0  0  0
  -19.2106  -27.1804   23.1890 C   0  0  0  0  0  0  0  0  0  0  0  0
  -24.8691  -25.6346   25.2409 C   0  0  0  0  0  0  0  0  0  0  0  0
  -22.4158   -8.9069   23.5280 C   0  0  0  0  0  0  0  0  0  0  0  0
  -25.0740  -23.2287   24.9583 C   0  0  0  0  0  0  0  0  0  0  0  0
  -21.9152   -6.6208   23.7406 C   0  0  0  0  0  0  0  0  0  0  0  0
  -22.3223   -3.9931   22.8969 C   0  0  0  0  0  0  0  0  0  0  0  0
  -20.8464   -5.8738   23.2452 C   0  0  0  0  0  0  0  0  0  0  0  0
  -24.5947  -11.9580   21.5681 C   0  0  0  0  0  0  0  0  0  0  0  0
  -26.1306  -19.8169   24.1905 C   0  0  0  0  0  0  0  0  0  0  0  0
  -27.6023  -18.1981   23.9696 C   0  0  0  0  0  0  0  0  0  0  0  0
  -25.1943  -13.8145   20.5537 C   0  0  0  0  0  0  0  0  0  0  0  0
  -22.7758  -13.7346   21.1805 C   0  0  0  0  0  0  0  0  0  0  0  0
  -22.6243  -28.0303   24.3190 C   0  0  0  0  0  0  0  0  0  0  0  0
  -25.1887  -29.4123   25.7460 C   0  0  0  0  0  0  0  0  0  0  0  0
  -28.2636  -29.0301   27.1763 C   0  0  0  0  0  0  0  0  0  0  0  0
  -31.1317  -12.7690   21.6457 C   0  0  0  0  0  0  0  0  0  0  0  0
  -17.7806  -29.2855   23.3088 C   0  0  0  0  0  0  0  0  0  0  0  0
  -22.8596  -26.6264   26.3998 C   0  0  0  0  0  0  0  0  0  0  0  0
  -25.4543  -27.0068   25.0332 C   0  0  0  0  0  0  0  0  0  0  0  0
  -19.0819  -30.0504   23.5368 C   0  0  0  0  0  0  0  0  0  0  0  0
  -29.3551  -12.8743   18.4001 C   0  0  0  0  0  0  0  0  0  0  0  0
  -20.2029  -29.4624   22.6857 C   0  0  0  0  0  0  0  0  0  0  0  0
  -27.8965  -12.6833   18.8124 C   0  0  0  0  0  0  0  0  0  0  0  0
  -30.3142  -12.2120   19.3845 C   0  0  0  0  0  0  0  0  0  0  0  0
  -28.6618  -12.4509   21.2084 C   0  0  0  0  0  0  0  0  0  0  0  0
  -20.4755  -28.0019   23.0650 C   0  0  1  0  0  0  0  0  0  0  0  0
  -23.2135  -27.9339   25.6978 C   0  0  1  0  0  0  0  0  0  0  0  0
  -27.6712  -13.1460   20.2623 C   0  0  2  0  0  0  0  0  0  0  0  0
  -30.1308  -30.3468   28.2142 C   0  0  0  0  0  0  0  0  0  0  0  0
  -26.0780  -30.3305   22.9754 C   0  0  0  0  0  0  0  0  0  0  0  0
  -28.3481  -30.7815   23.9299 C   0  0  0  0  0  0  0  0  0  0  0  0
  -26.3671  -32.0354   24.7821 C   0  0  0  0  0  0  0  0  0  0  0  0
  -27.4830  -18.1401   21.4602 C   0  0  0  0  0  0  0  0  0  0  0  0
  -32.1162  -13.9187   23.5921 C   0  0  0  0  0  0  0  0  0  0  0  0
  -27.9739  -27.6222   29.7633 C   0  0  0  0  0  0  0  0  0  0  0  0
  -26.9011  -15.4352   24.7813 C   0  0  0  0  0  0  0  0  0  0  0  0
  -25.2014  -20.8651   24.7281 C   0  0  0  0  0  0  0  0  0  1  0  0
  -28.6007  -17.1204   24.0943 C   0  0  0  0  0  0  0  0  0  0  0  0
  -29.9900  -14.7759   22.6810 C   0  0  0  0  0  0  0  0  0  0  0  0
  -29.1149  -14.6904   23.9175 C   0  0  0  0  0  0  0  0  0  0  0  0
  -26.6431  -29.5957   25.3851 C   0  0  1  0  0  0  0  0  0  0  0  0
  -28.8476  -29.5714   28.4688 C   0  0  2  0  0  0  0  0  0  0  0  0
  -26.8474  -30.6599   24.2701 C   0  0  0  0  0  0  0  0  0  0  0  0
  -25.8984  -11.8000   21.3242 N   0  0  0  0  0  0  0  0  0  0  0  0
  -26.2183  -19.6221   22.8720 N   0  0  0  0  0  0  0  0  0  0  0  0
  -27.1211  -18.6319   22.7694 N   0  0  0  0  0  0  0  0  0  0  0  0
  -26.2342  -12.9453   20.7065 N   0  0  0  0  0  0  0  0  0  0  0  0
  -24.6583  -28.1279   25.5593 N   0  0  0  0  0  0  0  0  0  0  0  0
  -30.0499  -12.6364   20.7597 N   0  0  0  0  0  0  0  0  0  0  0  0
  -25.3570  -15.0129   19.9538 N   0  0  0  0  0  0  0  0  0  0  0  0
  -21.7724  -12.9650   21.7850 N   0  0  0  0  0  0  0  0  0  0  0  0
  -21.2463  -27.9327   24.2879 N   0  0  0  0  0  0  0  0  0  0  0  0
  -27.3384  -29.8956   26.6321 N   0  0  0  0  0  0  0  0  0  0  0  0
  -31.0161  -13.7357   22.6561 N   0  0  0  0  0  0  0  0  0  0  0  0
  -29.1518  -28.4545   29.4074 N   0  3  0  0  0  0  0  0  0  0  0  0
  -28.0484  -15.7500   23.8606 N   0  3  1  0  0  0  0  0  0  0  0  0
  -22.4853  -14.8591   20.7065 O   0  0  0  0  0  0  0  0  0  0  0  0
  -23.3650  -28.1835   23.3548 O   0  0  0  0  0  0  0  0  0  0  0  0
  -24.5488  -30.3715   26.1843 O   0  0  0  0  0  0  0  0  0  0  0  0
  -28.5976  -27.9495   26.6955 O   0  0  0  0  0  0  0  0  0  0  0  0
  -32.1471  -12.0701   21.5339 O   0  0  0  0  0  0  0  0  0  0  0  0
  -21.7149   -7.9256   24.1590 O   0  0  0  0  0  0  0  0  0  0  0  0
  -25.7752  -22.1530   24.5079 O   0  0  0  0  0  0  0  0  0  1  0  0
  -22.5183   -2.7319   22.4904 F   0  0  0  0  0  0  0  0  0  0  0  0
  -19.6220   -6.4135   23.1711 F   0  0  0  0  0  0  0  0  0  0  0  0
  1  2  1  0  0  0  0
  1  5  2  0  0  0  0
  2  6  2  0  0  0  0
  3  8  2  0  0  0  0
  3 16  1  0  0  0  0
  4  9  1  0  0  0  0
  4 16  2  0  0  0  0
  5 18  1  0  0  0  0
  6 20  1  0  0  0  0
  7 10  2  0  0  0  0
  7 19  1  0  0  0  0
  8 22  1  0  0  0  0
  9 22  2  0  0  0  0
 10 23  1  0  0  0  0
 11 12  2  0  0  0  0
 11 24  1  0  0  0  0
 12 25  1  0  0  0  0
 13 21  1  0  0  0  0
 13 23  2  0  0  0  0
 14 25  2  0  0  0  0
 14 26  1  0  0  0  0
 15 28  1  0  0  0  0
 15 29  2  0  0  0  0
 16 27  1  0  0  0  0
 17 27  1  0  0  0  0
 17 30  2  0  0  0  0
 17 31  1  0  0  0  0
 18 20  2  0  0  0  0
 18 36  1  0  0  0  0
 19 21  2  0  0  0  0
 19 37  1  0  0  0  0
 20 45  1  0  0  0  0
 21 38  1  0  0  0  0
 22 81  1  0  0  0  0
 23 82  1  0  0  0  0
 24 26  2  0  0  0  0
 24 81  1  0  0  0  0
 25 83  1  0  0  0  0
 26 84  1  0  0  0  0
 27 63  2  0  0  0  0
 28 56  1  0  0  0  0
 28 64  2  0  0  0  0
 29 57  1  0  0  0  0
 29 65  1  0  0  0  0
 30 66  1  0  0  0  0
 30 69  1  0  0  0  0
 31 70  1  0  0  0  0
 31 76  2  0  0  0  0
 32 46  1  0  0  0  0
 32 71  1  0  0  0  0
 32 77  2  0  0  0  0
 33 60  1  0  0  0  0
 33 67  1  0  0  0  0
 33 78  2  0  0  0  0
 34 61  1  0  0  0  0
 34 72  1  0  0  0  0
 34 79  2  0  0  0  0
 35 68  1  0  0  0  0
 35 73  1  0  0  0  0
 35 80  2  0  0  0  0
 36 39  1  0  0  0  0
 37 46  1  0  0  0  0
 38 67  1  0  0  0  0
 39 41  1  0  0  0  0
 40 42  1  0  0  0  0
 40 43  1  0  0  0  0
 41 45  1  0  0  0  0
 42 47  1  0  0  0  0
 43 68  1  0  0  0  0
 44 47  1  0  0  0  0
 44 68  1  0  0  0  0
 45 71  1  0  0  0  0
 46 67  1  0  0  0  0
 47 66  1  0  0  0  0
 48 61  1  0  0  0  0
 49 62  1  0  0  0  0
 50 62  1  0  0  0  0
 51 62  1  0  0  0  0
 52 65  1  0  0  0  0
 53 73  1  0  0  0  0
 54 74  1  0  0  0  0
 55 75  1  0  0  0  0
 56 82  1  0  0  0  0
 57 75  1  0  0  0  0
 58 59  1  0  0  0  0
 58 73  1  0  0  0  0
 59 75  1  0  0  0  0
 60 62  1  0  0  0  0
 60 72  1  0  0  0  0
 61 74  1  0  0  0  0
 63 66  1  0  0  0  0
 64 65  1  0  0  0  0
M  CHG  2  74   1  75   1
M  ISO  4  35 100  56 101  73 100  82 101
M  END
> <Batch ID>
0055

> <Smiles>
CNC(C)C(=O)NC(C(=O)N1Cc2cc([101O:1][101CH2:1]c3cc(CN(C)CC[100N:0](C)[100C:0](=O)N4CCCC(n5nc(-c6ccc(Oc7ccc(F)cc7F)cc6)c(C(N)=O)c5N)C4)n(C)n3)ccc2CC1C(=O)NC1CCCc2ccccc21)C(C)(C)C

> <Shape>
0.239

> <Color>
0.156

> <Negative vol penalty>
0.000

$$$$

  -OEChem-04052317433D

 83 91  0     1  0  0  0  0  0999 V2000
  -33.2516  -25.2359   18.0982 C   0  0  0  0  0  0  0  0  0  0  0  0
  -32.0077  -24.6332   18.2559 C   0  0  0  0  0  0  0  0  0  0  0  0
  -23.3385  -12.6976   19.2674 C   0  0  0  0  0  0  0  0  0  0  0  0
  -25.0671  -12.1081   20.8490 C   0  0  0  0  0  0  0  0  0  0  0  0
  -33.6447  -26.2571   18.9622 C   0  0  0  0  0  0  0  0  0  0  0  0
  -31.1566  -25.0506   19.2786 C   0  0  0  0  0  0  0  0  0  0  0  0
  -25.0408  -25.3170   19.0998 C   0  0  0  0  0  0  0  0  0  0  0  0
  -23.1686  -11.3498   18.9507 C   0  0  0  0  0  0  0  0  0  0  0  0
  -24.8972  -10.7603   20.5324 C   0  0  0  0  0  0  0  0  0  0  0  0
  -24.0503  -24.4530   19.5648 C   0  0  0  0  0  0  0  0  0  0  0  0
  -22.7328   -8.2786   21.2920 C   0  0  0  0  0  0  0  0  0  0  0  0
  -22.6771   -7.3684   22.3475 C   0  0  0  0  0  0  0  0  0  0  0  0
  -23.8668  -25.7599   21.5841 C   0  0  0  0  0  0  0  0  0  0  0  0
  -24.6117   -6.2235   21.4623 C   0  0  0  0  0  0  0  0  0  0  0  0
  -25.2955  -21.9357   22.4201 C   0  0  0  0  0  0  0  0  0  0  0  0
  -25.8679  -20.9038   24.2813 C   0  0  0  0  0  0  0  0  0  0  0  0
  -24.2878  -13.0767   20.2165 C   0  0  0  0  0  0  0  0  0  0  0  0
  -23.7962  -15.1979   21.5457 C   0  0  0  0  0  0  0  0  0  0  0  0
  -32.7940  -26.6938   19.9900 C   0  0  0  0  0  0  0  0  0  0  0  0
  -25.4602  -26.4045   19.8795 C   0  0  0  0  0  0  0  0  0  0  0  0
  -31.5393  -26.0776   20.1580 C   0  0  0  0  0  0  0  0  0  0  0  0
  -24.8610  -26.6377   21.1256 C   0  0  0  0  0  0  0  0  0  0  0  0
  -23.9479  -10.3812   19.5832 C   0  0  0  0  0  0  0  0  0  0  0  0
  -23.4652  -24.6727   20.8084 C   0  0  0  0  0  0  0  0  0  0  0  0
  -23.7278   -8.1611   20.3215 C   0  0  0  0  0  0  0  0  0  0  0  0
  -23.6165   -6.3409   22.4327 C   0  0  0  0  0  0  0  0  0  0  0  0
  -24.6673   -7.1336   20.4067 C   0  0  0  0  0  0  0  0  0  0  0  0
  -24.4642  -14.4688   20.5437 C   0  0  0  0  0  0  0  0  0  0  0  0
  -24.2331  -21.2529   22.9637 C   0  0  0  0  0  0  0  0  0  0  0  0
  -24.3157  -16.4659   21.4519 C   0  0  0  0  0  0  0  0  0  0  0  0
  -22.7956  -14.7673   22.4780 C   0  0  0  0  0  0  0  0  0  0  0  0
  -28.2089  -27.2798   21.2145 C   0  0  0  0  0  0  0  0  0  0  0  0
  -26.5500  -29.9710   21.9411 C   0  0  0  0  0  0  0  0  0  0  0  0
  -23.5225  -31.4524   22.4766 C   0  0  0  0  0  0  0  0  0  0  0  0
  -28.6690  -19.9125   20.8911 C   0  0  0  0  0  0  0  0  0  0  0  0
  -33.2820  -27.7687   20.9286 C   0  0  0  0  0  0  0  0  0  0  0  0
  -26.5109  -27.3426   19.3520 C   0  0  0  0  0  0  0  0  0  0  0  0
  -25.2613  -27.8026   21.9924 C   0  0  0  0  0  0  0  0  0  0  0  0
  -32.1683  -28.4086   21.7536 C   0  0  0  0  0  0  0  0  0  0  0  0
  -27.2580  -18.5647   17.9130 C   0  0  0  0  0  0  0  0  0  0  0  0
  -31.2586  -27.3364   22.3449 C   0  0  0  0  0  0  0  0  0  0  0  0
  -26.3557  -17.4357   18.4141 C   0  0  0  0  0  0  0  0  0  0  0  0
  -28.5325  -18.6806   18.7462 C   0  0  0  0  0  0  0  0  0  0  0  0
  -27.4106  -17.6817   20.7000 C   0  0  0  0  0  0  0  0  0  0  0  0
  -30.5779  -26.5196   21.2399 C   0  0  1  0  0  0  0  0  0  0  0  0
  -27.2239  -28.1212   20.4532 C   0  0  1  0  0  0  0  0  0  0  0  0
  -26.0868  -17.5619   19.9257 C   0  0  2  0  0  0  0  0  0  0  0  0
  -22.4882  -33.6547   23.0908 C   0  0  0  0  0  0  0  0  0  0  0  0
  -27.3780  -29.5466   24.8470 C   0  0  0  0  0  0  0  0  0  0  0  0
  -25.5879  -31.1624   25.5202 C   0  0  0  0  0  0  0  0  0  0  0  0
  -27.4715  -31.9225   24.0720 C   0  0  0  0  0  0  0  0  0  0  0  0
  -27.9001  -23.0789   21.8814 C   0  0  0  0  0  0  0  0  0  0  0  0
  -28.0070  -23.0961   24.3602 C   0  0  0  0  0  0  0  0  0  0  0  0
  -22.0365  -31.5989   19.9213 C   0  0  0  0  0  0  0  0  0  0  0  0
  -22.8216  -21.1551   22.4426 C   0  0  0  0  0  0  0  0  0  0  0  0
  -21.8936  -22.2526   22.9680 C   0  0  0  0  0  0  0  0  0  0  0  0
  -28.7054  -21.0348   23.1043 C   0  0  0  0  0  0  0  0  0  0  0  0
  -22.3997  -23.6610   22.6784 C   0  0  0  0  0  0  0  0  0  1  0  0
  -25.6892  -30.4165   23.0985 C   0  0  1  0  0  0  0  0  0  0  0  0
  -22.9279  -32.7471   21.9526 C   0  0  2  0  0  0  0  0  0  0  0  0
  -26.5253  -30.7389   24.3692 C   0  0  0  0  0  0  0  0  0  0  0  0
  -27.6819  -22.2025   23.1391 C   0  0  0  0  0  0  0  0  0  0  0  0
  -24.5959  -20.6129   24.1224 N   0  0  0  0  0  0  0  0  0  0  0  0
  -25.3410  -15.2119   19.8632 N   0  0  0  0  0  0  0  0  0  0  0  0
  -26.3355  -21.7030   23.2754 N   0  0  0  0  0  0  0  0  0  0  0  0
  -25.2275  -16.4211   20.4386 N   0  0  0  0  0  0  0  0  0  0  0  0
  -26.2974  -28.6879   21.4355 N   0  0  0  0  0  0  0  0  0  0  0  0
  -28.2078  -18.7989   20.1698 N   0  0  0  0  0  0  0  0  0  0  0  0
  -24.0768  -17.6036   22.1380 N   0  0  0  0  0  0  0  0  0  0  0  0
  -22.3757  -13.4308   22.4377 N   0  0  0  0  0  0  0  0  0  0  0  0
  -29.4772  -27.2640   20.6664 N   0  0  0  0  0  0  0  0  0  0  0  0
  -24.8926  -31.5358   22.6076 N   0  0  0  0  0  0  0  0  0  0  0  0
  -28.3113  -19.9500   22.2332 N   0  0  0  0  0  0  0  0  0  0  0  0
  -21.7435  -32.4629   21.0938 N   0  3  0  0  0  0  0  0  0  0  0  0
  -22.2771  -15.5489   23.3110 O   0  0  0  0  0  0  0  0  0  0  0  0
  -27.8454  -26.6898   22.2252 O   0  0  0  0  0  0  0  0  0  0  0  0
  -27.4098  -30.7361   21.4972 O   0  0  0  0  0  0  0  0  0  0  0  0
  -22.8395  -30.4669   22.7465 O   0  0  0  0  0  0  0  0  0  0  0  0
  -29.3447  -20.8096   20.3758 O   0  0  0  0  0  0  0  0  0  0  0  0
  -23.7822   -9.0659   19.2746 O   0  0  0  0  0  0  0  0  0  0  0  0
  -22.4986  -23.8306   21.2650 O   0  0  0  0  0  0  0  0  0  1  0  0
  -23.5639   -5.4679   23.4472 F   0  0  0  0  0  0  0  0  0  0  0  0
  -25.6263   -7.0164   19.4780 F   0  0  0  0  0  0  0  0  0  0  0  0
  1  2  1  0  0  0  0
  1  5  2  0  0  0  0
  2  6  2  0  0  0  0
  3  8  2  0  0  0  0
  3 17  1  0  0  0  0
  4  9  1  0  0  0  0
  4 17  2  0  0  0  0
  5 19  1  0  0  0  0
  6 21  1  0  0  0  0
  7 10  2  0  0  0  0
  7 20  1  0  0  0  0
  8 23  1  0  0  0  0
  9 23  2  0  0  0  0
 10 24  1  0  0  0  0
 11 12  2  0  0  0  0
 11 25  1  0  0  0  0
 12 26  1  0  0  0  0
 13 22  1  0  0  0  0
 13 24  2  0  0  0  0
 14 26  2  0  0  0  0
 14 27  1  0  0  0  0
 15 29  2  0  0  0  0
 15 65  1  0  0  0  0
 16 63  2  0  0  0  0
 16 65  1  0  0  0  0
 17 28  1  0  0  0  0
 18 28  1  0  0  0  0
 18 30  2  0  0  0  0
 18 31  1  0  0  0  0
 19 21  2  0  0  0  0
 19 36  1  0  0  0  0
 20 22  2  0  0  0  0
 20 37  1  0  0  0  0
 21 45  1  0  0  0  0
 22 38  1  0  0  0  0
 23 80  1  0  0  0  0
 24 81  1  0  0  0  0
 25 27  2  0  0  0  0
 25 80  1  0  0  0  0
 26 82  1  0  0  0  0
 27 83  1  0  0  0  0
 28 64  2  0  0  0  0
 29 55  1  0  0  0  0
 29 63  1  0  0  0  0
 30 66  1  0  0  0  0
 30 69  1  0  0  0  0
 31 70  1  0  0  0  0
 31 75  2  0  0  0  0
 32 46  1  0  0  0  0
 32 71  1  0  0  0  0
 32 76  2  0  0  0  0
 33 59  1  0  0  0  0
 33 67  1  0  0  0  0
 33 77  2  0  0  0  0
 34 60  1  0  0  0  0
 34 72  1  0  0  0  0
 34 78  2  0  0  0  0
 35 68  1  0  0  0  0
 35 73  1  0  0  0  0
 35 79  2  0  0  0  0
 36 39  1  0  0  0  0
 37 46  1  0  0  0  0
 38 67  1  0  0  0  0
 39 41  1  0  0  0  0
 40 42  1  0  0  0  0
 40 43  1  0  0  0  0
 41 45  1  0  0  0  0
 42 47  1  0  0  0  0
 43 68  1  0  0  0  0
 44 47  1  0  0  0  0
 44 68  1  0  0  0  0
 45 71  1  0  0  0  0
 46 67  1  0  0  0  0
 47 66  1  0  0  0  0
 48 60  1  0  0  0  0
 49 61  1  0  0  0  0
 50 61  1  0  0  0  0
 51 61  1  0  0  0  0
 52 62  1  0  0  0  0
 53 62  1  0  0  0  0
 54 74  1  0  0  0  0
 55 56  1  0  0  0  0
 56 58  1  0  0  0  0
 57 62  1  0  0  0  0
 57 73  1  0  0  0  0
 58 81  1  0  0  0  0
 59 61  1  0  0  0  0
 59 72  1  0  0  0  0
 60 74  1  0  0  0  0
 62 65  1  0  0  0  0
 64 66  1  0  0  0  0
M  CHG  1  74   1
M  ISO  4  35 100  58 101  73 100  81 101
M  END
> <Batch ID>
0055

> <Smiles>
CNC(C)C(=O)NC(C(=O)N1Cc2cc([101O:1][101CH2:1]CCc3cn(C(C)(C)C[100NH:0][100C:0](=O)N4CCCC(n5nc(-c6ccc(Oc7ccc(F)cc7F)cc6)c(C(N)=O)c5N)C4)cn3)ccc2CC1C(=O)NC1CCCc2ccccc21)C(C)(C)C

> <Shape>
0.222

> <Color>
0.054

> <Negative vol penalty>
0.000

$$$$

  -OEChem-04052317433D

 78 86  0     1  0  0  0  0  0999 V2000
  -21.7624  -11.9975   20.8616 C   0  0  0  0  0  0  0  0  0  0  0  0
  -21.6757  -13.3186   21.2887 C   0  0  0  0  0  0  0  0  0  0  0  0
  -25.0541  -27.1946   19.2709 C   0  0  0  0  0  0  0  0  0  0  0  0
  -25.2559  -25.0837   20.4288 C   0  0  0  0  0  0  0  0  0  0  0  0
  -23.0051  -11.4461   20.5525 C   0  0  0  0  0  0  0  0  0  0  0  0
  -22.8319  -14.0889   21.4080 C   0  0  0  0  0  0  0  0  0  0  0  0
  -22.2804  -18.7338   19.4674 C   0  0  0  0  0  0  0  0  0  0  0  0
  -26.4439  -27.3083   19.2359 C   0  0  0  0  0  0  0  0  0  0  0  0
  -26.6456  -25.1974   20.3938 C   0  0  0  0  0  0  0  0  0  0  0  0
  -21.5878  -19.6674   20.2371 C   0  0  0  0  0  0  0  0  0  0  0  0
  -28.9240  -28.1959   21.3538 C   0  0  0  0  0  0  0  0  0  0  0  0
  -29.4811  -29.4307   21.6863 C   0  0  0  0  0  0  0  0  0  0  0  0
  -23.6838  -20.6191   20.9581 C   0  0  0  0  0  0  0  0  0  0  0  0
  -30.4904  -29.5653   19.4954 C   0  0  0  0  0  0  0  0  0  0  0  0
  -18.4161  -23.2366   22.4251 C   0  0  0  0  0  0  0  0  0  0  0  0
  -20.2079  -23.1111   23.6934 C   0  0  0  0  0  0  0  0  0  0  0  0
  -24.4601  -26.0823   19.8674 C   0  0  0  0  0  0  0  0  0  0  0  0
  -22.1963  -25.3571   18.9415 C   0  0  0  0  0  0  0  0  0  0  0  0
  -24.1761  -12.2130   20.6587 C   0  0  0  0  0  0  0  0  0  0  0  0
  -23.6826  -18.7290   19.4458 C   0  0  0  0  0  0  0  0  0  0  0  0
  -24.0916  -13.5469   21.1012 C   0  0  0  0  0  0  0  0  0  0  0  0
  -24.3919  -19.6861   20.1853 C   0  0  0  0  0  0  0  0  0  0  0  0
  -19.6368  -22.5519   22.5765 C   0  0  0  0  0  0  0  0  0  0  0  0
  -27.2396  -26.3097   19.7973 C   0  0  0  0  0  0  0  0  0  0  0  0
  -22.2895  -20.6084   20.9849 C   0  0  0  0  0  0  0  0  0  0  0  0
  -29.1502  -27.6458   20.0921 C   0  0  0  0  0  0  0  0  0  0  0  0
  -30.2643  -30.1154   20.7572 C   0  0  0  0  0  0  0  0  0  0  0  0
  -29.9334  -28.3305   19.1629 C   0  0  0  0  0  0  0  0  0  0  0  0
  -23.0245  -25.9646   19.9043 C   0  0  0  0  0  0  0  0  0  0  0  0
  -20.9248  -25.5073   19.4386 C   0  0  0  0  0  0  0  0  0  0  0  0
  -22.5453  -24.7145   17.7083 C   0  0  0  0  0  0  0  0  0  0  0  0
  -25.9317  -16.6452   20.2840 C   0  0  0  0  0  0  0  0  0  0  0  0
  -18.8673  -26.2682   25.0332 C   0  0  0  0  0  0  0  0  0  0  0  0
  -27.9139  -18.8426   18.9557 C   0  0  0  0  0  0  0  0  0  0  0  0
  -28.9907  -22.2237   18.3026 C   0  0  0  0  0  0  0  0  0  0  0  0
  -25.5017  -11.5592   20.3587 C   0  0  0  0  0  0  0  0  0  0  0  0
  -24.4145  -17.7324   18.5893 C   0  0  0  0  0  0  0  0  0  0  0  0
  -25.8972  -19.7362   20.1803 C   0  0  0  0  0  0  0  0  0  0  0  0
  -26.6395  -12.5557   20.1524 C   0  0  0  0  0  0  0  0  0  0  0  0
  -18.2897  -28.3816   22.1977 C   0  0  0  0  0  0  0  0  0  0  0  0
  -26.6252  -13.6167   21.2482 C   0  0  0  0  0  0  0  0  0  0  0  0
  -19.3808  -27.9659   21.2119 C   0  0  0  0  0  0  0  0  0  0  0  0
  -18.7826  -28.3090   23.6395 C   0  0  0  0  0  0  0  0  0  0  0  0
  -20.4245  -26.5570   23.0425 C   0  0  0  0  0  0  0  0  0  0  0  0
  -25.3206  -14.4221   21.2194 C   0  0  1  0  0  0  0  0  0  0  0  0
  -25.8502  -17.4927   19.0459 C   0  0  1  0  0  0  0  0  0  0  0  0
  -19.9585  -26.5867   21.5761 C   0  0  2  0  0  0  0  0  0  0  0  0
  -18.9213  -24.3012   26.5509 C   0  0  0  0  0  0  0  0  0  0  0  0
  -30.8789  -23.0916   16.8960 C   0  0  0  0  0  0  0  0  0  0  0  0
  -29.4886  -18.8179   21.5691 C   0  0  0  0  0  0  0  0  0  0  0  0
  -30.5771  -20.9556   20.8525 C   0  0  0  0  0  0  0  0  0  0  0  0
  -30.8967  -18.8819   19.5033 C   0  0  0  0  0  0  0  0  0  0  0  0
  -27.1754  -23.9461   16.7225 C   0  0  0  0  0  0  0  0  0  0  0  0
  -20.1905  -21.4555   21.7147 C   0  0  0  0  0  0  0  0  0  1  0  0
  -19.4917  -24.9172   25.2758 C   0  0  1  0  0  0  0  0  0  0  0  0
  -28.6577  -20.0553   19.4610 C   0  0  1  0  0  0  0  0  0  0  0  0
  -29.3861  -22.8078   16.9584 C   0  0  2  0  0  0  0  0  0  0  0  0
  -29.8767  -19.6758   20.3483 C   0  0  0  0  0  0  0  0  0  0  0  0
  -18.2222  -24.1601   23.3704 N   0  0  0  0  0  0  0  0  0  0  0  0
  -22.3369  -26.4636   20.9349 N   0  0  0  0  0  0  0  0  0  0  0  0
  -19.3287  -24.0596   24.1265 N   0  0  0  0  0  0  0  0  0  0  0  0
  -21.0632  -26.1701   20.6225 N   0  0  0  0  0  0  0  0  0  0  0  0
  -26.5675  -18.7368   19.3321 N   0  0  0  0  0  0  0  0  0  0  0  0
  -19.3442  -26.9907   23.9393 N   0  0  0  0  0  0  0  0  0  0  0  0
  -19.7129  -25.1358   18.9740 N   0  0  0  0  0  0  0  0  0  0  0  0
  -23.8984  -24.6477   17.3492 N   0  0  0  0  0  0  0  0  0  0  0  0
  -25.3524  -15.3977   20.1510 N   0  0  0  0  0  0  0  0  0  0  0  0
  -28.9990  -20.8450   18.2827 N   0  0  0  0  0  0  0  0  0  0  0  0
  -28.6546  -24.0827   16.7123 N   0  3  0  0  0  0  0  0  0  0  0  0
  -21.6813  -24.2288   16.9393 O   0  0  0  0  0  0  0  0  0  0  0  0
  -26.4809  -17.0895   21.2853 O   0  0  0  0  0  0  0  0  0  0  0  0
  -17.9801  -26.6665   25.7925 O   0  0  0  0  0  0  0  0  0  0  0  0
  -28.5039  -18.0232   18.2471 O   0  0  0  0  0  0  0  0  0  0  0  0
  -28.7066  -22.9207   19.2742 O   0  0  0  0  0  0  0  0  0  0  0  0
  -28.5958  -26.4201   19.7632 O   0  0  0  0  0  0  0  0  0  0  0  0
  -21.6159  -21.5203   21.7376 O   0  0  0  0  0  0  0  0  0  1  0  0
  -30.7979  -31.3019   21.0761 F   0  0  0  0  0  0  0  0  0  0  0  0
  -30.1532  -27.8076   17.9488 F   0  0  0  0  0  0  0  0  0  0  0  0
  1  2  1  0  0  0  0
  1  5  2  0  0  0  0
  2  6  2  0  0  0  0
  3  8  2  0  0  0  0
  3 17  1  0  0  0  0
  4  9  1  0  0  0  0
  4 17  2  0  0  0  0
  5 19  1  0  0  0  0
  6 21  1  0  0  0  0
  7 10  2  0  0  0  0
  7 20  1  0  0  0  0
  8 24  1  0  0  0  0
  9 24  2  0  0  0  0
 10 25  1  0  0  0  0
 11 12  2  0  0  0  0
 11 26  1  0  0  0  0
 12 27  1  0  0  0  0
 13 22  1  0  0  0  0
 13 25  2  0  0  0  0
 14 27  2  0  0  0  0
 14 28  1  0  0  0  0
 15 23  1  0  0  0  0
 15 59  2  0  0  0  0
 16 23  2  0  0  0  0
 16 61  1  0  0  0  0
 17 29  1  0  0  0  0
 18 29  1  0  0  0  0
 18 30  2  0  0  0  0
 18 31  1  0  0  0  0
 19 21  2  0  0  0  0
 19 36  1  0  0  0  0
 20 22  2  0  0  0  0
 20 37  1  0  0  0  0
 21 45  1  0  0  0  0
 22 38  1  0  0  0  0
 23 54  1  0  0  0  0
 24 75  1  0  0  0  0
 25 76  1  0  0  0  0
 26 28  2  0  0  0  0
 26 75  1  0  0  0  0
 27 77  1  0  0  0  0
 28 78  1  0  0  0  0
 29 60  2  0  0  0  0
 30 62  1  0  0  0  0
 30 65  1  0  0  0  0
 31 66  1  0  0  0  0
 31 70  2  0  0  0  0
 32 46  1  0  0  0  0
 32 67  1  0  0  0  0
 32 71  2  0  0  0  0
 33 55  1  0  0  0  0
 33 64  1  0  0  0  0
 33 72  2  0  0  0  0
 34 56  1  0  0  0  0
 34 63  1  0  0  0  0
 34 73  2  0  0  0  0
 35 57  1  0  0  0  0
 35 68  1  0  0  0  0
 35 74  2  0  0  0  0
 36 39  1  0  0  0  0
 37 46  1  0  0  0  0
 38 63  1  0  0  0  0
 39 41  1  0  0  0  0
 40 42  1  0  0  0  0
 40 43  1  0  0  0  0
 41 45  1  0  0  0  0
 42 47  1  0  0  0  0
 43 64  1  0  0  0  0
 44 47  1  0  0  0  0
 44 64  1  0  0  0  0
 45 67  1  0  0  0  0
 46 63  1  0  0  0  0
 47 62  1  0  0  0  0
 48 55  1  0  0  0  0
 49 57  1  0  0  0  0
 50 58  1  0  0  0  0
 51 58  1  0  0  0  0
 52 58  1  0  0  0  0
 53 69  1  0  0  0  0
 54 76  1  0  0  0  0
 55 61  1  0  0  0  0
 56 58  1  0  0  0  0
 56 68  1  0  0  0  0
 57 69  1  0  0  0  0
 59 61  1  0  0  0  0
 60 62  1  0  0  0  0
M  CHG  1  69   1
M  ISO  4  33 100  54 101  55 100  76 101
M  END
> <Batch ID>
0055

> <Smiles>
CNC(C)C(=O)NC(C(=O)N1Cc2cc([101O:1][101CH2:1]c3cnn([100CH:0](C)[100C:0](=O)N4CCCC(n5nc(-c6ccc(Oc7ccc(F)cc7F)cc6)c(C(N)=O)c5N)C4)c3)ccc2CC1C(=O)NC1CCCc2ccccc21)C(C)(C)C

> <Shape>
0.193

> <Color>
0.087

> <Negative vol penalty>
0.000

$$$$

  -OEChem-04052317432D

  0  0  0     0  0  0  0  0  0999 V2000
M  END
$$$$

  -OEChem-04052317433D

 83 91  0     1  0  0  0  0  0999 V2000
  -34.4296   -9.3686   20.3906 C   0  0  0  0  0  0  0  0  0  0  0  0
  -34.1898  -10.7222   20.6044 C   0  0  0  0  0  0  0  0  0  0  0  0
  -25.0138  -29.4860   21.9233 C   0  0  0  0  0  0  0  0  0  0  0  0
  -24.2540  -27.3536   21.0793 C   0  0  0  0  0  0  0  0  0  0  0  0
  -33.5353   -8.6147   19.6320 C   0  0  0  0  0  0  0  0  0  0  0  0
  -33.0559  -11.3229   20.0587 C   0  0  0  0  0  0  0  0  0  0  0  0
  -29.7192  -15.8210   22.5364 C   0  0  0  0  0  0  0  0  0  0  0  0
  -23.7010  -29.9570   21.9154 C   0  0  0  0  0  0  0  0  0  0  0  0
  -22.9411  -27.8245   21.0714 C   0  0  0  0  0  0  0  0  0  0  0  0
  -29.7037  -17.1999   22.3308 C   0  0  0  0  0  0  0  0  0  0  0  0
  -19.3443  -28.3458   21.1702 C   0  0  0  0  0  0  0  0  0  0  0  0
  -18.3512  -27.5086   21.6784 C   0  0  0  0  0  0  0  0  0  0  0  0
  -27.8732  -16.9423   20.7809 C   0  0  0  0  0  0  0  0  0  0  0  0
  -19.4662  -27.4869   23.8216 C   0  0  0  0  0  0  0  0  0  0  0  0
  -25.2904  -28.1843   21.5052 C   0  0  0  0  0  0  0  0  0  0  0  0
  -27.3091  -27.0432   22.5684 C   0  0  0  0  0  0  0  0  0  0  0  0
  -32.3848   -9.2043   19.0847 C   0  0  0  0  0  0  0  0  0  0  0  0
  -28.8174  -14.9899   21.8563 C   0  0  0  0  0  0  0  0  0  0  0  0
  -32.1460  -10.5765   19.2909 C   0  0  0  0  0  0  0  0  0  0  0  0
  -27.8776  -15.5535   20.9816 C   0  0  0  0  0  0  0  0  0  0  0  0
  -22.6646  -29.1263   21.4895 C   0  0  0  0  0  0  0  0  0  0  0  0
  -28.7826  -17.7604   21.4508 C   0  0  0  0  0  0  0  0  0  0  0  0
  -20.3985  -28.7536   21.9877 C   0  0  0  0  0  0  0  0  0  0  0  0
  -18.4121  -27.0792   23.0041 C   0  0  0  0  0  0  0  0  0  0  0  0
  -20.4594  -28.3241   23.3134 C   0  0  0  0  0  0  0  0  0  0  0  0
  -26.6465  -27.6974   21.5126 C   0  0  0  0  0  0  0  0  0  0  0  0
  -28.1107  -22.1763   19.7810 C   0  0  0  0  0  0  0  0  0  0  0  0
  -28.8300  -22.0017   20.9398 C   0  0  0  0  0  0  0  0  0  0  0  0
  -28.5667  -26.7879   22.0788 C   0  0  0  0  0  0  0  0  0  0  0  0
  -29.9689  -23.1607   19.4511 C   0  0  0  0  0  0  0  0  0  0  0  0
  -26.8305  -26.6971   23.8748 C   0  0  0  0  0  0  0  0  0  0  0  0
  -29.0976  -12.6091   19.7690 C   0  0  0  0  0  0  0  0  0  0  0  0
  -25.8883  -12.3856   20.1843 C   0  0  0  0  0  0  0  0  0  0  0  0
  -22.9687  -13.9127   21.0735 C   0  0  0  0  0  0  0  0  0  0  0  0
  -30.8257  -25.3484   16.7959 C   0  0  0  0  0  0  0  0  0  0  0  0
  -31.4716   -8.3595   18.2321 C   0  0  0  0  0  0  0  0  0  0  0  0
  -28.8292  -13.5072   22.1093 C   0  0  0  0  0  0  0  0  0  0  0  0
  -26.8748  -14.7070   20.2424 C   0  0  0  0  0  0  0  0  0  0  0  0
  -30.0993   -8.9872   18.0024 C   0  0  0  0  0  0  0  0  0  0  0  0
  -31.3447  -28.6257   18.4365 C   0  0  0  0  0  0  0  0  0  0  0  0
  -30.2420  -10.4559   17.6158 C   0  0  0  0  0  0  0  0  0  0  0  0
  -30.1975  -28.6792   19.4440 C   0  0  0  0  0  0  0  0  0  0  0  0
  -30.9925  -27.7740   17.2207 C   0  0  0  0  0  0  0  0  0  0  0  0
  -29.3968  -26.4496   18.5676 C   0  0  0  0  0  0  0  0  0  0  0  0
  -30.9142  -11.2585   18.7362 C   0  0  1  0  0  0  0  0  0  0  0  0
  -28.2047  -12.7023   20.9738 C   0  0  1  0  0  0  0  0  0  0  0  0
  -29.7364  -27.2620   19.8262 C   0  0  2  0  0  0  0  0  0  0  0  0
  -25.6937  -22.8022   19.5514 C   0  0  0  0  0  0  0  0  0  0  0  0
  -20.5041  -13.4855   21.2755 C   0  0  0  0  0  0  0  0  0  0  0  0
  -25.6083  -12.5816   17.1523 C   0  0  0  0  0  0  0  0  0  0  0  0
  -23.1817  -13.1038   17.4799 C   0  0  0  0  0  0  0  0  0  0  0  0
  -24.0961  -10.9087   18.2336 C   0  0  0  0  0  0  0  0  0  0  0  0
  -31.1222  -22.7398   21.6404 C   0  0  0  0  0  0  0  0  0  0  0  0
  -31.3035  -22.9358   16.6213 C   0  0  0  0  0  0  0  0  0  0  0  0
  -22.9944  -14.4604   23.9819 C   0  0  0  0  0  0  0  0  0  0  0  0
  -26.7555  -21.6982   19.4645 C   0  0  0  0  0  0  0  0  0  0  0  0
  -28.5009  -21.2952   22.2324 C   0  0  0  0  0  0  0  0  0  0  0  0
  -31.0923  -23.9254   18.8712 C   0  0  0  0  0  0  0  0  0  0  0  0
  -29.1766  -19.9322   22.3364 C   0  0  0  0  0  0  0  0  0  1  0  0
  -24.6792  -13.0031   19.5240 C   0  0  1  0  0  0  0  0  0  0  0  0
  -21.8439  -13.4767   21.9951 C   0  0  2  0  0  0  0  0  0  0  0  0
  -24.4114  -12.4153   18.1097 C   0  0  0  0  0  0  0  0  0  0  0  0
  -27.4193  -27.8485   20.4337 N   0  0  0  0  0  0  0  0  0  0  0  0
  -28.8254  -22.8983   18.8582 N   0  0  0  0  0  0  0  0  0  0  0  0
  -30.0182  -22.6374   20.7132 N   0  0  0  0  0  0  0  0  0  0  0  0
  -28.5805  -27.2857   20.8090 N   0  0  0  0  0  0  0  0  0  0  0  0
  -26.9304  -13.2620   20.5186 N   0  0  0  0  0  0  0  0  0  0  0  0
  -30.5165  -26.4474   17.6141 N   0  0  0  0  0  0  0  0  0  0  0  0
  -29.6510  -26.1885   22.6148 N   0  0  0  0  0  0  0  0  0  0  0  0
  -25.5129  -27.0330   24.2144 N   0  0  0  0  0  0  0  0  0  0  0  0
  -29.9687  -11.5368   19.7959 N   0  0  0  0  0  0  0  0  0  0  0  0
  -23.5728  -12.8357   20.4601 N   0  0  0  0  0  0  0  0  0  0  0  0
  -30.9716  -24.1031   17.4257 N   0  0  0  0  0  0  0  0  0  0  0  0
  -21.7527  -14.3899   23.1692 N   0  3  0  0  0  0  0  0  0  0  0  0
  -27.5553  -26.1220   24.7220 O   0  0  0  0  0  0  0  0  0  0  0  0
  -29.0022  -13.4471   18.8800 O   0  0  0  0  0  0  0  0  0  0  0  0
  -25.9043  -11.1715   20.4020 O   0  0  0  0  0  0  0  0  0  0  0  0
  -23.2778  -15.0911   20.9111 O   0  0  0  0  0  0  0  0  0  0  0  0
  -30.9729  -25.4749   15.5735 O   0  0  0  0  0  0  0  0  0  0  0  0
  -21.3833  -29.5854   21.4819 O   0  0  0  0  0  0  0  0  0  0  0  0
  -28.7659  -19.1059   21.2478 O   0  0  0  0  0  0  0  0  0  1  0  0
  -17.4574  -26.2764   23.4925 F   0  0  0  0  0  0  0  0  0  0  0  0
  -21.4690  -28.7135   24.1039 F   0  0  0  0  0  0  0  0  0  0  0  0
  1  2  1  0  0  0  0
  1  5  2  0  0  0  0
  2  6  2  0  0  0  0
  3  8  2  0  0  0  0
  3 15  1  0  0  0  0
  4  9  1  0  0  0  0
  4 15  2  0  0  0  0
  5 17  1  0  0  0  0
  6 19  1  0  0  0  0
  7 10  2  0  0  0  0
  7 18  1  0  0  0  0
  8 21  1  0  0  0  0
  9 21  2  0  0  0  0
 10 22  1  0  0  0  0
 11 12  2  0  0  0  0
 11 23  1  0  0  0  0
 12 24  1  0  0  0  0
 13 20  1  0  0  0  0
 13 22  2  0  0  0  0
 14 24  2  0  0  0  0
 14 25  1  0  0  0  0
 15 26  1  0  0  0  0
 16 26  1  0  0  0  0
 16 29  2  0  0  0  0
 16 31  1  0  0  0  0
 17 19  2  0  0  0  0
 17 36  1  0  0  0  0
 18 20  2  0  0  0  0
 18 37  1  0  0  0  0
 19 45  1  0  0  0  0
 20 38  1  0  0  0  0
 21 80  1  0  0  0  0
 22 81  1  0  0  0  0
 23 25  2  0  0  0  0
 23 80  1  0  0  0  0
 24 82  1  0  0  0  0
 25 83  1  0  0  0  0
 26 63  2  0  0  0  0
 27 28  2  0  0  0  0
 27 56  1  0  0  0  0
 27 64  1  0  0  0  0
 28 57  1  0  0  0  0
 28 65  1  0  0  0  0
 29 66  1  0  0  0  0
 29 69  1  0  0  0  0
 30 58  1  0  0  0  0
 30 64  2  0  0  0  0
 30 65  1  0  0  0  0
 31 70  1  0  0  0  0
 31 75  2  0  0  0  0
 32 46  1  0  0  0  0
 32 71  1  0  0  0  0
 32 76  2  0  0  0  0
 33 60  1  0  0  0  0
 33 67  1  0  0  0  0
 33 77  2  0  0  0  0
 34 61  1  0  0  0  0
 34 72  1  0  0  0  0
 34 78  2  0  0  0  0
 35 68  1  0  0  0  0
 35 73  1  0  0  0  0
 35 79  2  0  0  0  0
 36 39  1  0  0  0  0
 37 46  1  0  0  0  0
 38 67  1  0  0  0  0
 39 41  1  0  0  0  0
 40 42  1  0  0  0  0
 40 43  1  0  0  0  0
 41 45  1  0  0  0  0
 42 47  1  0  0  0  0
 43 68  1  0  0  0  0
 44 47  1  0  0  0  0
 44 68  1  0  0  0  0
 45 71  1  0  0  0  0
 46 67  1  0  0  0  0
 47 66  1  0  0  0  0
 48 56  1  0  0  0  0
 49 61  1  0  0  0  0
 50 62  1  0  0  0  0
 51 62  1  0  0  0  0
 52 62  1  0  0  0  0
 53 65  1  0  0  0  0
 54 73  1  0  0  0  0
 55 74  1  0  0  0  0
 57 59  1  0  0  0  0
 58 73  1  0  0  0  0
 59 81  1  0  0  0  0
 60 62  1  0  0  0  0
 60 72  1  0  0  0  0
 61 74  1  0  0  0  0
 63 66  1  0  0  0  0
M  CHG  1  74   1
M  ISO  4  35 100  59 101  73 100  81 101
M  END
> <Batch ID>
0055

> <Smiles>
CCc1nc(C[100N:0](C)[100C:0](=O)N2CCCC(n3nc(-c4ccc(Oc5ccc(F)cc5F)cc4)c(C(N)=O)c3N)C2)n(C)c1C[101CH2:1][101O:1]c1ccc2c(c1)CN(C(=O)C(NC(=O)C(C)NC)C(C)(C)C)C(C(=O)NC1CCCc3ccccc31)C2

> <Shape>
0.281

> <Color>
0.060

> <Negative vol penalty>
0.000

$$$$

  -OEChem-04052317433D

 82 90  0     1  0  0  0  0  0999 V2000
  -17.0471  -28.2595   24.4839 C   0  0  0  0  0  0  0  0  0  0  0  0
  -17.7896  -27.3486   23.7393 C   0  0  0  0  0  0  0  0  0  0  0  0
  -26.6456  -12.6791   20.4979 C   0  0  0  0  0  0  0  0  0  0  0  0
  -25.1299  -14.5357   20.1932 C   0  0  0  0  0  0  0  0  0  0  0  0
  -17.2727  -29.6274   24.3358 C   0  0  0  0  0  0  0  0  0  0  0  0
  -18.7574  -27.8052   22.8452 C   0  0  0  0  0  0  0  0  0  0  0  0
  -23.0834  -25.1918   23.1633 C   0  0  0  0  0  0  0  0  0  0  0  0
  -25.6046  -11.7870   20.2406 C   0  0  0  0  0  0  0  0  0  0  0  0
  -24.0889  -13.6436   19.9359 C   0  0  0  0  0  0  0  0  0  0  0  0
  -23.1177  -23.9402   22.5501 C   0  0  0  0  0  0  0  0  0  0  0  0
  -23.2640   -9.0130   20.0176 C   0  0  0  0  0  0  0  0  0  0  0  0
  -23.1329   -7.9073   20.8577 C   0  0  0  0  0  0  0  0  0  0  0  0
  -24.2698  -24.9035   20.6622 C   0  0  0  0  0  0  0  0  0  0  0  0
  -22.8354   -9.3800   22.7497 C   0  0  0  0  0  0  0  0  0  0  0  0
  -26.4082  -14.0535   20.4743 C   0  0  0  0  0  0  0  0  0  0  0  0
  -28.3671  -15.5438   19.8041 C   0  0  0  0  0  0  0  0  0  0  0  0
  -18.2504  -30.1007   23.4466 C   0  0  0  0  0  0  0  0  0  0  0  0
  -23.6332  -26.3127   22.5247 C   0  0  0  0  0  0  0  0  0  0  0  0
  -18.9953  -29.1808   22.6841 C   0  0  0  0  0  0  0  0  0  0  0  0
  -24.2434  -26.1678   21.2706 C   0  0  0  0  0  0  0  0  0  0  0  0
  -24.3263  -12.2693   19.9595 C   0  0  0  0  0  0  0  0  0  0  0  0
  -23.7084  -23.7965   21.2981 C   0  0  0  0  0  0  0  0  0  0  0  0
  -23.1808  -10.3023   20.5436 C   0  0  0  0  0  0  0  0  0  0  0  0
  -22.9186   -8.0907   22.2237 C   0  0  0  0  0  0  0  0  0  0  0  0
  -22.9665  -10.4857   21.9096 C   0  0  0  0  0  0  0  0  0  0  0  0
  -27.4829  -14.9755   20.7406 C   0  0  0  0  0  0  0  0  0  0  0  0
  -24.8854  -19.6916   22.2403 C   0  0  0  0  0  0  0  0  0  0  0  0
  -25.5793  -20.3924   21.2823 C   0  0  0  0  0  0  0  0  0  0  0  0
  -29.1944  -16.3434   20.5542 C   0  0  0  0  0  0  0  0  0  0  0  0
  -26.7831  -20.1136   23.1071 C   0  0  0  0  0  0  0  0  0  0  0  0
  -28.4345  -15.3651   18.3831 C   0  0  0  0  0  0  0  0  0  0  0  0
  -22.4835  -29.0818   21.4693 C   0  0  0  0  0  0  0  0  0  0  0  0
  -25.6132  -29.7198   20.9034 C   0  0  0  0  0  0  0  0  0  0  0  0
  -28.7542  -28.5214   20.3162 C   0  0  0  0  0  0  0  0  0  0  0  0
  -28.1578  -18.7673   26.0849 C   0  0  0  0  0  0  0  0  0  0  0  0
  -18.4256  -31.5900   23.2858 C   0  0  0  0  0  0  0  0  0  0  0  0
  -23.6119  -27.6507   23.2114 C   0  0  0  0  0  0  0  0  0  0  0  0
  -24.8660  -27.3358   20.5519 C   0  0  0  0  0  0  0  0  0  0  0  0
  -19.7289  -31.9787   22.5926 C   0  0  0  0  0  0  0  0  0  0  0  0
  -31.0505  -16.7630   24.9375 C   0  0  0  0  0  0  0  0  0  0  0  0
  -19.9505  -31.1195   21.3519 C   0  0  0  0  0  0  0  0  0  0  0  0
  -30.5035  -16.0731   23.6890 C   0  0  0  0  0  0  0  0  0  0  0  0
  -29.9466  -17.0727   25.9441 C   0  0  0  0  0  0  0  0  0  0  0  0
  -28.2708  -17.1695   24.1286 C   0  0  0  0  0  0  0  0  0  0  0  0
  -20.0712  -29.6363   21.7222 C   0  0  1  0  0  0  0  0  0  0  0  0
  -23.7452  -28.8217   22.2426 C   0  0  1  0  0  0  0  0  0  0  0  0
  -29.3508  -16.8855   23.0739 C   0  0  2  0  0  0  0  0  0  0  0  0
  -23.5184  -19.1517   22.1683 C   0  0  0  0  0  0  0  0  0  0  0  0
  -31.0997  -29.2852   19.8551 C   0  0  0  0  0  0  0  0  0  0  0  0
  -24.8284  -30.3881   18.0315 C   0  0  0  0  0  0  0  0  0  0  0  0
  -27.2455  -30.2108   17.4035 C   0  0  0  0  0  0  0  0  0  0  0  0
  -26.5082  -31.9410   19.0422 C   0  0  0  0  0  0  0  0  0  0  0  0
  -27.8868  -21.3741   21.2380 C   0  0  0  0  0  0  0  0  0  0  0  0
  -26.9055  -20.8904   26.1437 C   0  0  0  0  0  0  0  0  0  0  0  0
  -29.7829  -27.2226   22.7685 C   0  0  0  0  0  0  0  0  0  0  0  0
  -25.2049  -20.8327   19.8879 C   0  0  0  0  0  0  0  0  0  0  0  0
  -27.9458  -20.2059   24.0142 C   0  0  0  0  0  0  0  0  0  0  0  0
  -24.8411  -22.3121   19.8251 C   0  0  0  0  0  0  0  0  0  1  0  0
  -26.5535  -29.5116   19.7409 C   0  0  1  0  0  0  0  0  0  0  0  0
  -30.0984  -28.8779   20.9249 C   0  0  2  0  0  0  0  0  0  0  0  0
  -26.2706  -30.4910   18.5670 C   0  0  0  0  0  0  0  0  0  0  0  0
  -27.7259  -15.3796   21.9903 N   0  0  0  0  0  0  0  0  0  0  0  0
  -25.6401  -19.5217   23.3740 N   0  0  0  0  0  0  0  0  0  0  0  0
  -26.7930  -20.6562   21.8521 N   0  0  0  0  0  0  0  0  0  0  0  0
  -28.7721  -16.2103   21.8442 N   0  0  0  0  0  0  0  0  0  0  0  0
  -24.8144  -28.6247   21.2616 N   0  0  0  0  0  0  0  0  0  0  0  0
  -28.8442  -17.8076   25.3230 N   0  0  0  0  0  0  0  0  0  0  0  0
  -30.2346  -17.1403   20.2296 N   0  0  0  0  0  0  0  0  0  0  0  0
  -27.5085  -14.5080   17.7728 N   0  0  0  0  0  0  0  0  0  0  0  0
  -21.3846  -29.3552   22.2612 N   0  0  0  0  0  0  0  0  0  0  0  0
  -27.9035  -29.6062   20.2858 N   0  0  0  0  0  0  0  0  0  0  0  0
  -27.6162  -19.8630   25.3959 N   0  0  0  0  0  0  0  0  0  0  0  0
  -30.6546  -27.7135   21.6703 N   0  3  0  0  0  0  0  0  0  0  0  0
  -29.3008  -15.9353   17.6776 O   0  0  0  0  0  0  0  0  0  0  0  0
  -22.5057  -29.0391   20.2448 O   0  0  0  0  0  0  0  0  0  0  0  0
  -25.5935  -30.8116   21.4771 O   0  0  0  0  0  0  0  0  0  0  0  0
  -28.4869  -27.3944   19.9052 O   0  0  0  0  0  0  0  0  0  0  0  0
  -28.0442  -18.6562   27.3124 O   0  0  0  0  0  0  0  0  0  0  0  0
  -23.3104  -11.3991   19.7082 O   0  0  0  0  0  0  0  0  0  0  0  0
  -23.7427  -22.5761   20.6970 O   0  0  0  0  0  0  0  0  0  1  0  0
  -22.7912   -7.0288   23.0300 F   0  0  0  0  0  0  0  0  0  0  0  0
  -22.8845  -11.7219   22.4206 F   0  0  0  0  0  0  0  0  0  0  0  0
  1  2  1  0  0  0  0
  1  5  2  0  0  0  0
  2  6  2  0  0  0  0
  3  8  2  0  0  0  0
  3 15  1  0  0  0  0
  4  9  1  0  0  0  0
  4 15  2  0  0  0  0
  5 17  1  0  0  0  0
  6 19  1  0  0  0  0
  7 10  2  0  0  0  0
  7 18  1  0  0  0  0
  8 21  1  0  0  0  0
  9 21  2  0  0  0  0
 10 22  1  0  0  0  0
 11 12  2  0  0  0  0
 11 23  1  0  0  0  0
 12 24  1  0  0  0  0
 13 20  1  0  0  0  0
 13 22  2  0  0  0  0
 14 24  2  0  0  0  0
 14 25  1  0  0  0  0
 15 26  1  0  0  0  0
 16 26  1  0  0  0  0
 16 29  2  0  0  0  0
 16 31  1  0  0  0  0
 17 19  2  0  0  0  0
 17 36  1  0  0  0  0
 18 20  2  0  0  0  0
 18 37  1  0  0  0  0
 19 45  1  0  0  0  0
 20 38  1  0  0  0  0
 21 79  1  0  0  0  0
 22 80  1  0  0  0  0
 23 25  2  0  0  0  0
 23 79  1  0  0  0  0
 24 81  1  0  0  0  0
 25 82  1  0  0  0  0
 26 62  2  0  0  0  0
 27 28  2  0  0  0  0
 27 48  1  0  0  0  0
 27 63  1  0  0  0  0
 28 56  1  0  0  0  0
 28 64  1  0  0  0  0
 29 65  1  0  0  0  0
 29 68  1  0  0  0  0
 30 57  1  0  0  0  0
 30 63  2  0  0  0  0
 30 64  1  0  0  0  0
 31 69  1  0  0  0  0
 31 74  2  0  0  0  0
 32 46  1  0  0  0  0
 32 70  1  0  0  0  0
 32 75  2  0  0  0  0
 33 59  1  0  0  0  0
 33 66  1  0  0  0  0
 33 76  2  0  0  0  0
 34 60  1  0  0  0  0
 34 71  1  0  0  0  0
 34 77  2  0  0  0  0
 35 67  1  0  0  0  0
 35 72  1  0  0  0  0
 35 78  2  0  0  0  0
 36 39  1  0  0  0  0
 37 46  1  0  0  0  0
 38 66  1  0  0  0  0
 39 41  1  0  0  0  0
 40 42  1  0  0  0  0
 40 43  1  0  0  0  0
 41 45  1  0  0  0  0
 42 47  1  0  0  0  0
 43 67  1  0  0  0  0
 44 47  1  0  0  0  0
 44 67  1  0  0  0  0
 45 70  1  0  0  0  0
 46 66  1  0  0  0  0
 47 65  1  0  0  0  0
 49 60  1  0  0  0  0
 50 61  1  0  0  0  0
 51 61  1  0  0  0  0
 52 61  1  0  0  0  0
 53 64  1  0  0  0  0
 54 72  1  0  0  0  0
 55 73  1  0  0  0  0
 56 58  1  0  0  0  0
 57 72  1  0  0  0  0
 58 80  1  0  0  0  0
 59 61  1  0  0  0  0
 59 71  1  0  0  0  0
 60 73  1  0  0  0  0
 62 65  1  0  0  0  0
M  CHG  1  73   1
M  ISO  4  35 100  58 101  72 100  80 101
M  END
> <Batch ID>
0055

> <Smiles>
CNC(C)C(=O)NC(C(=O)N1Cc2cc([101O:1][101CH2:1]Cc3c(C)nc(C[100N:0](C)[100C:0](=O)N4CCCC(n5nc(-c6ccc(Oc7ccc(F)cc7F)cc6)c(C(N)=O)c5N)C4)n3C)ccc2CC1C(=O)NC1CCCc2ccccc21)C(C)(C)C

> <Shape>
0.215

> <Color>
0.089

> <Negative vol penalty>
0.000

$$$$

  -OEChem-04052317433D

 84 92  0     1  0  0  0  0  0999 V2000
  -17.2390  -30.6822   24.0438 C   0  0  0  0  0  0  0  0  0  0  0  0
  -18.6094  -30.9149   24.1000 C   0  0  0  0  0  0  0  0  0  0  0  0
  -24.5225  -13.6277   19.8310 C   0  0  0  0  0  0  0  0  0  0  0  0
  -25.9855  -12.9878   21.6441 C   0  0  0  0  0  0  0  0  0  0  0  0
  -16.7571  -29.4876   23.5103 C   0  0  0  0  0  0  0  0  0  0  0  0
  -19.4989  -29.9525   23.6236 C   0  0  0  0  0  0  0  0  0  0  0  0
  -25.8749  -29.3449   20.4150 C   0  0  0  0  0  0  0  0  0  0  0  0
  -24.4588  -12.2984   19.4133 C   0  0  0  0  0  0  0  0  0  0  0  0
  -25.9217  -11.6585   21.2265 C   0  0  0  0  0  0  0  0  0  0  0  0
  -27.0982  -28.6931   20.5648 C   0  0  0  0  0  0  0  0  0  0  0  0
  -23.7568   -9.0747   21.4675 C   0  0  0  0  0  0  0  0  0  0  0  0
  -23.5611   -8.0987   22.4445 C   0  0  0  0  0  0  0  0  0  0  0  0
  -26.1488  -26.7003   19.5919 C   0  0  0  0  0  0  0  0  0  0  0  0
  -25.6578   -7.0659   21.8327 C   0  0  0  0  0  0  0  0  0  0  0  0
  -32.3341  -23.8830   20.6108 C   0  0  0  0  0  0  0  0  0  0  0  0
  -25.2859  -13.9724   20.9464 C   0  0  0  0  0  0  0  0  0  0  0  0
  -24.5004  -15.9911   22.2937 C   0  0  0  0  0  0  0  0  0  0  0  0
  -17.6409  -28.5142   23.0183 C   0  0  0  0  0  0  0  0  0  0  0  0
  -24.7744  -28.6746   19.8617 C   0  0  0  0  0  0  0  0  0  0  0  0
  -19.0285  -28.7431   23.0842 C   0  0  0  0  0  0  0  0  0  0  0  0
  -24.9133  -27.3466   19.4339 C   0  0  0  0  0  0  0  0  0  0  0  0
  -25.1583  -11.3138   20.1110 C   0  0  0  0  0  0  0  0  0  0  0  0
  -27.2346  -27.3698   20.1559 C   0  0  0  0  0  0  0  0  0  0  0  0
  -24.9029   -9.0463   20.6730 C   0  0  0  0  0  0  0  0  0  0  0  0
  -24.5116   -7.0943   22.6272 C   0  0  0  0  0  0  0  0  0  0  0  0
  -25.8534   -8.0419   20.8556 C   0  0  0  0  0  0  0  0  0  0  0  0
  -25.3526  -15.3455   21.3780 C   0  0  0  0  0  0  0  0  0  0  0  0
  -32.0756  -24.7596   19.5768 C   0  0  0  0  0  0  0  0  0  0  0  0
  -31.2451  -23.5319   21.3821 C   0  0  0  0  0  0  0  0  0  0  0  0
  -24.9798  -17.2764   22.3616 C   0  0  0  0  0  0  0  0  0  0  0  0
  -29.8727  -24.8426   20.1309 C   0  0  0  0  0  0  0  0  0  0  0  0
  -23.3759  -15.4751   23.0183 C   0  0  0  0  0  0  0  0  0  0  0  0
  -21.8817  -27.8698   20.9049 C   0  0  0  0  0  0  0  0  0  0  0  0
  -21.4668  -26.9131   17.8332 C   0  0  0  0  0  0  0  0  0  0  0  0
  -22.8811  -25.8757   14.9057 C   0  0  0  0  0  0  0  0  0  0  0  0
  -30.2121  -19.6362   21.5481 C   0  0  0  0  0  0  0  0  0  0  0  0
  -17.0747  -27.2183   22.4941 C   0  0  0  0  0  0  0  0  0  0  0  0
  -23.4690  -29.4001   19.6824 C   0  0  0  0  0  0  0  0  0  0  0  0
  -23.7681  -26.5888   18.8151 C   0  0  0  0  0  0  0  0  0  0  0  0
  -18.0703  -26.4089   21.6671 C   0  0  0  0  0  0  0  0  0  0  0  0
  -27.2973  -20.5597   19.7809 C   0  0  0  0  0  0  0  0  0  0  0  0
  -19.4189  -26.3364   22.3764 C   0  0  0  0  0  0  0  0  0  0  0  0
  -26.3776  -19.3752   20.0741 C   0  0  0  0  0  0  0  0  0  0  0  0
  -28.7417  -20.1189   19.5365 C   0  0  0  0  0  0  0  0  0  0  0  0
  -28.3820  -18.0939   20.9121 C   0  0  0  0  0  0  0  0  0  0  0  0
  -20.0242  -27.7340   22.5548 C   0  0  1  0  0  0  0  0  0  0  0  0
  -22.2721  -28.4598   19.5793 C   0  0  1  0  0  0  0  0  0  0  0  0
  -26.9369  -18.5150   21.2205 C   0  0  2  0  0  0  0  0  0  0  0  0
  -33.1909  -25.1968   18.6873 C   0  0  0  0  0  0  0  0  0  0  0  0
  -22.2841  -25.1312   12.5847 C   0  0  0  0  0  0  0  0  0  0  0  0
  -30.1265  -22.2540   23.3346 C   0  0  0  0  0  0  0  0  0  0  0  0
  -32.4121  -23.1883   23.5771 C   0  0  0  0  0  0  0  0  0  0  0  0
  -20.6182  -24.1938   18.9264 C   0  0  0  0  0  0  0  0  0  0  0  0
  -20.9572  -23.2446   16.6346 C   0  0  0  0  0  0  0  0  0  0  0  0
  -19.2456  -25.0208   17.0064 C   0  0  0  0  0  0  0  0  0  0  0  0
  -31.6624  -20.6014   19.7124 C   0  0  0  0  0  0  0  0  0  0  0  0
  -24.3590  -28.1271   13.6784 C   0  0  0  0  0  0  0  0  0  0  0  0
  -28.4963  -25.3755   19.8611 C   0  0  0  0  0  0  0  0  0  1  0  0
  -32.0352  -21.2104   22.0737 C   0  0  0  0  0  0  0  0  0  0  0  0
  -21.6985  -25.6299   17.0726 C   0  0  1  0  0  0  0  0  0  0  0  0
  -22.6568  -26.3112   13.4688 C   0  0  2  0  0  0  0  0  0  0  0  0
  -31.4263  -22.5871   22.5227 C   0  0  0  0  0  0  0  0  0  0  0  0
  -20.6511  -24.5356   17.4234 C   0  0  0  0  0  0  0  0  0  0  0  0
  -26.3015  -16.1540   20.8984 N   0  0  0  0  0  0  0  0  0  0  0  0
  -30.8524  -25.2610   19.3072 N   0  0  0  0  0  0  0  0  0  0  0  0
  -29.9956  -23.9945   21.1698 N   0  0  0  0  0  0  0  0  0  0  0  0
  -26.0483  -17.3209   21.5151 N   0  0  0  0  0  0  0  0  0  0  0  0
  -22.5104  -27.3395   18.6669 N   0  0  0  0  0  0  0  0  0  0  0  0
  -29.2199  -19.2620   20.6300 N   0  0  0  0  0  0  0  0  0  0  0  0
  -24.5874  -18.3616   23.0621 N   0  0  0  0  0  0  0  0  0  0  0  0
  -23.0194  -14.1326   22.8312 N   0  0  0  0  0  0  0  0  0  0  0  0
  -20.6022  -28.1969   21.3113 N   0  0  0  0  0  0  0  0  0  0  0  0
  -21.7329  -25.9931   15.6600 N   0  0  0  0  0  0  0  0  0  0  0  0
  -31.2030  -20.5213   21.0976 N   0  0  0  0  0  0  0  0  0  0  0  0
  -23.8916  -26.9388   12.9190 N   0  3  0  0  0  0  0  0  0  0  0  0
  -22.6970  -16.1879   23.7958 O   0  0  0  0  0  0  0  0  0  0  0  0
  -22.6816  -27.1684   21.5131 O   0  0  0  0  0  0  0  0  0  0  0  0
  -20.4021  -27.5187   17.6874 O   0  0  0  0  0  0  0  0  0  0  0  0
  -23.9653  -25.4684   15.3168 O   0  0  0  0  0  0  0  0  0  0  0  0
  -30.2182  -19.1977   22.7056 O   0  0  0  0  0  0  0  0  0  0  0  0
  -25.0961  -10.0165   19.7039 O   0  0  0  0  0  0  0  0  0  0  0  0
  -28.4273  -26.7311   20.3015 O   0  0  0  0  0  0  0  0  0  1  0  0
  -24.3243   -6.1580   23.5666 F   0  0  0  0  0  0  0  0  0  0  0  0
  -26.9571   -8.0101   20.0962 F   0  0  0  0  0  0  0  0  0  0  0  0
  1  2  1  0  0  0  0
  1  5  2  0  0  0  0
  2  6  2  0  0  0  0
  3  8  2  0  0  0  0
  3 16  1  0  0  0  0
  4  9  1  0  0  0  0
  4 16  2  0  0  0  0
  5 18  1  0  0  0  0
  6 20  1  0  0  0  0
  7 10  2  0  0  0  0
  7 19  1  0  0  0  0
  8 22  1  0  0  0  0
  9 22  2  0  0  0  0
 10 23  1  0  0  0  0
 11 12  2  0  0  0  0
 11 24  1  0  0  0  0
 12 25  1  0  0  0  0
 13 21  1  0  0  0  0
 13 23  2  0  0  0  0
 14 25  2  0  0  0  0
 14 26  1  0  0  0  0
 15 28  1  0  0  0  0
 15 29  2  0  0  0  0
 16 27  1  0  0  0  0
 17 27  1  0  0  0  0
 17 30  2  0  0  0  0
 17 32  1  0  0  0  0
 18 20  2  0  0  0  0
 18 37  1  0  0  0  0
 19 21  2  0  0  0  0
 19 38  1  0  0  0  0
 20 46  1  0  0  0  0
 21 39  1  0  0  0  0
 22 81  1  0  0  0  0
 23 82  1  0  0  0  0
 24 26  2  0  0  0  0
 24 81  1  0  0  0  0
 25 83  1  0  0  0  0
 26 84  1  0  0  0  0
 27 64  2  0  0  0  0
 28 49  1  0  0  0  0
 28 65  2  0  0  0  0
 29 62  1  0  0  0  0
 29 66  1  0  0  0  0
 30 67  1  0  0  0  0
 30 70  1  0  0  0  0
 31 58  1  0  0  0  0
 31 65  1  0  0  0  0
 31 66  2  0  0  0  0
 32 71  1  0  0  0  0
 32 76  2  0  0  0  0
 33 47  1  0  0  0  0
 33 72  1  0  0  0  0
 33 77  2  0  0  0  0
 34 60  1  0  0  0  0
 34 68  1  0  0  0  0
 34 78  2  0  0  0  0
 35 61  1  0  0  0  0
 35 73  1  0  0  0  0
 35 79  2  0  0  0  0
 36 69  1  0  0  0  0
 36 74  1  0  0  0  0
 36 80  2  0  0  0  0
 37 40  1  0  0  0  0
 38 47  1  0  0  0  0
 39 68  1  0  0  0  0
 40 42  1  0  0  0  0
 41 43  1  0  0  0  0
 41 44  1  0  0  0  0
 42 46  1  0  0  0  0
 43 48  1  0  0  0  0
 44 69  1  0  0  0  0
 45 48  1  0  0  0  0
 45 69  1  0  0  0  0
 46 72  1  0  0  0  0
 47 68  1  0  0  0  0
 48 67  1  0  0  0  0
 50 61  1  0  0  0  0
 51 62  1  0  0  0  0
 52 62  1  0  0  0  0
 53 63  1  0  0  0  0
 54 63  1  0  0  0  0
 55 63  1  0  0  0  0
 56 74  1  0  0  0  0
 57 75  1  0  0  0  0
 58 82  1  0  0  0  0
 59 62  1  0  0  0  0
 59 74  1  0  0  0  0
 60 63  1  0  0  0  0
 60 73  1  0  0  0  0
 61 75  1  0  0  0  0
 64 67  1  0  0  0  0
M  CHG  1  75   1
M  ISO  4  36 100  58 101  74 100  82 101
M  END
> <Batch ID>
0055

> <Smiles>
CNC(C)C(=O)NC(C(=O)N1Cc2cc([101O:1][101CH2:1]c3nc(C)cc(C(C)(C)C[100N:0](C)[100C:0](=O)N4CCCC(n5nc(-c6ccc(Oc7ccc(F)cc7F)cc6)c(C(N)=O)c5N)C4)n3)ccc2CC1C(=O)NC1CCCc2ccccc21)C(C)(C)C

> <Shape>
0.228

> <Color>
0.107

> <Negative vol penalty>
0.000

$$$$

  -OEChem-04052317433D

 82 90  0     1  0  0  0  0  0999 V2000
  -24.3776  -29.6276   29.3602 C   0  0  0  0  0  0  0  0  0  0  0  0
  -24.5858  -28.2841   29.0650 C   0  0  0  0  0  0  0  0  0  0  0  0
  -23.5615   -9.8373   21.6411 C   0  0  0  0  0  0  0  0  0  0  0  0
  -24.1736  -10.9584   23.6918 C   0  0  0  0  0  0  0  0  0  0  0  0
  -24.3459  -30.5692   28.3323 C   0  0  0  0  0  0  0  0  0  0  0  0
  -24.7615  -27.8813   27.7417 C   0  0  0  0  0  0  0  0  0  0  0  0
  -28.3656  -23.3630   25.7164 C   0  0  0  0  0  0  0  0  0  0  0  0
  -22.9671   -8.8132   22.3783 C   0  0  0  0  0  0  0  0  0  0  0  0
  -23.5792   -9.9343   24.4291 C   0  0  0  0  0  0  0  0  0  0  0  0
  -28.1020  -22.0412   25.3599 C   0  0  0  0  0  0  0  0  0  0  0  0
  -23.9655   -6.0812   24.0998 C   0  0  0  0  0  0  0  0  0  0  0  0
  -24.2279   -4.7675   23.7113 C   0  0  0  0  0  0  0  0  0  0  0  0
  -27.9402  -22.7038   23.0460 C   0  0  0  0  0  0  0  0  0  0  0  0
  -21.8685   -4.4073   23.3362 C   0  0  0  0  0  0  0  0  0  0  0  0
  -26.8656  -15.6888   23.0969 C   0  0  0  0  0  0  0  0  0  0  0  0
  -24.1648  -10.9099   22.2978 C   0  0  0  0  0  0  0  0  0  0  0  0
  -24.1677  -13.1483   21.0743 C   0  0  0  0  0  0  0  0  0  0  0  0
  -24.5309  -30.1789   26.9966 C   0  0  0  0  0  0  0  0  0  0  0  0
  -28.4077  -24.3687   24.7400 C   0  0  0  0  0  0  0  0  0  0  0  0
  -24.7310  -28.8183   26.6949 C   0  0  0  0  0  0  0  0  0  0  0  0
  -28.2071  -24.0372   23.3924 C   0  0  0  0  0  0  0  0  0  0  0  0
  -22.9760   -8.8617   23.7723 C   0  0  0  0  0  0  0  0  0  0  0  0
  -27.8864  -21.7119   24.0249 C   0  0  0  0  0  0  0  0  0  0  0  0
  -22.6546   -6.5579   24.1067 C   0  0  0  0  0  0  0  0  0  0  0  0
  -23.1794   -3.9306   23.3294 C   0  0  0  0  0  0  0  0  0  0  0  0
  -21.6061   -5.7210   23.7248 C   0  0  0  0  0  0  0  0  0  0  0  0
  -24.7794  -11.9678   21.5368 C   0  0  0  0  0  0  0  0  0  0  0  0
  -28.1216  -16.0463   23.5352 C   0  0  0  0  0  0  0  0  0  0  0  0
  -26.0698  -17.7463   23.6994 C   0  0  0  0  0  0  0  0  0  0  0  0
  -27.3257  -18.1036   24.1384 C   0  0  0  0  0  0  0  0  0  0  0  0
  -25.1680  -13.8165   20.4114 C   0  0  0  0  0  0  0  0  0  0  0  0
  -22.8160  -13.6006   21.2300 C   0  0  0  0  0  0  0  0  0  0  0  0
  -26.7421  -27.0159   24.1730 C   0  0  0  0  0  0  0  0  0  0  0  0
  -28.9709  -27.4562   21.8577 C   0  0  0  0  0  0  0  0  0  0  0  0
  -31.2778  -26.0741   19.7566 C   0  0  0  0  0  0  0  0  0  0  0  0
  -31.2302  -13.2180   21.0677 C   0  0  0  0  0  0  0  0  0  0  0  0
  -24.4414  -31.2265   25.9153 C   0  0  0  0  0  0  0  0  0  0  0  0
  -28.7197  -25.7853   25.1377 C   0  0  0  0  0  0  0  0  0  0  0  0
  -28.2618  -25.0763   22.3035 C   0  0  0  0  0  0  0  0  0  0  0  0
  -25.0097  -30.7681   24.5747 C   0  0  0  0  0  0  0  0  0  0  0  0
  -29.2078  -13.0686   17.9710 C   0  0  0  0  0  0  0  0  0  0  0  0
  -24.5005  -29.3726   24.2280 C   0  0  0  0  0  0  0  0  0  0  0  0
  -27.8020  -12.7975   18.5040 C   0  0  0  0  0  0  0  0  0  0  0  0
  -30.2834  -12.5137   18.8999 C   0  0  0  0  0  0  0  0  0  0  0  0
  -28.7624  -12.7170   20.8389 C   0  0  0  0  0  0  0  0  0  0  0  0
  -24.9503  -28.3456   25.2741 C   0  0  1  0  0  0  0  0  0  0  0  0
  -28.2300  -26.8127   24.1219 C   0  0  1  0  0  0  0  0  0  0  0  0
  -27.6562  -13.3041   19.9495 C   0  0  2  0  0  0  0  0  0  0  0  0
  -24.9183  -18.6888   23.7873 C   0  0  0  0  0  0  0  0  0  0  0  0
  -32.9147  -26.6821   17.9543 C   0  0  0  0  0  0  0  0  0  0  0  0
  -26.6706  -27.7696   19.8777 C   0  0  0  0  0  0  0  0  0  0  0  0
  -28.3134  -27.4207   18.0209 C   0  0  0  0  0  0  0  0  0  0  0  0
  -28.5572  -29.3780   19.5481 C   0  0  0  0  0  0  0  0  0  0  0  0
  -32.2775  -14.5113   22.8871 C   0  0  0  0  0  0  0  0  0  0  0  0
  -33.5694  -25.0717   21.3387 C   0  0  0  0  0  0  0  0  0  0  0  0
  -29.2569  -15.0885   23.4367 C   0  0  0  0  0  0  0  0  0  0  0  0
  -27.5931  -19.4582   24.7256 C   0  0  0  0  0  0  0  0  0  1  0  0
  -30.0330  -15.1852   22.1164 C   0  0  0  0  0  0  0  0  0  0  0  0
  -29.0967  -27.0617   20.4060 C   0  0  1  0  0  0  0  0  0  0  0  0
  -32.7133  -26.4570   19.4447 C   0  0  2  0  0  0  0  0  0  0  0  0
  -28.1565  -27.8880   19.4837 C   0  0  0  0  0  0  0  0  0  0  0  0
  -25.8171  -16.5325   23.1711 N   0  0  0  0  0  0  0  0  0  0  0  0
  -26.0685  -11.8876   21.1964 N   0  0  0  0  0  0  0  0  0  0  0  0
  -28.3742  -17.2601   24.0639 N   0  0  0  0  0  0  0  0  0  0  0  0
  -26.2749  -13.0261   20.5129 N   0  0  0  0  0  0  0  0  0  0  0  0
  -28.5640  -26.4484   22.7435 N   0  0  0  0  0  0  0  0  0  0  0  0
  -30.0958  -12.9764   20.2754 N   0  0  0  0  0  0  0  0  0  0  0  0
  -25.1999  -14.9970   19.7574 N   0  0  0  0  0  0  0  0  0  0  0  0
  -21.9183  -12.7913   21.9395 N   0  0  0  0  0  0  0  0  0  0  0  0
  -26.3375  -27.9882   25.0676 N   0  0  0  0  0  0  0  0  0  0  0  0
  -30.5124  -27.1765   20.0729 N   0  0  0  0  0  0  0  0  0  0  0  0
  -31.1246  -14.2161   22.0482 N   0  0  0  0  0  0  0  0  0  0  0  0
  -33.6443  -25.3808   19.8875 N   0  3  0  0  0  0  0  0  0  0  0  0
  -22.4121  -14.6824   20.7400 O   0  0  0  0  0  0  0  0  0  0  0  0
  -26.0151  -26.3415   23.4531 O   0  0  0  0  0  0  0  0  0  0  0  0
  -29.2312  -28.6140   22.1945 O   0  0  0  0  0  0  0  0  0  0  0  0
  -30.8748  -24.9136   19.7193 O   0  0  0  0  0  0  0  0  0  0  0  0
  -32.2805  -12.5848   20.9013 O   0  0  0  0  0  0  0  0  0  0  0  0
  -22.3959   -7.8626   24.4920 O   0  0  0  0  0  0  0  0  0  0  0  0
  -27.6283  -20.4226   23.6743 O   0  0  0  0  0  0  0  0  0  1  0  0
  -23.4316   -2.6696   22.9548 F   0  0  0  0  0  0  0  0  0  0  0  0
  -20.3448   -6.1737   23.7282 F   0  0  0  0  0  0  0  0  0  0  0  0
  1  2  1  0  0  0  0
  1  5  2  0  0  0  0
  2  6  2  0  0  0  0
  3  8  2  0  0  0  0
  3 16  1  0  0  0  0
  4  9  1  0  0  0  0
  4 16  2  0  0  0  0
  5 18  1  0  0  0  0
  6 20  1  0  0  0  0
  7 10  2  0  0  0  0
  7 19  1  0  0  0  0
  8 22  1  0  0  0  0
  9 22  2  0  0  0  0
 10 23  1  0  0  0  0
 11 12  2  0  0  0  0
 11 24  1  0  0  0  0
 12 25  1  0  0  0  0
 13 21  1  0  0  0  0
 13 23  2  0  0  0  0
 14 25  2  0  0  0  0
 14 26  1  0  0  0  0
 15 28  1  0  0  0  0
 15 62  2  0  0  0  0
 16 27  1  0  0  0  0
 17 27  1  0  0  0  0
 17 31  2  0  0  0  0
 17 32  1  0  0  0  0
 18 20  2  0  0  0  0
 18 37  1  0  0  0  0
 19 21  2  0  0  0  0
 19 38  1  0  0  0  0
 20 46  1  0  0  0  0
 21 39  1  0  0  0  0
 22 79  1  0  0  0  0
 23 80  1  0  0  0  0
 24 26  2  0  0  0  0
 24 79  1  0  0  0  0
 25 81  1  0  0  0  0
 26 82  1  0  0  0  0
 27 63  2  0  0  0  0
 28 56  1  0  0  0  0
 28 64  2  0  0  0  0
 29 30  2  0  0  0  0
 29 49  1  0  0  0  0
 29 62  1  0  0  0  0
 30 57  1  0  0  0  0
 30 64  1  0  0  0  0
 31 65  1  0  0  0  0
 31 68  1  0  0  0  0
 32 69  1  0  0  0  0
 32 74  2  0  0  0  0
 33 47  1  0  0  0  0
 33 70  1  0  0  0  0
 33 75  2  0  0  0  0
 34 59  1  0  0  0  0
 34 66  1  0  0  0  0
 34 76  2  0  0  0  0
 35 60  1  0  0  0  0
 35 71  1  0  0  0  0
 35 77  2  0  0  0  0
 36 67  1  0  0  0  0
 36 72  1  0  0  0  0
 36 78  2  0  0  0  0
 37 40  1  0  0  0  0
 38 47  1  0  0  0  0
 39 66  1  0  0  0  0
 40 42  1  0  0  0  0
 41 43  1  0  0  0  0
 41 44  1  0  0  0  0
 42 46  1  0  0  0  0
 43 48  1  0  0  0  0
 44 67  1  0  0  0  0
 45 48  1  0  0  0  0
 45 67  1  0  0  0  0
 46 70  1  0  0  0  0
 47 66  1  0  0  0  0
 48 65  1  0  0  0  0
 50 60  1  0  0  0  0
 51 61  1  0  0  0  0
 52 61  1  0  0  0  0
 53 61  1  0  0  0  0
 54 72  1  0  0  0  0
 55 73  1  0  0  0  0
 56 58  1  0  0  0  0
 57 80  1  0  0  0  0
 58 72  1  0  0  0  0
 59 61  1  0  0  0  0
 59 71  1  0  0  0  0
 60 73  1  0  0  0  0
 63 65  1  0  0  0  0
M  CHG  1  73   1
M  ISO  4  36 100  57 101  72 100  80 101
M  END
> <Batch ID>
0055

> <Smiles>
CNC(C)C(=O)NC(C(=O)N1Cc2cc([101O:1][101CH2:1]c3nc(CC[100N:0](C)[100C:0](=O)N4CCCC(n5nc(-c6ccc(Oc7ccc(F)cc7F)cc6)c(C(N)=O)c5N)C4)cnc3C)ccc2CC1C(=O)NC1CCCc2ccccc21)C(C)(C)C

> <Shape>
0.210

> <Color>
0.137

> <Negative vol penalty>
0.000

$$$$

  -OEChem-04052317433D

 79 87  0     1  0  0  0  0  0999 V2000
  -24.6582  -35.4400   21.6141 C   0  0  0  0  0  0  0  0  0  0  0  0
  -25.4263  -34.2803   21.5931 C   0  0  0  0  0  0  0  0  0  0  0  0
  -25.1515  -13.4148   19.3695 C   0  0  0  0  0  0  0  0  0  0  0  0
  -24.8964  -13.5684   21.7671 C   0  0  0  0  0  0  0  0  0  0  0  0
  -23.3999  -35.4305   22.2146 C   0  0  0  0  0  0  0  0  0  0  0  0
  -24.9370  -33.1106   22.1734 C   0  0  0  0  0  0  0  0  0  0  0  0
  -25.6794  -29.0374   19.2576 C   0  0  0  0  0  0  0  0  0  0  0  0
  -25.5738  -12.0918   19.4992 C   0  0  0  0  0  0  0  0  0  0  0  0
  -25.3187  -12.2453   21.8968 C   0  0  0  0  0  0  0  0  0  0  0  0
  -26.9605  -28.4873   19.2463 C   0  0  0  0  0  0  0  0  0  0  0  0
  -23.9959   -9.1604   21.5044 C   0  0  0  0  0  0  0  0  0  0  0  0
  -23.2710   -8.3312   22.3604 C   0  0  0  0  0  0  0  0  0  0  0  0
  -26.2375  -26.7871   20.7974 C   0  0  0  0  0  0  0  0  0  0  0  0
  -25.2566   -7.9653   23.6873 C   0  0  0  0  0  0  0  0  0  0  0  0
  -27.6463  -23.2683   18.3681 C   0  0  0  0  0  0  0  0  0  0  0  0
  -24.8128  -14.1532   20.5035 C   0  0  0  0  0  0  0  0  0  0  0  0
  -23.0569  -15.9788   20.2006 C   0  0  0  0  0  0  0  0  0  0  0  0
  -22.8909  -34.2576   22.7941 C   0  0  0  0  0  0  0  0  0  0  0  0
  -24.6690  -28.4720   20.0486 C   0  0  0  0  0  0  0  0  0  0  0  0
  -23.6713  -33.0858   22.7833 C   0  0  0  0  0  0  0  0  0  0  0  0
  -24.9438  -27.3304   20.8150 C   0  0  0  0  0  0  0  0  0  0  0  0
  -25.6574  -11.5070   20.7628 C   0  0  0  0  0  0  0  0  0  0  0  0
  -27.2405  -27.3638   20.0185 C   0  0  0  0  0  0  0  0  0  0  0  0
  -25.3512   -9.3919   21.7399 C   0  0  0  0  0  0  0  0  0  0  0  0
  -23.9013   -7.7337   23.4518 C   0  0  0  0  0  0  0  0  0  0  0  0
  -25.9815   -8.7944   22.8313 C   0  0  0  0  0  0  0  0  0  0  0  0
  -24.3770  -15.5201   20.3703 C   0  0  0  0  0  0  0  0  0  0  0  0
  -28.3585  -22.0985   18.5167 C   0  0  0  0  0  0  0  0  0  0  0  0
  -30.2836  -23.3040   18.7816 C   0  0  0  0  0  0  0  0  0  0  0  0
  -29.5715  -24.4739   18.6326 C   0  0  0  0  0  0  0  0  0  0  0  0
  -23.1751  -17.3452   20.1266 C   0  0  0  0  0  0  0  0  0  0  0  0
  -21.8333  -15.2361   20.1176 C   0  0  0  0  0  0  0  0  0  0  0  0
  -27.6998  -20.7881   18.4520 C   0  0  0  0  0  0  0  0  0  0  0  0
  -22.8946  -29.4858   22.4832 C   0  0  0  0  0  0  0  0  0  0  0  0
  -21.3991  -26.6367   22.0729 C   0  0  0  0  0  0  0  0  0  0  0  0
  -21.5465  -23.4260   20.9256 C   0  0  0  0  0  0  0  0  0  0  0  0
  -21.5451  -34.3083   23.4731 C   0  0  0  0  0  0  0  0  0  0  0  0
  -23.2852  -29.0613   20.0290 C   0  0  0  0  0  0  0  0  0  0  0  0
  -23.8887  -26.6734   21.6656 C   0  0  0  0  0  0  0  0  0  0  0  0
  -20.9428  -32.9304   23.7351 C   0  0  0  0  0  0  0  0  0  0  0  0
  -25.9305  -20.9582   21.6155 C   0  0  0  0  0  0  0  0  0  0  0  0
  -21.9869  -31.9976   24.3404 C   0  0  0  0  0  0  0  0  0  0  0  0
  -25.2209  -19.6039   21.6399 C   0  0  0  0  0  0  0  0  0  0  0  0
  -27.3082  -20.8523   20.9687 C   0  0  0  0  0  0  0  0  0  0  0  0
  -26.5828  -18.9144   19.6153 C   0  0  0  0  0  0  0  0  0  0  0  0
  -23.1647  -31.7908   23.3804 C   0  0  1  0  0  0  0  0  0  0  0  0
  -22.4687  -28.7102   21.2689 C   0  0  1  0  0  0  0  0  0  0  0  0
  -25.1761  -18.9732   20.2359 C   0  0  1  0  0  0  0  0  0  0  0  0
  -31.7563  -23.3142   19.0108 C   0  0  0  0  0  0  0  0  0  0  0  0
  -20.1811  -21.3266   20.7656 C   0  0  0  0  0  0  0  0  0  0  0  0
  -21.8925  -26.0931   25.0344 C   0  0  0  0  0  0  0  0  0  0  0  0
  -21.3906  -23.6785   24.6033 C   0  0  0  0  0  0  0  0  0  0  0  0
  -19.6339  -25.4053   24.2097 C   0  0  0  0  0  0  0  0  0  0  0  0
  -21.6513  -23.4450   17.9679 C   0  0  0  0  0  0  0  0  0  0  0  0
  -30.2491  -25.8212   18.6945 C   0  0  0  0  0  0  0  0  0  0  0  0
  -29.2505  -26.9677   18.8107 C   0  0  0  0  0  0  0  0  0  1  0  0
  -21.5898  -25.2412   22.6160 C   0  0  1  0  0  0  0  0  0  0  0  0
  -20.5879  -22.6168   20.0708 C   0  0  2  0  0  0  0  0  0  0  0  0
  -21.1473  -25.1178   24.1014 C   0  0  0  0  0  0  0  0  0  0  0  0
  -28.2400  -24.4771   18.4234 N   0  0  0  0  0  0  0  0  0  0  0  0
  -25.2683  -16.5144   20.4020 N   0  0  0  0  0  0  0  0  0  0  0  0
  -29.6899  -22.0953   18.7262 N   0  0  0  0  0  0  0  0  0  0  0  0
  -24.5069  -17.6114   20.2511 N   0  0  0  0  0  0  0  0  0  0  0  0
  -27.2110  -20.2368   19.6390 N   0  0  0  0  0  0  0  0  0  0  0  0
  -22.5529  -27.2905   21.6178 N   0  0  0  0  0  0  0  0  0  0  0  0
  -22.2686  -18.3328   19.9676 N   0  0  0  0  0  0  0  0  0  0  0  0
  -21.8919  -13.8390   20.2125 N   0  0  0  0  0  0  0  0  0  0  0  0
  -22.8063  -30.8568   22.3347 N   0  0  0  0  0  0  0  0  0  0  0  0
  -20.8813  -24.3484   21.7054 N   0  0  0  0  0  0  0  0  0  0  0  0
  -21.2228  -22.2690   18.7681 N   0  3  0  0  0  0  0  0  0  0  0  0
  -20.7227  -15.7938   19.9472 O   0  0  0  0  0  0  0  0  0  0  0  0
  -27.6202  -20.2755   17.3367 O   0  0  0  0  0  0  0  0  0  0  0  0
  -23.2739  -28.8849   23.4816 O   0  0  0  0  0  0  0  0  0  0  0  0
  -20.2670  -27.1259   22.0465 O   0  0  0  0  0  0  0  0  0  0  0  0
  -22.7633  -23.2544   20.9064 O   0  0  0  0  0  0  0  0  0  0  0  0
  -26.0693  -10.2160   20.8896 O   0  0  0  0  0  0  0  0  0  0  0  0
  -28.4902  -26.8252   20.0099 O   0  0  0  0  0  0  0  0  0  1  0  0
  -23.2047   -6.9387   24.2746 F   0  0  0  0  0  0  0  0  0  0  0  0
  -27.2829   -9.0140   23.0633 F   0  0  0  0  0  0  0  0  0  0  0  0
  1  2  1  0  0  0  0
  1  5  2  0  0  0  0
  2  6  2  0  0  0  0
  3  8  2  0  0  0  0
  3 16  1  0  0  0  0
  4  9  1  0  0  0  0
  4 16  2  0  0  0  0
  5 18  1  0  0  0  0
  6 20  1  0  0  0  0
  7 10  2  0  0  0  0
  7 19  1  0  0  0  0
  8 22  1  0  0  0  0
  9 22  2  0  0  0  0
 10 23  1  0  0  0  0
 11 12  2  0  0  0  0
 11 24  1  0  0  0  0
 12 25  1  0  0  0  0
 13 21  1  0  0  0  0
 13 23  2  0  0  0  0
 14 25  2  0  0  0  0
 14 26  1  0  0  0  0
 15 28  1  0  0  0  0
 15 60  2  0  0  0  0
 16 27  1  0  0  0  0
 17 27  1  0  0  0  0
 17 31  2  0  0  0  0
 17 32  1  0  0  0  0
 18 20  2  0  0  0  0
 18 37  1  0  0  0  0
 19 21  2  0  0  0  0
 19 38  1  0  0  0  0
 20 46  1  0  0  0  0
 21 39  1  0  0  0  0
 22 76  1  0  0  0  0
 23 77  1  0  0  0  0
 24 26  2  0  0  0  0
 24 76  1  0  0  0  0
 25 78  1  0  0  0  0
 26 79  1  0  0  0  0
 27 61  2  0  0  0  0
 28 33  1  0  0  0  0
 28 62  2  0  0  0  0
 29 30  2  0  0  0  0
 29 49  1  0  0  0  0
 29 62  1  0  0  0  0
 30 55  1  0  0  0  0
 30 60  1  0  0  0  0
 31 63  1  0  0  0  0
 31 66  1  0  0  0  0
 32 67  1  0  0  0  0
 32 71  2  0  0  0  0
 33 64  1  0  0  0  0
 33 72  2  0  0  0  0
 34 47  1  0  0  0  0
 34 68  1  0  0  0  0
 34 73  2  0  0  0  0
 35 57  1  0  0  0  0
 35 65  1  0  0  0  0
 35 74  2  0  0  0  0
 36 58  1  0  0  0  0
 36 69  1  0  0  0  0
 36 75  2  0  0  0  0
 37 40  1  0  0  0  0
 38 47  1  0  0  0  0
 39 65  1  0  0  0  0
 40 42  1  0  0  0  0
 41 43  1  0  0  0  0
 41 44  1  0  0  0  0
 42 46  1  0  0  0  0
 43 48  1  0  0  0  0
 44 64  1  0  0  0  0
 45 48  1  0  0  0  0
 45 64  1  0  0  0  0
 46 68  1  0  0  0  0
 47 65  1  0  0  0  0
 48 63  1  0  0  0  0
 50 58  1  0  0  0  0
 51 59  1  0  0  0  0
 52 59  1  0  0  0  0
 53 59  1  0  0  0  0
 54 70  1  0  0  0  0
 55 56  1  0  0  0  0
 56 77  1  0  0  0  0
 57 59  1  0  0  0  0
 57 69  1  0  0  0  0
 58 70  1  0  0  0  0
 61 63  1  0  0  0  0
M  CHG  1  70   1
M  ISO  4  28 100  33 100  56 101  77 101
M  END
> <Batch ID>
0055

> <Smiles>
CNC(C)C(=O)NC(C(=O)N1Cc2cc([101O:1][101CH2:1]Cc3nc[100c:0]([100C:0](=O)N4CCCC(n5nc(-c6ccc(Oc7ccc(F)cc7F)cc6)c(C(N)=O)c5N)C4)nc3C)ccc2CC1C(=O)NC1CCCc2ccccc21)C(C)(C)C

> <Shape>
0.211

> <Color>
0.088

> <Negative vol penalty>
0.000

$$$$

  -OEChem-04052317433D

 87 95  0     1  0  0  0  0  0999 V2000
  -21.9477  -11.6978   21.9706 C   0  0  0  0  0  0  0  0  0  0  0  0
  -22.3352  -12.8002   22.7256 C   0  0  0  0  0  0  0  0  0  0  0  0
  -20.1339  -26.3028   18.3809 C   0  0  0  0  0  0  0  0  0  0  0  0
  -20.8831  -24.8313   20.1446 C   0  0  0  0  0  0  0  0  0  0  0  0
  -22.7855  -11.2119   20.9676 C   0  0  0  0  0  0  0  0  0  0  0  0
  -23.5614  -13.4167   22.4787 C   0  0  0  0  0  0  0  0  0  0  0  0
  -23.2107  -18.4676   22.3772 C   0  0  0  0  0  0  0  0  0  0  0  0
  -19.7400  -25.1978   17.6263 C   0  0  0  0  0  0  0  0  0  0  0  0
  -20.4892  -23.7263   19.3900 C   0  0  0  0  0  0  0  0  0  0  0  0
  -23.1352  -19.1254   23.6041 C   0  0  0  0  0  0  0  0  0  0  0  0
  -21.6819  -21.9390   16.7796 C   0  0  0  0  0  0  0  0  0  0  0  0
  -22.5634  -20.8609   16.7004 C   0  0  0  0  0  0  0  0  0  0  0  0
  -25.4841  -19.6549   23.4580 C   0  0  0  0  0  0  0  0  0  0  0  0
  -20.8959  -19.4244   17.6970 C   0  0  0  0  0  0  0  0  0  0  0  0
  -24.7932  -26.4969   25.4707 C   0  0  0  0  0  0  0  0  0  0  0  0
  -26.6098  -25.0954   25.9089 C   0  0  0  0  0  0  0  0  0  0  0  0
  -20.7054  -26.1196   19.6401 C   0  0  0  0  0  0  0  0  0  0  0  0
  -20.3348  -27.9773   21.3486 C   0  0  0  0  0  0  0  0  0  0  0  0
  -24.0182  -11.8287   20.7019 C   0  0  0  0  0  0  0  0  0  0  0  0
  -24.4280  -18.3890   21.6855 C   0  0  0  0  0  0  0  0  0  0  0  0
  -24.4170  -12.9377   21.4721 C   0  0  0  0  0  0  0  0  0  0  0  0
  -25.5719  -18.9978   22.2212 C   0  0  0  0  0  0  0  0  0  0  0  0
  -25.2545  -25.3239   26.0326 C   0  0  0  0  0  0  0  0  0  0  0  0
  -19.9177  -23.9096   18.1308 C   0  0  0  0  0  0  0  0  0  0  0  0
  -24.2726  -19.7167   24.1461 C   0  0  0  0  0  0  0  0  0  0  0  0
  -20.4075  -21.7599   17.3176 C   0  0  0  0  0  0  0  0  0  0  0  0
  -22.1703  -19.6036   17.1591 C   0  0  0  0  0  0  0  0  0  0  0  0
  -20.0144  -20.5026   17.7762 C   0  0  0  0  0  0  0  0  0  0  0  0
  -21.1130  -27.2606   20.4199 C   0  0  0  0  0  0  0  0  0  0  0  0
  -21.1739  -28.9603   21.8135 C   0  0  0  0  0  0  0  0  0  0  0  0
  -26.8875  -27.0491   24.7807 C   0  0  0  0  0  0  0  0  0  0  0  0
  -18.9752  -27.7727   21.7549 C   0  0  0  0  0  0  0  0  0  0  0  0
  -26.3239  -16.0178   20.7440 C   0  0  0  0  0  0  0  0  0  0  0  0
  -27.9437  -18.4155   19.2778 C   0  0  0  0  0  0  0  0  0  0  0  0
  -28.7073  -21.7391   19.1468 C   0  0  0  0  0  0  0  0  0  0  0  0
  -27.0197  -29.4963   22.2790 C   0  0  0  0  0  0  0  0  0  0  0  0
  -24.9110  -11.2386   19.6392 C   0  0  0  0  0  0  0  0  0  0  0  0
  -24.4869  -17.6989   20.3503 C   0  0  0  0  0  0  0  0  0  0  0  0
  -26.8982  -18.9592   21.5087 C   0  0  0  0  0  0  0  0  0  0  0  0
  -26.0270  -12.1785   19.1903 C   0  0  0  0  0  0  0  0  0  0  0  0
  -24.9216  -31.6208   20.5153 C   0  0  0  0  0  0  0  0  0  0  0  0
  -26.7141  -12.8067   20.3987 C   0  0  0  0  0  0  0  0  0  0  0  0
  -23.6267  -30.8223   20.3713 C   0  0  0  0  0  0  0  0  0  0  0  0
  -26.1385  -30.7245   20.3190 C   0  0  0  0  0  0  0  0  0  0  0  0
  -24.8904  -28.7437   21.1191 C   0  0  0  0  0  0  0  0  0  0  0  0
  -25.7284  -13.6488   21.2178 C   0  0  1  0  0  0  0  0  0  0  0  0
  -25.8922  -17.2363   19.9782 C   0  0  1  0  0  0  0  0  0  0  0  0
  -23.6238  -29.6030   21.3099 C   0  0  2  0  0  0  0  0  0  0  0  0
  -30.0885  -23.3938   17.8617 C   0  0  0  0  0  0  0  0  0  0  0  0
  -30.4539  -17.4195   20.6980 C   0  0  0  0  0  0  0  0  0  0  0  0
  -31.5445  -19.6067   20.1550 C   0  0  0  0  0  0  0  0  0  0  0  0
  -30.8018  -18.0946   18.3152 C   0  0  0  0  0  0  0  0  0  0  0  0
  -26.3125  -23.2635   18.3101 C   0  0  0  0  0  0  0  0  0  0  0  0
  -24.3413  -24.3592   26.7299 C   0  0  0  0  0  0  0  0  0  0  0  0
  -27.7944  -28.0050   24.0828 C   0  0  0  0  0  0  0  0  0  0  0  0
  -27.7472  -27.1246   21.7786 C   0  0  0  0  0  0  0  0  0  0  0  0
  -23.2007  -22.1402   26.6115 C   0  0  0  0  0  0  0  0  0  0  0  0
  -22.9565  -20.9683   25.6814 C   0  0  0  0  0  0  0  0  0  1  0  0
  -29.0695  -19.3414   19.6705 C   0  0  1  0  0  0  0  0  0  0  0  0
  -28.7300  -22.7226   17.9907 C   0  0  2  0  0  0  0  0  0  0  0  0
  -30.4430  -18.6148   19.7243 C   0  0  0  0  0  0  0  0  0  0  0  0
  -28.9043  -27.4807   20.8793 C   0  0  0  0  0  0  0  0  0  0  0  0
  -25.5847  -27.3855   24.8350 N   0  0  0  0  0  0  0  0  0  0  0  0
  -27.4587  -25.9396   25.2869 N   0  0  0  0  0  0  0  0  0  0  0  0
  -22.3512  -27.7470   20.3004 N   0  0  0  0  0  0  0  0  0  0  0  0
  -22.3574  -28.7799   21.1601 N   0  0  0  0  0  0  0  0  0  0  0  0
  -26.9062  -18.2672   20.2092 N   0  0  0  0  0  0  0  0  0  0  0  0
  -26.1002  -29.5742   21.2225 N   0  0  0  0  0  0  0  0  0  0  0  0
  -21.0074  -29.9528   22.7133 N   0  0  0  0  0  0  0  0  0  0  0  0
  -18.2571  -26.7165   21.1777 N   0  0  0  0  0  0  0  0  0  0  0  0
  -25.4966  -14.9241   20.5740 N   0  0  0  0  0  0  0  0  0  0  0  0
  -29.0219  -20.4609   18.7363 N   0  0  0  0  0  0  0  0  0  0  0  0
  -27.4141  -28.2151   22.6931 N   0  0  0  0  0  0  0  0  0  0  0  0
  -27.7000  -23.7809   18.1906 N   0  3  0  0  0  0  0  0  0  0  0  0
  -24.0540  -23.1419   25.9239 N   0  3  0  0  0  0  0  0  0  0  0  0
  -18.4085  -28.5149   22.5925 O   0  0  0  0  0  0  0  0  0  0  0  0
  -27.3337  -16.0658   21.4366 O   0  0  0  0  0  0  0  0  0  0  0  0
  -27.9799  -17.8503   18.1820 O   0  0  0  0  0  0  0  0  0  0  0  0
  -28.4410  -22.0721   20.2995 O   0  0  0  0  0  0  0  0  0  0  0  0
  -27.4703  -30.5151   22.8187 O   0  0  0  0  0  0  0  0  0  0  0  0
  -19.5333  -22.8311   17.3948 O   0  0  0  0  0  0  0  0  0  0  0  0
  -24.2018  -20.3588   25.3438 O   0  0  0  0  0  0  0  0  0  1  0  0
  -23.0163  -18.5680   17.0815 F   0  0  0  0  0  0  0  0  0  0  0  0
  -18.7909  -20.3241   18.2929 F   0  0  0  0  0  0  0  0  0  0  0  0
  -29.2067  -26.4672   20.0405 F   0  0  0  0  0  0  0  0  0  0  0  0
  -28.6319  -28.5737   20.1355 F   0  0  0  0  0  0  0  0  0  0  0  0
  -30.0077  -27.7487   21.6122 F   0  0  0  0  0  0  0  0  0  0  0  0
  1  2  1  0  0  0  0
  1  5  2  0  0  0  0
  2  6  2  0  0  0  0
  3  8  2  0  0  0  0
  3 17  1  0  0  0  0
  4  9  1  0  0  0  0
  4 17  2  0  0  0  0
  5 19  1  0  0  0  0
  6 21  1  0  0  0  0
  7 10  2  0  0  0  0
  7 20  1  0  0  0  0
  8 24  1  0  0  0  0
  9 24  2  0  0  0  0
 10 25  1  0  0  0  0
 11 12  2  0  0  0  0
 11 26  1  0  0  0  0
 12 27  1  0  0  0  0
 13 22  1  0  0  0  0
 13 25  2  0  0  0  0
 14 27  2  0  0  0  0
 14 28  1  0  0  0  0
 15 23  1  0  0  0  0
 15 63  2  0  0  0  0
 16 23  2  0  0  0  0
 16 64  1  0  0  0  0
 17 29  1  0  0  0  0
 18 29  1  0  0  0  0
 18 30  2  0  0  0  0
 18 32  1  0  0  0  0
 19 21  2  0  0  0  0
 19 37  1  0  0  0  0
 20 22  2  0  0  0  0
 20 38  1  0  0  0  0
 21 46  1  0  0  0  0
 22 39  1  0  0  0  0
 23 54  1  0  0  0  0
 24 81  1  0  0  0  0
 25 82  1  0  0  0  0
 26 28  2  0  0  0  0
 26 81  1  0  0  0  0
 27 83  1  0  0  0  0
 28 84  1  0  0  0  0
 29 65  2  0  0  0  0
 30 66  1  0  0  0  0
 30 69  1  0  0  0  0
 31 55  1  0  0  0  0
 31 63  1  0  0  0  0
 31 64  2  0  0  0  0
 32 70  1  0  0  0  0
 32 76  2  0  0  0  0
 33 47  1  0  0  0  0
 33 71  1  0  0  0  0
 33 77  2  0  0  0  0
 34 59  1  0  0  0  0
 34 67  1  0  0  0  0
 34 78  2  0  0  0  0
 35 60  1  0  0  0  0
 35 72  1  0  0  0  0
 35 79  2  0  0  0  0
 36 68  1  0  0  0  0
 36 73  1  0  0  0  0
 36 80  2  0  0  0  0
 37 40  1  0  0  0  0
 38 47  1  0  0  0  0
 39 67  1  0  0  0  0
 40 42  1  0  0  0  0
 41 43  1  0  0  0  0
 41 44  1  0  0  0  0
 42 46  1  0  0  0  0
 43 48  1  0  0  0  0
 44 68  1  0  0  0  0
 45 48  1  0  0  0  0
 45 68  1  0  0  0  0
 46 71  1  0  0  0  0
 47 67  1  0  0  0  0
 48 66  1  0  0  0  0
 49 60  1  0  0  0  0
 50 61  1  0  0  0  0
 51 61  1  0  0  0  0
 52 61  1  0  0  0  0
 53 74  1  0  0  0  0
 54 75  1  0  0  0  0
 55 73  1  0  0  0  0
 56 62  1  0  0  0  0
 56 73  1  0  0  0  0
 57 58  1  0  0  0  0
 57 75  1  0  0  0  0
 58 82  1  0  0  0  0
 59 61  1  0  0  0  0
 59 72  1  0  0  0  0
 60 74  1  0  0  0  0
 62 85  1  0  0  0  0
 62 86  1  0  0  0  0
 62 87  1  0  0  0  0
 65 66  1  0  0  0  0
M  CHG  2  74   1  75   1
M  ISO  4  36 100  58 101  73 100  82 101
M  END
> <Batch ID>
0055

> <Smiles>
CNC(C)C(=O)NC(C(=O)N1Cc2cc([101O:1][101CH2:1]CNCc3cnc(C[100N:0](CC(F)(F)F)[100C:0](=O)N4CCCC(n5nc(-c6ccc(Oc7ccc(F)cc7F)cc6)c(C(N)=O)c5N)C4)nc3)ccc2CC1C(=O)NC1CCCc2ccccc21)C(C)(C)C

> <Shape>
0.224

> <Color>
0.062

> <Negative vol penalty>
0.000

$$$$

  -OEChem-04052317433D

 84 92  0     1  0  0  0  0  0999 V2000
  -22.2737  -21.9136   14.8840 C   0  0  0  0  0  0  0  0  0  0  0  0
  -23.5020  -21.3163   15.1484 C   0  0  0  0  0  0  0  0  0  0  0  0
  -22.3549  -27.8055   21.4227 C   0  0  0  0  0  0  0  0  0  0  0  0
  -23.7915  -29.0451   22.9181 C   0  0  0  0  0  0  0  0  0  0  0  0
  -21.2609  -21.8757   15.8414 C   0  0  0  0  0  0  0  0  0  0  0  0
  -23.7186  -20.6817   16.3710 C   0  0  0  0  0  0  0  0  0  0  0  0
  -27.1116  -15.6830   17.3740 C   0  0  0  0  0  0  0  0  0  0  0  0
  -21.3103  -27.9076   22.3414 C   0  0  0  0  0  0  0  0  0  0  0  0
  -22.7470  -29.1473   23.8369 C   0  0  0  0  0  0  0  0  0  0  0  0
  -28.4153  -15.5117   17.8377 C   0  0  0  0  0  0  0  0  0  0  0  0
  -19.0552  -30.2373   23.3004 C   0  0  0  0  0  0  0  0  0  0  0  0
  -17.7954  -30.5856   22.8136 C   0  0  0  0  0  0  0  0  0  0  0  0
  -27.5691  -15.1634   20.0698 C   0  0  0  0  0  0  0  0  0  0  0  0
  -16.8970  -28.5044   23.6494 C   0  0  0  0  0  0  0  0  0  0  0  0
  -29.8386  -18.7144   20.4257 C   0  0  0  0  0  0  0  0  0  0  0  0
  -31.8936  -19.4636   20.6509 C   0  0  0  0  0  0  0  0  0  0  0  0
  -23.5955  -28.3742   21.7110 C   0  0  0  0  0  0  0  0  0  0  0  0
  -24.9837  -29.1658   19.7226 C   0  0  0  0  0  0  0  0  0  0  0  0
  -21.4620  -21.2319   17.0726 C   0  0  0  0  0  0  0  0  0  0  0  0
  -26.0259  -15.6064   18.2582 C   0  0  0  0  0  0  0  0  0  0  0  0
  -22.7080  -20.6363   17.3464 C   0  0  0  0  0  0  0  0  0  0  0  0
  -26.2526  -15.3315   19.6143 C   0  0  0  0  0  0  0  0  0  0  0  0
  -31.1484  -18.3143   20.7514 C   0  0  0  0  0  0  0  0  0  0  0  0
  -21.5064  -28.5785   23.5485 C   0  0  0  0  0  0  0  0  0  0  0  0
  -28.6444  -15.2547   19.1863 C   0  0  0  0  0  0  0  0  0  0  0  0
  -19.2360  -29.0225   23.9617 C   0  0  0  0  0  0  0  0  0  0  0  0
  -16.7163  -29.7192   22.9881 C   0  0  0  0  0  0  0  0  0  0  0  0
  -18.1569  -28.1561   24.1363 C   0  0  0  0  0  0  0  0  0  0  0  0
  -24.6750  -28.2686   20.7626 C   0  0  0  0  0  0  0  0  0  0  0  0
  -26.0882  -28.6203   19.1151 C   0  0  0  0  0  0  0  0  0  0  0  0
  -24.3306  -30.3834   19.3400 C   0  0  0  0  0  0  0  0  0  0  0  0
  -23.7604  -17.6234   19.2085 C   0  0  0  0  0  0  0  0  0  0  0  0
  -22.6099  -15.0012   20.7326 C   0  0  0  0  0  0  0  0  0  0  0  0
  -23.2333  -11.9330   22.0907 C   0  0  0  0  0  0  0  0  0  0  0  0
  -30.3767  -25.1858   20.9647 C   0  0  0  0  0  0  0  0  0  0  0  0
  -20.3534  -21.2579   18.0949 C   0  0  0  0  0  0  0  0  0  0  0  0
  -24.6239  -15.7670   17.7375 C   0  0  0  0  0  0  0  0  0  0  0  0
  -25.1200  -15.2193   20.6008 C   0  0  0  0  0  0  0  0  0  0  0  0
  -20.5367  -20.2405   19.2181 C   0  0  0  0  0  0  0  0  0  0  0  0
  -28.2228  -24.4322   18.2694 C   0  0  0  0  0  0  0  0  0  0  0  0
  -21.9662  -20.2826   19.7485 C   0  0  0  0  0  0  0  0  0  0  0  0
  -27.0826  -25.4212   18.5075 C   0  0  0  0  0  0  0  0  0  0  0  0
  -28.7424  -23.8289   19.5757 C   0  0  0  0  0  0  0  0  0  0  0  0
  -27.9886  -25.8266   20.8262 C   0  0  0  0  0  0  0  0  0  0  0  0
  -22.9729  -19.9169   18.6511 C   0  0  1  0  0  0  0  0  0  0  0  0
  -23.6287  -16.1785   18.8180 C   0  0  1  0  0  0  0  0  0  0  0  0
  -27.4888  -26.4921   19.5348 C   0  0  2  0  0  0  0  0  0  0  0  0
  -22.1016  -10.0462   23.2975 C   0  0  0  0  0  0  0  0  0  0  0  0
  -33.4640  -23.3532   21.8418 C   0  0  0  0  0  0  0  0  0  0  0  0
  -33.3080  -24.6260   19.6786 C   0  0  0  0  0  0  0  0  0  0  0  0
  -22.6023  -16.6507   23.2995 C   0  0  0  0  0  0  0  0  0  0  0  0
  -22.3924  -14.5149   24.5889 C   0  0  0  0  0  0  0  0  0  0  0  0
  -20.5969  -15.1881   22.9934 C   0  0  0  0  0  0  0  0  0  0  0  0
  -23.8705  -10.0146   19.9291 C   0  0  0  0  0  0  0  0  0  0  0  0
  -31.6277  -16.9354   21.1289 C   0  0  0  0  0  0  0  0  0  0  0  0
  -32.0758  -16.0905   19.9343 C   0  0  0  0  0  0  0  0  0  0  0  0
  -31.3368  -21.8333   20.0565 C   0  0  0  0  0  0  0  0  0  0  0  0
  -30.9497  -22.7347   21.2261 C   0  0  0  0  0  0  0  0  0  0  0  0
  -30.9500  -15.7888   18.9520 C   0  0  0  0  0  0  0  0  0  1  0  0
  -22.8161  -14.3785   22.0923 C   0  0  1  0  0  0  0  0  0  0  0  0
  -22.5173  -10.6025   21.9445 C   0  0  2  0  0  0  0  0  0  0  0  0
  -32.7245  -24.4414   21.0736 C   0  0  0  0  0  0  0  0  0  0  0  0
  -22.1236  -15.1870   23.2255 C   0  0  0  0  0  0  0  0  0  0  0  0
  -29.7533  -20.0164   20.1398 N   0  0  0  0  0  0  0  0  0  0  0  0
  -25.5154  -27.2318   20.8156 N   0  0  0  0  0  0  0  0  0  0  0  0
  -31.0189  -20.4443   20.2857 N   0  0  0  0  0  0  0  0  0  0  0  0
  -26.3630  -27.4740   19.8012 N   0  0  0  0  0  0  0  0  0  0  0  0
  -23.7678  -15.3904   20.0443 N   0  0  0  0  0  0  0  0  0  0  0  0
  -29.0732  -24.8831   20.5442 N   0  0  0  0  0  0  0  0  0  0  0  0
  -26.8414  -29.0140   18.0663 N   0  0  0  0  0  0  0  0  0  0  0  0
  -23.2096  -30.7987   20.0715 N   0  0  0  0  0  0  0  0  0  0  0  0
  -22.9967  -18.4847   18.4441 N   0  0  0  0  0  0  0  0  0  0  0  0
  -22.3623  -12.9964   21.9813 N   0  0  0  0  0  0  0  0  0  0  0  0
  -31.3038  -24.1331   20.9911 N   0  0  0  0  0  0  0  0  0  0  0  0
  -23.4049   -9.6069   21.2796 N   0  3  0  0  0  0  0  0  0  0  0  0
  -24.7194  -31.0740   18.3676 O   0  0  0  0  0  0  0  0  0  0  0  0
  -24.4991  -17.9337   20.1358 O   0  0  0  0  0  0  0  0  0  0  0  0
  -21.4642  -15.1309   20.2942 O   0  0  0  0  0  0  0  0  0  0  0  0
  -24.4435  -12.0203   22.2864 O   0  0  0  0  0  0  0  0  0  0  0  0
  -30.6943  -26.3324   21.3062 O   0  0  0  0  0  0  0  0  0  0  0  0
  -20.4873  -28.6786   24.4452 O   0  0  0  0  0  0  0  0  0  0  0  0
  -29.9159  -15.0878   19.6416 O   0  0  0  0  0  0  0  0  0  1  0  0
  -15.5062  -30.0545   22.5219 F   0  0  0  0  0  0  0  0  0  0  0  0
  -18.3242  -26.9882   24.7718 F   0  0  0  0  0  0  0  0  0  0  0  0
  1  2  1  0  0  0  0
  1  5  2  0  0  0  0
  2  6  2  0  0  0  0
  3  8  2  0  0  0  0
  3 17  1  0  0  0  0
  4  9  1  0  0  0  0
  4 17  2  0  0  0  0
  5 19  1  0  0  0  0
  6 21  1  0  0  0  0
  7 10  2  0  0  0  0
  7 20  1  0  0  0  0
  8 24  1  0  0  0  0
  9 24  2  0  0  0  0
 10 25  1  0  0  0  0
 11 12  2  0  0  0  0
 11 26  1  0  0  0  0
 12 27  1  0  0  0  0
 13 22  1  0  0  0  0
 13 25  2  0  0  0  0
 14 27  2  0  0  0  0
 14 28  1  0  0  0  0
 15 23  1  0  0  0  0
 15 64  2  0  0  0  0
 16 23  2  0  0  0  0
 16 66  1  0  0  0  0
 17 29  1  0  0  0  0
 18 29  1  0  0  0  0
 18 30  2  0  0  0  0
 18 31  1  0  0  0  0
 19 21  2  0  0  0  0
 19 36  1  0  0  0  0
 20 22  2  0  0  0  0
 20 37  1  0  0  0  0
 21 45  1  0  0  0  0
 22 38  1  0  0  0  0
 23 55  1  0  0  0  0
 24 81  1  0  0  0  0
 25 82  1  0  0  0  0
 26 28  2  0  0  0  0
 26 81  1  0  0  0  0
 27 83  1  0  0  0  0
 28 84  1  0  0  0  0
 29 65  2  0  0  0  0
 30 67  1  0  0  0  0
 30 70  1  0  0  0  0
 31 71  1  0  0  0  0
 31 76  2  0  0  0  0
 32 46  1  0  0  0  0
 32 72  1  0  0  0  0
 32 77  2  0  0  0  0
 33 60  1  0  0  0  0
 33 68  1  0  0  0  0
 33 78  2  0  0  0  0
 34 61  1  0  0  0  0
 34 73  1  0  0  0  0
 34 79  2  0  0  0  0
 35 69  1  0  0  0  0
 35 74  1  0  0  0  0
 35 80  2  0  0  0  0
 36 39  1  0  0  0  0
 37 46  1  0  0  0  0
 38 68  1  0  0  0  0
 39 41  1  0  0  0  0
 40 42  1  0  0  0  0
 40 43  1  0  0  0  0
 41 45  1  0  0  0  0
 42 47  1  0  0  0  0
 43 69  1  0  0  0  0
 44 47  1  0  0  0  0
 44 69  1  0  0  0  0
 45 72  1  0  0  0  0
 46 68  1  0  0  0  0
 47 67  1  0  0  0  0
 48 61  1  0  0  0  0
 49 62  1  0  0  0  0
 50 62  1  0  0  0  0
 51 63  1  0  0  0  0
 52 63  1  0  0  0  0
 53 63  1  0  0  0  0
 54 75  1  0  0  0  0
 55 56  1  0  0  0  0
 56 59  1  0  0  0  0
 57 58  1  0  0  0  0
 57 66  1  0  0  0  0
 58 74  1  0  0  0  0
 59 82  1  0  0  0  0
 60 63  1  0  0  0  0
 60 73  1  0  0  0  0
 61 75  1  0  0  0  0
 62 74  1  0  0  0  0
 64 66  1  0  0  0  0
 65 67  1  0  0  0  0
M  CHG  1  75   1
M  ISO  4  35 100  59 101  74 100  82 101
M  END
> <Batch ID>
0055

> <Smiles>
CNC(C)C(=O)NC(C(=O)N1Cc2cc([101O:1][101CH2:1]CCc3cnn(CC[100N:0](C(C)C)[100C:0](=O)N4CCCC(n5nc(-c6ccc(Oc7ccc(F)cc7F)cc6)c(C(N)=O)c5N)C4)c3)ccc2CC1C(=O)NC1CCCc2ccccc21)C(C)(C)C

> <Shape>
0.209

> <Color>
0.071

> <Negative vol penalty>
0.000

$$$$

  -OEChem-04052317433D

 80 88  0     1  0  0  0  0  0999 V2000
  -21.6915  -11.9661   21.1535 C   0  0  0  0  0  0  0  0  0  0  0  0
  -21.7153  -13.2975   21.5561 C   0  0  0  0  0  0  0  0  0  0  0  0
  -24.6867  -29.1296   19.5057 C   0  0  0  0  0  0  0  0  0  0  0  0
  -25.2513  -27.4455   21.1434 C   0  0  0  0  0  0  0  0  0  0  0  0
  -22.8742  -11.3324   20.7745 C   0  0  0  0  0  0  0  0  0  0  0  0
  -22.9220  -13.9958   21.5811 C   0  0  0  0  0  0  0  0  0  0  0  0
  -22.5264  -18.6306   19.5793 C   0  0  0  0  0  0  0  0  0  0  0  0
  -26.0211  -29.5334   19.4609 C   0  0  0  0  0  0  0  0  0  0  0  0
  -26.5857  -27.8492   21.0986 C   0  0  0  0  0  0  0  0  0  0  0  0
  -21.9462  -19.6194   20.3726 C   0  0  0  0  0  0  0  0  0  0  0  0
  -30.2043  -28.1973   21.1481 C   0  0  0  0  0  0  0  0  0  0  0  0
  -31.1812  -27.2041   21.0789 C   0  0  0  0  0  0  0  0  0  0  0  0
  -24.1407  -20.4505   20.9313 C   0  0  0  0  0  0  0  0  0  0  0  0
  -30.2326  -26.4157   19.0015 C   0  0  0  0  0  0  0  0  0  0  0  0
  -20.3437  -24.1985   24.3661 C   0  0  0  0  0  0  0  0  0  0  0  0
  -24.3018  -28.0856   20.3470 C   0  0  0  0  0  0  0  0  0  0  0  0
  -22.3048  -26.6862   19.5977 C   0  0  0  0  0  0  0  0  0  0  0  0
  -24.0946  -12.0261   20.7856 C   0  0  0  0  0  0  0  0  0  0  0  0
  -23.9209  -18.5374   19.4645 C   0  0  0  0  0  0  0  0  0  0  0  0
  -24.1224  -13.3704   21.2032 C   0  0  0  0  0  0  0  0  0  0  0  0
  -24.7361  -19.4612   20.1339 C   0  0  0  0  0  0  0  0  0  0  0  0
  -26.9706  -28.8932   20.2573 C   0  0  0  0  0  0  0  0  0  0  0  0
  -22.7534  -20.5277   21.0511 C   0  0  0  0  0  0  0  0  0  0  0  0
  -29.2415  -28.2997   20.1439 C   0  0  0  0  0  0  0  0  0  0  0  0
  -31.1954  -26.3133   20.0057 C   0  0  0  0  0  0  0  0  0  0  0  0
  -29.2557  -27.4089   19.0707 C   0  0  0  0  0  0  0  0  0  0  0  0
  -22.9235  -27.6684   20.3942 C   0  0  0  0  0  0  0  0  0  0  0  0
  -19.1848  -24.3321   23.6549 C   0  0  0  0  0  0  0  0  0  0  0  0
  -21.0007  -26.6664   20.0282 C   0  0  0  0  0  0  0  0  0  0  0  0
  -20.3391  -22.6621   22.7723 C   0  0  0  0  0  0  0  0  0  0  0  0
  -22.8595  -25.8651   18.5614 C   0  0  0  0  0  0  0  0  0  0  0  0
  -26.0895  -16.3319   20.1971 C   0  0  0  0  0  0  0  0  0  0  0  0
  -28.1083  -18.3765   18.6915 C   0  0  0  0  0  0  0  0  0  0  0  0
  -29.3438  -21.6711   17.8937 C   0  0  0  0  0  0  0  0  0  0  0  0
  -18.2655  -27.3623   25.2357 C   0  0  0  0  0  0  0  0  0  0  0  0
  -25.3542  -11.2851   20.4126 C   0  0  0  0  0  0  0  0  0  0  0  0
  -24.5305  -17.4817   18.5835 C   0  0  0  0  0  0  0  0  0  0  0  0
  -26.2379  -19.4167   20.0276 C   0  0  0  0  0  0  0  0  0  0  0  0
  -26.5344  -12.2045   20.1090 C   0  0  0  0  0  0  0  0  0  0  0  0
  -18.0696  -29.8048   22.4612 C   0  0  0  0  0  0  0  0  0  0  0  0
  -26.6596  -13.2837   21.1797 C   0  0  0  0  0  0  0  0  0  0  0  0
  -19.2911  -29.4475   21.6160 C   0  0  0  0  0  0  0  0  0  0  0  0
  -18.2769  -29.4583   23.9325 C   0  0  0  0  0  0  0  0  0  0  0  0
  -19.8880  -27.6842   23.3233 C   0  0  0  0  0  0  0  0  0  0  0  0
  -25.4079  -14.1686   21.2200 C   0  0  1  0  0  0  0  0  0  0  0  0
  -25.9765  -17.1605   18.9487 C   0  0  1  0  0  0  0  0  0  0  0  0
  -19.6940  -27.9778   21.8281 C   0  0  2  0  0  0  0  0  0  0  0  0
  -31.1820  -22.3936   16.3456 C   0  0  0  0  0  0  0  0  0  0  0  0
  -29.8520  -18.2999   21.1943 C   0  0  0  0  0  0  0  0  0  0  0  0
  -31.0186  -20.3520   20.3597 C   0  0  0  0  0  0  0  0  0  0  0  0
  -31.1181  -18.2384   19.0384 C   0  0  0  0  0  0  0  0  0  0  0  0
  -18.1725  -23.1466   21.6838 C   0  0  0  0  0  0  0  0  0  0  0  0
  -17.6323  -25.2027   26.2430 C   0  0  0  0  0  0  0  0  0  0  0  0
  -27.5347  -23.4755   16.4002 C   0  0  0  0  0  0  0  0  0  0  0  0
  -18.0723  -25.2762   23.8167 C   0  0  0  0  0  0  0  0  0  0  0  0
  -20.7647  -21.5179   21.9000 C   0  0  0  0  0  0  0  0  0  1  0  0
  -28.9576  -19.5490   19.1192 C   0  0  1  0  0  0  0  0  0  0  0  0
  -29.6823  -22.2052   16.5136 C   0  0  2  0  0  0  0  0  0  0  0  0
  -30.2084  -19.1097   19.9317 C   0  0  0  0  0  0  0  0  0  0  0  0
  -22.0815  -28.2319   21.2646 N   0  0  0  0  0  0  0  0  0  0  0  0
  -19.2086  -23.3693   22.6749 N   0  0  0  0  0  0  0  0  0  0  0  0
  -20.9205  -27.6018   21.0175 N   0  0  0  0  0  0  0  0  0  0  0  0
  -21.0384  -23.1577   23.7984 N   0  3  0  0  0  0  0  0  0  0  0  0
  -26.7865  -18.3621   19.1590 N   0  0  0  0  0  0  0  0  0  0  0  0
  -18.7012  -28.0682   24.1022 N   0  0  0  0  0  0  0  0  0  0  0  0
  -19.9262  -25.9404   19.6531 N   0  0  0  0  0  0  0  0  0  0  0  0
  -24.2168  -26.0140   18.2455 N   0  0  0  0  0  0  0  0  0  0  0  0
  -25.4270  -15.1211   20.1305 N   0  0  0  0  0  0  0  0  0  0  0  0
  -29.2661  -20.2945   17.9037 N   0  0  0  0  0  0  0  0  0  0  0  0
  -18.0935  -25.9765   25.0991 N   0  0  0  0  0  0  0  0  0  0  0  0
  -29.0155  -23.5188   16.2886 N   0  3  0  0  0  0  0  0  0  0  0  0
  -22.1679  -25.0359   17.9230 O   0  0  0  0  0  0  0  0  0  0  0  0
  -26.7316  -16.7588   21.1495 O   0  0  0  0  0  0  0  0  0  0  0  0
  -28.5975  -17.5092   17.9635 O   0  0  0  0  0  0  0  0  0  0  0  0
  -29.1696  -22.4019   18.8664 O   0  0  0  0  0  0  0  0  0  0  0  0
  -18.0339  -27.9394   26.3059 O   0  0  0  0  0  0  0  0  0  0  0  0
  -28.2728  -29.2868   20.2136 O   0  0  0  0  0  0  0  0  0  0  0  0
  -22.1896  -21.4935   21.8266 O   0  0  0  0  0  0  0  0  0  1  0  0
  -32.1345  -25.3605   19.9386 F   0  0  0  0  0  0  0  0  0  0  0  0
  -28.3341  -27.5030   18.1024 F   0  0  0  0  0  0  0  0  0  0  0  0
  1  2  1  0  0  0  0
  1  5  2  0  0  0  0
  2  6  2  0  0  0  0
  3  8  2  0  0  0  0
  3 16  1  0  0  0  0
  4  9  1  0  0  0  0
  4 16  2  0  0  0  0
  5 18  1  0  0  0  0
  6 20  1  0  0  0  0
  7 10  2  0  0  0  0
  7 19  1  0  0  0  0
  8 22  1  0  0  0  0
  9 22  2  0  0  0  0
 10 23  1  0  0  0  0
 11 12  2  0  0  0  0
 11 24  1  0  0  0  0
 12 25  1  0  0  0  0
 13 21  1  0  0  0  0
 13 23  2  0  0  0  0
 14 25  2  0  0  0  0
 14 26  1  0  0  0  0
 15 28  2  0  0  0  0
 15 63  1  0  0  0  0
 16 27  1  0  0  0  0
 17 27  1  0  0  0  0
 17 29  2  0  0  0  0
 17 31  1  0  0  0  0
 18 20  2  0  0  0  0
 18 36  1  0  0  0  0
 19 21  2  0  0  0  0
 19 37  1  0  0  0  0
 20 45  1  0  0  0  0
 21 38  1  0  0  0  0
 22 77  1  0  0  0  0
 23 78  1  0  0  0  0
 24 26  2  0  0  0  0
 24 77  1  0  0  0  0
 25 79  1  0  0  0  0
 26 80  1  0  0  0  0
 27 60  2  0  0  0  0
 28 55  1  0  0  0  0
 28 61  1  0  0  0  0
 29 62  1  0  0  0  0
 29 66  1  0  0  0  0
 30 56  1  0  0  0  0
 30 61  1  0  0  0  0
 30 63  2  0  0  0  0
 31 67  1  0  0  0  0
 31 72  2  0  0  0  0
 32 46  1  0  0  0  0
 32 68  1  0  0  0  0
 32 73  2  0  0  0  0
 33 57  1  0  0  0  0
 33 64  1  0  0  0  0
 33 74  2  0  0  0  0
 34 58  1  0  0  0  0
 34 69  1  0  0  0  0
 34 75  2  0  0  0  0
 35 65  1  0  0  0  0
 35 70  1  0  0  0  0
 35 76  2  0  0  0  0
 36 39  1  0  0  0  0
 37 46  1  0  0  0  0
 38 64  1  0  0  0  0
 39 41  1  0  0  0  0
 40 42  1  0  0  0  0
 40 43  1  0  0  0  0
 41 45  1  0  0  0  0
 42 47  1  0  0  0  0
 43 65  1  0  0  0  0
 44 47  1  0  0  0  0
 44 65  1  0  0  0  0
 45 68  1  0  0  0  0
 46 64  1  0  0  0  0
 47 62  1  0  0  0  0
 48 58  1  0  0  0  0
 49 59  1  0  0  0  0
 50 59  1  0  0  0  0
 51 59  1  0  0  0  0
 52 61  1  0  0  0  0
 53 70  1  0  0  0  0
 54 71  1  0  0  0  0
 55 70  1  0  0  0  0
 56 78  1  0  0  0  0
 57 59  1  0  0  0  0
 57 69  1  0  0  0  0
 58 71  1  0  0  0  0
 60 62  1  0  0  0  0
M  CHG  2  63   1  71   1
M  ISO  4  35 100  56 101  70 100  78 101
M  END
> <Batch ID>
0055

> <Smiles>
CNC(C)C(=O)NC(C(=O)N1Cc2cc([101O:1][101CH2:1]c3ncc(C[100N:0](C)[100C:0](=O)N4CCCC(n5nc(-c6ccc(Oc7ccc(F)cc7F)cc6)c(C(N)=O)c5N)C4)n3C)ccc2CC1C(=O)NC1CCCc2ccccc21)C(C)(C)C

> <Shape>
0.219

> <Color>
0.073

> <Negative vol penalty>
0.000

$$$$

  -OEChem-04052317433D

 82 90  0     1  0  0  0  0  0999 V2000
  -20.6042  -34.2764   21.1254 C   0  0  0  0  0  0  0  0  0  0  0  0
  -21.8148  -33.6516   20.8435 C   0  0  0  0  0  0  0  0  0  0  0  0
  -28.4971  -11.0871   22.0419 C   0  0  0  0  0  0  0  0  0  0  0  0
  -27.1730  -11.9367   20.2082 C   0  0  0  0  0  0  0  0  0  0  0  0
  -19.7489  -33.7359   22.0847 C   0  0  0  0  0  0  0  0  0  0  0  0
  -22.1713  -32.4865   21.5215 C   0  0  0  0  0  0  0  0  0  0  0  0
  -25.3285  -27.7419   19.2794 C   0  0  0  0  0  0  0  0  0  0  0  0
  -27.6397   -9.9927   22.1539 C   0  0  0  0  0  0  0  0  0  0  0  0
  -26.3156  -10.8422   20.3202 C   0  0  0  0  0  0  0  0  0  0  0  0
  -26.6728  -27.3833   19.3692 C   0  0  0  0  0  0  0  0  0  0  0  0
  -23.7577   -9.8745   22.3081 C   0  0  0  0  0  0  0  0  0  0  0  0
  -22.3852  -10.1192   22.2634 C   0  0  0  0  0  0  0  0  0  0  0  0
  -26.1549  -25.9289   21.2227 C   0  0  0  0  0  0  0  0  0  0  0  0
  -22.1965   -8.7043   20.3142 C   0  0  0  0  0  0  0  0  0  0  0  0
  -28.5740  -21.9558   18.8062 C   0  0  0  0  0  0  0  0  0  0  0  0
  -28.2637  -12.0592   21.0690 C   0  0  0  0  0  0  0  0  0  0  0  0
  -30.3078  -13.2850   20.1598 C   0  0  0  0  0  0  0  0  0  0  0  0
  -20.0907  -32.5582   22.7680 C   0  0  0  0  0  0  0  0  0  0  0  0
  -24.3875  -27.2041   20.1691 C   0  0  0  0  0  0  0  0  0  0  0  0
  -21.3204  -31.9304   22.4918 C   0  0  0  0  0  0  0  0  0  0  0  0
  -24.7988  -26.2804   21.1405 C   0  0  0  0  0  0  0  0  0  0  0  0
  -26.5490   -9.8702   21.2931 C   0  0  0  0  0  0  0  0  0  0  0  0
  -27.0866  -26.4789   20.3427 C   0  0  0  0  0  0  0  0  0  0  0  0
  -24.3496   -9.0448   21.3558 C   0  0  0  0  0  0  0  0  0  0  0  0
  -21.6046   -9.5341   21.2664 C   0  0  0  0  0  0  0  0  0  0  0  0
  -23.5690   -8.4596   20.3589 C   0  0  0  0  0  0  0  0  0  0  0  0
  -29.1488  -13.1903   20.9531 C   0  0  0  0  0  0  0  0  0  0  0  0
  -28.9772  -21.2240   19.9013 C   0  0  0  0  0  0  0  0  0  0  0  0
  -29.8227  -23.7291   19.5314 C   0  0  0  0  0  0  0  0  0  0  0  0
  -30.2254  -22.9976   20.6270 C   0  0  0  0  0  0  0  0  0  0  0  0
  -30.7857  -14.5501   20.3998 C   0  0  0  0  0  0  0  0  0  0  0  0
  -30.8996  -12.3160   19.2842 C   0  0  0  0  0  0  0  0  0  0  0  0
  -22.4362  -28.4101   22.3696 C   0  0  0  0  0  0  0  0  0  0  0  0
  -21.3551  -25.3556   22.5241 C   0  0  0  0  0  0  0  0  0  0  0  0
  -21.9673  -22.0365   22.0183 C   0  0  0  0  0  0  0  0  0  0  0  0
  -27.7363  -19.4417   22.4761 C   0  0  0  0  0  0  0  0  0  0  0  0
  -19.1553  -32.0376   23.8303 C   0  0  0  0  0  0  0  0  0  0  0  0
  -22.9368  -27.5807   20.0420 C   0  0  0  0  0  0  0  0  0  0  0  0
  -23.8248  -25.6589   22.1067 C   0  0  0  0  0  0  0  0  0  0  0  0
  -19.4377  -30.5934   24.2361 C   0  0  0  0  0  0  0  0  0  0  0  0
  -30.8794  -17.9576   23.7487 C   0  0  0  0  0  0  0  0  0  0  0  0
  -20.9309  -30.3866   24.4694 C   0  0  0  0  0  0  0  0  0  0  0  0
  -30.8447  -16.5483   23.1598 C   0  0  0  0  0  0  0  0  0  0  0  0
  -29.4764  -18.5177   23.9625 C   0  0  0  0  0  0  0  0  0  0  0  0
  -28.5910  -17.0842   22.1527 C   0  0  0  0  0  0  0  0  0  0  0  0
  -21.7312  -30.6513   23.1884 C   0  0  1  0  0  0  0  0  0  0  0  0
  -22.1482  -27.3642   21.3299 C   0  0  1  0  0  0  0  0  0  0  0  0
  -29.9892  -16.5088   21.8816 C   0  0  2  0  0  0  0  0  0  0  0  0
  -20.9066  -19.7766   22.2730 C   0  0  0  0  0  0  0  0  0  0  0  0
  -21.8512  -25.4645   25.5327 C   0  0  0  0  0  0  0  0  0  0  0  0
  -21.6950  -22.9662   25.5785 C   0  0  0  0  0  0  0  0  0  0  0  0
  -19.7276  -24.3242   24.8662 C   0  0  0  0  0  0  0  0  0  0  0  0
  -26.1567  -20.2295   20.7544 C   0  0  0  0  0  0  0  0  0  0  0  0
  -22.1355  -21.5017   19.1123 C   0  0  0  0  0  0  0  0  0  0  0  0
  -30.3076  -25.1440   19.3288 C   0  0  0  0  0  0  0  0  0  0  0  0
  -28.4994  -19.8273   20.0946 C   0  0  0  0  0  0  0  0  0  0  0  0
  -29.1589  -26.1414   19.2256 C   0  0  0  0  0  0  0  0  0  1  0  0
  -21.7230  -24.1306   23.3259 C   0  0  1  0  0  0  0  0  0  0  0  0
  -21.1483  -20.9531   21.3402 C   0  0  2  0  0  0  0  0  0  0  0  0
  -21.2681  -24.2344   24.8090 C   0  0  0  0  0  0  0  0  0  0  0  0
  -28.9895  -23.2215   18.6015 N   0  0  0  0  0  0  0  0  0  0  0  0
  -28.9051  -14.3063   21.6454 N   0  0  0  0  0  0  0  0  0  0  0  0
  -29.8101  -21.7317   20.8314 N   0  0  0  0  0  0  0  0  0  0  0  0
  -29.9178  -15.1142   21.2879 N   0  0  0  0  0  0  0  0  0  0  0  0
  -22.4184  -26.0637   21.9462 N   0  0  0  0  0  0  0  0  0  0  0  0
  -28.6711  -18.4283   22.7440 N   0  0  0  0  0  0  0  0  0  0  0  0
  -31.8595  -15.2239   19.9357 N   0  0  0  0  0  0  0  0  0  0  0  0
  -30.2791  -11.0661   19.1541 N   0  0  0  0  0  0  0  0  0  0  0  0
  -21.6255  -29.5259   22.2848 N   0  0  0  0  0  0  0  0  0  0  0  0
  -21.1645  -22.9899   22.6080 N   0  0  0  0  0  0  0  0  0  0  0  0
  -27.4713  -19.7273   21.1281 N   0  0  0  0  0  0  0  0  0  0  0  0
  -21.8543  -20.4533   20.1266 N   0  3  0  0  0  0  0  0  0  0  0  0
  -31.9566  -12.5459   18.6490 O   0  0  0  0  0  0  0  0  0  0  0  0
  -23.3269  -28.2182   23.1891 O   0  0  0  0  0  0  0  0  0  0  0  0
  -20.1675  -25.6685   22.4085 O   0  0  0  0  0  0  0  0  0  0  0  0
  -23.1963  -22.0351   22.0274 O   0  0  0  0  0  0  0  0  0  0  0  0
  -27.1778  -20.0627   23.3895 O   0  0  0  0  0  0  0  0  0  0  0  0
  -25.7122   -8.8022   21.4020 O   0  0  0  0  0  0  0  0  0  0  0  0
  -28.3983  -26.1277   20.4330 O   0  0  0  0  0  0  0  0  0  1  0  0
  -20.2864   -9.7679   21.2245 F   0  0  0  0  0  0  0  0  0  0  0  0
  -24.1318   -7.6606   19.4420 F   0  0  0  0  0  0  0  0  0  0  0  0
  -31.0581  -23.5397   21.5278 F   0  0  0  0  0  0  0  0  0  0  0  0
  1  2  1  0  0  0  0
  1  5  2  0  0  0  0
  2  6  2  0  0  0  0
  3  8  2  0  0  0  0
  3 16  1  0  0  0  0
  4  9  1  0  0  0  0
  4 16  2  0  0  0  0
  5 18  1  0  0  0  0
  6 20  1  0  0  0  0
  7 10  2  0  0  0  0
  7 19  1  0  0  0  0
  8 22  1  0  0  0  0
  9 22  2  0  0  0  0
 10 23  1  0  0  0  0
 11 12  2  0  0  0  0
 11 24  1  0  0  0  0
 12 25  1  0  0  0  0
 13 21  1  0  0  0  0
 13 23  2  0  0  0  0
 14 25  2  0  0  0  0
 14 26  1  0  0  0  0
 15 28  1  0  0  0  0
 15 61  2  0  0  0  0
 16 27  1  0  0  0  0
 17 27  1  0  0  0  0
 17 31  2  0  0  0  0
 17 32  1  0  0  0  0
 18 20  2  0  0  0  0
 18 37  1  0  0  0  0
 19 21  2  0  0  0  0
 19 38  1  0  0  0  0
 20 46  1  0  0  0  0
 21 39  1  0  0  0  0
 22 78  1  0  0  0  0
 23 79  1  0  0  0  0
 24 26  2  0  0  0  0
 24 78  1  0  0  0  0
 25 80  1  0  0  0  0
 26 81  1  0  0  0  0
 27 62  2  0  0  0  0
 28 56  1  0  0  0  0
 28 63  2  0  0  0  0
 29 30  2  0  0  0  0
 29 55  1  0  0  0  0
 29 61  1  0  0  0  0
 30 63  1  0  0  0  0
 30 82  1  0  0  0  0
 31 64  1  0  0  0  0
 31 67  1  0  0  0  0
 32 68  1  0  0  0  0
 32 73  2  0  0  0  0
 33 47  1  0  0  0  0
 33 69  1  0  0  0  0
 33 74  2  0  0  0  0
 34 58  1  0  0  0  0
 34 65  1  0  0  0  0
 34 75  2  0  0  0  0
 35 59  1  0  0  0  0
 35 70  1  0  0  0  0
 35 76  2  0  0  0  0
 36 66  1  0  0  0  0
 36 71  1  0  0  0  0
 36 77  2  0  0  0  0
 37 40  1  0  0  0  0
 38 47  1  0  0  0  0
 39 65  1  0  0  0  0
 40 42  1  0  0  0  0
 41 43  1  0  0  0  0
 41 44  1  0  0  0  0
 42 46  1  0  0  0  0
 43 48  1  0  0  0  0
 44 66  1  0  0  0  0
 45 48  1  0  0  0  0
 45 66  1  0  0  0  0
 46 69  1  0  0  0  0
 47 65  1  0  0  0  0
 48 64  1  0  0  0  0
 49 59  1  0  0  0  0
 50 60  1  0  0  0  0
 51 60  1  0  0  0  0
 52 60  1  0  0  0  0
 53 71  1  0  0  0  0
 54 72  1  0  0  0  0
 55 57  1  0  0  0  0
 56 71  1  0  0  0  0
 57 79  1  0  0  0  0
 58 60  1  0  0  0  0
 58 70  1  0  0  0  0
 59 72  1  0  0  0  0
 62 64  1  0  0  0  0
M  CHG  1  72   1
M  ISO  4  36 100  57 101  71 100  79 101
M  END
> <Batch ID>
0055

> <Smiles>
CNC(C)C(=O)NC(C(=O)N1Cc2cc([101O:1][101CH2:1]Cc3ncc(C[100N:0](C)[100C:0](=O)N4CCCC(n5nc(-c6ccc(Oc7ccc(F)cc7F)cc6)c(C(N)=O)c5N)C4)nc3F)ccc2CC1C(=O)NC1CCCc2ccccc21)C(C)(C)C

> <Shape>
0.236

> <Color>
0.099

> <Negative vol penalty>
0.000

$$$$

  -OEChem-04052317433D

 84 92  0     1  0  0  0  0  0999 V2000
  -34.7943  -31.5430   18.0279 C   0  0  0  0  0  0  0  0  0  0  0  0
  -33.6713  -30.7721   17.7449 C   0  0  0  0  0  0  0  0  0  0  0  0
  -26.2599  -12.7483   21.7090 C   0  0  0  0  0  0  0  0  0  0  0  0
  -25.8269  -13.6615   19.5145 C   0  0  0  0  0  0  0  0  0  0  0  0
  -35.0000  -32.0250   19.3199 C   0  0  0  0  0  0  0  0  0  0  0  0
  -32.7538  -30.4820   18.7541 C   0  0  0  0  0  0  0  0  0  0  0  0
  -26.6846  -29.9177   18.1610 C   0  0  0  0  0  0  0  0  0  0  0  0
  -25.0665  -12.0290   21.6451 C   0  0  0  0  0  0  0  0  0  0  0  0
  -24.6336  -12.9421   19.4506 C   0  0  0  0  0  0  0  0  0  0  0  0
  -25.8538  -28.8052   18.0351 C   0  0  0  0  0  0  0  0  0  0  0  0
  -22.3114   -9.6720   21.9084 C   0  0  0  0  0  0  0  0  0  0  0  0
  -22.3369   -8.3366   22.3102 C   0  0  0  0  0  0  0  0  0  0  0  0
  -25.4341  -28.8573   20.4100 C   0  0  0  0  0  0  0  0  0  0  0  0
  -23.9694   -7.8520   20.5963 C   0  0  0  0  0  0  0  0  0  0  0  0
  -26.2788  -22.7955   21.3510 C   0  0  0  0  0  0  0  0  0  0  0  0
  -26.6400  -13.5646   20.6437 C   0  0  0  0  0  0  0  0  0  0  0  0
  -29.1449  -13.8846   20.2817 C   0  0  0  0  0  0  0  0  0  0  0  0
  -34.0796  -31.7487   20.3432 C   0  0  0  0  0  0  0  0  0  0  0  0
  -26.9053  -30.5028   19.4161 C   0  0  0  0  0  0  0  0  0  0  0  0
  -32.9481  -30.9596   20.0613 C   0  0  0  0  0  0  0  0  0  0  0  0
  -26.2661  -29.9788   20.5488 C   0  0  0  0  0  0  0  0  0  0  0  0
  -24.2534  -12.1258   20.5159 C   0  0  0  0  0  0  0  0  0  0  0  0
  -25.2307  -28.2730   19.1601 C   0  0  0  0  0  0  0  0  0  0  0  0
  -23.1148  -10.0975   20.8504 C   0  0  0  0  0  0  0  0  0  0  0  0
  -23.1659   -7.4266   21.6543 C   0  0  0  0  0  0  0  0  0  0  0  0
  -23.9438   -9.1875   20.1945 C   0  0  0  0  0  0  0  0  0  0  0  0
  -27.8724  -14.3084   20.7093 C   0  0  0  0  0  0  0  0  0  0  0  0
  -25.2202  -23.6922   21.5903 C   0  0  0  0  0  0  0  0  0  0  0  0
  -27.1725  -23.0411   22.3647 C   0  0  0  0  0  0  0  0  0  0  0  0
  -29.9715  -14.9458   20.5593 C   0  0  0  0  0  0  0  0  0  0  0  0
  -29.5441  -12.6427   19.6867 C   0  0  0  0  0  0  0  0  0  0  0  0
  -29.4532  -30.9604   21.2608 C   0  0  0  0  0  0  0  0  0  0  0  0
  -27.3516  -32.6331   23.0795 C   0  0  0  0  0  0  0  0  0  0  0  0
  -24.1109  -33.1801   23.9991 C   0  0  0  0  0  0  0  0  0  0  0  0
  -29.1246  -20.6655   20.9786 C   0  0  0  0  0  0  0  0  0  0  0  0
  -34.3689  -32.2519   21.7352 C   0  0  0  0  0  0  0  0  0  0  0  0
  -27.7831  -31.7188   19.5311 C   0  0  0  0  0  0  0  0  0  0  0  0
  -26.4541  -30.5823   21.9158 C   0  0  0  0  0  0  0  0  0  0  0  0
  -33.1559  -32.2134   22.6613 C   0  0  0  0  0  0  0  0  0  0  0  0
  -30.4619  -18.6413   23.5450 C   0  0  0  0  0  0  0  0  0  0  0  0
  -32.4397  -30.8714   22.5472 C   0  0  0  0  0  0  0  0  0  0  0  0
  -30.0629  -17.2454   23.0683 C   0  0  0  0  0  0  0  0  0  0  0  0
  -29.3557  -19.6696   23.3016 C   0  0  0  0  0  0  0  0  0  0  0  0
  -28.4780  -18.3170   21.4247 C   0  0  0  0  0  0  0  0  0  0  0  0
  -31.9173  -30.6442   21.1235 C   0  0  1  0  0  0  0  0  0  0  0  0
  -28.3439  -31.9203   20.9355 C   0  0  1  0  0  0  0  0  0  0  0  0
  -29.5951  -17.2772   21.6030 C   0  0  2  0  0  0  0  0  0  0  0  0
  -22.7094  -34.5855   25.5347 C   0  0  0  0  0  0  0  0  0  0  0  0
  -28.6754  -23.6522   19.7718 C   0  0  0  0  0  0  0  0  0  0  0  0
  -30.4432  -24.0745   21.5096 C   0  0  0  0  0  0  0  0  0  0  0  0
  -28.2192  -30.9107   25.4439 C   0  0  0  0  0  0  0  0  0  0  0  0
  -26.1735  -31.6797   26.6653 C   0  0  0  0  0  0  0  0  0  0  0  0
  -27.9088  -33.3343   25.9771 C   0  0  0  0  0  0  0  0  0  0  0  0
  -27.1770  -24.6371   24.3055 C   0  0  0  0  0  0  0  0  0  0  0  0
  -22.6403  -34.3933   21.7354 C   0  0  0  0  0  0  0  0  0  0  0  0
  -23.9592  -23.8618   20.7812 C   0  0  0  0  0  0  0  0  0  0  0  0
  -28.4794  -22.4318   22.6723 C   0  0  0  0  0  0  0  0  0  0  0  0
  -24.0826  -24.8929   19.6572 C   0  0  0  0  0  0  0  0  0  0  0  0
  -24.3413  -26.3078   20.1616 C   0  0  0  0  0  0  0  0  0  1  0  0
  -26.4188  -32.2967   24.2178 C   0  0  1  0  0  0  0  0  0  0  0  0
  -23.3066  -34.4596   24.1417 C   0  0  2  0  0  0  0  0  0  0  0  0
  -29.7547  -23.0257   20.6457 C   0  0  0  0  0  0  0  0  0  0  0  0
  -27.1779  -32.0426   25.5507 C   0  0  0  0  0  0  0  0  0  0  0  0
  -27.8845  -15.5425   21.2199 N   0  0  0  0  0  0  0  0  0  0  0  0
  -25.4212  -24.4506   22.6712 N   0  0  0  0  0  0  0  0  0  0  0  0
  -26.6164  -24.0310   23.1202 N   0  0  0  0  0  0  0  0  0  0  0  0
  -29.1749  -15.9033   21.1150 N   0  0  0  0  0  0  0  0  0  0  0  0
  -27.3268  -31.7664   21.9777 N   0  0  0  0  0  0  0  0  0  0  0  0
  -28.9058  -19.6338   21.9034 N   0  0  0  0  0  0  0  0  0  0  0  0
  -31.2947  -15.1440   20.3799 N   0  0  0  0  0  0  0  0  0  0  0  0
  -28.5676  -11.6606   19.4715 N   0  0  0  0  0  0  0  0  0  0  0  0
  -30.7093  -31.4093   20.9002 N   0  0  0  0  0  0  0  0  0  0  0  0
  -25.4453  -33.3815   24.2820 N   0  0  0  0  0  0  0  0  0  0  0  0
  -29.1902  -21.9741   21.4800 N   0  0  0  0  0  0  0  0  0  0  0  0
  -22.1948  -34.4858   23.1496 N   0  3  0  0  0  0  0  0  0  0  0  0
  -30.7344  -12.4045   19.3707 O   0  0  0  0  0  0  0  0  0  0  0  0
  -29.1891  -29.8923   21.8004 O   0  0  0  0  0  0  0  0  0  0  0  0
  -28.0704  -33.6322   23.1618 O   0  0  0  0  0  0  0  0  0  0  0  0
  -23.6053  -32.1083   23.6732 O   0  0  0  0  0  0  0  0  0  0  0  0
  -29.2469  -20.4323   19.7691 O   0  0  0  0  0  0  0  0  0  0  0  0
  -23.0890  -11.4238   20.4532 O   0  0  0  0  0  0  0  0  0  0  0  0
  -24.4199  -27.1867   19.0401 O   0  0  0  0  0  0  0  0  0  1  0  0
  -23.1914   -6.1445   22.0413 F   0  0  0  0  0  0  0  0  0  0  0  0
  -24.7188   -9.5906   19.1782 F   0  0  0  0  0  0  0  0  0  0  0  0
  1  2  1  0  0  0  0
  1  5  2  0  0  0  0
  2  6  2  0  0  0  0
  3  8  2  0  0  0  0
  3 16  1  0  0  0  0
  4  9  1  0  0  0  0
  4 16  2  0  0  0  0
  5 18  1  0  0  0  0
  6 20  1  0  0  0  0
  7 10  2  0  0  0  0
  7 19  1  0  0  0  0
  8 22  1  0  0  0  0
  9 22  2  0  0  0  0
 10 23  1  0  0  0  0
 11 12  2  0  0  0  0
 11 24  1  0  0  0  0
 12 25  1  0  0  0  0
 13 21  1  0  0  0  0
 13 23  2  0  0  0  0
 14 25  2  0  0  0  0
 14 26  1  0  0  0  0
 15 28  1  0  0  0  0
 15 29  2  0  0  0  0
 16 27  1  0  0  0  0
 17 27  1  0  0  0  0
 17 30  2  0  0  0  0
 17 31  1  0  0  0  0
 18 20  2  0  0  0  0
 18 36  1  0  0  0  0
 19 21  2  0  0  0  0
 19 37  1  0  0  0  0
 20 45  1  0  0  0  0
 21 38  1  0  0  0  0
 22 81  1  0  0  0  0
 23 82  1  0  0  0  0
 24 26  2  0  0  0  0
 24 81  1  0  0  0  0
 25 83  1  0  0  0  0
 26 84  1  0  0  0  0
 27 64  2  0  0  0  0
 28 56  1  0  0  0  0
 28 65  2  0  0  0  0
 29 57  1  0  0  0  0
 29 66  1  0  0  0  0
 30 67  1  0  0  0  0
 30 70  1  0  0  0  0
 31 71  1  0  0  0  0
 31 76  2  0  0  0  0
 32 46  1  0  0  0  0
 32 72  1  0  0  0  0
 32 77  2  0  0  0  0
 33 60  1  0  0  0  0
 33 68  1  0  0  0  0
 33 78  2  0  0  0  0
 34 61  1  0  0  0  0
 34 73  1  0  0  0  0
 34 79  2  0  0  0  0
 35 69  1  0  0  0  0
 35 74  1  0  0  0  0
 35 80  2  0  0  0  0
 36 39  1  0  0  0  0
 37 46  1  0  0  0  0
 38 68  1  0  0  0  0
 39 41  1  0  0  0  0
 40 42  1  0  0  0  0
 40 43  1  0  0  0  0
 41 45  1  0  0  0  0
 42 47  1  0  0  0  0
 43 69  1  0  0  0  0
 44 47  1  0  0  0  0
 44 69  1  0  0  0  0
 45 72  1  0  0  0  0
 46 68  1  0  0  0  0
 47 67  1  0  0  0  0
 48 61  1  0  0  0  0
 49 62  1  0  0  0  0
 50 62  1  0  0  0  0
 51 63  1  0  0  0  0
 52 63  1  0  0  0  0
 53 63  1  0  0  0  0
 54 66  1  0  0  0  0
 55 75  1  0  0  0  0
 56 58  1  0  0  0  0
 57 74  1  0  0  0  0
 58 59  1  0  0  0  0
 59 82  1  0  0  0  0
 60 63  1  0  0  0  0
 60 73  1  0  0  0  0
 61 75  1  0  0  0  0
 62 74  1  0  0  0  0
 64 67  1  0  0  0  0
 65 66  1  0  0  0  0
M  CHG  1  75   1
M  ISO  4  35 100  59 101  74 100  82 101
M  END
> <Batch ID>
0055

> <Smiles>
CNC(C)C(=O)NC(C(=O)N1Cc2cc([101O:1][101CH2:1]CCc3cc(C[100N:0](C(C)C)[100C:0](=O)N4CCCC(n5nc(-c6ccc(Oc7ccc(F)cc7F)cc6)c(C(N)=O)c5N)C4)n(C)n3)ccc2CC1C(=O)NC1CCCc2ccccc21)C(C)(C)C

> <Shape>
0.255

> <Color>
0.110

> <Negative vol penalty>
0.000

$$$$

  -OEChem-04052317433D

 81 89  0     1  0  0  0  0  0999 V2000
  -23.3819  -30.0921   21.9675 C   0  0  0  0  0  0  0  0  0  0  0  0
  -23.5126  -28.7691   21.5575 C   0  0  0  0  0  0  0  0  0  0  0  0
  -23.3727   -9.7430   20.9728 C   0  0  0  0  0  0  0  0  0  0  0  0
  -24.2121  -10.4549   23.1235 C   0  0  0  0  0  0  0  0  0  0  0  0
  -24.4452  -30.9792   21.8055 C   0  0  0  0  0  0  0  0  0  0  0  0
  -24.7065  -28.3328   20.9843 C   0  0  0  0  0  0  0  0  0  0  0  0
  -26.2250  -23.8650   22.8223 C   0  0  0  0  0  0  0  0  0  0  0  0
  -22.7669   -8.6400   21.5743 C   0  0  0  0  0  0  0  0  0  0  0  0
  -23.6063   -9.3518   23.7251 C   0  0  0  0  0  0  0  0  0  0  0  0
  -25.5841  -22.7259   22.3372 C   0  0  0  0  0  0  0  0  0  0  0  0
  -20.6965   -5.8323   22.5970 C   0  0  0  0  0  0  0  0  0  0  0  0
  -19.3863   -5.5297   22.2263 C   0  0  0  0  0  0  0  0  0  0  0  0
  -27.4380  -22.3251   20.8466 C   0  0  0  0  0  0  0  0  0  0  0  0
  -18.6651   -7.7006   23.0038 C   0  0  0  0  0  0  0  0  0  0  0  0
  -27.8300  -17.0389   22.1145 C   0  0  0  0  0  0  0  0  0  0  0  0
  -24.0954  -10.6505   21.7474 C   0  0  0  0  0  0  0  0  0  0  0  0
  -24.1591  -13.0643   20.9246 C   0  0  0  0  0  0  0  0  0  0  0  0
  -25.6561  -30.5511   21.2389 C   0  0  0  0  0  0  0  0  0  0  0  0
  -27.4743  -24.2495   22.3147 C   0  0  0  0  0  0  0  0  0  0  0  0
  -25.7866  -29.2153   20.8134 C   0  0  0  0  0  0  0  0  0  0  0  0
  -28.0938  -23.4681   21.3288 C   0  0  0  0  0  0  0  0  0  0  0  0
  -22.8836   -8.4443   22.9504 C   0  0  0  0  0  0  0  0  0  0  0  0
  -26.1892  -21.9573   21.3471 C   0  0  0  0  0  0  0  0  0  0  0  0
  -20.9910   -7.0690   23.1711 C   0  0  0  0  0  0  0  0  0  0  0  0
  -18.3706   -6.4638   22.4297 C   0  0  0  0  0  0  0  0  0  0  0  0
  -19.9753   -8.0031   23.3744 C   0  0  0  0  0  0  0  0  0  0  0  0
  -24.7219  -11.7898   21.1265 C   0  0  0  0  0  0  0  0  0  0  0  0
  -27.7734  -17.1662   20.7137 C   0  0  0  0  0  0  0  0  0  0  0  0
  -26.6533  -17.5917   22.5574 C   0  0  0  0  0  0  0  0  0  0  0  0
  -25.1501  -13.7824   20.3011 C   0  0  0  0  0  0  0  0  0  0  0  0
  -22.8570  -13.5552   21.2699 C   0  0  0  0  0  0  0  0  0  0  0  0
  -28.5793  -26.7962   20.7665 C   0  0  0  0  0  0  0  0  0  0  0  0
  -31.4379  -25.3175   21.1714 C   0  0  0  0  0  0  0  0  0  0  0  0
  -33.1485  -22.4093   21.6840 C   0  0  0  0  0  0  0  0  0  0  0  0
  -30.6661  -15.1571   20.3351 C   0  0  0  0  0  0  0  0  0  0  0  0
  -26.7612  -31.5582   21.0410 C   0  0  0  0  0  0  0  0  0  0  0  0
  -28.1647  -25.4661   22.8676 C   0  0  0  0  0  0  0  0  0  0  0  0
  -29.4436  -23.8265   20.7651 C   0  0  0  0  0  0  0  0  0  0  0  0
  -28.1223  -30.9233   20.7681 C   0  0  0  0  0  0  0  0  0  0  0  0
  -29.5294  -12.3046   18.2681 C   0  0  0  0  0  0  0  0  0  0  0  0
  -27.9969  -29.8211   19.7210 C   0  0  0  0  0  0  0  0  0  0  0  0
  -28.1608  -11.9841   18.8666 C   0  0  0  0  0  0  0  0  0  0  0  0
  -30.4674  -12.9262   19.2983 C   0  0  0  0  0  0  0  0  0  0  0  0
  -28.5403  -13.8088   20.5715 C   0  0  0  0  0  0  0  0  0  0  0  0
  -27.0745  -28.6980   20.2101 C   0  0  1  0  0  0  0  0  0  0  0  0
  -29.2013  -26.0504   21.9130 C   0  0  1  0  0  0  0  0  0  0  0  0
  -27.5558  -13.2240   19.5476 C   0  0  2  0  0  0  0  0  0  0  0  0
  -26.1157  -17.7624   23.9196 C   0  0  0  0  0  0  0  0  0  0  0  0
  -35.4789  -21.5123   21.9332 C   0  0  0  0  0  0  0  0  0  0  0  0
  -31.8568  -25.5763   18.1602 C   0  0  0  0  0  0  0  0  0  0  0  0
  -33.6798  -23.8694   18.3374 C   0  0  0  0  0  0  0  0  0  0  0  0
  -33.8892  -26.0447   19.5402 C   0  0  0  0  0  0  0  0  0  0  0  0
  -30.8845  -17.5845   20.7091 C   0  0  0  0  0  0  0  0  0  0  0  0
  -32.5987  -21.4166   24.4174 C   0  0  0  0  0  0  0  0  0  0  0  0
  -28.7838  -16.7370   19.7321 C   0  0  0  0  0  0  0  0  0  0  0  0
  -24.6395  -18.6738   21.3799 C   0  0  0  0  0  0  0  0  0  0  0  0
  -24.7084  -20.1457   21.7724 C   0  0  0  0  0  0  0  0  0  1  0  0
  -32.2456  -24.3171   20.3804 C   0  0  1  0  0  0  0  0  0  0  0  0
  -34.2555  -22.0502   22.6588 C   0  0  2  0  0  0  0  0  0  0  0  0
  -32.8915  -24.9459   19.1136 C   0  0  0  0  0  0  0  0  0  0  0  0
  -25.9733  -11.7002   20.6683 N   0  0  0  0  0  0  0  0  0  0  0  0
  -26.6496  -17.7538   20.2943 N   0  0  0  0  0  0  0  0  0  0  0  0
  -25.9891  -18.0004   21.4384 N   0  0  0  0  0  0  0  0  0  0  0  0
  -26.2050  -12.9275   20.1722 N   0  0  0  0  0  0  0  0  0  0  0  0
  -30.0756  -25.0286   21.3336 N   0  0  0  0  0  0  0  0  0  0  0  0
  -29.8511  -14.0761   19.9609 N   0  0  0  0  0  0  0  0  0  0  0  0
  -25.2133  -15.0553   19.8559 N   0  0  0  0  0  0  0  0  0  0  0  0
  -21.9619  -12.6847   21.9065 N   0  0  0  0  0  0  0  0  0  0  0  0
  -27.7695  -27.8474   21.1523 N   0  0  0  0  0  0  0  0  0  0  0  0
  -33.2042  -23.7365   21.3144 N   0  0  0  0  0  0  0  0  0  0  0  0
  -30.0771  -16.4306   20.3395 N   0  0  0  0  0  0  0  0  0  0  0  0
  -33.7840  -21.0120   23.6184 N   0  3  0  0  0  0  0  0  0  0  0  0
  -22.4921  -14.7261   21.0064 O   0  0  0  0  0  0  0  0  0  0  0  0
  -28.8176  -26.4450   19.6169 O   0  0  0  0  0  0  0  0  0  0  0  0
  -31.9967  -26.3149   21.6346 O   0  0  0  0  0  0  0  0  0  0  0  0
  -32.3198  -21.5931   21.2871 O   0  0  0  0  0  0  0  0  0  0  0  0
  -31.8550  -14.9946   20.6382 O   0  0  0  0  0  0  0  0  0  0  0  0
  -22.2924   -7.3682   23.5378 O   0  0  0  0  0  0  0  0  0  0  0  0
  -25.5656  -20.8454   20.8713 O   0  0  0  0  0  0  0  0  0  1  0  0
  -17.1127   -6.1737   22.0723 F   0  0  0  0  0  0  0  0  0  0  0  0
  -20.2523   -9.1933   23.9244 F   0  0  0  0  0  0  0  0  0  0  0  0
  1  2  1  0  0  0  0
  1  5  2  0  0  0  0
  2  6  2  0  0  0  0
  3  8  2  0  0  0  0
  3 16  1  0  0  0  0
  4  9  1  0  0  0  0
  4 16  2  0  0  0  0
  5 18  1  0  0  0  0
  6 20  1  0  0  0  0
  7 10  2  0  0  0  0
  7 19  1  0  0  0  0
  8 22  1  0  0  0  0
  9 22  2  0  0  0  0
 10 23  1  0  0  0  0
 11 12  2  0  0  0  0
 11 24  1  0  0  0  0
 12 25  1  0  0  0  0
 13 21  1  0  0  0  0
 13 23  2  0  0  0  0
 14 25  2  0  0  0  0
 14 26  1  0  0  0  0
 15 28  1  0  0  0  0
 15 29  2  0  0  0  0
 16 27  1  0  0  0  0
 17 27  1  0  0  0  0
 17 30  2  0  0  0  0
 17 31  1  0  0  0  0
 18 20  2  0  0  0  0
 18 36  1  0  0  0  0
 19 21  2  0  0  0  0
 19 37  1  0  0  0  0
 20 45  1  0  0  0  0
 21 38  1  0  0  0  0
 22 78  1  0  0  0  0
 23 79  1  0  0  0  0
 24 26  2  0  0  0  0
 24 78  1  0  0  0  0
 25 80  1  0  0  0  0
 26 81  1  0  0  0  0
 27 61  2  0  0  0  0
 28 55  1  0  0  0  0
 28 62  2  0  0  0  0
 29 48  1  0  0  0  0
 29 63  1  0  0  0  0
 30 64  1  0  0  0  0
 30 67  1  0  0  0  0
 31 68  1  0  0  0  0
 31 73  2  0  0  0  0
 32 46  1  0  0  0  0
 32 69  1  0  0  0  0
 32 74  2  0  0  0  0
 33 58  1  0  0  0  0
 33 65  1  0  0  0  0
 33 75  2  0  0  0  0
 34 59  1  0  0  0  0
 34 70  1  0  0  0  0
 34 76  2  0  0  0  0
 35 66  1  0  0  0  0
 35 71  1  0  0  0  0
 35 77  2  0  0  0  0
 36 39  1  0  0  0  0
 37 46  1  0  0  0  0
 38 65  1  0  0  0  0
 39 41  1  0  0  0  0
 40 42  1  0  0  0  0
 40 43  1  0  0  0  0
 41 45  1  0  0  0  0
 42 47  1  0  0  0  0
 43 66  1  0  0  0  0
 44 47  1  0  0  0  0
 44 66  1  0  0  0  0
 45 69  1  0  0  0  0
 46 65  1  0  0  0  0
 47 64  1  0  0  0  0
 49 59  1  0  0  0  0
 50 60  1  0  0  0  0
 51 60  1  0  0  0  0
 52 60  1  0  0  0  0
 53 71  1  0  0  0  0
 54 72  1  0  0  0  0
 55 71  1  0  0  0  0
 56 57  1  0  0  0  0
 56 63  1  0  0  0  0
 57 79  1  0  0  0  0
 58 60  1  0  0  0  0
 58 70  1  0  0  0  0
 59 72  1  0  0  0  0
 61 64  1  0  0  0  0
 62 63  1  0  0  0  0
M  CHG  1  72   1
M  ISO  4  35 100  57 101  71 100  79 101
M  END
> <Batch ID>
0055

> <Smiles>
CNC(C)C(=O)NC(C(=O)N1Cc2cc([101O:1][101CH2:1]Cn3nc(C[100N:0](C)[100C:0](=O)N4CCCC(n5nc(-c6ccc(Oc7ccc(F)cc7F)cc6)c(C(N)=O)c5N)C4)cc3C)ccc2CC1C(=O)NC1CCCc2ccccc21)C(C)(C)C

> <Shape>
0.250

> <Color>
0.182

> <Negative vol penalty>
0.000

$$$$

  -OEChem-04052317433D

 84 92  0     1  0  0  0  0  0999 V2000
  -14.4066  -22.3482   22.4823 C   0  0  0  0  0  0  0  0  0  0  0  0
  -15.6658  -22.9016   22.6915 C   0  0  0  0  0  0  0  0  0  0  0  0
  -29.1897  -17.4157   19.1418 C   0  0  0  0  0  0  0  0  0  0  0  0
  -30.3266  -17.9664   21.2013 C   0  0  0  0  0  0  0  0  0  0  0  0
  -14.2799  -21.1561   21.7705 C   0  0  0  0  0  0  0  0  0  0  0  0
  -16.7991  -22.2625   22.1899 C   0  0  0  0  0  0  0  0  0  0  0  0
  -20.0119  -25.4755   19.9541 C   0  0  0  0  0  0  0  0  0  0  0  0
  -29.7634  -16.1445   19.1649 C   0  0  0  0  0  0  0  0  0  0  0  0
  -30.9003  -16.6952   21.2244 C   0  0  0  0  0  0  0  0  0  0  0  0
  -20.8234  -26.2462   20.7856 C   0  0  0  0  0  0  0  0  0  0  0  0
  -30.6441  -12.6298   18.8722 C   0  0  0  0  0  0  0  0  0  0  0  0
  -29.8187  -11.5405   18.5934 C   0  0  0  0  0  0  0  0  0  0  0  0
  -22.6551  -24.7253   20.3975 C   0  0  0  0  0  0  0  0  0  0  0  0
  -28.4219  -12.1165   20.4787 C   0  0  0  0  0  0  0  0  0  0  0  0
  -25.1315  -29.4374   20.1289 C   0  0  0  0  0  0  0  0  0  0  0  0
  -29.4713  -18.3266   20.1599 C   0  0  0  0  0  0  0  0  0  0  0  0
  -27.6539  -20.0307   20.7086 C   0  0  0  0  0  0  0  0  0  0  0  0
  -15.4113  -20.5071   21.2516 C   0  0  0  0  0  0  0  0  0  0  0  0
  -20.5136  -24.3160   19.3458 C   0  0  0  0  0  0  0  0  0  0  0  0
  -16.6875  -21.0598   21.4717 C   0  0  0  0  0  0  0  0  0  0  0  0
  -21.8487  -23.9430   19.5567 C   0  0  0  0  0  0  0  0  0  0  0  0
  -30.6187  -15.7842   20.2062 C   0  0  0  0  0  0  0  0  0  0  0  0
  -22.1443  -25.8696   21.0097 C   0  0  0  0  0  0  0  0  0  0  0  0
  -30.3585  -13.4624   19.9543 C   0  0  0  0  0  0  0  0  0  0  0  0
  -28.7075  -11.2839   19.3966 C   0  0  0  0  0  0  0  0  0  0  0  0
  -29.2474  -13.2058   20.7575 C   0  0  0  0  0  0  0  0  0  0  0  0
  -28.8794  -19.6401   20.1363 C   0  0  0  0  0  0  0  0  0  0  0  0
  -25.0267  -28.5825   21.2039 C   0  0  0  0  0  0  0  0  0  0  0  0
  -26.9365  -28.2581   19.3669 C   0  0  0  0  0  0  0  0  0  0  0  0
  -26.8323  -27.4036   20.4423 C   0  0  0  0  0  0  0  0  0  0  0  0
  -27.5467  -21.3674   20.4114 C   0  0  0  0  0  0  0  0  0  0  0  0
  -26.6980  -19.2547   21.4433 C   0  0  0  0  0  0  0  0  0  0  0  0
  -19.7941  -21.2227   19.4778 C   0  0  0  0  0  0  0  0  0  0  0  0
  -22.0008  -21.0072   17.1101 C   0  0  0  0  0  0  0  0  0  0  0  0
  -24.7354  -22.3451   15.5678 C   0  0  0  0  0  0  0  0  0  0  0  0
  -30.2256  -26.3810   20.3511 C   0  0  0  0  0  0  0  0  0  0  0  0
  -15.2286  -19.1958   20.5294 C   0  0  0  0  0  0  0  0  0  0  0  0
  -19.6332  -23.5102   18.4303 C   0  0  0  0  0  0  0  0  0  0  0  0
  -22.4415  -22.7182   18.9111 C   0  0  0  0  0  0  0  0  0  0  0  0
  -16.4460  -18.7775   19.7089 C   0  0  0  0  0  0  0  0  0  0  0  0
  -30.2368  -24.2916   17.2956 C   0  0  0  0  0  0  0  0  0  0  0  0
  -17.7232  -18.9435   20.5262 C   0  0  0  0  0  0  0  0  0  0  0  0
  -29.8520  -22.9141   17.8327 C   0  0  0  0  0  0  0  0  0  0  0  0
  -30.9510  -25.1321   18.3497 C   0  0  0  0  0  0  0  0  0  0  0  0
  -29.8090  -23.8945   20.1603 C   0  0  0  0  0  0  0  0  0  0  0  0
  -17.9383  -20.4093   20.9220 C   0  0  1  0  0  0  0  0  0  0  0  0
  -20.0986  -22.0660   18.2721 C   0  0  1  0  0  0  0  0  0  0  0  0
  -29.0461  -23.0394   19.1373 C   0  0  2  0  0  0  0  0  0  0  0  0
  -27.9996  -28.0848   18.3365 C   0  0  0  0  0  0  0  0  0  0  0  0
  -26.3374  -21.9227   13.6830 C   0  0  0  0  0  0  0  0  0  0  0  0
  -29.7565  -26.1743   23.4002 C   0  0  0  0  0  0  0  0  0  0  0  0
  -29.8557  -28.5327   22.5334 C   0  0  0  0  0  0  0  0  0  0  0  0
  -23.4085  -18.8815   18.7863 C   0  0  0  0  0  0  0  0  0  0  0  0
  -25.4359  -19.1915   17.3503 C   0  0  0  0  0  0  0  0  0  0  0  0
  -23.3051  -18.3801   16.3383 C   0  0  0  0  0  0  0  0  0  0  0  0
  -23.9595  -24.8487   14.1933 C   0  0  0  0  0  0  0  0  0  0  0  0
  -23.9413  -28.7773   22.2345 C   0  0  0  0  0  0  0  0  0  0  0  0
  -27.7779  -26.2660   20.6254 C   0  0  0  0  0  0  0  0  0  0  0  0
  -22.6658  -28.0190   21.8837 C   0  0  0  0  0  0  0  0  0  1  0  0
  -23.4947  -20.7967   17.0569 C   0  0  1  0  0  0  0  0  0  0  0  0
  -25.0418  -22.5994   14.1029 C   0  0  2  0  0  0  0  0  0  0  0  0
  -29.1183  -27.2013   22.4732 C   0  0  0  0  0  0  0  0  0  0  0  0
  -23.8996  -19.3345   17.3968 C   0  0  0  0  0  0  0  0  0  0  0  0
  -26.0882  -29.2905   19.1910 N   0  0  0  0  0  0  0  0  0  0  0  0
  -29.5057  -20.6471   19.5219 N   0  0  0  0  0  0  0  0  0  0  0  0
  -25.8754  -27.5503   21.3799 N   0  0  0  0  0  0  0  0  0  0  0  0
  -28.6705  -21.6837   19.7063 N   0  0  0  0  0  0  0  0  0  0  0  0
  -21.5388  -21.9596   18.0295 N   0  0  0  0  0  0  0  0  0  0  0  0
  -30.1835  -25.1989   19.5938 N   0  0  0  0  0  0  0  0  0  0  0  0
  -26.6017  -22.2912   20.6869 N   0  0  0  0  0  0  0  0  0  0  0  0
  -26.9646  -17.8957   21.6586 N   0  0  0  0  0  0  0  0  0  0  0  0
  -18.4515  -21.1657   19.7999 N   0  0  0  0  0  0  0  0  0  0  0  0
  -23.9231  -21.2436   15.7359 N   0  0  0  0  0  0  0  0  0  0  0  0
  -29.0835  -26.7015   21.1005 N   0  0  0  0  0  0  0  0  0  0  0  0
  -25.1711  -24.0619   13.8470 N   0  3  0  0  0  0  0  0  0  0  0  0
  -25.6311  -19.7479   21.8812 O   0  0  0  0  0  0  0  0  0  0  0  0
  -20.7092  -20.6638   20.0711 O   0  0  0  0  0  0  0  0  0  0  0  0
  -21.2711  -20.3559   16.3584 O   0  0  0  0  0  0  0  0  0  0  0  0
  -25.1757  -23.0507   16.4727 O   0  0  0  0  0  0  0  0  0  0  0  0
  -31.2233  -27.1135   20.3495 O   0  0  0  0  0  0  0  0  0  0  0  0
  -31.1786  -14.5438   20.2293 O   0  0  0  0  0  0  0  0  0  0  0  0
  -22.9384  -26.6197   21.8213 O   0  0  0  0  0  0  0  0  0  1  0  0
  -27.9140  -10.2387   19.1279 F   0  0  0  0  0  0  0  0  0  0  0  0
  -28.9672  -14.0028   21.7977 F   0  0  0  0  0  0  0  0  0  0  0  0
  1  2  1  0  0  0  0
  1  5  2  0  0  0  0
  2  6  2  0  0  0  0
  3  8  2  0  0  0  0
  3 16  1  0  0  0  0
  4  9  1  0  0  0  0
  4 16  2  0  0  0  0
  5 18  1  0  0  0  0
  6 20  1  0  0  0  0
  7 10  2  0  0  0  0
  7 19  1  0  0  0  0
  8 22  1  0  0  0  0
  9 22  2  0  0  0  0
 10 23  1  0  0  0  0
 11 12  2  0  0  0  0
 11 24  1  0  0  0  0
 12 25  1  0  0  0  0
 13 21  1  0  0  0  0
 13 23  2  0  0  0  0
 14 25  2  0  0  0  0
 14 26  1  0  0  0  0
 15 28  1  0  0  0  0
 15 64  2  0  0  0  0
 16 27  1  0  0  0  0
 17 27  1  0  0  0  0
 17 31  2  0  0  0  0
 17 32  1  0  0  0  0
 18 20  2  0  0  0  0
 18 37  1  0  0  0  0
 19 21  2  0  0  0  0
 19 38  1  0  0  0  0
 20 46  1  0  0  0  0
 21 39  1  0  0  0  0
 22 81  1  0  0  0  0
 23 82  1  0  0  0  0
 24 26  2  0  0  0  0
 24 81  1  0  0  0  0
 25 83  1  0  0  0  0
 26 84  1  0  0  0  0
 27 65  2  0  0  0  0
 28 57  1  0  0  0  0
 28 66  2  0  0  0  0
 29 30  2  0  0  0  0
 29 49  1  0  0  0  0
 29 64  1  0  0  0  0
 30 58  1  0  0  0  0
 30 66  1  0  0  0  0
 31 67  1  0  0  0  0
 31 70  1  0  0  0  0
 32 71  1  0  0  0  0
 32 76  2  0  0  0  0
 33 47  1  0  0  0  0
 33 72  1  0  0  0  0
 33 77  2  0  0  0  0
 34 60  1  0  0  0  0
 34 68  1  0  0  0  0
 34 78  2  0  0  0  0
 35 61  1  0  0  0  0
 35 73  1  0  0  0  0
 35 79  2  0  0  0  0
 36 69  1  0  0  0  0
 36 74  1  0  0  0  0
 36 80  2  0  0  0  0
 37 40  1  0  0  0  0
 38 47  1  0  0  0  0
 39 68  1  0  0  0  0
 40 42  1  0  0  0  0
 41 43  1  0  0  0  0
 41 44  1  0  0  0  0
 42 46  1  0  0  0  0
 43 48  1  0  0  0  0
 44 69  1  0  0  0  0
 45 48  1  0  0  0  0
 45 69  1  0  0  0  0
 46 72  1  0  0  0  0
 47 68  1  0  0  0  0
 48 67  1  0  0  0  0
 50 61  1  0  0  0  0
 51 62  1  0  0  0  0
 52 62  1  0  0  0  0
 53 63  1  0  0  0  0
 54 63  1  0  0  0  0
 55 63  1  0  0  0  0
 56 75  1  0  0  0  0
 57 59  1  0  0  0  0
 58 74  1  0  0  0  0
 59 82  1  0  0  0  0
 60 63  1  0  0  0  0
 60 73  1  0  0  0  0
 61 75  1  0  0  0  0
 62 74  1  0  0  0  0
 65 67  1  0  0  0  0
M  CHG  1  75   1
M  ISO  4  36 100  59 101  74 100  82 101
M  END
> <Batch ID>
0055

> <Smiles>
CNC(C)C(=O)NC(C(=O)N1Cc2cc([101O:1][101CH2:1]Cc3cnc(C)c(C[100N:0](C(C)C)[100C:0](=O)N4CCCC(n5nc(-c6ccc(Oc7ccc(F)cc7F)cc6)c(C(N)=O)c5N)C4)n3)ccc2CC1C(=O)NC1CCCc2ccccc21)C(C)(C)C

> <Shape>
0.205

> <Color>
0.058

> <Negative vol penalty>
0.000

$$$$

  -OEChem-04052317433D

 80 88  0     1  0  0  0  0  0999 V2000
  -28.9642  -23.6437   18.0133 C   0  0  0  0  0  0  0  0  0  0  0  0
  -27.7272  -23.8744   18.6066 C   0  0  0  0  0  0  0  0  0  0  0  0
  -25.0668  -14.2747   19.0329 C   0  0  0  0  0  0  0  0  0  0  0  0
  -24.5665  -14.1233   21.3917 C   0  0  0  0  0  0  0  0  0  0  0  0
  -30.1023  -24.2801   18.5069 C   0  0  0  0  0  0  0  0  0  0  0  0
  -27.6278  -24.7408   19.6947 C   0  0  0  0  0  0  0  0  0  0  0  0
  -23.7003  -27.9131   19.2994 C   0  0  0  0  0  0  0  0  0  0  0  0
  -25.2587  -12.8940   18.9850 C   0  0  0  0  0  0  0  0  0  0  0  0
  -24.7584  -12.7425   21.3437 C   0  0  0  0  0  0  0  0  0  0  0  0
  -22.4376  -27.4036   19.5990 C   0  0  0  0  0  0  0  0  0  0  0  0
  -23.0216  -10.0214   20.3441 C   0  0  0  0  0  0  0  0  0  0  0  0
  -22.0825   -9.2154   20.9877 C   0  0  0  0  0  0  0  0  0  0  0  0
  -22.5566  -28.4118   21.7873 C   0  0  0  0  0  0  0  0  0  0  0  0
  -23.8211   -8.3250   22.4095 C   0  0  0  0  0  0  0  0  0  0  0  0
  -24.4537  -24.9441   22.9154 C   0  0  0  0  0  0  0  0  0  0  0  0
  -22.7754  -23.6812   23.5660 C   0  0  0  0  0  0  0  0  0  0  0  0
  -24.7208  -14.8894   20.2364 C   0  0  0  0  0  0  0  0  0  0  0  0
  -23.3194  -17.0150   20.0765 C   0  0  0  0  0  0  0  0  0  0  0  0
  -30.0153  -25.1623   19.5954 C   0  0  0  0  0  0  0  0  0  0  0  0
  -24.4065  -28.6679   20.2470 C   0  0  0  0  0  0  0  0  0  0  0  0
  -28.7660  -25.3886   20.2041 C   0  0  0  0  0  0  0  0  0  0  0  0
  -23.8270  -28.9319   21.4963 C   0  0  0  0  0  0  0  0  0  0  0  0
  -24.1130  -23.6224   23.2599 C   0  0  0  0  0  0  0  0  0  0  0  0
  -25.1045  -12.1279   20.1403 C   0  0  0  0  0  0  0  0  0  0  0  0
  -21.8668  -27.6504   20.8441 C   0  0  0  0  0  0  0  0  0  0  0  0
  -24.3604   -9.9791   20.7332 C   0  0  0  0  0  0  0  0  0  0  0  0
  -22.4823   -8.3672   22.0203 C   0  0  0  0  0  0  0  0  0  0  0  0
  -24.7602   -9.1309   21.7659 C   0  0  0  0  0  0  0  0  0  0  0  0
  -24.5230  -16.3158   20.2867 C   0  0  0  0  0  0  0  0  0  0  0  0
  -23.6582  -18.3367   20.2341 C   0  0  0  0  0  0  0  0  0  0  0  0
  -22.0120  -16.5146   19.7666 C   0  0  0  0  0  0  0  0  0  0  0  0
  -27.1710  -28.3265   21.7782 C   0  0  0  0  0  0  0  0  0  0  0  0
  -26.4955  -31.3101   22.8571 C   0  0  0  0  0  0  0  0  0  0  0  0
  -24.1370  -33.6849   23.5239 C   0  0  0  0  0  0  0  0  0  0  0  0
  -26.2957  -22.3942   22.9878 C   0  0  0  0  0  0  0  0  0  0  0  0
  -31.2806  -25.7904   20.1237 C   0  0  0  0  0  0  0  0  0  0  0  0
  -25.7562  -29.2330   19.8987 C   0  0  0  0  0  0  0  0  0  0  0  0
  -24.5352  -29.7536   22.5412 C   0  0  0  0  0  0  0  0  0  0  0  0
  -31.0306  -26.9831   21.0431 C   0  0  0  0  0  0  0  0  0  0  0  0
  -28.1939  -20.5531   20.6037 C   0  0  0  0  0  0  0  0  0  0  0  0
  -29.9458  -26.6527   22.0632 C   0  0  0  0  0  0  0  0  0  0  0  0
  -27.3091  -19.3441   20.2914 C   0  0  0  0  0  0  0  0  0  0  0  0
  -28.1049  -20.9563   22.0745 C   0  0  0  0  0  0  0  0  0  0  0  0
  -25.8576  -19.9650   22.2649 C   0  0  0  0  0  0  0  0  0  0  0  0
  -28.6137  -26.3407   21.3705 C   0  0  1  0  0  0  0  0  0  0  0  0
  -26.6038  -29.5553   21.1255 C   0  0  1  0  0  0  0  0  0  0  0  0
  -25.8640  -19.5618   20.7813 C   0  0  2  0  0  0  0  0  0  0  0  0
  -23.8847  -36.0092   24.4356 C   0  0  0  0  0  0  0  0  0  0  0  0
  -19.4436  -25.3861   20.0366 C   0  0  0  0  0  0  0  0  0  0  0  0
  -26.8879  -30.2400   25.6874 C   0  0  0  0  0  0  0  0  0  0  0  0
  -25.7213  -32.2818   26.5464 C   0  0  0  0  0  0  0  0  0  0  0  0
  -27.8617  -32.5081   25.2854 C   0  0  0  0  0  0  0  0  0  0  0  0
  -23.0051  -34.6851   20.9788 C   0  0  0  0  0  0  0  0  0  0  0  0
  -20.0431  -25.2349   22.4804 C   0  0  0  0  0  0  0  0  0  0  0  0
  -21.0346  -25.5633   23.6060 C   0  0  0  0  0  0  0  0  0  0  0  0
  -25.7524  -31.8752   24.0434 C   0  0  1  0  0  0  0  0  0  0  0  0
  -24.0726  -35.1634   23.1858 C   0  0  2  0  0  0  0  0  0  0  0  0
  -20.4790  -25.7358   21.0979 C   0  0  2  0  0  0  0  0  0  1  0  0
  -26.5430  -31.7091   25.3719 C   0  0  0  0  0  0  0  0  0  0  0  0
  -23.4161  -25.7814   22.9948 N   0  0  0  0  0  0  0  0  0  0  0  0
  -25.5497  -17.1262   20.5570 N   0  0  0  0  0  0  0  0  0  0  0  0
  -22.4103  -24.9838   23.3926 N   0  0  0  0  0  0  0  0  0  0  0  0
  -24.9922  -18.3483   20.5177 N   0  0  0  0  0  0  0  0  0  0  0  0
  -25.8553  -30.2789   22.1553 N   0  0  0  0  0  0  0  0  0  0  0  0
  -26.7070  -21.1494   22.4663 N   0  0  0  0  0  0  0  0  0  0  0  0
  -22.9421  -19.4785   20.1562 N   0  0  0  0  0  0  0  0  0  0  0  0
  -21.8394  -15.1295   19.6403 N   0  0  0  0  0  0  0  0  0  0  0  0
  -24.9374  -22.4705   23.2945 N   0  0  0  0  0  0  0  0  0  0  0  0
  -27.9668  -27.5634   20.9451 N   0  0  0  0  0  0  0  0  0  0  0  0
  -25.4357  -33.2586   23.7055 N   0  0  0  0  0  0  0  0  0  0  0  0
  -22.9365  -35.4340   22.2600 N   0  3  0  0  0  0  0  0  0  0  0  0
  -21.0295  -17.2743   19.5903 O   0  0  0  0  0  0  0  0  0  0  0  0
  -26.9075  -28.0891   22.9511 O   0  0  0  0  0  0  0  0  0  0  0  0
  -27.6001  -31.7717   22.5595 O   0  0  0  0  0  0  0  0  0  0  0  0
  -23.1352  -32.9795   23.6211 O   0  0  0  0  0  0  0  0  0  0  0  0
  -27.0844  -23.3329   23.1250 O   0  0  0  0  0  0  0  0  0  0  0  0
  -25.2914  -10.7805   20.0938 O   0  0  0  0  0  0  0  0  0  0  0  0
  -20.6348  -27.1537   21.1394 O   0  0  0  0  0  0  0  0  0  1  0  0
  -21.5801   -7.5944   22.6393 F   0  0  0  0  0  0  0  0  0  0  0  0
  -26.0448   -9.0869   22.1449 F   0  0  0  0  0  0  0  0  0  0  0  0
  1  2  1  0  0  0  0
  1  5  2  0  0  0  0
  2  6  2  0  0  0  0
  3  8  2  0  0  0  0
  3 17  1  0  0  0  0
  4  9  1  0  0  0  0
  4 17  2  0  0  0  0
  5 19  1  0  0  0  0
  6 21  1  0  0  0  0
  7 10  2  0  0  0  0
  7 20  1  0  0  0  0
  8 24  1  0  0  0  0
  9 24  2  0  0  0  0
 10 25  1  0  0  0  0
 11 12  2  0  0  0  0
 11 26  1  0  0  0  0
 12 27  1  0  0  0  0
 13 22  1  0  0  0  0
 13 25  2  0  0  0  0
 14 27  2  0  0  0  0
 14 28  1  0  0  0  0
 15 23  1  0  0  0  0
 15 60  2  0  0  0  0
 16 23  2  0  0  0  0
 16 62  1  0  0  0  0
 17 29  1  0  0  0  0
 18 29  1  0  0  0  0
 18 30  2  0  0  0  0
 18 31  1  0  0  0  0
 19 21  2  0  0  0  0
 19 36  1  0  0  0  0
 20 22  2  0  0  0  0
 20 37  1  0  0  0  0
 21 45  1  0  0  0  0
 22 38  1  0  0  0  0
 23 68  1  0  0  0  0
 24 77  1  0  0  0  0
 25 78  1  0  0  0  0
 26 28  2  0  0  0  0
 26 77  1  0  0  0  0
 27 79  1  0  0  0  0
 28 80  1  0  0  0  0
 29 61  2  0  0  0  0
 30 63  1  0  0  0  0
 30 66  1  0  0  0  0
 31 67  1  0  0  0  0
 31 72  2  0  0  0  0
 32 46  1  0  0  0  0
 32 69  1  0  0  0  0
 32 73  2  0  0  0  0
 33 56  1  0  0  0  0
 33 64  1  0  0  0  0
 33 74  2  0  0  0  0
 34 57  1  0  0  0  0
 34 70  1  0  0  0  0
 34 75  2  0  0  0  0
 35 65  1  0  0  0  0
 35 68  1  0  0  0  0
 35 76  2  0  0  0  0
 36 39  1  0  0  0  0
 37 46  1  0  0  0  0
 38 64  1  0  0  0  0
 39 41  1  0  0  0  0
 40 42  1  0  0  0  0
 40 43  1  0  0  0  0
 41 45  1  0  0  0  0
 42 47  1  0  0  0  0
 43 65  1  0  0  0  0
 44 47  1  0  0  0  0
 44 65  1  0  0  0  0
 45 69  1  0  0  0  0
 46 64  1  0  0  0  0
 47 63  1  0  0  0  0
 48 57  1  0  0  0  0
 49 58  1  0  0  0  0
 50 59  1  0  0  0  0
 51 59  1  0  0  0  0
 52 59  1  0  0  0  0
 53 71  1  0  0  0  0
 54 55  1  0  0  0  0
 54 58  1  0  0  0  0
 55 62  1  0  0  0  0
 56 59  1  0  0  0  0
 56 70  1  0  0  0  0
 57 71  1  0  0  0  0
 58 78  1  0  0  0  0
 60 62  1  0  0  0  0
 61 63  1  0  0  0  0
M  CHG  1  71   1
M  ISO  4  35 100  58 101  68 100  78 101
M  END
> <Batch ID>
0055

> <Smiles>
CNC(C)C(=O)NC(C(=O)N1Cc2cc([101O:1][101CH:1](C)CCn3cc([100NH:0][100C:0](=O)N4CCCC(n5nc(-c6ccc(Oc7ccc(F)cc7F)cc6)c(C(N)=O)c5N)C4)cn3)ccc2CC1C(=O)NC1CCCc2ccccc21)C(C)(C)C

> <Shape>
0.278

> <Color>
0.073

> <Negative vol penalty>
0.000

$$$$

  -OEChem-04052317433D

 80 88  0     1  0  0  0  0  0999 V2000
  -27.9633  -34.7976   25.2219 C   0  0  0  0  0  0  0  0  0  0  0  0
  -28.1801  -33.5209   24.7136 C   0  0  0  0  0  0  0  0  0  0  0  0
  -23.4792  -17.3402   20.1539 C   0  0  0  0  0  0  0  0  0  0  0  0
  -25.3322  -15.8761   20.6640 C   0  0  0  0  0  0  0  0  0  0  0  0
  -26.6826  -35.1805   25.6185 C   0  0  0  0  0  0  0  0  0  0  0  0
  -27.1166  -32.6259   24.6026 C   0  0  0  0  0  0  0  0  0  0  0  0
  -27.0802  -30.1932   20.1613 C   0  0  0  0  0  0  0  0  0  0  0  0
  -30.9334  -25.1127   20.6551 C   0  0  0  0  0  0  0  0  0  0  0  0
  -22.6039  -16.2564   20.2229 C   0  0  0  0  0  0  0  0  0  0  0  0
  -24.4568  -14.7923   20.7330 C   0  0  0  0  0  0  0  0  0  0  0  0
  -27.9763  -29.1363   20.0068 C   0  0  0  0  0  0  0  0  0  0  0  0
  -22.8509  -12.7455   18.5738 C   0  0  0  0  0  0  0  0  0  0  0  0
  -23.2303  -11.5643   17.9363 C   0  0  0  0  0  0  0  0  0  0  0  0
  -31.6673  -23.9443   20.4830 C   0  0  0  0  0  0  0  0  0  0  0  0
  -26.1979  -27.5704   20.4590 C   0  0  0  0  0  0  0  0  0  0  0  0
  -23.1400  -10.3951   20.0486 C   0  0  0  0  0  0  0  0  0  0  0  0
  -30.9278  -25.3954   18.2936 C   0  0  0  0  0  0  0  0  0  0  0  0
  -24.8434  -17.1501   20.3743 C   0  0  0  0  0  0  0  0  0  0  0  0
  -26.1318  -19.1211   21.3556 C   0  0  0  0  0  0  0  0  0  0  0  0
  -25.6010  -34.2931   25.5033 C   0  0  0  0  0  0  0  0  0  0  0  0
  -25.7364  -29.9466   20.4770 C   0  0  0  0  0  0  0  0  0  0  0  0
  -25.8205  -32.9969   24.9992 C   0  0  0  0  0  0  0  0  0  0  0  0
  -25.2863  -28.6258   20.6144 C   0  0  0  0  0  0  0  0  0  0  0  0
  -30.5527  -25.8579   19.5446 C   0  0  0  0  0  0  0  0  0  0  0  0
  -23.0926  -14.9825   20.5125 C   0  0  0  0  0  0  0  0  0  0  0  0
  -27.5358  -27.8248   20.1586 C   0  0  0  0  0  0  0  0  0  0  0  0
  -22.6161  -12.7515   19.9488 C   0  0  0  0  0  0  0  0  0  0  0  0
  -23.3749  -10.3892   18.6736 C   0  0  0  0  0  0  0  0  0  0  0  0
  -22.7607  -11.5763   20.6862 C   0  0  0  0  0  0  0  0  0  0  0  0
  -25.7482  -18.2691   20.3026 C   0  0  0  0  0  0  0  0  0  0  0  0
  -31.9923  -23.5674   19.1899 C   0  0  0  0  0  0  0  0  0  0  0  0
  -26.9986  -20.0148   20.7758 C   0  0  0  0  0  0  0  0  0  0  0  0
  -25.7395  -19.1059   22.7346 C   0  0  0  0  0  0  0  0  0  0  0  0
  -23.8337  -30.6815   22.9149 C   0  0  0  0  0  0  0  0  0  0  0  0
  -31.3385  -21.0201   17.3927 C   0  0  0  0  0  0  0  0  0  0  0  0
  -21.5538  -29.3494   21.0308 C   0  0  0  0  0  0  0  0  0  0  0  0
  -20.7847  -27.2069   18.4881 C   0  0  0  0  0  0  0  0  0  0  0  0
  -24.2437  -34.7360   25.9890 C   0  0  0  0  0  0  0  0  0  0  0  0
  -24.7766  -31.0966   20.6139 C   0  0  0  0  0  0  0  0  0  0  0  0
  -23.8492  -28.3068   20.9332 C   0  0  0  0  0  0  0  0  0  0  0  0
  -23.1009  -33.8559   25.4894 C   0  0  0  0  0  0  0  0  0  0  0  0
  -28.0742  -20.8944   15.9201 C   0  0  0  0  0  0  0  0  0  0  0  0
  -23.4484  -32.3807   25.6620 C   0  0  0  0  0  0  0  0  0  0  0  0
  -27.2163  -20.2427   17.0038 C   0  0  0  0  0  0  0  0  0  0  0  0
  -29.4883  -20.3223   15.9081 C   0  0  0  0  0  0  0  0  0  0  0  0
  -29.3323  -19.7539   18.3111 C   0  0  0  0  0  0  0  0  0  0  0  0
  -24.6877  -32.0061   24.8402 C   0  0  1  0  0  0  0  0  0  0  0  0
  -23.5433  -30.7501   21.4423 C   0  0  1  0  0  0  0  0  0  0  0  0
  -27.9048  -20.3250   18.3778 C   0  0  2  0  0  0  0  0  0  0  0  0
  -32.6993  -19.7847   19.0289 C   0  0  0  0  0  0  0  0  0  0  0  0
  -18.8322  -26.3007   17.1984 C   0  0  0  0  0  0  0  0  0  0  0  0
  -20.8369  -27.5478   23.3868 C   0  0  0  0  0  0  0  0  0  0  0  0
  -19.5929  -26.0734   21.7909 C   0  0  0  0  0  0  0  0  0  0  0  0
  -18.8735  -28.4392   22.1199 C   0  0  0  0  0  0  0  0  0  0  0  0
  -21.8123  -28.3022   15.9379 C   0  0  0  0  0  0  0  0  0  0  0  0
  -29.7608  -27.1232   19.6969 C   0  0  0  0  0  0  0  0  0  1  0  0
  -32.7788  -22.3188   18.9680 C   0  0  0  0  0  0  0  0  0  0  0  0
  -31.9021  -21.0628   18.7908 C   0  0  1  0  0  0  0  0  0  0  0  0
  -21.0016  -27.9570   20.8429 C   0  0  1  0  0  0  0  0  0  0  0  0
  -19.9075  -27.3742   17.2605 C   0  0  2  0  0  0  0  0  0  0  0  0
  -20.1038  -27.5101   22.0310 C   0  0  0  0  0  0  0  0  0  0  0  0
  -31.6404  -24.2653   18.0868 N   0  0  0  0  0  0  0  0  0  0  0  0
  -26.3241  -18.5927   19.1417 N   0  0  0  0  0  0  0  0  0  0  0  0
  -27.0783  -19.6580   19.4618 N   0  0  0  0  0  0  0  0  0  0  0  0
  -22.9506  -29.4657   21.0637 N   0  0  0  0  0  0  0  0  0  0  0  0
  -30.0995  -20.3985   17.2362 N   0  0  0  0  0  0  0  0  0  0  0  0
  -27.6929  -21.0633   21.2668 N   0  0  0  0  0  0  0  0  0  0  0  0
  -24.8410  -18.1192   23.1629 N   0  0  0  0  0  0  0  0  0  0  0  0
  -24.3408  -31.8532   23.4436 N   0  0  0  0  0  0  0  0  0  0  0  0
  -20.3255  -27.9570   19.5501 N   0  0  0  0  0  0  0  0  0  0  0  0
  -20.7298  -27.2882   16.0206 N   0  3  0  0  0  0  0  0  0  0  0  0
  -26.1603  -19.9526   23.5590 O   0  0  0  0  0  0  0  0  0  0  0  0
  -23.6126  -29.6429   23.5266 O   0  0  0  0  0  0  0  0  0  0  0  0
  -31.9803  -21.5273   16.4692 O   0  0  0  0  0  0  0  0  0  0  0  0
  -20.7745  -30.2997   21.1373 O   0  0  0  0  0  0  0  0  0  0  0  0
  -21.7759  -26.4804   18.5045 O   0  0  0  0  0  0  0  0  0  0  0  0
  -22.2387  -13.9248   20.5802 O   0  0  0  0  0  0  0  0  0  0  0  0
  -28.4085  -26.7914   20.0090 O   0  0  0  0  0  0  0  0  0  1  0  0
  -23.7377   -9.2546   18.0610 F   0  0  0  0  0  0  0  0  0  0  0  0
  -22.5353  -11.5756   22.0072 F   0  0  0  0  0  0  0  0  0  0  0  0
  1  2  1  0  0  0  0
  1  5  2  0  0  0  0
  2  6  2  0  0  0  0
  3  9  2  0  0  0  0
  3 18  1  0  0  0  0
  4 10  1  0  0  0  0
  4 18  2  0  0  0  0
  5 20  1  0  0  0  0
  6 22  1  0  0  0  0
  7 11  2  0  0  0  0
  7 21  1  0  0  0  0
  8 14  2  0  0  0  0
  8 24  1  0  0  0  0
  9 25  1  0  0  0  0
 10 25  2  0  0  0  0
 11 26  1  0  0  0  0
 12 13  2  0  0  0  0
 12 27  1  0  0  0  0
 13 28  1  0  0  0  0
 14 31  1  0  0  0  0
 15 23  1  0  0  0  0
 15 26  2  0  0  0  0
 16 28  2  0  0  0  0
 16 29  1  0  0  0  0
 17 24  2  0  0  0  0
 17 62  1  0  0  0  0
 18 30  1  0  0  0  0
 19 30  1  0  0  0  0
 19 32  2  0  0  0  0
 19 33  1  0  0  0  0
 20 22  2  0  0  0  0
 20 38  1  0  0  0  0
 21 23  2  0  0  0  0
 21 39  1  0  0  0  0
 22 47  1  0  0  0  0
 23 40  1  0  0  0  0
 24 56  1  0  0  0  0
 25 77  1  0  0  0  0
 26 78  1  0  0  0  0
 27 29  2  0  0  0  0
 27 77  1  0  0  0  0
 28 79  1  0  0  0  0
 29 80  1  0  0  0  0
 30 63  2  0  0  0  0
 31 57  1  0  0  0  0
 31 62  2  0  0  0  0
 32 64  1  0  0  0  0
 32 67  1  0  0  0  0
 33 68  1  0  0  0  0
 33 72  2  0  0  0  0
 34 48  1  0  0  0  0
 34 69  1  0  0  0  0
 34 73  2  0  0  0  0
 35 58  1  0  0  0  0
 35 66  1  0  0  0  0
 35 74  2  0  0  0  0
 36 59  1  0  0  0  0
 36 65  1  0  0  0  0
 36 75  2  0  0  0  0
 37 60  1  0  0  0  0
 37 70  1  0  0  0  0
 37 76  2  0  0  0  0
 38 41  1  0  0  0  0
 39 48  1  0  0  0  0
 40 65  1  0  0  0  0
 41 43  1  0  0  0  0
 42 44  1  0  0  0  0
 42 45  1  0  0  0  0
 43 47  1  0  0  0  0
 44 49  1  0  0  0  0
 45 66  1  0  0  0  0
 46 49  1  0  0  0  0
 46 66  1  0  0  0  0
 47 69  1  0  0  0  0
 48 65  1  0  0  0  0
 49 64  1  0  0  0  0
 50 58  1  0  0  0  0
 51 60  1  0  0  0  0
 52 61  1  0  0  0  0
 53 61  1  0  0  0  0
 54 61  1  0  0  0  0
 55 71  1  0  0  0  0
 56 78  1  0  0  0  0
 57 58  1  0  0  0  0
 59 61  1  0  0  0  0
 59 70  1  0  0  0  0
 60 71  1  0  0  0  0
 63 64  1  0  0  0  0
M  CHG  1  71   1
M  ISO  4  35 100  56 101  58 100  78 101
M  END
> <Batch ID>
0055

> <Smiles>
CNC(C)C(=O)NC(C(=O)N1Cc2cc([101O:1][101CH2:1]c3ccc(C[100CH:0](C)[100C:0](=O)N4CCCC(n5nc(-c6ccc(Oc7ccc(F)cc7F)cc6)c(C(N)=O)c5N)C4)nc3)ccc2CC1C(=O)NC1CCCc2ccccc21)C(C)(C)C

> <Shape>
0.241

> <Color>
0.064

> <Negative vol penalty>
0.000

$$$$

  -OEChem-04052317433D

 81 89  0     1  0  0  0  0  0999 V2000
  -30.9276  -24.5622   18.1720 C   0  0  0  0  0  0  0  0  0  0  0  0
  -29.5485  -24.4411   18.3091 C   0  0  0  0  0  0  0  0  0  0  0  0
  -24.5691  -14.7283   20.7654 C   0  0  0  0  0  0  0  0  0  0  0  0
  -26.7855  -14.5483   21.7100 C   0  0  0  0  0  0  0  0  0  0  0  0
  -31.6621  -25.2695   19.1229 C   0  0  0  0  0  0  0  0  0  0  0  0
  -28.9031  -25.0263   19.3979 C   0  0  0  0  0  0  0  0  0  0  0  0
  -23.3106  -27.5214   19.4571 C   0  0  0  0  0  0  0  0  0  0  0  0
  -24.5822  -13.3641   20.4748 C   0  0  0  0  0  0  0  0  0  0  0  0
  -26.7986  -13.1841   21.4194 C   0  0  0  0  0  0  0  0  0  0  0  0
  -22.0698  -27.0330   19.8641 C   0  0  0  0  0  0  0  0  0  0  0  0
  -23.8868   -9.8583   19.8112 C   0  0  0  0  0  0  0  0  0  0  0  0
  -22.7438   -9.1193   20.1161 C   0  0  0  0  0  0  0  0  0  0  0  0
  -22.3655  -28.0892   22.0126 C   0  0  0  0  0  0  0  0  0  0  0  0
  -22.9782   -9.7177   22.4451 C   0  0  0  0  0  0  0  0  0  0  0  0
  -22.6173  -23.1311   19.9254 C   0  0  0  0  0  0  0  0  0  0  0  0
  -25.6708  -15.3204   21.3829 C   0  0  0  0  0  0  0  0  0  0  0  0
  -25.2041  -17.3430   22.8657 C   0  0  0  0  0  0  0  0  0  0  0  0
  -31.0242  -25.8718   20.2187 C   0  0  0  0  0  0  0  0  0  0  0  0
  -24.0943  -28.2896   20.3301 C   0  0  0  0  0  0  0  0  0  0  0  0
  -29.6300  -25.7411   20.3651 C   0  0  0  0  0  0  0  0  0  0  0  0
  -23.6147  -28.5884   21.6134 C   0  0  0  0  0  0  0  0  0  0  0  0
  -25.6968  -12.5920   20.8019 C   0  0  0  0  0  0  0  0  0  0  0  0
  -21.5984  -27.3144   21.1430 C   0  0  0  0  0  0  0  0  0  0  0  0
  -24.5756  -10.5269   20.8232 C   0  0  0  0  0  0  0  0  0  0  0  0
  -22.2894   -9.0491   21.4330 C   0  0  0  0  0  0  0  0  0  0  0  0
  -24.1213  -10.4567   22.1401 C   0  0  0  0  0  0  0  0  0  0  0  0
  -25.6582  -16.7297   21.6828 C   0  0  0  0  0  0  0  0  0  0  0  0
  -23.9247  -23.3123   20.3199 C   0  0  0  0  0  0  0  0  0  0  0  0
  -23.2201  -23.7611   22.4486 C   0  0  0  0  0  0  0  0  0  0  0  0
  -21.9127  -23.5802   22.0541 C   0  0  0  0  0  0  0  0  0  0  0  0
  -25.4038  -18.6855   22.6550 C   0  0  0  0  0  0  0  0  0  0  0  0
  -24.6512  -16.7522   24.0493 C   0  0  0  0  0  0  0  0  0  0  0  0
  -25.0367  -23.1682   19.3716 C   0  0  0  0  0  0  0  0  0  0  0  0
  -26.9646  -27.9522   21.6535 C   0  0  0  0  0  0  0  0  0  0  0  0
  -26.4018  -30.9669   22.7104 C   0  0  0  0  0  0  0  0  0  0  0  0
  -24.1236  -33.3824   23.4992 C   0  0  0  0  0  0  0  0  0  0  0  0
  -31.8662  -26.5861   21.2461 C   0  0  0  0  0  0  0  0  0  0  0  0
  -25.4187  -28.8315   19.8666 C   0  0  0  0  0  0  0  0  0  0  0  0
  -24.4085  -29.4256   22.5816 C   0  0  0  0  0  0  0  0  0  0  0  0
  -31.0591  -27.4943   22.1703 C   0  0  0  0  0  0  0  0  0  0  0  0
  -27.9389  -21.1201   19.0186 C   0  0  0  0  0  0  0  0  0  0  0  0
  -29.8166  -26.7700   22.6786 C   0  0  0  0  0  0  0  0  0  0  0  0
  -27.5624  -19.8363   19.7602 C   0  0  0  0  0  0  0  0  0  0  0  0
  -26.7372  -21.7292   18.3005 C   0  0  0  0  0  0  0  0  0  0  0  0
  -25.1823  -20.6808   19.9092 C   0  0  0  0  0  0  0  0  0  0  0  0
  -28.8907  -26.3828   21.5192 C   0  0  1  0  0  0  0  0  0  0  0  0
  -26.3606  -29.1721   21.0173 C   0  0  1  0  0  0  0  0  0  0  0  0
  -26.3543  -20.0622   20.6886 C   0  0  1  0  0  0  0  0  0  0  0  0
  -23.5612  -24.1142   23.8556 C   0  0  0  0  0  0  0  0  0  0  0  0
  -23.9637  -35.7295   24.3726 C   0  0  0  0  0  0  0  0  0  0  0  0
  -26.9995  -29.9570   25.5269 C   0  0  0  0  0  0  0  0  0  0  0  0
  -25.9213  -32.0308   26.4241 C   0  0  0  0  0  0  0  0  0  0  0  0
  -27.9609  -32.2045   24.9985 C   0  0  0  0  0  0  0  0  0  0  0  0
  -22.8097  -34.3371   21.0251 C   0  0  0  0  0  0  0  0  0  0  0  0
  -19.2117  -25.4465   23.1246 C   0  0  0  0  0  0  0  0  0  0  0  0
  -20.2252  -26.5640   22.9339 C   0  0  0  0  0  0  0  0  0  1  0  0
  -19.6376  -24.1665   22.4228 C   0  0  0  0  0  0  0  0  0  0  0  0
  -25.7570  -31.5671   23.9363 C   0  0  1  0  0  0  0  0  0  0  0  0
  -24.0474  -34.8535   23.1323 C   0  0  2  0  0  0  0  0  0  0  0  0
  -26.6453  -31.4224   25.2041 C   0  0  0  0  0  0  0  0  0  0  0  0
  -21.5878  -23.2617   20.7854 N   0  0  0  0  0  0  0  0  0  0  0  0
  -26.1121  -17.6102   20.7868 N   0  0  0  0  0  0  0  0  0  0  0  0
  -24.2496  -23.6305   21.5886 N   0  0  0  0  0  0  0  0  0  0  0  0
  -25.9441  -18.7905   21.4070 N   0  0  0  0  0  0  0  0  0  0  0  0
  -25.6176  -21.9063   19.2244 N   0  0  0  0  0  0  0  0  0  0  0  0
  -25.7001  -29.9272   22.0839 N   0  0  0  0  0  0  0  0  0  0  0  0
  -25.1682  -19.7745   23.4171 N   0  0  0  0  0  0  0  0  0  0  0  0
  -24.5158  -15.3581   24.0994 N   0  0  0  0  0  0  0  0  0  0  0  0
  -28.1424  -27.5347   21.0636 N   0  0  0  0  0  0  0  0  0  0  0  0
  -25.4283  -32.9459   23.5912 N   0  0  0  0  0  0  0  0  0  0  0  0
  -22.8464  -35.1157   22.2899 N   0  3  0  0  0  0  0  0  0  0  0  0
  -24.2728  -17.4413   25.0268 O   0  0  0  0  0  0  0  0  0  0  0  0
  -25.3828  -24.1900   18.7805 O   0  0  0  0  0  0  0  0  0  0  0  0
  -26.4044  -27.4293   22.6097 O   0  0  0  0  0  0  0  0  0  0  0  0
  -27.4846  -31.4093   22.3187 O   0  0  0  0  0  0  0  0  0  0  0  0
  -23.1256  -32.6907   23.6891 O   0  0  0  0  0  0  0  0  0  0  0  0
  -25.7098  -11.2608   20.5187 O   0  0  0  0  0  0  0  0  0  0  0  0
  -20.3879  -26.8383   21.5430 O   0  0  0  0  0  0  0  0  0  1  0  0
  -20.8814  -23.7204   22.9460 O   0  0  0  0  0  0  0  0  0  0  0  0
  -21.1909   -8.3407   21.7255 F   0  0  0  0  0  0  0  0  0  0  0  0
  -24.7781  -11.0979   23.1164 F   0  0  0  0  0  0  0  0  0  0  0  0
  1  2  1  0  0  0  0
  1  5  2  0  0  0  0
  2  6  2  0  0  0  0
  3  8  2  0  0  0  0
  3 16  1  0  0  0  0
  4  9  1  0  0  0  0
  4 16  2  0  0  0  0
  5 18  1  0  0  0  0
  6 20  1  0  0  0  0
  7 10  2  0  0  0  0
  7 19  1  0  0  0  0
  8 22  1  0  0  0  0
  9 22  2  0  0  0  0
 10 23  1  0  0  0  0
 11 12  2  0  0  0  0
 11 24  1  0  0  0  0
 12 25  1  0  0  0  0
 13 21  1  0  0  0  0
 13 23  2  0  0  0  0
 14 25  2  0  0  0  0
 14 26  1  0  0  0  0
 15 28  1  0  0  0  0
 15 61  2  0  0  0  0
 16 27  1  0  0  0  0
 17 27  1  0  0  0  0
 17 31  2  0  0  0  0
 17 32  1  0  0  0  0
 18 20  2  0  0  0  0
 18 37  1  0  0  0  0
 19 21  2  0  0  0  0
 19 38  1  0  0  0  0
 20 46  1  0  0  0  0
 21 39  1  0  0  0  0
 22 77  1  0  0  0  0
 23 78  1  0  0  0  0
 24 26  2  0  0  0  0
 24 77  1  0  0  0  0
 25 80  1  0  0  0  0
 26 81  1  0  0  0  0
 27 62  2  0  0  0  0
 28 33  1  0  0  0  0
 28 63  2  0  0  0  0
 29 30  2  0  0  0  0
 29 49  1  0  0  0  0
 29 63  1  0  0  0  0
 30 61  1  0  0  0  0
 30 79  1  0  0  0  0
 31 64  1  0  0  0  0
 31 67  1  0  0  0  0
 32 68  1  0  0  0  0
 32 72  2  0  0  0  0
 33 65  1  0  0  0  0
 33 73  2  0  0  0  0
 34 47  1  0  0  0  0
 34 69  1  0  0  0  0
 34 74  2  0  0  0  0
 35 58  1  0  0  0  0
 35 66  1  0  0  0  0
 35 75  2  0  0  0  0
 36 59  1  0  0  0  0
 36 70  1  0  0  0  0
 36 76  2  0  0  0  0
 37 40  1  0  0  0  0
 38 47  1  0  0  0  0
 39 66  1  0  0  0  0
 40 42  1  0  0  0  0
 41 43  1  0  0  0  0
 41 44  1  0  0  0  0
 42 46  1  0  0  0  0
 43 48  1  0  0  0  0
 44 65  1  0  0  0  0
 45 48  1  0  0  0  0
 45 65  1  0  0  0  0
 46 69  1  0  0  0  0
 47 66  1  0  0  0  0
 48 64  1  0  0  0  0
 50 59  1  0  0  0  0
 51 60  1  0  0  0  0
 52 60  1  0  0  0  0
 53 60  1  0  0  0  0
 54 71  1  0  0  0  0
 55 56  1  0  0  0  0
 55 57  1  0  0  0  0
 56 78  1  0  0  0  0
 57 79  1  0  0  0  0
 58 60  1  0  0  0  0
 58 70  1  0  0  0  0
 59 71  1  0  0  0  0
 62 64  1  0  0  0  0
M  CHG  1  71   1
M  ISO  4  28 100  33 100  56 101  78 101
M  END
> <Batch ID>
0055

> <Smiles>
CNC(C)C(=O)NC(C(=O)N1Cc2cc([101O:1][101CH2:1]CCOc3nc[100c:0]([100C:0](=O)N4CCCC(n5nc(-c6ccc(Oc7ccc(F)cc7F)cc6)c(C(N)=O)c5N)C4)nc3C)ccc2CC1C(=O)NC1CCCc2ccccc21)C(C)(C)C

> <Shape>
0.256

> <Color>
0.071

> <Negative vol penalty>
0.000

$$$$

  -OEChem-04052317433D

 78 86  0     1  0  0  0  0  0999 V2000
  -23.6746  -27.4526   20.8878 C   0  0  0  0  0  0  0  0  0  0  0  0
  -24.3028  -26.2341   21.1246 C   0  0  0  0  0  0  0  0  0  0  0  0
  -23.1886   -9.9227   21.5413 C   0  0  0  0  0  0  0  0  0  0  0  0
  -23.8922  -10.9571   23.6082 C   0  0  0  0  0  0  0  0  0  0  0  0
  -22.4742  -27.7532   21.5303 C   0  0  0  0  0  0  0  0  0  0  0  0
  -23.7315  -25.3159   22.0050 C   0  0  0  0  0  0  0  0  0  0  0  0
  -23.7780  -20.5908   20.1842 C   0  0  0  0  0  0  0  0  0  0  0  0
  -22.4821   -8.9607   22.2632 C   0  0  0  0  0  0  0  0  0  0  0  0
  -23.1857   -9.9951   24.3301 C   0  0  0  0  0  0  0  0  0  0  0  0
  -24.9839  -19.8943   20.2516 C   0  0  0  0  0  0  0  0  0  0  0  0
  -23.1698   -6.1255   23.9699 C   0  0  0  0  0  0  0  0  0  0  0  0
  -23.2973   -4.7947   23.5722 C   0  0  0  0  0  0  0  0  0  0  0  0
  -24.1974  -18.7349   22.2154 C   0  0  0  0  0  0  0  0  0  0  0  0
  -20.9175   -4.6868   23.1699 C   0  0  0  0  0  0  0  0  0  0  0  0
  -28.6587  -16.5930   21.3618 C   0  0  0  0  0  0  0  0  0  0  0  0
  -30.5633  -17.0491   20.3515 C   0  0  0  0  0  0  0  0  0  0  0  0
  -23.8937  -10.9208   22.2138 C   0  0  0  0  0  0  0  0  0  0  0  0
  -24.1445  -13.1563   21.0107 C   0  0  0  0  0  0  0  0  0  0  0  0
  -21.8830  -26.8343   22.4115 C   0  0  0  0  0  0  0  0  0  0  0  0
  -22.7754  -20.3721   21.1398 C   0  0  0  0  0  0  0  0  0  0  0  0
  -22.5228  -25.6051   22.6609 C   0  0  0  0  0  0  0  0  0  0  0  0
  -22.9787  -19.4280   22.1564 C   0  0  0  0  0  0  0  0  0  0  0  0
  -22.4806   -8.9969   23.6576 C   0  0  0  0  0  0  0  0  0  0  0  0
  -25.1949  -18.9683   21.2691 C   0  0  0  0  0  0  0  0  0  0  0  0
  -21.9160   -6.7370   23.9678 C   0  0  0  0  0  0  0  0  0  0  0  0
  -22.1712   -4.0754   23.1721 C   0  0  0  0  0  0  0  0  0  0  0  0
  -20.7899   -6.0177   23.5678 C   0  0  0  0  0  0  0  0  0  0  0  0
  -24.6241  -11.9145   21.4687 C   0  0  0  0  0  0  0  0  0  0  0  0
  -28.5501  -17.7069   20.5631 C   0  0  0  0  0  0  0  0  0  0  0  0
  -25.2166  -13.7211   20.3641 C   0  0  0  0  0  0  0  0  0  0  0  0
  -22.8461  -13.7465   21.1568 C   0  0  0  0  0  0  0  0  0  0  0  0
  -21.3234  -22.1729   23.3198 C   0  0  0  0  0  0  0  0  0  0  0  0
  -30.9983  -14.0189   20.8445 C   0  0  0  0  0  0  0  0  0  0  0  0
  -19.4880  -19.5278   23.7163 C   0  0  0  0  0  0  0  0  0  0  0  0
  -19.1814  -16.1423   23.4141 C   0  0  0  0  0  0  0  0  0  0  0  0
  -20.6090  -27.2234   23.1189 C   0  0  0  0  0  0  0  0  0  0  0  0
  -21.4698  -21.1120   21.0375 C   0  0  0  0  0  0  0  0  0  0  0  0
  -21.9262  -19.1418   23.1950 C   0  0  0  0  0  0  0  0  0  0  0  0
  -19.8773  -26.0415   23.7497 C   0  0  0  0  0  0  0  0  0  0  0  0
  -29.3865  -12.0047   18.3576 C   0  0  0  0  0  0  0  0  0  0  0  0
  -20.8536  -25.1592   24.5212 C   0  0  0  0  0  0  0  0  0  0  0  0
  -27.9557  -11.8695   18.8770 C   0  0  0  0  0  0  0  0  0  0  0  0
  -30.3955  -12.0322   19.5013 C   0  0  0  0  0  0  0  0  0  0  0  0
  -28.6961  -12.9553   21.0445 C   0  0  0  0  0  0  0  0  0  0  0  0
  -21.9216  -24.5729   23.5900 C   0  0  1  0  0  0  0  0  0  0  0  0
  -20.7186  -21.1845   22.3633 C   0  0  1  0  0  0  0  0  0  0  0  0
  -27.6426  -12.9544   19.9227 C   0  0  2  0  0  0  0  0  0  0  0  0
  -31.7549  -15.4433   22.7350 C   0  0  0  0  0  0  0  0  0  0  0  0
  -18.0734  -13.8912   23.4617 C   0  0  0  0  0  0  0  0  0  0  0  0
  -20.1476  -19.6690   26.6920 C   0  0  0  0  0  0  0  0  0  0  0  0
  -19.3439  -17.3080   26.9110 C   0  0  0  0  0  0  0  0  0  0  0  0
  -17.7681  -19.0970   26.1769 C   0  0  0  0  0  0  0  0  0  0  0  0
  -18.2378  -16.4189   20.6227 C   0  0  0  0  0  0  0  0  0  0  0  0
  -27.3454  -18.5716   20.3343 C   0  0  0  0  0  0  0  0  0  1  0  0
  -30.5682  -15.0475   21.8599 C   0  0  1  0  0  0  0  0  0  0  0  0
  -19.5619  -18.2958   24.5856 C   0  0  1  0  0  0  0  0  0  0  0  0
  -18.0734  -15.2786   22.8389 C   0  0  2  0  0  0  0  0  0  0  0  0
  -19.2262  -18.5990   26.0731 C   0  0  0  0  0  0  0  0  0  0  0  0
  -29.7391  -17.9853   19.9367 N   0  0  0  0  0  0  0  0  0  0  0  0
  -25.9014  -11.7022   21.1407 N   0  0  0  0  0  0  0  0  0  0  0  0
  -29.9538  -16.1825   21.2156 N   0  0  0  0  0  0  0  0  0  0  0  0
  -26.2335  -12.8183   20.4697 N   0  0  0  0  0  0  0  0  0  0  0  0
  -20.6690  -19.8953   23.0560 N   0  0  0  0  0  0  0  0  0  0  0  0
  -30.0506  -13.0606   20.4845 N   0  0  0  0  0  0  0  0  0  0  0  0
  -25.3793  -14.8969   19.7211 N   0  0  0  0  0  0  0  0  0  0  0  0
  -21.8607  -13.0303   21.8498 N   0  0  0  0  0  0  0  0  0  0  0  0
  -21.3791  -23.4650   22.8332 N   0  0  0  0  0  0  0  0  0  0  0  0
  -18.6879  -17.3057   23.9656 N   0  0  0  0  0  0  0  0  0  0  0  0
  -18.2427  -15.1323   21.3655 N   0  3  0  0  0  0  0  0  0  0  0  0
  -22.5631  -14.8686   20.6726 O   0  0  0  0  0  0  0  0  0  0  0  0
  -21.7094  -21.7918   24.4187 O   0  0  0  0  0  0  0  0  0  0  0  0
  -32.1418  -14.0690   20.3840 O   0  0  0  0  0  0  0  0  0  0  0  0
  -18.4199  -20.1373   23.6208 O   0  0  0  0  0  0  0  0  0  0  0  0
  -20.3658  -15.8157   23.3811 O   0  0  0  0  0  0  0  0  0  0  0  0
  -21.7912   -8.0585   24.3623 O   0  0  0  0  0  0  0  0  0  0  0  0
  -26.3712  -18.2875   21.3376 O   0  0  0  0  0  0  0  0  0  1  0  0
  -22.2941   -2.7978   22.7887 F   0  0  0  0  0  0  0  0  0  0  0  0
  -19.5830   -6.6001   23.5625 F   0  0  0  0  0  0  0  0  0  0  0  0
  1  2  1  0  0  0  0
  1  5  2  0  0  0  0
  2  6  2  0  0  0  0
  3  8  2  0  0  0  0
  3 17  1  0  0  0  0
  4  9  1  0  0  0  0
  4 17  2  0  0  0  0
  5 19  1  0  0  0  0
  6 21  1  0  0  0  0
  7 10  2  0  0  0  0
  7 20  1  0  0  0  0
  8 23  1  0  0  0  0
  9 23  2  0  0  0  0
 10 24  1  0  0  0  0
 11 12  2  0  0  0  0
 11 25  1  0  0  0  0
 12 26  1  0  0  0  0
 13 22  1  0  0  0  0
 13 24  2  0  0  0  0
 14 26  2  0  0  0  0
 14 27  1  0  0  0  0
 15 29  2  0  0  0  0
 15 61  1  0  0  0  0
 16 59  2  0  0  0  0
 16 61  1  0  0  0  0
 17 28  1  0  0  0  0
 18 28  1  0  0  0  0
 18 30  2  0  0  0  0
 18 31  1  0  0  0  0
 19 21  2  0  0  0  0
 19 36  1  0  0  0  0
 20 22  2  0  0  0  0
 20 37  1  0  0  0  0
 21 45  1  0  0  0  0
 22 38  1  0  0  0  0
 23 75  1  0  0  0  0
 24 76  1  0  0  0  0
 25 27  2  0  0  0  0
 25 75  1  0  0  0  0
 26 77  1  0  0  0  0
 27 78  1  0  0  0  0
 28 60  2  0  0  0  0
 29 54  1  0  0  0  0
 29 59  1  0  0  0  0
 30 62  1  0  0  0  0
 30 65  1  0  0  0  0
 31 66  1  0  0  0  0
 31 70  2  0  0  0  0
 32 46  1  0  0  0  0
 32 67  1  0  0  0  0
 32 71  2  0  0  0  0
 33 55  1  0  0  0  0
 33 64  1  0  0  0  0
 33 72  2  0  0  0  0
 34 56  1  0  0  0  0
 34 63  1  0  0  0  0
 34 73  2  0  0  0  0
 35 57  1  0  0  0  0
 35 68  1  0  0  0  0
 35 74  2  0  0  0  0
 36 39  1  0  0  0  0
 37 46  1  0  0  0  0
 38 63  1  0  0  0  0
 39 41  1  0  0  0  0
 40 42  1  0  0  0  0
 40 43  1  0  0  0  0
 41 45  1  0  0  0  0
 42 47  1  0  0  0  0
 43 64  1  0  0  0  0
 44 47  1  0  0  0  0
 44 64  1  0  0  0  0
 45 67  1  0  0  0  0
 46 63  1  0  0  0  0
 47 62  1  0  0  0  0
 48 55  1  0  0  0  0
 49 57  1  0  0  0  0
 50 58  1  0  0  0  0
 51 58  1  0  0  0  0
 52 58  1  0  0  0  0
 53 69  1  0  0  0  0
 54 76  1  0  0  0  0
 55 61  1  0  0  0  0
 56 58  1  0  0  0  0
 56 68  1  0  0  0  0
 57 69  1  0  0  0  0
 60 62  1  0  0  0  0
M  CHG  1  69   1
M  ISO  4  33 100  54 101  55 100  76 101
M  END
> <Batch ID>
0055

> <Smiles>
CNC(C)C(=O)NC(C(=O)N1Cc2cc([101O:1][101CH2:1]c3cn([100CH:0](C)[100C:0](=O)N4CCCC(n5nc(-c6ccc(Oc7ccc(F)cc7F)cc6)c(C(N)=O)c5N)C4)cn3)ccc2CC1C(=O)NC1CCCc2ccccc21)C(C)(C)C

> <Shape>
0.202

> <Color>
0.158

> <Negative vol penalty>
0.000

$$$$

  -OEChem-04052317433D

 85 93  0     1  0  0  0  0  0999 V2000
  -32.4462  -14.1841   20.8090 C   0  0  0  0  0  0  0  0  0  0  0  0
  -31.6539  -15.3276   20.8019 C   0  0  0  0  0  0  0  0  0  0  0  0
  -28.7144  -26.2492   21.0447 C   0  0  0  0  0  0  0  0  0  0  0  0
  -26.8636  -24.8919   20.2901 C   0  0  0  0  0  0  0  0  0  0  0  0
  -31.8972  -12.9547   20.4471 C   0  0  0  0  0  0  0  0  0  0  0  0
  -30.3122  -15.2425   20.4317 C   0  0  0  0  0  0  0  0  0  0  0  0
  -25.6556  -18.5176   22.6889 C   0  0  0  0  0  0  0  0  0  0  0  0
  -29.4603  -25.0962   21.2892 C   0  0  0  0  0  0  0  0  0  0  0  0
  -27.6096  -23.7388   20.5345 C   0  0  0  0  0  0  0  0  0  0  0  0
  -24.9975  -19.6557   22.2248 C   0  0  0  0  0  0  0  0  0  0  0  0
  -29.1562  -20.4496   20.6195 C   0  0  0  0  0  0  0  0  0  0  0  0
  -29.1450  -19.4507   19.6461 C   0  0  0  0  0  0  0  0  0  0  0  0
  -23.2975  -18.2609   21.2331 C   0  0  0  0  0  0  0  0  0  0  0  0
  -30.0708  -21.0028   18.0426 C   0  0  0  0  0  0  0  0  0  0  0  0
  -19.6423  -25.6532   21.9300 C   0  0  0  0  0  0  0  0  0  0  0  0
  -27.4160  -26.1470   20.5452 C   0  0  0  0  0  0  0  0  0  0  0  0
  -26.5898  -28.0774   19.0966 C   0  0  0  0  0  0  0  0  0  0  0  0
  -30.5456  -12.8528   20.0816 C   0  0  0  0  0  0  0  0  0  0  0  0
  -25.1446  -17.2400   22.4188 C   0  0  0  0  0  0  0  0  0  0  0  0
  -29.7449  -14.0108   20.0633 C   0  0  0  0  0  0  0  0  0  0  0  0
  -23.9496  -17.1083   21.6971 C   0  0  0  0  0  0  0  0  0  0  0  0
  -28.9079  -23.8410   21.0340 C   0  0  0  0  0  0  0  0  0  0  0  0
  -23.8198  -19.5273   21.4943 C   0  0  0  0  0  0  0  0  0  0  0  0
  -29.6245  -21.7252   20.3045 C   0  0  0  0  0  0  0  0  0  0  0  0
  -29.6024  -19.7272   18.3577 C   0  0  0  0  0  0  0  0  0  0  0  0
  -30.0818  -22.0018   19.0161 C   0  0  0  0  0  0  0  0  0  0  0  0
  -26.6447  -27.3377   20.2931 C   0  0  0  0  0  0  0  0  0  0  0  0
  -20.0737  -26.4437   22.9724 C   0  0  0  0  0  0  0  0  0  0  0  0
  -20.9840  -23.9530   22.6639 C   0  0  0  0  0  0  0  0  0  0  0  0
  -21.4161  -24.7436   23.7059 C   0  0  0  0  0  0  0  0  0  0  0  0
  -25.7225  -29.1071   19.3690 C   0  0  0  0  0  0  0  0  0  0  0  0
  -27.2625  -27.8539   17.8504 C   0  0  0  0  0  0  0  0  0  0  0  0
  -26.1965  -14.6918   20.8365 C   0  0  0  0  0  0  0  0  0  0  0  0
  -23.5097  -13.3238   22.0334 C   0  0  0  0  0  0  0  0  0  0  0  0
  -20.3540  -13.7313   23.2673 C   0  0  0  0  0  0  0  0  0  0  0  0
  -21.3848  -29.3899   23.6867 C   0  0  0  0  0  0  0  0  0  0  0  0
  -30.0088  -11.5103   19.6526 C   0  0  0  0  0  0  0  0  0  0  0  0
  -25.8521  -16.0234   22.9494 C   0  0  0  0  0  0  0  0  0  0  0  0
  -23.3486  -15.7601   21.3976 C   0  0  0  0  0  0  0  0  0  0  0  0
  -28.4839  -11.4416   19.6342 C   0  0  0  0  0  0  0  0  0  0  0  0
  -24.1011  -31.7997   22.9684 C   0  0  0  0  0  0  0  0  0  0  0  0
  -27.9025  -12.6707   18.9427 C   0  0  0  0  0  0  0  0  0  0  0  0
  -25.0864  -30.9592   22.1581 C   0  0  0  0  0  0  0  0  0  0  0  0
  -23.2858  -30.9445   23.9335 C   0  0  0  0  0  0  0  0  0  0  0  0
  -23.5617  -28.9698   22.4712 C   0  0  0  0  0  0  0  0  0  0  0  0
  -28.2790  -13.9548   19.6916 C   0  0  1  0  0  0  0  0  0  0  0  0
  -25.5170  -14.7522   22.1753 C   0  0  1  0  0  0  0  0  0  0  0  0
  -24.3663  -29.7950   21.4558 C   0  0  2  0  0  0  0  0  0  0  0  0
  -23.8073  -24.8008   24.4578 C   0  0  0  0  0  0  0  0  0  0  0  0
  -19.2057  -30.3976   21.3513 C   0  0  0  0  0  0  0  0  0  0  0  0
  -18.3906  -12.4252   24.1256 C   0  0  0  0  0  0  0  0  0  0  0  0
  -22.7906  -12.5316   19.1759 C   0  0  0  0  0  0  0  0  0  0  0  0
  -20.4509  -12.1037   19.9574 C   0  0  0  0  0  0  0  0  0  0  0  0
  -22.3399  -10.7691   20.8919 C   0  0  0  0  0  0  0  0  0  0  0  0
  -20.4988  -15.0349   25.9203 C   0  0  0  0  0  0  0  0  0  0  0  0
  -21.4927  -22.5453   22.4816 C   0  0  0  0  0  0  0  0  0  0  0  0
  -22.4066  -24.2442   24.7015 C   0  0  0  0  0  0  0  0  0  0  0  0
  -19.5570  -27.8304   23.1328 C   0  0  0  0  0  0  0  0  0  0  0  0
  -21.1659  -21.9447   21.1127 C   0  0  0  0  0  0  0  0  0  0  0  0
  -20.3348  -29.3875   21.3845 C   0  0  0  0  0  0  0  0  0  0  0  0
  -21.7573  -20.5551   20.9062 C   0  0  0  0  0  0  0  0  0  1  0  0
  -22.0795  -13.1911   21.5687 C   0  0  1  0  0  0  0  0  0  0  0  0
  -19.6709  -13.1577   24.4956 C   0  0  2  0  0  0  0  0  0  0  0  0
  -21.9273  -12.1743   20.4023 C   0  0  0  0  0  0  0  0  0  0  0  0
  -20.0896  -24.3936   21.7571 N   0  0  0  0  0  0  0  0  0  0  0  0
  -25.8738  -27.8536   21.2541 N   0  0  0  0  0  0  0  0  0  0  0  0
  -20.9684  -26.0031   23.8790 N   0  0  0  0  0  0  0  0  0  0  0  0
  -25.3264  -28.9286   20.6619 N   0  0  0  0  0  0  0  0  0  0  0  0
  -24.0809  -14.6003   21.9325 N   0  0  0  0  0  0  0  0  0  0  0  0
  -22.6474  -29.8208   23.2474 N   0  0  0  0  0  0  0  0  0  0  0  0
  -25.2678  -30.1387   18.6265 N   0  0  0  0  0  0  0  0  0  0  0  0
  -28.1180  -26.7490   17.7417 N   0  0  0  0  0  0  0  0  0  0  0  0
  -27.4516  -14.1147   20.8682 N   0  0  0  0  0  0  0  0  0  0  0  0
  -21.2941  -12.8632   22.7535 N   0  0  0  0  0  0  0  0  0  0  0  0
  -20.5273  -28.8361   22.7240 N   0  0  0  0  0  0  0  0  0  0  0  0
  -19.3292  -14.2466   25.4541 N   0  3  0  0  0  0  0  0  0  0  0  0
  -27.1222  -28.6206   16.8676 O   0  0  0  0  0  0  0  0  0  0  0  0
  -25.6238  -15.1345   19.8478 O   0  0  0  0  0  0  0  0  0  0  0  0
  -24.0960  -12.3331   22.4764 O   0  0  0  0  0  0  0  0  0  0  0  0
  -20.0784  -14.8371   22.8071 O   0  0  0  0  0  0  0  0  0  0  0  0
  -21.0398  -29.5030   24.8700 O   0  0  0  0  0  0  0  0  0  0  0  0
  -29.6356  -22.7157   21.2722 O   0  0  0  0  0  0  0  0  0  0  0  0
  -23.1758  -20.6365   21.0395 O   0  0  0  0  0  0  0  0  0  1  0  0
  -29.5931  -18.7674   17.4234 F   0  0  0  0  0  0  0  0  0  0  0  0
  -30.5340  -23.2250   18.7078 F   0  0  0  0  0  0  0  0  0  0  0  0
  1  2  1  0  0  0  0
  1  5  2  0  0  0  0
  2  6  2  0  0  0  0
  3  8  2  0  0  0  0
  3 16  1  0  0  0  0
  4  9  1  0  0  0  0
  4 16  2  0  0  0  0
  5 18  1  0  0  0  0
  6 20  1  0  0  0  0
  7 10  2  0  0  0  0
  7 19  1  0  0  0  0
  8 22  1  0  0  0  0
  9 22  2  0  0  0  0
 10 23  1  0  0  0  0
 11 12  2  0  0  0  0
 11 24  1  0  0  0  0
 12 25  1  0  0  0  0
 13 21  1  0  0  0  0
 13 23  2  0  0  0  0
 14 25  2  0  0  0  0
 14 26  1  0  0  0  0
 15 28  1  0  0  0  0
 15 65  2  0  0  0  0
 16 27  1  0  0  0  0
 17 27  1  0  0  0  0
 17 31  2  0  0  0  0
 17 32  1  0  0  0  0
 18 20  2  0  0  0  0
 18 37  1  0  0  0  0
 19 21  2  0  0  0  0
 19 38  1  0  0  0  0
 20 46  1  0  0  0  0
 21 39  1  0  0  0  0
 22 82  1  0  0  0  0
 23 83  1  0  0  0  0
 24 26  2  0  0  0  0
 24 82  1  0  0  0  0
 25 84  1  0  0  0  0
 26 85  1  0  0  0  0
 27 66  2  0  0  0  0
 28 58  1  0  0  0  0
 28 67  2  0  0  0  0
 29 30  2  0  0  0  0
 29 56  1  0  0  0  0
 29 65  1  0  0  0  0
 30 57  1  0  0  0  0
 30 67  1  0  0  0  0
 31 68  1  0  0  0  0
 31 71  1  0  0  0  0
 32 72  1  0  0  0  0
 32 77  2  0  0  0  0
 33 47  1  0  0  0  0
 33 73  1  0  0  0  0
 33 78  2  0  0  0  0
 34 62  1  0  0  0  0
 34 69  1  0  0  0  0
 34 79  2  0  0  0  0
 35 63  1  0  0  0  0
 35 74  1  0  0  0  0
 35 80  2  0  0  0  0
 36 70  1  0  0  0  0
 36 75  1  0  0  0  0
 36 81  2  0  0  0  0
 37 40  1  0  0  0  0
 38 47  1  0  0  0  0
 39 69  1  0  0  0  0
 40 42  1  0  0  0  0
 41 43  1  0  0  0  0
 41 44  1  0  0  0  0
 42 46  1  0  0  0  0
 43 48  1  0  0  0  0
 44 70  1  0  0  0  0
 45 48  1  0  0  0  0
 45 70  1  0  0  0  0
 46 73  1  0  0  0  0
 47 69  1  0  0  0  0
 48 68  1  0  0  0  0
 49 57  1  0  0  0  0
 50 60  1  0  0  0  0
 51 63  1  0  0  0  0
 52 64  1  0  0  0  0
 53 64  1  0  0  0  0
 54 64  1  0  0  0  0
 55 76  1  0  0  0  0
 56 59  1  0  0  0  0
 58 75  1  0  0  0  0
 59 61  1  0  0  0  0
 60 75  1  0  0  0  0
 61 83  1  0  0  0  0
 62 64  1  0  0  0  0
 62 74  1  0  0  0  0
 63 76  1  0  0  0  0
 66 68  1  0  0  0  0
M  CHG  1  76   1
M  ISO  4  36 100  61 101  75 100  83 101
M  END
> <Batch ID>
0055

> <Smiles>
CCc1nc(C[100N:0](CC)[100C:0](=O)N2CCCC(n3nc(-c4ccc(Oc5ccc(F)cc5F)cc4)c(C(N)=O)c3N)C2)cnc1CC[101CH2:1][101O:1]c1ccc2c(c1)CN(C(=O)C(NC(=O)C(C)NC)C(C)(C)C)C(C(=O)NC1CCCc3ccccc31)C2

> <Shape>
0.262

> <Color>
0.057

> <Negative vol penalty>
0.000

$$$$

  -OEChem-04052317433D

 81 89  0     1  0  0  0  0  0999 V2000
  -32.2697  -14.9028   20.2354 C   0  0  0  0  0  0  0  0  0  0  0  0
  -31.3409  -15.9149   20.4552 C   0  0  0  0  0  0  0  0  0  0  0  0
  -23.9884  -29.7689   20.3321 C   0  0  0  0  0  0  0  0  0  0  0  0
  -24.0494  -27.8848   21.8432 C   0  0  0  0  0  0  0  0  0  0  0  0
  -31.8378  -13.6310   19.8612 C   0  0  0  0  0  0  0  0  0  0  0  0
  -29.9795  -15.6560   20.2999 C   0  0  0  0  0  0  0  0  0  0  0  0
  -27.1949  -17.5732   24.0703 C   0  0  0  0  0  0  0  0  0  0  0  0
  -22.7357  -30.1275   20.8298 C   0  0  0  0  0  0  0  0  0  0  0  0
  -22.7967  -28.2434   22.3409 C   0  0  0  0  0  0  0  0  0  0  0  0
  -26.9314  -18.9417   24.0349 C   0  0  0  0  0  0  0  0  0  0  0  0
  -19.5638  -27.9533   21.3949 C   0  0  0  0  0  0  0  0  0  0  0  0
  -18.6198  -26.9406   21.5647 C   0  0  0  0  0  0  0  0  0  0  0  0
  -24.7375  -18.4900   23.1393 C   0  0  0  0  0  0  0  0  0  0  0  0
  -18.5097  -27.4393   23.9262 C   0  0  0  0  0  0  0  0  0  0  0  0
  -27.4609  -23.0686   22.2819 C   0  0  0  0  0  0  0  0  0  0  0  0
  -24.6453  -28.6475   20.8388 C   0  0  0  0  0  0  0  0  0  0  0  0
  -27.1955  -28.6977   20.7997 C   0  0  0  0  0  0  0  0  0  0  0  0
  -30.4699  -13.3539   19.7107 C   0  0  0  0  0  0  0  0  0  0  0  0
  -26.2342  -16.6517   23.6294 C   0  0  0  0  0  0  0  0  0  0  0  0
  -29.5290  -14.3797   19.9221 C   0  0  0  0  0  0  0  0  0  0  0  0
  -24.9904  -17.1101   23.1725 C   0  0  0  0  0  0  0  0  0  0  0  0
  -22.1398  -29.3648   21.8342 C   0  0  0  0  0  0  0  0  0  0  0  0
  -25.7036  -19.4005   23.5667 C   0  0  0  0  0  0  0  0  0  0  0  0
  -19.9809  -28.7090   22.4907 C   0  0  0  0  0  0  0  0  0  0  0  0
  -18.0928  -26.6836   22.8303 C   0  0  0  0  0  0  0  0  0  0  0  0
  -19.4538  -28.4520   23.7563 C   0  0  0  0  0  0  0  0  0  0  0  0
  -25.9391  -28.2763   20.3247 C   0  0  0  0  0  0  0  0  0  0  0  0
  -26.2805  -22.8164   21.6419 C   0  0  0  0  0  0  0  0  0  0  0  0
  -28.1009  -28.0689   19.9804 C   0  0  0  0  0  0  0  0  0  0  0  0
  -27.8792  -22.9129   20.1137 C   0  0  0  0  0  0  0  0  0  0  0  0
  -27.5155  -29.5788   21.8846 C   0  0  0  0  0  0  0  0  0  0  0  0
  -26.1071  -14.4790   21.3127 C   0  0  0  0  0  0  0  0  0  0  0  0
  -23.2813  -13.7195   22.7128 C   0  0  0  0  0  0  0  0  0  0  0  0
  -20.6558  -14.7021   24.6591 C   0  0  0  0  0  0  0  0  0  0  0  0
  -27.3155  -23.0128   16.6104 C   0  0  0  0  0  0  0  0  0  0  0  0
  -30.0538  -11.9765   19.2588 C   0  0  0  0  0  0  0  0  0  0  0  0
  -26.5240  -15.1773   23.6991 C   0  0  0  0  0  0  0  0  0  0  0  0
  -23.9177  -16.1609   22.7069 C   0  0  0  0  0  0  0  0  0  0  0  0
  -28.5719  -11.6846   19.4802 C   0  0  0  0  0  0  0  0  0  0  0  0
  -28.5864  -26.3261   15.5575 C   0  0  0  0  0  0  0  0  0  0  0  0
  -27.7197  -12.8554   19.0007 C   0  0  0  0  0  0  0  0  0  0  0  0
  -28.0902  -27.2433   16.6740 C   0  0  0  0  0  0  0  0  0  0  0  0
  -27.6759  -25.1163   15.3706 C   0  0  0  0  0  0  0  0  0  0  0  0
  -26.9559  -25.2499   17.7324 C   0  0  0  0  0  0  0  0  0  0  0  0
  -28.0422  -14.1313   19.7879 C   0  0  1  0  0  0  0  0  0  0  0  0
  -25.6658  -14.3540   22.7436 C   0  0  1  0  0  0  0  0  0  0  0  0
  -27.8767  -26.4546   17.9777 C   0  0  2  0  0  0  0  0  0  0  0  0
  -18.4799  -13.8742   25.5960 C   0  0  0  0  0  0  0  0  0  0  0  0
  -21.9778  -14.0538   19.9743 C   0  0  0  0  0  0  0  0  0  0  0  0
  -19.7554  -14.1597   21.1224 C   0  0  0  0  0  0  0  0  0  0  0  0
  -21.1482  -12.0972   21.2927 C   0  0  0  0  0  0  0  0  0  0  0  0
  -29.8406  -23.3690   21.5561 C   0  0  0  0  0  0  0  0  0  0  0  0
  -27.6390  -20.8564   17.7615 C   0  0  0  0  0  0  0  0  0  0  0  0
  -21.5833  -15.0674   27.4457 C   0  0  0  0  0  0  0  0  0  0  0  0
  -24.8762  -22.6481   22.1692 C   0  0  0  0  0  0  0  0  0  0  0  0
  -28.5737  -22.8884   18.8022 C   0  0  0  0  0  0  0  0  0  0  0  0
  -24.5560  -21.1975   22.5133 C   0  0  0  0  0  0  0  0  0  1  0  0
  -21.8511  -14.1749   22.5502 C   0  0  1  0  0  0  0  0  0  0  0  0
  -19.9723  -14.0359   25.8396 C   0  0  2  0  0  0  0  0  0  0  0  0
  -21.2039  -13.6396   21.2418 C   0  0  0  0  0  0  0  0  0  0  0  0
  -26.0339  -27.4442   19.2842 N   0  0  0  0  0  0  0  0  0  0  0  0
  -28.4331  -23.1227   21.3124 N   0  0  0  0  0  0  0  0  0  0  0  0
  -27.3606  -27.3378   19.0986 N   0  0  0  0  0  0  0  0  0  0  0  0
  -26.5689  -22.7252   20.3015 N   0  3  0  0  0  0  0  0  0  0  0  0
  -24.2511  -14.7293   22.7884 N   0  0  0  0  0  0  0  0  0  0  0  0
  -27.4551  -24.4102   16.6331 N   0  0  0  0  0  0  0  0  0  0  0  0
  -29.4501  -28.0756   19.9354 N   0  0  0  0  0  0  0  0  0  0  0  0
  -26.4641  -30.1382   22.6234 N   0  0  0  0  0  0  0  0  0  0  0  0
  -27.4153  -14.0928   21.0917 N   0  0  0  0  0  0  0  0  0  0  0  0
  -21.1546  -13.7754   23.7682 N   0  0  0  0  0  0  0  0  0  0  0  0
  -27.7522  -22.3079   17.7423 N   0  0  0  0  0  0  0  0  0  0  0  0
  -20.1616  -14.8490   27.0741 N   0  3  0  0  0  0  0  0  0  0  0  0
  -28.6984  -29.8745   22.1794 O   0  0  0  0  0  0  0  0  0  0  0  0
  -25.3186  -14.8937   20.4713 O   0  0  0  0  0  0  0  0  0  0  0  0
  -23.5280  -12.5127   22.7776 O   0  0  0  0  0  0  0  0  0  0  0  0
  -20.7357  -15.9225   24.5375 O   0  0  0  0  0  0  0  0  0  0  0  0
  -26.8372  -22.4277   15.6302 O   0  0  0  0  0  0  0  0  0  0  0  0
  -20.9176  -29.7146   22.3203 O   0  0  0  0  0  0  0  0  0  0  0  0
  -25.4440  -20.7358   23.5305 O   0  0  0  0  0  0  0  0  0  1  0  0
  -17.1851  -25.7120   22.9930 F   0  0  0  0  0  0  0  0  0  0  0  0
  -19.8497  -29.1754   24.8126 F   0  0  0  0  0  0  0  0  0  0  0  0
  1  2  1  0  0  0  0
  1  5  2  0  0  0  0
  2  6  2  0  0  0  0
  3  8  2  0  0  0  0
  3 16  1  0  0  0  0
  4  9  1  0  0  0  0
  4 16  2  0  0  0  0
  5 18  1  0  0  0  0
  6 20  1  0  0  0  0
  7 10  2  0  0  0  0
  7 19  1  0  0  0  0
  8 22  1  0  0  0  0
  9 22  2  0  0  0  0
 10 23  1  0  0  0  0
 11 12  2  0  0  0  0
 11 24  1  0  0  0  0
 12 25  1  0  0  0  0
 13 21  1  0  0  0  0
 13 23  2  0  0  0  0
 14 25  2  0  0  0  0
 14 26  1  0  0  0  0
 15 28  2  0  0  0  0
 15 62  1  0  0  0  0
 16 27  1  0  0  0  0
 17 27  1  0  0  0  0
 17 29  2  0  0  0  0
 17 31  1  0  0  0  0
 18 20  2  0  0  0  0
 18 36  1  0  0  0  0
 19 21  2  0  0  0  0
 19 37  1  0  0  0  0
 20 45  1  0  0  0  0
 21 38  1  0  0  0  0
 22 78  1  0  0  0  0
 23 79  1  0  0  0  0
 24 26  2  0  0  0  0
 24 78  1  0  0  0  0
 25 80  1  0  0  0  0
 26 81  1  0  0  0  0
 27 61  2  0  0  0  0
 28 55  1  0  0  0  0
 28 64  1  0  0  0  0
 29 63  1  0  0  0  0
 29 67  1  0  0  0  0
 30 56  1  0  0  0  0
 30 62  1  0  0  0  0
 30 64  2  0  0  0  0
 31 68  1  0  0  0  0
 31 73  2  0  0  0  0
 32 46  1  0  0  0  0
 32 69  1  0  0  0  0
 32 74  2  0  0  0  0
 33 58  1  0  0  0  0
 33 65  1  0  0  0  0
 33 75  2  0  0  0  0
 34 59  1  0  0  0  0
 34 70  1  0  0  0  0
 34 76  2  0  0  0  0
 35 66  1  0  0  0  0
 35 71  1  0  0  0  0
 35 77  2  0  0  0  0
 36 39  1  0  0  0  0
 37 46  1  0  0  0  0
 38 65  1  0  0  0  0
 39 41  1  0  0  0  0
 40 42  1  0  0  0  0
 40 43  1  0  0  0  0
 41 45  1  0  0  0  0
 42 47  1  0  0  0  0
 43 66  1  0  0  0  0
 44 47  1  0  0  0  0
 44 66  1  0  0  0  0
 45 69  1  0  0  0  0
 46 65  1  0  0  0  0
 47 63  1  0  0  0  0
 48 59  1  0  0  0  0
 49 60  1  0  0  0  0
 50 60  1  0  0  0  0
 51 60  1  0  0  0  0
 52 62  1  0  0  0  0
 53 71  1  0  0  0  0
 54 72  1  0  0  0  0
 55 57  1  0  0  0  0
 56 71  1  0  0  0  0
 57 79  1  0  0  0  0
 58 60  1  0  0  0  0
 58 70  1  0  0  0  0
 59 72  1  0  0  0  0
 61 63  1  0  0  0  0
M  CHG  2  64   1  72   1
M  ISO  4  35 100  57 101  71 100  79 101
M  END
> <Batch ID>
0055

> <Smiles>
CNC(C)C(=O)NC(C(=O)N1Cc2cc([101O:1][101CH2:1]Cc3cn(C)c(C[100N:0](C)[100C:0](=O)N4CCCC(n5nc(-c6ccc(Oc7ccc(F)cc7F)cc6)c(C(N)=O)c5N)C4)n3)ccc2CC1C(=O)NC1CCCc2ccccc21)C(C)(C)C

> <Shape>
0.226

> <Color>
0.063

> <Negative vol penalty>
0.000

$$$$

  -OEChem-04052317433D

 84 92  0     1  0  0  0  0  0999 V2000
  -26.6283  -24.0315   21.9435 C   0  0  0  0  0  0  0  0  0  0  0  0
  -25.8561  -22.9417   21.5576 C   0  0  0  0  0  0  0  0  0  0  0  0
  -23.3997  -30.2078   20.7376 C   0  0  0  0  0  0  0  0  0  0  0  0
  -23.1001  -28.3544   22.2582 C   0  0  0  0  0  0  0  0  0  0  0  0
  -27.9973  -23.8732   22.1484 C   0  0  0  0  0  0  0  0  0  0  0  0
  -26.4505  -21.6907   21.3880 C   0  0  0  0  0  0  0  0  0  0  0  0
  -23.4487  -17.8871   20.5365 C   0  0  0  0  0  0  0  0  0  0  0  0
  -22.2899  -30.8437   21.2940 C   0  0  0  0  0  0  0  0  0  0  0  0
  -21.9903  -28.9903   22.8146 C   0  0  0  0  0  0  0  0  0  0  0  0
  -22.7801  -17.7109   19.3259 C   0  0  0  0  0  0  0  0  0  0  0  0
  -18.7345  -29.4575   22.0321 C   0  0  0  0  0  0  0  0  0  0  0  0
  -17.5921  -28.6892   22.2563 C   0  0  0  0  0  0  0  0  0  0  0  0
  -24.3624  -15.9978   18.7084 C   0  0  0  0  0  0  0  0  0  0  0  0
  -17.7181  -29.1905   24.6164 C   0  0  0  0  0  0  0  0  0  0  0  0
  -19.7142  -16.3252   15.4196 C   0  0  0  0  0  0  0  0  0  0  0  0
  -23.8048  -28.9631   21.2197 C   0  0  0  0  0  0  0  0  0  0  0  0
  -26.2926  -28.4238   21.0540 C   0  0  0  0  0  0  0  0  0  0  0  0
  -28.6101  -22.6221   21.9689 C   0  0  0  0  0  0  0  0  0  0  0  0
  -24.5874  -17.1264   20.8381 C   0  0  0  0  0  0  0  0  0  0  0  0
  -27.8265  -21.5055   21.6133 C   0  0  0  0  0  0  0  0  0  0  0  0
  -25.0420  -16.1645   19.9247 C   0  0  0  0  0  0  0  0  0  0  0  0
  -20.8539  -17.0538   15.6574 C   0  0  0  0  0  0  0  0  0  0  0  0
  -21.5852  -30.2350   22.3325 C   0  0  0  0  0  0  0  0  0  0  0  0
  -23.2386  -16.7682   18.4103 C   0  0  0  0  0  0  0  0  0  0  0  0
  -19.3688  -30.0923   23.1001 C   0  0  0  0  0  0  0  0  0  0  0  0
  -17.0839  -28.5557   23.5484 C   0  0  0  0  0  0  0  0  0  0  0  0
  -18.8605  -29.9588   24.3922 C   0  0  0  0  0  0  0  0  0  0  0  0
  -24.9508  -28.3054   20.6450 C   0  0  0  0  0  0  0  0  0  0  0  0
  -21.3355  -17.3821   14.3760 C   0  0  0  0  0  0  0  0  0  0  0  0
  -26.9865  -27.6063   20.1957 C   0  0  0  0  0  0  0  0  0  0  0  0
  -26.8610  -29.2030   22.1149 C   0  0  0  0  0  0  0  0  0  0  0  0
  -27.6415  -17.7921   21.4155 C   0  0  0  0  0  0  0  0  0  0  0  0
  -27.8049  -14.6194   22.0712 C   0  0  0  0  0  0  0  0  0  0  0  0
  -26.5051  -11.4966   21.6182 C   0  0  0  0  0  0  0  0  0  0  0  0
  -25.3566  -22.8289   17.1338 C   0  0  0  0  0  0  0  0  0  0  0  0
  -30.0942  -22.5055   22.2118 C   0  0  0  0  0  0  0  0  0  0  0  0
  -25.2816  -17.3098   22.1598 C   0  0  0  0  0  0  0  0  0  0  0  0
  -26.2479  -15.3082   20.2093 C   0  0  0  0  0  0  0  0  0  0  0  0
  -30.7035  -21.2575   21.5813 C   0  0  0  0  0  0  0  0  0  0  0  0
  -26.8180  -25.8375   15.7515 C   0  0  0  0  0  0  0  0  0  0  0  0
  -29.8806  -20.0330   21.9525 C   0  0  0  0  0  0  0  0  0  0  0  0
  -26.6271  -26.8254   16.9038 C   0  0  0  0  0  0  0  0  0  0  0  0
  -25.6259  -24.8927   15.6302 C   0  0  0  0  0  0  0  0  0  0  0  0
  -25.1145  -25.1270   18.0296 C   0  0  0  0  0  0  0  0  0  0  0  0
  -28.4564  -20.1420   21.3932 C   0  0  1  0  0  0  0  0  0  0  0  0
  -26.7333  -16.8411   22.1425 C   0  0  1  0  0  0  0  0  0  0  0  0
  -26.2964  -26.0953   18.2190 C   0  0  2  0  0  0  0  0  0  0  0  0
  -26.8773   -9.0971   22.2514 C   0  0  0  0  0  0  0  0  0  0  0  0
  -30.1112  -14.4542   20.0802 C   0  0  0  0  0  0  0  0  0  0  0  0
  -29.8066  -11.9694   20.0401 C   0  0  0  0  0  0  0  0  0  0  0  0
  -30.4355  -13.1130   22.1660 C   0  0  0  0  0  0  0  0  0  0  0  0
  -18.5364  -15.5987   13.3305 C   0  0  0  0  0  0  0  0  0  0  0  0
  -23.8758  -11.3235   22.9656 C   0  0  0  0  0  0  0  0  0  0  0  0
  -21.5854  -20.2925   13.1727 C   0  0  0  0  0  0  0  0  0  0  0  0
  -21.4432  -17.4123   16.9899 C   0  0  0  0  0  0  0  0  0  1  0  0
  -22.5394  -18.1604   14.0356 C   0  0  0  0  0  0  0  0  0  0  0  0
  -24.2538  -19.9786   15.8382 C   0  0  0  0  0  0  0  0  0  0  0  0
  -25.6262  -20.5917   16.0949 C   0  0  0  0  0  0  0  0  0  0  0  0
  -23.7234  -20.3116   14.4495 C   0  0  0  0  0  0  0  0  0  0  0  0
  -28.0875  -13.3744   21.2656 C   0  0  1  0  0  0  0  0  0  0  0  0
  -26.1658  -10.3939   22.6047 C   0  0  2  0  0  0  0  0  0  0  0  0
  -29.5886  -13.2451   20.8815 C   0  0  0  0  0  0  0  0  0  0  0  0
  -24.7990  -27.4781   19.6075 N   0  0  0  0  0  0  0  0  0  0  0  0
  -20.5648  -16.9014   13.3967 N   0  0  0  0  0  0  0  0  0  0  0  0
  -19.5875  -16.2635   14.0631 N   0  0  0  0  0  0  0  0  0  0  0  0
  -26.0545  -27.0692   19.3572 N   0  0  0  0  0  0  0  0  0  0  0  0
  -26.8962  -15.5293   21.5125 N   0  0  0  0  0  0  0  0  0  0  0  0
  -25.3759  -24.2157   16.9105 N   0  0  0  0  0  0  0  0  0  0  0  0
  -28.2970  -27.3018   20.0838 N   0  0  0  0  0  0  0  0  0  0  0  0
  -26.0051  -29.9869   22.9006 N   0  0  0  0  0  0  0  0  0  0  0  0
  -27.6518  -19.0710   21.9385 N   0  0  0  0  0  0  0  0  0  0  0  0
  -27.5726  -12.2561   22.0483 N   0  0  0  0  0  0  0  0  0  0  0  0
  -25.6068  -22.0357   16.0207 N   0  0  0  0  0  0  0  0  0  0  0  0
  -24.6977  -10.1380   22.6108 N   0  3  0  0  0  0  0  0  0  0  0  0
  -22.3947  -19.6333   14.2558 N   0  3  1  0  0  0  0  0  0  0  0  0
  -28.0934  -29.2167   22.3485 O   0  0  0  0  0  0  0  0  0  0  0  0
  -28.2863  -17.3945   20.4522 O   0  0  0  0  0  0  0  0  0  0  0  0
  -28.3643  -14.7754   23.1595 O   0  0  0  0  0  0  0  0  0  0  0  0
  -25.8876  -11.6649   20.5690 O   0  0  0  0  0  0  0  0  0  0  0  0
  -25.1379  -22.3338   18.2447 O   0  0  0  0  0  0  0  0  0  0  0  0
  -20.5024  -30.8553   22.8758 O   0  0  0  0  0  0  0  0  0  0  0  0
  -22.5884  -16.5946   17.2276 O   0  0  0  0  0  0  0  0  0  1  0  0
  -15.9860  -27.8191   23.7633 F   0  0  0  0  0  0  0  0  0  0  0  0
  -19.4649  -30.5672   25.4220 F   0  0  0  0  0  0  0  0  0  0  0  0
  1  2  1  0  0  0  0
  1  5  2  0  0  0  0
  2  6  2  0  0  0  0
  3  8  2  0  0  0  0
  3 16  1  0  0  0  0
  4  9  1  0  0  0  0
  4 16  2  0  0  0  0
  5 18  1  0  0  0  0
  6 20  1  0  0  0  0
  7 10  2  0  0  0  0
  7 19  1  0  0  0  0
  8 23  1  0  0  0  0
  9 23  2  0  0  0  0
 10 24  1  0  0  0  0
 11 12  2  0  0  0  0
 11 25  1  0  0  0  0
 12 26  1  0  0  0  0
 13 21  1  0  0  0  0
 13 24  2  0  0  0  0
 14 26  2  0  0  0  0
 14 27  1  0  0  0  0
 15 22  2  0  0  0  0
 15 65  1  0  0  0  0
 16 28  1  0  0  0  0
 17 28  1  0  0  0  0
 17 30  2  0  0  0  0
 17 31  1  0  0  0  0
 18 20  2  0  0  0  0
 18 36  1  0  0  0  0
 19 21  2  0  0  0  0
 19 37  1  0  0  0  0
 20 45  1  0  0  0  0
 21 38  1  0  0  0  0
 22 29  1  0  0  0  0
 22 55  1  0  0  0  0
 23 81  1  0  0  0  0
 24 82  1  0  0  0  0
 25 27  2  0  0  0  0
 25 81  1  0  0  0  0
 26 83  1  0  0  0  0
 27 84  1  0  0  0  0
 28 63  2  0  0  0  0
 29 56  1  0  0  0  0
 29 64  2  0  0  0  0
 30 66  1  0  0  0  0
 30 69  1  0  0  0  0
 31 70  1  0  0  0  0
 31 76  2  0  0  0  0
 32 46  1  0  0  0  0
 32 71  1  0  0  0  0
 32 77  2  0  0  0  0
 33 60  1  0  0  0  0
 33 67  1  0  0  0  0
 33 78  2  0  0  0  0
 34 61  1  0  0  0  0
 34 72  1  0  0  0  0
 34 79  2  0  0  0  0
 35 68  1  0  0  0  0
 35 73  1  0  0  0  0
 35 80  2  0  0  0  0
 36 39  1  0  0  0  0
 37 46  1  0  0  0  0
 38 67  1  0  0  0  0
 39 41  1  0  0  0  0
 40 42  1  0  0  0  0
 40 43  1  0  0  0  0
 41 45  1  0  0  0  0
 42 47  1  0  0  0  0
 43 68  1  0  0  0  0
 44 47  1  0  0  0  0
 44 68  1  0  0  0  0
 45 71  1  0  0  0  0
 46 67  1  0  0  0  0
 47 66  1  0  0  0  0
 48 61  1  0  0  0  0
 49 62  1  0  0  0  0
 50 62  1  0  0  0  0
 51 62  1  0  0  0  0
 52 65  1  0  0  0  0
 53 74  1  0  0  0  0
 54 75  1  0  0  0  0
 55 82  1  0  0  0  0
 56 75  1  0  0  0  0
 57 58  1  0  0  0  0
 57 59  1  0  0  0  0
 58 73  1  0  0  0  0
 59 75  1  0  0  0  0
 60 62  1  0  0  0  0
 60 72  1  0  0  0  0
 61 74  1  0  0  0  0
 63 66  1  0  0  0  0
 64 65  1  0  0  0  0
M  CHG  2  74   1  75   1
M  ISO  4  35 100  55 101  73 100  82 101
M  END
> <Batch ID>
0055

> <Smiles>
CNC(C)C(=O)NC(C(=O)N1Cc2cc([101O:1][101CH2:1]c3cn(C)nc3CN(C)CCC[100NH:0][100C:0](=O)N3CCCC(n4nc(-c5ccc(Oc6ccc(F)cc6F)cc5)c(C(N)=O)c4N)C3)ccc2CC1C(=O)NC1CCCc2ccccc21)C(C)(C)C

> <Shape>
0.199

> <Color>
0.062

> <Negative vol penalty>
0.000

$$$$
