
  -OEChem-04052317462D

  0  0  0     0  0  0  0  0  0999 V2000
M  END
$$$$

  -OEChem-04052317463D

 80 88  0     1  0  0  0  0  0999 V2000
  -28.5461  -10.9928   20.6768 C   0  0  0  0  0  0  0  0  0  0  0  0
  -28.8054  -12.2426   20.1233 C   0  0  0  0  0  0  0  0  0  0  0  0
  -25.8154  -27.5098   21.1544 C   0  0  0  0  0  0  0  0  0  0  0  0
  -26.0488  -28.1869   18.8470 C   0  0  0  0  0  0  0  0  0  0  0  0
  -27.2366  -10.6256   20.9835 C   0  0  0  0  0  0  0  0  0  0  0  0
  -27.7550  -13.1255   19.8752 C   0  0  0  0  0  0  0  0  0  0  0  0
  -28.7984  -17.8527   21.3618 C   0  0  0  0  0  0  0  0  0  0  0  0
  -24.7621  -28.4104   21.3122 C   0  0  0  0  0  0  0  0  0  0  0  0
  -24.9954  -29.0875   19.0048 C   0  0  0  0  0  0  0  0  0  0  0  0
  -29.6234  -18.6130   20.5341 C   0  0  0  0  0  0  0  0  0  0  0  0
  -21.4705  -28.5517   20.5517 C   0  0  0  0  0  0  0  0  0  0  0  0
  -20.3296  -28.1045   21.2179 C   0  0  0  0  0  0  0  0  0  0  0  0
  -27.6821  -19.7213   19.6273 C   0  0  0  0  0  0  0  0  0  0  0  0
  -20.6314  -29.8235   22.8886 C   0  0  0  0  0  0  0  0  0  0  0  0
  -32.0906  -20.9206   16.6107 C   0  0  0  0  0  0  0  0  0  0  0  0
  -26.4588  -27.3980   19.9219 C   0  0  0  0  0  0  0  0  0  0  0  0
  -27.4624  -25.1223   19.3547 C   0  0  0  0  0  0  0  0  0  0  0  0
  -26.1706  -11.5082   20.7480 C   0  0  0  0  0  0  0  0  0  0  0  0
  -27.4059  -18.0136   21.3206 C   0  0  0  0  0  0  0  0  0  0  0  0
  -26.4298  -12.7692   20.1778 C   0  0  0  0  0  0  0  0  0  0  0  0
  -26.8418  -18.9637   20.4573 C   0  0  0  0  0  0  0  0  0  0  0  0
  -24.3520  -29.1992   20.2374 C   0  0  0  0  0  0  0  0  0  0  0  0
  -29.0651  -19.5454   19.6646 C   0  0  0  0  0  0  0  0  0  0  0  0
  -22.1920  -29.6347   21.0539 C   0  0  0  0  0  0  0  0  0  0  0  0
  -19.9100  -28.7404   22.3863 C   0  0  0  0  0  0  0  0  0  0  0  0
  -21.7724  -30.2706   22.2224 C   0  0  0  0  0  0  0  0  0  0  0  0
  -27.5474  -26.4683   19.7584 C   0  0  0  0  0  0  0  0  0  0  0  0
  -31.9834  -20.9885   18.0069 C   0  0  0  0  0  0  0  0  0  0  0  0
  -28.7630  -24.6808   19.3558 C   0  0  0  0  0  0  0  0  0  0  0  0
  -26.3108  -24.3411   19.0094 C   0  0  0  0  0  0  0  0  0  0  0  0
  -24.9507  -16.1294   20.5956 C   0  0  0  0  0  0  0  0  0  0  0  0
  -23.2053  -18.6703   21.6055 C   0  0  0  0  0  0  0  0  0  0  0  0
  -22.5231  -22.2035   21.8661 C   0  0  0  0  0  0  0  0  0  0  0  0
  -34.0297  -27.0663   18.0696 C   0  0  0  0  0  0  0  0  0  0  0  0
  -24.7668  -11.0485   21.0521 C   0  0  0  0  0  0  0  0  0  0  0  0
  -26.5316  -17.2047   22.2390 C   0  0  0  0  0  0  0  0  0  0  0  0
  -25.3541  -19.1890   20.3895 C   0  0  0  0  0  0  0  0  0  0  0  0
  -23.7512  -12.1870   21.1057 C   0  0  0  0  0  0  0  0  0  0  0  0
  -32.9591  -26.1571   21.4943 C   0  0  0  0  0  0  0  0  0  0  0  0
  -23.9292  -13.1179   19.9105 C   0  0  0  0  0  0  0  0  0  0  0  0
  -31.4384  -26.0933   21.3620 C   0  0  0  0  0  0  0  0  0  0  0  0
  -33.5750  -27.1312   20.4946 C   0  0  0  0  0  0  0  0  0  0  0  0
  -31.6739  -26.8004   18.9485 C   0  0  0  0  0  0  0  0  0  0  0  0
  -25.3198  -13.7642   19.9170 C   0  0  1  0  0  0  0  0  0  0  0  0
  -25.0931  -17.0871   21.7446 C   0  0  1  0  0  0  0  0  0  0  0  0
  -31.0262  -25.7930   19.9104 C   0  0  2  0  0  0  0  0  0  0  0  0
  -20.7082  -23.4287   23.0918 C   0  0  0  0  0  0  0  0  0  0  0  0
  -21.7257  -18.5544   18.9395 C   0  0  0  0  0  0  0  0  0  0  0  0
  -20.8799  -20.8678   19.3878 C   0  0  0  0  0  0  0  0  0  0  0  0
  -20.2686  -18.9990   20.9229 C   0  0  0  0  0  0  0  0  0  0  0  0
  -34.8134  -26.4198   15.8229 C   0  0  0  0  0  0  0  0  0  0  0  0
  -24.4799  -23.8594   23.3452 C   0  0  0  0  0  0  0  0  0  0  0  0
  -31.2737  -20.0608   18.9487 C   0  0  0  0  0  0  0  0  0  1  0  0
  -33.8909  -23.7872   17.3137 C   0  0  0  0  0  0  0  0  0  0  0  0
  -33.0929  -25.0233   16.9071 C   0  0  0  0  0  0  0  0  0  0  0  0
  -22.6301  -19.9014   20.9479 C   0  0  1  0  0  0  0  0  0  0  0  0
  -22.1571  -22.9679   23.1256 C   0  0  2  0  0  0  0  0  0  0  0  0
  -21.4040  -19.5752   20.0492 C   0  0  0  0  0  0  0  0  0  0  0  0
  -32.8129  -21.9506   16.1611 N   0  0  0  0  0  0  0  0  0  0  0  0
  -28.8027  -26.8562   19.9987 N   0  0  0  0  0  0  0  0  0  0  0  0
  -32.6376  -22.0617   18.4597 N   0  0  0  0  0  0  0  0  0  0  0  0
  -29.5185  -25.7474   19.7453 N   0  0  0  0  0  0  0  0  0  0  0  0
  -33.1011  -22.5807   17.3114 N   0  0  0  0  0  0  0  0  0  0  0  0
  -24.5408  -18.3693   21.3027 N   0  0  0  0  0  0  0  0  0  0  0  0
  -33.1326  -26.8499   19.1284 N   0  0  0  0  0  0  0  0  0  0  0  0
  -29.3226  -23.4880   19.0616 N   0  0  0  0  0  0  0  0  0  0  0  0
  -25.0498  -24.9507   19.0615 N   0  0  0  0  0  0  0  0  0  0  0  0
  -25.3708  -14.8439   20.8793 N   0  0  0  0  0  0  0  0  0  0  0  0
  -22.3480  -20.8450   22.0242 N   0  0  0  0  0  0  0  0  0  0  0  0
  -33.8990  -26.2417   16.9419 N   0  0  0  0  0  0  0  0  0  0  0  0
  -23.0284  -24.1677   23.2750 N   0  3  0  0  0  0  0  0  0  0  0  0
  -26.3958  -23.1335   18.6807 O   0  0  0  0  0  0  0  0  0  0  0  0
  -24.4922  -16.5269   19.5310 O   0  0  0  0  0  0  0  0  0  0  0  0
  -22.4979  -18.0043   22.3656 O   0  0  0  0  0  0  0  0  0  0  0  0
  -22.9208  -22.7566   20.8431 O   0  0  0  0  0  0  0  0  0  0  0  0
  -34.9040  -27.9401   18.1327 O   0  0  0  0  0  0  0  0  0  0  0  0
  -23.3240  -30.0780   20.3909 O   0  0  0  0  0  0  0  0  0  0  0  0
  -29.8680  -20.2884   18.8552 O   0  0  0  0  0  0  0  0  0  1  0  0
  -18.8134  -28.3119   23.0251 F   0  0  0  0  0  0  0  0  0  0  0  0
  -22.4607  -31.3123   22.7090 F   0  0  0  0  0  0  0  0  0  0  0  0
  1  2  1  0  0  0  0
  1  5  2  0  0  0  0
  2  6  2  0  0  0  0
  3  8  2  0  0  0  0
  3 16  1  0  0  0  0
  4  9  1  0  0  0  0
  4 16  2  0  0  0  0
  5 18  1  0  0  0  0
  6 20  1  0  0  0  0
  7 10  2  0  0  0  0
  7 19  1  0  0  0  0
  8 22  1  0  0  0  0
  9 22  2  0  0  0  0
 10 23  1  0  0  0  0
 11 12  2  0  0  0  0
 11 24  1  0  0  0  0
 12 25  1  0  0  0  0
 13 21  1  0  0  0  0
 13 23  2  0  0  0  0
 14 25  2  0  0  0  0
 14 26  1  0  0  0  0
 15 28  1  0  0  0  0
 15 59  2  0  0  0  0
 16 27  1  0  0  0  0
 17 27  1  0  0  0  0
 17 29  2  0  0  0  0
 17 30  1  0  0  0  0
 18 20  2  0  0  0  0
 18 35  1  0  0  0  0
 19 21  2  0  0  0  0
 19 36  1  0  0  0  0
 20 44  1  0  0  0  0
 21 37  1  0  0  0  0
 22 77  1  0  0  0  0
 23 78  1  0  0  0  0
 24 26  2  0  0  0  0
 24 77  1  0  0  0  0
 25 79  1  0  0  0  0
 26 80  1  0  0  0  0
 27 60  2  0  0  0  0
 28 53  1  0  0  0  0
 28 61  2  0  0  0  0
 29 62  1  0  0  0  0
 29 66  1  0  0  0  0
 30 67  1  0  0  0  0
 30 72  2  0  0  0  0
 31 45  1  0  0  0  0
 31 68  1  0  0  0  0
 31 73  2  0  0  0  0
 32 56  1  0  0  0  0
 32 64  1  0  0  0  0
 32 74  2  0  0  0  0
 33 57  1  0  0  0  0
 33 69  1  0  0  0  0
 33 75  2  0  0  0  0
 34 65  1  0  0  0  0
 34 70  1  0  0  0  0
 34 76  2  0  0  0  0
 35 38  1  0  0  0  0
 36 45  1  0  0  0  0
 37 64  1  0  0  0  0
 38 40  1  0  0  0  0
 39 41  1  0  0  0  0
 39 42  1  0  0  0  0
 40 44  1  0  0  0  0
 41 46  1  0  0  0  0
 42 65  1  0  0  0  0
 43 46  1  0  0  0  0
 43 65  1  0  0  0  0
 44 68  1  0  0  0  0
 45 64  1  0  0  0  0
 46 62  1  0  0  0  0
 47 57  1  0  0  0  0
 48 58  1  0  0  0  0
 49 58  1  0  0  0  0
 50 58  1  0  0  0  0
 51 70  1  0  0  0  0
 52 71  1  0  0  0  0
 53 78  1  0  0  0  0
 54 55  1  0  0  0  0
 54 63  1  0  0  0  0
 55 70  1  0  0  0  0
 56 58  1  0  0  0  0
 56 69  1  0  0  0  0
 57 71  1  0  0  0  0
 59 63  1  0  0  0  0
 60 62  1  0  0  0  0
 61 63  1  0  0  0  0
M  CHG  1  71   1
M  ISO  4  34 100  53 101  70 100  78 101
M  END
> <Batch ID>
0056

> <Smiles>
CNC(C)C(=O)NC(C(=O)N1Cc2cc([101O:1][101CH2:1]c3cnn(CC[100N:0](C)[100C:0](=O)N4CCCC(n5nc(-c6ccc(Oc7ccc(F)cc7F)cc6)c(C(N)=O)c5N)C4)n3)ccc2CC1C(=O)NC1CCCc2ccccc21)C(C)(C)C

> <Shape>
0.209

> <Color>
0.080

> <Negative vol penalty>
0.000

$$$$

  -OEChem-04052317463D

 86 94  0     1  0  0  0  0  0999 V2000
  -29.7286  -12.2916   20.0150 C   0  0  0  0  0  0  0  0  0  0  0  0
  -29.6365  -13.4342   20.8033 C   0  0  0  0  0  0  0  0  0  0  0  0
  -29.2150  -25.9811   20.5572 C   0  0  0  0  0  0  0  0  0  0  0  0
  -27.1631  -24.8364   21.1195 C   0  0  0  0  0  0  0  0  0  0  0  0
  -28.8331  -12.0969   18.9643 C   0  0  0  0  0  0  0  0  0  0  0  0
  -28.6493  -14.3834   20.5406 C   0  0  0  0  0  0  0  0  0  0  0  0
  -24.4212  -19.1097   23.8725 C   0  0  0  0  0  0  0  0  0  0  0  0
  -29.9501  -24.9554   21.1513 C   0  0  0  0  0  0  0  0  0  0  0  0
  -27.8982  -23.8105   21.7135 C   0  0  0  0  0  0  0  0  0  0  0  0
  -24.0634  -20.4563   23.8239 C   0  0  0  0  0  0  0  0  0  0  0  0
  -29.2454  -20.7136   23.0598 C   0  0  0  0  0  0  0  0  0  0  0  0
  -28.8722  -19.3997   22.7772 C   0  0  0  0  0  0  0  0  0  0  0  0
  -22.5213  -19.9758   22.0322 C   0  0  0  0  0  0  0  0  0  0  0  0
  -29.2839  -19.7880   20.4284 C   0  0  0  0  0  0  0  0  0  0  0  0
  -22.2321  -27.6845   22.5672 C   0  0  0  0  0  0  0  0  0  0  0  0
  -27.8215  -25.9217   20.5413 C   0  0  0  0  0  0  0  0  0  0  0  0
  -26.6475  -27.0633   18.5853 C   0  0  0  0  0  0  0  0  0  0  0  0
  -27.8283  -13.0395   18.6947 C   0  0  0  0  0  0  0  0  0  0  0  0
  -23.8387  -18.1863   22.9924 C   0  0  0  0  0  0  0  0  0  0  0  0
  -27.7402  -14.2017   19.4845 C   0  0  0  0  0  0  0  0  0  0  0  0
  -22.8715  -18.6176   22.0733 C   0  0  0  0  0  0  0  0  0  0  0  0
  -29.2917  -23.8700   21.7294 C   0  0  0  0  0  0  0  0  0  0  0  0
  -23.1155  -20.8901   22.9018 C   0  0  0  0  0  0  0  0  0  0  0  0
  -29.6378  -21.5648   22.0267 C   0  0  0  0  0  0  0  0  0  0  0  0
  -28.8915  -18.9368   21.4615 C   0  0  0  0  0  0  0  0  0  0  0  0
  -29.6571  -21.1020   20.7111 C   0  0  0  0  0  0  0  0  0  0  0  0
  -27.0615  -26.9813   19.9283 C   0  0  0  0  0  0  0  0  0  0  0  0
  -21.9194  -26.4019   22.0784 C   0  0  0  0  0  0  0  0  0  0  0  0
  -21.8333  -28.5391   21.5687 C   0  0  0  0  0  0  0  0  0  0  0  0
  -25.9627  -28.2515   18.5091 C   0  0  0  0  0  0  0  0  0  0  0  0
  -26.8626  -26.1474   17.5034 C   0  0  0  0  0  0  0  0  0  0  0  0
  -24.9327  -16.2720   20.7028 C   0  0  0  0  0  0  0  0  0  0  0  0
  -21.8706  -15.2019   20.6734 C   0  0  0  0  0  0  0  0  0  0  0  0
  -18.5812  -15.8136   21.3464 C   0  0  0  0  0  0  0  0  0  0  0  0
  -23.3032  -31.4103   23.0353 C   0  0  0  0  0  0  0  0  0  0  0  0
  -26.9129  -12.8083   17.5186 C   0  0  0  0  0  0  0  0  0  0  0  0
  -24.2158  -16.7326   23.0755 C   0  0  0  0  0  0  0  0  0  0  0  0
  -22.2018  -17.6628   21.1203 C   0  0  0  0  0  0  0  0  0  0  0  0
  -25.6604  -13.6807   17.5410 C   0  0  0  0  0  0  0  0  0  0  0  0
  -25.7317  -32.5884   20.5023 C   0  0  0  0  0  0  0  0  0  0  0  0
  -26.0232  -15.1276   17.8597 C   0  0  0  0  0  0  0  0  0  0  0  0
  -26.3590  -31.2850   20.0108 C   0  0  0  0  0  0  0  0  0  0  0  0
  -25.2438  -32.4749   21.9434 C   0  0  0  0  0  0  0  0  0  0  0  0
  -24.9391  -30.0348   21.6845 C   0  0  0  0  0  0  0  0  0  0  0  0
  -26.6674  -15.2422   19.2465 C   0  0  1  0  0  0  0  0  0  0  0  0
  -23.9361  -15.9680   21.7854 C   0  0  1  0  0  0  0  0  0  0  0  0
  -25.3991  -30.1009   20.2205 C   0  0  2  0  0  0  0  0  0  0  0  0
  -16.3081  -14.7636   21.1798 C   0  0  0  0  0  0  0  0  0  0  0  0
  -21.8391  -15.7521   17.6724 C   0  0  0  0  0  0  0  0  0  0  0  0
  -19.3408  -15.6033   17.7419 C   0  0  0  0  0  0  0  0  0  0  0  0
  -20.7242  -13.6197   18.3538 C   0  0  0  0  0  0  0  0  0  0  0  0
  -21.0188  -30.7282   23.6647 C   0  0  0  0  0  0  0  0  0  0  0  0
  -18.1848  -15.9305   24.2769 C   0  0  0  0  0  0  0  0  0  0  0  0
  -22.1448  -25.0775   22.7631 C   0  0  0  0  0  0  0  0  0  0  0  0
  -21.8907  -30.0092   21.4718 C   0  0  0  0  0  0  0  0  0  0  0  0
  -23.5078  -24.4515   22.4600 C   0  0  0  0  0  0  0  0  0  0  0  0
  -20.7754  -28.1808   19.3177 C   0  0  0  0  0  0  0  0  0  0  0  0
  -23.7606  -23.1565   23.2232 C   0  0  0  0  0  0  0  0  0  1  0  0
  -20.6103  -15.5875   19.9371 C   0  0  1  0  0  0  0  0  0  0  0  0
  -17.5281  -14.9853   22.0601 C   0  0  2  0  0  0  0  0  0  0  0  0
  -20.6425  -15.1592   18.4428 C   0  0  0  0  0  0  0  0  0  0  0  0
  -19.2631  -28.1490   19.2986 C   0  0  0  0  0  0  0  0  0  0  0  0
  -26.6724  -28.0336   20.6530 N   0  0  0  0  0  0  0  0  0  0  0  0
  -21.3646  -26.4341   20.8638 N   0  0  0  0  0  0  0  0  0  0  0  0
  -21.3255  -27.7473   20.5811 N   0  0  0  0  0  0  0  0  0  0  0  0
  -26.0068  -28.7882   19.7621 N   0  0  0  0  0  0  0  0  0  0  0  0
  -22.6088  -16.2527   21.2361 N   0  0  0  0  0  0  0  0  0  0  0  0
  -24.3680  -31.3167   22.1242 N   0  0  0  0  0  0  0  0  0  0  0  0
  -25.3333  -28.8792   17.4930 N   0  0  0  0  0  0  0  0  0  0  0  0
  -27.5870  -24.9742   17.7552 N   0  0  0  0  0  0  0  0  0  0  0  0
  -25.6571  -15.1737   20.2804 N   0  0  0  0  0  0  0  0  0  0  0  0
  -19.5029  -15.0191   20.6980 N   0  0  0  0  0  0  0  0  0  0  0  0
  -22.1540  -30.6554   22.7558 N   0  0  0  0  0  0  0  0  0  0  0  0
  -17.0887  -15.6705   23.3085 N   0  3  0  0  0  0  0  0  0  0  0  0
  -26.4395  -26.3707   16.3438 O   0  0  0  0  0  0  0  0  0  0  0  0
  -25.0357  -17.4179   20.2808 O   0  0  0  0  0  0  0  0  0  0  0  0
  -22.1845  -14.0116   20.7527 O   0  0  0  0  0  0  0  0  0  0  0  0
  -18.5836  -17.0426   21.3594 O   0  0  0  0  0  0  0  0  0  0  0  0
  -23.3719  -32.1352   24.0362 O   0  0  0  0  0  0  0  0  0  0  0  0
  -30.0087  -22.8688   22.3090 O   0  0  0  0  0  0  0  0  0  0  0  0
  -22.7649  -22.2041   22.8518 O   0  0  0  0  0  0  0  0  0  1  0  0
  -28.5346  -17.6746   21.1905 F   0  0  0  0  0  0  0  0  0  0  0  0
  -30.0343  -21.9146   19.7145 F   0  0  0  0  0  0  0  0  0  0  0  0
  -18.8188  -26.8890   19.5069 F   0  0  0  0  0  0  0  0  0  0  0  0
  -18.7716  -28.5617   18.1110 F   0  0  0  0  0  0  0  0  0  0  0  0
  -18.7363  -28.9304   20.2649 F   0  0  0  0  0  0  0  0  0  0  0  0
  1  2  1  0  0  0  0
  1  5  2  0  0  0  0
  2  6  2  0  0  0  0
  3  8  2  0  0  0  0
  3 16  1  0  0  0  0
  4  9  1  0  0  0  0
  4 16  2  0  0  0  0
  5 18  1  0  0  0  0
  6 20  1  0  0  0  0
  7 10  2  0  0  0  0
  7 19  1  0  0  0  0
  8 22  1  0  0  0  0
  9 22  2  0  0  0  0
 10 23  1  0  0  0  0
 11 12  2  0  0  0  0
 11 24  1  0  0  0  0
 12 25  1  0  0  0  0
 13 21  1  0  0  0  0
 13 23  2  0  0  0  0
 14 25  2  0  0  0  0
 14 26  1  0  0  0  0
 15 28  1  0  0  0  0
 15 29  2  0  0  0  0
 16 27  1  0  0  0  0
 17 27  1  0  0  0  0
 17 30  2  0  0  0  0
 17 31  1  0  0  0  0
 18 20  2  0  0  0  0
 18 36  1  0  0  0  0
 19 21  2  0  0  0  0
 19 37  1  0  0  0  0
 20 45  1  0  0  0  0
 21 38  1  0  0  0  0
 22 80  1  0  0  0  0
 23 81  1  0  0  0  0
 24 26  2  0  0  0  0
 24 80  1  0  0  0  0
 25 82  1  0  0  0  0
 26 83  1  0  0  0  0
 27 63  2  0  0  0  0
 28 54  1  0  0  0  0
 28 64  2  0  0  0  0
 29 55  1  0  0  0  0
 29 65  1  0  0  0  0
 30 66  1  0  0  0  0
 30 69  1  0  0  0  0
 31 70  1  0  0  0  0
 31 75  2  0  0  0  0
 32 46  1  0  0  0  0
 32 71  1  0  0  0  0
 32 76  2  0  0  0  0
 33 59  1  0  0  0  0
 33 67  1  0  0  0  0
 33 77  2  0  0  0  0
 34 60  1  0  0  0  0
 34 72  1  0  0  0  0
 34 78  2  0  0  0  0
 35 68  1  0  0  0  0
 35 73  1  0  0  0  0
 35 79  2  0  0  0  0
 36 39  1  0  0  0  0
 37 46  1  0  0  0  0
 38 67  1  0  0  0  0
 39 41  1  0  0  0  0
 40 42  1  0  0  0  0
 40 43  1  0  0  0  0
 41 45  1  0  0  0  0
 42 47  1  0  0  0  0
 43 68  1  0  0  0  0
 44 47  1  0  0  0  0
 44 68  1  0  0  0  0
 45 71  1  0  0  0  0
 46 67  1  0  0  0  0
 47 66  1  0  0  0  0
 48 60  1  0  0  0  0
 49 61  1  0  0  0  0
 50 61  1  0  0  0  0
 51 61  1  0  0  0  0
 52 73  1  0  0  0  0
 53 74  1  0  0  0  0
 54 56  1  0  0  0  0
 55 73  1  0  0  0  0
 56 58  1  0  0  0  0
 57 62  1  0  0  0  0
 57 65  1  0  0  0  0
 58 81  1  0  0  0  0
 59 61  1  0  0  0  0
 59 72  1  0  0  0  0
 60 74  1  0  0  0  0
 62 84  1  0  0  0  0
 62 85  1  0  0  0  0
 62 86  1  0  0  0  0
 63 66  1  0  0  0  0
 64 65  1  0  0  0  0
M  CHG  1  74   1
M  ISO  4  35 100  58 101  73 100  81 101
M  END
> <Batch ID>
0056

> <Smiles>
CNC(C)C(=O)NC(C(=O)N1Cc2cc([101O:1][101CH2:1]CCc3cc(C[100N:0](C)[100C:0](=O)N4CCCC(n5nc(-c6ccc(Oc7ccc(F)cc7F)cc6)c(C(N)=O)c5N)C4)n(CC(F)(F)F)n3)ccc2CC1C(=O)NC1CCCc2ccccc21)C(C)(C)C

> <Shape>
0.199

> <Color>
0.078

> <Negative vol penalty>
0.000

$$$$

  -OEChem-04052317463D

 83 91  0     1  0  0  0  0  0999 V2000
  -22.1304  -11.3265   19.6346 C   0  0  0  0  0  0  0  0  0  0  0  0
  -21.7759  -12.6647   19.7718 C   0  0  0  0  0  0  0  0  0  0  0  0
  -25.2523  -29.4900   19.9985 C   0  0  0  0  0  0  0  0  0  0  0  0
  -25.7476  -27.1627   20.4169 C   0  0  0  0  0  0  0  0  0  0  0  0
  -23.4101  -10.9052   19.9936 C   0  0  0  0  0  0  0  0  0  0  0  0
  -22.7006  -13.5823   20.2691 C   0  0  0  0  0  0  0  0  0  0  0  0
  -22.7980  -17.8839   17.5984 C   0  0  0  0  0  0  0  0  0  0  0  0
  -17.6170  -23.6339   18.0079 C   0  0  0  0  0  0  0  0  0  0  0  0
  -26.5919  -29.8138   20.2135 C   0  0  0  0  0  0  0  0  0  0  0  0
  -27.0872  -27.4864   20.6319 C   0  0  0  0  0  0  0  0  0  0  0  0
  -21.7739  -18.8009   17.8308 C   0  0  0  0  0  0  0  0  0  0  0  0
  -30.7064  -27.6507   20.9366 C   0  0  0  0  0  0  0  0  0  0  0  0
  -31.6736  -26.8422   20.3397 C   0  0  0  0  0  0  0  0  0  0  0  0
  -18.5023  -22.6227   17.6514 C   0  0  0  0  0  0  0  0  0  0  0  0
  -23.2492  -20.0805   19.2469 C   0  0  0  0  0  0  0  0  0  0  0  0
  -30.7799  -27.3817   18.1608 C   0  0  0  0  0  0  0  0  0  0  0  0
  -24.8301  -28.1644   20.1003 C   0  0  0  0  0  0  0  0  0  0  0  0
  -22.8412  -27.4807   18.6566 C   0  0  0  0  0  0  0  0  0  0  0  0
  -24.3541  -11.8199   20.4865 C   0  0  0  0  0  0  0  0  0  0  0  0
  -24.0542  -18.0527   18.1983 C   0  0  0  0  0  0  0  0  0  0  0  0
  -23.9937  -13.1727   20.6363 C   0  0  0  0  0  0  0  0  0  0  0  0
  -24.2883  -19.1656   19.0185 C   0  0  0  0  0  0  0  0  0  0  0  0
  -17.0599  -23.6454   19.2818 C   0  0  0  0  0  0  0  0  0  0  0  0
  -27.5094  -28.8120   20.5302 C   0  0  0  0  0  0  0  0  0  0  0  0
  -21.9985  -19.8978   18.6574 C   0  0  0  0  0  0  0  0  0  0  0  0
  -29.7758  -28.3247   20.1457 C   0  0  0  0  0  0  0  0  0  0  0  0
  -31.7104  -26.7077   18.9518 C   0  0  0  0  0  0  0  0  0  0  0  0
  -29.8126  -28.1902   18.7578 C   0  0  0  0  0  0  0  0  0  0  0  0
  -23.4463  -27.8294   19.8788 C   0  0  0  0  0  0  0  0  0  0  0  0
  -18.7955  -21.6540   18.5977 C   0  0  0  0  0  0  0  0  0  0  0  0
  -17.4175  -22.6308   20.1550 C   0  0  0  0  0  0  0  0  0  0  0  0
  -21.5244  -27.2571   18.9768 C   0  0  0  0  0  0  0  0  0  0  0  0
  -23.4178  -27.3687   17.3486 C   0  0  0  0  0  0  0  0  0  0  0  0
  -25.8043  -16.3705   20.2505 C   0  0  0  0  0  0  0  0  0  0  0  0
  -28.0301  -18.6425   19.6133 C   0  0  0  0  0  0  0  0  0  0  0  0
  -28.7112  -21.8160   18.5591 C   0  0  0  0  0  0  0  0  0  0  0  0
  -18.2692  -25.0796   23.2402 C   0  0  0  0  0  0  0  0  0  0  0  0
  -25.7097  -11.3089   20.9058 C   0  0  0  0  0  0  0  0  0  0  0  0
  -25.1566  -17.0689   17.9162 C   0  0  0  0  0  0  0  0  0  0  0  0
  -25.6252  -19.4032   19.6702 C   0  0  0  0  0  0  0  0  0  0  0  0
  -26.7516  -12.4121   21.0724 C   0  0  0  0  0  0  0  0  0  0  0  0
  -18.5731  -28.5877   22.7134 C   0  0  0  0  0  0  0  0  0  0  0  0
  -26.1743  -13.5752   21.8727 C   0  0  0  0  0  0  0  0  0  0  0  0
  -19.8045  -28.7174   21.8151 C   0  0  0  0  0  0  0  0  0  0  0  0
  -18.7343  -27.4623   23.7330 C   0  0  0  0  0  0  0  0  0  0  0  0
  -20.3166  -26.2803   22.2590 C   0  0  0  0  0  0  0  0  0  0  0  0
  -24.9769  -14.2026   21.1487 C   0  0  1  0  0  0  0  0  0  0  0  0
  -26.2404  -17.0620   18.9898 C   0  0  1  0  0  0  0  0  0  0  0  0
  -20.1784  -27.3657   21.1777 C   0  0  2  0  0  0  0  0  0  0  0  0
  -14.6569  -24.2554   19.6561 C   0  0  0  0  0  0  0  0  0  0  0  0
  -15.9938  -21.3351   21.7731 C   0  0  0  0  0  0  0  0  0  0  0  0
  -30.6215  -23.3989   18.1812 C   0  0  0  0  0  0  0  0  0  0  0  0
  -28.2445  -19.0984   22.6226 C   0  0  0  0  0  0  0  0  0  0  0  0
  -29.4021  -21.2656   22.1415 C   0  0  0  0  0  0  0  0  0  0  0  0
  -30.4299  -19.1146   21.4068 C   0  0  0  0  0  0  0  0  0  0  0  0
  -28.1047  -22.0417   15.6711 C   0  0  0  0  0  0  0  0  0  0  0  0
  -16.1100  -24.7254   19.6690 C   0  0  0  0  0  0  0  0  0  0  0  0
  -19.7482  -20.5490   18.2476 C   0  0  0  0  0  0  0  0  0  1  0  0
  -17.9299  -22.6947   22.6433 C   0  0  0  0  0  0  0  0  0  0  0  0
  -16.8528  -22.5940   21.5373 C   0  0  1  0  0  0  0  0  0  0  0  0
  -28.3850  -19.9864   20.2024 C   0  0  1  0  0  0  0  0  0  0  0  0
  -29.7163  -22.3498   17.5544 C   0  0  2  0  0  0  0  0  0  0  0  0
  -29.0895  -19.8610   21.5827 C   0  0  0  0  0  0  0  0  0  0  0  0
  -22.5847  -27.8290   20.8994 N   0  0  0  0  0  0  0  0  0  0  0  0
  -18.2740  -21.6319   19.8448 N   0  0  0  0  0  0  0  0  0  0  0  0
  -21.4247  -27.4773   20.3191 N   0  0  0  0  0  0  0  0  0  0  0  0
  -26.6693  -18.4099   19.3687 N   0  0  0  0  0  0  0  0  0  0  0  0
  -19.0870  -26.2079   23.0637 N   0  0  0  0  0  0  0  0  0  0  0  0
  -20.4536  -26.8957   18.2384 N   0  0  0  0  0  0  0  0  0  0  0  0
  -24.7857  -27.6333   17.1966 N   0  0  0  0  0  0  0  0  0  0  0  0
  -25.4286  -15.0532   20.0684 N   0  0  0  0  0  0  0  0  0  0  0  0
  -29.1735  -20.6804   19.1899 N   0  0  0  0  0  0  0  0  0  0  0  0
  -18.6717  -23.9335   22.5656 N   0  0  0  0  0  0  0  0  0  0  0  0
  -29.0120  -22.9683   16.3958 N   0  3  0  0  0  0  0  0  0  0  0  0
  -22.7367  -27.0597   16.3416 O   0  0  0  0  0  0  0  0  0  0  0  0
  -25.8096  -16.9859   21.3101 O   0  0  0  0  0  0  0  0  0  0  0  0
  -28.9280  -17.8317   19.3722 O   0  0  0  0  0  0  0  0  0  0  0  0
  -27.6262  -22.3549   18.7664 O   0  0  0  0  0  0  0  0  0  0  0  0
  -17.2526  -25.0941   23.9425 O   0  0  0  0  0  0  0  0  0  0  0  0
  -28.8167  -29.1276   20.7398 O   0  0  0  0  0  0  0  0  0  0  0  0
  -21.0004  -20.7941   18.8864 O   0  0  0  0  0  0  0  0  0  1  0  0
  -32.6403  -25.9325   18.3786 F   0  0  0  0  0  0  0  0  0  0  0  0
  -28.9220  -28.8361   17.9927 F   0  0  0  0  0  0  0  0  0  0  0  0
  1  2  1  0  0  0  0
  1  5  2  0  0  0  0
  2  6  2  0  0  0  0
  3  9  2  0  0  0  0
  3 17  1  0  0  0  0
  4 10  1  0  0  0  0
  4 17  2  0  0  0  0
  5 19  1  0  0  0  0
  6 21  1  0  0  0  0
  7 11  2  0  0  0  0
  7 20  1  0  0  0  0
  8 14  2  0  0  0  0
  8 23  1  0  0  0  0
  9 24  1  0  0  0  0
 10 24  2  0  0  0  0
 11 25  1  0  0  0  0
 12 13  2  0  0  0  0
 12 26  1  0  0  0  0
 13 27  1  0  0  0  0
 14 30  1  0  0  0  0
 15 22  1  0  0  0  0
 15 25  2  0  0  0  0
 16 27  2  0  0  0  0
 16 28  1  0  0  0  0
 17 29  1  0  0  0  0
 18 29  1  0  0  0  0
 18 32  2  0  0  0  0
 18 33  1  0  0  0  0
 19 21  2  0  0  0  0
 19 38  1  0  0  0  0
 20 22  2  0  0  0  0
 20 39  1  0  0  0  0
 21 47  1  0  0  0  0
 22 40  1  0  0  0  0
 23 31  2  0  0  0  0
 23 57  1  0  0  0  0
 24 80  1  0  0  0  0
 25 81  1  0  0  0  0
 26 28  2  0  0  0  0
 26 80  1  0  0  0  0
 27 82  1  0  0  0  0
 28 83  1  0  0  0  0
 29 64  2  0  0  0  0
 30 58  1  0  0  0  0
 30 65  2  0  0  0  0
 31 60  1  0  0  0  0
 31 65  1  0  0  0  0
 32 66  1  0  0  0  0
 32 69  1  0  0  0  0
 33 70  1  0  0  0  0
 33 75  2  0  0  0  0
 34 48  1  0  0  0  0
 34 71  1  0  0  0  0
 34 76  2  0  0  0  0
 35 61  1  0  0  0  0
 35 67  1  0  0  0  0
 35 77  2  0  0  0  0
 36 62  1  0  0  0  0
 36 72  1  0  0  0  0
 36 78  2  0  0  0  0
 37 68  1  0  0  0  0
 37 73  1  0  0  0  0
 37 79  2  0  0  0  0
 38 41  1  0  0  0  0
 39 48  1  0  0  0  0
 40 67  1  0  0  0  0
 41 43  1  0  0  0  0
 42 44  1  0  0  0  0
 42 45  1  0  0  0  0
 43 47  1  0  0  0  0
 44 49  1  0  0  0  0
 45 68  1  0  0  0  0
 46 49  1  0  0  0  0
 46 68  1  0  0  0  0
 47 71  1  0  0  0  0
 48 67  1  0  0  0  0
 49 66  1  0  0  0  0
 50 57  1  0  0  0  0
 51 60  1  0  0  0  0
 52 62  1  0  0  0  0
 53 63  1  0  0  0  0
 54 63  1  0  0  0  0
 55 63  1  0  0  0  0
 56 74  1  0  0  0  0
 58 81  1  0  0  0  0
 59 60  1  0  0  0  0
 59 73  1  0  0  0  0
 61 63  1  0  0  0  0
 61 72  1  0  0  0  0
 62 74  1  0  0  0  0
 64 66  1  0  0  0  0
M  CHG  1  74   1
M  ISO  4  37 100  58 101  73 100  81 101
M  END
> <Batch ID>
0056

> <Smiles>
CCc1ccc([101CH2:1][101O:1]c2ccc3c(c2)CN(C(=O)C(NC(=O)C(C)NC)C(C)(C)C)C(C(=O)NC2CCCc4ccccc42)C3)nc1C(C)C[100NH:0][100C:0](=O)N1CCCC(n2nc(-c3ccc(Oc4ccc(F)cc4F)cc3)c(C(N)=O)c2N)C1

> <Shape>
0.213

> <Color>
0.071

> <Negative vol penalty>
0.000

$$$$

  -OEChem-04052317463D

 82 90  0     1  0  0  0  0  0999 V2000
  -23.2708   -8.0329   21.9792 C   0  0  0  0  0  0  0  0  0  0  0  0
  -24.4739   -8.7199   21.8533 C   0  0  0  0  0  0  0  0  0  0  0  0
  -21.4847  -25.2216   23.9912 C   0  0  0  0  0  0  0  0  0  0  0  0
  -21.6911  -26.8711   22.2380 C   0  0  0  0  0  0  0  0  0  0  0  0
  -22.0883   -8.6098   21.5177 C   0  0  0  0  0  0  0  0  0  0  0  0
  -24.4954   -9.9839   21.2646 C   0  0  0  0  0  0  0  0  0  0  0  0
  -27.9502  -16.2493   21.6190 C   0  0  0  0  0  0  0  0  0  0  0  0
  -20.6582  -26.0868   24.7079 C   0  0  0  0  0  0  0  0  0  0  0  0
  -20.8645  -27.7363   22.9547 C   0  0  0  0  0  0  0  0  0  0  0  0
  -28.6204  -17.1575   20.8006 C   0  0  0  0  0  0  0  0  0  0  0  0
  -18.5168  -30.2390   24.1559 C   0  0  0  0  0  0  0  0  0  0  0  0
  -17.5082  -30.9016   23.4564 C   0  0  0  0  0  0  0  0  0  0  0  0
  -26.5044  -18.0885   20.1114 C   0  0  0  0  0  0  0  0  0  0  0  0
  -16.5451  -28.7757   22.8316 C   0  0  0  0  0  0  0  0  0  0  0  0
  -29.0079  -22.0460   18.1856 C   0  0  0  0  0  0  0  0  0  0  0  0
  -30.8491  -22.2076   19.3766 C   0  0  0  0  0  0  0  0  0  0  0  0
  -22.0013  -25.6137   22.7562 C   0  0  0  0  0  0  0  0  0  0  0  0
  -22.4612  -23.7600   21.0651 C   0  0  0  0  0  0  0  0  0  0  0  0
  -22.0940   -9.8855   20.9318 C   0  0  0  0  0  0  0  0  0  0  0  0
  -26.5493  -16.2467   21.6815 C   0  0  0  0  0  0  0  0  0  0  0  0
  -23.3122  -10.5778   20.7936 C   0  0  0  0  0  0  0  0  0  0  0  0
  -25.8190  -17.1810   20.9333 C   0  0  0  0  0  0  0  0  0  0  0  0
  -30.1507  -21.3282   18.5859 C   0  0  0  0  0  0  0  0  0  0  0  0
  -20.3480  -27.3441   24.1897 C   0  0  0  0  0  0  0  0  0  0  0  0
  -27.8974  -18.0754   20.0444 C   0  0  0  0  0  0  0  0  0  0  0  0
  -18.5397  -28.8448   24.1932 C   0  0  0  0  0  0  0  0  0  0  0  0
  -16.5223  -30.1700   22.7943 C   0  0  0  0  0  0  0  0  0  0  0  0
  -17.5538  -28.1132   23.5311 C   0  0  0  0  0  0  0  0  0  0  0  0
  -22.8557  -24.7206   22.0156 C   0  0  0  0  0  0  0  0  0  0  0  0
  -23.6367  -23.1792   20.6558 C   0  0  0  0  0  0  0  0  0  0  0  0
  -21.1496  -23.4230   20.5942 C   0  0  0  0  0  0  0  0  0  0  0  0
  -24.2763  -14.1401   20.9747 C   0  0  0  0  0  0  0  0  0  0  0  0
  -29.1995  -25.2597   20.6149 C   0  0  0  0  0  0  0  0  0  0  0  0
  -22.3340  -16.3803   22.2906 C   0  0  0  0  0  0  0  0  0  0  0  0
  -21.8225  -19.6555   23.1019 C   0  0  0  0  0  0  0  0  0  0  0  0
  -20.7976  -10.4481   20.4050 C   0  0  0  0  0  0  0  0  0  0  0  0
  -25.8425  -15.2782   22.5897 C   0  0  0  0  0  0  0  0  0  0  0  0
  -24.3145  -17.2328   20.9806 C   0  0  0  0  0  0  0  0  0  0  0  0
  -20.8510  -11.9492   20.1330 C   0  0  0  0  0  0  0  0  0  0  0  0
  -28.0552  -22.1789   22.1724 C   0  0  0  0  0  0  0  0  0  0  0  0
  -22.1210  -12.3083   19.3682 C   0  0  0  0  0  0  0  0  0  0  0  0
  -26.5471  -22.4149   22.2450 C   0  0  0  0  0  0  0  0  0  0  0  0
  -28.8367  -23.4726   22.3859 C   0  0  0  0  0  0  0  0  0  0  0  0
  -26.9419  -24.8094   21.5214 C   0  0  0  0  0  0  0  0  0  0  0  0
  -23.3726  -11.9612   20.1833 C   0  0  1  0  0  0  0  0  0  0  0  0
  -24.3940  -15.0259   22.1828 C   0  0  1  0  0  0  0  0  0  0  0  0
  -26.1167  -23.5342   21.2809 C   0  0  2  0  0  0  0  0  0  0  0  0
  -20.1239  -21.1870   24.1346 C   0  0  0  0  0  0  0  0  0  0  0  0
  -20.6840  -16.2755   19.7262 C   0  0  0  0  0  0  0  0  0  0  0  0
  -19.6173  -18.4358   20.4069 C   0  0  0  0  0  0  0  0  0  0  0  0
  -19.3366  -16.4057   21.8290 C   0  0  0  0  0  0  0  0  0  0  0  0
  -23.6715  -20.4268   25.2802 C   0  0  0  0  0  0  0  0  0  0  0  0
  -30.5254  -19.9099   18.2301 C   0  0  0  0  0  0  0  0  0  0  0  0
  -29.9744  -18.8970   19.2278 C   0  0  0  0  0  0  0  0  0  1  0  0
  -30.4400  -24.5697   20.1061 C   0  0  2  0  0  0  0  0  0  0  0  0
  -21.5762  -17.5774   21.7695 C   0  0  1  0  0  0  0  0  0  0  0  0
  -21.3431  -20.3127   24.3835 C   0  0  2  0  0  0  0  0  0  0  0  0
  -20.3318  -17.1716   20.9303 C   0  0  0  0  0  0  0  0  0  0  0  0
  -31.2686  -25.5282   19.2649 C   0  0  0  0  0  0  0  0  0  0  0  0
  -28.9780  -23.2860   18.6812 N   0  0  0  0  0  0  0  0  0  0  0  0
  -24.1783  -24.7513   22.1994 N   0  0  0  0  0  0  0  0  0  0  0  0
  -30.1107  -23.3541   19.4012 N   0  0  0  0  0  0  0  0  0  0  0  0
  -24.6251  -23.8027   21.3589 N   0  0  0  0  0  0  0  0  0  0  0  0
  -23.6689  -16.2612   21.8787 N   0  0  0  0  0  0  0  0  0  0  0  0
  -28.3780  -24.5217   21.4674 N   0  0  0  0  0  0  0  0  0  0  0  0
  -23.9108  -22.2010   19.7667 N   0  0  0  0  0  0  0  0  0  0  0  0
  -20.0519  -24.1179   21.1198 N   0  0  0  0  0  0  0  0  0  0  0  0
  -23.6008  -12.9574   21.2079 N   0  0  0  0  0  0  0  0  0  0  0  0
  -21.2694  -18.4039   22.9319 N   0  0  0  0  0  0  0  0  0  0  0  0
  -22.4205  -21.1631   24.9640 N   0  3  0  0  0  0  0  0  0  0  0  0
  -20.9554  -22.5206   19.7448 O   0  0  0  0  0  0  0  0  0  0  0  0
  -24.7612  -14.5035   19.9096 O   0  0  0  0  0  0  0  0  0  0  0  0
  -28.9678  -26.4190   20.2619 O   0  0  0  0  0  0  0  0  0  0  0  0
  -21.7647  -15.5841   23.0414 O   0  0  0  0  0  0  0  0  0  0  0  0
  -22.6062  -20.1996   22.3270 O   0  0  0  0  0  0  0  0  0  0  0  0
  -19.5412  -28.1885   24.8888 O   0  0  0  0  0  0  0  0  0  0  0  0
  -28.5490  -18.9625   19.2443 O   0  0  0  0  0  0  0  0  0  1  0  0
  -15.5529  -30.8064   22.1239 F   0  0  0  0  0  0  0  0  0  0  0  0
  -17.5698  -26.7736   23.5644 F   0  0  0  0  0  0  0  0  0  0  0  0
  -32.4455  -24.9928   18.8783 F   0  0  0  0  0  0  0  0  0  0  0  0
  -31.5367  -26.6650   19.9468 F   0  0  0  0  0  0  0  0  0  0  0  0
  -30.5959  -25.8853   18.1464 F   0  0  0  0  0  0  0  0  0  0  0  0
  1  2  1  0  0  0  0
  1  5  2  0  0  0  0
  2  6  2  0  0  0  0
  3  8  2  0  0  0  0
  3 17  1  0  0  0  0
  4  9  1  0  0  0  0
  4 17  2  0  0  0  0
  5 19  1  0  0  0  0
  6 21  1  0  0  0  0
  7 10  2  0  0  0  0
  7 20  1  0  0  0  0
  8 24  1  0  0  0  0
  9 24  2  0  0  0  0
 10 25  1  0  0  0  0
 11 12  2  0  0  0  0
 11 26  1  0  0  0  0
 12 27  1  0  0  0  0
 13 22  1  0  0  0  0
 13 25  2  0  0  0  0
 14 27  2  0  0  0  0
 14 28  1  0  0  0  0
 15 23  1  0  0  0  0
 15 60  2  0  0  0  0
 16 23  2  0  0  0  0
 16 62  1  0  0  0  0
 17 29  1  0  0  0  0
 18 29  1  0  0  0  0
 18 30  2  0  0  0  0
 18 31  1  0  0  0  0
 19 21  2  0  0  0  0
 19 36  1  0  0  0  0
 20 22  2  0  0  0  0
 20 37  1  0  0  0  0
 21 45  1  0  0  0  0
 22 38  1  0  0  0  0
 23 53  1  0  0  0  0
 24 76  1  0  0  0  0
 25 77  1  0  0  0  0
 26 28  2  0  0  0  0
 26 76  1  0  0  0  0
 27 78  1  0  0  0  0
 28 79  1  0  0  0  0
 29 61  2  0  0  0  0
 30 63  1  0  0  0  0
 30 66  1  0  0  0  0
 31 67  1  0  0  0  0
 31 71  2  0  0  0  0
 32 46  1  0  0  0  0
 32 68  1  0  0  0  0
 32 72  2  0  0  0  0
 33 55  1  0  0  0  0
 33 65  1  0  0  0  0
 33 73  2  0  0  0  0
 34 56  1  0  0  0  0
 34 64  1  0  0  0  0
 34 74  2  0  0  0  0
 35 57  1  0  0  0  0
 35 69  1  0  0  0  0
 35 75  2  0  0  0  0
 36 39  1  0  0  0  0
 37 46  1  0  0  0  0
 38 64  1  0  0  0  0
 39 41  1  0  0  0  0
 40 42  1  0  0  0  0
 40 43  1  0  0  0  0
 41 45  1  0  0  0  0
 42 47  1  0  0  0  0
 43 65  1  0  0  0  0
 44 47  1  0  0  0  0
 44 65  1  0  0  0  0
 45 68  1  0  0  0  0
 46 64  1  0  0  0  0
 47 63  1  0  0  0  0
 48 57  1  0  0  0  0
 49 58  1  0  0  0  0
 50 58  1  0  0  0  0
 51 58  1  0  0  0  0
 52 70  1  0  0  0  0
 53 54  1  0  0  0  0
 54 77  1  0  0  0  0
 55 59  1  0  0  0  0
 55 62  1  0  0  0  0
 56 58  1  0  0  0  0
 56 69  1  0  0  0  0
 57 70  1  0  0  0  0
 59 80  1  0  0  0  0
 59 81  1  0  0  0  0
 59 82  1  0  0  0  0
 60 62  1  0  0  0  0
 61 63  1  0  0  0  0
M  CHG  1  70   1
M  ISO  4  33 100  54 101  55 100  77 101
M  END
> <Batch ID>
0056

> <Smiles>
CNC(C)C(=O)NC(C(=O)N1Cc2cc([101O:1][101CH2:1]Cc3cnn([100CH:0]([100C:0](=O)N4CCCC(n5nc(-c6ccc(Oc7ccc(F)cc7F)cc6)c(C(N)=O)c5N)C4)C(F)(F)F)c3)ccc2CC1C(=O)NC1CCCc2ccccc21)C(C)(C)C

> <Shape>
0.205

> <Color>
0.075

> <Negative vol penalty>
0.000

$$$$

  -OEChem-04052317463D

 86 94  0     1  0  0  0  0  0999 V2000
  -32.5449  -14.3031   20.8609 C   0  0  0  0  0  0  0  0  0  0  0  0
  -31.7278  -15.4290   20.8581 C   0  0  0  0  0  0  0  0  0  0  0  0
  -29.2786  -25.4240   20.0620 C   0  0  0  0  0  0  0  0  0  0  0  0
  -27.1640  -25.3581   18.8953 C   0  0  0  0  0  0  0  0  0  0  0  0
  -32.0326  -13.0704   20.4585 C   0  0  0  0  0  0  0  0  0  0  0  0
  -30.3981  -15.3231   20.4520 C   0  0  0  0  0  0  0  0  0  0  0  0
  -25.6145  -18.4457   22.6595 C   0  0  0  0  0  0  0  0  0  0  0  0
  -29.3540  -24.0325   20.0042 C   0  0  0  0  0  0  0  0  0  0  0  0
  -27.2394  -23.9665   18.8374 C   0  0  0  0  0  0  0  0  0  0  0  0
  -24.9431  -19.5793   22.2033 C   0  0  0  0  0  0  0  0  0  0  0  0
  -28.0204  -21.3958   21.6455 C   0  0  0  0  0  0  0  0  0  0  0  0
  -28.3991  -20.7192   22.8050 C   0  0  0  0  0  0  0  0  0  0  0  0
  -23.3000  -18.1701   21.1385 C   0  0  0  0  0  0  0  0  0  0  0  0
  -30.3064  -19.7968   21.6437 C   0  0  0  0  0  0  0  0  0  0  0  0
  -28.1836  -26.0869   19.5076 C   0  0  0  0  0  0  0  0  0  0  0  0
  -28.5980  -28.4429   18.6216 C   0  0  0  0  0  0  0  0  0  0  0  0
  -30.6933  -12.9474   20.0565 C   0  0  0  0  0  0  0  0  0  0  0  0
  -25.1390  -17.1636   22.3489 C   0  0  0  0  0  0  0  0  0  0  0  0
  -29.8677  -14.0878   20.0426 C   0  0  0  0  0  0  0  0  0  0  0  0
  -23.9658  -17.0220   21.5941 C   0  0  0  0  0  0  0  0  0  0  0  0
  -28.3344  -23.3036   19.3918 C   0  0  0  0  0  0  0  0  0  0  0  0
  -23.7873  -19.4416   21.4403 C   0  0  0  0  0  0  0  0  0  0  0  0
  -28.7846  -21.2728   20.4851 C   0  0  0  0  0  0  0  0  0  0  0  0
  -29.5421  -19.9198   22.8041 C   0  0  0  0  0  0  0  0  0  0  0  0
  -29.9276  -20.4733   20.4842 C   0  0  0  0  0  0  0  0  0  0  0  0
  -28.1049  -27.5244   19.5676 C   0  0  0  0  0  0  0  0  0  0  0  0
  -21.1976  -24.0018   19.9321 C   0  0  0  0  0  0  0  0  0  0  0  0
  -22.1989  -24.9191   20.1472 C   0  0  0  0  0  0  0  0  0  0  0  0
  -28.2741  -29.6740   19.1373 C   0  0  0  0  0  0  0  0  0  0  0  0
  -22.8052  -22.8992   20.7868 C   0  0  0  0  0  0  0  0  0  0  0  0
  -29.2871  -28.2046   17.3871 C   0  0  0  0  0  0  0  0  0  0  0  0
  -26.2867  -14.6744   20.7394 C   0  0  0  0  0  0  0  0  0  0  0  0
  -23.6018  -13.2224   21.8373 C   0  0  0  0  0  0  0  0  0  0  0  0
  -23.9931  -31.4156   22.9781 C   0  0  0  0  0  0  0  0  0  0  0  0
  -20.4079  -13.5339   22.9985 C   0  0  0  0  0  0  0  0  0  0  0  0
  -30.1974  -11.6033   19.5850 C   0  0  0  0  0  0  0  0  0  0  0  0
  -25.8599  -15.9511   22.8710 C   0  0  0  0  0  0  0  0  0  0  0  0
  -23.4026  -15.6680   21.2504 C   0  0  0  0  0  0  0  0  0  0  0  0
  -28.6754  -11.5020   19.5261 C   0  0  0  0  0  0  0  0  0  0  0  0
  -27.5265  -31.9273   23.2824 C   0  0  0  0  0  0  0  0  0  0  0  0
  -28.0843  -12.7332   18.8467 C   0  0  0  0  0  0  0  0  0  0  0  0
  -28.1212  -30.9199   22.2992 C   0  0  0  0  0  0  0  0  0  0  0  0
  -26.2673  -31.3813   23.9481 C   0  0  0  0  0  0  0  0  0  0  0  0
  -25.8087  -29.9258   22.0006 C   0  0  0  0  0  0  0  0  0  0  0  0
  -28.4132  -14.0083   19.6325 C   0  0  1  0  0  0  0  0  0  0  0  0
  -25.5726  -14.6905   22.0613 C   0  0  1  0  0  0  0  0  0  0  0  0
  -27.0652  -30.4498   21.2831 C   0  0  2  0  0  0  0  0  0  0  0  0
  -19.8605  -24.2243   19.3594 C   0  0  0  0  0  0  0  0  0  0  0  0
  -18.4531  -12.1668   23.7779 C   0  0  0  0  0  0  0  0  0  0  0  0
  -21.6986  -31.5827   22.1520 C   0  0  0  0  0  0  0  0  0  0  0  0
  -23.5941  -31.3012   20.5385 C   0  0  0  0  0  0  0  0  0  0  0  0
  -22.9726  -12.4782   18.9459 C   0  0  0  0  0  0  0  0  0  0  0  0
  -20.6241  -11.9824   19.6579 C   0  0  0  0  0  0  0  0  0  0  0  0
  -22.5182  -10.6687   20.6114 C   0  0  0  0  0  0  0  0  0  0  0  0
  -24.5096  -24.7150   21.1006 C   0  0  0  0  0  0  0  0  0  0  0  0
  -20.4570  -14.7813   25.6819 C   0  0  0  0  0  0  0  0  0  0  0  0
  -20.8892  -26.9369   21.8787 C   0  0  0  0  0  0  0  0  0  0  0  0
  -22.2765  -26.3685   19.8905 C   0  0  0  0  0  0  0  0  0  0  0  0
  -23.6811  -21.8154   21.3432 C   0  0  0  0  0  0  0  0  0  1  0  0
  -22.8891  -29.3719   22.0598 C   0  0  0  0  0  0  0  0  0  0  0  0
  -22.3247  -28.6768   20.8233 C   0  0  0  0  0  0  0  0  0  0  0  0
  -22.1871  -13.0690   21.3334 C   0  0  1  0  0  0  0  0  0  0  0  0
  -19.7071  -12.9186   24.1964 C   0  0  2  0  0  0  0  0  0  0  0  0
  -23.0541  -30.9018   21.9158 C   0  0  0  0  0  0  0  0  0  0  0  0
  -22.0869  -12.0752   20.1418 C   0  0  0  0  0  0  0  0  0  0  0  0
  -27.5130  -28.1210   20.6057 N   0  0  0  0  0  0  0  0  0  0  0  0
  -21.5811  -22.7464   20.3327 N   0  0  0  0  0  0  0  0  0  0  0  0
  -23.2221  -24.1982   20.6955 N   0  0  0  0  0  0  0  0  0  0  0  0
  -27.6320  -29.4277   20.3151 N   0  0  0  0  0  0  0  0  0  0  0  0
  -24.1469  -14.5129   21.7787 N   0  0  0  0  0  0  0  0  0  0  0  0
  -25.2985  -30.9247   22.9500 N   0  0  0  0  0  0  0  0  0  0  0  0
  -28.4788  -30.9325   18.6936 N   0  0  0  0  0  0  0  0  0  0  0  0
  -29.5387  -26.8792   17.0074 N   0  0  0  0  0  0  0  0  0  0  0  0
  -27.5532  -14.1241   20.7907 N   0  0  0  0  0  0  0  0  0  0  0  0
  -21.3796  -12.6979   22.4904 N   0  0  0  0  0  0  0  0  0  0  0  0
  -19.3172  -13.9783   25.1690 N   0  3  0  0  0  0  0  0  0  0  0  0
  -22.1594  -27.2114   21.1209 N   0  3  1  0  0  0  0  0  0  0  0  0
  -29.6828  -29.1399   16.6507 O   0  0  0  0  0  0  0  0  0  0  0  0
  -25.7293  -15.1264   19.7461 O   0  0  0  0  0  0  0  0  0  0  0  0
  -24.1988  -12.2350   22.2737 O   0  0  0  0  0  0  0  0  0  0  0  0
  -23.5776  -32.2312   23.8054 O   0  0  0  0  0  0  0  0  0  0  0  0
  -20.1194  -14.6434   22.5555 O   0  0  0  0  0  0  0  0  0  0  0  0
  -28.4077  -21.9457   19.3350 O   0  0  0  0  0  0  0  0  0  0  0  0
  -23.1304  -20.5463   20.9933 O   0  0  0  0  0  0  0  0  0  1  0  0
  -29.9066  -19.2713   23.9181 F   0  0  0  0  0  0  0  0  0  0  0  0
  -30.6665  -20.3522   19.3728 F   0  0  0  0  0  0  0  0  0  0  0  0
  1  2  1  0  0  0  0
  1  5  2  0  0  0  0
  2  6  2  0  0  0  0
  3  8  2  0  0  0  0
  3 15  1  0  0  0  0
  4  9  1  0  0  0  0
  4 15  2  0  0  0  0
  5 17  1  0  0  0  0
  6 19  1  0  0  0  0
  7 10  2  0  0  0  0
  7 18  1  0  0  0  0
  8 21  1  0  0  0  0
  9 21  2  0  0  0  0
 10 22  1  0  0  0  0
 11 12  2  0  0  0  0
 11 23  1  0  0  0  0
 12 24  1  0  0  0  0
 13 20  1  0  0  0  0
 13 22  2  0  0  0  0
 14 24  2  0  0  0  0
 14 25  1  0  0  0  0
 15 26  1  0  0  0  0
 16 26  1  0  0  0  0
 16 29  2  0  0  0  0
 16 31  1  0  0  0  0
 17 19  2  0  0  0  0
 17 36  1  0  0  0  0
 18 20  2  0  0  0  0
 18 37  1  0  0  0  0
 19 45  1  0  0  0  0
 20 38  1  0  0  0  0
 21 83  1  0  0  0  0
 22 84  1  0  0  0  0
 23 25  2  0  0  0  0
 23 83  1  0  0  0  0
 24 85  1  0  0  0  0
 25 86  1  0  0  0  0
 26 66  2  0  0  0  0
 27 28  2  0  0  0  0
 27 48  1  0  0  0  0
 27 67  1  0  0  0  0
 28 58  1  0  0  0  0
 28 68  1  0  0  0  0
 29 69  1  0  0  0  0
 29 72  1  0  0  0  0
 30 59  1  0  0  0  0
 30 67  2  0  0  0  0
 30 68  1  0  0  0  0
 31 73  1  0  0  0  0
 31 78  2  0  0  0  0
 32 46  1  0  0  0  0
 32 74  1  0  0  0  0
 32 79  2  0  0  0  0
 33 62  1  0  0  0  0
 33 70  1  0  0  0  0
 33 80  2  0  0  0  0
 34 64  1  0  0  0  0
 34 71  1  0  0  0  0
 34 81  2  0  0  0  0
 35 63  1  0  0  0  0
 35 75  1  0  0  0  0
 35 82  2  0  0  0  0
 36 39  1  0  0  0  0
 37 46  1  0  0  0  0
 38 70  1  0  0  0  0
 39 41  1  0  0  0  0
 40 42  1  0  0  0  0
 40 43  1  0  0  0  0
 41 45  1  0  0  0  0
 42 47  1  0  0  0  0
 43 71  1  0  0  0  0
 44 47  1  0  0  0  0
 44 71  1  0  0  0  0
 45 74  1  0  0  0  0
 46 70  1  0  0  0  0
 47 69  1  0  0  0  0
 49 63  1  0  0  0  0
 50 64  1  0  0  0  0
 51 64  1  0  0  0  0
 52 65  1  0  0  0  0
 53 65  1  0  0  0  0
 54 65  1  0  0  0  0
 55 68  1  0  0  0  0
 56 76  1  0  0  0  0
 57 77  1  0  0  0  0
 58 77  1  0  0  0  0
 59 84  1  0  0  0  0
 60 61  1  0  0  0  0
 60 64  1  0  0  0  0
 61 77  1  0  0  0  0
 62 65  1  0  0  0  0
 62 75  1  0  0  0  0
 63 76  1  0  0  0  0
 66 69  1  0  0  0  0
M  CHG  2  76   1  77   1
M  ISO  4  34 100  59 101  64 100  84 101
M  END
> <Batch ID>
0056

> <Smiles>
CNC(C)C(=O)NC(C(=O)N1Cc2cc([101O:1][101CH2:1]c3nc(C)c(CN(C)CC[100C:0](C)(C)[100C:0](=O)N4CCCC(n5nc(-c6ccc(Oc7ccc(F)cc7F)cc6)c(C(N)=O)c5N)C4)n3C)ccc2CC1C(=O)NC1CCCc2ccccc21)C(C)(C)C

> <Shape>
0.244

> <Color>
0.060

> <Negative vol penalty>
0.000

$$$$

  -OEChem-04052317463D

 84 92  0     1  0  0  0  0  0999 V2000
  -17.4222  -27.9382   22.5451 C   0  0  0  0  0  0  0  0  0  0  0  0
  -18.1076  -26.7494   22.7740 C   0  0  0  0  0  0  0  0  0  0  0  0
  -23.1126   -9.8491   19.9687 C   0  0  0  0  0  0  0  0  0  0  0  0
  -23.5063  -10.0471   22.3442 C   0  0  0  0  0  0  0  0  0  0  0  0
  -18.1174  -29.1462   22.5078 C   0  0  0  0  0  0  0  0  0  0  0  0
  -19.4888  -26.7677   22.9646 C   0  0  0  0  0  0  0  0  0  0  0  0
  -22.7461  -23.1139   26.6451 C   0  0  0  0  0  0  0  0  0  0  0  0
  -26.3926  -18.3514   24.4264 C   0  0  0  0  0  0  0  0  0  0  0  0
  -22.2982   -8.7397   20.1961 C   0  0  0  0  0  0  0  0  0  0  0  0
  -22.6918   -8.9377   22.5716 C   0  0  0  0  0  0  0  0  0  0  0  0
  -23.4885  -21.9591   26.4024 C   0  0  0  0  0  0  0  0  0  0  0  0
  -22.9471   -5.5734   22.3550 C   0  0  0  0  0  0  0  0  0  0  0  0
  -23.4064   -4.6041   23.2467 C   0  0  0  0  0  0  0  0  0  0  0  0
  -27.2911  -17.3086   24.2299 C   0  0  0  0  0  0  0  0  0  0  0  0
  -25.4952  -23.2890   26.2480 C   0  0  0  0  0  0  0  0  0  0  0  0
  -21.4675   -4.9685   24.6414 C   0  0  0  0  0  0  0  0  0  0  0  0
  -26.2396  -17.7194   26.7141 C   0  0  0  0  0  0  0  0  0  0  0  0
  -23.7167  -10.5027   21.0428 C   0  0  0  0  0  0  0  0  0  0  0  0
  -24.1630  -12.9986   20.7616 C   0  0  0  0  0  0  0  0  0  0  0  0
  -19.5065  -29.1805   22.7077 C   0  0  0  0  0  0  0  0  0  0  0  0
  -23.3720  -24.3683   26.6804 C   0  0  0  0  0  0  0  0  0  0  0  0
  -20.2034  -27.9772   22.9287 C   0  0  0  0  0  0  0  0  0  0  0  0
  -24.7589  -24.4579   26.4940 C   0  0  0  0  0  0  0  0  0  0  0  0
  -25.8522  -18.5674   25.6892 C   0  0  0  0  0  0  0  0  0  0  0  0
  -22.0878   -8.2841   21.4976 C   0  0  0  0  0  0  0  0  0  0  0  0
  -24.8629  -22.0468   26.2009 C   0  0  0  0  0  0  0  0  0  0  0  0
  -21.7480   -6.2403   22.6065 C   0  0  0  0  0  0  0  0  0  0  0  0
  -22.6666   -4.3017   24.3899 C   0  0  0  0  0  0  0  0  0  0  0  0
  -21.0083   -5.9378   23.7497 C   0  0  0  0  0  0  0  0  0  0  0  0
  -24.5585  -11.6484   20.8084 C   0  0  0  0  0  0  0  0  0  0  0  0
  -27.6143  -16.5170   25.3202 C   0  0  0  0  0  0  0  0  0  0  0  0
  -25.3244  -13.6882   20.5125 C   0  0  0  0  0  0  0  0  0  0  0  0
  -22.8620  -13.5777   20.9285 C   0  0  0  0  0  0  0  0  0  0  0  0
  -23.1300  -27.0445   24.9825 C   0  0  0  0  0  0  0  0  0  0  0  0
  -25.1791  -28.1892   27.2215 C   0  0  0  0  0  0  0  0  0  0  0  0
  -27.5743  -27.5331   29.5623 C   0  0  0  0  0  0  0  0  0  0  0  0
  -31.0986  -11.9211   21.5492 C   0  0  0  0  0  0  0  0  0  0  0  0
  -20.2213  -30.5050   22.6115 C   0  0  0  0  0  0  0  0  0  0  0  0
  -22.5611  -25.6015   26.9700 C   0  0  0  0  0  0  0  0  0  0  0  0
  -25.4818  -25.7784   26.5421 C   0  0  0  0  0  0  0  0  0  0  0  0
  -21.6314  -30.4801   23.1956 C   0  0  0  0  0  0  0  0  0  0  0  0
  -29.5971  -13.2193   18.4248 C   0  0  0  0  0  0  0  0  0  0  0  0
  -22.3894  -29.2494   22.7082 C   0  0  0  0  0  0  0  0  0  0  0  0
  -28.1026  -13.0070   18.6601 C   0  0  0  0  0  0  0  0  0  0  0  0
  -30.4414  -12.2024   19.1869 C   0  0  0  0  0  0  0  0  0  0  0  0
  -28.6599  -11.9419   20.8817 C   0  0  0  0  0  0  0  0  0  0  0  0
  -21.6981  -27.9590   23.1647 C   0  0  1  0  0  0  0  0  0  0  0  0
  -23.2239  -26.8827   26.4733 C   0  0  1  0  0  0  0  0  0  0  0  0
  -27.7827  -12.9792   20.1648 C   0  0  2  0  0  0  0  0  0  0  0  0
  -29.0902  -28.6758   31.2035 C   0  0  0  0  0  0  0  0  0  0  0  0
  -26.9967  -29.0618   24.9314 C   0  0  0  0  0  0  0  0  0  0  0  0
  -28.8539  -29.3091   26.5921 C   0  0  0  0  0  0  0  0  0  0  0  0
  -26.8036  -30.7150   26.7979 C   0  0  0  0  0  0  0  0  0  0  0  0
  -31.9753  -12.2897   23.8241 C   0  0  0  0  0  0  0  0  0  0  0  0
  -26.3444  -26.1242   31.8560 C   0  0  0  0  0  0  0  0  0  0  0  0
  -26.7569  -13.6884   25.1358 C   0  0  0  0  0  0  0  0  0  0  0  0
  -24.8799  -19.6837   25.9337 C   0  0  0  0  0  0  0  0  0  1  0  0
  -28.5756  -15.3892   25.1458 C   0  0  0  0  0  0  0  0  0  0  0  0
  -29.9722  -13.5487   23.1254 C   0  0  0  0  0  0  0  0  0  0  0  0
  -28.9969  -13.1218   24.2065 C   0  0  0  0  0  0  0  0  0  0  0  0
  -26.6807  -28.2538   27.3631 C   0  0  1  0  0  0  0  0  0  0  0  0
  -27.7399  -28.0081   30.9945 C   0  0  2  0  0  0  0  0  0  0  0  0
  -27.3201  -29.3101   26.4182 C   0  0  0  0  0  0  0  0  0  0  0  0
  -27.1098  -16.6961   26.5617 N   0  0  0  0  0  0  0  0  0  0  0  0
  -25.8688  -11.4876   20.6052 N   0  0  0  0  0  0  0  0  0  0  0  0
  -26.3067  -12.7457   20.4282 N   0  0  0  0  0  0  0  0  0  0  0  0
  -24.6441  -26.9562   26.8222 N   0  0  0  0  0  0  0  0  0  0  0  0
  -30.0869  -12.1660   20.6061 N   0  0  0  0  0  0  0  0  0  0  0  0
  -25.5910  -15.0027   20.3595 N   0  0  0  0  0  0  0  0  0  0  0  0
  -21.7782  -12.7251   21.1785 N   0  0  0  0  0  0  0  0  0  0  0  0
  -21.9877  -27.6961   24.5581 N   0  0  0  0  0  0  0  0  0  0  0  0
  -26.9478  -28.4796   28.7795 N   0  0  0  0  0  0  0  0  0  0  0  0
  -30.9471  -12.5051   22.8159 N   0  0  0  0  0  0  0  0  0  0  0  0
  -27.6332  -26.8587   31.9371 N   0  3  0  0  0  0  0  0  0  0  0  0
  -27.9875  -14.2156   24.4435 N   0  3  1  0  0  0  0  0  0  0  0  0
  -22.6638  -14.8133   20.8418 O   0  0  0  0  0  0  0  0  0  0  0  0
  -24.0282  -26.6116   24.2700 O   0  0  0  0  0  0  0  0  0  0  0  0
  -24.5051  -29.1936   27.4634 O   0  0  0  0  0  0  0  0  0  0  0  0
  -27.9652  -26.4339   29.1756 O   0  0  0  0  0  0  0  0  0  0  0  0
  -32.0858  -11.2281   21.2715 O   0  0  0  0  0  0  0  0  0  0  0  0
  -21.2929   -7.2018   21.7199 O   0  0  0  0  0  0  0  0  0  0  0  0
  -25.5898  -20.9213   25.9631 O   0  0  0  0  0  0  0  0  0  1  0  0
  -23.1071   -3.3697   25.2453 F   0  0  0  0  0  0  0  0  0  0  0  0
  -19.8550   -6.5743   23.9961 F   0  0  0  0  0  0  0  0  0  0  0  0
  1  2  1  0  0  0  0
  1  5  2  0  0  0  0
  2  6  2  0  0  0  0
  3  9  2  0  0  0  0
  3 18  1  0  0  0  0
  4 10  1  0  0  0  0
  4 18  2  0  0  0  0
  5 20  1  0  0  0  0
  6 22  1  0  0  0  0
  7 11  2  0  0  0  0
  7 21  1  0  0  0  0
  8 14  2  0  0  0  0
  8 24  1  0  0  0  0
  9 25  1  0  0  0  0
 10 25  2  0  0  0  0
 11 26  1  0  0  0  0
 12 13  2  0  0  0  0
 12 27  1  0  0  0  0
 13 28  1  0  0  0  0
 14 31  1  0  0  0  0
 15 23  1  0  0  0  0
 15 26  2  0  0  0  0
 16 28  2  0  0  0  0
 16 29  1  0  0  0  0
 17 24  2  0  0  0  0
 17 64  1  0  0  0  0
 18 30  1  0  0  0  0
 19 30  1  0  0  0  0
 19 32  2  0  0  0  0
 19 33  1  0  0  0  0
 20 22  2  0  0  0  0
 20 38  1  0  0  0  0
 21 23  2  0  0  0  0
 21 39  1  0  0  0  0
 22 47  1  0  0  0  0
 23 40  1  0  0  0  0
 24 57  1  0  0  0  0
 25 81  1  0  0  0  0
 26 82  1  0  0  0  0
 27 29  2  0  0  0  0
 27 81  1  0  0  0  0
 28 83  1  0  0  0  0
 29 84  1  0  0  0  0
 30 65  2  0  0  0  0
 31 58  1  0  0  0  0
 31 64  2  0  0  0  0
 32 66  1  0  0  0  0
 32 69  1  0  0  0  0
 33 70  1  0  0  0  0
 33 76  2  0  0  0  0
 34 48  1  0  0  0  0
 34 71  1  0  0  0  0
 34 77  2  0  0  0  0
 35 61  1  0  0  0  0
 35 67  1  0  0  0  0
 35 78  2  0  0  0  0
 36 62  1  0  0  0  0
 36 72  1  0  0  0  0
 36 79  2  0  0  0  0
 37 68  1  0  0  0  0
 37 73  1  0  0  0  0
 37 80  2  0  0  0  0
 38 41  1  0  0  0  0
 39 48  1  0  0  0  0
 40 67  1  0  0  0  0
 41 43  1  0  0  0  0
 42 44  1  0  0  0  0
 42 45  1  0  0  0  0
 43 47  1  0  0  0  0
 44 49  1  0  0  0  0
 45 68  1  0  0  0  0
 46 49  1  0  0  0  0
 46 68  1  0  0  0  0
 47 71  1  0  0  0  0
 48 67  1  0  0  0  0
 49 66  1  0  0  0  0
 50 62  1  0  0  0  0
 51 63  1  0  0  0  0
 52 63  1  0  0  0  0
 53 63  1  0  0  0  0
 54 73  1  0  0  0  0
 55 74  1  0  0  0  0
 56 75  1  0  0  0  0
 57 82  1  0  0  0  0
 58 75  1  0  0  0  0
 59 60  1  0  0  0  0
 59 73  1  0  0  0  0
 60 75  1  0  0  0  0
 61 63  1  0  0  0  0
 61 72  1  0  0  0  0
 62 74  1  0  0  0  0
 65 66  1  0  0  0  0
M  CHG  2  74   1  75   1
M  ISO  4  37 100  57 101  73 100  82 101
M  END
> <Batch ID>
0056

> <Smiles>
CNC(C)C(=O)NC(C(=O)N1Cc2cc([101O:1][101CH2:1]c3ccc(CN(C)CC[100N:0](C)[100C:0](=O)N4CCCC(n5nc(-c6ccc(Oc7ccc(F)cc7F)cc6)c(C(N)=O)c5N)C4)nc3)ccc2CC1C(=O)NC1CCCc2ccccc21)C(C)(C)C

> <Shape>
0.218

> <Color>
0.195

> <Negative vol penalty>
0.000

$$$$

  -OEChem-04052317463D

 82 90  0     1  0  0  0  0  0999 V2000
  -28.7815  -23.0960   18.2654 C   0  0  0  0  0  0  0  0  0  0  0  0
  -27.6558  -23.2921   19.0590 C   0  0  0  0  0  0  0  0  0  0  0  0
  -26.4571  -13.4123   20.2133 C   0  0  0  0  0  0  0  0  0  0  0  0
  -24.3592  -13.5881   21.3985 C   0  0  0  0  0  0  0  0  0  0  0  0
  -29.9169  -23.8810   18.4619 C   0  0  0  0  0  0  0  0  0  0  0  0
  -27.6653  -24.2727   20.0503 C   0  0  0  0  0  0  0  0  0  0  0  0
  -23.4192  -27.0320   20.0941 C   0  0  0  0  0  0  0  0  0  0  0  0
  -26.4293  -12.0265   20.3694 C   0  0  0  0  0  0  0  0  0  0  0  0
  -24.3313  -12.2023   21.5546 C   0  0  0  0  0  0  0  0  0  0  0  0
  -22.2930  -26.4582   20.6825 C   0  0  0  0  0  0  0  0  0  0  0  0
  -23.5576   -9.5009   19.6771 C   0  0  0  0  0  0  0  0  0  0  0  0
  -22.3530   -8.8457   19.4221 C   0  0  0  0  0  0  0  0  0  0  0  0
  -22.7013  -27.7309   22.6907 C   0  0  0  0  0  0  0  0  0  0  0  0
  -22.3192   -8.0236   21.6937 C   0  0  0  0  0  0  0  0  0  0  0  0
  -22.0451  -21.9037   24.5767 C   0  0  0  0  0  0  0  0  0  0  0  0
  -25.4221  -14.1931   20.7279 C   0  0  0  0  0  0  0  0  0  0  0  0
  -24.9116  -16.3718   19.5029 C   0  0  0  0  0  0  0  0  0  0  0  0
  -29.9368  -24.8782   19.4497 C   0  0  0  0  0  0  0  0  0  0  0  0
  -24.2024  -27.9529   20.8046 C   0  0  0  0  0  0  0  0  0  0  0  0
  -28.8024  -25.0709   20.2611 C   0  0  0  0  0  0  0  0  0  0  0  0
  -23.8355  -28.3168   22.1081 C   0  0  0  0  0  0  0  0  0  0  0  0
  -25.3663  -11.4215   21.0400 C   0  0  0  0  0  0  0  0  0  0  0  0
  -21.9355  -26.8054   21.9820 C   0  0  0  0  0  0  0  0  0  0  0  0
  -24.1431   -9.4175   20.9404 C   0  0  0  0  0  0  0  0  0  0  0  0
  -21.7337   -8.1071   20.4303 C   0  0  0  0  0  0  0  0  0  0  0  0
  -23.5239   -8.6789   21.9487 C   0  0  0  0  0  0  0  0  0  0  0  0
  -25.4506  -15.6248   20.5674 C   0  0  0  0  0  0  0  0  0  0  0  0
  -21.8983  -23.2888   24.3721 C   0  0  0  0  0  0  0  0  0  0  0  0
  -23.3593  -21.6487   24.2698 C   0  0  0  0  0  0  0  0  0  0  0  0
  -25.1987  -17.6771   19.8194 C   0  0  0  0  0  0  0  0  0  0  0  0
  -24.2136  -15.9256   18.3326 C   0  0  0  0  0  0  0  0  0  0  0  0
  -27.2198  -28.0334   21.8010 C   0  0  0  0  0  0  0  0  0  0  0  0
  -26.4411  -31.0585   22.6758 C   0  0  0  0  0  0  0  0  0  0  0  0
  -24.0063  -33.2898   23.5358 C   0  0  0  0  0  0  0  0  0  0  0  0
  -26.4179  -20.0810   25.3215 C   0  0  0  0  0  0  0  0  0  0  0  0
  -31.2038  -25.6700   19.6564 C   0  0  0  0  0  0  0  0  0  0  0  0
  -25.3990  -28.5830   20.1461 C   0  0  0  0  0  0  0  0  0  0  0  0
  -24.6313  -29.3159   22.9063 C   0  0  0  0  0  0  0  0  0  0  0  0
  -31.0010  -26.9401   20.4785 C   0  0  0  0  0  0  0  0  0  0  0  0
  -28.3673  -20.3584   22.1871 C   0  0  0  0  0  0  0  0  0  0  0  0
  -30.1608  -26.6458   21.7172 C   0  0  0  0  0  0  0  0  0  0  0  0
  -27.8360  -19.1890   21.3598 C   0  0  0  0  0  0  0  0  0  0  0  0
  -28.2652  -20.0862   23.6848 C   0  0  0  0  0  0  0  0  0  0  0  0
  -26.3651  -18.5486   23.3110 C   0  0  0  0  0  0  0  0  0  0  0  0
  -28.7654  -26.1413   21.3302 C   0  0  1  0  0  0  0  0  0  0  0  0
  -26.4169  -29.1219   21.1466 C   0  0  1  0  0  0  0  0  0  0  0  0
  -26.4107  -18.8099   21.7980 C   0  0  2  0  0  0  0  0  0  0  0  0
  -23.6805  -35.6781   24.2339 C   0  0  0  0  0  0  0  0  0  0  0  0
  -27.4527  -30.3764   25.4725 C   0  0  0  0  0  0  0  0  0  0  0  0
  -26.2531  -32.4021   26.3246 C   0  0  0  0  0  0  0  0  0  0  0  0
  -28.0923  -32.6529   24.6582 C   0  0  0  0  0  0  0  0  0  0  0  0
  -25.2612  -23.1024   23.5058 C   0  0  0  0  0  0  0  0  0  0  0  0
  -24.4776  -20.7129   26.7056 C   0  0  0  0  0  0  0  0  0  0  0  0
  -22.3312  -33.8751   21.1672 C   0  0  0  0  0  0  0  0  0  0  0  0
  -20.6525  -24.1179   24.5568 C   0  0  0  0  0  0  0  0  0  0  0  0
  -24.1310  -20.3925   24.2843 C   0  0  0  0  0  0  0  0  0  0  0  0
  -19.7879  -24.2193   23.2983 C   0  0  0  0  0  0  0  0  0  0  0  0
  -20.4848  -24.9278   22.1425 C   0  0  0  0  0  0  0  0  0  1  0  0
  -25.8710  -31.6988   23.9183 C   0  0  1  0  0  0  0  0  0  0  0  0
  -23.7259  -34.7057   23.0655 C   0  0  2  0  0  0  0  0  0  0  0  0
  -26.9032  -31.7622   25.0793 C   0  0  0  0  0  0  0  0  0  0  0  0
  -26.0361  -16.3917   21.4910 N   0  0  0  0  0  0  0  0  0  0  0  0
  -23.0291  -23.8728   23.9667 N   0  0  0  0  0  0  0  0  0  0  0  0
  -23.8989  -22.8497   23.9142 N   0  0  0  0  0  0  0  0  0  0  0  0
  -25.8666  -17.6342   21.0078 N   0  0  0  0  0  0  0  0  0  0  0  0
  -25.7963  -29.8995   22.2210 N   0  0  0  0  0  0  0  0  0  0  0  0
  -26.9105  -19.6861   24.0668 N   0  0  0  0  0  0  0  0  0  0  0  0
  -24.9427  -18.8459   19.1942 N   0  0  0  0  0  0  0  0  0  0  0  0
  -24.0037  -14.5503   18.1635 N   0  0  0  0  0  0  0  0  0  0  0  0
  -27.9266  -27.2446   20.9136 N   0  0  0  0  0  0  0  0  0  0  0  0
  -25.3539  -32.9995   23.5067 N   0  0  0  0  0  0  0  0  0  0  0  0
  -25.0347  -20.2915   25.4281 N   0  0  0  0  0  0  0  0  0  0  0  0
  -22.4182  -34.7654   22.3533 N   0  3  0  0  0  0  0  0  0  0  0  0
  -23.8030  -16.7218   17.4545 O   0  0  0  0  0  0  0  0  0  0  0  0
  -27.2007  -27.9188   23.0209 O   0  0  0  0  0  0  0  0  0  0  0  0
  -27.4182  -31.5718   22.1248 O   0  0  0  0  0  0  0  0  0  0  0  0
  -23.1190  -32.5197   23.8967 O   0  0  0  0  0  0  0  0  0  0  0  0
  -27.1725  -20.2459   26.2886 O   0  0  0  0  0  0  0  0  0  0  0  0
  -25.3387  -10.0692   21.1923 O   0  0  0  0  0  0  0  0  0  0  0  0
  -20.8371  -26.2464   22.5589 O   0  0  0  0  0  0  0  0  0  1  0  0
  -20.5761   -7.4791   20.1857 F   0  0  0  0  0  0  0  0  0  0  0  0
  -24.0809   -8.5960   23.1647 F   0  0  0  0  0  0  0  0  0  0  0  0
  1  2  1  0  0  0  0
  1  5  2  0  0  0  0
  2  6  2  0  0  0  0
  3  8  2  0  0  0  0
  3 16  1  0  0  0  0
  4  9  1  0  0  0  0
  4 16  2  0  0  0  0
  5 18  1  0  0  0  0
  6 20  1  0  0  0  0
  7 10  2  0  0  0  0
  7 19  1  0  0  0  0
  8 22  1  0  0  0  0
  9 22  2  0  0  0  0
 10 23  1  0  0  0  0
 11 12  2  0  0  0  0
 11 24  1  0  0  0  0
 12 25  1  0  0  0  0
 13 21  1  0  0  0  0
 13 23  2  0  0  0  0
 14 25  2  0  0  0  0
 14 26  1  0  0  0  0
 15 28  1  0  0  0  0
 15 29  2  0  0  0  0
 16 27  1  0  0  0  0
 17 27  1  0  0  0  0
 17 30  2  0  0  0  0
 17 31  1  0  0  0  0
 18 20  2  0  0  0  0
 18 36  1  0  0  0  0
 19 21  2  0  0  0  0
 19 37  1  0  0  0  0
 20 45  1  0  0  0  0
 21 38  1  0  0  0  0
 22 79  1  0  0  0  0
 23 80  1  0  0  0  0
 24 26  2  0  0  0  0
 24 79  1  0  0  0  0
 25 81  1  0  0  0  0
 26 82  1  0  0  0  0
 27 62  2  0  0  0  0
 28 55  1  0  0  0  0
 28 63  2  0  0  0  0
 29 56  1  0  0  0  0
 29 64  1  0  0  0  0
 30 65  1  0  0  0  0
 30 68  1  0  0  0  0
 31 69  1  0  0  0  0
 31 74  2  0  0  0  0
 32 46  1  0  0  0  0
 32 70  1  0  0  0  0
 32 75  2  0  0  0  0
 33 59  1  0  0  0  0
 33 66  1  0  0  0  0
 33 76  2  0  0  0  0
 34 60  1  0  0  0  0
 34 71  1  0  0  0  0
 34 77  2  0  0  0  0
 35 67  1  0  0  0  0
 35 72  1  0  0  0  0
 35 78  2  0  0  0  0
 36 39  1  0  0  0  0
 37 46  1  0  0  0  0
 38 66  1  0  0  0  0
 39 41  1  0  0  0  0
 40 42  1  0  0  0  0
 40 43  1  0  0  0  0
 41 45  1  0  0  0  0
 42 47  1  0  0  0  0
 43 67  1  0  0  0  0
 44 47  1  0  0  0  0
 44 67  1  0  0  0  0
 45 70  1  0  0  0  0
 46 66  1  0  0  0  0
 47 65  1  0  0  0  0
 48 60  1  0  0  0  0
 49 61  1  0  0  0  0
 50 61  1  0  0  0  0
 51 61  1  0  0  0  0
 52 64  1  0  0  0  0
 53 72  1  0  0  0  0
 54 73  1  0  0  0  0
 55 57  1  0  0  0  0
 56 72  1  0  0  0  0
 57 58  1  0  0  0  0
 58 80  1  0  0  0  0
 59 61  1  0  0  0  0
 59 71  1  0  0  0  0
 60 73  1  0  0  0  0
 62 65  1  0  0  0  0
 63 64  1  0  0  0  0
M  CHG  1  73   1
M  ISO  4  35 100  58 101  72 100  80 101
M  END
> <Batch ID>
0056

> <Smiles>
CNC(C)C(=O)NC(C(=O)N1Cc2cc([101O:1][101CH2:1]CCc3cc(C[100N:0](C)[100C:0](=O)N4CCCC(n5nc(-c6ccc(Oc7ccc(F)cc7F)cc6)c(C(N)=O)c5N)C4)n(C)n3)ccc2CC1C(=O)NC1CCCc2ccccc21)C(C)(C)C

> <Shape>
0.252

> <Color>
0.067

> <Negative vol penalty>
0.000

$$$$

  -OEChem-04052317463D

 83 91  0     1  0  0  0  0  0999 V2000
  -20.7976  -34.1671   23.9441 C   0  0  0  0  0  0  0  0  0  0  0  0
  -22.0315  -33.6475   23.5658 C   0  0  0  0  0  0  0  0  0  0  0  0
  -22.2056  -15.0196   19.7430 C   0  0  0  0  0  0  0  0  0  0  0  0
  -23.8751  -14.4782   21.4034 C   0  0  0  0  0  0  0  0  0  0  0  0
  -19.7592  -33.3068   24.2981 C   0  0  0  0  0  0  0  0  0  0  0  0
  -22.2279  -32.2672   23.5424 C   0  0  0  0  0  0  0  0  0  0  0  0
  -25.7061  -29.1096   19.6134 C   0  0  0  0  0  0  0  0  0  0  0  0
  -21.5962  -13.7826   19.9524 C   0  0  0  0  0  0  0  0  0  0  0  0
  -23.2656  -13.2411   21.6128 C   0  0  0  0  0  0  0  0  0  0  0  0
  -26.9997  -28.5981   19.7076 C   0  0  0  0  0  0  0  0  0  0  0  0
  -23.1588  -10.2262   20.0864 C   0  0  0  0  0  0  0  0  0  0  0  0
  -23.9819   -9.1027   20.1615 C   0  0  0  0  0  0  0  0  0  0  0  0
  -26.0987  -26.4546   20.3502 C   0  0  0  0  0  0  0  0  0  0  0  0
  -23.1848   -8.6683   22.4005 C   0  0  0  0  0  0  0  0  0  0  0  0
  -29.9683  -25.0198   16.9700 C   0  0  0  0  0  0  0  0  0  0  0  0
  -23.3451  -15.3674   20.4685 C   0  0  0  0  0  0  0  0  0  0  0  0
  -23.7013  -17.8524   20.9219 C   0  0  0  0  0  0  0  0  0  0  0  0
  -19.9400  -31.9150   24.2697 C   0  0  0  0  0  0  0  0  0  0  0  0
  -24.5977  -28.2992   19.8979 C   0  0  0  0  0  0  0  0  0  0  0  0
  -21.1913  -31.3875   23.8977 C   0  0  0  0  0  0  0  0  0  0  0  0
  -24.7920  -26.9576   20.2564 C   0  0  0  0  0  0  0  0  0  0  0  0
  -22.1261  -12.8933   20.8873 C   0  0  0  0  0  0  0  0  0  0  0  0
  -27.1962  -27.2712   20.0788 C   0  0  0  0  0  0  0  0  0  0  0  0
  -22.3487  -10.5709   21.1684 C   0  0  0  0  0  0  0  0  0  0  0  0
  -23.9949   -8.3237   21.3185 C   0  0  0  0  0  0  0  0  0  0  0  0
  -22.3617   -9.7919   22.3254 C   0  0  0  0  0  0  0  0  0  0  0  0
  -23.9755  -16.6449   20.2522 C   0  0  0  0  0  0  0  0  0  0  0  0
  -29.4655  -23.8551   16.4271 C   0  0  0  0  0  0  0  0  0  0  0  0
  -30.0013  -25.0703   18.3487 C   0  0  0  0  0  0  0  0  0  0  0  0
  -24.5607  -18.7619   20.3557 C   0  0  0  0  0  0  0  0  0  0  0  0
  -29.1103  -22.9843   18.4966 C   0  0  0  0  0  0  0  0  0  0  0  0
  -22.7545  -18.1273   21.9629 C   0  0  0  0  0  0  0  0  0  0  0  0
  -22.2599  -28.3711   22.0504 C   0  0  0  0  0  0  0  0  0  0  0  0
  -21.1277  -25.8642   20.3312 C   0  0  0  0  0  0  0  0  0  0  0  0
  -21.7832  -23.2823   18.1979 C   0  0  0  0  0  0  0  0  0  0  0  0
  -29.9134  -19.7586   18.7210 C   0  0  0  0  0  0  0  0  0  0  0  0
  -18.8025  -31.0261   24.7064 C   0  0  0  0  0  0  0  0  0  0  0  0
  -23.2078  -28.8587   19.7657 C   0  0  0  0  0  0  0  0  0  0  0  0
  -23.6348  -26.0403   20.5526 C   0  0  0  0  0  0  0  0  0  0  0  0
  -18.9773  -29.5666   24.2947 C   0  0  0  0  0  0  0  0  0  0  0  0
  -27.4884  -18.4407   16.2544 C   0  0  0  0  0  0  0  0  0  0  0  0
  -20.3898  -29.0874   24.6140 C   0  0  0  0  0  0  0  0  0  0  0  0
  -26.3729  -17.8937   17.1435 C   0  0  0  0  0  0  0  0  0  0  0  0
  -28.8424  -18.4053   16.9567 C   0  0  0  0  0  0  0  0  0  0  0  0
  -27.7393  -18.5467   19.1652 C   0  0  0  0  0  0  0  0  0  0  0  0
  -21.4355  -29.8953   23.8359 C   0  0  1  0  0  0  0  0  0  0  0  0
  -22.1729  -28.0860   20.5777 C   0  0  1  0  0  0  0  0  0  0  0  0
  -26.3542  -18.6115   18.5043 C   0  0  2  0  0  0  0  0  0  0  0  0
  -29.3908  -23.7074   14.9443 C   0  0  0  0  0  0  0  0  0  0  0  0
  -28.0666  -22.3158   20.6932 C   0  0  0  0  0  0  0  0  0  0  0  0
  -20.6618  -21.3842   16.9991 C   0  0  0  0  0  0  0  0  0  0  0  0
  -21.0087  -24.2890   22.9416 C   0  0  0  0  0  0  0  0  0  0  0  0
  -20.8119  -22.1929   21.5867 C   0  0  0  0  0  0  0  0  0  0  0  0
  -19.0474  -23.9489   21.4277 C   0  0  0  0  0  0  0  0  0  0  0  0
  -30.6936  -21.2164   20.5502 C   0  0  0  0  0  0  0  0  0  0  0  0
  -22.5262  -24.3655   15.5458 C   0  0  0  0  0  0  0  0  0  0  0  0
  -30.5366  -26.3035   19.0349 C   0  0  0  0  0  0  0  0  0  0  0  0
  -29.4462  -27.3330   19.3108 C   0  0  0  0  0  0  0  0  0  1  0  0
  -28.6374  -21.8527   19.3449 C   0  0  2  0  0  0  0  0  0  0  0  0
  -21.3095  -24.3663   20.3785 C   0  0  1  0  0  0  0  0  0  0  0  0
  -21.1028  -22.8373   16.9160 C   0  0  2  0  0  0  0  0  0  0  0  0
  -20.5665  -23.7168   21.5800 C   0  0  0  0  0  0  0  0  0  0  0  0
  -24.9340  -16.7725   19.3308 N   0  0  0  0  0  0  0  0  0  0  0  0
  -29.0261  -22.8134   17.1635 N   0  0  0  0  0  0  0  0  0  0  0  0
  -29.5787  -24.0672   19.1459 N   0  0  0  0  0  0  0  0  0  0  0  0
  -25.2696  -18.0709   19.4175 N   0  0  0  0  0  0  0  0  0  0  0  0
  -22.2953  -26.6358   20.4157 N   0  0  0  0  0  0  0  0  0  0  0  0
  -28.7854  -19.0563   18.2660 N   0  0  0  0  0  0  0  0  0  0  0  0
  -24.7716  -20.0774   20.5737 N   0  0  0  0  0  0  0  0  0  0  0  0
  -21.9501  -17.0783   22.4285 N   0  0  0  0  0  0  0  0  0  0  0  0
  -21.4985  -29.4487   22.4608 N   0  0  0  0  0  0  0  0  0  0  0  0
  -20.8913  -23.8630   19.0746 N   0  0  0  0  0  0  0  0  0  0  0  0
  -29.6857  -20.8582   19.5624 N   0  0  0  0  0  0  0  0  0  0  0  0
  -22.0318  -22.9810   15.7596 N   0  3  0  0  0  0  0  0  0  0  0  0
  -22.6141  -19.2731   22.4539 O   0  0  0  0  0  0  0  0  0  0  0  0
  -22.9645  -27.6647   22.7620 O   0  0  0  0  0  0  0  0  0  0  0  0
  -19.9922  -26.3322   20.2161 O   0  0  0  0  0  0  0  0  0  0  0  0
  -22.9851  -23.1267   18.4028 O   0  0  0  0  0  0  0  0  0  0  0  0
  -31.0582  -19.4279   18.3863 O   0  0  0  0  0  0  0  0  0  0  0  0
  -21.5315  -11.6862   21.0920 O   0  0  0  0  0  0  0  0  0  0  0  0
  -28.4578  -26.7695   20.1722 O   0  0  0  0  0  0  0  0  0  1  0  0
  -24.7842   -7.2438   21.3898 F   0  0  0  0  0  0  0  0  0  0  0  0
  -21.5847  -10.1174   23.3677 F   0  0  0  0  0  0  0  0  0  0  0  0
  1  2  1  0  0  0  0
  1  5  2  0  0  0  0
  2  6  2  0  0  0  0
  3  8  2  0  0  0  0
  3 16  1  0  0  0  0
  4  9  1  0  0  0  0
  4 16  2  0  0  0  0
  5 18  1  0  0  0  0
  6 20  1  0  0  0  0
  7 10  2  0  0  0  0
  7 19  1  0  0  0  0
  8 22  1  0  0  0  0
  9 22  2  0  0  0  0
 10 23  1  0  0  0  0
 11 12  2  0  0  0  0
 11 24  1  0  0  0  0
 12 25  1  0  0  0  0
 13 21  1  0  0  0  0
 13 23  2  0  0  0  0
 14 25  2  0  0  0  0
 14 26  1  0  0  0  0
 15 28  2  0  0  0  0
 15 29  1  0  0  0  0
 16 27  1  0  0  0  0
 17 27  1  0  0  0  0
 17 30  2  0  0  0  0
 17 32  1  0  0  0  0
 18 20  2  0  0  0  0
 18 37  1  0  0  0  0
 19 21  2  0  0  0  0
 19 38  1  0  0  0  0
 20 46  1  0  0  0  0
 21 39  1  0  0  0  0
 22 80  1  0  0  0  0
 23 81  1  0  0  0  0
 24 26  2  0  0  0  0
 24 80  1  0  0  0  0
 25 82  1  0  0  0  0
 26 83  1  0  0  0  0
 27 63  2  0  0  0  0
 28 49  1  0  0  0  0
 28 64  1  0  0  0  0
 29 57  1  0  0  0  0
 29 65  2  0  0  0  0
 30 66  1  0  0  0  0
 30 69  1  0  0  0  0
 31 59  1  0  0  0  0
 31 64  2  0  0  0  0
 31 65  1  0  0  0  0
 32 70  1  0  0  0  0
 32 75  2  0  0  0  0
 33 47  1  0  0  0  0
 33 71  1  0  0  0  0
 33 76  2  0  0  0  0
 34 60  1  0  0  0  0
 34 67  1  0  0  0  0
 34 77  2  0  0  0  0
 35 61  1  0  0  0  0
 35 72  1  0  0  0  0
 35 78  2  0  0  0  0
 36 68  1  0  0  0  0
 36 73  1  0  0  0  0
 36 79  2  0  0  0  0
 37 40  1  0  0  0  0
 38 47  1  0  0  0  0
 39 67  1  0  0  0  0
 40 42  1  0  0  0  0
 41 43  1  0  0  0  0
 41 44  1  0  0  0  0
 42 46  1  0  0  0  0
 43 48  1  0  0  0  0
 44 68  1  0  0  0  0
 45 48  1  0  0  0  0
 45 68  1  0  0  0  0
 46 71  1  0  0  0  0
 47 67  1  0  0  0  0
 48 66  1  0  0  0  0
 50 59  1  0  0  0  0
 51 61  1  0  0  0  0
 52 62  1  0  0  0  0
 53 62  1  0  0  0  0
 54 62  1  0  0  0  0
 55 73  1  0  0  0  0
 56 74  1  0  0  0  0
 57 58  1  0  0  0  0
 58 81  1  0  0  0  0
 59 73  1  0  0  0  0
 60 62  1  0  0  0  0
 60 72  1  0  0  0  0
 61 74  1  0  0  0  0
 63 66  1  0  0  0  0
M  CHG  1  74   1
M  ISO  4  36 100  58 101  73 100  81 101
M  END
> <Batch ID>
0056

> <Smiles>
CNC(C)C(=O)NC(C(=O)N1Cc2cc([101O:1][101CH2:1]Cc3cc(C)nc(C(C)[100N:0](C)[100C:0](=O)N4CCCC(n5nc(-c6ccc(Oc7ccc(F)cc7F)cc6)c(C(N)=O)c5N)C4)n3)ccc2CC1C(=O)NC1CCCc2ccccc21)C(C)(C)C

> <Shape>
0.214

> <Color>
0.082

> <Negative vol penalty>
0.000

$$$$

  -OEChem-04052317463D

 81 89  0     1  0  0  0  0  0999 V2000
  -32.2697  -14.9028   20.2354 C   0  0  0  0  0  0  0  0  0  0  0  0
  -31.3409  -15.9149   20.4552 C   0  0  0  0  0  0  0  0  0  0  0  0
  -23.9884  -29.7689   20.3321 C   0  0  0  0  0  0  0  0  0  0  0  0
  -24.0494  -27.8848   21.8432 C   0  0  0  0  0  0  0  0  0  0  0  0
  -31.8378  -13.6310   19.8612 C   0  0  0  0  0  0  0  0  0  0  0  0
  -29.9795  -15.6560   20.2999 C   0  0  0  0  0  0  0  0  0  0  0  0
  -27.1949  -17.5732   24.0703 C   0  0  0  0  0  0  0  0  0  0  0  0
  -22.7357  -30.1275   20.8298 C   0  0  0  0  0  0  0  0  0  0  0  0
  -22.7967  -28.2434   22.3409 C   0  0  0  0  0  0  0  0  0  0  0  0
  -26.9314  -18.9417   24.0349 C   0  0  0  0  0  0  0  0  0  0  0  0
  -19.5638  -27.9533   21.3949 C   0  0  0  0  0  0  0  0  0  0  0  0
  -18.6198  -26.9406   21.5647 C   0  0  0  0  0  0  0  0  0  0  0  0
  -24.7375  -18.4900   23.1393 C   0  0  0  0  0  0  0  0  0  0  0  0
  -18.5097  -27.4393   23.9262 C   0  0  0  0  0  0  0  0  0  0  0  0
  -27.4609  -23.0686   22.2819 C   0  0  0  0  0  0  0  0  0  0  0  0
  -24.6453  -28.6475   20.8388 C   0  0  0  0  0  0  0  0  0  0  0  0
  -27.1955  -28.6977   20.7997 C   0  0  0  0  0  0  0  0  0  0  0  0
  -30.4699  -13.3539   19.7107 C   0  0  0  0  0  0  0  0  0  0  0  0
  -26.2342  -16.6517   23.6294 C   0  0  0  0  0  0  0  0  0  0  0  0
  -29.5290  -14.3797   19.9221 C   0  0  0  0  0  0  0  0  0  0  0  0
  -24.9904  -17.1101   23.1725 C   0  0  0  0  0  0  0  0  0  0  0  0
  -22.1398  -29.3648   21.8342 C   0  0  0  0  0  0  0  0  0  0  0  0
  -25.7036  -19.4005   23.5667 C   0  0  0  0  0  0  0  0  0  0  0  0
  -19.9809  -28.7090   22.4907 C   0  0  0  0  0  0  0  0  0  0  0  0
  -18.0928  -26.6836   22.8303 C   0  0  0  0  0  0  0  0  0  0  0  0
  -19.4538  -28.4520   23.7563 C   0  0  0  0  0  0  0  0  0  0  0  0
  -25.9391  -28.2763   20.3247 C   0  0  0  0  0  0  0  0  0  0  0  0
  -26.2805  -22.8164   21.6419 C   0  0  0  0  0  0  0  0  0  0  0  0
  -28.1009  -28.0689   19.9804 C   0  0  0  0  0  0  0  0  0  0  0  0
  -27.8792  -22.9129   20.1137 C   0  0  0  0  0  0  0  0  0  0  0  0
  -27.5155  -29.5788   21.8846 C   0  0  0  0  0  0  0  0  0  0  0  0
  -26.1071  -14.4790   21.3127 C   0  0  0  0  0  0  0  0  0  0  0  0
  -23.2813  -13.7195   22.7128 C   0  0  0  0  0  0  0  0  0  0  0  0
  -20.6558  -14.7021   24.6591 C   0  0  0  0  0  0  0  0  0  0  0  0
  -27.3155  -23.0128   16.6104 C   0  0  0  0  0  0  0  0  0  0  0  0
  -30.0538  -11.9765   19.2588 C   0  0  0  0  0  0  0  0  0  0  0  0
  -26.5240  -15.1773   23.6991 C   0  0  0  0  0  0  0  0  0  0  0  0
  -23.9177  -16.1609   22.7069 C   0  0  0  0  0  0  0  0  0  0  0  0
  -28.5719  -11.6846   19.4802 C   0  0  0  0  0  0  0  0  0  0  0  0
  -28.5864  -26.3261   15.5575 C   0  0  0  0  0  0  0  0  0  0  0  0
  -27.7197  -12.8554   19.0007 C   0  0  0  0  0  0  0  0  0  0  0  0
  -28.0902  -27.2433   16.6740 C   0  0  0  0  0  0  0  0  0  0  0  0
  -27.6759  -25.1163   15.3706 C   0  0  0  0  0  0  0  0  0  0  0  0
  -26.9559  -25.2499   17.7324 C   0  0  0  0  0  0  0  0  0  0  0  0
  -28.0422  -14.1313   19.7879 C   0  0  1  0  0  0  0  0  0  0  0  0
  -25.6658  -14.3540   22.7436 C   0  0  1  0  0  0  0  0  0  0  0  0
  -27.8767  -26.4546   17.9777 C   0  0  2  0  0  0  0  0  0  0  0  0
  -18.4799  -13.8742   25.5960 C   0  0  0  0  0  0  0  0  0  0  0  0
  -21.9778  -14.0538   19.9743 C   0  0  0  0  0  0  0  0  0  0  0  0
  -19.7554  -14.1597   21.1224 C   0  0  0  0  0  0  0  0  0  0  0  0
  -21.1482  -12.0972   21.2927 C   0  0  0  0  0  0  0  0  0  0  0  0
  -29.8406  -23.3690   21.5561 C   0  0  0  0  0  0  0  0  0  0  0  0
  -27.6390  -20.8564   17.7615 C   0  0  0  0  0  0  0  0  0  0  0  0
  -21.5833  -15.0674   27.4457 C   0  0  0  0  0  0  0  0  0  0  0  0
  -24.8762  -22.6481   22.1692 C   0  0  0  0  0  0  0  0  0  0  0  0
  -28.5737  -22.8884   18.8022 C   0  0  0  0  0  0  0  0  0  0  0  0
  -24.5560  -21.1975   22.5133 C   0  0  0  0  0  0  0  0  0  1  0  0
  -21.8511  -14.1749   22.5502 C   0  0  1  0  0  0  0  0  0  0  0  0
  -19.9723  -14.0359   25.8396 C   0  0  2  0  0  0  0  0  0  0  0  0
  -21.2039  -13.6396   21.2418 C   0  0  0  0  0  0  0  0  0  0  0  0
  -26.0339  -27.4442   19.2842 N   0  0  0  0  0  0  0  0  0  0  0  0
  -28.4331  -23.1227   21.3124 N   0  0  0  0  0  0  0  0  0  0  0  0
  -27.3606  -27.3378   19.0986 N   0  0  0  0  0  0  0  0  0  0  0  0
  -26.5689  -22.7252   20.3015 N   0  3  0  0  0  0  0  0  0  0  0  0
  -24.2511  -14.7293   22.7884 N   0  0  0  0  0  0  0  0  0  0  0  0
  -27.4551  -24.4102   16.6331 N   0  0  0  0  0  0  0  0  0  0  0  0
  -29.4501  -28.0756   19.9354 N   0  0  0  0  0  0  0  0  0  0  0  0
  -26.4641  -30.1382   22.6234 N   0  0  0  0  0  0  0  0  0  0  0  0
  -27.4153  -14.0928   21.0917 N   0  0  0  0  0  0  0  0  0  0  0  0
  -21.1546  -13.7754   23.7682 N   0  0  0  0  0  0  0  0  0  0  0  0
  -27.7522  -22.3079   17.7423 N   0  0  0  0  0  0  0  0  0  0  0  0
  -20.1616  -14.8490   27.0741 N   0  3  0  0  0  0  0  0  0  0  0  0
  -28.6984  -29.8745   22.1794 O   0  0  0  0  0  0  0  0  0  0  0  0
  -25.3186  -14.8937   20.4713 O   0  0  0  0  0  0  0  0  0  0  0  0
  -23.5280  -12.5127   22.7776 O   0  0  0  0  0  0  0  0  0  0  0  0
  -20.7357  -15.9225   24.5375 O   0  0  0  0  0  0  0  0  0  0  0  0
  -26.8372  -22.4277   15.6302 O   0  0  0  0  0  0  0  0  0  0  0  0
  -20.9176  -29.7146   22.3203 O   0  0  0  0  0  0  0  0  0  0  0  0
  -25.4440  -20.7358   23.5305 O   0  0  0  0  0  0  0  0  0  1  0  0
  -17.1851  -25.7120   22.9930 F   0  0  0  0  0  0  0  0  0  0  0  0
  -19.8497  -29.1754   24.8126 F   0  0  0  0  0  0  0  0  0  0  0  0
  1  2  1  0  0  0  0
  1  5  2  0  0  0  0
  2  6  2  0  0  0  0
  3  8  2  0  0  0  0
  3 16  1  0  0  0  0
  4  9  1  0  0  0  0
  4 16  2  0  0  0  0
  5 18  1  0  0  0  0
  6 20  1  0  0  0  0
  7 10  2  0  0  0  0
  7 19  1  0  0  0  0
  8 22  1  0  0  0  0
  9 22  2  0  0  0  0
 10 23  1  0  0  0  0
 11 12  2  0  0  0  0
 11 24  1  0  0  0  0
 12 25  1  0  0  0  0
 13 21  1  0  0  0  0
 13 23  2  0  0  0  0
 14 25  2  0  0  0  0
 14 26  1  0  0  0  0
 15 28  2  0  0  0  0
 15 62  1  0  0  0  0
 16 27  1  0  0  0  0
 17 27  1  0  0  0  0
 17 29  2  0  0  0  0
 17 31  1  0  0  0  0
 18 20  2  0  0  0  0
 18 36  1  0  0  0  0
 19 21  2  0  0  0  0
 19 37  1  0  0  0  0
 20 45  1  0  0  0  0
 21 38  1  0  0  0  0
 22 78  1  0  0  0  0
 23 79  1  0  0  0  0
 24 26  2  0  0  0  0
 24 78  1  0  0  0  0
 25 80  1  0  0  0  0
 26 81  1  0  0  0  0
 27 61  2  0  0  0  0
 28 55  1  0  0  0  0
 28 64  1  0  0  0  0
 29 63  1  0  0  0  0
 29 67  1  0  0  0  0
 30 56  1  0  0  0  0
 30 62  1  0  0  0  0
 30 64  2  0  0  0  0
 31 68  1  0  0  0  0
 31 73  2  0  0  0  0
 32 46  1  0  0  0  0
 32 69  1  0  0  0  0
 32 74  2  0  0  0  0
 33 58  1  0  0  0  0
 33 65  1  0  0  0  0
 33 75  2  0  0  0  0
 34 59  1  0  0  0  0
 34 70  1  0  0  0  0
 34 76  2  0  0  0  0
 35 66  1  0  0  0  0
 35 71  1  0  0  0  0
 35 77  2  0  0  0  0
 36 39  1  0  0  0  0
 37 46  1  0  0  0  0
 38 65  1  0  0  0  0
 39 41  1  0  0  0  0
 40 42  1  0  0  0  0
 40 43  1  0  0  0  0
 41 45  1  0  0  0  0
 42 47  1  0  0  0  0
 43 66  1  0  0  0  0
 44 47  1  0  0  0  0
 44 66  1  0  0  0  0
 45 69  1  0  0  0  0
 46 65  1  0  0  0  0
 47 63  1  0  0  0  0
 48 59  1  0  0  0  0
 49 60  1  0  0  0  0
 50 60  1  0  0  0  0
 51 60  1  0  0  0  0
 52 62  1  0  0  0  0
 53 71  1  0  0  0  0
 54 72  1  0  0  0  0
 55 57  1  0  0  0  0
 56 71  1  0  0  0  0
 57 79  1  0  0  0  0
 58 60  1  0  0  0  0
 58 70  1  0  0  0  0
 59 72  1  0  0  0  0
 61 63  1  0  0  0  0
M  CHG  2  64   1  72   1
M  ISO  4  35 100  57 101  71 100  79 101
M  END
> <Batch ID>
0056

> <Smiles>
CNC(C)C(=O)NC(C(=O)N1Cc2cc([101O:1][101CH2:1]Cc3cn(C)c(C[100N:0](C)[100C:0](=O)N4CCCC(n5nc(-c6ccc(Oc7ccc(F)cc7F)cc6)c(C(N)=O)c5N)C4)n3)ccc2CC1C(=O)NC1CCCc2ccccc21)C(C)(C)C

> <Shape>
0.226

> <Color>
0.063

> <Negative vol penalty>
0.000

$$$$

  -OEChem-04052317463D

 87 95  0     1  0  0  0  0  0999 V2000
  -28.5201  -27.4790   35.5506 C   0  0  0  0  0  0  0  0  0  0  0  0
  -28.4439  -26.4341   34.6354 C   0  0  0  0  0  0  0  0  0  0  0  0
  -23.1971   -9.7703   20.7237 C   0  0  0  0  0  0  0  0  0  0  0  0
  -23.8725  -10.3592   22.9674 C   0  0  0  0  0  0  0  0  0  0  0  0
  -28.0894  -28.7545   35.1880 C   0  0  0  0  0  0  0  0  0  0  0  0
  -27.9359  -26.6638   33.3573 C   0  0  0  0  0  0  0  0  0  0  0  0
  -29.7361  -23.9974   28.1462 C   0  0  0  0  0  0  0  0  0  0  0  0
  -22.4878   -8.6784   21.2237 C   0  0  0  0  0  0  0  0  0  0  0  0
  -23.1631   -9.2673   23.4675 C   0  0  0  0  0  0  0  0  0  0  0  0
  -29.2193  -22.9318   27.4105 C   0  0  0  0  0  0  0  0  0  0  0  0
  -23.1713   -5.5546   22.3187 C   0  0  0  0  0  0  0  0  0  0  0  0
  -23.3101   -4.3345   21.6572 C   0  0  0  0  0  0  0  0  0  0  0  0
  -28.0413  -24.4890   25.9939 C   0  0  0  0  0  0  0  0  0  0  0  0
  -20.9354   -4.3050   21.2131 C   0  0  0  0  0  0  0  0  0  0  0  0
  -27.3870  -20.4782   23.0781 C   0  0  0  0  0  0  0  0  0  0  0  0
  -23.8896  -10.6107   21.5955 C   0  0  0  0  0  0  0  0  0  0  0  0
  -24.1421  -13.0466   20.8811 C   0  0  0  0  0  0  0  0  0  0  0  0
  -27.5849  -29.0022   33.9016 C   0  0  0  0  0  0  0  0  0  0  0  0
  -29.4002  -25.3186   27.8174 C   0  0  0  0  0  0  0  0  0  0  0  0
  -27.4969  -27.9435   32.9775 C   0  0  0  0  0  0  0  0  0  0  0  0
  -28.5572  -25.5697   26.7254 C   0  0  0  0  0  0  0  0  0  0  0  0
  -22.4707   -8.4269   22.5956 C   0  0  0  0  0  0  0  0  0  0  0  0
  -28.3694  -23.1774   26.3360 C   0  0  0  0  0  0  0  0  0  0  0  0
  -21.9145   -6.1499   22.4275 C   0  0  0  0  0  0  0  0  0  0  0  0
  -22.1922   -3.7097   21.1043 C   0  0  0  0  0  0  0  0  0  0  0  0
  -20.7966   -5.5251   21.8747 C   0  0  0  0  0  0  0  0  0  0  0  0
  -24.6230  -11.7385   21.0795 C   0  0  0  0  0  0  0  0  0  0  0  0
  -26.8698  -19.3230   22.5283 C   0  0  0  0  0  0  0  0  0  0  0  0
  -26.5253  -21.1935   23.8844 C   0  0  0  0  0  0  0  0  0  0  0  0
  -25.2183  -13.7354   20.3773 C   0  0  0  0  0  0  0  0  0  0  0  0
  -24.8683  -19.6744   23.5469 C   0  0  0  0  0  0  0  0  0  0  0  0
  -22.8390  -13.5905   21.1301 C   0  0  0  0  0  0  0  0  0  0  0  0
  -27.9065  -27.6920   29.3139 C   0  0  0  0  0  0  0  0  0  0  0  0
  -28.8033  -29.3864   26.6972 C   0  0  0  0  0  0  0  0  0  0  0  0
  -29.7086  -29.3722   23.4068 C   0  0  0  0  0  0  0  0  0  0  0  0
  -30.6502  -15.0132   20.4599 C   0  0  0  0  0  0  0  0  0  0  0  0
  -27.0875  -30.3871   33.5711 C   0  0  0  0  0  0  0  0  0  0  0  0
  -29.9873  -26.4581   28.6043 C   0  0  0  0  0  0  0  0  0  0  0  0
  -28.1819  -26.9706   26.3189 C   0  0  0  0  0  0  0  0  0  0  0  0
  -26.9106  -30.6297   32.0744 C   0  0  0  0  0  0  0  0  0  0  0  0
  -29.6888  -12.0790   18.6870 C   0  0  0  0  0  0  0  0  0  0  0  0
  -26.1766  -29.4596   31.4270 C   0  0  0  0  0  0  0  0  0  0  0  0
  -28.2484  -11.8335   19.1398 C   0  0  0  0  0  0  0  0  0  0  0  0
  -30.5530  -12.6211   19.8234 C   0  0  0  0  0  0  0  0  0  0  0  0
  -28.5764  -13.5770   20.9430 C   0  0  0  0  0  0  0  0  0  0  0  0
  -26.9749  -28.1586   31.5734 C   0  0  1  0  0  0  0  0  0  0  0  0
  -29.1684  -27.7410   28.4997 C   0  0  1  0  0  0  0  0  0  0  0  0
  -27.6528  -13.0827   19.8165 C   0  0  2  0  0  0  0  0  0  0  0  0
  -23.4705  -19.2267   23.8107 C   0  0  0  0  0  0  0  0  0  0  0  0
  -30.3443  -30.9144   21.5319 C   0  0  0  0  0  0  0  0  0  0  0  0
  -25.8780  -30.1892   26.3690 C   0  0  0  0  0  0  0  0  0  0  0  0
  -26.4083  -30.9006   24.0279 C   0  0  0  0  0  0  0  0  0  0  0  0
  -27.5181  -32.0312   25.9548 C   0  0  0  0  0  0  0  0  0  0  0  0
  -31.2880  -17.9094   18.7970 C   0  0  0  0  0  0  0  0  0  0  0  0
  -30.6151  -19.7793   20.3027 C   0  0  0  0  0  0  0  0  0  0  0  0
  -32.3769  -28.1226   23.1289 C   0  0  0  0  0  0  0  0  0  0  0  0
  -26.6150  -19.3189   19.5777 C   0  0  0  0  0  0  0  0  0  0  0  0
  -27.7272  -18.4823   21.6427 C   0  0  0  0  0  0  0  0  0  0  0  0
  -26.9985  -22.4633   24.5287 C   0  0  0  0  0  0  0  0  0  1  0  0
  -30.5917  -17.3978   21.1450 C   0  0  0  0  0  0  0  0  0  0  0  0
  -28.8543  -18.2384   19.4357 C   0  0  0  0  0  0  0  0  0  0  0  0
  -28.1917  -29.6714   25.3468 C   0  0  1  0  0  0  0  0  0  0  0  0
  -30.8531  -30.0486   22.6740 C   0  0  2  0  0  0  0  0  0  0  0  0
  -27.0043  -30.6715   25.4332 C   0  0  0  0  0  0  0  0  0  0  0  0
  -30.3183  -18.3120   19.9270 C   0  0  0  0  0  0  0  0  0  0  0  0
  -25.9049  -11.6019   20.7300 N   0  0  0  0  0  0  0  0  0  0  0  0
  -25.6102  -18.8897   22.7424 N   0  0  0  0  0  0  0  0  0  0  0  0
  -25.2547  -20.8194   24.1413 N   0  0  0  0  0  0  0  0  0  0  0  0
  -26.2386  -12.8330   20.3069 N   0  0  0  0  0  0  0  0  0  0  0  0
  -28.7766  -28.0508   27.1232 N   0  0  0  0  0  0  0  0  0  0  0  0
  -29.9330  -13.8060   20.4214 N   0  0  0  0  0  0  0  0  0  0  0  0
  -25.3819  -15.0188   19.9920 N   0  0  0  0  0  0  0  0  0  0  0  0
  -21.8498  -12.7441   21.6492 N   0  0  0  0  0  0  0  0  0  0  0  0
  -28.0613  -28.1220   30.6180 N   0  0  0  0  0  0  0  0  0  0  0  0
  -29.2851  -30.1147   24.4888 N   0  0  0  0  0  0  0  0  0  0  0  0
  -29.9870  -16.0887   21.0379 N   0  0  0  0  0  0  0  0  0  0  0  0
  -31.7833  -29.0288   22.1123 N   0  3  0  0  0  0  0  0  0  0  0  0
  -27.9208  -19.0621   20.2851 N   0  3  1  0  0  0  0  0  0  0  0  0
  -22.5556  -14.7873   20.8837 O   0  0  0  0  0  0  0  0  0  0  0  0
  -26.8688  -27.2950   28.7969 O   0  0  0  0  0  0  0  0  0  0  0  0
  -29.2934  -30.3134   27.3469 O   0  0  0  0  0  0  0  0  0  0  0  0
  -29.2349  -28.2949   23.0524 O   0  0  0  0  0  0  0  0  0  0  0  0
  -31.7946  -15.1255   20.0075 O   0  0  0  0  0  0  0  0  0  0  0  0
  -21.7784   -7.3616   23.0840 O   0  0  0  0  0  0  0  0  0  0  0  0
  -27.8631  -22.1391   25.6167 O   0  0  0  0  0  0  0  0  0  1  0  0
  -22.3260   -2.5388   20.4677 F   0  0  0  0  0  0  0  0  0  0  0  0
  -19.5868   -6.0927   21.9750 F   0  0  0  0  0  0  0  0  0  0  0  0
  1  2  1  0  0  0  0
  1  5  2  0  0  0  0
  2  6  2  0  0  0  0
  3  8  2  0  0  0  0
  3 16  1  0  0  0  0
  4  9  1  0  0  0  0
  4 16  2  0  0  0  0
  5 18  1  0  0  0  0
  6 20  1  0  0  0  0
  7 10  2  0  0  0  0
  7 19  1  0  0  0  0
  8 22  1  0  0  0  0
  9 22  2  0  0  0  0
 10 23  1  0  0  0  0
 11 12  2  0  0  0  0
 11 24  1  0  0  0  0
 12 25  1  0  0  0  0
 13 21  1  0  0  0  0
 13 23  2  0  0  0  0
 14 25  2  0  0  0  0
 14 26  1  0  0  0  0
 15 28  2  0  0  0  0
 15 29  1  0  0  0  0
 16 27  1  0  0  0  0
 17 27  1  0  0  0  0
 17 30  2  0  0  0  0
 17 32  1  0  0  0  0
 18 20  2  0  0  0  0
 18 37  1  0  0  0  0
 19 21  2  0  0  0  0
 19 38  1  0  0  0  0
 20 46  1  0  0  0  0
 21 39  1  0  0  0  0
 22 84  1  0  0  0  0
 23 85  1  0  0  0  0
 24 26  2  0  0  0  0
 24 84  1  0  0  0  0
 25 86  1  0  0  0  0
 26 87  1  0  0  0  0
 27 66  2  0  0  0  0
 28 58  1  0  0  0  0
 28 67  1  0  0  0  0
 29 59  1  0  0  0  0
 29 68  2  0  0  0  0
 30 69  1  0  0  0  0
 30 72  1  0  0  0  0
 31 49  1  0  0  0  0
 31 67  2  0  0  0  0
 31 68  1  0  0  0  0
 32 73  1  0  0  0  0
 32 79  2  0  0  0  0
 33 47  1  0  0  0  0
 33 74  1  0  0  0  0
 33 80  2  0  0  0  0
 34 62  1  0  0  0  0
 34 70  1  0  0  0  0
 34 81  2  0  0  0  0
 35 63  1  0  0  0  0
 35 75  1  0  0  0  0
 35 82  2  0  0  0  0
 36 71  1  0  0  0  0
 36 76  1  0  0  0  0
 36 83  2  0  0  0  0
 37 40  1  0  0  0  0
 38 47  1  0  0  0  0
 39 70  1  0  0  0  0
 40 42  1  0  0  0  0
 41 43  1  0  0  0  0
 41 44  1  0  0  0  0
 42 46  1  0  0  0  0
 43 48  1  0  0  0  0
 44 71  1  0  0  0  0
 45 48  1  0  0  0  0
 45 71  1  0  0  0  0
 46 74  1  0  0  0  0
 47 70  1  0  0  0  0
 48 69  1  0  0  0  0
 50 63  1  0  0  0  0
 51 64  1  0  0  0  0
 52 64  1  0  0  0  0
 53 64  1  0  0  0  0
 54 65  1  0  0  0  0
 55 65  1  0  0  0  0
 56 77  1  0  0  0  0
 57 78  1  0  0  0  0
 58 78  1  0  0  0  0
 59 85  1  0  0  0  0
 60 65  1  0  0  0  0
 60 76  1  0  0  0  0
 61 65  1  0  0  0  0
 61 78  1  0  0  0  0
 62 64  1  0  0  0  0
 62 75  1  0  0  0  0
 63 77  1  0  0  0  0
 66 69  1  0  0  0  0
M  CHG  2  77   1  78   1
M  ISO  4  36 100  59 101  76 100  85 101
M  END
> <Batch ID>
0056

> <Smiles>
CNC(C)C(=O)NC(C(=O)N1Cc2cc([101O:1][101CH2:1]c3cc(CN(C)CC(C)(C)C[100NH:0][100C:0](=O)N4CCCC(n5nc(-c6ccc(Oc7ccc(F)cc7F)cc6)c(C(N)=O)c5N)C4)nc(C)n3)ccc2CC1C(=O)NC1CCCc2ccccc21)C(C)(C)C

> <Shape>
0.213

> <Color>
0.165

> <Negative vol penalty>
0.000

$$$$

  -OEChem-04052317463D

 82 90  0     1  0  0  0  0  0999 V2000
  -30.9434  -29.4690   20.9212 C   0  0  0  0  0  0  0  0  0  0  0  0
  -29.8165  -28.7019   21.1939 C   0  0  0  0  0  0  0  0  0  0  0  0
  -25.3538  -25.1583   15.8466 C   0  0  0  0  0  0  0  0  0  0  0  0
  -23.1859  -24.5504   16.7227 C   0  0  0  0  0  0  0  0  0  0  0  0
  -31.9141  -28.9878   20.0452 C   0  0  0  0  0  0  0  0  0  0  0  0
  -29.6655  -27.4483   20.6001 C   0  0  0  0  0  0  0  0  0  0  0  0
  -25.8752  -24.7006   22.1125 C   0  0  0  0  0  0  0  0  0  0  0  0
  -25.5394  -23.8505   15.3985 C   0  0  0  0  0  0  0  0  0  0  0  0
  -23.3715  -23.2426   16.2746 C   0  0  0  0  0  0  0  0  0  0  0  0
  -24.5527  -24.9936   21.7823 C   0  0  0  0  0  0  0  0  0  0  0  0
  -23.1591  -21.5590   13.3521 C   0  0  0  0  0  0  0  0  0  0  0  0
  -22.0935  -20.9430   12.6960 C   0  0  0  0  0  0  0  0  0  0  0  0
  -24.5765  -23.2243   20.1428 C   0  0  0  0  0  0  0  0  0  0  0  0
  -22.0523  -19.2156   14.3847 C   0  0  0  0  0  0  0  0  0  0  0  0
  -18.3611  -27.5420   21.9198 C   0  0  0  0  0  0  0  0  0  0  0  0
  -24.1770  -25.5083   16.5087 C   0  0  0  0  0  0  0  0  0  0  0  0
  -23.3995  -27.9256   16.2642 C   0  0  0  0  0  0  0  0  0  0  0  0
  -31.7682  -27.7329   19.4311 C   0  0  0  0  0  0  0  0  0  0  0  0
  -26.5629  -23.6727   21.4516 C   0  0  0  0  0  0  0  0  0  0  0  0
  -30.6458  -26.9347   19.7318 C   0  0  0  0  0  0  0  0  0  0  0  0
  -25.9068  -22.9185   20.4683 C   0  0  0  0  0  0  0  0  0  0  0  0
  -24.5483  -22.8926   15.6125 C   0  0  0  0  0  0  0  0  0  0  0  0
  -23.9041  -24.2573   20.7953 C   0  0  0  0  0  0  0  0  0  0  0  0
  -23.6715  -21.0032   14.5245 C   0  0  0  0  0  0  0  0  0  0  0  0
  -21.5401  -19.7713   13.2123 C   0  0  0  0  0  0  0  0  0  0  0  0
  -23.1180  -19.8316   15.0408 C   0  0  0  0  0  0  0  0  0  0  0  0
  -23.9850  -26.8589   16.9723 C   0  0  0  0  0  0  0  0  0  0  0  0
  -23.4532  -28.9863   17.1351 C   0  0  0  0  0  0  0  0  0  0  0  0
  -19.7683  -28.7666   22.8565 C   0  0  0  0  0  0  0  0  0  0  0  0
  -22.8558  -27.9549   14.9379 C   0  0  0  0  0  0  0  0  0  0  0  0
  -29.1511  -23.5268   19.6122 C   0  0  0  0  0  0  0  0  0  0  0  0
  -28.6486  -20.3295   19.8296 C   0  0  0  0  0  0  0  0  0  0  0  0
  -26.4567  -17.7719   20.3789 C   0  0  0  0  0  0  0  0  0  0  0  0
  -22.9526  -29.6608   22.9984 C   0  0  0  0  0  0  0  0  0  0  0  0
  -32.8531  -27.2575   18.4973 C   0  0  0  0  0  0  0  0  0  0  0  0
  -27.9806  -23.3515   21.8382 C   0  0  0  0  0  0  0  0  0  0  0  0
  -26.5941  -21.7914   19.7433 C   0  0  0  0  0  0  0  0  0  0  0  0
  -32.3958  -26.1269   17.5814 C   0  0  0  0  0  0  0  0  0  0  0  0
  -26.1211  -30.0994   21.1356 C   0  0  0  0  0  0  0  0  0  0  0  0
  -31.7119  -25.0407   18.3981 C   0  0  0  0  0  0  0  0  0  0  0  0
  -25.8516  -29.3412   19.8369 C   0  0  0  0  0  0  0  0  0  0  0  0
  -25.3167  -29.5318   22.3011 C   0  0  0  0  0  0  0  0  0  0  0  0
  -23.5831  -28.7018   20.7454 C   0  0  0  0  0  0  0  0  0  0  0  0
  -30.4454  -25.5814   19.0739 C   0  0  1  0  0  0  0  0  0  0  0  0
  -28.7481  -22.6206   20.7409 C   0  0  1  0  0  0  0  0  0  0  0  0
  -24.3430  -29.2782   19.5414 C   0  0  2  0  0  0  0  0  0  0  0  0
  -21.5995  -32.6608   22.3764 C   0  0  0  0  0  0  0  0  0  0  0  0
  -26.3313  -15.2667   20.4529 C   0  0  0  0  0  0  0  0  0  0  0  0
  -28.7110  -20.2387   16.7804 C   0  0  0  0  0  0  0  0  0  0  0  0
  -27.6578  -17.9703   16.8958 C   0  0  0  0  0  0  0  0  0  0  0  0
  -29.9069  -18.3520   17.9049 C   0  0  0  0  0  0  0  0  0  0  0  0
  -25.6304  -17.7814   23.2207 C   0  0  0  0  0  0  0  0  0  0  0  0
  -20.5305  -29.8868   23.4009 C   0  0  0  0  0  0  0  0  0  0  0  0
  -20.3434  -24.6534   21.2389 C   0  0  0  0  0  0  0  0  0  0  0  0
  -19.3618  -25.1513   22.3021 C   0  0  0  0  0  0  0  0  0  0  0  0
  -21.5672  -31.3162   21.6782 C   0  0  0  0  0  0  0  0  0  0  0  0
  -21.7850  -25.0709   21.5049 C   0  0  0  0  0  0  0  0  0  1  0  0
  -27.8612  -19.3146   19.0365 C   0  0  1  0  0  0  0  0  0  0  0  0
  -26.5484  -16.5381   21.2585 C   0  0  2  0  0  0  0  0  0  0  0  0
  -28.5216  -18.9914   17.6665 C   0  0  0  0  0  0  0  0  0  0  0  0
  -18.6372  -28.8506   22.1953 N   0  0  0  0  0  0  0  0  0  0  0  0
  -24.3815  -27.2100   18.1985 N   0  0  0  0  0  0  0  0  0  0  0  0
  -20.1397  -27.4626   22.9640 N   0  0  0  0  0  0  0  0  0  0  0  0
  -19.2501  -26.6535   22.3689 N   0  0  0  0  0  0  0  0  0  0  0  0
  -24.0447  -28.5092   18.2677 N   0  0  0  0  0  0  0  0  0  0  0  0
  -27.9821  -21.5201   20.1524 N   0  0  0  0  0  0  0  0  0  0  0  0
  -23.8924  -29.4426   21.9776 N   0  0  0  0  0  0  0  0  0  0  0  0
  -23.0516  -30.2713   17.0350 N   0  0  0  0  0  0  0  0  0  0  0  0
  -22.8805  -26.7766   14.1795 N   0  0  0  0  0  0  0  0  0  0  0  0
  -29.9443  -24.5898   19.9998 N   0  0  0  0  0  0  0  0  0  0  0  0
  -27.6942  -18.1562   19.9075 N   0  0  0  0  0  0  0  0  0  0  0  0
  -21.7181  -30.2125   22.6240 N   0  0  0  0  0  0  0  0  0  0  0  0
  -25.5207  -16.5928   22.3363 N   0  3  0  0  0  0  0  0  0  0  0  0
  -22.3775  -28.9994   14.4341 O   0  0  0  0  0  0  0  0  0  0  0  0
  -28.7717  -23.2790   18.4736 O   0  0  0  0  0  0  0  0  0  0  0  0
  -29.8097  -20.0723   20.1571 O   0  0  0  0  0  0  0  0  0  0  0  0
  -25.3932  -18.3360   20.1314 O   0  0  0  0  0  0  0  0  0  0  0  0
  -23.2064  -29.3873   24.1786 O   0  0  0  0  0  0  0  0  0  0  0  0
  -24.7289  -21.6164   15.1752 O   0  0  0  0  0  0  0  0  0  0  0  0
  -22.6135  -24.5417   20.4706 O   0  0  0  0  0  0  0  0  0  1  0  0
  -20.5157  -19.1807   12.5829 F   0  0  0  0  0  0  0  0  0  0  0  0
  -23.6051  -19.2937   16.1674 F   0  0  0  0  0  0  0  0  0  0  0  0
  1  2  1  0  0  0  0
  1  5  2  0  0  0  0
  2  6  2  0  0  0  0
  3  8  2  0  0  0  0
  3 16  1  0  0  0  0
  4  9  1  0  0  0  0
  4 16  2  0  0  0  0
  5 18  1  0  0  0  0
  6 20  1  0  0  0  0
  7 10  2  0  0  0  0
  7 19  1  0  0  0  0
  8 22  1  0  0  0  0
  9 22  2  0  0  0  0
 10 23  1  0  0  0  0
 11 12  2  0  0  0  0
 11 24  1  0  0  0  0
 12 25  1  0  0  0  0
 13 21  1  0  0  0  0
 13 23  2  0  0  0  0
 14 25  2  0  0  0  0
 14 26  1  0  0  0  0
 15 61  2  0  0  0  0
 15 64  1  0  0  0  0
 16 27  1  0  0  0  0
 17 27  1  0  0  0  0
 17 28  2  0  0  0  0
 17 30  1  0  0  0  0
 18 20  2  0  0  0  0
 18 35  1  0  0  0  0
 19 21  2  0  0  0  0
 19 36  1  0  0  0  0
 20 44  1  0  0  0  0
 21 37  1  0  0  0  0
 22 79  1  0  0  0  0
 23 80  1  0  0  0  0
 24 26  2  0  0  0  0
 24 79  1  0  0  0  0
 25 81  1  0  0  0  0
 26 82  1  0  0  0  0
 27 62  2  0  0  0  0
 28 65  1  0  0  0  0
 28 68  1  0  0  0  0
 29 53  1  0  0  0  0
 29 61  1  0  0  0  0
 29 63  2  0  0  0  0
 30 69  1  0  0  0  0
 30 74  2  0  0  0  0
 31 45  1  0  0  0  0
 31 70  1  0  0  0  0
 31 75  2  0  0  0  0
 32 58  1  0  0  0  0
 32 66  1  0  0  0  0
 32 76  2  0  0  0  0
 33 59  1  0  0  0  0
 33 71  1  0  0  0  0
 33 77  2  0  0  0  0
 34 67  1  0  0  0  0
 34 72  1  0  0  0  0
 34 78  2  0  0  0  0
 35 38  1  0  0  0  0
 36 45  1  0  0  0  0
 37 66  1  0  0  0  0
 38 40  1  0  0  0  0
 39 41  1  0  0  0  0
 39 42  1  0  0  0  0
 40 44  1  0  0  0  0
 41 46  1  0  0  0  0
 42 67  1  0  0  0  0
 43 46  1  0  0  0  0
 43 67  1  0  0  0  0
 44 70  1  0  0  0  0
 45 66  1  0  0  0  0
 46 65  1  0  0  0  0
 47 56  1  0  0  0  0
 48 59  1  0  0  0  0
 49 60  1  0  0  0  0
 50 60  1  0  0  0  0
 51 60  1  0  0  0  0
 52 73  1  0  0  0  0
 53 72  1  0  0  0  0
 54 55  1  0  0  0  0
 54 57  1  0  0  0  0
 55 64  1  0  0  0  0
 56 72  1  0  0  0  0
 57 80  1  0  0  0  0
 58 60  1  0  0  0  0
 58 71  1  0  0  0  0
 59 73  1  0  0  0  0
 62 65  1  0  0  0  0
 63 64  1  0  0  0  0
M  CHG  1  73   1
M  ISO  4  34 100  57 101  72 100  80 101
M  END
> <Batch ID>
0056

> <Smiles>
CC[100N:0](Cc1ncn(CC[101CH2:1][101O:1]c2ccc3c(c2)CN(C(=O)C(NC(=O)C(C)NC)C(C)(C)C)C(C(=O)NC2CCCc4ccccc42)C3)n1)[100C:0](=O)N1CCCC(n2nc(-c3ccc(Oc4ccc(F)cc4F)cc3)c(C(N)=O)c2N)C1

> <Shape>
0.193

> <Color>
0.064

> <Negative vol penalty>
0.000

$$$$

  -OEChem-04052317463D

 83 91  0     1  0  0  0  0  0999 V2000
  -18.5366  -30.6758   24.2034 C   0  0  0  0  0  0  0  0  0  0  0  0
  -19.9234  -30.6384   24.0992 C   0  0  0  0  0  0  0  0  0  0  0  0
  -25.8749  -12.7601   21.6219 C   0  0  0  0  0  0  0  0  0  0  0  0
  -24.9985  -12.7176   19.3708 C   0  0  0  0  0  0  0  0  0  0  0  0
  -17.7749  -29.6028   23.7426 C   0  0  0  0  0  0  0  0  0  0  0  0
  -20.5494  -29.5274   23.5351 C   0  0  0  0  0  0  0  0  0  0  0  0
  -25.6427  -29.5029   20.1346 C   0  0  0  0  0  0  0  0  0  0  0  0
  -25.4629  -11.4405   21.8072 C   0  0  0  0  0  0  0  0  0  0  0  0
  -24.5865  -11.3979   19.5562 C   0  0  0  0  0  0  0  0  0  0  0  0
  -26.9755  -29.2347   20.4436 C   0  0  0  0  0  0  0  0  0  0  0  0
  -22.5844   -9.8014   22.4796 C   0  0  0  0  0  0  0  0  0  0  0  0
  -21.9370   -9.4871   23.6745 C   0  0  0  0  0  0  0  0  0  0  0  0
  -26.6842  -26.9592   19.6974 C   0  0  0  0  0  0  0  0  0  0  0  0
  -23.6705   -7.8860   24.1925 C   0  0  0  0  0  0  0  0  0  0  0  0
  -28.1686  -21.9258   21.7109 C   0  0  0  0  0  0  0  0  0  0  0  0
  -25.6427  -13.3987   20.4037 C   0  0  0  0  0  0  0  0  0  0  0  0
  -27.3102  -15.2039   19.7194 C   0  0  0  0  0  0  0  0  0  0  0  0
  -18.3912  -28.4823   23.1637 C   0  0  0  0  0  0  0  0  0  0  0  0
  -24.8163  -28.4967   19.6141 C   0  0  0  0  0  0  0  0  0  0  0  0
  -19.7952  -28.4378   23.0673 C   0  0  0  0  0  0  0  0  0  0  0  0
  -25.3420  -27.2180   19.3803 C   0  0  0  0  0  0  0  0  0  0  0  0
  -24.8187  -10.7593   20.7744 C   0  0  0  0  0  0  0  0  0  0  0  0
  -27.4957  -27.9619   20.2277 C   0  0  0  0  0  0  0  0  0  0  0  0
  -23.7748   -9.1579   22.1411 C   0  0  0  0  0  0  0  0  0  0  0  0
  -22.4801   -8.5295   24.5310 C   0  0  0  0  0  0  0  0  0  0  0  0
  -24.3179   -8.2002   22.9976 C   0  0  0  0  0  0  0  0  0  0  0  0
  -26.0676  -14.7620   20.2118 C   0  0  0  0  0  0  0  0  0  0  0  0
  -27.2353  -21.2325   22.4398 C   0  0  0  0  0  0  0  0  0  0  0  0
  -27.2159  -16.5741   19.7294 C   0  0  0  0  0  0  0  0  0  0  0  0
  -28.4480  -14.4437   19.2913 C   0  0  0  0  0  0  0  0  0  0  0  0
  -25.7750  -21.2998   22.2987 C   0  0  0  0  0  0  0  0  0  0  0  0
  -22.1562  -27.0529   20.5852 C   0  0  0  0  0  0  0  0  0  0  0  0
  -22.2996  -25.6716   17.6537 C   0  0  0  0  0  0  0  0  0  0  0  0
  -24.2062  -24.7331   14.9833 C   0  0  0  0  0  0  0  0  0  0  0  0
  -17.5288  -27.3262   22.7229 C   0  0  0  0  0  0  0  0  0  0  0  0
  -23.3880  -28.8093   19.2610 C   0  0  0  0  0  0  0  0  0  0  0  0
  -24.5020  -26.1084   18.8044 C   0  0  0  0  0  0  0  0  0  0  0  0
  -18.2475  -26.3486   21.7966 C   0  0  0  0  0  0  0  0  0  0  0  0
  -23.2345  -19.6091   20.4468 C   0  0  0  0  0  0  0  0  0  0  0  0
  -19.6289  -26.0089   22.3472 C   0  0  0  0  0  0  0  0  0  0  0  0
  -23.8367  -18.2255   20.1953 C   0  0  0  0  0  0  0  0  0  0  0  0
  -23.6367  -20.1589   21.8131 C   0  0  0  0  0  0  0  0  0  0  0  0
  -25.7001  -18.7998   21.8074 C   0  0  0  0  0  0  0  0  0  0  0  0
  -20.5095  -27.2609   22.4388 C   0  0  1  0  0  0  0  0  0  0  0  0
  -22.4986  -27.5707   19.2169 C   0  0  1  0  0  0  0  0  0  0  0  0
  -25.3605  -18.2312   20.4198 C   0  0  1  0  0  0  0  0  0  0  0  0
  -24.0483  -23.5907   12.7546 C   0  0  0  0  0  0  0  0  0  0  0  0
  -22.1043  -22.9686   19.0557 C   0  0  0  0  0  0  0  0  0  0  0  0
  -22.8960  -21.8917   16.9387 C   0  0  0  0  0  0  0  0  0  0  0  0
  -20.7476  -23.1591   16.9634 C   0  0  0  0  0  0  0  0  0  0  0  0
  -25.1422  -27.1471   13.5496 C   0  0  0  0  0  0  0  0  0  0  0  0
  -31.4487  -25.9432   24.7674 C   0  0  0  0  0  0  0  0  0  0  0  0
  -30.9488  -23.4236   21.9693 C   0  0  0  0  0  0  0  0  0  0  0  0
  -30.4585  -27.5876   22.2546 C   0  0  0  0  0  0  0  0  0  0  0  0
  -30.6963  -21.9182   21.8339 C   0  0  0  0  0  0  0  0  0  0  0  0
  -30.7780  -23.9913   23.3742 C   0  0  0  0  0  0  0  0  0  0  0  0
  -29.9432  -26.2686   22.8106 C   0  0  0  0  0  0  0  0  0  0  0  0
  -29.3791  -28.4401   21.5989 C   0  0  0  0  0  0  0  0  0  1  0  0
  -22.9336  -24.4228   17.0901 C   0  0  1  0  0  0  0  0  0  0  0  0
  -24.0101  -24.9214   13.4898 C   0  0  2  0  0  0  0  0  0  0  0  0
  -22.1859  -23.1307   17.5247 C   0  0  0  0  0  0  0  0  0  0  0  0
  -25.2443  -15.7698   20.5127 N   0  0  0  0  0  0  0  0  0  0  0  0
  -27.8661  -20.4356   23.3545 N   0  0  0  0  0  0  0  0  0  0  0  0
  -29.1754  -20.6130   23.2164 N   0  0  0  0  0  0  0  0  0  0  0  0
  -29.3547  -21.5069   22.2303 N   0  0  0  0  0  0  0  0  0  0  0  0
  -25.9711  -16.8586   20.2087 N   0  0  0  0  0  0  0  0  0  0  0  0
  -25.0896  -20.1259   21.9768 N   0  0  0  0  0  0  0  0  0  0  0  0
  -23.1098  -26.4618   18.4814 N   0  0  0  0  0  0  0  0  0  0  0  0
  -28.0772  -17.5513   19.3748 N   0  0  0  0  0  0  0  0  0  0  0  0
  -28.3762  -13.0451   19.3464 N   0  0  0  0  0  0  0  0  0  0  0  0
  -21.0194  -27.6169   21.1320 N   0  0  0  0  0  0  0  0  0  0  0  0
  -23.0026  -24.6162   15.6458 N   0  0  0  0  0  0  0  0  0  0  0  0
  -25.0801  -25.7968   12.9332 N   0  3  0  0  0  0  0  0  0  0  0  0
  -31.0542  -25.4757   23.3871 N   0  3  1  0  0  0  0  0  0  0  0  0
  -29.5032  -14.9889   18.8877 O   0  0  0  0  0  0  0  0  0  0  0  0
  -25.2632  -22.4058   22.4660 O   0  0  0  0  0  0  0  0  0  0  0  0
  -22.8698  -26.2035   21.1058 O   0  0  0  0  0  0  0  0  0  0  0  0
  -21.1309  -25.9399   17.3643 O   0  0  0  0  0  0  0  0  0  0  0  0
  -25.3162  -24.6900   15.5092 O   0  0  0  0  0  0  0  0  0  0  0  0
  -24.4167   -9.4715   20.9548 O   0  0  0  0  0  0  0  0  0  0  0  0
  -28.7961  -27.6973   20.5290 O   0  0  0  0  0  0  0  0  0  1  0  0
  -21.8591   -8.2289   25.6791 F   0  0  0  0  0  0  0  0  0  0  0  0
  -25.4618   -7.5795   22.6784 F   0  0  0  0  0  0  0  0  0  0  0  0
  1  2  1  0  0  0  0
  1  5  2  0  0  0  0
  2  6  2  0  0  0  0
  3  8  2  0  0  0  0
  3 16  1  0  0  0  0
  4  9  1  0  0  0  0
  4 16  2  0  0  0  0
  5 18  1  0  0  0  0
  6 20  1  0  0  0  0
  7 10  2  0  0  0  0
  7 19  1  0  0  0  0
  8 22  1  0  0  0  0
  9 22  2  0  0  0  0
 10 23  1  0  0  0  0
 11 12  2  0  0  0  0
 11 24  1  0  0  0  0
 12 25  1  0  0  0  0
 13 21  1  0  0  0  0
 13 23  2  0  0  0  0
 14 25  2  0  0  0  0
 14 26  1  0  0  0  0
 15 28  2  0  0  0  0
 15 65  1  0  0  0  0
 16 27  1  0  0  0  0
 17 27  1  0  0  0  0
 17 29  2  0  0  0  0
 17 30  1  0  0  0  0
 18 20  2  0  0  0  0
 18 35  1  0  0  0  0
 19 21  2  0  0  0  0
 19 36  1  0  0  0  0
 20 44  1  0  0  0  0
 21 37  1  0  0  0  0
 22 80  1  0  0  0  0
 23 81  1  0  0  0  0
 24 26  2  0  0  0  0
 24 80  1  0  0  0  0
 25 82  1  0  0  0  0
 26 83  1  0  0  0  0
 27 62  2  0  0  0  0
 28 31  1  0  0  0  0
 28 63  1  0  0  0  0
 29 66  1  0  0  0  0
 29 69  1  0  0  0  0
 30 70  1  0  0  0  0
 30 75  2  0  0  0  0
 31 67  1  0  0  0  0
 31 76  2  0  0  0  0
 32 45  1  0  0  0  0
 32 71  1  0  0  0  0
 32 77  2  0  0  0  0
 33 59  1  0  0  0  0
 33 68  1  0  0  0  0
 33 78  2  0  0  0  0
 34 60  1  0  0  0  0
 34 72  1  0  0  0  0
 34 79  2  0  0  0  0
 35 38  1  0  0  0  0
 36 45  1  0  0  0  0
 37 68  1  0  0  0  0
 38 40  1  0  0  0  0
 39 41  1  0  0  0  0
 39 42  1  0  0  0  0
 40 44  1  0  0  0  0
 41 46  1  0  0  0  0
 42 67  1  0  0  0  0
 43 46  1  0  0  0  0
 43 67  1  0  0  0  0
 44 71  1  0  0  0  0
 45 68  1  0  0  0  0
 46 66  1  0  0  0  0
 47 60  1  0  0  0  0
 48 61  1  0  0  0  0
 49 61  1  0  0  0  0
 50 61  1  0  0  0  0
 51 73  1  0  0  0  0
 52 74  1  0  0  0  0
 53 55  1  0  0  0  0
 53 56  1  0  0  0  0
 54 57  1  0  0  0  0
 54 58  1  0  0  0  0
 55 65  1  0  0  0  0
 56 74  1  0  0  0  0
 57 74  1  0  0  0  0
 58 81  1  0  0  0  0
 59 61  1  0  0  0  0
 59 72  1  0  0  0  0
 60 73  1  0  0  0  0
 62 66  1  0  0  0  0
 63 64  2  0  0  0  0
 64 65  1  0  0  0  0
M  CHG  2  73   1  74   1
M  ISO  4  28 100  31 100  58 101  81 101
M  END
> <Batch ID>
0056

> <Smiles>
CNC(C)C(=O)NC(C(=O)N1Cc2cc([101O:1][101CH2:1]CCN(C)CCCn3c[100c:0]([100C:0](=O)N4CCCC(n5nc(-c6ccc(Oc7ccc(F)cc7F)cc6)c(C(N)=O)c5N)C4)nn3)ccc2CC1C(=O)NC1CCCc2ccccc21)C(C)(C)C

> <Shape>
0.215

> <Color>
0.067

> <Negative vol penalty>
0.000

$$$$

  -OEChem-04052317463D

 87 95  0     1  0  0  0  0  0999 V2000
  -17.0668  -30.5470   23.7146 C   0  0  0  0  0  0  0  0  0  0  0  0
  -18.4500  -30.4168   23.7860 C   0  0  0  0  0  0  0  0  0  0  0  0
  -26.9637  -14.5493   23.0581 C   0  0  0  0  0  0  0  0  0  0  0  0
  -26.0308  -14.6539   20.8320 C   0  0  0  0  0  0  0  0  0  0  0  0
  -16.2756  -29.4308   23.4466 C   0  0  0  0  0  0  0  0  0  0  0  0
  -19.0428  -29.1699   23.5905 C   0  0  0  0  0  0  0  0  0  0  0  0
  -24.4370  -28.0357   20.9216 C   0  0  0  0  0  0  0  0  0  0  0  0
  -26.0110  -13.5941   23.4125 C   0  0  0  0  0  0  0  0  0  0  0  0
  -25.0781  -13.6987   21.1864 C   0  0  0  0  0  0  0  0  0  0  0  0
  -25.7072  -27.7899   21.4411 C   0  0  0  0  0  0  0  0  0  0  0  0
  -24.9400  -10.3440   21.5703 C   0  0  0  0  0  0  0  0  0  0  0  0
  -24.7034   -9.3028   20.6728 C   0  0  0  0  0  0  0  0  0  0  0  0
  -25.3194  -25.4166   21.2500 C   0  0  0  0  0  0  0  0  0  0  0  0
  -22.3907   -9.9795   20.4975 C   0  0  0  0  0  0  0  0  0  0  0  0
  -31.2073  -23.5997   21.1565 C   0  0  0  0  0  0  0  0  0  0  0  0
  -26.9736  -15.0792   21.7679 C   0  0  0  0  0  0  0  0  0  0  0  0
  -29.2335  -15.8328   20.8552 C   0  0  0  0  0  0  0  0  0  0  0  0
  -16.8596  -28.1714   23.2381 C   0  0  0  0  0  0  0  0  0  0  0  0
  -23.5928  -26.9720   20.5721 C   0  0  0  0  0  0  0  0  0  0  0  0
  -18.2586  -28.0354   23.3208 C   0  0  0  0  0  0  0  0  0  0  0  0
  -24.0399  -25.6517   20.7240 C   0  0  0  0  0  0  0  0  0  0  0  0
  -25.0682  -13.1688   22.4767 C   0  0  0  0  0  0  0  0  0  0  0  0
  -26.1475  -26.4802   21.6080 C   0  0  0  0  0  0  0  0  0  0  0  0
  -23.9019  -11.2029   21.9315 C   0  0  0  0  0  0  0  0  0  0  0  0
  -23.4288   -9.1206   20.1364 C   0  0  0  0  0  0  0  0  0  0  0  0
  -22.6273  -11.0207   21.3951 C   0  0  0  0  0  0  0  0  0  0  0  0
  -27.9571  -16.0664   21.4013 C   0  0  0  0  0  0  0  0  0  0  0  0
  -31.5450  -23.9251   19.8612 C   0  0  0  0  0  0  0  0  0  0  0  0
  -30.7534  -26.0456   20.1877 C   0  0  0  0  0  0  0  0  0  0  0  0
  -30.4151  -25.7199   21.4826 C   0  0  0  0  0  0  0  0  0  0  0  0
  -29.7701  -17.0860   20.6883 C   0  0  0  0  0  0  0  0  0  0  0  0
  -29.8764  -14.5937   20.5280 C   0  0  0  0  0  0  0  0  0  0  0  0
  -20.7453  -25.9531   21.5508 C   0  0  0  0  0  0  0  0  0  0  0  0
  -21.0781  -23.8685   19.0879 C   0  0  0  0  0  0  0  0  0  0  0  0
  -23.1674  -22.1918   16.9735 C   0  0  0  0  0  0  0  0  0  0  0  0
  -28.8491  -22.3573   18.7694 C   0  0  0  0  0  0  0  0  0  0  0  0
  -15.9601  -26.9848   22.9981 C   0  0  0  0  0  0  0  0  0  0  0  0
  -22.2357  -27.2542   19.9881 C   0  0  0  0  0  0  0  0  0  0  0  0
  -23.1799  -24.4747   20.3451 C   0  0  0  0  0  0  0  0  0  0  0  0
  -16.6917  -25.7705   22.4321 C   0  0  0  0  0  0  0  0  0  0  0  0
  -28.2164  -21.5986   22.3367 C   0  0  0  0  0  0  0  0  0  0  0  0
  -17.9803  -25.5145   23.2073 C   0  0  0  0  0  0  0  0  0  0  0  0
  -28.1283  -20.0734   22.3423 C   0  0  0  0  0  0  0  0  0  0  0  0
  -27.7934  -22.1862   20.9938 C   0  0  0  0  0  0  0  0  0  0  0  0
  -28.4463  -20.1008   19.8366 C   0  0  0  0  0  0  0  0  0  0  0  0
  -18.9404  -26.7043   23.0899 C   0  0  1  0  0  0  0  0  0  0  0  0
  -21.2629  -26.0898   20.1468 C   0  0  1  0  0  0  0  0  0  0  0  0
  -28.9101  -19.4744   21.1602 C   0  0  2  0  0  0  0  0  0  0  0  0
  -29.6142  -27.3826   18.3984 C   0  0  0  0  0  0  0  0  0  0  0  0
  -33.5511  -22.4542   19.4926 C   0  0  0  0  0  0  0  0  0  0  0  0
  -23.1486  -20.5309   15.0925 C   0  0  0  0  0  0  0  0  0  0  0  0
  -30.6329  -28.0053   22.6694 C   0  0  0  0  0  0  0  0  0  0  0  0
  -29.5258  -26.0913   23.8045 C   0  0  0  0  0  0  0  0  0  0  0  0
  -20.5355  -21.6221   21.0801 C   0  0  0  0  0  0  0  0  0  0  0  0
  -21.4524  -20.0064   19.4017 C   0  0  0  0  0  0  0  0  0  0  0  0
  -19.4159  -21.3419   18.8614 C   0  0  0  0  0  0  0  0  0  0  0  0
  -30.1026  -22.3043   16.6468 C   0  0  0  0  0  0  0  0  0  0  0  0
  -24.4258  -24.1149   15.1087 C   0  0  0  0  0  0  0  0  0  0  0  0
  -30.5041  -27.4089   19.6388 C   0  0  0  0  0  0  0  0  0  0  0  0
  -31.2840  -21.6706   18.7177 C   0  0  0  0  0  0  0  0  0  0  0  0
  -28.3972  -27.2106   21.8549 C   0  0  0  0  0  0  0  0  0  1  0  0
  -32.1737  -22.9139   18.9678 C   0  0  1  0  0  0  0  0  0  0  0  0
  -21.6683  -22.4883   18.9278 C   0  0  1  0  0  0  0  0  0  0  0  0
  -23.1383  -22.0047   15.4673 C   0  0  2  0  0  0  0  0  0  0  0  0
  -29.7631  -26.7487   22.4254 C   0  0  0  0  0  0  0  0  0  0  0  0
  -20.7837  -21.3866   19.5768 C   0  0  0  0  0  0  0  0  0  0  0  0
  -30.6362  -24.4913   21.9904 N   0  0  0  0  0  0  0  0  0  0  0  0
  -27.6985  -17.3658   21.5702 N   0  0  0  0  0  0  0  0  0  0  0  0
  -31.3241  -25.1539   19.3536 N   0  0  0  0  0  0  0  0  0  0  0  0
  -28.8198  -17.9600   21.1278 N   0  0  0  0  0  0  0  0  0  0  0  0
  -21.8587  -24.8022   19.7842 N   0  0  0  0  0  0  0  0  0  0  0  0
  -28.5209  -21.5687   19.8844 N   0  0  0  0  0  0  0  0  0  0  0  0
  -30.9575  -17.5146   20.2100 N   0  0  0  0  0  0  0  0  0  0  0  0
  -29.1830  -13.3986   20.7633 N   0  0  0  0  0  0  0  0  0  0  0  0
  -19.6056  -26.6921   21.8047 N   0  0  0  0  0  0  0  0  0  0  0  0
  -21.8975  -22.3056   17.4986 N   0  0  0  0  0  0  0  0  0  0  0  0
  -30.0210  -22.0245   18.0733 N   0  0  0  0  0  0  0  0  0  0  0  0
  -24.3230  -22.6571   14.8413 N   0  3  0  0  0  0  0  0  0  0  0  0
  -31.0380  -14.5470   20.0568 O   0  0  0  0  0  0  0  0  0  0  0  0
  -21.3354  -25.2296   22.3445 O   0  0  0  0  0  0  0  0  0  0  0  0
  -19.9687  -24.1114   18.6065 O   0  0  0  0  0  0  0  0  0  0  0  0
  -24.2120  -22.2293   17.6200 O   0  0  0  0  0  0  0  0  0  0  0  0
  -28.1405  -23.3107   18.4220 O   0  0  0  0  0  0  0  0  0  0  0  0
  -24.1386  -12.2366   22.8221 O   0  0  0  0  0  0  0  0  0  0  0  0
  -27.3866  -26.2374   22.1154 O   0  0  0  0  0  0  0  0  0  1  0  0
  -23.2021   -8.1216   19.2733 F   0  0  0  0  0  0  0  0  0  0  0  0
  -21.6264  -11.8433   21.7373 F   0  0  0  0  0  0  0  0  0  0  0  0
  1  2  1  0  0  0  0
  1  5  2  0  0  0  0
  2  6  2  0  0  0  0
  3  8  2  0  0  0  0
  3 16  1  0  0  0  0
  4  9  1  0  0  0  0
  4 16  2  0  0  0  0
  5 18  1  0  0  0  0
  6 20  1  0  0  0  0
  7 10  2  0  0  0  0
  7 19  1  0  0  0  0
  8 22  1  0  0  0  0
  9 22  2  0  0  0  0
 10 23  1  0  0  0  0
 11 12  2  0  0  0  0
 11 24  1  0  0  0  0
 12 25  1  0  0  0  0
 13 21  1  0  0  0  0
 13 23  2  0  0  0  0
 14 25  2  0  0  0  0
 14 26  1  0  0  0  0
 15 28  1  0  0  0  0
 15 67  2  0  0  0  0
 16 27  1  0  0  0  0
 17 27  1  0  0  0  0
 17 31  2  0  0  0  0
 17 32  1  0  0  0  0
 18 20  2  0  0  0  0
 18 37  1  0  0  0  0
 19 21  2  0  0  0  0
 19 38  1  0  0  0  0
 20 46  1  0  0  0  0
 21 39  1  0  0  0  0
 22 84  1  0  0  0  0
 23 85  1  0  0  0  0
 24 26  2  0  0  0  0
 24 84  1  0  0  0  0
 25 86  1  0  0  0  0
 26 87  1  0  0  0  0
 27 68  2  0  0  0  0
 28 62  1  0  0  0  0
 28 69  2  0  0  0  0
 29 30  2  0  0  0  0
 29 59  1  0  0  0  0
 29 69  1  0  0  0  0
 30 65  1  0  0  0  0
 30 67  1  0  0  0  0
 31 70  1  0  0  0  0
 31 73  1  0  0  0  0
 32 74  1  0  0  0  0
 32 79  2  0  0  0  0
 33 47  1  0  0  0  0
 33 75  1  0  0  0  0
 33 80  2  0  0  0  0
 34 63  1  0  0  0  0
 34 71  1  0  0  0  0
 34 81  2  0  0  0  0
 35 64  1  0  0  0  0
 35 76  1  0  0  0  0
 35 82  2  0  0  0  0
 36 72  1  0  0  0  0
 36 77  1  0  0  0  0
 36 83  2  0  0  0  0
 37 40  1  0  0  0  0
 38 47  1  0  0  0  0
 39 71  1  0  0  0  0
 40 42  1  0  0  0  0
 41 43  1  0  0  0  0
 41 44  1  0  0  0  0
 42 46  1  0  0  0  0
 43 48  1  0  0  0  0
 44 72  1  0  0  0  0
 45 48  1  0  0  0  0
 45 72  1  0  0  0  0
 46 75  1  0  0  0  0
 47 71  1  0  0  0  0
 48 70  1  0  0  0  0
 49 59  1  0  0  0  0
 50 62  1  0  0  0  0
 51 64  1  0  0  0  0
 52 65  1  0  0  0  0
 53 65  1  0  0  0  0
 54 66  1  0  0  0  0
 55 66  1  0  0  0  0
 56 66  1  0  0  0  0
 57 77  1  0  0  0  0
 58 78  1  0  0  0  0
 60 62  1  0  0  0  0
 60 77  1  0  0  0  0
 61 65  1  0  0  0  0
 61 85  1  0  0  0  0
 63 66  1  0  0  0  0
 63 76  1  0  0  0  0
 64 78  1  0  0  0  0
 68 70  1  0  0  0  0
M  CHG  1  78   1
M  ISO  4  36 100  61 101  77 100  85 101
M  END
> <Batch ID>
0056

> <Smiles>
CCc1nc(C(C)C[100N:0](C)[100C:0](=O)N2CCCC(n3nc(-c4ccc(Oc5ccc(F)cc5F)cc4)c(C(N)=O)c3N)C2)cnc1C(C)(C)[101CH2:1][101O:1]c1ccc2c(c1)CN(C(=O)C(NC(=O)C(C)NC)C(C)(C)C)C(C(=O)NC1CCCc3ccccc31)C2

> <Shape>
0.241

> <Color>
0.066

> <Negative vol penalty>
0.000

$$$$

  -OEChem-04052317462D

  0  0  0     0  0  0  0  0  0999 V2000
M  END
$$$$

  -OEChem-04052317463D

 84 92  0     1  0  0  0  0  0999 V2000
  -30.5522  -23.5985   18.6073 C   0  0  0  0  0  0  0  0  0  0  0  0
  -29.1663  -23.5784   18.7278 C   0  0  0  0  0  0  0  0  0  0  0  0
  -24.5399  -15.2582   19.3832 C   0  0  0  0  0  0  0  0  0  0  0  0
  -23.8465  -14.7907   21.6499 C   0  0  0  0  0  0  0  0  0  0  0  0
  -31.3211  -24.3031   19.5326 C   0  0  0  0  0  0  0  0  0  0  0  0
  -28.5487  -24.2621   19.7745 C   0  0  0  0  0  0  0  0  0  0  0  0
  -23.1400  -27.1302   19.6139 C   0  0  0  0  0  0  0  0  0  0  0  0
  -25.3935  -14.1556   19.4169 C   0  0  0  0  0  0  0  0  0  0  0  0
  -24.7002  -13.6881   21.6836 C   0  0  0  0  0  0  0  0  0  0  0  0
  -21.8635  -26.7489   20.0249 C   0  0  0  0  0  0  0  0  0  0  0  0
  -28.4412  -13.4031   20.6699 C   0  0  0  0  0  0  0  0  0  0  0  0
  -29.7322  -13.5684   20.1685 C   0  0  0  0  0  0  0  0  0  0  0  0
  -22.2031  -27.8935   22.1210 C   0  0  0  0  0  0  0  0  0  0  0  0
  -29.3172  -11.8414   18.5307 C   0  0  0  0  0  0  0  0  0  0  0  0
  -20.3740  -23.3874   25.0565 C   0  0  0  0  0  0  0  0  0  0  0  0
  -20.3396  -24.9619   26.5981 C   0  0  0  0  0  0  0  0  0  0  0  0
  -23.7664  -15.5758   20.4997 C   0  0  0  0  0  0  0  0  0  0  0  0
  -21.5375  -16.7353   20.0580 C   0  0  0  0  0  0  0  0  0  0  0  0
  -30.7119  -25.0038   20.5856 C   0  0  0  0  0  0  0  0  0  0  0  0
  -23.9631  -27.8881   20.4591 C   0  0  0  0  0  0  0  0  0  0  0  0
  -29.3102  -24.9757   20.7155 C   0  0  0  0  0  0  0  0  0  0  0  0
  -23.4886  -28.2853   21.7173 C   0  0  0  0  0  0  0  0  0  0  0  0
  -25.4737  -13.3705   20.5671 C   0  0  0  0  0  0  0  0  0  0  0  0
  -21.3960  -27.1281   21.2798 C   0  0  0  0  0  0  0  0  0  0  0  0
  -27.5882  -12.4568   20.1018 C   0  0  0  0  0  0  0  0  0  0  0  0
  -30.1702  -12.7876   19.0989 C   0  0  0  0  0  0  0  0  0  0  0  0
  -28.0262  -11.6761   19.0322 C   0  0  0  0  0  0  0  0  0  0  0  0
  -22.8848  -16.7150   20.4657 C   0  0  0  0  0  0  0  0  0  0  0  0
  -21.3694  -23.2022   25.9868 C   0  0  0  0  0  0  0  0  0  0  0  0
  -21.1522  -18.0448   20.2111 C   0  0  0  0  0  0  0  0  0  0  0  0
  -20.7084  -15.6662   19.5835 C   0  0  0  0  0  0  0  0  0  0  0  0
  -26.7863  -27.4266   21.8449 C   0  0  0  0  0  0  0  0  0  0  0  0
  -26.4178  -30.5236   22.7365 C   0  0  0  0  0  0  0  0  0  0  0  0
  -24.3005  -33.1259   23.3630 C   0  0  0  0  0  0  0  0  0  0  0  0
  -23.1210  -22.4927   23.7026 C   0  0  0  0  0  0  0  0  0  0  0  0
  -31.5876  -25.7121   21.5886 C   0  0  0  0  0  0  0  0  0  0  0  0
  -25.3274  -28.3140   19.9902 C   0  0  0  0  0  0  0  0  0  0  0  0
  -24.3254  -29.1163   22.6542 C   0  0  0  0  0  0  0  0  0  0  0  0
  -30.8328  -26.7199   22.4517 C   0  0  0  0  0  0  0  0  0  0  0  0
  -22.9061  -22.4957   20.1487 C   0  0  0  0  0  0  0  0  0  0  0  0
  -29.5371  -26.1091   22.9760 C   0  0  0  0  0  0  0  0  0  0  0  0
  -22.7547  -21.0164   19.7902 C   0  0  0  0  0  0  0  0  0  0  0  0
  -23.8397  -22.6949   21.3406 C   0  0  0  0  0  0  0  0  0  0  0  0
  -23.3358  -20.4340   22.1822 C   0  0  0  0  0  0  0  0  0  0  0  0
  -28.6019  -25.7254   21.8229 C   0  0  1  0  0  0  0  0  0  0  0  0
  -26.2756  -28.6497   21.1372 C   0  0  1  0  0  0  0  0  0  0  0  0
  -22.3595  -20.1787   21.0212 C   0  0  2  0  0  0  0  0  0  0  0  0
  -24.2906  -35.5209   24.1122 C   0  0  0  0  0  0  0  0  0  0  0  0
  -21.9810  -20.8449   26.8459 C   0  0  0  0  0  0  0  0  0  0  0  0
  -23.7054  -22.6363   26.6890 C   0  0  0  0  0  0  0  0  0  0  0  0
  -26.9086  -29.6241   25.6105 C   0  0  0  0  0  0  0  0  0  0  0  0
  -25.9635  -31.8102   26.3824 C   0  0  0  0  0  0  0  0  0  0  0  0
  -28.0285  -31.7705   24.9835 C   0  0  0  0  0  0  0  0  0  0  0  0
  -18.0060  -26.4531   25.4723 C   0  0  0  0  0  0  0  0  0  0  0  0
  -17.3408  -24.1712   24.7690 C   0  0  0  0  0  0  0  0  0  0  0  0
  -23.0871  -34.0368   20.8220 C   0  0  0  0  0  0  0  0  0  0  0  0
  -18.8495  -25.5270   23.2808 C   0  0  0  0  0  0  0  0  0  0  0  0
  -19.9517  -26.5671   23.0841 C   0  0  0  0  0  0  0  0  0  1  0  0
  -25.7999  -31.2293   23.9194 C   0  0  1  0  0  0  0  0  0  0  0  0
  -24.3300  -34.5775   22.9200 C   0  0  2  0  0  0  0  0  0  0  0  0
  -22.3757  -22.1310   26.0421 C   0  0  0  0  0  0  0  0  0  0  0  0
  -26.6598  -31.0913   25.2073 C   0  0  0  0  0  0  0  0  0  0  0  0
  -18.5192  -25.1769   24.7631 C   0  0  0  0  0  0  0  0  0  0  0  0
  -21.3424  -24.1855   26.9439 N   0  0  0  0  0  0  0  0  0  0  0  0
  -23.3258  -17.9161   20.8489 N   0  0  0  0  0  0  0  0  0  0  0  0
  -19.7225  -24.5181   25.4616 N   0  0  0  0  0  0  0  0  0  0  0  0
  -22.2495  -18.7035   20.6825 N   0  0  0  0  0  0  0  0  0  0  0  0
  -25.6546  -29.5025   22.1527 N   0  0  0  0  0  0  0  0  0  0  0  0
  -23.4088  -21.8740   22.4749 N   0  0  0  0  0  0  0  0  0  0  0  0
  -19.9853  -18.6855   19.9871 N   0  0  0  0  0  0  0  0  0  0  0  0
  -21.2630  -14.3827   19.4876 N   0  0  0  0  0  0  0  0  0  0  0  0
  -27.9402  -26.9000   21.2966 N   0  0  0  0  0  0  0  0  0  0  0  0
  -25.5710  -32.6074   23.4986 N   0  0  0  0  0  0  0  0  0  0  0  0
  -22.7132  -21.6429   24.7235 N   0  0  0  0  0  0  0  0  0  0  0  0
  -23.1607  -34.8761   22.0456 N   0  3  0  0  0  0  0  0  0  0  0  0
  -19.5159  -15.8471   19.2386 O   0  0  0  0  0  0  0  0  0  0  0  0
  -26.1793  -26.9936   22.8174 O   0  0  0  0  0  0  0  0  0  0  0  0
  -27.5333  -30.8705   22.3405 O   0  0  0  0  0  0  0  0  0  0  0  0
  -23.2551  -32.5142   23.5717 O   0  0  0  0  0  0  0  0  0  0  0  0
  -23.2150  -23.7128   23.8747 O   0  0  0  0  0  0  0  0  0  0  0  0
  -26.3064  -12.2944   20.6003 O   0  0  0  0  0  0  0  0  0  0  0  0
  -20.1507  -26.7566   21.6838 O   0  0  0  0  0  0  0  0  0  1  0  0
  -31.4095  -12.9476   18.6164 F   0  0  0  0  0  0  0  0  0  0  0  0
  -27.2108  -10.7662   18.4815 F   0  0  0  0  0  0  0  0  0  0  0  0
  1  2  1  0  0  0  0
  1  5  2  0  0  0  0
  2  6  2  0  0  0  0
  3  8  2  0  0  0  0
  3 17  1  0  0  0  0
  4  9  1  0  0  0  0
  4 17  2  0  0  0  0
  5 19  1  0  0  0  0
  6 21  1  0  0  0  0
  7 10  2  0  0  0  0
  7 20  1  0  0  0  0
  8 23  1  0  0  0  0
  9 23  2  0  0  0  0
 10 24  1  0  0  0  0
 11 12  2  0  0  0  0
 11 25  1  0  0  0  0
 12 26  1  0  0  0  0
 13 22  1  0  0  0  0
 13 24  2  0  0  0  0
 14 26  2  0  0  0  0
 14 27  1  0  0  0  0
 15 29  2  0  0  0  0
 15 66  1  0  0  0  0
 16 64  2  0  0  0  0
 16 66  1  0  0  0  0
 17 28  1  0  0  0  0
 18 28  1  0  0  0  0
 18 30  2  0  0  0  0
 18 31  1  0  0  0  0
 19 21  2  0  0  0  0
 19 36  1  0  0  0  0
 20 22  2  0  0  0  0
 20 37  1  0  0  0  0
 21 45  1  0  0  0  0
 22 38  1  0  0  0  0
 23 81  1  0  0  0  0
 24 82  1  0  0  0  0
 25 27  2  0  0  0  0
 25 81  1  0  0  0  0
 26 83  1  0  0  0  0
 27 84  1  0  0  0  0
 28 65  2  0  0  0  0
 29 61  1  0  0  0  0
 29 64  1  0  0  0  0
 30 67  1  0  0  0  0
 30 70  1  0  0  0  0
 31 71  1  0  0  0  0
 31 76  2  0  0  0  0
 32 46  1  0  0  0  0
 32 72  1  0  0  0  0
 32 77  2  0  0  0  0
 33 59  1  0  0  0  0
 33 68  1  0  0  0  0
 33 78  2  0  0  0  0
 34 60  1  0  0  0  0
 34 73  1  0  0  0  0
 34 79  2  0  0  0  0
 35 69  1  0  0  0  0
 35 74  1  0  0  0  0
 35 80  2  0  0  0  0
 36 39  1  0  0  0  0
 37 46  1  0  0  0  0
 38 68  1  0  0  0  0
 39 41  1  0  0  0  0
 40 42  1  0  0  0  0
 40 43  1  0  0  0  0
 41 45  1  0  0  0  0
 42 47  1  0  0  0  0
 43 69  1  0  0  0  0
 44 47  1  0  0  0  0
 44 69  1  0  0  0  0
 45 72  1  0  0  0  0
 46 68  1  0  0  0  0
 47 67  1  0  0  0  0
 48 60  1  0  0  0  0
 49 61  1  0  0  0  0
 50 61  1  0  0  0  0
 51 62  1  0  0  0  0
 52 62  1  0  0  0  0
 53 62  1  0  0  0  0
 54 63  1  0  0  0  0
 55 63  1  0  0  0  0
 56 75  1  0  0  0  0
 57 58  1  0  0  0  0
 57 63  1  0  0  0  0
 58 82  1  0  0  0  0
 59 62  1  0  0  0  0
 59 73  1  0  0  0  0
 60 75  1  0  0  0  0
 61 74  1  0  0  0  0
 63 66  1  0  0  0  0
 65 67  1  0  0  0  0
M  CHG  1  75   1
M  ISO  4  35 100  58 101  74 100  82 101
M  END
> <Batch ID>
0056

> <Smiles>
CNC(C)C(=O)NC(C(=O)N1Cc2cc([101O:1][101CH2:1]CC(C)(C)n3cnc(C(C)(C)[100NH:0][100C:0](=O)N4CCCC(n5nc(-c6ccc(Oc7ccc(F)cc7F)cc6)c(C(N)=O)c5N)C4)c3)ccc2CC1C(=O)NC1CCCc2ccccc21)C(C)(C)C

> <Shape>
0.231

> <Color>
0.062

> <Negative vol penalty>
0.000

$$$$

  -OEChem-04052317463D

 82 90  0     1  0  0  0  0  0999 V2000
  -19.4330  -22.0205   23.7126 C   0  0  0  0  0  0  0  0  0  0  0  0
  -20.7691  -21.6561   23.5799 C   0  0  0  0  0  0  0  0  0  0  0  0
  -26.9567  -13.1690   20.9921 C   0  0  0  0  0  0  0  0  0  0  0  0
  -25.0310  -13.3064   19.5395 C   0  0  0  0  0  0  0  0  0  0  0  0
  -18.9463  -23.1387   23.0368 C   0  0  0  0  0  0  0  0  0  0  0  0
  -21.6189  -22.4090   22.7704 C   0  0  0  0  0  0  0  0  0  0  0  0
  -28.4468  -24.5215   22.2868 C   0  0  0  0  0  0  0  0  0  0  0  0
  -26.2518  -12.3210   21.8464 C   0  0  0  0  0  0  0  0  0  0  0  0
  -24.3262  -12.4584   20.3937 C   0  0  0  0  0  0  0  0  0  0  0  0
  -29.5085  -24.5353   21.3833 C   0  0  0  0  0  0  0  0  0  0  0  0
  -24.1649   -9.1443   21.0353 C   0  0  0  0  0  0  0  0  0  0  0  0
  -23.4314   -8.1083   20.4573 C   0  0  0  0  0  0  0  0  0  0  0  0
  -28.5759  -26.4931   20.3266 C   0  0  0  0  0  0  0  0  0  0  0  0
  -21.4060   -9.0029   21.4240 C   0  0  0  0  0  0  0  0  0  0  0  0
  -29.5294  -22.5310   15.7934 C   0  0  0  0  0  0  0  0  0  0  0  0
  -26.3463  -13.6618   19.8387 C   0  0  0  0  0  0  0  0  0  0  0  0
  -27.8743  -14.1670   17.8595 C   0  0  0  0  0  0  0  0  0  0  0  0
  -19.7929  -23.9114   22.2263 C   0  0  0  0  0  0  0  0  0  0  0  0
  -27.4342  -25.4885   22.2100 C   0  0  0  0  0  0  0  0  0  0  0  0
  -21.1427  -23.5378   22.0821 C   0  0  0  0  0  0  0  0  0  0  0  0
  -27.5038  -26.4909   21.2319 C   0  0  0  0  0  0  0  0  0  0  0  0
  -24.9366  -11.9657   21.5472 C   0  0  0  0  0  0  0  0  0  0  0  0
  -29.5717  -25.5195   20.4012 C   0  0  0  0  0  0  0  0  0  0  0  0
  -23.5191  -10.1096   21.8078 C   0  0  0  0  0  0  0  0  0  0  0  0
  -22.0520   -8.0376   20.6516 C   0  0  0  0  0  0  0  0  0  0  0  0
  -22.1396  -10.0389   22.0021 C   0  0  0  0  0  0  0  0  0  0  0  0
  -27.0737  -14.5382   18.9562 C   0  0  0  0  0  0  0  0  0  0  0  0
  -29.6154  -23.6397   16.5874 C   0  0  0  0  0  0  0  0  0  0  0  0
  -28.3387  -15.3570   17.3549 C   0  0  0  0  0  0  0  0  0  0  0  0
  -27.6920  -22.6343   17.0237 C   0  0  0  0  0  0  0  0  0  0  0  0
  -28.1715  -12.8629   17.3428 C   0  0  0  0  0  0  0  0  0  0  0  0
  -24.2995  -25.4174   21.6885 C   0  0  0  0  0  0  0  0  0  0  0  0
  -24.5090  -28.5832   22.3640 C   0  0  0  0  0  0  0  0  0  0  0  0
  -26.0956  -20.8487   17.6457 C   0  0  0  0  0  0  0  0  0  0  0  0
  -26.4365  -31.3965   22.4941 C   0  0  0  0  0  0  0  0  0  0  0  0
  -19.2100  -25.0841   21.4781 C   0  0  0  0  0  0  0  0  0  0  0  0
  -26.3097  -25.4757   23.2088 C   0  0  0  0  0  0  0  0  0  0  0  0
  -26.4527  -27.5637   21.1198 C   0  0  0  0  0  0  0  0  0  0  0  0
  -20.2644  -26.0462   20.9369 C   0  0  0  0  0  0  0  0  0  0  0  0
  -29.4302  -19.8187   18.6686 C   0  0  0  0  0  0  0  0  0  0  0  0
  -21.3863  -25.2761   20.2477 C   0  0  0  0  0  0  0  0  0  0  0  0
  -29.2603  -18.3045   18.7844 C   0  0  0  0  0  0  0  0  0  0  0  0
  -28.1650  -20.5596   19.0933 C   0  0  0  0  0  0  0  0  0  0  0  0
  -26.7666  -18.6149   18.4711 C   0  0  0  0  0  0  0  0  0  0  0  0
  -22.1016  -24.3437   21.2329 C   0  0  1  0  0  0  0  0  0  0  0  0
  -25.0637  -26.2045   22.7152 C   0  0  1  0  0  0  0  0  0  0  0  0
  -28.0105  -17.8295   18.0228 C   0  0  2  0  0  0  0  0  0  0  0  0
  -26.3190  -33.8409   23.0494 C   0  0  0  0  0  0  0  0  0  0  0  0
  -25.2186  -22.9939   16.8104 C   0  0  0  0  0  0  0  0  0  0  0  0
  -26.1670  -22.7610   19.1083 C   0  0  0  0  0  0  0  0  0  0  0  0
  -23.0927  -29.1147   19.7141 C   0  0  0  0  0  0  0  0  0  0  0  0
  -23.8445  -31.4977   19.8702 C   0  0  0  0  0  0  0  0  0  0  0  0
  -22.3290  -30.5531   21.6120 C   0  0  0  0  0  0  0  0  0  0  0  0
  -27.8358  -20.7131   15.4669 C   0  0  0  0  0  0  0  0  0  0  0  0
  -28.4324  -31.1187   24.6616 C   0  0  0  0  0  0  0  0  0  0  0  0
  -30.6889  -24.6904   16.7184 C   0  0  0  0  0  0  0  0  0  0  0  0
  -31.7513  -24.3579   17.7682 C   0  0  0  0  0  0  0  0  0  0  0  0
  -31.1957  -24.2784   19.1854 C   0  0  0  0  0  0  0  0  0  1  0  0
  -24.7525  -29.8350   21.5560 C   0  0  1  0  0  0  0  0  0  0  0  0
  -26.6156  -32.4456   23.5766 C   0  0  2  0  0  0  0  0  0  0  0  0
  -26.3679  -22.3317   17.6222 C   0  0  0  0  0  0  0  0  0  0  0  0
  -23.5236  -30.2289   20.6887 C   0  0  0  0  0  0  0  0  0  0  0  0
  -27.0299  -15.8607   19.1385 N   0  0  0  0  0  0  0  0  0  0  0  0
  -28.3296  -21.9279   16.0846 N   0  0  0  0  0  0  0  0  0  0  0  0
  -27.8090  -16.3308   18.1495 N   0  0  0  0  0  0  0  0  0  0  0  0
  -28.4650  -23.6789   17.3378 N   0  3  0  0  0  0  0  0  0  0  0  0
  -25.3698  -27.5048   22.1155 N   0  0  0  0  0  0  0  0  0  0  0  0
  -26.9930  -20.0592   18.3651 N   0  0  0  0  0  0  0  0  0  0  0  0
  -29.1446  -15.6550   16.3137 N   0  0  0  0  0  0  0  0  0  0  0  0
  -27.6115  -11.7478   17.9810 N   0  0  0  0  0  0  0  0  0  0  0  0
  -23.0112  -25.0956   22.0707 N   0  0  0  0  0  0  0  0  0  0  0  0
  -25.1660  -30.8609   22.5073 N   0  0  0  0  0  0  0  0  0  0  0  0
  -28.0140  -32.4252   24.0914 N   0  3  0  0  0  0  0  0  0  0  0  0
  -28.9250  -12.6907   16.3548 O   0  0  0  0  0  0  0  0  0  0  0  0
  -24.8382  -25.1252   20.6273 O   0  0  0  0  0  0  0  0  0  0  0  0
  -23.5934  -28.5654   23.1904 O   0  0  0  0  0  0  0  0  0  0  0  0
  -25.1157  -20.4069   17.0401 O   0  0  0  0  0  0  0  0  0  0  0  0
  -27.3327  -31.0861   21.7125 O   0  0  0  0  0  0  0  0  0  0  0  0
  -24.2486  -11.1380   22.3804 O   0  0  0  0  0  0  0  0  0  0  0  0
  -30.6066  -25.5349   19.5176 O   0  0  0  0  0  0  0  0  0  1  0  0
  -21.3475   -7.0435   20.0952 F   0  0  0  0  0  0  0  0  0  0  0  0
  -21.5134  -10.9641   22.7422 F   0  0  0  0  0  0  0  0  0  0  0  0
  1  2  1  0  0  0  0
  1  5  2  0  0  0  0
  2  6  2  0  0  0  0
  3  8  2  0  0  0  0
  3 16  1  0  0  0  0
  4  9  1  0  0  0  0
  4 16  2  0  0  0  0
  5 18  1  0  0  0  0
  6 20  1  0  0  0  0
  7 10  2  0  0  0  0
  7 19  1  0  0  0  0
  8 22  1  0  0  0  0
  9 22  2  0  0  0  0
 10 23  1  0  0  0  0
 11 12  2  0  0  0  0
 11 24  1  0  0  0  0
 12 25  1  0  0  0  0
 13 21  1  0  0  0  0
 13 23  2  0  0  0  0
 14 25  2  0  0  0  0
 14 26  1  0  0  0  0
 15 28  2  0  0  0  0
 15 64  1  0  0  0  0
 16 27  1  0  0  0  0
 17 27  1  0  0  0  0
 17 29  2  0  0  0  0
 17 31  1  0  0  0  0
 18 20  2  0  0  0  0
 18 36  1  0  0  0  0
 19 21  2  0  0  0  0
 19 37  1  0  0  0  0
 20 45  1  0  0  0  0
 21 38  1  0  0  0  0
 22 79  1  0  0  0  0
 23 80  1  0  0  0  0
 24 26  2  0  0  0  0
 24 79  1  0  0  0  0
 25 81  1  0  0  0  0
 26 82  1  0  0  0  0
 27 63  2  0  0  0  0
 28 56  1  0  0  0  0
 28 66  1  0  0  0  0
 29 65  1  0  0  0  0
 29 69  1  0  0  0  0
 30 61  1  0  0  0  0
 30 64  1  0  0  0  0
 30 66  2  0  0  0  0
 31 70  1  0  0  0  0
 31 74  2  0  0  0  0
 32 46  1  0  0  0  0
 32 71  1  0  0  0  0
 32 75  2  0  0  0  0
 33 59  1  0  0  0  0
 33 67  1  0  0  0  0
 33 76  2  0  0  0  0
 34 61  1  0  0  0  0
 34 68  1  0  0  0  0
 34 77  2  0  0  0  0
 35 60  1  0  0  0  0
 35 72  1  0  0  0  0
 35 78  2  0  0  0  0
 36 39  1  0  0  0  0
 37 46  1  0  0  0  0
 38 67  1  0  0  0  0
 39 41  1  0  0  0  0
 40 42  1  0  0  0  0
 40 43  1  0  0  0  0
 41 45  1  0  0  0  0
 42 47  1  0  0  0  0
 43 68  1  0  0  0  0
 44 47  1  0  0  0  0
 44 68  1  0  0  0  0
 45 71  1  0  0  0  0
 46 67  1  0  0  0  0
 47 65  1  0  0  0  0
 48 60  1  0  0  0  0
 49 61  1  0  0  0  0
 50 61  1  0  0  0  0
 51 62  1  0  0  0  0
 52 62  1  0  0  0  0
 53 62  1  0  0  0  0
 54 64  1  0  0  0  0
 55 73  1  0  0  0  0
 56 57  1  0  0  0  0
 57 58  1  0  0  0  0
 58 80  1  0  0  0  0
 59 62  1  0  0  0  0
 59 72  1  0  0  0  0
 60 73  1  0  0  0  0
 63 65  1  0  0  0  0
M  CHG  2  66   1  73   1
M  ISO  4  34 100  58 101  61 100  80 101
M  END
> <Batch ID>
0056

> <Smiles>
CNC(C)C(=O)NC(C(=O)N1Cc2cc([101O:1][101CH2:1]CCc3cn(C)c([100C:0](C)(C)[100C:0](=O)N4CCCC(n5nc(-c6ccc(Oc7ccc(F)cc7F)cc6)c(C(N)=O)c5N)C4)n3)ccc2CC1C(=O)NC1CCCc2ccccc21)C(C)(C)C

> <Shape>
0.231

> <Color>
0.067

> <Negative vol penalty>
0.000

$$$$

  -OEChem-04052317463D

 89 97  0     1  0  0  0  0  0999 V2000
  -32.3225  -14.2983   21.1956 C   0  0  0  0  0  0  0  0  0  0  0  0
  -31.4720  -15.3869   21.3603 C   0  0  0  0  0  0  0  0  0  0  0  0
  -25.0510  -27.7754   19.2578 C   0  0  0  0  0  0  0  0  0  0  0  0
  -25.0668  -26.7279   21.4349 C   0  0  0  0  0  0  0  0  0  0  0  0
  -31.8530  -13.1339   20.5892 C   0  0  0  0  0  0  0  0  0  0  0  0
  -30.1519  -15.3122   20.9176 C   0  0  0  0  0  0  0  0  0  0  0  0
  -25.2465  -17.9023   23.5126 C   0  0  0  0  0  0  0  0  0  0  0  0
  -23.6598  -27.6814   19.2226 C   0  0  0  0  0  0  0  0  0  0  0  0
  -23.6755  -26.6339   21.3997 C   0  0  0  0  0  0  0  0  0  0  0  0
  -24.5478  -19.0761   23.2339 C   0  0  0  0  0  0  0  0  0  0  0  0
  -20.1018  -26.4454   22.0413 C   0  0  0  0  0  0  0  0  0  0  0  0
  -19.3975  -26.8065   23.1898 C   0  0  0  0  0  0  0  0  0  0  0  0
  -28.8665  -22.3313   22.5207 C   0  0  0  0  0  0  0  0  0  0  0  0
  -22.9627  -17.8146   21.9242 C   0  0  0  0  0  0  0  0  0  0  0  0
  -20.3221  -29.0346   23.0563 C   0  0  0  0  0  0  0  0  0  0  0  0
  -27.7025  -21.7829   22.0401 C   0  0  0  0  0  0  0  0  0  0  0  0
  -25.7545  -27.2986   20.3639 C   0  0  0  0  0  0  0  0  0  0  0  0
  -27.9597  -28.4601   20.9078 C   0  0  0  0  0  0  0  0  0  0  0  0
  -30.5237  -13.0414   20.1476 C   0  0  0  0  0  0  0  0  0  0  0  0
  -24.8140  -16.6753   22.9894 C   0  0  0  0  0  0  0  0  0  0  0  0
  -29.6646  -14.1459   20.3035 C   0  0  0  0  0  0  0  0  0  0  0  0
  -23.6562  -16.6262   22.1999 C   0  0  0  0  0  0  0  0  0  0  0  0
  -22.9720  -27.1107   20.2936 C   0  0  0  0  0  0  0  0  0  0  0  0
  -23.4074  -19.0329   22.4372 C   0  0  0  0  0  0  0  0  0  0  0  0
  -20.9164  -27.3789   21.4003 C   0  0  0  0  0  0  0  0  0  0  0  0
  -19.5076  -28.1011   23.6973 C   0  0  0  0  0  0  0  0  0  0  0  0
  -21.0265  -28.6735   21.9078 C   0  0  0  0  0  0  0  0  0  0  0  0
  -27.1917  -27.3948   20.4006 C   0  0  0  0  0  0  0  0  0  0  0  0
  -29.8221  -22.0583   21.5236 C   0  0  0  0  0  0  0  0  0  0  0  0
  -29.2615  -28.0689   20.7111 C   0  0  0  0  0  0  0  0  0  0  0  0
  -27.5343  -29.6929   21.5035 C   0  0  0  0  0  0  0  0  0  0  0  0
  -26.0582  -14.5133   21.0193 C   0  0  0  0  0  0  0  0  0  0  0  0
  -23.4030  -12.8292   21.8169 C   0  0  0  0  0  0  0  0  0  0  0  0
  -31.7765  -22.6424   20.1290 C   0  0  0  0  0  0  0  0  0  0  0  0
  -20.1853  -12.8603   22.9535 C   0  0  0  0  0  0  0  0  0  0  0  0
  -30.0750  -11.7788   19.4553 C   0  0  0  0  0  0  0  0  0  0  0  0
  -25.5635  -15.4142   23.3214 C   0  0  0  0  0  0  0  0  0  0  0  0
  -23.1388  -15.3314   21.6307 C   0  0  0  0  0  0  0  0  0  0  0  0
  -28.5577  -11.6469   19.3523 C   0  0  0  0  0  0  0  0  0  0  0  0
  -31.9818  -25.3910   17.8393 C   0  0  0  0  0  0  0  0  0  0  0  0
  -27.9395  -12.9556   18.8706 C   0  0  0  0  0  0  0  0  0  0  0  0
  -30.8289  -26.2994   18.2646 C   0  0  0  0  0  0  0  0  0  0  0  0
  -31.6266  -23.9181   18.0161 C   0  0  0  0  0  0  0  0  0  0  0  0
  -30.0316  -24.4685   19.8257 C   0  0  0  0  0  0  0  0  0  0  0  0
  -28.2190  -14.0944   19.8589 C   0  0  1  0  0  0  0  0  0  0  0  0
  -25.3256  -14.2946   22.3127 C   0  0  1  0  0  0  0  0  0  0  0  0
  -30.3601  -25.9660   19.6920 C   0  0  2  0  0  0  0  0  0  0  0  0
  -18.2617  -11.3318   23.4642 C   0  0  0  0  0  0  0  0  0  0  0  0
  -26.1558  -20.4951   17.5943 C   0  0  0  0  0  0  0  0  0  0  0  0
  -32.1277  -21.3065   22.1648 C   0  0  0  0  0  0  0  0  0  0  0  0
  -31.6327  -23.7519   22.2583 C   0  0  0  0  0  0  0  0  0  0  0  0
  -22.8368  -12.5483   18.8318 C   0  0  0  0  0  0  0  0  0  0  0  0
  -20.4945  -11.8793   19.4100 C   0  0  0  0  0  0  0  0  0  0  0  0
  -22.4137  -10.4803   20.1731 C   0  0  0  0  0  0  0  0  0  0  0  0
  -21.1802  -21.7118   19.0629 C   0  0  0  0  0  0  0  0  0  0  0  0
  -21.1094  -22.5104   21.4291 C   0  0  0  0  0  0  0  0  0  0  0  0
  -20.1595  -13.6555   25.8040 C   0  0  0  0  0  0  0  0  0  0  0  0
  -25.4954  -23.5251   18.2792 C   0  0  0  0  0  0  0  0  0  0  0  0
  -23.3253  -22.3383   20.1873 C   0  0  0  0  0  0  0  0  0  0  0  0
  -27.1074  -20.5338   19.9327 C   0  0  0  0  0  0  0  0  0  0  0  0
  -24.2303  -21.5933   19.2109 C   0  0  0  0  0  0  0  0  0  0  0  0
  -22.0337  -20.2385   20.9156 C   0  0  0  0  0  0  0  0  0  1  0  0
  -22.0007  -12.7212   21.2684 C   0  0  1  0  0  0  0  0  0  0  0  0
  -19.4866  -12.0395   24.0224 C   0  0  2  0  0  0  0  0  0  0  0  0
  -26.6636  -21.3725   18.7304 C   0  0  2  0  0  0  0  0  0  0  0  0
  -31.2486  -22.4240   21.5246 C   0  0  0  0  0  0  0  0  0  0  0  0
  -21.9470  -11.9321   19.9298 C   0  0  0  0  0  0  0  0  0  0  0  0
  -21.9286  -21.6945   20.4131 C   0  0  0  0  0  0  0  0  0  0  0  0
  -27.9430  -26.4016   19.9178 N   0  0  0  0  0  0  0  0  0  0  0  0
  -29.3096  -21.3883   20.4880 N   0  0  0  0  0  0  0  0  0  0  0  0
  -28.0194  -21.2357   20.8317 N   0  0  0  0  0  0  0  0  0  0  0  0
  -29.1967  -26.8412   20.1207 N   0  0  0  0  0  0  0  0  0  0  0  0
  -23.9099  -14.1264   21.9785 N   0  0  0  0  0  0  0  0  0  0  0  0
  -31.1647  -23.6466   19.3785 N   0  0  0  0  0  0  0  0  0  0  0  0
  -30.4439  -28.6589   20.9872 N   0  0  0  0  0  0  0  0  0  0  0  0
  -26.1595  -29.9349   21.6291 N   0  0  0  0  0  0  0  0  0  0  0  0
  -27.3398  -13.9968   21.0043 N   0  0  0  0  0  0  0  0  0  0  0  0
  -21.1886  -12.1450   22.3347 N   0  0  0  0  0  0  0  0  0  0  0  0
  -19.0515  -12.9158   25.1465 N   0  3  0  0  0  0  0  0  0  0  0  0
  -25.5405  -22.2903   19.1443 N   0  3  1  0  0  0  0  0  0  0  0  0
  -28.3491  -30.5615   21.8975 O   0  0  0  0  0  0  0  0  0  0  0  0
  -25.5014  -15.1054   20.1022 O   0  0  0  0  0  0  0  0  0  0  0  0
  -24.0231  -11.8007   22.0984 O   0  0  0  0  0  0  0  0  0  0  0  0
  -32.7068  -21.9423   19.7208 O   0  0  0  0  0  0  0  0  0  0  0  0
  -19.8698  -14.0188   22.6909 O   0  0  0  0  0  0  0  0  0  0  0  0
  -21.6144  -27.0191   20.2597 O   0  0  0  0  0  0  0  0  0  0  0  0
  -22.7239  -20.1772   22.1631 O   0  0  0  0  0  0  0  0  0  1  0  0
  -18.8299  -28.4481   24.7993 F   0  0  0  0  0  0  0  0  0  0  0  0
  -21.8065  -29.5750   21.2957 F   0  0  0  0  0  0  0  0  0  0  0  0
  1  2  1  0  0  0  0
  1  5  2  0  0  0  0
  2  6  2  0  0  0  0
  3  8  2  0  0  0  0
  3 17  1  0  0  0  0
  4  9  1  0  0  0  0
  4 17  2  0  0  0  0
  5 19  1  0  0  0  0
  6 21  1  0  0  0  0
  7 10  2  0  0  0  0
  7 20  1  0  0  0  0
  8 23  1  0  0  0  0
  9 23  2  0  0  0  0
 10 24  1  0  0  0  0
 11 12  2  0  0  0  0
 11 25  1  0  0  0  0
 12 26  1  0  0  0  0
 13 16  2  0  0  0  0
 13 29  1  0  0  0  0
 14 22  1  0  0  0  0
 14 24  2  0  0  0  0
 15 26  2  0  0  0  0
 15 27  1  0  0  0  0
 16 71  1  0  0  0  0
 17 28  1  0  0  0  0
 18 28  1  0  0  0  0
 18 30  2  0  0  0  0
 18 31  1  0  0  0  0
 19 21  2  0  0  0  0
 19 36  1  0  0  0  0
 20 22  2  0  0  0  0
 20 37  1  0  0  0  0
 21 45  1  0  0  0  0
 22 38  1  0  0  0  0
 23 86  1  0  0  0  0
 24 87  1  0  0  0  0
 25 27  2  0  0  0  0
 25 86  1  0  0  0  0
 26 88  1  0  0  0  0
 27 89  1  0  0  0  0
 28 69  2  0  0  0  0
 29 66  1  0  0  0  0
 29 70  2  0  0  0  0
 30 72  1  0  0  0  0
 30 75  1  0  0  0  0
 31 76  1  0  0  0  0
 31 81  2  0  0  0  0
 32 46  1  0  0  0  0
 32 77  1  0  0  0  0
 32 82  2  0  0  0  0
 33 63  1  0  0  0  0
 33 73  1  0  0  0  0
 33 83  2  0  0  0  0
 34 66  1  0  0  0  0
 34 74  1  0  0  0  0
 34 84  2  0  0  0  0
 35 64  1  0  0  0  0
 35 78  1  0  0  0  0
 35 85  2  0  0  0  0
 36 39  1  0  0  0  0
 37 46  1  0  0  0  0
 38 73  1  0  0  0  0
 39 41  1  0  0  0  0
 40 42  1  0  0  0  0
 40 43  1  0  0  0  0
 41 45  1  0  0  0  0
 42 47  1  0  0  0  0
 43 74  1  0  0  0  0
 44 47  1  0  0  0  0
 44 74  1  0  0  0  0
 45 77  1  0  0  0  0
 46 73  1  0  0  0  0
 47 72  1  0  0  0  0
 48 64  1  0  0  0  0
 49 65  1  0  0  0  0
 50 66  1  0  0  0  0
 51 66  1  0  0  0  0
 52 67  1  0  0  0  0
 53 67  1  0  0  0  0
 54 67  1  0  0  0  0
 55 68  1  0  0  0  0
 56 68  1  0  0  0  0
 57 79  1  0  0  0  0
 58 80  1  0  0  0  0
 59 61  1  0  0  0  0
 59 68  1  0  0  0  0
 60 65  1  0  0  0  0
 60 71  1  0  0  0  0
 61 80  1  0  0  0  0
 62 68  1  0  0  0  0
 62 87  1  0  0  0  0
 63 67  1  0  0  0  0
 63 78  1  0  0  0  0
 64 79  1  0  0  0  0
 65 80  1  0  0  0  0
 69 72  1  0  0  0  0
 70 71  1  0  0  0  0
M  CHG  2  79   1  80   1
M  ISO  4  34 100  62 101  66 100  87 101
M  END
> <Batch ID>
0056

> <Smiles>
CNC(C)C(=O)NC(C(=O)N1Cc2cc([101O:1][101CH2:1]C(C)(C)CCN(C)C(C)Cn3ccc([100C:0](C)(C)[100C:0](=O)N4CCCC(n5nc(-c6ccc(Oc7ccc(F)cc7F)cc6)c(C(N)=O)c5N)C4)n3)ccc2CC1C(=O)NC1CCCc2ccccc21)C(C)(C)C

> <Shape>
0.268

> <Color>
0.067

> <Negative vol penalty>
0.000

$$$$

  -OEChem-04052317463D

 87 95  0     1  0  0  0  0  0999 V2000
  -18.5222  -24.7691   25.1527 C   0  0  0  0  0  0  0  0  0  0  0  0
  -19.8393  -24.4178   24.8745 C   0  0  0  0  0  0  0  0  0  0  0  0
  -24.6661   -8.8559   21.5043 C   0  0  0  0  0  0  0  0  0  0  0  0
  -22.9716  -10.5285   21.0945 C   0  0  0  0  0  0  0  0  0  0  0  0
  -17.9724  -25.9160   24.5815 C   0  0  0  0  0  0  0  0  0  0  0  0
  -20.6070  -25.2127   24.0241 C   0  0  0  0  0  0  0  0  0  0  0  0
  -26.6186  -26.3066   24.4369 C   0  0  0  0  0  0  0  0  0  0  0  0
  -23.8068   -8.2015   22.3868 C   0  0  0  0  0  0  0  0  0  0  0  0
  -22.1122   -9.8741   21.9770 C   0  0  0  0  0  0  0  0  0  0  0  0
  -27.7197  -25.7520   23.7860 C   0  0  0  0  0  0  0  0  0  0  0  0
  -21.9287   -5.8908   24.4722 C   0  0  0  0  0  0  0  0  0  0  0  0
  -21.8298   -4.5031   24.3718 C   0  0  0  0  0  0  0  0  0  0  0  0
  -27.6838  -27.5640   22.1940 C   0  0  0  0  0  0  0  0  0  0  0  0
  -21.0564   -4.7230   22.0935 C   0  0  0  0  0  0  0  0  0  0  0  0
  -28.9428  -20.9408   19.0203 C   0  0  0  0  0  0  0  0  0  0  0  0
  -27.3506  -22.0639   20.0394 C   0  0  0  0  0  0  0  0  0  0  0  0
  -24.2486  -10.0194   20.8581 C   0  0  0  0  0  0  0  0  0  0  0  0
  -25.2578  -10.4803   18.5610 C   0  0  0  0  0  0  0  0  0  0  0  0
  -18.7367  -26.7306   23.7313 C   0  0  0  0  0  0  0  0  0  0  0  0
  -26.0340  -27.4903   23.9639 C   0  0  0  0  0  0  0  0  0  0  0  0
  -20.0664  -26.3709   23.4400 C   0  0  0  0  0  0  0  0  0  0  0  0
  -26.5769  -28.1330   22.8422 C   0  0  0  0  0  0  0  0  0  0  0  0
  -27.5452  -21.0974   19.0830 C   0  0  0  0  0  0  0  0  0  0  0  0
  -22.5298   -8.7106   22.6232 C   0  0  0  0  0  0  0  0  0  0  0  0
  -28.2508  -26.3791   22.6627 C   0  0  0  0  0  0  0  0  0  0  0  0
  -21.5914   -6.6946   23.3832 C   0  0  0  0  0  0  0  0  0  0  0  0
  -21.3937   -3.9192   23.1825 C   0  0  0  0  0  0  0  0  0  0  0  0
  -21.1553   -6.1107   22.1939 C   0  0  0  0  0  0  0  0  0  0  0  0
  -25.1360  -10.6962   19.9468 C   0  0  0  0  0  0  0  0  0  0  0  0
  -26.2279  -11.3659   18.1595 C   0  0  0  0  0  0  0  0  0  0  0  0
  -24.5567   -9.5615   17.7126 C   0  0  0  0  0  0  0  0  0  0  0  0
  -23.1702  -28.2823   22.8348 C   0  0  0  0  0  0  0  0  0  0  0  0
  -24.4055  -31.2810   22.8981 C   0  0  0  0  0  0  0  0  0  0  0  0
  -27.1749  -33.2750   22.8610 C   0  0  0  0  0  0  0  0  0  0  0  0
  -28.1808  -16.5650   20.3970 C   0  0  0  0  0  0  0  0  0  0  0  0
  -18.0843  -27.9349   23.0999 C   0  0  0  0  0  0  0  0  0  0  0  0
  -24.8631  -28.0901   24.6930 C   0  0  0  0  0  0  0  0  0  0  0  0
  -25.9988  -29.4164   22.3064 C   0  0  0  0  0  0  0  0  0  0  0  0
  -19.0814  -28.9269   22.5066 C   0  0  0  0  0  0  0  0  0  0  0  0
  -30.1160  -13.6434   19.7677 C   0  0  0  0  0  0  0  0  0  0  0  0
  -20.1317  -28.1960   21.6763 C   0  0  0  0  0  0  0  0  0  0  0  0
  -29.0701  -12.5373   19.6172 C   0  0  0  0  0  0  0  0  0  0  0  0
  -29.7094  -14.6640   20.8284 C   0  0  0  0  0  0  0  0  0  0  0  0
  -27.3239  -14.1456   20.4905 C   0  0  0  0  0  0  0  0  0  0  0  0
  -20.9388  -27.2211   22.5421 C   0  0  1  0  0  0  0  0  0  0  0  0
  -24.0297  -29.0230   23.8199 C   0  0  1  0  0  0  0  0  0  0  0  0
  -27.6630  -13.1229   19.3926 C   0  0  2  0  0  0  0  0  0  0  0  0
  -27.8659  -35.6873   22.8849 C   0  0  0  0  0  0  0  0  0  0  0  0
  -25.6399  -17.9525   17.6219 C   0  0  0  0  0  0  0  0  0  0  0  0
  -30.1352  -22.9883   22.3631 C   0  0  0  0  0  0  0  0  0  0  0  0
  -25.0247  -20.7975   18.6095 C   0  0  0  0  0  0  0  0  0  0  0  0
  -26.6800  -20.7364   16.7693 C   0  0  0  0  0  0  0  0  0  0  0  0
  -23.6134  -31.5345   19.9624 C   0  0  0  0  0  0  0  0  0  0  0  0
  -25.1375  -33.5136   19.7942 C   0  0  0  0  0  0  0  0  0  0  0  0
  -23.1805  -33.5765   21.3398 C   0  0  0  0  0  0  0  0  0  0  0  0
  -30.2134  -25.0266   19.9712 C   0  0  0  0  0  0  0  0  0  0  0  0
  -27.7659  -25.3625   20.2784 C   0  0  0  0  0  0  0  0  0  0  0  0
  -28.6544  -32.9463   25.4031 C   0  0  0  0  0  0  0  0  0  0  0  0
  -26.5296  -18.3608   19.9412 C   0  0  0  0  0  0  0  0  0  0  0  0
  -25.1769  -32.1402   21.9257 C   0  0  1  0  0  0  0  0  0  0  0  0
  -27.5787  -34.4542   23.7275 C   0  0  2  0  0  0  0  0  0  0  0  0
  -26.6276  -18.7875   18.4590 C   0  0  2  0  0  0  0  0  0  0  0  0
  -28.9218  -23.4556   21.5408 C   0  0  1  0  0  0  0  0  0  0  0  0
  -26.5211  -20.3886   18.2995 C   0  0  0  0  0  0  0  0  0  0  0  0
  -24.2870  -32.6660   20.7642 C   0  0  0  0  0  0  0  0  0  0  0  0
  -29.0583  -24.9091   20.9767 C   0  0  0  0  0  0  0  0  0  1  0  0
  -29.5903  -21.7435   19.8690 N   0  0  0  0  0  0  0  0  0  0  0  0
  -25.9628  -11.6444   20.3956 N   0  0  0  0  0  0  0  0  0  0  0  0
  -28.5951  -22.4140   20.4741 N   0  0  0  0  0  0  0  0  0  0  0  0
  -26.6134  -12.0322   19.2854 N   0  0  0  0  0  0  0  0  0  0  0  0
  -24.8505  -29.9602   23.0503 N   0  0  0  0  0  0  0  0  0  0  0  0
  -28.3663  -15.1818   20.5565 N   0  0  0  0  0  0  0  0  0  0  0  0
  -26.7802  -11.6318   16.9568 N   0  0  0  0  0  0  0  0  0  0  0  0
  -23.5916   -8.7238   18.2882 N   0  0  0  0  0  0  0  0  0  0  0  0
  -21.9248  -27.9364   23.3235 N   0  0  0  0  0  0  0  0  0  0  0  0
  -25.8060  -33.1906   22.7191 N   0  0  0  0  0  0  0  0  0  0  0  0
  -26.8779  -16.9709   20.1356 N   0  0  0  0  0  0  0  0  0  0  0  0
  -28.8025  -34.1256   24.5119 N   0  3  0  0  0  0  0  0  0  0  0  0
  -24.7910   -9.4741   16.4834 O   0  0  0  0  0  0  0  0  0  0  0  0
  -23.6041  -28.0437   21.7139 O   0  0  0  0  0  0  0  0  0  0  0  0
  -23.4479  -31.7661   23.5059 O   0  0  0  0  0  0  0  0  0  0  0  0
  -27.9923  -32.5077   22.3573 O   0  0  0  0  0  0  0  0  0  0  0  0
  -29.1085  -17.3774   20.4761 O   0  0  0  0  0  0  0  0  0  0  0  0
  -21.6909   -8.0722   23.4841 O   0  0  0  0  0  0  0  0  0  0  0  0
  -29.3251  -25.8395   22.0252 O   0  0  0  0  0  0  0  0  0  1  0  0
  -21.3002   -2.5865   23.0858 F   0  0  0  0  0  0  0  0  0  0  0  0
  -20.8310   -6.8777   21.1439 F   0  0  0  0  0  0  0  0  0  0  0  0
  1  2  1  0  0  0  0
  1  5  2  0  0  0  0
  2  6  2  0  0  0  0
  3  8  2  0  0  0  0
  3 17  1  0  0  0  0
  4  9  1  0  0  0  0
  4 17  2  0  0  0  0
  5 19  1  0  0  0  0
  6 21  1  0  0  0  0
  7 10  2  0  0  0  0
  7 20  1  0  0  0  0
  8 24  1  0  0  0  0
  9 24  2  0  0  0  0
 10 25  1  0  0  0  0
 11 12  2  0  0  0  0
 11 26  1  0  0  0  0
 12 27  1  0  0  0  0
 13 22  1  0  0  0  0
 13 25  2  0  0  0  0
 14 27  2  0  0  0  0
 14 28  1  0  0  0  0
 15 23  1  0  0  0  0
 15 67  2  0  0  0  0
 16 23  2  0  0  0  0
 16 69  1  0  0  0  0
 17 29  1  0  0  0  0
 18 29  1  0  0  0  0
 18 30  2  0  0  0  0
 18 31  1  0  0  0  0
 19 21  2  0  0  0  0
 19 36  1  0  0  0  0
 20 22  2  0  0  0  0
 20 37  1  0  0  0  0
 21 45  1  0  0  0  0
 22 38  1  0  0  0  0
 23 64  1  0  0  0  0
 24 84  1  0  0  0  0
 25 85  1  0  0  0  0
 26 28  2  0  0  0  0
 26 84  1  0  0  0  0
 27 86  1  0  0  0  0
 28 87  1  0  0  0  0
 29 68  2  0  0  0  0
 30 70  1  0  0  0  0
 30 73  1  0  0  0  0
 31 74  1  0  0  0  0
 31 79  2  0  0  0  0
 32 46  1  0  0  0  0
 32 75  1  0  0  0  0
 32 80  2  0  0  0  0
 33 60  1  0  0  0  0
 33 71  1  0  0  0  0
 33 81  2  0  0  0  0
 34 61  1  0  0  0  0
 34 76  1  0  0  0  0
 34 82  2  0  0  0  0
 35 72  1  0  0  0  0
 35 77  1  0  0  0  0
 35 83  2  0  0  0  0
 36 39  1  0  0  0  0
 37 46  1  0  0  0  0
 38 71  1  0  0  0  0
 39 41  1  0  0  0  0
 40 42  1  0  0  0  0
 40 43  1  0  0  0  0
 41 45  1  0  0  0  0
 42 47  1  0  0  0  0
 43 72  1  0  0  0  0
 44 47  1  0  0  0  0
 44 72  1  0  0  0  0
 45 75  1  0  0  0  0
 46 71  1  0  0  0  0
 47 70  1  0  0  0  0
 48 61  1  0  0  0  0
 49 62  1  0  0  0  0
 50 63  1  0  0  0  0
 51 64  1  0  0  0  0
 52 64  1  0  0  0  0
 53 65  1  0  0  0  0
 54 65  1  0  0  0  0
 55 65  1  0  0  0  0
 56 66  1  0  0  0  0
 57 66  1  0  0  0  0
 58 78  1  0  0  0  0
 59 62  1  0  0  0  0
 59 77  1  0  0  0  0
 60 65  1  0  0  0  0
 60 76  1  0  0  0  0
 61 78  1  0  0  0  0
 62 64  1  0  0  0  0
 63 66  1  0  0  0  0
 63 69  1  0  0  0  0
 66 85  1  0  0  0  0
 67 69  1  0  0  0  0
 68 70  1  0  0  0  0
M  CHG  1  78   1
M  ISO  4  35 100  66 101  77 100  85 101
M  END
> <Batch ID>
0056

> <Smiles>
CNC(C)C(=O)NC(C(=O)N1Cc2cc([101O:1][101C:1](C)(C)C(C)n3cc(C(C)(C)C(C)C[100NH:0][100C:0](=O)N4CCCC(n5nc(-c6ccc(Oc7ccc(F)cc7F)cc6)c(C(N)=O)c5N)C4)cn3)ccc2CC1C(=O)NC1CCCc2ccccc21)C(C)(C)C

> <Shape>
0.281

> <Color>
0.094

> <Negative vol penalty>
0.000

$$$$

  -OEChem-04052317463D

 84 92  0     1  0  0  0  0  0999 V2000
  -19.8244  -21.4807   24.8289 C   0  0  0  0  0  0  0  0  0  0  0  0
  -21.0777  -21.7038   24.2679 C   0  0  0  0  0  0  0  0  0  0  0  0
  -26.2448  -11.9961   21.4806 C   0  0  0  0  0  0  0  0  0  0  0  0
  -25.1308  -13.0987   19.6420 C   0  0  0  0  0  0  0  0  0  0  0  0
  -18.7828  -22.3745   24.5834 C   0  0  0  0  0  0  0  0  0  0  0  0
  -21.2900  -22.8204   23.4600 C   0  0  0  0  0  0  0  0  0  0  0  0
  -26.4260  -26.1278   23.0262 C   0  0  0  0  0  0  0  0  0  0  0  0
  -25.1957  -11.0811   21.5676 C   0  0  0  0  0  0  0  0  0  0  0  0
  -24.0817  -12.1836   19.7289 C   0  0  0  0  0  0  0  0  0  0  0  0
  -27.4717  -26.1199   22.1041 C   0  0  0  0  0  0  0  0  0  0  0  0
  -24.1711   -8.3035   19.9340 C   0  0  0  0  0  0  0  0  0  0  0  0
  -24.4974   -6.9546   20.0729 C   0  0  0  0  0  0  0  0  0  0  0  0
  -26.4205  -27.9303   20.9055 C   0  0  0  0  0  0  0  0  0  0  0  0
  -23.3096   -6.8838   22.1756 C   0  0  0  0  0  0  0  0  0  0  0  0
  -29.3395  -22.3925   19.3643 C   0  0  0  0  0  0  0  0  0  0  0  0
  -26.2124  -13.0050   20.5178 C   0  0  0  0  0  0  0  0  0  0  0  0
  -28.4633  -13.8346   19.6503 C   0  0  0  0  0  0  0  0  0  0  0  0
  -18.9850  -23.5077   23.7799 C   0  0  0  0  0  0  0  0  0  0  0  0
  -25.3624  -27.0313   22.8884 C   0  0  0  0  0  0  0  0  0  0  0  0
  -20.2498  -23.7294   23.2024 C   0  0  0  0  0  0  0  0  0  0  0  0
  -25.3638  -27.9494   21.8286 C   0  0  0  0  0  0  0  0  0  0  0  0
  -24.1142  -11.1748   20.6917 C   0  0  0  0  0  0  0  0  0  0  0  0
  -27.4676  -27.0192   21.0420 C   0  0  0  0  0  0  0  0  0  0  0  0
  -23.4141   -8.9427   20.9159 C   0  0  0  0  0  0  0  0  0  0  0  0
  -24.0667   -6.2447   21.1937 C   0  0  0  0  0  0  0  0  0  0  0  0
  -22.9834   -8.2328   22.0367 C   0  0  0  0  0  0  0  0  0  0  0  0
  -27.2956  -13.9509   20.4279 C   0  0  0  0  0  0  0  0  0  0  0  0
  -28.4145  -21.4263   18.9254 C   0  0  0  0  0  0  0  0  0  0  0  0
  -29.5107  -23.2206   18.2820 C   0  0  0  0  0  0  0  0  0  0  0  0
  -29.1666  -14.9849   19.9128 C   0  0  0  0  0  0  0  0  0  0  0  0
  -28.8755  -12.7812   18.7694 C   0  0  0  0  0  0  0  0  0  0  0  0
  -22.2283  -26.7545   22.4361 C   0  0  0  0  0  0  0  0  0  0  0  0
  -22.2796  -29.9727   22.8397 C   0  0  0  0  0  0  0  0  0  0  0  0
  -24.0568  -32.8827   22.6959 C   0  0  0  0  0  0  0  0  0  0  0  0
  -27.0592  -20.3399   22.0155 C   0  0  0  0  0  0  0  0  0  0  0  0
  -17.8162  -24.4202   23.5045 C   0  0  0  0  0  0  0  0  0  0  0  0
  -24.2554  -27.0451   23.9067 C   0  0  0  0  0  0  0  0  0  0  0  0
  -24.2557  -28.9532   21.6475 C   0  0  0  0  0  0  0  0  0  0  0  0
  -18.2239  -25.7796   22.9423 C   0  0  0  0  0  0  0  0  0  0  0  0
  -29.8489  -18.2783   23.3073 C   0  0  0  0  0  0  0  0  0  0  0  0
  -19.2459  -25.6095   21.8227 C   0  0  0  0  0  0  0  0  0  0  0  0
  -29.5590  -16.9070   22.6995 C   0  0  0  0  0  0  0  0  0  0  0  0
  -28.5731  -19.0896   23.5110 C   0  0  0  0  0  0  0  0  0  0  0  0
  -27.4609  -17.8673   21.6717 C   0  0  0  0  0  0  0  0  0  0  0  0
  -20.5259  -24.9425   22.3408 C   0  0  1  0  0  0  0  0  0  0  0  0
  -22.9651  -27.6641   23.3782 C   0  0  1  0  0  0  0  0  0  0  0  0
  -28.7301  -17.0425   21.4104 C   0  0  2  0  0  0  0  0  0  0  0  0
  -23.8181  -35.3560   23.0465 C   0  0  0  0  0  0  0  0  0  0  0  0
  -24.5191  -20.1186   20.2666 C   0  0  0  0  0  0  0  0  0  0  0  0
  -25.2103  -22.4811   20.7803 C   0  0  0  0  0  0  0  0  0  0  0  0
  -20.7972  -30.2039   20.1828 C   0  0  0  0  0  0  0  0  0  0  0  0
  -21.4237  -32.6272   20.1239 C   0  0  0  0  0  0  0  0  0  0  0  0
  -19.9870  -31.7567   21.9681 C   0  0  0  0  0  0  0  0  0  0  0  0
  -28.5405  -23.2455   15.9641 C   0  0  0  0  0  0  0  0  0  0  0  0
  -26.0973  -32.8930   24.8395 C   0  0  0  0  0  0  0  0  0  0  0  0
  -27.8746  -20.2889   19.6891 C   0  0  0  0  0  0  0  0  0  0  0  0
  -30.3692  -24.4465   18.0988 C   0  0  0  0  0  0  0  0  0  0  0  0
  -29.6658  -25.7528   18.4735 C   0  0  0  0  0  0  0  0  0  0  0  0
  -29.1367  -25.7651   19.9030 C   0  0  0  0  0  0  0  0  0  1  0  0
  -22.4441  -31.1624   21.9250 C   0  0  1  0  0  0  0  0  0  0  0  0
  -24.1963  -34.0276   23.6829 C   0  0  2  0  0  0  0  0  0  0  0  0
  -25.6104  -21.1708   20.1146 C   0  0  0  0  0  0  0  0  0  0  0  0
  -21.1830  -31.4175   21.0520 C   0  0  0  0  0  0  0  0  0  0  0  0
  -27.2556  -15.0854   21.1317 N   0  0  0  0  0  0  0  0  0  0  0  0
  -28.0252  -21.6214   17.6627 N   0  0  0  0  0  0  0  0  0  0  0  0
  -28.7088  -22.7198   17.2990 N   0  0  0  0  0  0  0  0  0  0  0  0
  -28.4070  -15.6924   20.7975 N   0  0  0  0  0  0  0  0  0  0  0  0
  -23.1927  -28.9230   22.6657 N   0  0  0  0  0  0  0  0  0  0  0  0
  -27.7832  -19.1661   22.2816 N   0  0  0  0  0  0  0  0  0  0  0  0
  -30.3544  -15.4499   19.4710 N   0  0  0  0  0  0  0  0  0  0  0  0
  -28.0334  -11.6714   18.6151 N   0  0  0  0  0  0  0  0  0  0  0  0
  -21.3393  -25.8998   23.0594 N   0  0  0  0  0  0  0  0  0  0  0  0
  -22.8169  -32.2852   22.7787 N   0  0  0  0  0  0  0  0  0  0  0  0
  -26.8723  -20.6845   20.6683 N   0  0  0  0  0  0  0  0  0  0  0  0
  -25.6015  -34.1230   24.1702 N   0  3  0  0  0  0  0  0  0  0  0  0
  -29.9660  -12.8151   18.1504 O   0  0  0  0  0  0  0  0  0  0  0  0
  -22.4489  -26.8241   21.2327 O   0  0  0  0  0  0  0  0  0  0  0  0
  -21.3789  -29.9778   23.6825 O   0  0  0  0  0  0  0  0  0  0  0  0
  -24.9563  -32.5539   21.9256 O   0  0  0  0  0  0  0  0  0  0  0  0
  -26.6139  -21.0449   22.9301 O   0  0  0  0  0  0  0  0  0  0  0  0
  -23.0904  -10.2819   20.7762 O   0  0  0  0  0  0  0  0  0  0  0  0
  -28.4867  -27.0131   20.1402 O   0  0  0  0  0  0  0  0  0  1  0  0
  -24.3788   -4.9488   21.3262 F   0  0  0  0  0  0  0  0  0  0  0  0
  -22.2548   -8.8412   22.9827 F   0  0  0  0  0  0  0  0  0  0  0  0
  1  2  1  0  0  0  0
  1  5  2  0  0  0  0
  2  6  2  0  0  0  0
  3  8  2  0  0  0  0
  3 16  1  0  0  0  0
  4  9  1  0  0  0  0
  4 16  2  0  0  0  0
  5 18  1  0  0  0  0
  6 20  1  0  0  0  0
  7 10  2  0  0  0  0
  7 19  1  0  0  0  0
  8 22  1  0  0  0  0
  9 22  2  0  0  0  0
 10 23  1  0  0  0  0
 11 12  2  0  0  0  0
 11 24  1  0  0  0  0
 12 25  1  0  0  0  0
 13 21  1  0  0  0  0
 13 23  2  0  0  0  0
 14 25  2  0  0  0  0
 14 26  1  0  0  0  0
 15 28  1  0  0  0  0
 15 29  2  0  0  0  0
 16 27  1  0  0  0  0
 17 27  1  0  0  0  0
 17 30  2  0  0  0  0
 17 31  1  0  0  0  0
 18 20  2  0  0  0  0
 18 36  1  0  0  0  0
 19 21  2  0  0  0  0
 19 37  1  0  0  0  0
 20 45  1  0  0  0  0
 21 38  1  0  0  0  0
 22 81  1  0  0  0  0
 23 82  1  0  0  0  0
 24 26  2  0  0  0  0
 24 81  1  0  0  0  0
 25 83  1  0  0  0  0
 26 84  1  0  0  0  0
 27 64  2  0  0  0  0
 28 56  1  0  0  0  0
 28 65  2  0  0  0  0
 29 57  1  0  0  0  0
 29 66  1  0  0  0  0
 30 67  1  0  0  0  0
 30 70  1  0  0  0  0
 31 71  1  0  0  0  0
 31 76  2  0  0  0  0
 32 46  1  0  0  0  0
 32 72  1  0  0  0  0
 32 77  2  0  0  0  0
 33 60  1  0  0  0  0
 33 68  1  0  0  0  0
 33 78  2  0  0  0  0
 34 61  1  0  0  0  0
 34 73  1  0  0  0  0
 34 79  2  0  0  0  0
 35 69  1  0  0  0  0
 35 74  1  0  0  0  0
 35 80  2  0  0  0  0
 36 39  1  0  0  0  0
 37 46  1  0  0  0  0
 38 68  1  0  0  0  0
 39 41  1  0  0  0  0
 40 42  1  0  0  0  0
 40 43  1  0  0  0  0
 41 45  1  0  0  0  0
 42 47  1  0  0  0  0
 43 69  1  0  0  0  0
 44 47  1  0  0  0  0
 44 69  1  0  0  0  0
 45 72  1  0  0  0  0
 46 68  1  0  0  0  0
 47 67  1  0  0  0  0
 48 61  1  0  0  0  0
 49 62  1  0  0  0  0
 50 62  1  0  0  0  0
 51 63  1  0  0  0  0
 52 63  1  0  0  0  0
 53 63  1  0  0  0  0
 54 66  1  0  0  0  0
 55 75  1  0  0  0  0
 56 74  1  0  0  0  0
 57 58  1  0  0  0  0
 58 59  1  0  0  0  0
 59 82  1  0  0  0  0
 60 63  1  0  0  0  0
 60 73  1  0  0  0  0
 61 75  1  0  0  0  0
 62 74  1  0  0  0  0
 64 67  1  0  0  0  0
 65 66  1  0  0  0  0
M  CHG  1  75   1
M  ISO  4  35 100  59 101  74 100  82 101
M  END
> <Batch ID>
0056

> <Smiles>
CNC(C)C(=O)NC(C(=O)N1Cc2cc([101O:1][101CH2:1]CCc3cc(C[100N:0](C(C)C)[100C:0](=O)N4CCCC(n5nc(-c6ccc(Oc7ccc(F)cc7F)cc6)c(C(N)=O)c5N)C4)nn3C)ccc2CC1C(=O)NC1CCCc2ccccc21)C(C)(C)C

> <Shape>
0.265

> <Color>
0.052

> <Negative vol penalty>
0.000

$$$$

  -OEChem-04052317463D

 86 94  0     1  0  0  0  0  0999 V2000
  -31.0263  -24.8823   20.2910 C   0  0  0  0  0  0  0  0  0  0  0  0
  -29.7770  -24.9140   19.6798 C   0  0  0  0  0  0  0  0  0  0  0  0
  -25.1771  -15.9042   19.2697 C   0  0  0  0  0  0  0  0  0  0  0  0
  -23.8053  -14.9596   21.0198 C   0  0  0  0  0  0  0  0  0  0  0  0
  -31.1828  -25.3866   21.5814 C   0  0  0  0  0  0  0  0  0  0  0  0
  -28.6831  -25.4491   20.3592 C   0  0  0  0  0  0  0  0  0  0  0  0
  -22.6093  -29.0632   19.1916 C   0  0  0  0  0  0  0  0  0  0  0  0
  -25.8801  -14.7034   19.1726 C   0  0  0  0  0  0  0  0  0  0  0  0
  -24.5082  -13.7587   20.9227 C   0  0  0  0  0  0  0  0  0  0  0  0
  -21.2446  -28.9942   19.4687 C   0  0  0  0  0  0  0  0  0  0  0  0
  -28.2723  -12.0033   18.7137 C   0  0  0  0  0  0  0  0  0  0  0  0
  -29.6633  -12.0690   18.6338 C   0  0  0  0  0  0  0  0  0  0  0  0
  -21.6502  -29.9088   21.6637 C   0  0  0  0  0  0  0  0  0  0  0  0
  -29.7342  -13.1785   20.7788 C   0  0  0  0  0  0  0  0  0  0  0  0
  -18.3974  -24.8429   22.6188 C   0  0  0  0  0  0  0  0  0  0  0  0
  -24.1397  -16.0324   20.1934 C   0  0  0  0  0  0  0  0  0  0  0  0
  -22.2547  -17.6398   19.5845 C   0  0  0  0  0  0  0  0  0  0  0  0
  -30.0923  -25.9369   22.2732 C   0  0  0  0  0  0  0  0  0  0  0  0
  -23.5075  -29.5462   20.1541 C   0  0  0  0  0  0  0  0  0  0  0  0
  -28.8248  -25.9600   21.6606 C   0  0  0  0  0  0  0  0  0  0  0  0
  -23.0255  -29.9853   21.3954 C   0  0  0  0  0  0  0  0  0  0  0  0
  -25.5456  -13.6306   19.9990 C   0  0  0  0  0  0  0  0  0  0  0  0
  -20.7653  -29.4143   20.7059 C   0  0  0  0  0  0  0  0  0  0  0  0
  -27.6122  -12.5253   19.8262 C   0  0  0  0  0  0  0  0  0  0  0  0
  -30.3942  -12.6566   19.6663 C   0  0  0  0  0  0  0  0  0  0  0  0
  -28.3431  -13.1129   20.8587 C   0  0  0  0  0  0  0  0  0  0  0  0
  -23.4136  -17.2727   20.2946 C   0  0  0  0  0  0  0  0  0  0  0  0
  -18.7691  -26.1569   22.5727 C   0  0  0  0  0  0  0  0  0  0  0  0
  -21.9605  -18.9028   20.0368 C   0  0  0  0  0  0  0  0  0  0  0  0
  -20.6038  -24.9234   22.4581 C   0  0  0  0  0  0  0  0  0  0  0  0
  -21.5107  -16.9046   18.6039 C   0  0  0  0  0  0  0  0  0  0  0  0
  -25.9831  -28.3207   21.7267 C   0  0  0  0  0  0  0  0  0  0  0  0
  -21.3881  -22.4889   24.2914 C   0  0  0  0  0  0  0  0  0  0  0  0
  -26.3015  -31.3616   22.8103 C   0  0  0  0  0  0  0  0  0  0  0  0
  -24.8373  -34.3767   23.4522 C   0  0  0  0  0  0  0  0  0  0  0  0
  -30.3003  -26.4268   23.6844 C   0  0  0  0  0  0  0  0  0  0  0  0
  -24.9733  -29.6392   19.8299 C   0  0  0  0  0  0  0  0  0  0  0  0
  -23.9458  -30.5308   22.4556 C   0  0  0  0  0  0  0  0  0  0  0  0
  -29.1700  -27.3181   24.1926 C   0  0  0  0  0  0  0  0  0  0  0  0
  -24.6526  -22.1071   22.8641 C   0  0  0  0  0  0  0  0  0  0  0  0
  -27.8145  -26.6974   23.8699 C   0  0  0  0  0  0  0  0  0  0  0  0
  -24.5345  -20.8292   22.0346 C   0  0  0  0  0  0  0  0  0  0  0  0
  -23.8123  -22.0276   24.1348 C   0  0  0  0  0  0  0  0  0  0  0  0
  -22.2511  -20.4356   23.0625 C   0  0  0  0  0  0  0  0  0  0  0  0
  -27.6194  -26.5550   22.3556 C   0  0  1  0  0  0  0  0  0  0  0  0
  -25.8592  -29.6673   21.0716 C   0  0  1  0  0  0  0  0  0  0  0  0
  -23.0605  -20.4862   21.7546 C   0  0  2  0  0  0  0  0  0  0  0  0
  -22.8564  -25.5267   21.5370 C   0  0  0  0  0  0  0  0  0  0  0  0
  -25.3430  -36.6562   24.3718 C   0  0  0  0  0  0  0  0  0  0  0  0
  -26.2759  -30.2227   25.6409 C   0  0  0  0  0  0  0  0  0  0  0  0
  -25.8261  -32.5339   26.4919 C   0  0  0  0  0  0  0  0  0  0  0  0
  -27.9436  -32.0483   25.2659 C   0  0  0  0  0  0  0  0  0  0  0  0
  -24.1365  -35.6912   20.8948 C   0  0  0  0  0  0  0  0  0  0  0  0
  -17.4787  -20.6002   24.3870 C   0  0  0  0  0  0  0  0  0  0  0  0
  -16.6755  -22.4286   25.8745 C   0  0  0  0  0  0  0  0  0  0  0  0
  -17.9541  -27.4248   22.6130 C   0  0  0  0  0  0  0  0  0  0  0  0
  -22.0330  -24.5353   22.3603 C   0  0  0  0  0  0  0  0  0  0  0  0
  -17.5204  -27.9223   21.2325 C   0  0  0  0  0  0  0  0  0  0  0  0
  -19.6162  -22.6541   22.5609 C   0  0  0  0  0  0  0  0  0  0  0  0
  -19.0358  -22.4156   25.0812 C   0  0  0  0  0  0  0  0  0  0  0  0
  -18.6901  -28.3129   20.3366 C   0  0  0  0  0  0  0  0  0  1  0  0
  -19.9858  -22.0661   23.9324 C   0  0  2  0  0  0  0  0  0  0  0  0
  -25.7642  -32.1388   23.9877 C   0  0  1  0  0  0  0  0  0  0  0  0
  -25.2650  -35.7951   23.1207 C   0  0  2  0  0  0  0  0  0  0  0  0
  -26.4351  -31.7239   25.3275 C   0  0  0  0  0  0  0  0  0  0  0  0
  -23.8274  -18.2257   21.1340 N   0  0  0  0  0  0  0  0  0  0  0  0
  -19.5524  -24.1021   22.5456 N   0  0  0  0  0  0  0  0  0  0  0  0
  -22.9237  -19.2040   20.9542 N   0  0  0  0  0  0  0  0  0  0  0  0
  -20.1395  -26.1770   22.4736 N   0  3  0  0  0  0  0  0  0  0  0  0
  -25.3713  -30.5959   22.0932 N   0  0  0  0  0  0  0  0  0  0  0  0
  -22.4242  -21.6777   23.8284 N   0  0  0  0  0  0  0  0  0  0  0  0
  -20.9745  -19.7742   19.7351 N   0  0  0  0  0  0  0  0  0  0  0  0
  -21.9513  -15.6206   18.2552 N   0  0  0  0  0  0  0  0  0  0  0  0
  -27.2749  -27.8319   21.7680 N   0  0  0  0  0  0  0  0  0  0  0  0
  -25.9224  -33.5497   23.6520 N   0  0  0  0  0  0  0  0  0  0  0  0
  -24.2951  -36.4217   22.1786 N   0  3  0  0  0  0  0  0  0  0  0  0
  -17.6317  -22.0521   24.7693 N   0  3  0  0  0  0  0  0  0  0  0  0
  -20.4949  -17.3790   18.0411 O   0  0  0  0  0  0  0  0  0  0  0  0
  -24.9811  -27.7670   22.1638 O   0  0  0  0  0  0  0  0  0  0  0  0
  -21.5557  -23.5116   24.9609 O   0  0  0  0  0  0  0  0  0  0  0  0
  -27.5010  -31.4370   22.5326 O   0  0  0  0  0  0  0  0  0  0  0  0
  -23.6586  -34.0374   23.5300 O   0  0  0  0  0  0  0  0  0  0  0  0
  -26.2312  -12.4586   19.9044 O   0  0  0  0  0  0  0  0  0  0  0  0
  -19.4338  -29.3474   20.9792 O   0  0  0  0  0  0  0  0  0  1  0  0
  -31.7301  -12.7182   19.5901 F   0  0  0  0  0  0  0  0  0  0  0  0
  -27.7146  -13.6150   21.9304 F   0  0  0  0  0  0  0  0  0  0  0  0
  1  2  1  0  0  0  0
  1  5  2  0  0  0  0
  2  6  2  0  0  0  0
  3  8  2  0  0  0  0
  3 16  1  0  0  0  0
  4  9  1  0  0  0  0
  4 16  2  0  0  0  0
  5 18  1  0  0  0  0
  6 20  1  0  0  0  0
  7 10  2  0  0  0  0
  7 19  1  0  0  0  0
  8 22  1  0  0  0  0
  9 22  2  0  0  0  0
 10 23  1  0  0  0  0
 11 12  2  0  0  0  0
 11 24  1  0  0  0  0
 12 25  1  0  0  0  0
 13 21  1  0  0  0  0
 13 23  2  0  0  0  0
 14 25  2  0  0  0  0
 14 26  1  0  0  0  0
 15 28  2  0  0  0  0
 15 67  1  0  0  0  0
 16 27  1  0  0  0  0
 17 27  1  0  0  0  0
 17 29  2  0  0  0  0
 17 31  1  0  0  0  0
 18 20  2  0  0  0  0
 18 36  1  0  0  0  0
 19 21  2  0  0  0  0
 19 37  1  0  0  0  0
 20 45  1  0  0  0  0
 21 38  1  0  0  0  0
 22 83  1  0  0  0  0
 23 84  1  0  0  0  0
 24 26  2  0  0  0  0
 24 83  1  0  0  0  0
 25 85  1  0  0  0  0
 26 86  1  0  0  0  0
 27 66  2  0  0  0  0
 28 56  1  0  0  0  0
 28 69  1  0  0  0  0
 29 68  1  0  0  0  0
 29 72  1  0  0  0  0
 30 57  1  0  0  0  0
 30 67  1  0  0  0  0
 30 69  2  0  0  0  0
 31 73  1  0  0  0  0
 31 78  2  0  0  0  0
 32 46  1  0  0  0  0
 32 74  1  0  0  0  0
 32 79  2  0  0  0  0
 33 62  1  0  0  0  0
 33 71  1  0  0  0  0
 33 80  2  0  0  0  0
 34 63  1  0  0  0  0
 34 70  1  0  0  0  0
 34 81  2  0  0  0  0
 35 64  1  0  0  0  0
 35 75  1  0  0  0  0
 35 82  2  0  0  0  0
 36 39  1  0  0  0  0
 37 46  1  0  0  0  0
 38 70  1  0  0  0  0
 39 41  1  0  0  0  0
 40 42  1  0  0  0  0
 40 43  1  0  0  0  0
 41 45  1  0  0  0  0
 42 47  1  0  0  0  0
 43 71  1  0  0  0  0
 44 47  1  0  0  0  0
 44 71  1  0  0  0  0
 45 74  1  0  0  0  0
 46 70  1  0  0  0  0
 47 68  1  0  0  0  0
 48 57  1  0  0  0  0
 49 64  1  0  0  0  0
 50 65  1  0  0  0  0
 51 65  1  0  0  0  0
 52 65  1  0  0  0  0
 53 76  1  0  0  0  0
 54 77  1  0  0  0  0
 55 77  1  0  0  0  0
 56 58  1  0  0  0  0
 58 61  1  0  0  0  0
 59 62  1  0  0  0  0
 59 67  1  0  0  0  0
 60 62  1  0  0  0  0
 60 77  1  0  0  0  0
 61 84  1  0  0  0  0
 63 65  1  0  0  0  0
 63 75  1  0  0  0  0
 64 76  1  0  0  0  0
 66 68  1  0  0  0  0
M  CHG  3  69   1  76   1  77   1
M  ISO  4  33 100  61 101  62 100  84 101
M  END
> <Batch ID>
0056

> <Smiles>
CCc1nc(CC[101CH2:1][101O:1]c2ccc3c(c2)CN(C(=O)C(NC(=O)C(C)NC)C(C)(C)C)C(C(=O)NC2CCCc4ccccc42)C3)cn1C[100CH:0](CN(C)C)[100C:0](=O)N1CCCC(n2nc(-c3ccc(Oc4ccc(F)cc4F)cc3)c(C(N)=O)c2N)C1

> <Shape>
0.265

> <Color>
0.067

> <Negative vol penalty>
0.000

$$$$

  -OEChem-04052317463D

 84 92  0     1  0  0  0  0  0999 V2000
  -25.3874  -31.3939   16.0143 C   0  0  0  0  0  0  0  0  0  0  0  0
  -25.6798  -30.0388   15.8978 C   0  0  0  0  0  0  0  0  0  0  0  0
  -23.1579   -9.7145   20.0226 C   0  0  0  0  0  0  0  0  0  0  0  0
  -23.8745   -9.8908   22.3231 C   0  0  0  0  0  0  0  0  0  0  0  0
  -25.9362  -32.1371   17.0585 C   0  0  0  0  0  0  0  0  0  0  0  0
  -26.5223  -29.4263   16.8250 C   0  0  0  0  0  0  0  0  0  0  0  0
  -24.7469  -24.9550   18.4063 C   0  0  0  0  0  0  0  0  0  0  0  0
  -22.4594   -8.5469   20.3296 C   0  0  0  0  0  0  0  0  0  0  0  0
  -23.1760   -8.7231   22.6302 C   0  0  0  0  0  0  0  0  0  0  0  0
  -24.9095  -23.8666   17.5504 C   0  0  0  0  0  0  0  0  0  0  0  0
  -19.9742   -7.8222   23.2285 C   0  0  0  0  0  0  0  0  0  0  0  0
  -19.1983   -7.8188   24.3875 C   0  0  0  0  0  0  0  0  0  0  0  0
  -26.8182  -23.1469   18.8380 C   0  0  0  0  0  0  0  0  0  0  0  0
  -20.5075   -5.9846   25.2586 C   0  0  0  0  0  0  0  0  0  0  0  0
  -27.6397  -18.1809   20.2428 C   0  0  0  0  0  0  0  0  0  0  0  0
  -29.5196  -17.3074   19.5092 C   0  0  0  0  0  0  0  0  0  0  0  0
  -23.8655  -10.3865   21.0194 C   0  0  0  0  0  0  0  0  0  0  0  0
  -24.1014  -12.9126   20.7532 C   0  0  0  0  0  0  0  0  0  0  0  0
  -26.7781  -31.5313   18.0044 C   0  0  0  0  0  0  0  0  0  0  0  0
  -25.6268  -25.1539   19.4799 C   0  0  0  0  0  0  0  0  0  0  0  0
  -27.0840  -30.1624   17.8820 C   0  0  0  0  0  0  0  0  0  0  0  0
  -26.6630  -24.2372   19.7076 C   0  0  0  0  0  0  0  0  0  0  0  0
  -28.5230  -18.1803   19.1467 C   0  0  0  0  0  0  0  0  0  0  0  0
  -22.4684   -8.0512   21.6334 C   0  0  0  0  0  0  0  0  0  0  0  0
  -25.9470  -22.9639   17.7644 C   0  0  0  0  0  0  0  0  0  0  0  0
  -21.0168   -6.9068   23.0844 C   0  0  0  0  0  0  0  0  0  0  0  0
  -19.4649   -6.9001   25.4026 C   0  0  0  0  0  0  0  0  0  0  0  0
  -21.2834   -5.9880   24.0995 C   0  0  0  0  0  0  0  0  0  0  0  0
  -24.5877  -11.5924   20.7027 C   0  0  0  0  0  0  0  0  0  0  0  0
  -25.1671  -13.6862   20.3629 C   0  0  0  0  0  0  0  0  0  0  0  0
  -22.8026  -13.3964   21.1203 C   0  0  0  0  0  0  0  0  0  0  0  0
  -27.6784  -27.4372   20.3053 C   0  0  0  0  0  0  0  0  0  0  0  0
  -30.6199  -14.8936   20.6774 C   0  0  0  0  0  0  0  0  0  0  0  0
  -27.9576  -25.6681   23.0099 C   0  0  0  0  0  0  0  0  0  0  0  0
  -27.6598  -22.6244   24.5246 C   0  0  0  0  0  0  0  0  0  0  0  0
  -27.3855  -32.3860   19.0885 C   0  0  0  0  0  0  0  0  0  0  0  0
  -25.4217  -26.3182   20.4099 C   0  0  0  0  0  0  0  0  0  0  0  0
  -27.6225  -24.3945   20.8579 C   0  0  0  0  0  0  0  0  0  0  0  0
  -27.9692  -31.5788   20.2453 C   0  0  0  0  0  0  0  0  0  0  0  0
  -29.6001  -12.4044   18.3101 C   0  0  0  0  0  0  0  0  0  0  0  0
  -28.8182  -30.4267   19.7174 C   0  0  0  0  0  0  0  0  0  0  0  0
  -28.1764  -12.0581   18.7442 C   0  0  0  0  0  0  0  0  0  0  0  0
  -30.4889  -12.7179   19.5096 C   0  0  0  0  0  0  0  0  0  0  0  0
  -28.5306  -13.4506   20.8323 C   0  0  0  0  0  0  0  0  0  0  0  0
  -27.9737  -29.4567   18.8823 C   0  0  1  0  0  0  0  0  0  0  0  0
  -26.6872  -26.7079   21.1675 C   0  0  1  0  0  0  0  0  0  0  0  0
  -27.5916  -13.1571   19.6489 C   0  0  2  0  0  0  0  0  0  0  0  0
  -30.9540  -16.5958   22.4567 C   0  0  0  0  0  0  0  0  0  0  0  0
  -27.9961  -21.4820   26.7335 C   0  0  0  0  0  0  0  0  0  0  0  0
  -30.9730  -25.6601   22.5440 C   0  0  0  0  0  0  0  0  0  0  0  0
  -31.1499  -23.7694   24.1756 C   0  0  0  0  0  0  0  0  0  0  0  0
  -30.2864  -25.9859   24.9266 C   0  0  0  0  0  0  0  0  0  0  0  0
  -24.7966  -21.9007   24.7176 C   0  0  0  0  0  0  0  0  0  0  0  0
  -24.1196  -18.9025   18.0566 C   0  0  0  0  0  0  0  0  0  0  0  0
  -28.4031  -18.9595   17.8613 C   0  0  0  0  0  0  0  0  0  0  0  0
  -27.6351  -18.2214   16.7569 C   0  0  0  0  0  0  0  0  0  0  0  0
  -26.1774  -17.9021   17.0742 C   0  0  0  0  0  0  0  0  0  0  0  0
  -25.1369  -19.9009   16.0145 C   0  0  0  0  0  0  0  0  0  0  0  0
  -24.9332  -21.3723   16.3170 C   0  0  0  0  0  0  0  0  0  1  0  0
  -29.9327  -15.9135   21.5500 C   0  0  1  0  0  0  0  0  0  0  0  0
  -28.8395  -24.5263   23.4543 C   0  0  1  0  0  0  0  0  0  0  0  0
  -27.0103  -22.2094   25.8324 C   0  0  2  0  0  0  0  0  0  0  0  0
  -30.2955  -24.9832   23.7522 C   0  0  0  0  0  0  0  0  0  0  0  0
  -28.0397  -17.3723   21.2278 N   0  0  0  0  0  0  0  0  0  0  0  0
  -25.8629  -11.5273   20.3110 N   0  0  0  0  0  0  0  0  0  0  0  0
  -29.1854  -16.8555   20.7519 N   0  0  0  0  0  0  0  0  0  0  0  0
  -26.1870  -12.8162   20.1117 N   0  0  0  0  0  0  0  0  0  0  0  0
  -27.3844  -25.5523   21.7356 N   0  0  0  0  0  0  0  0  0  0  0  0
  -29.8880  -13.7503   20.3559 N   0  0  0  0  0  0  0  0  0  0  0  0
  -25.3218  -15.0189   20.2133 N   0  0  0  0  0  0  0  0  0  0  0  0
  -21.8244  -12.4655   21.4955 N   0  0  0  0  0  0  0  0  0  0  0  0
  -27.1872  -28.6004   19.7441 N   0  0  0  0  0  0  0  0  0  0  0  0
  -28.1638  -23.9062   24.5889 N   0  0  0  0  0  0  0  0  0  0  0  0
  -25.8550  -21.3045   25.5728 N   0  3  0  0  0  0  0  0  0  0  0  0
  -25.3866  -19.1699   17.2825 N   0  3  1  0  0  0  0  0  0  0  0  0
  -22.5130  -14.6167   21.0998 O   0  0  0  0  0  0  0  0  0  0  0  0
  -28.8059  -26.9792   20.1613 O   0  0  0  0  0  0  0  0  0  0  0  0
  -31.7717  -15.1096   20.2915 O   0  0  0  0  0  0  0  0  0  0  0  0
  -27.7780  -26.6241   23.7685 O   0  0  0  0  0  0  0  0  0  0  0  0
  -27.7177  -21.8841   23.5453 O   0  0  0  0  0  0  0  0  0  0  0  0
  -21.7867   -6.9119   21.9334 O   0  0  0  0  0  0  0  0  0  0  0  0
  -26.1084  -21.9010   16.9301 O   0  0  0  0  0  0  0  0  0  1  0  0
  -18.7206   -6.8979   26.5163 F   0  0  0  0  0  0  0  0  0  0  0  0
  -22.2844   -5.1068   23.9673 F   0  0  0  0  0  0  0  0  0  0  0  0
  1  2  1  0  0  0  0
  1  5  2  0  0  0  0
  2  6  2  0  0  0  0
  3  8  2  0  0  0  0
  3 17  1  0  0  0  0
  4  9  1  0  0  0  0
  4 17  2  0  0  0  0
  5 19  1  0  0  0  0
  6 21  1  0  0  0  0
  7 10  2  0  0  0  0
  7 20  1  0  0  0  0
  8 24  1  0  0  0  0
  9 24  2  0  0  0  0
 10 25  1  0  0  0  0
 11 12  2  0  0  0  0
 11 26  1  0  0  0  0
 12 27  1  0  0  0  0
 13 22  1  0  0  0  0
 13 25  2  0  0  0  0
 14 27  2  0  0  0  0
 14 28  1  0  0  0  0
 15 23  1  0  0  0  0
 15 64  2  0  0  0  0
 16 23  2  0  0  0  0
 16 66  1  0  0  0  0
 17 29  1  0  0  0  0
 18 29  1  0  0  0  0
 18 30  2  0  0  0  0
 18 31  1  0  0  0  0
 19 21  2  0  0  0  0
 19 36  1  0  0  0  0
 20 22  2  0  0  0  0
 20 37  1  0  0  0  0
 21 45  1  0  0  0  0
 22 38  1  0  0  0  0
 23 55  1  0  0  0  0
 24 81  1  0  0  0  0
 25 82  1  0  0  0  0
 26 28  2  0  0  0  0
 26 81  1  0  0  0  0
 27 83  1  0  0  0  0
 28 84  1  0  0  0  0
 29 65  2  0  0  0  0
 30 67  1  0  0  0  0
 30 70  1  0  0  0  0
 31 71  1  0  0  0  0
 31 76  2  0  0  0  0
 32 46  1  0  0  0  0
 32 72  1  0  0  0  0
 32 77  2  0  0  0  0
 33 60  1  0  0  0  0
 33 69  1  0  0  0  0
 33 78  2  0  0  0  0
 34 61  1  0  0  0  0
 34 68  1  0  0  0  0
 34 79  2  0  0  0  0
 35 62  1  0  0  0  0
 35 73  1  0  0  0  0
 35 80  2  0  0  0  0
 36 39  1  0  0  0  0
 37 46  1  0  0  0  0
 38 68  1  0  0  0  0
 39 41  1  0  0  0  0
 40 42  1  0  0  0  0
 40 43  1  0  0  0  0
 41 45  1  0  0  0  0
 42 47  1  0  0  0  0
 43 69  1  0  0  0  0
 44 47  1  0  0  0  0
 44 69  1  0  0  0  0
 45 72  1  0  0  0  0
 46 68  1  0  0  0  0
 47 67  1  0  0  0  0
 48 60  1  0  0  0  0
 49 62  1  0  0  0  0
 50 63  1  0  0  0  0
 51 63  1  0  0  0  0
 52 63  1  0  0  0  0
 53 74  1  0  0  0  0
 54 75  1  0  0  0  0
 55 56  1  0  0  0  0
 56 57  1  0  0  0  0
 57 75  1  0  0  0  0
 58 59  1  0  0  0  0
 58 75  1  0  0  0  0
 59 82  1  0  0  0  0
 60 66  1  0  0  0  0
 61 63  1  0  0  0  0
 61 73  1  0  0  0  0
 62 74  1  0  0  0  0
 64 66  1  0  0  0  0
 65 67  1  0  0  0  0
M  CHG  2  74   1  75   1
M  ISO  4  33 100  59 101  60 100  82 101
M  END
> <Batch ID>
0056

> <Smiles>
CNC(C)C(=O)NC(C(=O)N1Cc2cc([101O:1][101CH2:1]CN(C)CCCc3cnn([100CH:0](C)[100C:0](=O)N4CCCC(n5nc(-c6ccc(Oc7ccc(F)cc7F)cc6)c(C(N)=O)c5N)C4)c3)ccc2CC1C(=O)NC1CCCc2ccccc21)C(C)(C)C

> <Shape>
0.227

> <Color>
0.203

> <Negative vol penalty>
0.000

$$$$

  -OEChem-04052317463D

 84 92  0     1  0  0  0  0  0999 V2000
  -18.2718  -29.3421   26.0066 C   0  0  0  0  0  0  0  0  0  0  0  0
  -19.6597  -29.2812   26.0808 C   0  0  0  0  0  0  0  0  0  0  0  0
  -25.6977  -12.3739   21.2135 C   0  0  0  0  0  0  0  0  0  0  0  0
  -24.5637  -12.7835   19.1199 C   0  0  0  0  0  0  0  0  0  0  0  0
  -17.6106  -28.8187   24.8962 C   0  0  0  0  0  0  0  0  0  0  0  0
  -20.3871  -28.6959   25.0451 C   0  0  0  0  0  0  0  0  0  0  0  0
  -26.6582  -29.2404   21.6256 C   0  0  0  0  0  0  0  0  0  0  0  0
  -25.2309  -11.0596   21.2093 C   0  0  0  0  0  0  0  0  0  0  0  0
  -24.0968  -11.4691   19.1156 C   0  0  0  0  0  0  0  0  0  0  0  0
  -27.7491  -28.4599   21.2456 C   0  0  0  0  0  0  0  0  0  0  0  0
  -24.0399   -7.7001   21.9300 C   0  0  0  0  0  0  0  0  0  0  0  0
  -23.5199   -7.1912   23.1200 C   0  0  0  0  0  0  0  0  0  0  0  0
  -26.5051  -27.6598   19.3400 C   0  0  0  0  0  0  0  0  0  0  0  0
  -21.8359   -8.9236   23.1251 C   0  0  0  0  0  0  0  0  0  0  0  0
  -28.3325  -22.5289   18.5968 C   0  0  0  0  0  0  0  0  0  0  0  0
  -25.3641  -13.2360   20.1688 C   0  0  0  0  0  0  0  0  0  0  0  0
  -27.0468  -15.0718   19.6156 C   0  0  0  0  0  0  0  0  0  0  0  0
  -18.3310  -28.2354   23.8420 C   0  0  0  0  0  0  0  0  0  0  0  0
  -25.4767  -29.2281   20.8705 C   0  0  0  0  0  0  0  0  0  0  0  0
  -19.7349  -28.1630   23.9203 C   0  0  0  0  0  0  0  0  0  0  0  0
  -25.4015  -28.4430   19.7111 C   0  0  0  0  0  0  0  0  0  0  0  0
  -27.4240  -22.1100   19.5474 C   0  0  0  0  0  0  0  0  0  0  0  0
  -24.4304  -10.6071   20.1603 C   0  0  0  0  0  0  0  0  0  0  0  0
  -27.6717  -27.6671   20.1042 C   0  0  0  0  0  0  0  0  0  0  0  0
  -23.4580   -8.8209   21.3376 C   0  0  0  0  0  0  0  0  0  0  0  0
  -22.4179   -7.8029   23.7176 C   0  0  0  0  0  0  0  0  0  0  0  0
  -22.3560   -9.4326   21.9351 C   0  0  0  0  0  0  0  0  0  0  0  0
  -25.8456  -14.5940   20.1730 C   0  0  0  0  0  0  0  0  0  0  0  0
  -27.5130  -22.7349   20.7745 C   0  0  0  0  0  0  0  0  0  0  0  0
  -27.0375  -16.4189   19.8832 C   0  0  0  0  0  0  0  0  0  0  0  0
  -29.2457  -24.0169   20.0525 C   0  0  0  0  0  0  0  0  0  0  0  0
  -28.0786  -14.3613   18.9182 C   0  0  0  0  0  0  0  0  0  0  0  0
  -22.4609  -28.3990   21.4371 C   0  0  0  0  0  0  0  0  0  0  0  0
  -21.9787  -29.6117   18.4674 C   0  0  0  0  0  0  0  0  0  0  0  0
  -23.2809  -30.3979   15.4124 C   0  0  0  0  0  0  0  0  0  0  0  0
  -23.9556  -21.1945   19.7727 C   0  0  0  0  0  0  0  0  0  0  0  0
  -17.5693  -27.6407   22.6840 C   0  0  0  0  0  0  0  0  0  0  0  0
  -24.3183  -30.0963   21.2789 C   0  0  0  0  0  0  0  0  0  0  0  0
  -24.1631  -28.4100   18.8547 C   0  0  0  0  0  0  0  0  0  0  0  0
  -18.4373  -27.3735   21.4570 C   0  0  0  0  0  0  0  0  0  0  0  0
  -24.0507  -19.1788   22.8759 C   0  0  0  0  0  0  0  0  0  0  0  0
  -19.7333  -26.6779   21.8611 C   0  0  0  0  0  0  0  0  0  0  0  0
  -24.5586  -17.8263   22.3791 C   0  0  0  0  0  0  0  0  0  0  0  0
  -23.2925  -19.9342   21.7886 C   0  0  0  0  0  0  0  0  0  0  0  0
  -24.5707  -18.7556   20.0303 C   0  0  0  0  0  0  0  0  0  0  0  0
  -20.5606  -27.5582   22.8056 C   0  0  1  0  0  0  0  0  0  0  0  0
  -22.9833  -29.6125   20.7214 C   0  0  1  0  0  0  0  0  0  0  0  0
  -25.3792  -17.9891   21.0879 C   0  0  2  0  0  0  0  0  0  0  0  0
  -26.5807  -22.3630   21.8800 C   0  0  0  0  0  0  0  0  0  0  0  0
  -22.6336  -31.3402   13.1785 C   0  0  0  0  0  0  0  0  0  0  0  0
  -31.2081  -25.4275   19.1370 C   0  0  0  0  0  0  0  0  0  0  0  0
  -31.2070  -24.6424   21.4952 C   0  0  0  0  0  0  0  0  0  0  0  0
  -20.6520  -26.9629   17.7373 C   0  0  0  0  0  0  0  0  0  0  0  0
  -20.8914  -27.5879   15.3247 C   0  0  0  0  0  0  0  0  0  0  0  0
  -19.4944  -28.9910   16.8422 C   0  0  0  0  0  0  0  0  0  0  0  0
  -25.0088  -22.7920   18.2177 C   0  0  0  0  0  0  0  0  0  0  0  0
  -25.1524  -32.6725   15.6997 C   0  0  0  0  0  0  0  0  0  0  0  0
  -26.4260  -21.0530   19.2440 C   0  0  0  0  0  0  0  0  0  0  0  0
  -29.5870  -26.4251   20.7710 C   0  0  0  0  0  0  0  0  0  1  0  0
  -22.0121  -29.0522   17.0657 C   0  0  1  0  0  0  0  0  0  0  0  0
  -23.1747  -31.6529   14.5649 C   0  0  2  0  0  0  0  0  0  0  0  0
  -30.2900  -25.1113   20.3422 C   0  0  0  0  0  0  0  0  0  0  0  0
  -20.7853  -28.1474   16.7595 C   0  0  0  0  0  0  0  0  0  0  0  0
  -29.2604  -23.4835   18.8161 N   0  0  0  0  0  0  0  0  0  0  0  0
  -25.1257  -15.5591   20.7511 N   0  0  0  0  0  0  0  0  0  0  0  0
  -28.4151  -23.6959   21.0628 N   0  0  0  0  0  0  0  0  0  0  0  0
  -25.8768  -16.6568   20.5586 N   0  0  0  0  0  0  0  0  0  0  0  0
  -23.0550  -29.2715   19.2991 N   0  0  0  0  0  0  0  0  0  0  0  0
  -24.0783  -20.0367   20.5584 N   0  0  0  0  0  0  0  0  0  0  0  0
  -27.9092  -17.4113   19.6043 N   0  0  0  0  0  0  0  0  0  0  0  0
  -27.9291  -12.9806   18.7299 N   0  0  0  0  0  0  0  0  0  0  0  0
  -21.2439  -28.5946   22.0616 N   0  0  0  0  0  0  0  0  0  0  0  0
  -22.1478  -30.1974   16.1722 N   0  0  0  0  0  0  0  0  0  0  0  0
  -25.0832  -21.5916   19.0383 N   0  0  0  0  0  0  0  0  0  0  0  0
  -24.5131  -32.2909   14.4142 N   0  3  0  0  0  0  0  0  0  0  0  0
  -29.1106  -14.9312   18.4895 O   0  0  0  0  0  0  0  0  0  0  0  0
  -23.1130  -27.3616   21.4225 O   0  0  0  0  0  0  0  0  0  0  0  0
  -21.0362  -30.3303   18.8095 O   0  0  0  0  0  0  0  0  0  0  0  0
  -24.2685  -29.6666   15.3988 O   0  0  0  0  0  0  0  0  0  0  0  0
  -22.9013  -21.8419   19.7376 O   0  0  0  0  0  0  0  0  0  0  0  0
  -23.9749   -9.3245   20.1557 O   0  0  0  0  0  0  0  0  0  0  0  0
  -28.7348  -26.9038   19.7314 O   0  0  0  0  0  0  0  0  0  1  0  0
  -21.9177   -7.3130   24.8595 F   0  0  0  0  0  0  0  0  0  0  0  0
  -21.7919  -10.5088   21.3701 F   0  0  0  0  0  0  0  0  0  0  0  0
  1  2  1  0  0  0  0
  1  5  2  0  0  0  0
  2  6  2  0  0  0  0
  3  8  2  0  0  0  0
  3 16  1  0  0  0  0
  4  9  1  0  0  0  0
  4 16  2  0  0  0  0
  5 18  1  0  0  0  0
  6 20  1  0  0  0  0
  7 10  2  0  0  0  0
  7 19  1  0  0  0  0
  8 23  1  0  0  0  0
  9 23  2  0  0  0  0
 10 24  1  0  0  0  0
 11 12  2  0  0  0  0
 11 25  1  0  0  0  0
 12 26  1  0  0  0  0
 13 21  1  0  0  0  0
 13 24  2  0  0  0  0
 14 26  2  0  0  0  0
 14 27  1  0  0  0  0
 15 22  1  0  0  0  0
 15 64  2  0  0  0  0
 16 28  1  0  0  0  0
 17 28  1  0  0  0  0
 17 30  2  0  0  0  0
 17 32  1  0  0  0  0
 18 20  2  0  0  0  0
 18 37  1  0  0  0  0
 19 21  2  0  0  0  0
 19 38  1  0  0  0  0
 20 46  1  0  0  0  0
 21 39  1  0  0  0  0
 22 29  2  0  0  0  0
 22 58  1  0  0  0  0
 23 81  1  0  0  0  0
 24 82  1  0  0  0  0
 25 27  2  0  0  0  0
 25 81  1  0  0  0  0
 26 83  1  0  0  0  0
 27 84  1  0  0  0  0
 28 65  2  0  0  0  0
 29 49  1  0  0  0  0
 29 66  1  0  0  0  0
 30 67  1  0  0  0  0
 30 70  1  0  0  0  0
 31 62  1  0  0  0  0
 31 64  1  0  0  0  0
 31 66  2  0  0  0  0
 32 71  1  0  0  0  0
 32 76  2  0  0  0  0
 33 47  1  0  0  0  0
 33 72  1  0  0  0  0
 33 77  2  0  0  0  0
 34 60  1  0  0  0  0
 34 68  1  0  0  0  0
 34 78  2  0  0  0  0
 35 61  1  0  0  0  0
 35 73  1  0  0  0  0
 35 79  2  0  0  0  0
 36 69  1  0  0  0  0
 36 74  1  0  0  0  0
 36 80  2  0  0  0  0
 37 40  1  0  0  0  0
 38 47  1  0  0  0  0
 39 68  1  0  0  0  0
 40 42  1  0  0  0  0
 41 43  1  0  0  0  0
 41 44  1  0  0  0  0
 42 46  1  0  0  0  0
 43 48  1  0  0  0  0
 44 69  1  0  0  0  0
 45 48  1  0  0  0  0
 45 69  1  0  0  0  0
 46 72  1  0  0  0  0
 47 68  1  0  0  0  0
 48 67  1  0  0  0  0
 50 61  1  0  0  0  0
 51 62  1  0  0  0  0
 52 62  1  0  0  0  0
 53 63  1  0  0  0  0
 54 63  1  0  0  0  0
 55 63  1  0  0  0  0
 56 74  1  0  0  0  0
 57 75  1  0  0  0  0
 58 74  1  0  0  0  0
 59 62  1  0  0  0  0
 59 82  1  0  0  0  0
 60 63  1  0  0  0  0
 60 73  1  0  0  0  0
 61 75  1  0  0  0  0
 65 67  1  0  0  0  0
M  CHG  1  75   1
M  ISO  4  36 100  59 101  74 100  82 101
M  END
> <Batch ID>
0056

> <Smiles>
CNC(C)C(=O)NC(C(=O)N1Cc2cc([101O:1][101CH2:1]C(C)(C)c3ncc(C[100N:0](C)[100C:0](=O)N4CCCC(n5nc(-c6ccc(Oc7ccc(F)cc7F)cc6)c(C(N)=O)c5N)C4)c(C)n3)ccc2CC1C(=O)NC1CCCc2ccccc21)C(C)(C)C

> <Shape>
0.251

> <Color>
0.097

> <Negative vol penalty>
0.000

$$$$

  -OEChem-04052317463D

 82 90  0     1  0  0  0  0  0999 V2000
  -28.0124  -25.4824   31.3641 C   0  0  0  0  0  0  0  0  0  0  0  0
  -27.7682  -24.7751   30.1913 C   0  0  0  0  0  0  0  0  0  0  0  0
  -23.1192   -9.8783   19.9462 C   0  0  0  0  0  0  0  0  0  0  0  0
  -23.9105   -9.8961   22.2289 C   0  0  0  0  0  0  0  0  0  0  0  0
  -27.4727  -26.7567   31.5336 C   0  0  0  0  0  0  0  0  0  0  0  0
  -26.9831  -25.3414   29.1876 C   0  0  0  0  0  0  0  0  0  0  0  0
  -28.9835  -24.7253   24.5763 C   0  0  0  0  0  0  0  0  0  0  0  0
  -22.4025   -8.7097   20.2037 C   0  0  0  0  0  0  0  0  0  0  0  0
  -23.1938   -8.7275   22.4864 C   0  0  0  0  0  0  0  0  0  0  0  0
  -28.8327  -23.4748   23.9787 C   0  0  0  0  0  0  0  0  0  0  0  0
  -19.9912   -7.8629   23.1317 C   0  0  0  0  0  0  0  0  0  0  0  0
  -19.2515   -7.8051   24.3128 C   0  0  0  0  0  0  0  0  0  0  0  0
  -26.9996  -24.3305   22.6646 C   0  0  0  0  0  0  0  0  0  0  0  0
  -20.5422   -5.8919   25.0275 C   0  0  0  0  0  0  0  0  0  0  0  0
  -25.7623  -19.4879   21.2385 C   0  0  0  0  0  0  0  0  0  0  0  0
  -23.8733  -10.4715   20.9588 C   0  0  0  0  0  0  0  0  0  0  0  0
  -24.1619  -13.0033   20.8399 C   0  0  0  0  0  0  0  0  0  0  0  0
  -26.6885  -27.3427   30.5275 C   0  0  0  0  0  0  0  0  0  0  0  0
  -28.1350  -25.7867   24.2299 C   0  0  0  0  0  0  0  0  0  0  0  0
  -26.4312  -26.6242   29.3443 C   0  0  0  0  0  0  0  0  0  0  0  0
  -27.1434  -25.5942   23.2574 C   0  0  0  0  0  0  0  0  0  0  0  0
  -22.4397   -8.1344   21.4738 C   0  0  0  0  0  0  0  0  0  0  0  0
  -27.8388  -23.2764   23.0248 C   0  0  0  0  0  0  0  0  0  0  0  0
  -21.0063   -6.9351   22.8984 C   0  0  0  0  0  0  0  0  0  0  0  0
  -19.5270   -6.8197   25.2607 C   0  0  0  0  0  0  0  0  0  0  0  0
  -21.2818   -5.9496   23.8463 C   0  0  0  0  0  0  0  0  0  0  0  0
  -24.6143  -11.6783   20.6932 C   0  0  0  0  0  0  0  0  0  0  0  0
  -26.6275  -20.5104   20.9684 C   0  0  0  0  0  0  0  0  0  0  0  0
  -25.2335  -13.7757   20.4633 C   0  0  0  0  0  0  0  0  0  0  0  0
  -27.2883  -18.7355   19.8223 C   0  0  0  0  0  0  0  0  0  0  0  0
  -22.8871  -13.4923   21.2775 C   0  0  0  0  0  0  0  0  0  0  0  0
  -26.0276  -27.5772   25.7973 C   0  0  0  0  0  0  0  0  0  0  0  0
  -25.9121  -29.2057   22.9942 C   0  0  0  0  0  0  0  0  0  0  0  0
  -26.3797  -29.1912   19.6137 C   0  0  0  0  0  0  0  0  0  0  0  0
  -30.8318  -14.6013   21.0054 C   0  0  0  0  0  0  0  0  0  0  0  0
  -26.0874  -28.7035   30.7758 C   0  0  0  0  0  0  0  0  0  0  0  0
  -28.3279  -27.1368   24.8642 C   0  0  0  0  0  0  0  0  0  0  0  0
  -26.2198  -26.7066   22.8356 C   0  0  0  0  0  0  0  0  0  0  0  0
  -25.5762  -29.3840   29.5086 C   0  0  0  0  0  0  0  0  0  0  0  0
  -29.5748  -12.5365   18.2022 C   0  0  0  0  0  0  0  0  0  0  0  0
  -24.7540  -28.4080   28.6730 C   0  0  0  0  0  0  0  0  0  0  0  0
  -28.1592  -12.1847   18.6563 C   0  0  0  0  0  0  0  0  0  0  0  0
  -30.5093  -12.7670   19.3859 C   0  0  0  0  0  0  0  0  0  0  0  0
  -28.5993  -13.4308   20.8090 C   0  0  0  0  0  0  0  0  0  0  0  0
  -25.6051  -27.2146   28.2223 C   0  0  1  0  0  0  0  0  0  0  0  0
  -27.0759  -28.0068   24.8102 C   0  0  1  0  0  0  0  0  0  0  0  0
  -27.6211  -13.2379   19.6405 C   0  0  2  0  0  0  0  0  0  0  0  0
  -26.1656  -30.6584   17.5891 C   0  0  0  0  0  0  0  0  0  0  0  0
  -22.8847  -28.8289   23.0443 C   0  0  0  0  0  0  0  0  0  0  0  0
  -22.8381  -29.4424   20.6175 C   0  0  0  0  0  0  0  0  0  0  0  0
  -23.6418  -31.0948   22.3046 C   0  0  0  0  0  0  0  0  0  0  0  0
  -28.6751  -20.7621   19.5334 C   0  0  0  0  0  0  0  0  0  0  0  0
  -31.2200  -16.8039   22.0434 C   0  0  0  0  0  0  0  0  0  0  0  0
  -29.2736  -28.9982   19.0246 C   0  0  0  0  0  0  0  0  0  0  0  0
  -26.6502  -21.9239   21.4711 C   0  0  0  0  0  0  0  0  0  1  0  0
  -28.0469  -17.8310   18.9230 C   0  0  0  0  0  0  0  0  0  0  0  0
  -29.3349  -17.2408   19.5381 C   0  0  0  0  0  0  0  0  0  0  0  0
  -29.1076  -16.4441   20.8211 C   0  0  0  0  0  0  0  0  0  0  0  0
  -25.0909  -29.1038   21.7316 C   0  0  1  0  0  0  0  0  0  0  0  0
  -27.0904  -30.1648   18.6909 C   0  0  2  0  0  0  0  0  0  0  0  0
  -23.6299  -29.5958   21.9336 C   0  0  0  0  0  0  0  0  0  0  0  0
  -25.8749  -11.6091   20.2572 N   0  0  0  0  0  0  0  0  0  0  0  0
  -27.5616  -20.0166   20.0900 N   0  0  0  0  0  0  0  0  0  0  0  0
  -26.2238  -12.9004   20.1267 N   0  0  0  0  0  0  0  0  0  0  0  0
  -26.1950  -18.4023   20.5158 N   0  3  0  0  0  0  0  0  0  0  0  0
  -26.4441  -28.0066   23.4892 N   0  0  0  0  0  0  0  0  0  0  0  0
  -29.9538  -13.7400   20.3271 N   0  0  0  0  0  0  0  0  0  0  0  0
  -25.4157  -15.1113   20.3905 N   0  0  0  0  0  0  0  0  0  0  0  0
  -21.8987  -12.5620   21.6266 N   0  0  0  0  0  0  0  0  0  0  0  0
  -26.4537  -27.5899   27.1117 N   0  0  0  0  0  0  0  0  0  0  0  0
  -25.8295  -29.8304   20.7045 N   0  0  0  0  0  0  0  0  0  0  0  0
  -30.3437  -15.8710   21.3494 N   0  0  0  0  0  0  0  0  0  0  0  0
  -28.2697  -29.5106   18.0568 N   0  3  0  0  0  0  0  0  0  0  0  0
  -22.6267  -14.7177   21.3409 O   0  0  0  0  0  0  0  0  0  0  0  0
  -24.9142  -27.2594   25.3962 O   0  0  0  0  0  0  0  0  0  0  0  0
  -26.0816  -30.3097   23.5180 O   0  0  0  0  0  0  0  0  0  0  0  0
  -26.3158  -27.9849   19.3875 O   0  0  0  0  0  0  0  0  0  0  0  0
  -31.9893  -14.2586   21.2790 O   0  0  0  0  0  0  0  0  0  0  0  0
  -21.7403   -6.9942   21.7256 O   0  0  0  0  0  0  0  0  0  0  0  0
  -27.6890  -22.0566   22.4405 O   0  0  0  0  0  0  0  0  0  1  0  0
  -18.8176   -6.7653   26.3957 F   0  0  0  0  0  0  0  0  0  0  0  0
  -22.2566   -5.0563   23.6283 F   0  0  0  0  0  0  0  0  0  0  0  0
  1  2  1  0  0  0  0
  1  5  2  0  0  0  0
  2  6  2  0  0  0  0
  3  8  2  0  0  0  0
  3 16  1  0  0  0  0
  4  9  1  0  0  0  0
  4 16  2  0  0  0  0
  5 18  1  0  0  0  0
  6 20  1  0  0  0  0
  7 10  2  0  0  0  0
  7 19  1  0  0  0  0
  8 22  1  0  0  0  0
  9 22  2  0  0  0  0
 10 23  1  0  0  0  0
 11 12  2  0  0  0  0
 11 24  1  0  0  0  0
 12 25  1  0  0  0  0
 13 21  1  0  0  0  0
 13 23  2  0  0  0  0
 14 25  2  0  0  0  0
 14 26  1  0  0  0  0
 15 28  2  0  0  0  0
 15 65  1  0  0  0  0
 16 27  1  0  0  0  0
 17 27  1  0  0  0  0
 17 29  2  0  0  0  0
 17 31  1  0  0  0  0
 18 20  2  0  0  0  0
 18 36  1  0  0  0  0
 19 21  2  0  0  0  0
 19 37  1  0  0  0  0
 20 45  1  0  0  0  0
 21 38  1  0  0  0  0
 22 79  1  0  0  0  0
 23 80  1  0  0  0  0
 24 26  2  0  0  0  0
 24 79  1  0  0  0  0
 25 81  1  0  0  0  0
 26 82  1  0  0  0  0
 27 62  2  0  0  0  0
 28 55  1  0  0  0  0
 28 63  1  0  0  0  0
 29 64  1  0  0  0  0
 29 68  1  0  0  0  0
 30 56  1  0  0  0  0
 30 63  1  0  0  0  0
 30 65  2  0  0  0  0
 31 69  1  0  0  0  0
 31 74  2  0  0  0  0
 32 46  1  0  0  0  0
 32 70  1  0  0  0  0
 32 75  2  0  0  0  0
 33 59  1  0  0  0  0
 33 66  1  0  0  0  0
 33 76  2  0  0  0  0
 34 60  1  0  0  0  0
 34 71  1  0  0  0  0
 34 77  2  0  0  0  0
 35 67  1  0  0  0  0
 35 72  1  0  0  0  0
 35 78  2  0  0  0  0
 36 39  1  0  0  0  0
 37 46  1  0  0  0  0
 38 66  1  0  0  0  0
 39 41  1  0  0  0  0
 40 42  1  0  0  0  0
 40 43  1  0  0  0  0
 41 45  1  0  0  0  0
 42 47  1  0  0  0  0
 43 67  1  0  0  0  0
 44 47  1  0  0  0  0
 44 67  1  0  0  0  0
 45 70  1  0  0  0  0
 46 66  1  0  0  0  0
 47 64  1  0  0  0  0
 48 60  1  0  0  0  0
 49 61  1  0  0  0  0
 50 61  1  0  0  0  0
 51 61  1  0  0  0  0
 52 63  1  0  0  0  0
 53 72  1  0  0  0  0
 54 73  1  0  0  0  0
 55 80  1  0  0  0  0
 56 57  1  0  0  0  0
 57 58  1  0  0  0  0
 58 72  1  0  0  0  0
 59 61  1  0  0  0  0
 59 71  1  0  0  0  0
 60 73  1  0  0  0  0
 62 64  1  0  0  0  0
M  CHG  2  65   1  73   1
M  ISO  4  35 100  55 101  72 100  80 101
M  END
> <Batch ID>
0056

> <Smiles>
CNC(C)C(=O)NC(C(=O)N1Cc2cc([101O:1][101CH2:1]c3cnc(CCC[100N:0](C)[100C:0](=O)N4CCCC(n5nc(-c6ccc(Oc7ccc(F)cc7F)cc6)c(C(N)=O)c5N)C4)n3C)ccc2CC1C(=O)NC1CCCc2ccccc21)C(C)(C)C

> <Shape>
0.267

> <Color>
0.177

> <Negative vol penalty>
0.000

$$$$

  -OEChem-04052317463D

 90 98  0     1  0  0  0  0  0999 V2000
  -21.0702   -9.4977   24.4368 C   0  0  0  0  0  0  0  0  0  0  0  0
  -22.2512  -10.1722   24.7294 C   0  0  0  0  0  0  0  0  0  0  0  0
  -23.4809  -30.7553   20.0817 C   0  0  0  0  0  0  0  0  0  0  0  0
  -23.6715  -30.0110   22.3722 C   0  0  0  0  0  0  0  0  0  0  0  0
  -20.8924   -8.9183   23.1811 C   0  0  0  0  0  0  0  0  0  0  0  0
  -23.2557  -10.2668   23.7669 C   0  0  0  0  0  0  0  0  0  0  0  0
  -25.2071  -14.9288   23.4468 C   0  0  0  0  0  0  0  0  0  0  0  0
  -22.0923  -30.7892   20.2082 C   0  0  0  0  0  0  0  0  0  0  0  0
  -22.2828  -30.0449   22.4988 C   0  0  0  0  0  0  0  0  0  0  0  0
  -26.1227  -15.3046   24.4288 C   0  0  0  0  0  0  0  0  0  0  0  0
  -19.6530  -28.1113   21.6176 C   0  0  0  0  0  0  0  0  0  0  0  0
  -19.0320  -27.0265   22.2367 C   0  0  0  0  0  0  0  0  0  0  0  0
  -27.9360  -14.8413   22.9068 C   0  0  0  0  0  0  0  0  0  0  0  0
  -18.1482  -28.5012   23.9341 C   0  0  0  0  0  0  0  0  0  0  0  0
  -28.0388  -22.5705   20.4307 C   0  0  0  0  0  0  0  0  0  0  0  0
  -24.2706  -30.3662   21.1637 C   0  0  0  0  0  0  0  0  0  0  0  0
  -26.6090  -31.3767   21.2984 C   0  0  0  0  0  0  0  0  0  0  0  0
  -21.8913   -9.0141   22.1994 C   0  0  0  0  0  0  0  0  0  0  0  0
  -25.6502  -14.4953   22.1890 C   0  0  0  0  0  0  0  0  0  0  0  0
  -23.0917   -9.6869   22.4974 C   0  0  0  0  0  0  0  0  0  0  0  0
  -27.0240  -14.4630   21.9098 C   0  0  0  0  0  0  0  0  0  0  0  0
  -21.4932  -30.4340   21.4167 C   0  0  0  0  0  0  0  0  0  0  0  0
  -27.4875  -15.2581   24.1599 C   0  0  0  0  0  0  0  0  0  0  0  0
  -19.5217  -29.3910   22.1568 C   0  0  0  0  0  0  0  0  0  0  0  0
  -18.2796  -27.2215   23.3949 C   0  0  0  0  0  0  0  0  0  0  0  0
  -18.7693  -29.5860   23.3151 C   0  0  0  0  0  0  0  0  0  0  0  0
  -25.7051  -30.3305   21.0334 C   0  0  0  0  0  0  0  0  0  0  0  0
  -29.2649  -22.3813   19.8466 C   0  0  0  0  0  0  0  0  0  0  0  0
  -27.8437  -30.8417   21.0227 C   0  0  0  0  0  0  0  0  0  0  0  0
  -27.8573  -20.3356   20.6989 C   0  0  0  0  0  0  0  0  0  0  0  0
  -26.3554  -32.7125   21.7531 C   0  0  0  0  0  0  0  0  0  0  0  0
  -25.4114  -11.7907   20.5362 C   0  0  0  0  0  0  0  0  0  0  0  0
  -26.8177  -13.5496   18.2015 C   0  0  0  0  0  0  0  0  0  0  0  0
  -28.7680  -16.2220   17.3642 C   0  0  0  0  0  0  0  0  0  0  0  0
  -30.0450  -25.3800   20.9909 C   0  0  0  0  0  0  0  0  0  0  0  0
  -21.6730   -8.3311   20.8726 C   0  0  0  0  0  0  0  0  0  0  0  0
  -24.6489  -14.1188   21.1316 C   0  0  0  0  0  0  0  0  0  0  0  0
  -27.5504  -14.0245   20.5685 C   0  0  0  0  0  0  0  0  0  0  0  0
  -22.6330   -8.7985   19.7817 C   0  0  0  0  0  0  0  0  0  0  0  0
  -29.9896  -27.5609   18.2952 C   0  0  0  0  0  0  0  0  0  0  0  0
  -24.0632   -8.8388   20.3105 C   0  0  0  0  0  0  0  0  0  0  0  0
  -28.9719  -28.6249   18.7041 C   0  0  0  0  0  0  0  0  0  0  0  0
  -29.5183  -26.1708   18.7053 C   0  0  0  0  0  0  0  0  0  0  0  0
  -28.2178  -27.0976   20.5950 C   0  0  0  0  0  0  0  0  0  0  0  0
  -24.1945   -9.8322   21.4712 C   0  0  1  0  0  0  0  0  0  0  0  0
  -25.2293  -13.2034   20.0580 C   0  0  1  0  0  0  0  0  0  0  0  0
  -28.6453  -28.5273   20.2046 C   0  0  2  0  0  0  0  0  0  0  0  0
  -32.6608  -22.3141   23.1003 C   0  0  0  0  0  0  0  0  0  0  0  0
  -29.9251  -17.8882   15.8870 C   0  0  0  0  0  0  0  0  0  0  0  0
  -33.0197  -24.5895   21.1523 C   0  0  0  0  0  0  0  0  0  0  0  0
  -30.7713  -15.2934   25.1126 C   0  0  0  0  0  0  0  0  0  0  0  0
  -28.9259  -11.3539   17.9904 C   0  0  0  0  0  0  0  0  0  0  0  0
  -30.3729  -12.9610   16.7288 C   0  0  0  0  0  0  0  0  0  0  0  0
  -28.1614  -12.2805   15.7969 C   0  0  0  0  0  0  0  0  0  0  0  0
  -26.4083  -18.0081   17.3341 C   0  0  0  0  0  0  0  0  0  0  0  0
  -28.3771  -19.6950   25.5097 C   0  0  0  0  0  0  0  0  0  0  0  0
  -30.0717  -23.5316   19.3599 C   0  0  0  0  0  0  0  0  0  0  0  0
  -27.0720  -19.1412   21.1789 C   0  0  0  0  0  0  0  0  0  0  0  0
  -31.5003  -23.0575   22.4515 C   0  0  0  0  0  0  0  0  0  0  0  0
  -27.1696  -18.9006   22.6912 C   0  0  0  0  0  0  0  0  0  0  0  0
  -28.5823  -18.7065   23.2334 C   0  0  0  0  0  0  0  0  0  0  0  0
  -29.7155  -17.6228   25.1679 C   0  0  0  0  0  0  0  0  0  0  0  0
  -28.2415  -13.8352   17.7889 C   0  0  1  0  0  0  0  0  0  0  0  0
  -28.5867  -17.3157   16.3272 C   0  0  2  0  0  0  0  0  0  0  0  0
  -31.8531  -23.6108   21.0648 C   0  0  1  0  0  0  0  0  0  0  0  0
  -29.6176  -16.1842   24.6708 C   0  0  2  0  0  0  0  0  0  1  0  0
  -28.9159  -12.6141   17.1023 C   0  0  0  0  0  0  0  0  0  0  0  0
  -27.2996  -21.5427   20.8748 N   0  0  0  0  0  0  0  0  0  0  0  0
  -26.3136  -29.2153   20.6210 N   0  0  0  0  0  0  0  0  0  0  0  0
  -29.7738  -21.1450   19.6967 N   0  0  0  0  0  0  0  0  0  0  0  0
  -29.0551  -20.0896   20.1327 N   0  0  0  0  0  0  0  0  0  0  0  0
  -27.6131  -29.5578   20.6246 N   0  0  0  0  0  0  0  0  0  0  0  0
  -26.5320  -13.6602   19.5697 N   0  0  0  0  0  0  0  0  0  0  0  0
  -29.2121  -26.1159   20.1350 N   0  0  0  0  0  0  0  0  0  0  0  0
  -29.0932  -31.3491   21.0844 N   0  0  0  0  0  0  0  0  0  0  0  0
  -25.0284  -33.0977   21.9879 N   0  0  0  0  0  0  0  0  0  0  0  0
  -24.2459  -11.1895   20.9716 N   0  0  0  0  0  0  0  0  0  0  0  0
  -28.1935  -15.0353   16.9607 N   0  0  0  0  0  0  0  0  0  0  0  0
  -30.7039  -24.2680   20.4452 N   0  0  0  0  0  0  0  0  0  0  0  0
  -27.7610  -18.4249   16.8830 N   0  3  0  0  0  0  0  0  0  0  0  0
  -28.5510  -18.4240   24.7154 N   0  3  1  0  0  0  0  0  0  0  0  0
  -27.2768  -33.5452   21.9298 O   0  0  0  0  0  0  0  0  0  0  0  0
  -26.5265  -11.2831   20.5106 O   0  0  0  0  0  0  0  0  0  0  0  0
  -25.9878  -13.2466   17.3405 O   0  0  0  0  0  0  0  0  0  0  0  0
  -29.3631  -16.4014   18.4245 O   0  0  0  0  0  0  0  0  0  0  0  0
  -30.1986  -25.7024   22.1761 O   0  0  0  0  0  0  0  0  0  0  0  0
  -20.1381  -30.4671   21.5406 O   0  0  0  0  0  0  0  0  0  0  0  0
  -28.3833  -15.6237   25.1168 O   0  0  0  0  0  0  0  0  0  1  0  0
  -17.6821  -26.1799   23.9884 F   0  0  0  0  0  0  0  0  0  0  0  0
  -18.6385  -30.8133   23.8371 F   0  0  0  0  0  0  0  0  0  0  0  0
  1  2  1  0  0  0  0
  1  5  2  0  0  0  0
  2  6  2  0  0  0  0
  3  8  2  0  0  0  0
  3 16  1  0  0  0  0
  4  9  1  0  0  0  0
  4 16  2  0  0  0  0
  5 18  1  0  0  0  0
  6 20  1  0  0  0  0
  7 10  2  0  0  0  0
  7 19  1  0  0  0  0
  8 22  1  0  0  0  0
  9 22  2  0  0  0  0
 10 23  1  0  0  0  0
 11 12  2  0  0  0  0
 11 24  1  0  0  0  0
 12 25  1  0  0  0  0
 13 21  1  0  0  0  0
 13 23  2  0  0  0  0
 14 25  2  0  0  0  0
 14 26  1  0  0  0  0
 15 28  1  0  0  0  0
 15 68  2  0  0  0  0
 16 27  1  0  0  0  0
 17 27  1  0  0  0  0
 17 29  2  0  0  0  0
 17 31  1  0  0  0  0
 18 20  2  0  0  0  0
 18 36  1  0  0  0  0
 19 21  2  0  0  0  0
 19 37  1  0  0  0  0
 20 45  1  0  0  0  0
 21 38  1  0  0  0  0
 22 87  1  0  0  0  0
 23 88  1  0  0  0  0
 24 26  2  0  0  0  0
 24 87  1  0  0  0  0
 25 89  1  0  0  0  0
 26 90  1  0  0  0  0
 27 69  2  0  0  0  0
 28 57  1  0  0  0  0
 28 70  2  0  0  0  0
 29 72  1  0  0  0  0
 29 75  1  0  0  0  0
 30 58  1  0  0  0  0
 30 68  1  0  0  0  0
 30 71  2  0  0  0  0
 31 76  1  0  0  0  0
 31 82  2  0  0  0  0
 32 46  1  0  0  0  0
 32 77  1  0  0  0  0
 32 83  2  0  0  0  0
 33 63  1  0  0  0  0
 33 73  1  0  0  0  0
 33 84  2  0  0  0  0
 34 64  1  0  0  0  0
 34 78  1  0  0  0  0
 34 85  2  0  0  0  0
 35 74  1  0  0  0  0
 35 79  1  0  0  0  0
 35 86  2  0  0  0  0
 36 39  1  0  0  0  0
 37 46  1  0  0  0  0
 38 73  1  0  0  0  0
 39 41  1  0  0  0  0
 40 42  1  0  0  0  0
 40 43  1  0  0  0  0
 41 45  1  0  0  0  0
 42 47  1  0  0  0  0
 43 74  1  0  0  0  0
 44 47  1  0  0  0  0
 44 74  1  0  0  0  0
 45 77  1  0  0  0  0
 46 73  1  0  0  0  0
 47 72  1  0  0  0  0
 48 59  1  0  0  0  0
 49 64  1  0  0  0  0
 50 65  1  0  0  0  0
 51 66  1  0  0  0  0
 52 67  1  0  0  0  0
 53 67  1  0  0  0  0
 54 67  1  0  0  0  0
 55 80  1  0  0  0  0
 56 81  1  0  0  0  0
 57 79  1  0  0  0  0
 58 60  1  0  0  0  0
 59 65  1  0  0  0  0
 60 61  1  0  0  0  0
 61 81  1  0  0  0  0
 62 66  1  0  0  0  0
 62 81  1  0  0  0  0
 63 67  1  0  0  0  0
 63 78  1  0  0  0  0
 64 80  1  0  0  0  0
 65 79  1  0  0  0  0
 66 88  1  0  0  0  0
 69 72  1  0  0  0  0
 70 71  1  0  0  0  0
M  CHG  2  80   1  81   1
M  ISO  4  35 100  66 101  79 100  88 101
M  END
> <Batch ID>
0056

> <Smiles>
CCC(C)[100N:0](Cc1cnc(CCCN(C)C[101CH:1](C)[101O:1]c2ccc3c(c2)CN(C(=O)C(NC(=O)C(C)NC)C(C)(C)C)C(C(=O)NC2CCCc4ccccc42)C3)nn1)[100C:0](=O)N1CCCC(n2nc(-c3ccc(Oc4ccc(F)cc4F)cc3)c(C(N)=O)c2N)C1

> <Shape>
0.283

> <Color>
0.063

> <Negative vol penalty>
0.000

$$$$

  -OEChem-04052317463D

 81 89  0     1  0  0  0  0  0999 V2000
  -23.8978  -35.5652   21.3529 C   0  0  0  0  0  0  0  0  0  0  0  0
  -24.4191  -34.3705   20.8692 C   0  0  0  0  0  0  0  0  0  0  0  0
  -27.3040  -12.3844   21.2420 C   0  0  0  0  0  0  0  0  0  0  0  0
  -27.1006  -13.0865   18.9392 C   0  0  0  0  0  0  0  0  0  0  0  0
  -23.0063  -35.5495   22.4235 C   0  0  0  0  0  0  0  0  0  0  0  0
  -24.0399  -33.1589   21.4481 C   0  0  0  0  0  0  0  0  0  0  0  0
  -25.5952  -29.0450   19.2436 C   0  0  0  0  0  0  0  0  0  0  0  0
  -26.4890  -11.2836   20.9784 C   0  0  0  0  0  0  0  0  0  0  0  0
  -26.2856  -11.9856   18.6756 C   0  0  0  0  0  0  0  0  0  0  0  0
  -26.9239  -28.6247   19.2833 C   0  0  0  0  0  0  0  0  0  0  0  0
  -24.1679   -8.4843   20.9964 C   0  0  0  0  0  0  0  0  0  0  0  0
  -23.1579   -8.1892   21.9120 C   0  0  0  0  0  0  0  0  0  0  0  0
  -26.3429  -26.9637   20.9334 C   0  0  0  0  0  0  0  0  0  0  0  0
  -22.1753  -10.3629   21.5286 C   0  0  0  0  0  0  0  0  0  0  0  0
  -29.6424  -24.2027   17.7855 C   0  0  0  0  0  0  0  0  0  0  0  0
  -29.2530  -23.0214   20.1478 C   0  0  0  0  0  0  0  0  0  0  0  0
  -27.6098  -13.2859   20.2224 C   0  0  0  0  0  0  0  0  0  0  0  0
  -29.8536  -14.4880   20.3898 C   0  0  0  0  0  0  0  0  0  0  0  0
  -22.6262  -34.3376   23.0233 C   0  0  0  0  0  0  0  0  0  0  0  0
  -24.6308  -28.4340   20.0579 C   0  0  0  0  0  0  0  0  0  0  0  0
  -23.1229  -33.1205   22.5140 C   0  0  0  0  0  0  0  0  0  0  0  0
  -25.0021  -27.3764   20.9003 C   0  0  0  0  0  0  0  0  0  0  0  0
  -25.9798  -11.0842   19.6952 C   0  0  0  0  0  0  0  0  0  0  0  0
  -27.2985  -27.5859   20.1304 C   0  0  0  0  0  0  0  0  0  0  0  0
  -24.1817   -9.7188   20.3469 C   0  0  0  0  0  0  0  0  0  0  0  0
  -22.1616   -9.1285   22.1781 C   0  0  0  0  0  0  0  0  0  0  0  0
  -23.1854  -10.6580   20.6130 C   0  0  0  0  0  0  0  0  0  0  0  0
  -28.4512  -14.4236   20.4942 C   0  0  0  0  0  0  0  0  0  0  0  0
  -29.9260  -24.8582   18.9634 C   0  0  0  0  0  0  0  0  0  0  0  0
  -28.9686  -22.3661   18.9700 C   0  0  0  0  0  0  0  0  0  0  0  0
  -30.1662  -15.7750   20.7536 C   0  0  0  0  0  0  0  0  0  0  0  0
  -30.7899  -13.4751   19.9987 C   0  0  0  0  0  0  0  0  0  0  0  0
  -22.7219  -29.4206   22.4002 C   0  0  0  0  0  0  0  0  0  0  0  0
  -21.5202  -26.4173   22.1590 C   0  0  0  0  0  0  0  0  0  0  0  0
  -22.0020  -23.1703   21.2253 C   0  0  0  0  0  0  0  0  0  0  0  0
  -26.5683  -20.7336   20.6785 C   0  0  0  0  0  0  0  0  0  0  0  0
  -21.6521  -34.3779   24.1742 C   0  0  0  0  0  0  0  0  0  0  0  0
  -23.1966  -28.8812   19.9837 C   0  0  0  0  0  0  0  0  0  0  0  0
  -24.0012  -26.6739   21.7795 C   0  0  0  0  0  0  0  0  0  0  0  0
  -21.6554  -33.0963   25.0012 C   0  0  0  0  0  0  0  0  0  0  0  0
  -28.6144  -19.3961   23.4581 C   0  0  0  0  0  0  0  0  0  0  0  0
  -21.5385  -31.8868   24.0858 C   0  0  0  0  0  0  0  0  0  0  0  0
  -28.8580  -17.9508   23.0270 C   0  0  0  0  0  0  0  0  0  0  0  0
  -27.3049  -19.9423   22.8973 C   0  0  0  0  0  0  0  0  0  0  0  0
  -27.4297  -18.3766   20.9875 C   0  0  0  0  0  0  0  0  0  0  0  0
  -22.7485  -31.7928   23.1477 C   0  0  1  0  0  0  0  0  0  0  0  0
  -22.3960  -28.5308   21.2341 C   0  0  1  0  0  0  0  0  0  0  0  0
  -28.7638  -17.8113   21.4976 C   0  0  2  0  0  0  0  0  0  0  0  0
  -20.8518  -20.9403   21.1866 C   0  0  0  0  0  0  0  0  0  0  0  0
  -22.0107  -26.1149   25.1553 C   0  0  0  0  0  0  0  0  0  0  0  0
  -21.7555  -23.6400   24.8767 C   0  0  0  0  0  0  0  0  0  0  0  0
  -19.8456  -25.1560   24.3506 C   0  0  0  0  0  0  0  0  0  0  0  0
  -26.0868  -21.3765   18.3473 C   0  0  0  0  0  0  0  0  0  0  0  0
  -22.1580  -23.0110   18.2742 C   0  0  0  0  0  0  0  0  0  0  0  0
  -30.4672  -26.2671   18.9453 C   0  0  0  0  0  0  0  0  0  0  0  0
  -28.4352  -20.9764   18.9878 C   0  0  0  0  0  0  0  0  0  0  0  0
  -29.3593  -27.3143   18.9747 C   0  0  0  0  0  0  0  0  0  1  0  0
  -21.8367  -25.0849   22.7942 C   0  0  1  0  0  0  0  0  0  0  0  0
  -21.1429  -22.2174   20.4139 C   0  0  2  0  0  0  0  0  0  0  0  0
  -21.3816  -25.0133   24.2792 C   0  0  0  0  0  0  0  0  0  0  0  0
  -29.7367  -24.2793   20.1656 N   0  0  0  0  0  0  0  0  0  0  0  0
  -29.1583  -22.9450   17.7677 N   0  0  0  0  0  0  0  0  0  0  0  0
  -27.9103  -15.5778   20.8933 N   0  0  0  0  0  0  0  0  0  0  0  0
  -28.9784  -16.3796   21.0430 N   0  0  0  0  0  0  0  0  0  0  0  0
  -22.6125  -27.1516   21.6758 N   0  0  0  0  0  0  0  0  0  0  0  0
  -27.2231  -19.7579   21.4480 N   0  0  0  0  0  0  0  0  0  0  0  0
  -31.3386  -16.4371   20.8512 N   0  0  0  0  0  0  0  0  0  0  0  0
  -30.2991  -12.2077   19.6565 N   0  0  0  0  0  0  0  0  0  0  0  0
  -22.5025  -30.7638   22.1615 N   0  0  0  0  0  0  0  0  0  0  0  0
  -21.2357  -24.0701   21.9354 N   0  0  0  0  0  0  0  0  0  0  0  0
  -27.0245  -20.9250   19.3655 N   0  0  0  0  0  0  0  0  0  0  0  0
  -21.8323  -21.8517   19.1443 N   0  3  0  0  0  0  0  0  0  0  0  0
  -32.0267  -13.6828   19.9699 O   0  0  0  0  0  0  0  0  0  0  0  0
  -23.1399  -28.9250   23.4401 O   0  0  0  0  0  0  0  0  0  0  0  0
  -20.3463  -26.7894   22.0874 O   0  0  0  0  0  0  0  0  0  0  0  0
  -23.2299  -23.1189   21.2317 O   0  0  0  0  0  0  0  0  0  0  0  0
  -25.6358  -21.4025   21.1420 O   0  0  0  0  0  0  0  0  0  0  0  0
  -25.1847  -10.0099   19.4376 O   0  0  0  0  0  0  0  0  0  0  0  0
  -28.5949  -27.1741   20.1716 O   0  0  0  0  0  0  0  0  0  1  0  0
  -21.1908   -8.8443   23.0562 F   0  0  0  0  0  0  0  0  0  0  0  0
  -23.1926  -11.8451   19.9913 F   0  0  0  0  0  0  0  0  0  0  0  0
  1  2  1  0  0  0  0
  1  5  2  0  0  0  0
  2  6  2  0  0  0  0
  3  8  2  0  0  0  0
  3 17  1  0  0  0  0
  4  9  1  0  0  0  0
  4 17  2  0  0  0  0
  5 19  1  0  0  0  0
  6 21  1  0  0  0  0
  7 10  2  0  0  0  0
  7 20  1  0  0  0  0
  8 23  1  0  0  0  0
  9 23  2  0  0  0  0
 10 24  1  0  0  0  0
 11 12  2  0  0  0  0
 11 25  1  0  0  0  0
 12 26  1  0  0  0  0
 13 22  1  0  0  0  0
 13 24  2  0  0  0  0
 14 26  2  0  0  0  0
 14 27  1  0  0  0  0
 15 29  1  0  0  0  0
 15 62  2  0  0  0  0
 16 30  2  0  0  0  0
 16 61  1  0  0  0  0
 17 28  1  0  0  0  0
 18 28  1  0  0  0  0
 18 31  2  0  0  0  0
 18 32  1  0  0  0  0
 19 21  2  0  0  0  0
 19 37  1  0  0  0  0
 20 22  2  0  0  0  0
 20 38  1  0  0  0  0
 21 46  1  0  0  0  0
 22 39  1  0  0  0  0
 23 78  1  0  0  0  0
 24 79  1  0  0  0  0
 25 27  2  0  0  0  0
 25 78  1  0  0  0  0
 26 80  1  0  0  0  0
 27 81  1  0  0  0  0
 28 63  2  0  0  0  0
 29 55  1  0  0  0  0
 29 61  2  0  0  0  0
 30 56  1  0  0  0  0
 30 62  1  0  0  0  0
 31 64  1  0  0  0  0
 31 67  1  0  0  0  0
 32 68  1  0  0  0  0
 32 73  2  0  0  0  0
 33 47  1  0  0  0  0
 33 69  1  0  0  0  0
 33 74  2  0  0  0  0
 34 58  1  0  0  0  0
 34 65  1  0  0  0  0
 34 75  2  0  0  0  0
 35 59  1  0  0  0  0
 35 70  1  0  0  0  0
 35 76  2  0  0  0  0
 36 66  1  0  0  0  0
 36 71  1  0  0  0  0
 36 77  2  0  0  0  0
 37 40  1  0  0  0  0
 38 47  1  0  0  0  0
 39 65  1  0  0  0  0
 40 42  1  0  0  0  0
 41 43  1  0  0  0  0
 41 44  1  0  0  0  0
 42 46  1  0  0  0  0
 43 48  1  0  0  0  0
 44 66  1  0  0  0  0
 45 48  1  0  0  0  0
 45 66  1  0  0  0  0
 46 69  1  0  0  0  0
 47 65  1  0  0  0  0
 48 64  1  0  0  0  0
 49 59  1  0  0  0  0
 50 60  1  0  0  0  0
 51 60  1  0  0  0  0
 52 60  1  0  0  0  0
 53 71  1  0  0  0  0
 54 72  1  0  0  0  0
 55 57  1  0  0  0  0
 56 71  1  0  0  0  0
 57 79  1  0  0  0  0
 58 60  1  0  0  0  0
 58 70  1  0  0  0  0
 59 72  1  0  0  0  0
 63 64  1  0  0  0  0
M  CHG  1  72   1
M  ISO  4  36 100  57 101  71 100  79 101
M  END
> <Batch ID>
0056

> <Smiles>
CNC(C)C(=O)NC(C(=O)N1Cc2cc([101O:1][101CH2:1]Cc3cnc(C[100N:0](C)[100C:0](=O)N4CCCC(n5nc(-c6ccc(Oc7ccc(F)cc7F)cc6)c(C(N)=O)c5N)C4)cn3)ccc2CC1C(=O)NC1CCCc2ccccc21)C(C)(C)C

> <Shape>
0.262

> <Color>
0.088

> <Negative vol penalty>
0.000

$$$$

  -OEChem-04052317463D

 83 91  0     1  0  0  0  0  0999 V2000
  -25.8349  -19.3924   26.1220 C   0  0  0  0  0  0  0  0  0  0  0  0
  -26.2276  -20.1799   25.0444 C   0  0  0  0  0  0  0  0  0  0  0  0
  -24.6703  -17.7001   21.2236 C   0  0  0  0  0  0  0  0  0  0  0  0
  -25.2588  -16.7657   19.0747 C   0  0  0  0  0  0  0  0  0  0  0  0
  -24.5078  -19.4091   26.5490 C   0  0  0  0  0  0  0  0  0  0  0  0
  -25.2931  -20.9838   24.3926 C   0  0  0  0  0  0  0  0  0  0  0  0
  -27.0478  -25.6431   23.4671 C   0  0  0  0  0  0  0  0  0  0  0  0
  -23.6729  -16.7360   21.3697 C   0  0  0  0  0  0  0  0  0  0  0  0
  -24.2615  -15.8016   19.2208 C   0  0  0  0  0  0  0  0  0  0  0  0
  -27.9183  -25.7931   22.3885 C   0  0  0  0  0  0  0  0  0  0  0  0
  -22.1091  -12.8716   19.1898 C   0  0  0  0  0  0  0  0  0  0  0  0
  -22.4292  -11.5526   18.8686 C   0  0  0  0  0  0  0  0  0  0  0  0
  -26.0948  -26.6120   21.0383 C   0  0  0  0  0  0  0  0  0  0  0  0
  -24.1611  -11.5627   20.5531 C   0  0  0  0  0  0  0  0  0  0  0  0
  -31.2261  -27.7203   17.3765 C   0  0  0  0  0  0  0  0  0  0  0  0
  -25.4632  -17.7150   20.0760 C   0  0  0  0  0  0  0  0  0  0  0  0
  -27.8365  -18.6141   20.3341 C   0  0  0  0  0  0  0  0  0  0  0  0
  -23.5586  -20.2209   25.9082 C   0  0  0  0  0  0  0  0  0  0  0  0
  -25.6897  -25.9668   23.3359 C   0  0  0  0  0  0  0  0  0  0  0  0
  -23.9517  -21.0103   24.8106 C   0  0  0  0  0  0  0  0  0  0  0  0
  -25.2096  -26.4677   22.1175 C   0  0  0  0  0  0  0  0  0  0  0  0
  -30.4895  -27.5932   18.5365 C   0  0  0  0  0  0  0  0  0  0  0  0
  -23.4685  -15.7867   20.3684 C   0  0  0  0  0  0  0  0  0  0  0  0
  -27.4413  -26.2748   21.1730 C   0  0  0  0  0  0  0  0  0  0  0  0
  -22.8151  -13.5363   20.1925 C   0  0  0  0  0  0  0  0  0  0  0  0
  -23.4552  -10.8981   19.5503 C   0  0  0  0  0  0  0  0  0  0  0  0
  -23.8410  -12.8819   20.8742 C   0  0  0  0  0  0  0  0  0  0  0  0
  -26.4932  -18.7111   19.9243 C   0  0  0  0  0  0  0  0  0  0  0  0
  -30.4265  -26.3210   19.0674 C   0  0  0  0  0  0  0  0  0  0  0  0
  -28.3955  -19.8131   19.9649 C   0  0  0  0  0  0  0  0  0  0  0  0
  -31.7201  -25.5015   17.3875 C   0  0  0  0  0  0  0  0  0  0  0  0
  -28.5181  -17.5365   20.9898 C   0  0  0  0  0  0  0  0  0  0  0  0
  -22.9653  -24.3448   23.5613 C   0  0  0  0  0  0  0  0  0  0  0  0
  -21.6393  -27.2854   23.2188 C   0  0  0  0  0  0  0  0  0  0  0  0
  -21.9534  -30.4920   22.0936 C   0  0  0  0  0  0  0  0  0  0  0  0
  -29.1150  -23.9053   16.2389 C   0  0  0  0  0  0  0  0  0  0  0  0
  -22.1256  -20.1697   26.3757 C   0  0  0  0  0  0  0  0  0  0  0  0
  -24.7690  -25.8246   24.5168 C   0  0  0  0  0  0  0  0  0  0  0  0
  -23.7644  -26.8488   21.9309 C   0  0  0  0  0  0  0  0  0  0  0  0
  -21.2774  -21.3330   25.8682 C   0  0  0  0  0  0  0  0  0  0  0  0
  -26.2388  -24.0865   18.3298 C   0  0  0  0  0  0  0  0  0  0  0  0
  -21.5097  -21.5523   24.3766 C   0  0  0  0  0  0  0  0  0  0  0  0
  -26.1561  -22.6949   18.9595 C   0  0  0  0  0  0  0  0  0  0  0  0
  -26.7262  -24.0236   16.8839 C   0  0  0  0  0  0  0  0  0  0  0  0
  -27.9139  -21.9085   17.3192 C   0  0  0  0  0  0  0  0  0  0  0  0
  -22.9726  -21.9143   24.0935 C   0  0  1  0  0  0  0  0  0  0  0  0
  -23.3016  -25.6990   24.1187 C   0  0  1  0  0  0  0  0  0  0  0  0
  -27.4805  -21.9254   18.7950 C   0  0  2  0  0  0  0  0  0  0  0  0
  -29.8176  -28.7654   19.1530 C   0  0  0  0  0  0  0  0  0  0  0  0
  -20.6880  -32.6522   21.9220 C   0  0  0  0  0  0  0  0  0  0  0  0
  -32.8740  -23.2111   17.7327 C   0  0  0  0  0  0  0  0  0  0  0  0
  -33.7094  -24.8055   16.0251 C   0  0  0  0  0  0  0  0  0  0  0  0
  -20.0058  -26.1423   20.9091 C   0  0  0  0  0  0  0  0  0  0  0  0
  -19.5066  -28.4887   20.1926 C   0  0  0  0  0  0  0  0  0  0  0  0
  -18.7391  -27.6776   22.4232 C   0  0  0  0  0  0  0  0  0  0  0  0
  -23.9427  -31.9233   23.7527 C   0  0  0  0  0  0  0  0  0  0  0  0
  -29.6540  -26.0626   20.3275 C   0  0  0  0  0  0  0  0  0  1  0  0
  -31.5139  -23.6385   15.6616 C   0  0  0  0  0  0  0  0  0  0  0  0
  -21.1981  -28.1294   22.0475 C   0  0  1  0  0  0  0  0  0  0  0  0
  -21.6550  -31.8253   22.7550 C   0  0  2  0  0  0  0  0  0  0  0  0
  -32.4041  -24.3398   16.7498 C   0  0  0  0  0  0  0  0  0  0  0  0
  -19.8893  -27.6006   21.3957 C   0  0  0  0  0  0  0  0  0  0  0  0
  -31.8568  -26.6918   16.7726 N   0  0  0  0  0  0  0  0  0  0  0  0
  -26.2156  -19.8794   19.3396 N   0  0  0  0  0  0  0  0  0  0  0  0
  -31.0318  -25.2482   18.5169 N   0  0  0  0  0  0  0  0  0  0  0  0
  -27.3921  -20.5277   19.3794 N   0  0  0  0  0  0  0  0  0  0  0  0
  -22.9023  -26.6858   23.1132 N   0  0  0  0  0  0  0  0  0  0  0  0
  -27.9866  -23.2822   16.7973 N   0  0  0  0  0  0  0  0  0  0  0  0
  -29.6426  -20.3154   20.0872 N   0  0  0  0  0  0  0  0  0  0  0  0
  -27.7940  -16.3764   21.2968 N   0  0  0  0  0  0  0  0  0  0  0  0
  -23.2242  -23.2998   24.4275 N   0  0  0  0  0  0  0  0  0  0  0  0
  -21.1083  -29.4989   22.5420 N   0  0  0  0  0  0  0  0  0  0  0  0
  -30.2705  -23.1345   16.2008 N   0  0  0  0  0  0  0  0  0  0  0  0
  -22.9107  -32.6081   22.9324 N   0  3  0  0  0  0  0  0  0  0  0  0
  -29.7291  -17.6070   21.3092 O   0  0  0  0  0  0  0  0  0  0  0  0
  -22.5036  -24.2549   22.4297 O   0  0  0  0  0  0  0  0  0  0  0  0
  -20.8939  -27.1684   24.1947 O   0  0  0  0  0  0  0  0  0  0  0  0
  -22.8443  -30.3467   21.2596 O   0  0  0  0  0  0  0  0  0  0  0  0
  -29.0956  -25.0645   15.8114 O   0  0  0  0  0  0  0  0  0  0  0  0
  -22.4956  -14.8457   20.5107 O   0  0  0  0  0  0  0  0  0  0  0  0
  -28.2888  -26.4215   20.1184 O   0  0  0  0  0  0  0  0  0  1  0  0
  -23.7614   -9.6309   19.2428 F   0  0  0  0  0  0  0  0  0  0  0  0
  -24.5220  -13.5148   21.8393 F   0  0  0  0  0  0  0  0  0  0  0  0
  1  2  1  0  0  0  0
  1  5  2  0  0  0  0
  2  6  2  0  0  0  0
  3  8  2  0  0  0  0
  3 16  1  0  0  0  0
  4  9  1  0  0  0  0
  4 16  2  0  0  0  0
  5 18  1  0  0  0  0
  6 20  1  0  0  0  0
  7 10  2  0  0  0  0
  7 19  1  0  0  0  0
  8 23  1  0  0  0  0
  9 23  2  0  0  0  0
 10 24  1  0  0  0  0
 11 12  2  0  0  0  0
 11 25  1  0  0  0  0
 12 26  1  0  0  0  0
 13 21  1  0  0  0  0
 13 24  2  0  0  0  0
 14 26  2  0  0  0  0
 14 27  1  0  0  0  0
 15 22  1  0  0  0  0
 15 63  2  0  0  0  0
 16 28  1  0  0  0  0
 17 28  1  0  0  0  0
 17 30  2  0  0  0  0
 17 32  1  0  0  0  0
 18 20  2  0  0  0  0
 18 37  1  0  0  0  0
 19 21  2  0  0  0  0
 19 38  1  0  0  0  0
 20 46  1  0  0  0  0
 21 39  1  0  0  0  0
 22 29  2  0  0  0  0
 22 49  1  0  0  0  0
 23 80  1  0  0  0  0
 24 81  1  0  0  0  0
 25 27  2  0  0  0  0
 25 80  1  0  0  0  0
 26 82  1  0  0  0  0
 27 83  1  0  0  0  0
 28 64  2  0  0  0  0
 29 57  1  0  0  0  0
 29 65  1  0  0  0  0
 30 66  1  0  0  0  0
 30 69  1  0  0  0  0
 31 61  1  0  0  0  0
 31 63  1  0  0  0  0
 31 65  2  0  0  0  0
 32 70  1  0  0  0  0
 32 75  2  0  0  0  0
 33 47  1  0  0  0  0
 33 71  1  0  0  0  0
 33 76  2  0  0  0  0
 34 59  1  0  0  0  0
 34 67  1  0  0  0  0
 34 77  2  0  0  0  0
 35 60  1  0  0  0  0
 35 72  1  0  0  0  0
 35 78  2  0  0  0  0
 36 68  1  0  0  0  0
 36 73  1  0  0  0  0
 36 79  2  0  0  0  0
 37 40  1  0  0  0  0
 38 47  1  0  0  0  0
 39 67  1  0  0  0  0
 40 42  1  0  0  0  0
 41 43  1  0  0  0  0
 41 44  1  0  0  0  0
 42 46  1  0  0  0  0
 43 48  1  0  0  0  0
 44 68  1  0  0  0  0
 45 48  1  0  0  0  0
 45 68  1  0  0  0  0
 46 71  1  0  0  0  0
 47 67  1  0  0  0  0
 48 66  1  0  0  0  0
 50 60  1  0  0  0  0
 51 61  1  0  0  0  0
 52 61  1  0  0  0  0
 53 62  1  0  0  0  0
 54 62  1  0  0  0  0
 55 62  1  0  0  0  0
 56 74  1  0  0  0  0
 57 81  1  0  0  0  0
 58 61  1  0  0  0  0
 58 73  1  0  0  0  0
 59 62  1  0  0  0  0
 59 72  1  0  0  0  0
 60 74  1  0  0  0  0
 64 66  1  0  0  0  0
M  CHG  1  74   1
M  ISO  4  36 100  57 101  73 100  81 101
M  END
> <Batch ID>
0056

> <Smiles>
CNC(C)C(=O)NC(C(=O)N1Cc2cc([101O:1][101CH2:1]c3nc(C(C)(C)C[100NH:0][100C:0](=O)N4CCCC(n5nc(-c6ccc(Oc7ccc(F)cc7F)cc6)c(C(N)=O)c5N)C4)ncc3C)ccc2CC1C(=O)NC1CCCc2ccccc21)C(C)(C)C

> <Shape>
0.182

> <Color>
0.076

> <Negative vol penalty>
0.000

$$$$

  -OEChem-04052317463D

 89 97  0     1  0  0  0  0  0999 V2000
  -30.4960  -24.2429   24.0249 C   0  0  0  0  0  0  0  0  0  0  0  0
  -31.5189  -23.4339   23.5405 C   0  0  0  0  0  0  0  0  0  0  0  0
  -23.2374   -9.8246   19.9027 C   0  0  0  0  0  0  0  0  0  0  0  0
  -23.7853   -9.9184   22.2539 C   0  0  0  0  0  0  0  0  0  0  0  0
  -29.1981  -24.0892   23.5395 C   0  0  0  0  0  0  0  0  0  0  0  0
  -31.2442  -22.4699   22.5711 C   0  0  0  0  0  0  0  0  0  0  0  0
  -34.6799  -22.4214   18.8511 C   0  0  0  0  0  0  0  0  0  0  0  0
  -22.5155   -8.6507   20.1177 C   0  0  0  0  0  0  0  0  0  0  0  0
  -23.0633   -8.7444   22.4689 C   0  0  0  0  0  0  0  0  0  0  0  0
  -35.8975  -21.7966   19.1170 C   0  0  0  0  0  0  0  0  0  0  0  0
  -21.0641   -5.9683   23.6995 C   0  0  0  0  0  0  0  0  0  0  0  0
  -20.2067   -5.9255   24.7989 C   0  0  0  0  0  0  0  0  0  0  0  0
  -35.1392  -19.8317   17.9408 C   0  0  0  0  0  0  0  0  0  0  0  0
  -18.9654   -7.7949   23.9036 C   0  0  0  0  0  0  0  0  0  0  0  0
  -35.4986  -13.1915   20.4841 C   0  0  0  0  0  0  0  0  0  0  0  0
  -23.8724  -10.4585   20.9708 C   0  0  0  0  0  0  0  0  0  0  0  0
  -24.1335  -12.9910   20.8099 C   0  0  0  0  0  0  0  0  0  0  0  0
  -28.9091  -23.1294   22.5567 C   0  0  0  0  0  0  0  0  0  0  0  0
  -33.6770  -21.7510   18.1362 C   0  0  0  0  0  0  0  0  0  0  0  0
  -29.9409  -22.3023   22.0731 C   0  0  0  0  0  0  0  0  0  0  0  0
  -33.9107  -20.4512   17.6649 C   0  0  0  0  0  0  0  0  0  0  0  0
  -22.4284   -8.1106   21.4008 C   0  0  0  0  0  0  0  0  0  0  0  0
  -36.1263  -20.5005   18.6644 C   0  0  0  0  0  0  0  0  0  0  0  0
  -20.8722   -6.9244   22.7022 C   0  0  0  0  0  0  0  0  0  0  0  0
  -19.1573   -6.8387   24.9009 C   0  0  0  0  0  0  0  0  0  0  0  0
  -19.8229   -7.8377   22.8042 C   0  0  0  0  0  0  0  0  0  0  0  0
  -24.6187  -11.6709   20.7493 C   0  0  0  0  0  0  0  0  0  0  0  0
  -34.1380  -13.3615   20.1652 C   0  0  0  0  0  0  0  0  0  0  0  0
  -36.1706  -13.6540   19.3791 C   0  0  0  0  0  0  0  0  0  0  0  0
  -25.2267  -13.7721   20.5249 C   0  0  0  0  0  0  0  0  0  0  0  0
  -22.8126  -13.4684   21.0982 C   0  0  0  0  0  0  0  0  0  0  0  0
  -30.7085  -20.8140   18.7794 C   0  0  0  0  0  0  0  0  0  0  0  0
  -30.6981  -20.0072   15.6375 C   0  0  0  0  0  0  0  0  0  0  0  0
  -32.4880  -19.1625   12.8573 C   0  0  0  0  0  0  0  0  0  0  0  0
  -30.7312  -14.1203   21.4286 C   0  0  0  0  0  0  0  0  0  0  0  0
  -27.4818  -22.9681   22.0969 C   0  0  0  0  0  0  0  0  0  0  0  0
  -32.3791  -22.4487   17.8345 C   0  0  0  0  0  0  0  0  0  0  0  0
  -32.8742  -19.6956   16.8755 C   0  0  0  0  0  0  0  0  0  0  0  0
  -27.3459  -22.1771   20.7984 C   0  0  0  0  0  0  0  0  0  0  0  0
  -29.5581  -13.0382   18.2783 C   0  0  0  0  0  0  0  0  0  0  0  0
  -28.2015  -20.9154   20.8498 C   0  0  0  0  0  0  0  0  0  0  0  0
  -28.1047  -12.6922   18.5991 C   0  0  0  0  0  0  0  0  0  0  0  0
  -30.5103  -12.6140   19.3979 C   0  0  0  0  0  0  0  0  0  0  0  0
  -28.6793  -12.7858   21.0533 C   0  0  0  0  0  0  0  0  0  0  0  0
  -29.6872  -21.2622   21.0036 C   0  0  1  0  0  0  0  0  0  0  0  0
  -31.2354  -21.4826   17.5412 C   0  0  1  0  0  0  0  0  0  0  0  0
  -27.6950  -13.2555   19.9710 C   0  0  2  0  0  0  0  0  0  0  0  0
  -32.1996  -18.5236   10.4477 C   0  0  0  0  0  0  0  0  0  0  0  0
  -29.8158  -17.2125   16.4867 C   0  0  0  0  0  0  0  0  0  0  0  0
  -30.4594  -16.3934   14.2101 C   0  0  0  0  0  0  0  0  0  0  0  0
  -28.6570  -18.1003   14.4560 C   0  0  0  0  0  0  0  0  0  0  0  0
  -35.4157  -14.6220   17.1865 C   0  0  0  0  0  0  0  0  0  0  0  0
  -34.0264  -21.5143   11.9291 C   0  0  0  0  0  0  0  0  0  0  0  0
  -39.2572  -16.8062   22.7705 C   0  0  0  0  0  0  0  0  0  0  0  0
  -32.9720  -13.0251   20.9995 C   0  0  0  0  0  0  0  0  0  0  0  0
  -37.6464  -13.7466   19.0843 C   0  0  0  0  0  0  0  0  0  0  0  0
  -38.2849  -15.0719   19.5202 C   0  0  0  0  0  0  0  0  0  0  0  0
  -38.8085  -19.0741   20.6131 C   0  0  0  0  0  0  0  0  0  0  0  0
  -32.8310  -15.3753   21.7358 C   0  0  0  0  0  0  0  0  0  0  0  0
  -38.2397  -15.3591   21.0179 C   0  0  0  0  0  0  0  0  0  0  0  0
  -37.9768  -17.8324   20.8971 C   0  0  0  0  0  0  0  0  0  0  0  0
  -37.9893  -20.2619   20.1231 C   0  0  0  0  0  0  0  0  0  1  0  0
  -33.2486  -15.2681   23.1869 C   0  0  0  0  0  0  0  0  0  0  0  0
  -31.0624  -18.7721   14.8497 C   0  0  1  0  0  0  0  0  0  0  0  0
  -32.4236  -19.6658   11.4265 C   0  0  2  0  0  0  0  0  0  0  0  0
  -30.0177  -17.6328   15.0171 C   0  0  0  0  0  0  0  0  0  0  0  0
  -25.9189  -11.6128   20.4491 N   0  0  0  0  0  0  0  0  0  0  0  0
  -33.9548  -13.8909   18.9527 N   0  0  0  0  0  0  0  0  0  0  0  0
  -35.2091  -14.0575   18.5000 N   0  0  0  0  0  0  0  0  0  0  0  0
  -26.2599  -12.9061   20.3185 N   0  0  0  0  0  0  0  0  0  0  0  0
  -31.6190  -20.4182   16.6116 N   0  0  0  0  0  0  0  0  0  0  0  0
  -30.0569  -13.1327   20.6956 N   0  0  0  0  0  0  0  0  0  0  0  0
  -25.3952  -15.1083   20.4331 N   0  0  0  0  0  0  0  0  0  0  0  0
  -21.8073  -12.5302   21.3691 N   0  0  0  0  0  0  0  0  0  0  0  0
  -30.2394  -21.6928   19.7370 N   0  0  0  0  0  0  0  0  0  0  0  0
  -31.2541  -19.2091   13.4710 N   0  0  0  0  0  0  0  0  0  0  0  0
  -32.1264  -14.1805   21.2930 N   0  0  0  0  0  0  0  0  0  0  0  0
  -33.6938  -20.3547   11.0621 N   0  3  0  0  0  0  0  0  0  0  0  0
  -38.8446  -16.7088   21.3214 N   0  3  1  0  0  0  0  0  0  0  0  0
  -22.5284  -14.6902   21.0990 O   0  0  0  0  0  0  0  0  0  0  0  0
  -30.7248  -19.5913   18.8593 O   0  0  0  0  0  0  0  0  0  0  0  0
  -29.6389  -20.5902   15.3926 O   0  0  0  0  0  0  0  0  0  0  0  0
  -33.5280  -18.7643   13.3772 O   0  0  0  0  0  0  0  0  0  0  0  0
  -30.1221  -14.9016   22.1707 O   0  0  0  0  0  0  0  0  0  0  0  0
  -21.7239   -6.9652   21.6110 O   0  0  0  0  0  0  0  0  0  0  0  0
  -37.3136  -19.8880   18.9231 O   0  0  0  0  0  0  0  0  0  1  0  0
  -18.3331   -6.7965   25.9559 F   0  0  0  0  0  0  0  0  0  0  0  0
  -19.6328   -8.7578   21.8487 F   0  0  0  0  0  0  0  0  0  0  0  0
  -32.1358  -15.1439   23.9597 F   0  0  0  0  0  0  0  0  0  0  0  0
  1  2  1  0  0  0  0
  1  5  2  0  0  0  0
  2  6  2  0  0  0  0
  3  8  2  0  0  0  0
  3 16  1  0  0  0  0
  4  9  1  0  0  0  0
  4 16  2  0  0  0  0
  5 18  1  0  0  0  0
  6 20  1  0  0  0  0
  7 10  2  0  0  0  0
  7 19  1  0  0  0  0
  8 22  1  0  0  0  0
  9 22  2  0  0  0  0
 10 23  1  0  0  0  0
 11 12  2  0  0  0  0
 11 24  1  0  0  0  0
 12 25  1  0  0  0  0
 13 21  1  0  0  0  0
 13 23  2  0  0  0  0
 14 25  2  0  0  0  0
 14 26  1  0  0  0  0
 15 28  1  0  0  0  0
 15 29  2  0  0  0  0
 16 27  1  0  0  0  0
 17 27  1  0  0  0  0
 17 30  2  0  0  0  0
 17 31  1  0  0  0  0
 18 20  2  0  0  0  0
 18 36  1  0  0  0  0
 19 21  2  0  0  0  0
 19 37  1  0  0  0  0
 20 45  1  0  0  0  0
 21 38  1  0  0  0  0
 22 85  1  0  0  0  0
 23 86  1  0  0  0  0
 24 26  2  0  0  0  0
 24 85  1  0  0  0  0
 25 87  1  0  0  0  0
 26 88  1  0  0  0  0
 27 67  2  0  0  0  0
 28 55  1  0  0  0  0
 28 68  2  0  0  0  0
 29 56  1  0  0  0  0
 29 69  1  0  0  0  0
 30 70  1  0  0  0  0
 30 73  1  0  0  0  0
 31 74  1  0  0  0  0
 31 80  2  0  0  0  0
 32 46  1  0  0  0  0
 32 75  1  0  0  0  0
 32 81  2  0  0  0  0
 33 64  1  0  0  0  0
 33 71  1  0  0  0  0
 33 82  2  0  0  0  0
 34 65  1  0  0  0  0
 34 76  1  0  0  0  0
 34 83  2  0  0  0  0
 35 72  1  0  0  0  0
 35 77  1  0  0  0  0
 35 84  2  0  0  0  0
 36 39  1  0  0  0  0
 37 46  1  0  0  0  0
 38 71  1  0  0  0  0
 39 41  1  0  0  0  0
 40 42  1  0  0  0  0
 40 43  1  0  0  0  0
 41 45  1  0  0  0  0
 42 47  1  0  0  0  0
 43 72  1  0  0  0  0
 44 47  1  0  0  0  0
 44 72  1  0  0  0  0
 45 75  1  0  0  0  0
 46 71  1  0  0  0  0
 47 70  1  0  0  0  0
 48 65  1  0  0  0  0
 49 66  1  0  0  0  0
 50 66  1  0  0  0  0
 51 66  1  0  0  0  0
 52 69  1  0  0  0  0
 53 78  1  0  0  0  0
 54 79  1  0  0  0  0
 55 77  1  0  0  0  0
 56 57  1  0  0  0  0
 57 60  1  0  0  0  0
 58 61  1  0  0  0  0
 58 62  1  0  0  0  0
 59 63  1  0  0  0  0
 59 77  1  0  0  0  0
 60 79  1  0  0  0  0
 61 79  1  0  0  0  0
 62 86  1  0  0  0  0
 63 89  1  0  0  0  0
 64 66  1  0  0  0  0
 64 76  1  0  0  0  0
 65 78  1  0  0  0  0
 67 70  1  0  0  0  0
 68 69  1  0  0  0  0
M  CHG  2  78   1  79   1
M  ISO  4  35 100  62 101  77 100  86 101
M  END
> <Batch ID>
0056

> <Smiles>
CNC(C)C(=O)NC(C(=O)N1Cc2cc([101O:1][101CH2:1]CCN(C)CCCc3cc(C[100N:0](CCF)[100C:0](=O)N4CCCC(n5nc(-c6ccc(Oc7ccc(F)cc7F)cc6)c(C(N)=O)c5N)C4)nn3C)ccc2CC1C(=O)NC1CCCc2ccccc21)C(C)(C)C

> <Shape>
0.173

> <Color>
0.174

> <Negative vol penalty>
0.000

$$$$

  -OEChem-04052317463D

 82 90  0     1  0  0  0  0  0999 V2000
  -24.3352  -22.9684   18.3164 C   0  0  0  0  0  0  0  0  0  0  0  0
  -25.3647  -22.0470   18.1536 C   0  0  0  0  0  0  0  0  0  0  0  0
  -26.5932  -28.3799   18.8980 C   0  0  0  0  0  0  0  0  0  0  0  0
  -26.5555  -28.0077   21.2849 C   0  0  0  0  0  0  0  0  0  0  0  0
  -23.4104  -22.8038   19.3468 C   0  0  0  0  0  0  0  0  0  0  0  0
  -25.4707  -20.9610   19.0218 C   0  0  0  0  0  0  0  0  0  0  0  0
  -27.4073  -15.3179   17.6396 C   0  0  0  0  0  0  0  0  0  0  0  0
  -25.3956  -29.0891   18.9897 C   0  0  0  0  0  0  0  0  0  0  0  0
  -25.3579  -28.7169   21.3766 C   0  0  0  0  0  0  0  0  0  0  0  0
  -28.6385  -14.6834   17.7991 C   0  0  0  0  0  0  0  0  0  0  0  0
  -22.1054  -30.1206   22.1896 C   0  0  0  0  0  0  0  0  0  0  0  0
  -21.0883  -29.5768   22.9740 C   0  0  0  0  0  0  0  0  0  0  0  0
  -27.8643  -13.7143   19.8681 C   0  0  0  0  0  0  0  0  0  0  0  0
  -21.0587  -27.6095   21.5719 C   0  0  0  0  0  0  0  0  0  0  0  0
  -27.1732  -27.8392   20.0456 C   0  0  0  0  0  0  0  0  0  0  0  0
  -29.7151  -27.6239   20.0531 C   0  0  0  0  0  0  0  0  0  0  0  0
  -23.4994  -21.7100   20.2221 C   0  0  0  0  0  0  0  0  0  0  0  0
  -26.3975  -15.1638   18.6003 C   0  0  0  0  0  0  0  0  0  0  0  0
  -24.5470  -20.7824   20.0657 C   0  0  0  0  0  0  0  0  0  0  0  0
  -26.6203  -14.3459   19.7172 C   0  0  0  0  0  0  0  0  0  0  0  0
  -24.7780  -29.2576   20.2289 C   0  0  0  0  0  0  0  0  0  0  0  0
  -28.8681  -13.8838   18.9149 C   0  0  0  0  0  0  0  0  0  0  0  0
  -22.5991  -29.4088   21.0962 C   0  0  0  0  0  0  0  0  0  0  0  0
  -20.5650  -28.3212   22.6652 C   0  0  0  0  0  0  0  0  0  0  0  0
  -22.0758  -28.1533   20.7874 C   0  0  0  0  0  0  0  0  0  0  0  0
  -28.4100  -27.1060   19.9515 C   0  0  0  0  0  0  0  0  0  0  0  0
  -30.5315  -26.5306   19.8963 C   0  0  0  0  0  0  0  0  0  0  0  0
  -32.9749  -16.4273   20.4430 C   0  0  0  0  0  0  0  0  0  0  0  0
  -31.0912  -16.1831   21.5030 C   0  0  0  0  0  0  0  0  0  0  0  0
  -30.1504  -28.9727   20.2699 C   0  0  0  0  0  0  0  0  0  0  0  0
  -24.8372  -17.1308   20.5498 C   0  0  0  0  0  0  0  0  0  0  0  0
  -29.5567  -20.7638   20.9304 C   0  0  0  0  0  0  0  0  0  0  0  0
  -23.1015  -14.4713   21.2108 C   0  0  0  0  0  0  0  0  0  0  0  0
  -22.9347  -11.0633   21.2790 C   0  0  0  0  0  0  0  0  0  0  0  0
  -22.5043  -21.6000   21.3500 C   0  0  0  0  0  0  0  0  0  0  0  0
  -25.0656  -15.8335   18.4001 C   0  0  0  0  0  0  0  0  0  0  0  0
  -25.5619  -14.1317   20.7671 C   0  0  0  0  0  0  0  0  0  0  0  0
  -22.4667  -20.2177   21.9966 C   0  0  0  0  0  0  0  0  0  0  0  0
  -30.6941  -22.2377   17.8061 C   0  0  0  0  0  0  0  0  0  0  0  0
  -23.8816  -19.7191   22.2730 C   0  0  0  0  0  0  0  0  0  0  0  0
  -30.3246  -23.7066   18.0088 C   0  0  0  0  0  0  0  0  0  0  0  0
  -29.6694  -21.3072   18.4497 C   0  0  0  0  0  0  0  0  0  0  0  0
  -29.0691  -23.0451   20.1062 C   0  0  0  0  0  0  0  0  0  0  0  0
  -24.6808  -19.5778   20.9719 C   0  0  1  0  0  0  0  0  0  0  0  0
  -24.2890  -16.0195   19.7000 C   0  0  1  0  0  0  0  0  0  0  0  0
  -30.0938  -24.0172   19.4981 C   0  0  2  0  0  0  0  0  0  0  0  0
  -28.6243  -18.5799   20.3011 C   0  0  0  0  0  0  0  0  0  0  0  0
  -21.4009   -9.1782   21.9045 C   0  0  0  0  0  0  0  0  0  0  0  0
  -23.7027  -14.9643   24.1613 C   0  0  0  0  0  0  0  0  0  0  0  0
  -22.9896  -12.6103   24.6282 C   0  0  0  0  0  0  0  0  0  0  0  0
  -21.3572  -14.2416   23.6812 C   0  0  0  0  0  0  0  0  0  0  0  0
  -22.8877  -10.0278   18.5069 C   0  0  0  0  0  0  0  0  0  0  0  0
  -32.4281  -13.5812   19.3789 C   0  0  0  0  0  0  0  0  0  0  0  0
  -32.2834  -14.0540   20.8191 C   0  0  0  0  0  0  0  0  0  0  0  0
  -30.6809  -18.6935   21.7462 C   0  0  0  0  0  0  0  0  0  0  0  0
  -31.2133  -13.9136   18.5209 C   0  0  0  0  0  0  0  0  0  1  0  0
  -29.9137  -19.3380   20.5936 C   0  0  2  0  0  0  0  0  0  0  0  0
  -23.2089  -13.3459   22.2113 C   0  0  1  0  0  0  0  0  0  0  0  0
  -21.8722  -10.0968   20.7878 C   0  0  2  0  0  0  0  0  0  0  0  0
  -22.8354  -13.7959   23.6519 C   0  0  0  0  0  0  0  0  0  0  0  0
  -28.3935  -25.7863   19.7459 N   0  0  0  0  0  0  0  0  0  0  0  0
  -32.6141  -17.6517   20.6529 N   0  0  0  0  0  0  0  0  0  0  0  0
  -29.6983  -25.4658   19.7170 N   0  0  0  0  0  0  0  0  0  0  0  0
  -32.1302  -15.4794   20.9139 N   0  0  0  0  0  0  0  0  0  0  0  0
  -31.4229  -17.5355   21.3235 N   0  0  0  0  0  0  0  0  0  0  0  0
  -24.2785  -14.8129   20.5297 N   0  0  0  0  0  0  0  0  0  0  0  0
  -29.4576  -21.6534   19.8603 N   0  0  0  0  0  0  0  0  0  0  0  0
  -31.8737  -26.3858   19.8957 N   0  0  0  0  0  0  0  0  0  0  0  0
  -29.1796  -29.9738   20.4099 N   0  0  0  0  0  0  0  0  0  0  0  0
  -24.2963  -18.3714   20.2711 N   0  0  0  0  0  0  0  0  0  0  0  0
  -22.3859  -12.2587   21.6926 N   0  0  0  0  0  0  0  0  0  0  0  0
  -22.4094   -9.2547   19.6818 N   0  3  0  0  0  0  0  0  0  0  0  0
  -30.1007  -15.7292   22.0578 O   0  0  0  0  0  0  0  0  0  0  0  0
  -31.3646  -29.2835   20.3210 O   0  0  0  0  0  0  0  0  0  0  0  0
  -25.6869  -16.8809   21.3967 O   0  0  0  0  0  0  0  0  0  0  0  0
  -29.3745  -21.0762   22.1099 O   0  0  0  0  0  0  0  0  0  0  0  0
  -22.0119  -15.0220   21.0349 O   0  0  0  0  0  0  0  0  0  0  0  0
  -24.1315  -10.7843   21.2976 O   0  0  0  0  0  0  0  0  0  0  0  0
  -23.6095  -29.9498   20.3188 O   0  0  0  0  0  0  0  0  0  0  0  0
  -30.0692  -13.2639   19.0733 O   0  0  0  0  0  0  0  0  0  1  0  0
  -19.5894  -27.7985   23.4196 F   0  0  0  0  0  0  0  0  0  0  0  0
  -22.5469  -27.4643   19.7390 F   0  0  0  0  0  0  0  0  0  0  0  0
  1  2  1  0  0  0  0
  1  5  2  0  0  0  0
  2  6  2  0  0  0  0
  3  8  2  0  0  0  0
  3 15  1  0  0  0  0
  4  9  1  0  0  0  0
  4 15  2  0  0  0  0
  5 17  1  0  0  0  0
  6 19  1  0  0  0  0
  7 10  2  0  0  0  0
  7 18  1  0  0  0  0
  8 21  1  0  0  0  0
  9 21  2  0  0  0  0
 10 22  1  0  0  0  0
 11 12  2  0  0  0  0
 11 23  1  0  0  0  0
 12 24  1  0  0  0  0
 13 20  1  0  0  0  0
 13 22  2  0  0  0  0
 14 24  2  0  0  0  0
 14 25  1  0  0  0  0
 15 26  1  0  0  0  0
 16 26  1  0  0  0  0
 16 27  2  0  0  0  0
 16 30  1  0  0  0  0
 17 19  2  0  0  0  0
 17 35  1  0  0  0  0
 18 20  2  0  0  0  0
 18 36  1  0  0  0  0
 19 44  1  0  0  0  0
 20 37  1  0  0  0  0
 21 79  1  0  0  0  0
 22 80  1  0  0  0  0
 23 25  2  0  0  0  0
 23 79  1  0  0  0  0
 24 81  1  0  0  0  0
 25 82  1  0  0  0  0
 26 61  2  0  0  0  0
 27 63  1  0  0  0  0
 27 68  1  0  0  0  0
 28 62  2  0  0  0  0
 28 64  1  0  0  0  0
 29 64  1  0  0  0  0
 29 65  1  0  0  0  0
 29 73  2  0  0  0  0
 30 69  1  0  0  0  0
 30 74  2  0  0  0  0
 31 45  1  0  0  0  0
 31 70  1  0  0  0  0
 31 75  2  0  0  0  0
 32 57  1  0  0  0  0
 32 67  1  0  0  0  0
 32 76  2  0  0  0  0
 33 58  1  0  0  0  0
 33 66  1  0  0  0  0
 33 77  2  0  0  0  0
 34 59  1  0  0  0  0
 34 71  1  0  0  0  0
 34 78  2  0  0  0  0
 35 38  1  0  0  0  0
 36 45  1  0  0  0  0
 37 66  1  0  0  0  0
 38 40  1  0  0  0  0
 39 41  1  0  0  0  0
 39 42  1  0  0  0  0
 40 44  1  0  0  0  0
 41 46  1  0  0  0  0
 42 67  1  0  0  0  0
 43 46  1  0  0  0  0
 43 67  1  0  0  0  0
 44 70  1  0  0  0  0
 45 66  1  0  0  0  0
 46 63  1  0  0  0  0
 47 57  1  0  0  0  0
 48 59  1  0  0  0  0
 49 60  1  0  0  0  0
 50 60  1  0  0  0  0
 51 60  1  0  0  0  0
 52 72  1  0  0  0  0
 53 54  1  0  0  0  0
 53 56  1  0  0  0  0
 54 64  1  0  0  0  0
 55 57  1  0  0  0  0
 55 65  1  0  0  0  0
 56 80  1  0  0  0  0
 58 60  1  0  0  0  0
 58 71  1  0  0  0  0
 59 72  1  0  0  0  0
 61 63  1  0  0  0  0
 62 65  1  0  0  0  0
M  CHG  1  72   1
M  ISO  4  32 100  56 101  57 100  80 101
M  END
> <Batch ID>
0056

> <Smiles>
CNC(C)C(=O)NC(C(=O)N1Cc2cc([101O:1][101CH2:1]CCn3cnn(C[100CH:0](C)[100C:0](=O)N4CCCC(n5nc(-c6ccc(Oc7ccc(F)cc7F)cc6)c(C(N)=O)c5N)C4)c3=O)ccc2CC1C(=O)NC1CCCc2ccccc21)C(C)(C)C

> <Shape>
0.294

> <Color>
0.050

> <Negative vol penalty>
0.000

$$$$

  -OEChem-04052317463D

 86 94  0     1  0  0  0  0  0999 V2000
  -17.2086  -31.7219   20.6655 C   0  0  0  0  0  0  0  0  0  0  0  0
  -18.5619  -31.5200   20.4139 C   0  0  0  0  0  0  0  0  0  0  0  0
  -25.8752  -14.6212   21.3064 C   0  0  0  0  0  0  0  0  0  0  0  0
  -25.6161  -14.9408   18.9257 C   0  0  0  0  0  0  0  0  0  0  0  0
  -16.5827  -31.0305   21.7018 C   0  0  0  0  0  0  0  0  0  0  0  0
  -19.2903  -30.6273   21.1994 C   0  0  0  0  0  0  0  0  0  0  0  0
  -23.8957  -27.0273   19.3728 C   0  0  0  0  0  0  0  0  0  0  0  0
  -24.8388  -13.6879   21.2940 C   0  0  0  0  0  0  0  0  0  0  0  0
  -24.5796  -14.0073   18.9133 C   0  0  0  0  0  0  0  0  0  0  0  0
  -25.2809  -27.1601   19.4587 C   0  0  0  0  0  0  0  0  0  0  0  0
  -24.4209  -10.4406   20.4490 C   0  0  0  0  0  0  0  0  0  0  0  0
  -24.6107   -9.2519   21.1535 C   0  0  0  0  0  0  0  0  0  0  0  0
  -25.2778  -25.8276   21.4697 C   0  0  0  0  0  0  0  0  0  0  0  0
  -22.6930   -9.7625   22.5316 C   0  0  0  0  0  0  0  0  0  0  0  0
  -31.1968  -23.7759   21.7116 C   0  0  0  0  0  0  0  0  0  0  0  0
  -26.2639  -15.2477   20.1223 C   0  0  0  0  0  0  0  0  0  0  0  0
  -28.7071  -15.9613   19.9512 C   0  0  0  0  0  0  0  0  0  0  0  0
  -17.3015  -30.1216   22.4942 C   0  0  0  0  0  0  0  0  0  0  0  0
  -23.1887  -26.3016   20.3424 C   0  0  0  0  0  0  0  0  0  0  0  0
  -18.6737  -29.9241   22.2482 C   0  0  0  0  0  0  0  0  0  0  0  0
  -23.8839  -25.6850   21.3924 C   0  0  0  0  0  0  0  0  0  0  0  0
  -24.1910  -13.3809   20.0975 C   0  0  0  0  0  0  0  0  0  0  0  0
  -25.9718  -26.5626   20.5089 C   0  0  0  0  0  0  0  0  0  0  0  0
  -23.3673  -11.2904   20.7858 C   0  0  0  0  0  0  0  0  0  0  0  0
  -23.7467   -8.9128   22.1948 C   0  0  0  0  0  0  0  0  0  0  0  0
  -22.5033  -10.9513   21.8271 C   0  0  0  0  0  0  0  0  0  0  0  0
  -27.3341  -16.2124   20.1346 C   0  0  0  0  0  0  0  0  0  0  0  0
  -31.3934  -23.9733   20.3601 C   0  0  0  0  0  0  0  0  0  0  0  0
  -30.4158  -24.7206   22.3455 C   0  0  0  0  0  0  0  0  0  0  0  0
  -29.2985  -17.1968   20.0518 C   0  0  0  0  0  0  0  0  0  0  0  0
  -30.1291  -25.8619   20.4008 C   0  0  0  0  0  0  0  0  0  0  0  0
  -29.3870  -14.7220   19.7113 C   0  0  0  0  0  0  0  0  0  0  0  0
  -20.9267  -27.0033   22.4624 C   0  0  0  0  0  0  0  0  0  0  0  0
  -20.9538  -23.7995   22.9696 C   0  0  0  0  0  0  0  0  0  0  0  0
  -22.6676  -20.8533   22.7968 C   0  0  0  0  0  0  0  0  0  0  0  0
  -29.0857  -22.6378   18.4184 C   0  0  0  0  0  0  0  0  0  0  0  0
  -16.5926  -29.4328   23.6333 C   0  0  0  0  0  0  0  0  0  0  0  0
  -21.6977  -26.1454   20.2206 C   0  0  0  0  0  0  0  0  0  0  0  0
  -23.1740  -24.8783   22.4477 C   0  0  0  0  0  0  0  0  0  0  0  0
  -17.3488  -28.2245   24.1797 C   0  0  0  0  0  0  0  0  0  0  0  0
  -27.4476  -21.6379   21.5836 C   0  0  0  0  0  0  0  0  0  0  0  0
  -18.8209  -28.5655   24.3879 C   0  0  0  0  0  0  0  0  0  0  0  0
  -27.3255  -20.1226   21.4313 C   0  0  0  0  0  0  0  0  0  0  0  0
  -27.4377  -22.3464   20.2325 C   0  0  0  0  0  0  0  0  0  0  0  0
  -28.3429  -20.3275   19.1284 C   0  0  0  0  0  0  0  0  0  0  0  0
  -19.4920  -28.9455   23.0624 C   0  0  1  0  0  0  0  0  0  0  0  0
  -21.0212  -25.8151   21.5475 C   0  0  1  0  0  0  0  0  0  0  0  0
  -28.3966  -19.5800   20.4692 C   0  0  2  0  0  0  0  0  0  0  0  0
  -22.4415  -18.4093   23.3196 C   0  0  0  0  0  0  0  0  0  0  0  0
  -21.3607  -24.3984   25.9337 C   0  0  0  0  0  0  0  0  0  0  0  0
  -22.0678  -22.0171   26.2463 C   0  0  0  0  0  0  0  0  0  0  0  0
  -19.7598  -22.5375   25.4556 C   0  0  0  0  0  0  0  0  0  0  0  0
  -30.8890  -22.6888   16.7377 C   0  0  0  0  0  0  0  0  0  0  0  0
  -23.0297  -20.0941   19.9593 C   0  0  0  0  0  0  0  0  0  0  0  0
  -32.2239  -23.0032   19.5885 C   0  0  0  0  0  0  0  0  0  0  0  0
  -29.5255  -27.0327   19.6638 C   0  0  0  0  0  0  0  0  0  0  0  0
  -31.4179  -21.8425   18.9937 C   0  0  0  0  0  0  0  0  0  0  0  0
  -28.0427  -26.8314   19.3708 C   0  0  0  0  0  0  0  0  0  1  0  0
  -21.7125  -22.8682   23.8841 C   0  0  1  0  0  0  0  0  0  0  0  0
  -22.2733  -19.4885   22.2614 C   0  0  2  0  0  0  0  0  0  0  0  0
  -30.1458  -24.5901   23.8072 C   0  0  0  0  0  0  0  0  0  0  0  0
  -21.2387  -22.9721   25.3613 C   0  0  0  0  0  0  0  0  0  0  0  0
  -27.0689  -17.5058   20.3365 N   0  0  0  0  0  0  0  0  0  0  0  0
  -30.8726  -25.0093   19.6703 N   0  0  0  0  0  0  0  0  0  0  0  0
  -29.8641  -25.7803   21.7186 N   0  0  0  0  0  0  0  0  0  0  0  0
  -28.2834  -18.0785   20.2807 N   0  0  0  0  0  0  0  0  0  0  0  0
  -21.7152  -24.7598   22.2885 N   0  0  0  0  0  0  0  0  0  0  0  0
  -28.4356  -21.7822   19.3230 N   0  0  0  0  0  0  0  0  0  0  0  0
  -30.5827  -17.6042   19.9660 N   0  0  0  0  0  0  0  0  0  0  0  0
  -28.6273  -13.5466   19.6370 N   0  0  0  0  0  0  0  0  0  0  0  0
  -19.7840  -27.7599   22.2856 N   0  0  0  0  0  0  0  0  0  0  0  0
  -21.5828  -21.5345   23.3073 N   0  0  0  0  0  0  0  0  0  0  0  0
  -30.3989  -22.3043   18.0537 N   0  0  0  0  0  0  0  0  0  0  0  0
  -23.1164  -19.1298   21.0861 N   0  3  0  0  0  0  0  0  0  0  0  0
  -30.6332  -14.6567   19.5835 O   0  0  0  0  0  0  0  0  0  0  0  0
  -21.8233  -27.2169   23.2700 O   0  0  0  0  0  0  0  0  0  0  0  0
  -19.7317  -23.6746   22.8581 O   0  0  0  0  0  0  0  0  0  0  0  0
  -23.8229  -21.2715   22.7686 O   0  0  0  0  0  0  0  0  0  0  0  0
  -28.5277  -23.6476   17.9702 O   0  0  0  0  0  0  0  0  0  0  0  0
  -23.1798  -12.4699   20.0849 O   0  0  0  0  0  0  0  0  0  0  0  0
  -27.3238  -26.6912   20.5955 O   0  0  0  0  0  0  0  0  0  1  0  0
  -23.9281   -7.7704   22.8703 F   0  0  0  0  0  0  0  0  0  0  0  0
  -21.4886  -11.7631   22.1545 F   0  0  0  0  0  0  0  0  0  0  0  0
  -30.7325  -23.4959   24.3761 F   0  0  0  0  0  0  0  0  0  0  0  0
  -30.5875  -25.6537   24.5412 F   0  0  0  0  0  0  0  0  0  0  0  0
  -28.8147  -24.4792   24.0867 F   0  0  0  0  0  0  0  0  0  0  0  0
  1  2  1  0  0  0  0
  1  5  2  0  0  0  0
  2  6  2  0  0  0  0
  3  8  2  0  0  0  0
  3 16  1  0  0  0  0
  4  9  1  0  0  0  0
  4 16  2  0  0  0  0
  5 18  1  0  0  0  0
  6 20  1  0  0  0  0
  7 10  2  0  0  0  0
  7 19  1  0  0  0  0
  8 22  1  0  0  0  0
  9 22  2  0  0  0  0
 10 23  1  0  0  0  0
 11 12  2  0  0  0  0
 11 24  1  0  0  0  0
 12 25  1  0  0  0  0
 13 21  1  0  0  0  0
 13 23  2  0  0  0  0
 14 25  2  0  0  0  0
 14 26  1  0  0  0  0
 15 28  1  0  0  0  0
 15 29  2  0  0  0  0
 16 27  1  0  0  0  0
 17 27  1  0  0  0  0
 17 30  2  0  0  0  0
 17 32  1  0  0  0  0
 18 20  2  0  0  0  0
 18 37  1  0  0  0  0
 19 21  2  0  0  0  0
 19 38  1  0  0  0  0
 20 46  1  0  0  0  0
 21 39  1  0  0  0  0
 22 80  1  0  0  0  0
 23 81  1  0  0  0  0
 24 26  2  0  0  0  0
 24 80  1  0  0  0  0
 25 82  1  0  0  0  0
 26 83  1  0  0  0  0
 27 63  2  0  0  0  0
 28 55  1  0  0  0  0
 28 64  2  0  0  0  0
 29 61  1  0  0  0  0
 29 65  1  0  0  0  0
 30 66  1  0  0  0  0
 30 69  1  0  0  0  0
 31 56  1  0  0  0  0
 31 64  1  0  0  0  0
 31 65  2  0  0  0  0
 32 70  1  0  0  0  0
 32 75  2  0  0  0  0
 33 47  1  0  0  0  0
 33 71  1  0  0  0  0
 33 76  2  0  0  0  0
 34 59  1  0  0  0  0
 34 67  1  0  0  0  0
 34 77  2  0  0  0  0
 35 60  1  0  0  0  0
 35 72  1  0  0  0  0
 35 78  2  0  0  0  0
 36 68  1  0  0  0  0
 36 73  1  0  0  0  0
 36 79  2  0  0  0  0
 37 40  1  0  0  0  0
 38 47  1  0  0  0  0
 39 67  1  0  0  0  0
 40 42  1  0  0  0  0
 41 43  1  0  0  0  0
 41 44  1  0  0  0  0
 42 46  1  0  0  0  0
 43 48  1  0  0  0  0
 44 68  1  0  0  0  0
 45 48  1  0  0  0  0
 45 68  1  0  0  0  0
 46 71  1  0  0  0  0
 47 67  1  0  0  0  0
 48 66  1  0  0  0  0
 49 60  1  0  0  0  0
 50 62  1  0  0  0  0
 51 62  1  0  0  0  0
 52 62  1  0  0  0  0
 53 73  1  0  0  0  0
 54 74  1  0  0  0  0
 55 57  1  0  0  0  0
 56 58  1  0  0  0  0
 57 73  1  0  0  0  0
 58 81  1  0  0  0  0
 59 62  1  0  0  0  0
 59 72  1  0  0  0  0
 60 74  1  0  0  0  0
 61 84  1  0  0  0  0
 61 85  1  0  0  0  0
 61 86  1  0  0  0  0
 63 66  1  0  0  0  0
M  CHG  1  74   1
M  ISO  4  36 100  58 101  73 100  81 101
M  END
> <Batch ID>
0056

> <Smiles>
CNC(C)C(=O)NC(C(=O)N1Cc2cc([101O:1][101CH2:1]Cc3nc(CC[100N:0](C)[100C:0](=O)N4CCCC(n5nc(-c6ccc(Oc7ccc(F)cc7F)cc6)c(C(N)=O)c5N)C4)cc(C(F)(F)F)n3)ccc2CC1C(=O)NC1CCCc2ccccc21)C(C)(C)C

> <Shape>
0.237

> <Color>
0.075

> <Negative vol penalty>
0.000

$$$$

  -OEChem-04052317463D

 85 93  0     1  0  0  0  0  0999 V2000
  -16.3661  -28.9566   23.3697 C   0  0  0  0  0  0  0  0  0  0  0  0
  -17.2558  -28.0501   22.8020 C   0  0  0  0  0  0  0  0  0  0  0  0
  -27.3184  -11.5119   20.8690 C   0  0  0  0  0  0  0  0  0  0  0  0
  -26.8832  -12.2483   18.6095 C   0  0  0  0  0  0  0  0  0  0  0  0
  -16.8379  -30.1590   23.8947 C   0  0  0  0  0  0  0  0  0  0  0  0
  -18.6178  -28.3460   22.7581 C   0  0  0  0  0  0  0  0  0  0  0  0
  -23.2635  -24.3907   23.2865 C   0  0  0  0  0  0  0  0  0  0  0  0
  -26.2874  -10.5784   20.7634 C   0  0  0  0  0  0  0  0  0  0  0  0
  -25.8521  -11.3148   18.5039 C   0  0  0  0  0  0  0  0  0  0  0  0
  -24.0728  -23.7627   22.3408 C   0  0  0  0  0  0  0  0  0  0  0  0
  -23.5331   -8.2471   21.2132 C   0  0  0  0  0  0  0  0  0  0  0  0
  -22.6441   -8.1367   22.2824 C   0  0  0  0  0  0  0  0  0  0  0  0
  -25.7405  -25.4805   22.6360 C   0  0  0  0  0  0  0  0  0  0  0  0
  -22.0205  -10.4541   22.0033 C   0  0  0  0  0  0  0  0  0  0  0  0
  -27.6163  -12.3469   19.7921 C   0  0  0  0  0  0  0  0  0  0  0  0
  -30.0375  -13.1209   19.5770 C   0  0  0  0  0  0  0  0  0  0  0  0
  -18.2075  -30.4655   23.8658 C   0  0  0  0  0  0  0  0  0  0  0  0
  -23.6826  -25.5763   23.9071 C   0  0  0  0  0  0  0  0  0  0  0  0
  -19.1082  -29.5542   23.2820 C   0  0  0  0  0  0  0  0  0  0  0  0
  -24.9358  -26.1202   23.5911 C   0  0  0  0  0  0  0  0  0  0  0  0
  -25.5543  -10.4798   19.5808 C   0  0  0  0  0  0  0  0  0  0  0  0
  -25.3103  -24.3091   22.0133 C   0  0  0  0  0  0  0  0  0  0  0  0
  -23.6659   -9.4611   20.5391 C   0  0  0  0  0  0  0  0  0  0  0  0
  -21.8878   -9.2401   22.6774 C   0  0  0  0  0  0  0  0  0  0  0  0
  -22.9096  -10.5645   20.9341 C   0  0  0  0  0  0  0  0  0  0  0  0
  -28.6808  -13.3118   19.9008 C   0  0  0  0  0  0  0  0  0  0  0  0
  -29.4058  -23.6895   19.4917 C   0  0  0  0  0  0  0  0  0  0  0  0
  -27.9650  -21.9054   18.1247 C   0  0  0  0  0  0  0  0  0  0  0  0
  -29.3067  -22.0826   17.8676 C   0  0  0  0  0  0  0  0  0  0  0  0
  -28.0640  -23.5129   19.7484 C   0  0  0  0  0  0  0  0  0  0  0  0
  -30.6301  -14.3283   19.8555 C   0  0  0  0  0  0  0  0  0  0  0  0
  -30.7026  -11.9563   19.0698 C   0  0  0  0  0  0  0  0  0  0  0  0
  -22.5908  -28.5597   24.0135 C   0  0  0  0  0  0  0  0  0  0  0  0
  -24.9837  -28.9448   26.1695 C   0  0  0  0  0  0  0  0  0  0  0  0
  -27.9994  -27.8905   27.3698 C   0  0  0  0  0  0  0  0  0  0  0  0
  -30.7489  -19.8224   19.7615 C   0  0  0  0  0  0  0  0  0  0  0  0
  -18.6645  -31.7986   24.4032 C   0  0  0  0  0  0  0  0  0  0  0  0
  -22.8095  -26.2271   24.9447 C   0  0  0  0  0  0  0  0  0  0  0  0
  -25.4407  -27.3802   24.2437 C   0  0  0  0  0  0  0  0  0  0  0  0
  -20.1685  -31.8707   24.6547 C   0  0  0  0  0  0  0  0  0  0  0  0
  -28.8762  -18.3830   22.3006 C   0  0  0  0  0  0  0  0  0  0  0  0
  -20.9366  -31.3062   23.4639 C   0  0  0  0  0  0  0  0  0  0  0  0
  -28.7596  -16.9171   21.8855 C   0  0  0  0  0  0  0  0  0  0  0  0
  -28.7292  -19.3035   21.0949 C   0  0  0  0  0  0  0  0  0  0  0  0
  -29.6096  -17.5613   19.5748 C   0  0  0  0  0  0  0  0  0  0  0  0
  -20.5958  -29.8283   23.2380 C   0  0  1  0  0  0  0  0  0  0  0  0
  -23.1135  -27.7096   25.1369 C   0  0  1  0  0  0  0  0  0  0  0  0
  -29.7525  -16.5827   20.7586 C   0  0  2  0  0  0  0  0  0  0  0  0
  -30.2182  -24.6832   20.2493 C   0  0  0  0  0  0  0  0  0  0  0  0
  -25.6533  -21.0992   17.5839 C   0  0  0  0  0  0  0  0  0  0  0  0
  -33.4861  -18.9192   18.1920 C   0  0  0  0  0  0  0  0  0  0  0  0
  -29.7217  -28.4267   29.1143 C   0  0  0  0  0  0  0  0  0  0  0  0
  -25.9525  -31.2981   24.4863 C   0  0  0  0  0  0  0  0  0  0  0  0
  -28.1367  -31.1800   25.7043 C   0  0  0  0  0  0  0  0  0  0  0  0
  -26.0376  -31.6775   26.9568 C   0  0  0  0  0  0  0  0  0  0  0  0
  -27.6692  -25.2537   28.6724 C   0  0  0  0  0  0  0  0  0  0  0  0
  -27.1530  -20.9114   17.3671 C   0  0  0  0  0  0  0  0  0  0  0  0
  -30.0086  -21.2887   16.8193 C   0  0  0  0  0  0  0  0  0  0  0  0
  -27.3573  -24.3130   20.8027 C   0  0  0  0  0  0  0  0  0  1  0  0
  -32.6237  -20.1653   18.1978 C   0  0  0  0  0  0  0  0  0  0  0  0
  -30.3615  -19.8630   17.2609 C   0  0  0  0  0  0  0  0  0  0  0  0
  -26.4397  -29.3360   26.0922 C   0  0  1  0  0  0  0  0  0  0  0  0
  -28.4801  -27.6135   28.7828 C   0  0  2  0  0  0  0  0  0  0  0  0
  -26.6315  -30.8502   25.7960 C   0  0  0  0  0  0  0  0  0  0  0  0
  -28.4265  -14.5434   20.3506 N   0  0  0  0  0  0  0  0  0  0  0  0
  -30.0512  -22.9776   18.5466 N   0  0  0  0  0  0  0  0  0  0  0  0
  -27.3196  -22.6176   19.0695 N   0  0  0  0  0  0  0  0  0  0  0  0
  -29.6314  -15.1373   20.3116 N   0  0  0  0  0  0  0  0  0  0  0  0
  -24.5478  -27.9828   25.2473 N   0  0  0  0  0  0  0  0  0  0  0  0
  -29.6836  -18.9541   20.0424 N   0  0  0  0  0  0  0  0  0  0  0  0
  -31.9029  -14.7661   19.7522 N   0  0  0  0  0  0  0  0  0  0  0  0
  -29.9438  -10.8005   18.8401 N   0  0  0  0  0  0  0  0  0  0  0  0
  -21.2926  -28.9968   24.1958 N   0  0  0  0  0  0  0  0  0  0  0  0
  -27.0492  -28.8893   27.3401 N   0  0  0  0  0  0  0  0  0  0  0  0
  -31.2234  -19.8497   18.4414 N   0  0  0  0  0  0  0  0  0  0  0  0
  -28.8074  -26.1687   28.9447 N   0  3  0  0  0  0  0  0  0  0  0  0
  -31.9361  -11.9361   18.8431 O   0  0  0  0  0  0  0  0  0  0  0  0
  -23.3123  -28.8023   23.0532 O   0  0  0  0  0  0  0  0  0  0  0  0
  -24.2613  -29.4680   27.0216 O   0  0  0  0  0  0  0  0  0  0  0  0
  -28.4270  -27.2843   26.3899 O   0  0  0  0  0  0  0  0  0  0  0  0
  -31.2449  -20.5403   20.6395 O   0  0  0  0  0  0  0  0  0  0  0  0
  -24.5483   -9.5689   19.4773 O   0  0  0  0  0  0  0  0  0  0  0  0
  -26.1019  -23.6984   21.0901 O   0  0  0  0  0  0  0  0  0  1  0  0
  -21.0331   -9.1335   23.7032 F   0  0  0  0  0  0  0  0  0  0  0  0
  -23.0319  -11.7330   20.2896 F   0  0  0  0  0  0  0  0  0  0  0  0
  1  2  1  0  0  0  0
  1  5  2  0  0  0  0
  2  6  2  0  0  0  0
  3  8  2  0  0  0  0
  3 15  1  0  0  0  0
  4  9  1  0  0  0  0
  4 15  2  0  0  0  0
  5 17  1  0  0  0  0
  6 19  1  0  0  0  0
  7 10  2  0  0  0  0
  7 18  1  0  0  0  0
  8 21  1  0  0  0  0
  9 21  2  0  0  0  0
 10 22  1  0  0  0  0
 11 12  2  0  0  0  0
 11 23  1  0  0  0  0
 12 24  1  0  0  0  0
 13 20  1  0  0  0  0
 13 22  2  0  0  0  0
 14 24  2  0  0  0  0
 14 25  1  0  0  0  0
 15 26  1  0  0  0  0
 16 26  1  0  0  0  0
 16 31  2  0  0  0  0
 16 32  1  0  0  0  0
 17 19  2  0  0  0  0
 17 37  1  0  0  0  0
 18 20  2  0  0  0  0
 18 38  1  0  0  0  0
 19 46  1  0  0  0  0
 20 39  1  0  0  0  0
 21 82  1  0  0  0  0
 22 83  1  0  0  0  0
 23 25  2  0  0  0  0
 23 82  1  0  0  0  0
 24 84  1  0  0  0  0
 25 85  1  0  0  0  0
 26 65  2  0  0  0  0
 27 30  1  0  0  0  0
 27 49  1  0  0  0  0
 27 66  2  0  0  0  0
 28 29  2  0  0  0  0
 28 57  1  0  0  0  0
 28 67  1  0  0  0  0
 29 58  1  0  0  0  0
 29 66  1  0  0  0  0
 30 59  1  0  0  0  0
 30 67  2  0  0  0  0
 31 68  1  0  0  0  0
 31 71  1  0  0  0  0
 32 72  1  0  0  0  0
 32 77  2  0  0  0  0
 33 47  1  0  0  0  0
 33 73  1  0  0  0  0
 33 78  2  0  0  0  0
 34 62  1  0  0  0  0
 34 69  1  0  0  0  0
 34 79  2  0  0  0  0
 35 63  1  0  0  0  0
 35 74  1  0  0  0  0
 35 80  2  0  0  0  0
 36 70  1  0  0  0  0
 36 75  1  0  0  0  0
 36 81  2  0  0  0  0
 37 40  1  0  0  0  0
 38 47  1  0  0  0  0
 39 69  1  0  0  0  0
 40 42  1  0  0  0  0
 41 43  1  0  0  0  0
 41 44  1  0  0  0  0
 42 46  1  0  0  0  0
 43 48  1  0  0  0  0
 44 70  1  0  0  0  0
 45 48  1  0  0  0  0
 45 70  1  0  0  0  0
 46 73  1  0  0  0  0
 47 69  1  0  0  0  0
 48 68  1  0  0  0  0
 50 57  1  0  0  0  0
 51 60  1  0  0  0  0
 52 63  1  0  0  0  0
 53 64  1  0  0  0  0
 54 64  1  0  0  0  0
 55 64  1  0  0  0  0
 56 76  1  0  0  0  0
 58 61  1  0  0  0  0
 59 83  1  0  0  0  0
 60 75  1  0  0  0  0
 61 75  1  0  0  0  0
 62 64  1  0  0  0  0
 62 74  1  0  0  0  0
 63 76  1  0  0  0  0
 65 68  1  0  0  0  0
M  CHG  1  76   1
M  ISO  4  36 100  59 101  75 100  83 101
M  END
> <Batch ID>
0056

> <Smiles>
CCc1nc([101CH2:1][101O:1]c2ccc3c(c2)CN(C(=O)C(NC(=O)C(C)NC)C(C)(C)C)C(C(=O)NC2CCCc4ccccc42)C3)c(C)nc1CC[100N:0](CC)[100C:0](=O)N1CCCC(n2nc(-c3ccc(Oc4ccc(F)cc4F)cc3)c(C(N)=O)c2N)C1

> <Shape>
0.250

> <Color>
0.095

> <Negative vol penalty>
0.000

$$$$

  -OEChem-04052317463D

 85 93  0     1  0  0  0  0  0999 V2000
  -21.0043  -30.9108   16.2871 C   0  0  0  0  0  0  0  0  0  0  0  0
  -21.0114  -29.5233   16.1863 C   0  0  0  0  0  0  0  0  0  0  0  0
  -23.1201   -9.8764   19.9423 C   0  0  0  0  0  0  0  0  0  0  0  0
  -23.9093   -9.8917   22.2258 C   0  0  0  0  0  0  0  0  0  0  0  0
  -22.1152  -31.6444   15.8730 C   0  0  0  0  0  0  0  0  0  0  0  0
  -22.1292  -28.8686   15.6702 C   0  0  0  0  0  0  0  0  0  0  0  0
  -24.3138  -23.4089   17.3805 C   0  0  0  0  0  0  0  0  0  0  0  0
  -22.4045   -8.7067   20.1974 C   0  0  0  0  0  0  0  0  0  0  0  0
  -23.1936   -8.7219   22.4809 C   0  0  0  0  0  0  0  0  0  0  0  0
  -24.1732  -22.1313   16.8404 C   0  0  0  0  0  0  0  0  0  0  0  0
  -19.9913   -7.8528   23.1218 C   0  0  0  0  0  0  0  0  0  0  0  0
  -19.2506   -7.7925   24.3022 C   0  0  0  0  0  0  0  0  0  0  0  0
  -26.2673  -22.4006   15.6737 C   0  0  0  0  0  0  0  0  0  0  0  0
  -20.5427   -5.8796   25.0153 C   0  0  0  0  0  0  0  0  0  0  0  0
  -23.8726  -10.4689   20.9565 C   0  0  0  0  0  0  0  0  0  0  0  0
  -24.1586  -13.0012   20.8417 C   0  0  0  0  0  0  0  0  0  0  0  0
  -23.2510  -30.9978   15.3605 C   0  0  0  0  0  0  0  0  0  0  0  0
  -25.4288  -24.1975   17.0621 C   0  0  0  0  0  0  0  0  0  0  0  0
  -23.2559  -29.5943   15.2475 C   0  0  0  0  0  0  0  0  0  0  0  0
  -26.4210  -23.6869   16.2131 C   0  0  0  0  0  0  0  0  0  0  0  0
  -22.4412   -8.1294   21.4667 C   0  0  0  0  0  0  0  0  0  0  0  0
  -25.1486  -21.6281   15.9846 C   0  0  0  0  0  0  0  0  0  0  0  0
  -21.0077   -6.9264   22.8881 C   0  0  0  0  0  0  0  0  0  0  0  0
  -19.5263   -6.8059   25.2489 C   0  0  0  0  0  0  0  0  0  0  0  0
  -21.2834   -5.9399   23.8349 C   0  0  0  0  0  0  0  0  0  0  0  0
  -24.6126  -11.6769   20.6934 C   0  0  0  0  0  0  0  0  0  0  0  0
  -25.2297  -13.7753   20.4672 C   0  0  0  0  0  0  0  0  0  0  0  0
  -26.4656  -18.0063   17.7815 C   0  0  0  0  0  0  0  0  0  0  0  0
  -27.4272  -18.8936   19.4079 C   0  0  0  0  0  0  0  0  0  0  0  0
  -22.8829  -13.4881   21.2788 C   0  0  0  0  0  0  0  0  0  0  0  0
  -25.8577  -26.9972   15.6194 C   0  0  0  0  0  0  0  0  0  0  0  0
  -28.9419  -26.5471   16.5183 C   0  0  0  0  0  0  0  0  0  0  0  0
  -31.4157  -24.3648   17.3928 C   0  0  0  0  0  0  0  0  0  0  0  0
  -30.8266  -14.6062   21.0159 C   0  0  0  0  0  0  0  0  0  0  0  0
  -24.4096  -31.8362   14.8817 C   0  0  0  0  0  0  0  0  0  0  0  0
  -25.5789  -25.5633   17.6741 C   0  0  0  0  0  0  0  0  0  0  0  0
  -27.6470  -24.4855   15.8559 C   0  0  0  0  0  0  0  0  0  0  0  0
  -25.6998  -31.0422   14.6948 C   0  0  0  0  0  0  0  0  0  0  0  0
  -29.5744  -12.5443   18.2083 C   0  0  0  0  0  0  0  0  0  0  0  0
  -25.4248  -29.7474   13.9367 C   0  0  0  0  0  0  0  0  0  0  0  0
  -28.1588  -12.1902   18.6606 C   0  0  0  0  0  0  0  0  0  0  0  0
  -30.5076  -12.7740   19.3933 C   0  0  0  0  0  0  0  0  0  0  0  0
  -28.5955  -13.4336   20.8156 C   0  0  0  0  0  0  0  0  0  0  0  0
  -24.4593  -28.8463   14.7161 C   0  0  1  0  0  0  0  0  0  0  0  0
  -26.5009  -26.4784   16.8743 C   0  0  1  0  0  0  0  0  0  0  0  0
  -27.6186  -13.2413   19.6459 C   0  0  2  0  0  0  0  0  0  0  0  0
  -27.2380  -20.6933   22.8182 C   0  0  0  0  0  0  0  0  0  0  0  0
  -33.8404  -24.2903   18.0350 C   0  0  0  0  0  0  0  0  0  0  0  0
  -29.7252  -26.9906   13.6028 C   0  0  0  0  0  0  0  0  0  0  0  0
  -31.9583  -25.9849   14.1225 C   0  0  0  0  0  0  0  0  0  0  0  0
  -31.2396  -28.0814   15.2675 C   0  0  0  0  0  0  0  0  0  0  0  0
  -31.2114  -16.8077   22.0575 C   0  0  0  0  0  0  0  0  0  0  0  0
  -30.7984  -23.1914   20.0387 C   0  0  0  0  0  0  0  0  0  0  0  0
  -25.4507  -17.7672   16.6923 C   0  0  0  0  0  0  0  0  0  0  0  0
  -27.8539  -19.7421   20.5350 C   0  0  0  0  0  0  0  0  0  0  0  0
  -26.7813  -19.8491   21.6390 C   0  0  0  0  0  0  0  0  0  0  0  0
  -25.9358  -18.1723   15.2987 C   0  0  0  0  0  0  0  0  0  0  0  0
  -29.3313  -17.2452   19.5519 C   0  0  0  0  0  0  0  0  0  0  0  0
  -29.1005  -16.4474   20.8327 C   0  0  0  0  0  0  0  0  0  0  0  0
  -26.2133  -19.6652   15.1663 C   0  0  0  0  0  0  0  0  0  1  0  0
  -30.1508  -25.8886   15.8986 C   0  0  1  0  0  0  0  0  0  0  0  0
  -32.4088  -24.3754   18.5409 C   0  0  2  0  0  0  0  0  0  0  0  0
  -30.7445  -26.7218   14.7279 C   0  0  0  0  0  0  0  0  0  0  0  0
  -25.8737  -11.6098   20.2586 N   0  0  0  0  0  0  0  0  0  0  0  0
  -26.3688  -19.0567   18.6486 N   0  0  0  0  0  0  0  0  0  0  0  0
  -27.5173  -17.2034   17.9566 N   0  0  0  0  0  0  0  0  0  0  0  0
  -26.2213  -12.9016   20.1303 N   0  0  0  0  0  0  0  0  0  0  0  0
  -28.1159  -17.7930   19.0026 N   0  0  0  0  0  0  0  0  0  0  0  0
  -27.7452  -25.8178   16.4747 N   0  0  0  0  0  0  0  0  0  0  0  0
  -29.9502  -13.7450   20.3355 N   0  0  0  0  0  0  0  0  0  0  0  0
  -25.4105  -15.1112   20.3966 N   0  0  0  0  0  0  0  0  0  0  0  0
  -21.8951  -12.5562   21.6256 N   0  0  0  0  0  0  0  0  0  0  0  0
  -25.1537  -28.1735   15.7929 N   0  0  0  0  0  0  0  0  0  0  0  0
  -31.0860  -25.6419   16.9909 N   0  0  0  0  0  0  0  0  0  0  0  0
  -30.3367  -15.8749   21.3613 N   0  0  0  0  0  0  0  0  0  0  0  0
  -32.1620  -23.2205   19.4499 N   0  3  0  0  0  0  0  0  0  0  0  0
  -22.6211  -14.7132   21.3439 O   0  0  0  0  0  0  0  0  0  0  0  0
  -25.9916  -26.3771   14.5710 O   0  0  0  0  0  0  0  0  0  0  0  0
  -29.0567  -27.6642   17.0287 O   0  0  0  0  0  0  0  0  0  0  0  0
  -30.9792  -23.3274   16.8992 O   0  0  0  0  0  0  0  0  0  0  0  0
  -31.9841  -14.2644   21.2900 O   0  0  0  0  0  0  0  0  0  0  0  0
  -21.7427   -6.9881   21.7161 O   0  0  0  0  0  0  0  0  0  0  0  0
  -25.0135  -20.3816   15.4555 O   0  0  0  0  0  0  0  0  0  1  0  0
  -18.8159   -6.7491   26.3831 F   0  0  0  0  0  0  0  0  0  0  0  0
  -22.2594   -5.0479   23.6165 F   0  0  0  0  0  0  0  0  0  0  0  0
  1  2  1  0  0  0  0
  1  5  2  0  0  0  0
  2  6  2  0  0  0  0
  3  8  2  0  0  0  0
  3 15  1  0  0  0  0
  4  9  1  0  0  0  0
  4 15  2  0  0  0  0
  5 17  1  0  0  0  0
  6 19  1  0  0  0  0
  7 10  2  0  0  0  0
  7 18  1  0  0  0  0
  8 21  1  0  0  0  0
  9 21  2  0  0  0  0
 10 22  1  0  0  0  0
 11 12  2  0  0  0  0
 11 23  1  0  0  0  0
 12 24  1  0  0  0  0
 13 20  1  0  0  0  0
 13 22  2  0  0  0  0
 14 24  2  0  0  0  0
 14 25  1  0  0  0  0
 15 26  1  0  0  0  0
 16 26  1  0  0  0  0
 16 27  2  0  0  0  0
 16 30  1  0  0  0  0
 17 19  2  0  0  0  0
 17 35  1  0  0  0  0
 18 20  2  0  0  0  0
 18 36  1  0  0  0  0
 19 44  1  0  0  0  0
 20 37  1  0  0  0  0
 21 82  1  0  0  0  0
 22 83  1  0  0  0  0
 23 25  2  0  0  0  0
 23 82  1  0  0  0  0
 24 84  1  0  0  0  0
 25 85  1  0  0  0  0
 26 64  2  0  0  0  0
 27 67  1  0  0  0  0
 27 71  1  0  0  0  0
 28 54  1  0  0  0  0
 28 65  1  0  0  0  0
 28 66  2  0  0  0  0
 29 55  1  0  0  0  0
 29 65  2  0  0  0  0
 29 68  1  0  0  0  0
 30 72  1  0  0  0  0
 30 77  2  0  0  0  0
 31 45  1  0  0  0  0
 31 73  1  0  0  0  0
 31 78  2  0  0  0  0
 32 61  1  0  0  0  0
 32 69  1  0  0  0  0
 32 79  2  0  0  0  0
 33 62  1  0  0  0  0
 33 74  1  0  0  0  0
 33 80  2  0  0  0  0
 34 70  1  0  0  0  0
 34 75  1  0  0  0  0
 34 81  2  0  0  0  0
 35 38  1  0  0  0  0
 36 45  1  0  0  0  0
 37 69  1  0  0  0  0
 38 40  1  0  0  0  0
 39 41  1  0  0  0  0
 39 42  1  0  0  0  0
 40 44  1  0  0  0  0
 41 46  1  0  0  0  0
 42 70  1  0  0  0  0
 43 46  1  0  0  0  0
 43 70  1  0  0  0  0
 44 73  1  0  0  0  0
 45 69  1  0  0  0  0
 46 67  1  0  0  0  0
 47 56  1  0  0  0  0
 48 62  1  0  0  0  0
 49 63  1  0  0  0  0
 50 63  1  0  0  0  0
 51 63  1  0  0  0  0
 52 75  1  0  0  0  0
 53 76  1  0  0  0  0
 54 57  1  0  0  0  0
 55 56  1  0  0  0  0
 57 60  1  0  0  0  0
 58 59  1  0  0  0  0
 58 68  1  0  0  0  0
 59 75  1  0  0  0  0
 60 83  1  0  0  0  0
 61 63  1  0  0  0  0
 61 74  1  0  0  0  0
 62 76  1  0  0  0  0
 64 67  1  0  0  0  0
 66 68  1  0  0  0  0
M  CHG  1  76   1
M  ISO  4  34 100  60 101  75 100  83 101
M  END
> <Batch ID>
0056

> <Smiles>
CCCc1nc(CC[101CH2:1][101O:1]c2ccc3c(c2)CN(C(=O)C(NC(=O)C(C)NC)C(C)(C)C)C(C(=O)NC2CCCc4ccccc42)C3)nn1CC[100N:0](C)[100C:0](=O)N1CCCC(n2nc(-c3ccc(Oc4ccc(F)cc4F)cc3)c(C(N)=O)c2N)C1

> <Shape>
0.214

> <Color>
0.173

> <Negative vol penalty>
0.000

$$$$

  -OEChem-04052317463D

 84 92  0     1  0  0  0  0  0999 V2000
  -23.8814  -36.1521   15.9339 C   0  0  0  0  0  0  0  0  0  0  0  0
  -24.5896  -34.9553   15.9731 C   0  0  0  0  0  0  0  0  0  0  0  0
  -28.3862  -13.7930   22.0249 C   0  0  0  0  0  0  0  0  0  0  0  0
  -26.4494  -15.0278   21.2757 C   0  0  0  0  0  0  0  0  0  0  0  0
  -23.6701  -36.8744   17.1075 C   0  0  0  0  0  0  0  0  0  0  0  0
  -25.0878  -34.4806   17.1859 C   0  0  0  0  0  0  0  0  0  0  0  0
  -25.5791  -28.6298   18.9271 C   0  0  0  0  0  0  0  0  0  0  0  0
  -27.7505  -12.5960   21.6954 C   0  0  0  0  0  0  0  0  0  0  0  0
  -25.8137  -13.8307   20.9461 C   0  0  0  0  0  0  0  0  0  0  0  0
  -26.6509  -27.7382   18.9278 C   0  0  0  0  0  0  0  0  0  0  0  0
  -24.1697  -11.3564   22.5603 C   0  0  0  0  0  0  0  0  0  0  0  0
  -22.8369  -11.2038   22.9422 C   0  0  0  0  0  0  0  0  0  0  0  0
  -27.0867  -28.2731   21.2393 C   0  0  0  0  0  0  0  0  0  0  0  0
  -22.2047  -10.9306   20.6264 C   0  0  0  0  0  0  0  0  0  0  0  0
  -28.6000  -24.3328   23.3930 C   0  0  0  0  0  0  0  0  0  0  0  0
  -27.7356  -15.0090   21.8151 C   0  0  0  0  0  0  0  0  0  0  0  0
  -29.2129  -17.0298   21.3237 C   0  0  0  0  0  0  0  0  0  0  0  0
  -24.1576  -36.4035   18.3368 C   0  0  0  0  0  0  0  0  0  0  0  0
  -25.2592  -29.3591   20.0813 C   0  0  0  0  0  0  0  0  0  0  0  0
  -24.8839  -35.1980   18.3769 C   0  0  0  0  0  0  0  0  0  0  0  0
  -26.0087  -29.1714   21.2515 C   0  0  0  0  0  0  0  0  0  0  0  0
  -26.4643  -12.6148   21.1560 C   0  0  0  0  0  0  0  0  0  0  0  0
  -27.4067  -27.5619   20.0831 C   0  0  0  0  0  0  0  0  0  0  0  0
  -24.5201  -11.2961   21.2115 C   0  0  0  0  0  0  0  0  0  0  0  0
  -21.8543  -10.9910   21.9753 C   0  0  0  0  0  0  0  0  0  0  0  0
  -23.5376  -11.0832   20.2446 C   0  0  0  0  0  0  0  0  0  0  0  0
  -28.3914  -16.2458   22.1558 C   0  0  0  0  0  0  0  0  0  0  0  0
  -27.8421  -23.1926   23.5446 C   0  0  0  0  0  0  0  0  0  0  0  0
  -28.6994  -23.9671   21.1378 C   0  0  0  0  0  0  0  0  0  0  0  0
  -27.9421  -22.8264   21.2894 C   0  0  0  0  0  0  0  0  0  0  0  0
  -29.5847  -18.0922   22.1108 C   0  0  0  0  0  0  0  0  0  0  0  0
  -29.6047  -16.8168   19.9610 C   0  0  0  0  0  0  0  0  0  0  0  0
  -25.1611  -32.4472   20.8282 C   0  0  0  0  0  0  0  0  0  0  0  0
  -23.9136  -31.3355   23.6085 C   0  0  0  0  0  0  0  0  0  0  0  0
  -23.5967  -28.7491   25.8124 C   0  0  0  0  0  0  0  0  0  0  0  0
  -26.7938  -20.2943   27.1008 C   0  0  0  0  0  0  0  0  0  0  0  0
  -23.9450  -37.2430   19.5717 C   0  0  0  0  0  0  0  0  0  0  0  0
  -24.0834  -30.2971   20.0721 C   0  0  0  0  0  0  0  0  0  0  0  0
  -25.6938  -29.9152   22.5227 C   0  0  0  0  0  0  0  0  0  0  0  0
  -24.1828  -36.4823   20.8736 C   0  0  0  0  0  0  0  0  0  0  0  0
  -30.3354  -19.3073   26.6709 C   0  0  0  0  0  0  0  0  0  0  0  0
  -25.4805  -35.6843   20.7963 C   0  0  0  0  0  0  0  0  0  0  0  0
  -30.2849  -18.4174   25.4301 C   0  0  0  0  0  0  0  0  0  0  0  0
  -29.0187  -19.2816   27.4412 C   0  0  0  0  0  0  0  0  0  0  0  0
  -27.7794  -18.7336   25.3729 C   0  0  0  0  0  0  0  0  0  0  0  0
  -25.4187  -34.6379   19.6770 C   0  0  1  0  0  0  0  0  0  0  0  0
  -24.1661  -31.3695   21.1540 C   0  0  1  0  0  0  0  0  0  0  0  0
  -29.0751  -18.7733   24.5487 C   0  0  2  0  0  0  0  0  0  0  0  0
  -26.4839  -20.9624   20.4615 C   0  0  0  0  0  0  0  0  0  0  0  0
  -22.5465  -28.1529   28.0121 C   0  0  0  0  0  0  0  0  0  0  0  0
  -26.0721  -32.9243   25.0668 C   0  0  0  0  0  0  0  0  0  0  0  0
  -25.5874  -31.5692   27.1154 C   0  0  0  0  0  0  0  0  0  0  0  0
  -23.8106  -33.0168   26.1306 C   0  0  0  0  0  0  0  0  0  0  0  0
  -24.9477  -21.8845   26.7230 C   0  0  0  0  0  0  0  0  0  0  0  0
  -21.9632  -26.6084   24.5842 C   0  0  0  0  0  0  0  0  0  0  0  0
  -27.3701  -22.7731   24.8926 C   0  0  0  0  0  0  0  0  0  0  0  0
  -29.1885  -24.4125   19.7812 C   0  0  0  0  0  0  0  0  0  0  0  0
  -27.5707  -21.9792   20.1207 C   0  0  0  0  0  0  0  0  0  0  0  0
  -26.5393  -21.4830   24.8815 C   0  0  0  0  0  0  0  0  0  0  0  0
  -28.3641  -25.5646   19.2171 C   0  0  0  0  0  0  0  0  0  1  0  0
  -24.4835  -30.8934   24.9347 C   0  0  1  0  0  0  0  0  0  0  0  0
  -22.3808  -28.1553   26.5004 C   0  0  2  0  0  0  0  0  0  0  0  0
  -24.9958  -32.0882   25.7875 C   0  0  0  0  0  0  0  0  0  0  0  0
  -29.0422  -24.7406   22.1869 N   0  0  0  0  0  0  0  0  0  0  0  0
  -28.2496  -16.7658   23.3779 N   0  0  0  0  0  0  0  0  0  0  0  0
  -27.4996  -22.4189   22.4955 N   0  0  0  0  0  0  0  0  0  0  0  0
  -28.9869  -17.8878   23.3195 N   0  0  0  0  0  0  0  0  0  0  0  0
  -24.5385  -30.8257   22.4616 N   0  0  0  0  0  0  0  0  0  0  0  0
  -27.8813  -19.5808   26.5706 N   0  0  0  0  0  0  0  0  0  0  0  0
  -30.3614  -19.1720   21.8799 N   0  0  0  0  0  0  0  0  0  0  0  0
  -29.1325  -15.6741   19.3009 N   0  0  0  0  0  0  0  0  0  0  0  0
  -24.6361  -33.4950   20.0962 N   0  0  0  0  0  0  0  0  0  0  0  0
  -23.4440  -30.0999   25.5815 N   0  0  0  0  0  0  0  0  0  0  0  0
  -26.0764  -21.1158   26.2181 N   0  0  0  0  0  0  0  0  0  0  0  0
  -22.1644  -26.7515   26.0492 N   0  3  0  0  0  0  0  0  0  0  0  0
  -30.3647  -17.6075   19.3522 O   0  0  0  0  0  0  0  0  0  0  0  0
  -26.3191  -32.3369   21.2136 O   0  0  0  0  0  0  0  0  0  0  0  0
  -22.9451  -32.0993   23.5909 O   0  0  0  0  0  0  0  0  0  0  0  0
  -24.5848  -28.0822   25.5132 O   0  0  0  0  0  0  0  0  0  0  0  0
  -26.4878  -20.2097   28.2971 O   0  0  0  0  0  0  0  0  0  0  0  0
  -25.8439  -11.4469   20.8341 O   0  0  0  0  0  0  0  0  0  0  0  0
  -28.4538  -26.6927   20.0863 O   0  0  0  0  0  0  0  0  0  1  0  0
  -20.5746  -10.8430   22.3422 F   0  0  0  0  0  0  0  0  0  0  0  0
  -23.8682  -11.0232   18.9473 F   0  0  0  0  0  0  0  0  0  0  0  0
  1  2  1  0  0  0  0
  1  5  2  0  0  0  0
  2  6  2  0  0  0  0
  3  8  2  0  0  0  0
  3 16  1  0  0  0  0
  4  9  1  0  0  0  0
  4 16  2  0  0  0  0
  5 18  1  0  0  0  0
  6 20  1  0  0  0  0
  7 10  2  0  0  0  0
  7 19  1  0  0  0  0
  8 22  1  0  0  0  0
  9 22  2  0  0  0  0
 10 23  1  0  0  0  0
 11 12  2  0  0  0  0
 11 24  1  0  0  0  0
 12 25  1  0  0  0  0
 13 21  1  0  0  0  0
 13 23  2  0  0  0  0
 14 25  2  0  0  0  0
 14 26  1  0  0  0  0
 15 28  1  0  0  0  0
 15 64  2  0  0  0  0
 16 27  1  0  0  0  0
 17 27  1  0  0  0  0
 17 31  2  0  0  0  0
 17 32  1  0  0  0  0
 18 20  2  0  0  0  0
 18 37  1  0  0  0  0
 19 21  2  0  0  0  0
 19 38  1  0  0  0  0
 20 46  1  0  0  0  0
 21 39  1  0  0  0  0
 22 81  1  0  0  0  0
 23 82  1  0  0  0  0
 24 26  2  0  0  0  0
 24 81  1  0  0  0  0
 25 83  1  0  0  0  0
 26 84  1  0  0  0  0
 27 65  2  0  0  0  0
 28 56  1  0  0  0  0
 28 66  2  0  0  0  0
 29 30  2  0  0  0  0
 29 57  1  0  0  0  0
 29 64  1  0  0  0  0
 30 58  1  0  0  0  0
 30 66  1  0  0  0  0
 31 67  1  0  0  0  0
 31 70  1  0  0  0  0
 32 71  1  0  0  0  0
 32 76  2  0  0  0  0
 33 47  1  0  0  0  0
 33 72  1  0  0  0  0
 33 77  2  0  0  0  0
 34 61  1  0  0  0  0
 34 68  1  0  0  0  0
 34 78  2  0  0  0  0
 35 62  1  0  0  0  0
 35 73  1  0  0  0  0
 35 79  2  0  0  0  0
 36 69  1  0  0  0  0
 36 74  1  0  0  0  0
 36 80  2  0  0  0  0
 37 40  1  0  0  0  0
 38 47  1  0  0  0  0
 39 68  1  0  0  0  0
 40 42  1  0  0  0  0
 41 43  1  0  0  0  0
 41 44  1  0  0  0  0
 42 46  1  0  0  0  0
 43 48  1  0  0  0  0
 44 69  1  0  0  0  0
 45 48  1  0  0  0  0
 45 69  1  0  0  0  0
 46 72  1  0  0  0  0
 47 68  1  0  0  0  0
 48 67  1  0  0  0  0
 49 58  1  0  0  0  0
 50 62  1  0  0  0  0
 51 63  1  0  0  0  0
 52 63  1  0  0  0  0
 53 63  1  0  0  0  0
 54 74  1  0  0  0  0
 55 75  1  0  0  0  0
 56 59  1  0  0  0  0
 57 60  1  0  0  0  0
 59 74  1  0  0  0  0
 60 82  1  0  0  0  0
 61 63  1  0  0  0  0
 61 73  1  0  0  0  0
 62 75  1  0  0  0  0
 65 67  1  0  0  0  0
M  CHG  1  75   1
M  ISO  4  36 100  60 101  74 100  82 101
M  END
> <Batch ID>
0056

> <Smiles>
CCc1nc(CC[100N:0](C)[100C:0](=O)N2CCCC(n3nc(-c4ccc(Oc5ccc(F)cc5F)cc4)c(C(N)=O)c3N)C2)cnc1C[101CH2:1][101O:1]c1ccc2c(c1)CN(C(=O)C(NC(=O)C(C)NC)C(C)(C)C)C(C(=O)NC1CCCc3ccccc31)C2

> <Shape>
0.204

> <Color>
0.100

> <Negative vol penalty>
0.000

$$$$

  -OEChem-04052317463D

 84 92  0     1  0  0  0  0  0999 V2000
  -19.5266  -34.0354   21.4111 C   0  0  0  0  0  0  0  0  0  0  0  0
  -20.7960  -33.6217   21.0202 C   0  0  0  0  0  0  0  0  0  0  0  0
  -25.6955  -14.7041   22.4107 C   0  0  0  0  0  0  0  0  0  0  0  0
  -25.5254  -14.0166   20.1008 C   0  0  0  0  0  0  0  0  0  0  0  0
  -18.8675  -33.3747   22.4469 C   0  0  0  0  0  0  0  0  0  0  0  0
  -21.4076  -32.5476   21.6658 C   0  0  0  0  0  0  0  0  0  0  0  0
  -25.1175  -28.3715   19.1554 C   0  0  0  0  0  0  0  0  0  0  0  0
  -24.7239  -13.7668   22.7613 C   0  0  0  0  0  0  0  0  0  0  0  0
  -24.5539  -13.0791   20.4514 C   0  0  0  0  0  0  0  0  0  0  0  0
  -26.5060  -28.2498   19.1215 C   0  0  0  0  0  0  0  0  0  0  0  0
  -22.2888  -10.2558   20.7928 C   0  0  0  0  0  0  0  0  0  0  0  0
  -22.3978   -8.9746   20.2523 C   0  0  0  0  0  0  0  0  0  0  0  0
  -26.4159  -26.7633   21.0193 C   0  0  0  0  0  0  0  0  0  0  0  0
  -24.5595   -8.7164   21.2998 C   0  0  0  0  0  0  0  0  0  0  0  0
  -27.9943  -24.5709   17.5742 C   0  0  0  0  0  0  0  0  0  0  0  0
  -26.0962  -14.8291   21.0804 C   0  0  0  0  0  0  0  0  0  0  0  0
  -28.4928  -15.6023   20.6729 C   0  0  0  0  0  0  0  0  0  0  0  0
  -19.4673  -32.2859   23.0991 C   0  0  0  0  0  0  0  0  0  0  0  0
  -24.3675  -27.6975   20.1299 C   0  0  0  0  0  0  0  0  0  0  0  0
  -20.7564  -31.8726   22.7123 C   0  0  0  0  0  0  0  0  0  0  0  0
  -25.0179  -26.8761   21.0618 C   0  0  0  0  0  0  0  0  0  0  0  0
  -24.1531  -12.9542   21.7817 C   0  0  0  0  0  0  0  0  0  0  0  0
  -27.1556  -27.4479   20.0554 C   0  0  0  0  0  0  0  0  0  0  0  0
  -23.3152  -10.7674   21.5869 C   0  0  0  0  0  0  0  0  0  0  0  0
  -23.5331   -8.2049   20.5058 C   0  0  0  0  0  0  0  0  0  0  0  0
  -24.4506   -9.9977   21.8404 C   0  0  0  0  0  0  0  0  0  0  0  0
  -27.0994  -15.7976   20.7175 C   0  0  0  0  0  0  0  0  0  0  0  0
  -29.3516  -24.6113   17.7724 C   0  0  0  0  0  0  0  0  0  0  0  0
  -28.9971  -16.8159   20.2736 C   0  0  0  0  0  0  0  0  0  0  0  0
  -29.2626  -14.4287   20.9660 C   0  0  0  0  0  0  0  0  0  0  0  0
  -22.4453  -28.5932   22.4978 C   0  0  0  0  0  0  0  0  0  0  0  0
  -21.9242  -25.4023   22.7605 C   0  0  0  0  0  0  0  0  0  0  0  0
  -26.5317  -21.2126   17.1325 C   0  0  0  0  0  0  0  0  0  0  0  0
  -23.0498  -22.2279   22.2101 C   0  0  0  0  0  0  0  0  0  0  0  0
  -18.7354  -31.6331   24.2449 C   0  0  0  0  0  0  0  0  0  0  0  0
  -22.8682  -27.8181   20.1364 C   0  0  0  0  0  0  0  0  0  0  0  0
  -24.2568  -26.1155   22.1157 C   0  0  0  0  0  0  0  0  0  0  0  0
  -19.2975  -30.2663   24.6270 C   0  0  0  0  0  0  0  0  0  0  0  0
  -28.0625  -21.4988   20.4191 C   0  0  0  0  0  0  0  0  0  0  0  0
  -20.8189  -30.3224   24.7219 C   0  0  0  0  0  0  0  0  0  0  0  0
  -28.0872  -20.0398   20.8729 C   0  0  0  0  0  0  0  0  0  0  0  0
  -26.8203  -21.8069   19.5872 C   0  0  0  0  0  0  0  0  0  0  0  0
  -26.6706  -19.4463   18.8595 C   0  0  0  0  0  0  0  0  0  0  0  0
  -21.4425  -30.6959   23.3717 C   0  0  1  0  0  0  0  0  0  0  0  0
  -22.2486  -27.4941   21.4923 C   0  0  1  0  0  0  0  0  0  0  0  0
  -27.9231  -19.0867   19.6760 C   0  0  2  0  0  0  0  0  0  0  0  0
  -22.9972  -19.7204   22.1272 C   0  0  0  0  0  0  0  0  0  0  0  0
  -25.3077  -23.2494   17.6074 C   0  0  0  0  0  0  0  0  0  0  0  0
  -22.6646  -25.6510   25.7101 C   0  0  0  0  0  0  0  0  0  0  0  0
  -22.9453  -23.1640   25.7775 C   0  0  0  0  0  0  0  0  0  0  0  0
  -20.7172  -24.1520   25.2461 C   0  0  0  0  0  0  0  0  0  0  0  0
  -21.8894  -22.2266   19.4876 C   0  0  0  0  0  0  0  0  0  0  0  0
  -30.2102  -25.7628   18.2309 C   0  0  0  0  0  0  0  0  0  0  0  0
  -30.3744  -25.8419   19.7502 C   0  0  0  0  0  0  0  0  0  0  0  0
  -29.0643  -26.0963   20.4867 C   0  0  0  0  0  0  0  0  0  1  0  0
  -22.5684  -24.2735   23.5285 C   0  0  1  0  0  0  0  0  0  0  0  0
  -22.3714  -21.0078   21.6138 C   0  0  2  0  0  0  0  0  0  0  0  0
  -26.5083  -22.6874   16.8193 C   0  0  2  0  0  0  0  0  0  0  0  0
  -22.2387  -24.3259   25.0471 C   0  0  0  0  0  0  0  0  0  0  0  0
  -26.2443  -22.8682   15.3186 C   0  0  0  0  0  0  0  0  0  0  0  0
  -26.7413  -17.0377   20.3742 N   0  0  0  0  0  0  0  0  0  0  0  0
  -29.8939  -23.3885   17.4891 N   0  0  0  0  0  0  0  0  0  0  0  0
  -28.9071  -22.5808   17.1163 N   0  0  0  0  0  0  0  0  0  0  0  0
  -27.7690  -23.2917   17.1678 N   0  0  0  0  0  0  0  0  0  0  0  0
  -27.9171  -17.6326   20.1101 N   0  0  0  0  0  0  0  0  0  0  0  0
  -22.7931  -26.2708   22.0848 N   0  0  0  0  0  0  0  0  0  0  0  0
  -26.6851  -20.8602   18.4736 N   0  0  0  0  0  0  0  0  0  0  0  0
  -30.2544  -17.2534   20.0500 N   0  0  0  0  0  0  0  0  0  0  0  0
  -28.5855  -13.2673   21.3623 N   0  0  0  0  0  0  0  0  0  0  0  0
  -21.4505  -29.5522   22.4850 N   0  0  0  0  0  0  0  0  0  0  0  0
  -22.1517  -23.0409   22.8687 N   0  0  0  0  0  0  0  0  0  0  0  0
  -22.4855  -21.0260   20.1280 N   0  3  0  0  0  0  0  0  0  0  0  0
  -30.5149  -14.4152   20.8949 O   0  0  0  0  0  0  0  0  0  0  0  0
  -23.4263  -28.5719   23.2319 O   0  0  0  0  0  0  0  0  0  0  0  0
  -20.6950  -25.5053   22.7544 O   0  0  0  0  0  0  0  0  0  0  0  0
  -26.4197  -20.3996   16.2113 O   0  0  0  0  0  0  0  0  0  0  0  0
  -24.2564  -22.4368   22.1056 O   0  0  0  0  0  0  0  0  0  0  0  0
  -23.2052  -12.0392   22.1235 O   0  0  0  0  0  0  0  0  0  0  0  0
  -28.5108  -27.3279   20.0249 O   0  0  0  0  0  0  0  0  0  1  0  0
  -23.6369   -6.9740   19.9879 F   0  0  0  0  0  0  0  0  0  0  0  0
  -25.4394  -10.4833   22.6034 F   0  0  0  0  0  0  0  0  0  0  0  0
  -25.0588  -22.3239   14.9592 F   0  0  0  0  0  0  0  0  0  0  0  0
  -26.2176  -24.1702   14.9566 F   0  0  0  0  0  0  0  0  0  0  0  0
  -27.2017  -22.2657   14.5752 F   0  0  0  0  0  0  0  0  0  0  0  0
  1  2  1  0  0  0  0
  1  5  2  0  0  0  0
  2  6  2  0  0  0  0
  3  8  2  0  0  0  0
  3 16  1  0  0  0  0
  4  9  1  0  0  0  0
  4 16  2  0  0  0  0
  5 18  1  0  0  0  0
  6 20  1  0  0  0  0
  7 10  2  0  0  0  0
  7 19  1  0  0  0  0
  8 22  1  0  0  0  0
  9 22  2  0  0  0  0
 10 23  1  0  0  0  0
 11 12  2  0  0  0  0
 11 24  1  0  0  0  0
 12 25  1  0  0  0  0
 13 21  1  0  0  0  0
 13 23  2  0  0  0  0
 14 25  2  0  0  0  0
 14 26  1  0  0  0  0
 15 28  2  0  0  0  0
 15 64  1  0  0  0  0
 16 27  1  0  0  0  0
 17 27  1  0  0  0  0
 17 29  2  0  0  0  0
 17 30  1  0  0  0  0
 18 20  2  0  0  0  0
 18 35  1  0  0  0  0
 19 21  2  0  0  0  0
 19 36  1  0  0  0  0
 20 44  1  0  0  0  0
 21 37  1  0  0  0  0
 22 78  1  0  0  0  0
 23 79  1  0  0  0  0
 24 26  2  0  0  0  0
 24 78  1  0  0  0  0
 25 80  1  0  0  0  0
 26 81  1  0  0  0  0
 27 61  2  0  0  0  0
 28 53  1  0  0  0  0
 28 62  1  0  0  0  0
 29 65  1  0  0  0  0
 29 68  1  0  0  0  0
 30 69  1  0  0  0  0
 30 73  2  0  0  0  0
 31 45  1  0  0  0  0
 31 70  1  0  0  0  0
 31 74  2  0  0  0  0
 32 56  1  0  0  0  0
 32 66  1  0  0  0  0
 32 75  2  0  0  0  0
 33 58  1  0  0  0  0
 33 67  1  0  0  0  0
 33 76  2  0  0  0  0
 34 57  1  0  0  0  0
 34 71  1  0  0  0  0
 34 77  2  0  0  0  0
 35 38  1  0  0  0  0
 36 45  1  0  0  0  0
 37 66  1  0  0  0  0
 38 40  1  0  0  0  0
 39 41  1  0  0  0  0
 39 42  1  0  0  0  0
 40 44  1  0  0  0  0
 41 46  1  0  0  0  0
 42 67  1  0  0  0  0
 43 46  1  0  0  0  0
 43 67  1  0  0  0  0
 44 70  1  0  0  0  0
 45 66  1  0  0  0  0
 46 65  1  0  0  0  0
 47 57  1  0  0  0  0
 48 58  1  0  0  0  0
 49 59  1  0  0  0  0
 50 59  1  0  0  0  0
 51 59  1  0  0  0  0
 52 72  1  0  0  0  0
 53 54  1  0  0  0  0
 54 55  1  0  0  0  0
 55 79  1  0  0  0  0
 56 59  1  0  0  0  0
 56 71  1  0  0  0  0
 57 72  1  0  0  0  0
 58 60  1  0  0  0  0
 58 64  1  0  0  0  0
 60 82  1  0  0  0  0
 60 83  1  0  0  0  0
 60 84  1  0  0  0  0
 61 65  1  0  0  0  0
 62 63  2  0  0  0  0
 63 64  1  0  0  0  0
M  CHG  1  72   1
M  ISO  4  33 100  55 101  58 100  79 101
M  END
> <Batch ID>
0056

> <Smiles>
CNC(C)C(=O)NC(C(=O)N1Cc2cc([101O:1][101CH2:1]CCc3cn([100C:0](C)([100C:0](=O)N4CCCC(n5nc(-c6ccc(Oc7ccc(F)cc7F)cc6)c(C(N)=O)c5N)C4)C(F)(F)F)nn3)ccc2CC1C(=O)NC1CCCc2ccccc21)C(C)(C)C

> <Shape>
0.225

> <Color>
0.102

> <Negative vol penalty>
0.000

$$$$

  -OEChem-04052317463D

 82 90  0     1  0  0  0  0  0999 V2000
  -30.6102  -33.1035   14.6440 C   0  0  0  0  0  0  0  0  0  0  0  0
  -30.4642  -31.7201   14.6539 C   0  0  0  0  0  0  0  0  0  0  0  0
  -22.8160  -10.0896   20.0233 C   0  0  0  0  0  0  0  0  0  0  0  0
  -23.3958  -10.1691   22.3673 C   0  0  0  0  0  0  0  0  0  0  0  0
  -30.5346  -33.8199   15.8378 C   0  0  0  0  0  0  0  0  0  0  0  0
  -30.2436  -31.0520   15.8578 C   0  0  0  0  0  0  0  0  0  0  0  0
  -26.8361  -25.3472   18.5337 C   0  0  0  0  0  0  0  0  0  0  0  0
  -22.7514   -8.6977   20.0864 C   0  0  0  0  0  0  0  0  0  0  0  0
  -23.3312   -8.7771   22.4305 C   0  0  0  0  0  0  0  0  0  0  0  0
  -27.0756  -24.2192   19.3173 C   0  0  0  0  0  0  0  0  0  0  0  0
  -20.9351   -6.4036   22.6442 C   0  0  0  0  0  0  0  0  0  0  0  0
  -20.2667   -5.8359   23.7289 C   0  0  0  0  0  0  0  0  0  0  0  0
  -26.8845  -25.5686   21.3077 C   0  0  0  0  0  0  0  0  0  0  0  0
  -22.2948   -4.6976   24.3830 C   0  0  0  0  0  0  0  0  0  0  0  0
  -28.9397  -20.7726   22.4992 C   0  0  0  0  0  0  0  0  0  0  0  0
  -26.7828  -19.9745   22.0909 C   0  0  0  0  0  0  0  0  0  0  0  0
  -23.1383  -10.8253   21.1637 C   0  0  0  0  0  0  0  0  0  0  0  0
  -22.1574  -13.1745   21.3277 C   0  0  0  0  0  0  0  0  0  0  0  0
  -30.3032  -33.1613   17.0557 C   0  0  0  0  0  0  0  0  0  0  0  0
  -26.6294  -26.5985   19.1319 C   0  0  0  0  0  0  0  0  0  0  0  0
  -30.1661  -31.7601   17.0692 C   0  0  0  0  0  0  0  0  0  0  0  0
  -26.6400  -26.7105   20.5296 C   0  0  0  0  0  0  0  0  0  0  0  0
  -27.7574  -20.9072   21.8005 C   0  0  0  0  0  0  0  0  0  0  0  0
  -23.0090   -8.0415   21.2900 C   0  0  0  0  0  0  0  0  0  0  0  0
  -27.1028  -24.3303   20.7044 C   0  0  0  0  0  0  0  0  0  0  0  0
  -22.2834   -6.1182   22.4289 C   0  0  0  0  0  0  0  0  0  0  0  0
  -20.9465   -4.9830   24.5983 C   0  0  0  0  0  0  0  0  0  0  0  0
  -22.9633   -5.2653   23.2983 C   0  0  0  0  0  0  0  0  0  0  0  0
  -23.2057  -12.2631   21.0990 C   0  0  0  0  0  0  0  0  0  0  0  0
  -22.7301  -14.4095   21.1450 C   0  0  0  0  0  0  0  0  0  0  0  0
  -28.1367  -18.9577   23.6075 C   0  0  0  0  0  0  0  0  0  0  0  0
  -20.7884  -12.9269   21.6743 C   0  0  0  0  0  0  0  0  0  0  0  0
  -28.1335  -29.3977   19.0543 C   0  0  0  0  0  0  0  0  0  0  0  0
  -25.5826  -30.3759   20.8032 C   0  0  0  0  0  0  0  0  0  0  0  0
  -23.0278  -29.5529   22.9109 C   0  0  0  0  0  0  0  0  0  0  0  0
  -28.3594  -16.3998   21.5920 C   0  0  0  0  0  0  0  0  0  0  0  0
  -30.2765  -33.9732   18.3264 C   0  0  0  0  0  0  0  0  0  0  0  0
  -26.3457  -27.8007   18.2736 C   0  0  0  0  0  0  0  0  0  0  0  0
  -26.4038  -28.0273   21.2215 C   0  0  0  0  0  0  0  0  0  0  0  0
  -29.6666  -33.2294   19.5117 C   0  0  0  0  0  0  0  0  0  0  0  0
  -26.2424  -16.5888   18.7356 C   0  0  0  0  0  0  0  0  0  0  0  0
  -30.2362  -31.8176   19.6064 C   0  0  0  0  0  0  0  0  0  0  0  0
  -25.1294  -15.5839   19.0381 C   0  0  0  0  0  0  0  0  0  0  0  0
  -27.5951  -16.1058   19.2541 C   0  0  0  0  0  0  0  0  0  0  0  0
  -26.5025  -14.7327   20.9846 C   0  0  0  0  0  0  0  0  0  0  0  0
  -29.9008  -31.0021   18.3518 C   0  0  1  0  0  0  0  0  0  0  0  0
  -26.6590  -29.1205   18.9716 C   0  0  1  0  0  0  0  0  0  0  0  0
  -25.1096  -15.2014   20.5303 C   0  0  2  0  0  0  0  0  0  0  0  0
  -21.1330  -30.5728   24.2020 C   0  0  0  0  0  0  0  0  0  0  0  0
  -27.0583  -17.3858   25.3576 C   0  0  0  0  0  0  0  0  0  0  0  0
  -29.3088  -18.3566   25.7435 C   0  0  0  0  0  0  0  0  0  0  0  0
  -27.5633  -31.4352   22.8684 C   0  0  0  0  0  0  0  0  0  0  0  0
  -25.6769  -31.5628   24.5096 C   0  0  0  0  0  0  0  0  0  0  0  0
  -25.6122  -32.9365   22.4283 C   0  0  0  0  0  0  0  0  0  0  0  0
  -21.0139  -27.9621   21.4368 C   0  0  0  0  0  0  0  0  0  0  0  0
  -27.5467  -21.9954   20.7891 C   0  0  0  0  0  0  0  0  0  1  0  0
  -29.0064  -16.5920   23.9803 C   0  0  0  0  0  0  0  0  0  0  0  0
  -25.2566  -30.4380   22.2759 C   0  0  1  0  0  0  0  0  0  0  0  0
  -21.5538  -29.9156   22.8967 C   0  0  2  0  0  0  0  0  0  0  0  0
  -28.3478  -17.8728   24.6084 C   0  0  0  0  0  0  0  0  0  0  0  0
  -26.0337  -31.5685   23.0077 C   0  0  0  0  0  0  0  0  0  0  0  0
  -29.1644  -19.8061   23.4133 N   0  0  0  0  0  0  0  0  0  0  0  0
  -26.9392  -18.9825   22.9919 N   0  0  0  0  0  0  0  0  0  0  0  0
  -24.3571  -12.8676   20.7943 N   0  0  0  0  0  0  0  0  0  0  0  0
  -24.0357  -14.1720   20.8300 N   0  0  0  0  0  0  0  0  0  0  0  0
  -26.1370  -29.1748   20.3386 N   0  0  0  0  0  0  0  0  0  0  0  0
  -27.5084  -15.7609   20.6752 N   0  0  0  0  0  0  0  0  0  0  0  0
  -22.2392  -15.6645   21.2247 N   0  0  0  0  0  0  0  0  0  0  0  0
  -20.3665  -11.5986   21.8228 N   0  0  0  0  0  0  0  0  0  0  0  0
  -28.5276  -30.5474   18.3968 N   0  0  0  0  0  0  0  0  0  0  0  0
  -23.8053  -30.5540   22.3682 N   0  0  0  0  0  0  0  0  0  0  0  0
  -28.2076  -16.0193   22.9198 N   0  0  0  0  0  0  0  0  0  0  0  0
  -20.7220  -28.6955   22.6954 N   0  3  0  0  0  0  0  0  0  0  0  0
  -19.9596  -13.8554   21.8310 O   0  0  0  0  0  0  0  0  0  0  0  0
  -28.8596  -28.6264   19.6704 O   0  0  0  0  0  0  0  0  0  0  0  0
  -25.3473  -31.3544   20.0900 O   0  0  0  0  0  0  0  0  0  0  0  0
  -23.4478  -28.4895   23.3618 O   0  0  0  0  0  0  0  0  0  0  0  0
  -29.1891  -17.2506   21.2532 O   0  0  0  0  0  0  0  0  0  0  0  0
  -22.9458   -6.6832   21.3520 O   0  0  0  0  0  0  0  0  0  0  0  0
  -27.3370  -23.2310   21.4715 O   0  0  0  0  0  0  0  0  0  1  0  0
  -20.3049   -4.4391   25.6407 F   0  0  0  0  0  0  0  0  0  0  0  0
  -24.2589   -4.9883   23.0972 F   0  0  0  0  0  0  0  0  0  0  0  0
  1  2  1  0  0  0  0
  1  5  2  0  0  0  0
  2  6  2  0  0  0  0
  3  8  2  0  0  0  0
  3 17  1  0  0  0  0
  4  9  1  0  0  0  0
  4 17  2  0  0  0  0
  5 19  1  0  0  0  0
  6 21  1  0  0  0  0
  7 10  2  0  0  0  0
  7 20  1  0  0  0  0
  8 24  1  0  0  0  0
  9 24  2  0  0  0  0
 10 25  1  0  0  0  0
 11 12  2  0  0  0  0
 11 26  1  0  0  0  0
 12 27  1  0  0  0  0
 13 22  1  0  0  0  0
 13 25  2  0  0  0  0
 14 27  2  0  0  0  0
 14 28  1  0  0  0  0
 15 23  1  0  0  0  0
 15 62  2  0  0  0  0
 16 23  2  0  0  0  0
 16 63  1  0  0  0  0
 17 29  1  0  0  0  0
 18 29  1  0  0  0  0
 18 30  2  0  0  0  0
 18 32  1  0  0  0  0
 19 21  2  0  0  0  0
 19 37  1  0  0  0  0
 20 22  2  0  0  0  0
 20 38  1  0  0  0  0
 21 46  1  0  0  0  0
 22 39  1  0  0  0  0
 23 56  1  0  0  0  0
 24 79  1  0  0  0  0
 25 80  1  0  0  0  0
 26 28  2  0  0  0  0
 26 79  1  0  0  0  0
 27 81  1  0  0  0  0
 28 82  1  0  0  0  0
 29 64  2  0  0  0  0
 30 65  1  0  0  0  0
 30 68  1  0  0  0  0
 31 60  1  0  0  0  0
 31 62  1  0  0  0  0
 31 63  2  0  0  0  0
 32 69  1  0  0  0  0
 32 74  2  0  0  0  0
 33 47  1  0  0  0  0
 33 70  1  0  0  0  0
 33 75  2  0  0  0  0
 34 58  1  0  0  0  0
 34 66  1  0  0  0  0
 34 76  2  0  0  0  0
 35 59  1  0  0  0  0
 35 71  1  0  0  0  0
 35 77  2  0  0  0  0
 36 67  1  0  0  0  0
 36 72  1  0  0  0  0
 36 78  2  0  0  0  0
 37 40  1  0  0  0  0
 38 47  1  0  0  0  0
 39 66  1  0  0  0  0
 40 42  1  0  0  0  0
 41 43  1  0  0  0  0
 41 44  1  0  0  0  0
 42 46  1  0  0  0  0
 43 48  1  0  0  0  0
 44 67  1  0  0  0  0
 45 48  1  0  0  0  0
 45 67  1  0  0  0  0
 46 70  1  0  0  0  0
 47 66  1  0  0  0  0
 48 65  1  0  0  0  0
 49 59  1  0  0  0  0
 50 60  1  0  0  0  0
 51 60  1  0  0  0  0
 52 61  1  0  0  0  0
 53 61  1  0  0  0  0
 54 61  1  0  0  0  0
 55 73  1  0  0  0  0
 56 80  1  0  0  0  0
 57 60  1  0  0  0  0
 57 72  1  0  0  0  0
 58 61  1  0  0  0  0
 58 71  1  0  0  0  0
 59 73  1  0  0  0  0
 64 65  1  0  0  0  0
M  CHG  1  73   1
M  ISO  4  36 100  56 101  72 100  80 101
M  END
> <Batch ID>
0056

> <Smiles>
CNC(C)C(=O)NC(C(=O)N1Cc2cc([101O:1][101CH2:1]c3cnc(C(C)(C)C[100NH:0][100C:0](=O)N4CCCC(n5nc(-c6ccc(Oc7ccc(F)cc7F)cc6)c(C(N)=O)c5N)C4)nc3)ccc2CC1C(=O)NC1CCCc2ccccc21)C(C)(C)C

> <Shape>
0.243

> <Color>
0.080

> <Negative vol penalty>
0.000

$$$$

  -OEChem-04052317463D

 77 84  0     1  0  0  0  0  0999 V2000
  -36.4343  -18.0685   23.8508 C   0  0  0  0  0  0  0  0  0  0  0  0
  -35.3436  -18.5064   23.1064 C   0  0  0  0  0  0  0  0  0  0  0  0
  -21.2904  -30.0288   22.4196 C   0  0  0  0  0  0  0  0  0  0  0  0
  -22.8980  -29.3155   24.0760 C   0  0  0  0  0  0  0  0  0  0  0  0
  -36.8136  -16.7276   23.8070 C   0  0  0  0  0  0  0  0  0  0  0  0
  -34.6321  -17.6037   22.3169 C   0  0  0  0  0  0  0  0  0  0  0  0
  -29.6188  -18.1439   22.7858 C   0  0  0  0  0  0  0  0  0  0  0  0
  -20.2549  -29.7984   23.3253 C   0  0  0  0  0  0  0  0  0  0  0  0
  -21.8626  -29.0851   24.9818 C   0  0  0  0  0  0  0  0  0  0  0  0
  -29.0254  -19.2017   22.0984 C   0  0  0  0  0  0  0  0  0  0  0  0
  -18.8799  -31.3647   25.9879 C   0  0  0  0  0  0  0  0  0  0  0  0
  -17.8872  -32.3383   26.0989 C   0  0  0  0  0  0  0  0  0  0  0  0
  -28.3267  -17.6758   20.3656 C   0  0  0  0  0  0  0  0  0  0  0  0
  -16.2234  -30.7177   25.4338 C   0  0  0  0  0  0  0  0  0  0  0  0
  -22.6119  -29.7873   22.7949 C   0  0  0  0  0  0  0  0  0  0  0  0
  -24.4015  -31.2205   21.6765 C   0  0  0  0  0  0  0  0  0  0  0  0
  -36.1005  -15.8060   23.0241 C   0  0  0  0  0  0  0  0  0  0  0  0
  -29.5801  -16.8437   22.2621 C   0  0  0  0  0  0  0  0  0  0  0  0
  -35.0030  -16.2494   22.2616 C   0  0  0  0  0  0  0  0  0  0  0  0
  -28.9182  -16.6028   21.0496 C   0  0  0  0  0  0  0  0  0  0  0  0
  -20.5410  -29.3266   24.6064 C   0  0  0  0  0  0  0  0  0  0  0  0
  -28.3817  -18.9683   20.8867 C   0  0  0  0  0  0  0  0  0  0  0  0
  -18.5443  -30.0676   25.5997 C   0  0  0  0  0  0  0  0  0  0  0  0
  -16.5590  -32.0148   25.8220 C   0  0  0  0  0  0  0  0  0  0  0  0
  -17.2161  -29.7441   25.3227 C   0  0  0  0  0  0  0  0  0  0  0  0
  -23.6819  -30.0245   21.8596 C   0  0  0  0  0  0  0  0  0  0  0  0
  -25.3011  -30.9309   20.6799 C   0  0  0  0  0  0  0  0  0  0  0  0
  -24.2687  -32.4806   22.3475 C   0  0  0  0  0  0  0  0  0  0  0  0
  -31.7668  -14.7455   21.3031 C   0  0  0  0  0  0  0  0  0  0  0  0
  -29.1965  -12.7884   21.0110 C   0  0  0  0  0  0  0  0  0  0  0  0
  -28.5749  -26.5501   18.9747 C   0  0  0  0  0  0  0  0  0  0  0  0
  -25.8251  -12.4782   20.5816 C   0  0  0  0  0  0  0  0  0  0  0  0
  -36.5769  -14.3760   22.9717 C   0  0  0  0  0  0  0  0  0  0  0  0
  -30.2019  -15.7090   23.0290 C   0  0  0  0  0  0  0  0  0  0  0  0
  -28.8310  -15.2219   20.4545 C   0  0  0  0  0  0  0  0  0  0  0  0
  -35.5415  -13.4095   22.4025 C   0  0  0  0  0  0  0  0  0  0  0  0
  -25.5987  -27.5212   17.1236 C   0  0  0  0  0  0  0  0  0  0  0  0
  -34.9233  -13.9784   21.1293 C   0  0  0  0  0  0  0  0  0  0  0  0
  -24.8546  -28.3616   18.1605 C   0  0  0  0  0  0  0  0  0  0  0  0
  -26.3428  -26.3576   17.7736 C   0  0  0  0  0  0  0  0  0  0  0  0
  -26.5404  -27.6145   19.8962 C   0  0  0  0  0  0  0  0  0  0  0  0
  -34.1910  -15.2956   21.4125 C   0  0  1  0  0  0  0  0  0  0  0  0
  -30.5473  -14.5115   22.1492 C   0  0  1  0  0  0  0  0  0  0  0  0
  -25.8015  -28.8166   19.2847 C   0  0  2  0  0  0  0  0  0  0  0  0
  -24.0202  -10.7510   20.3441 C   0  0  0  0  0  0  0  0  0  0  0  0
  -29.0097  -26.4010   16.5429 C   0  0  0  0  0  0  0  0  0  0  0  0
  -30.6823  -25.5748   18.2136 C   0  0  0  0  0  0  0  0  0  0  0  0
  -30.0791  -12.2649   18.1375 C   0  0  0  0  0  0  0  0  0  0  0  0
  -27.7982  -11.3398   17.6791 C   0  0  0  0  0  0  0  0  0  0  0  0
  -29.2719  -10.2416   19.3659 C   0  0  0  0  0  0  0  0  0  0  0  0
  -24.4348  -13.4283   23.0154 C   0  0  0  0  0  0  0  0  0  0  0  0
  -28.7608  -23.4978   19.2076 C   0  0  0  0  0  0  0  0  0  0  0  0
  -28.1442  -22.1023   19.1096 C   0  0  0  0  0  0  0  0  0  0  0  0
  -28.5451  -24.2899   17.9108 C   0  0  0  0  0  0  0  0  0  0  0  0
  -28.3874  -21.2906   20.3742 C   0  0  0  0  0  0  0  0  0  1  0  0
  -28.2133  -12.4721   19.9100 C   0  0  1  0  0  0  0  0  0  0  0  0
  -24.7901  -11.6392   21.3091 C   0  0  2  0  0  0  0  0  0  0  0  0
  -29.1859  -25.6966   17.8921 C   0  0  0  0  0  0  0  0  0  0  0  0
  -28.8438  -11.6061   18.7831 C   0  0  0  0  0  0  0  0  0  0  0  0
  -24.0892  -29.0479   21.0445 N   0  0  0  0  0  0  0  0  0  0  0  0
  -25.0743  -29.6298   20.3396 N   0  0  0  0  0  0  0  0  0  0  0  0
  -29.4599  -14.1465   21.2390 N   0  0  0  0  0  0  0  0  0  0  0  0
  -27.2132  -26.8296   18.8572 N   0  0  0  0  0  0  0  0  0  0  0  0
  -26.2561  -31.6649   20.0702 N   0  0  0  0  0  0  0  0  0  0  0  0
  -23.2938  -32.6061   23.3466 N   0  0  0  0  0  0  0  0  0  0  0  0
  -32.9067  -15.0376   22.0277 N   0  0  0  0  0  0  0  0  0  0  0  0
  -27.0578  -11.8608   20.5578 N   0  0  0  0  0  0  0  0  0  0  0  0
  -23.8167  -12.5174   22.0179 N   0  3  0  0  0  0  0  0  0  0  0  0
  -24.9819  -33.4710   22.0579 O   0  0  0  0  0  0  0  0  0  0  0  0
  -31.6804  -14.6655   20.0834 O   0  0  0  0  0  0  0  0  0  0  0  0
  -29.7065  -11.8647   21.6500 O   0  0  0  0  0  0  0  0  0  0  0  0
  -29.2887  -26.9575   19.8948 O   0  0  0  0  0  0  0  0  0  0  0  0
  -25.5652  -13.5702   20.0812 O   0  0  0  0  0  0  0  0  0  0  0  0
  -19.5309  -29.1019   25.4906 O   0  0  0  0  0  0  0  0  0  0  0  0
  -27.8022  -19.9991   20.2133 O   0  0  0  0  0  0  0  0  0  1  0  0
  -15.6056  -32.9494   25.9302 F   0  0  0  0  0  0  0  0  0  0  0  0
  -16.8874  -28.4994   24.9505 F   0  0  0  0  0  0  0  0  0  0  0  0
  1  2  1  0  0  0  0
  1  5  2  0  0  0  0
  2  6  2  0  0  0  0
  3  8  2  0  0  0  0
  3 15  1  0  0  0  0
  4  9  1  0  0  0  0
  4 15  2  0  0  0  0
  5 17  1  0  0  0  0
  6 19  1  0  0  0  0
  7 10  2  0  0  0  0
  7 18  1  0  0  0  0
  8 21  1  0  0  0  0
  9 21  2  0  0  0  0
 10 22  1  0  0  0  0
 11 12  2  0  0  0  0
 11 23  1  0  0  0  0
 12 24  1  0  0  0  0
 13 20  1  0  0  0  0
 13 22  2  0  0  0  0
 14 24  2  0  0  0  0
 14 25  1  0  0  0  0
 15 26  1  0  0  0  0
 16 26  1  0  0  0  0
 16 27  2  0  0  0  0
 16 28  1  0  0  0  0
 17 19  2  0  0  0  0
 17 33  1  0  0  0  0
 18 20  2  0  0  0  0
 18 34  1  0  0  0  0
 19 42  1  0  0  0  0
 20 35  1  0  0  0  0
 21 74  1  0  0  0  0
 22 75  1  0  0  0  0
 23 25  2  0  0  0  0
 23 74  1  0  0  0  0
 24 76  1  0  0  0  0
 25 77  1  0  0  0  0
 26 60  2  0  0  0  0
 27 61  1  0  0  0  0
 27 64  1  0  0  0  0
 28 65  1  0  0  0  0
 28 69  2  0  0  0  0
 29 43  1  0  0  0  0
 29 66  1  0  0  0  0
 29 70  2  0  0  0  0
 30 56  1  0  0  0  0
 30 62  1  0  0  0  0
 30 71  2  0  0  0  0
 31 58  1  0  0  0  0
 31 63  1  0  0  0  0
 31 72  2  0  0  0  0
 32 57  1  0  0  0  0
 32 67  1  0  0  0  0
 32 73  2  0  0  0  0
 33 36  1  0  0  0  0
 34 43  1  0  0  0  0
 35 62  1  0  0  0  0
 36 38  1  0  0  0  0
 37 39  1  0  0  0  0
 37 40  1  0  0  0  0
 38 42  1  0  0  0  0
 39 44  1  0  0  0  0
 40 63  1  0  0  0  0
 41 44  1  0  0  0  0
 41 63  1  0  0  0  0
 42 66  1  0  0  0  0
 43 62  1  0  0  0  0
 44 61  1  0  0  0  0
 45 57  1  0  0  0  0
 46 58  1  0  0  0  0
 47 58  1  0  0  0  0
 48 59  1  0  0  0  0
 49 59  1  0  0  0  0
 50 59  1  0  0  0  0
 51 68  1  0  0  0  0
 52 53  1  0  0  0  0
 52 54  1  0  0  0  0
 53 55  1  0  0  0  0
 54 58  1  0  0  0  0
 55 75  1  0  0  0  0
 56 59  1  0  0  0  0
 56 67  1  0  0  0  0
 57 68  1  0  0  0  0
 60 61  1  0  0  0  0
M  CHG  1  68   1
M  ISO  4  31 100  55 101  58 100  75 101
M  END
> <Batch ID>
0056

> <Smiles>
CNC(C)C(=O)NC(C(=O)N1Cc2cc([101O:1][101CH2:1]CCC[100C:0](C)(C)[100C:0](=O)N3CCCC(n4nc(-c5ccc(Oc6ccc(F)cc6F)cc5)c(C(N)=O)c4N)C3)ccc2CC1C(=O)NC1CCCc2ccccc21)C(C)(C)C

> <Shape>
0.273

> <Color>
0.051

> <Negative vol penalty>
0.000

$$$$

  -OEChem-04052317463D

 77 85  0     1  0  0  0  0  0999 V2000
  -29.9402  -35.7042   19.0054 C   0  0  0  0  0  0  0  0  0  0  0  0
  -30.1944  -34.4250   18.5212 C   0  0  0  0  0  0  0  0  0  0  0  0
  -24.5036   -9.3568   21.3034 C   0  0  0  0  0  0  0  0  0  0  0  0
  -24.9227  -10.3929   23.4453 C   0  0  0  0  0  0  0  0  0  0  0  0
  -29.2895  -35.8692   20.2274 C   0  0  0  0  0  0  0  0  0  0  0  0
  -29.7990  -33.3100   19.2594 C   0  0  0  0  0  0  0  0  0  0  0  0
  -27.4683  -26.5901   18.4066 C   0  0  0  0  0  0  0  0  0  0  0  0
  -24.3069   -8.1292   21.9357 C   0  0  0  0  0  0  0  0  0  0  0  0
  -24.7259   -9.1653   24.0777 C   0  0  0  0  0  0  0  0  0  0  0  0
  -27.7530  -25.2903   18.8231 C   0  0  0  0  0  0  0  0  0  0  0  0
  -21.8479   -6.5856   23.6687 C   0  0  0  0  0  0  0  0  0  0  0  0
  -20.7526   -5.8194   23.2703 C   0  0  0  0  0  0  0  0  0  0  0  0
  -26.5656  -25.6968   20.8832 C   0  0  0  0  0  0  0  0  0  0  0  0
  -22.2405   -4.0299   22.6213 C   0  0  0  0  0  0  0  0  0  0  0  0
  -27.8816  -20.2208   19.8788 C   0  0  0  0  0  0  0  0  0  0  0  0
  -24.8116  -10.4887   22.0582 C   0  0  0  0  0  0  0  0  0  0  0  0
  -24.0420  -12.7341   21.1236 C   0  0  0  0  0  0  0  0  0  0  0  0
  -28.8773  -34.7557   20.9763 C   0  0  0  0  0  0  0  0  0  0  0  0
  -26.7383  -27.4580   19.2314 C   0  0  0  0  0  0  0  0  0  0  0  0
  -29.1434  -33.4603   20.4932 C   0  0  0  0  0  0  0  0  0  0  0  0
  -26.2708  -27.0063   20.4738 C   0  0  0  0  0  0  0  0  0  0  0  0
  -24.4180   -8.0334   23.3228 C   0  0  0  0  0  0  0  0  0  0  0  0
  -27.3041  -24.8445   20.0627 C   0  0  0  0  0  0  0  0  0  0  0  0
  -23.1396   -6.0740   23.5434 C   0  0  0  0  0  0  0  0  0  0  0  0
  -20.9489   -4.5415   22.7466 C   0  0  0  0  0  0  0  0  0  0  0  0
  -23.3358   -4.7962   23.0197 C   0  0  0  0  0  0  0  0  0  0  0  0
  -25.0154  -11.7570   21.4056 C   0  0  0  0  0  0  0  0  0  0  0  0
  -28.5109  -21.3987   20.1943 C   0  0  0  0  0  0  0  0  0  0  0  0
  -24.7374  -13.7418   20.5011 C   0  0  0  0  0  0  0  0  0  0  0  0
  -22.6351  -12.7312   21.3997 C   0  0  0  0  0  0  0  0  0  0  0  0
  -27.3361  -30.2410   20.6459 C   0  0  0  0  0  0  0  0  0  0  0  0
  -29.2220  -17.0773   20.2718 C   0  0  0  0  0  0  0  0  0  0  0  0
  -24.1946  -30.0709   21.4359 C   0  0  0  0  0  0  0  0  0  0  0  0
  -21.4422  -28.1246   21.9678 C   0  0  0  0  0  0  0  0  0  0  0  0
  -28.2195  -34.9838   22.3142 C   0  0  0  0  0  0  0  0  0  0  0  0
  -26.4166  -28.8483   18.7562 C   0  0  0  0  0  0  0  0  0  0  0  0
  -25.4658  -27.8921   21.3880 C   0  0  0  0  0  0  0  0  0  0  0  0
  -27.4991  -33.7521   22.8566 C   0  0  0  0  0  0  0  0  0  0  0  0
  -29.4502  -13.8702   18.6898 C   0  0  0  0  0  0  0  0  0  0  0  0
  -28.3820  -32.5154   22.7233 C   0  0  0  0  0  0  0  0  0  0  0  0
  -28.2544  -13.1051   19.2553 C   0  0  0  0  0  0  0  0  0  0  0  0
  -30.0518  -14.8124   19.7279 C   0  0  0  0  0  0  0  0  0  0  0  0
  -27.8736  -15.0091   20.8847 C   0  0  0  0  0  0  0  0  0  0  0  0
  -28.7078  -32.2261   21.2530 C   0  0  1  0  0  0  0  0  0  0  0  0
  -26.1061  -29.8127   19.8967 C   0  0  1  0  0  0  0  0  0  0  0  0
  -27.2170  -14.0685   19.8587 C   0  0  2  0  0  0  0  0  0  0  0  0
  -19.0287  -28.2673   22.6399 C   0  0  0  0  0  0  0  0  0  0  0  0
  -25.0307  -30.4937   24.3397 C   0  0  0  0  0  0  0  0  0  0  0  0
  -22.7643  -29.6896   25.0364 C   0  0  0  0  0  0  0  0  0  0  0  0
  -22.9824  -31.7520   23.6502 C   0  0  0  0  0  0  0  0  0  0  0  0
  -20.5373  -26.9805   19.3927 C   0  0  0  0  0  0  0  0  0  0  0  0
  -28.3363  -22.7568   19.5808 C   0  0  0  0  0  0  0  0  0  1  0  0
  -28.1248  -17.9218   20.8692 C   0  0  0  0  0  0  0  0  0  0  0  0
  -23.4127  -29.4963   22.5924 C   0  0  1  0  0  0  0  0  0  0  0  0
  -20.0106  -28.2493   21.4788 C   0  0  2  0  0  0  0  0  0  0  0  0
  -23.5643  -30.3416   23.8885 C   0  0  0  0  0  0  0  0  0  0  0  0
  -26.2361  -12.1119   20.9957 N   0  0  0  0  0  0  0  0  0  0  0  0
  -29.3904  -21.1894   21.2200 N   0  0  0  0  0  0  0  0  0  0  0  0
  -29.3282  -19.9054   21.5555 N   0  0  0  0  0  0  0  0  0  0  0  0
  -28.4231  -19.3264   20.7500 N   0  0  0  0  0  0  0  0  0  0  0  0
  -26.0344  -13.3232   20.4497 N   0  0  0  0  0  0  0  0  0  0  0  0
  -25.1826  -29.2451   20.8812 N   0  0  0  0  0  0  0  0  0  0  0  0
  -29.0304  -15.6957   20.2934 N   0  0  0  0  0  0  0  0  0  0  0  0
  -24.3597  -14.9363   19.9980 N   0  0  0  0  0  0  0  0  0  0  0  0
  -22.0834  -11.6166   22.0460 N   0  0  0  0  0  0  0  0  0  0  0  0
  -27.5787  -31.6006   20.5987 N   0  0  0  0  0  0  0  0  0  0  0  0
  -22.0370  -29.3584   22.1266 N   0  0  0  0  0  0  0  0  0  0  0  0
  -19.6655  -27.1045   20.5892 N   0  3  0  0  0  0  0  0  0  0  0  0
  -21.8864  -13.6815   21.0681 O   0  0  0  0  0  0  0  0  0  0  0  0
  -28.0141  -29.4005   21.2251 O   0  0  0  0  0  0  0  0  0  0  0  0
  -30.2175  -17.6310   19.7978 O   0  0  0  0  0  0  0  0  0  0  0  0
  -23.9334  -31.2078   21.0348 O   0  0  0  0  0  0  0  0  0  0  0  0
  -21.9780  -27.0411   22.1906 O   0  0  0  0  0  0  0  0  0  0  0  0
  -24.2259   -6.8357   23.9401 O   0  0  0  0  0  0  0  0  0  0  0  0
  -27.5811  -23.5765   20.4719 O   0  0  0  0  0  0  0  0  0  1  0  0
  -19.8968   -3.8052   22.3655 F   0  0  0  0  0  0  0  0  0  0  0  0
  -24.5743   -4.2989   22.8980 F   0  0  0  0  0  0  0  0  0  0  0  0
  1  2  1  0  0  0  0
  1  5  2  0  0  0  0
  2  6  2  0  0  0  0
  3  8  2  0  0  0  0
  3 16  1  0  0  0  0
  4  9  1  0  0  0  0
  4 16  2  0  0  0  0
  5 18  1  0  0  0  0
  6 20  1  0  0  0  0
  7 10  2  0  0  0  0
  7 19  1  0  0  0  0
  8 22  1  0  0  0  0
  9 22  2  0  0  0  0
 10 23  1  0  0  0  0
 11 12  2  0  0  0  0
 11 24  1  0  0  0  0
 12 25  1  0  0  0  0
 13 21  1  0  0  0  0
 13 23  2  0  0  0  0
 14 25  2  0  0  0  0
 14 26  1  0  0  0  0
 15 28  2  0  0  0  0
 15 60  1  0  0  0  0
 16 27  1  0  0  0  0
 17 27  1  0  0  0  0
 17 29  2  0  0  0  0
 17 30  1  0  0  0  0
 18 20  2  0  0  0  0
 18 35  1  0  0  0  0
 19 21  2  0  0  0  0
 19 36  1  0  0  0  0
 20 44  1  0  0  0  0
 21 37  1  0  0  0  0
 22 74  1  0  0  0  0
 23 75  1  0  0  0  0
 24 26  2  0  0  0  0
 24 74  1  0  0  0  0
 25 76  1  0  0  0  0
 26 77  1  0  0  0  0
 27 57  2  0  0  0  0
 28 52  1  0  0  0  0
 28 58  1  0  0  0  0
 29 61  1  0  0  0  0
 29 64  1  0  0  0  0
 30 65  1  0  0  0  0
 30 69  2  0  0  0  0
 31 45  1  0  0  0  0
 31 66  1  0  0  0  0
 31 70  2  0  0  0  0
 32 53  1  0  0  0  0
 32 63  1  0  0  0  0
 32 71  2  0  0  0  0
 33 54  1  0  0  0  0
 33 62  1  0  0  0  0
 33 72  2  0  0  0  0
 34 55  1  0  0  0  0
 34 67  1  0  0  0  0
 34 73  2  0  0  0  0
 35 38  1  0  0  0  0
 36 45  1  0  0  0  0
 37 62  1  0  0  0  0
 38 40  1  0  0  0  0
 39 41  1  0  0  0  0
 39 42  1  0  0  0  0
 40 44  1  0  0  0  0
 41 46  1  0  0  0  0
 42 63  1  0  0  0  0
 43 46  1  0  0  0  0
 43 63  1  0  0  0  0
 44 66  1  0  0  0  0
 45 62  1  0  0  0  0
 46 61  1  0  0  0  0
 47 55  1  0  0  0  0
 48 56  1  0  0  0  0
 49 56  1  0  0  0  0
 50 56  1  0  0  0  0
 51 68  1  0  0  0  0
 52 75  1  0  0  0  0
 53 60  1  0  0  0  0
 54 56  1  0  0  0  0
 54 67  1  0  0  0  0
 55 68  1  0  0  0  0
 57 61  1  0  0  0  0
 58 59  2  0  0  0  0
 59 60  1  0  0  0  0
M  CHG  1  68   1
M  ISO  4  32 100  52 101  53 100  75 101
M  END
> <Batch ID>
0056

> <Smiles>
CNC(C)C(=O)NC(C(=O)N1Cc2cc([101O:1][101CH2:1]c3cn([100CH2:0][100C:0](=O)N4CCCC(n5nc(-c6ccc(Oc7ccc(F)cc7F)cc6)c(C(N)=O)c5N)C4)nn3)ccc2CC1C(=O)NC1CCCc2ccccc21)C(C)(C)C

> <Shape>
0.300

> <Color>
0.125

> <Negative vol penalty>
0.000

$$$$

  -OEChem-04052317463D

 85 93  0     1  0  0  0  0  0999 V2000
  -36.2900  -26.1830   28.5010 C   0  0  0  0  0  0  0  0  0  0  0  0
  -35.4333  -25.0885   28.4420 C   0  0  0  0  0  0  0  0  0  0  0  0
  -23.0723   -9.8778   19.9583 C   0  0  0  0  0  0  0  0  0  0  0  0
  -23.7443   -9.9572   22.2776 C   0  0  0  0  0  0  0  0  0  0  0  0
  -35.7720  -27.4761   28.4420 C   0  0  0  0  0  0  0  0  0  0  0  0
  -34.0580  -25.2864   28.3251 C   0  0  0  0  0  0  0  0  0  0  0  0
  -30.0828  -21.7856   25.2514 C   0  0  0  0  0  0  0  0  0  0  0  0
  -22.3211   -8.7310   20.2152 C   0  0  0  0  0  0  0  0  0  0  0  0
  -22.9930   -8.8104   22.5346 C   0  0  0  0  0  0  0  0  0  0  0  0
  -29.2069  -20.7808   25.6598 C   0  0  0  0  0  0  0  0  0  0  0  0
  -23.3095   -5.4736   22.0913 C   0  0  0  0  0  0  0  0  0  0  0  0
  -23.8986   -4.4724   22.8634 C   0  0  0  0  0  0  0  0  0  0  0  0
  -27.4179  -22.3949   25.7741 C   0  0  0  0  0  0  0  0  0  0  0  0
  -22.1332   -4.6940   24.4978 C   0  0  0  0  0  0  0  0  0  0  0  0
  -27.8836  -16.2255   23.1898 C   0  0  0  0  0  0  0  0  0  0  0  0
  -23.7840  -10.4909   20.9895 C   0  0  0  0  0  0  0  0  0  0  0  0
  -24.1267  -13.0120   20.8049 C   0  0  0  0  0  0  0  0  0  0  0  0
  -34.3905  -27.6900   28.3145 C   0  0  0  0  0  0  0  0  0  0  0  0
  -29.6346  -23.1070   25.1115 C   0  0  0  0  0  0  0  0  0  0  0  0
  -33.5209  -26.5837   28.2657 C   0  0  0  0  0  0  0  0  0  0  0  0
  -28.2895  -23.4143   25.3613 C   0  0  0  0  0  0  0  0  0  0  0  0
  -22.2814   -8.1973   21.5033 C   0  0  0  0  0  0  0  0  0  0  0  0
  -27.8749  -21.0859   25.9240 C   0  0  0  0  0  0  0  0  0  0  0  0
  -22.1323   -6.0851   22.5225 C   0  0  0  0  0  0  0  0  0  0  0  0
  -23.3105   -4.0826   24.0666 C   0  0  0  0  0  0  0  0  0  0  0  0
  -21.5441   -5.6953   23.7257 C   0  0  0  0  0  0  0  0  0  0  0  0
  -24.5607  -11.6752   20.7247 C   0  0  0  0  0  0  0  0  0  0  0  0
  -28.0631  -16.6382   21.8997 C   0  0  0  0  0  0  0  0  0  0  0  0
  -25.2309  -13.7527   20.4605 C   0  0  0  0  0  0  0  0  0  0  0  0
  -26.1716  -17.5173   22.6413 C   0  0  0  0  0  0  0  0  0  0  0  0
  -22.8405  -13.5372   21.1591 C   0  0  0  0  0  0  0  0  0  0  0  0
  -30.3592  -25.8790   26.4880 C   0  0  0  0  0  0  0  0  0  0  0  0
  -28.3379  -27.0736   24.2498 C   0  0  0  0  0  0  0  0  0  0  0  0
  -25.7196  -26.5352   22.1281 C   0  0  0  0  0  0  0  0  0  0  0  0
  -30.8083  -14.4984   21.2689 C   0  0  0  0  0  0  0  0  0  0  0  0
  -33.8732  -29.1066   28.3023 C   0  0  0  0  0  0  0  0  0  0  0  0
  -30.5857  -24.1744   24.6443 C   0  0  0  0  0  0  0  0  0  0  0  0
  -27.7537  -24.8134   25.2066 C   0  0  0  0  0  0  0  0  0  0  0  0
  -32.4362  -29.2261   27.8012 C   0  0  0  0  0  0  0  0  0  0  0  0
  -29.6592  -12.3644   18.4711 C   0  0  0  0  0  0  0  0  0  0  0  0
  -31.5514  -28.1737   28.4616 C   0  0  0  0  0  0  0  0  0  0  0  0
  -28.2155  -12.0524   18.8614 C   0  0  0  0  0  0  0  0  0  0  0  0
  -30.5353  -12.6175   19.6943 C   0  0  0  0  0  0  0  0  0  0  0  0
  -28.5670  -13.3610   20.9932 C   0  0  0  0  0  0  0  0  0  0  0  0
  -32.0253  -26.7574   28.1139 C   0  0  1  0  0  0  0  0  0  0  0  0
  -30.1415  -25.5816   25.0313 C   0  0  1  0  0  0  0  0  0  0  0  0
  -27.6473  -13.1467   19.7817 C   0  0  2  0  0  0  0  0  0  0  0  0
  -24.9043  -18.2882   22.6915 C   0  0  0  0  0  0  0  0  0  0  0  0
  -24.2661  -27.7119   20.4548 C   0  0  0  0  0  0  0  0  0  0  0  0
  -25.3217  -17.8915   27.1543 C   0  0  0  0  0  0  0  0  0  0  0  0
  -26.8199  -28.4276   26.5240 C   0  0  0  0  0  0  0  0  0  0  0  0
  -24.9045  -28.7701   24.9485 C   0  0  0  0  0  0  0  0  0  0  0  0
  -27.1098  -29.8372   24.4787 C   0  0  0  0  0  0  0  0  0  0  0  0
  -27.0578  -15.6700   25.8305 C   0  0  0  0  0  0  0  0  0  0  0  0
  -24.7321  -15.8580   25.0062 C   0  0  0  0  0  0  0  0  0  0  0  0
  -31.1841  -16.7270   22.2546 C   0  0  0  0  0  0  0  0  0  0  0  0
  -26.5827  -24.7377   19.9411 C   0  0  0  0  0  0  0  0  0  0  0  0
  -29.1314  -16.3638   20.9353 C   0  0  0  0  0  0  0  0  0  0  0  0
  -27.2774  -18.7850   25.8530 C   0  0  0  0  0  0  0  0  0  1  0  0
  -26.8534  -27.3394   24.1829 C   0  0  1  0  0  0  0  0  0  0  0  0
  -25.5227  -26.8810   20.6632 C   0  0  2  0  0  0  0  0  0  0  0  0
  -25.9556  -17.9965   25.7523 C   0  0  1  0  0  0  0  0  0  0  0  0
  -26.4322  -28.5675   25.0384 C   0  0  0  0  0  0  0  0  0  0  0  0
  -26.0960  -16.5934   25.0344 C   0  0  0  0  0  0  0  0  0  0  0  0
  -25.8407  -11.5698   20.3579 N   0  0  0  0  0  0  0  0  0  0  0  0
  -26.7059  -16.7848   23.6239 N   0  0  0  0  0  0  0  0  0  0  0  0
  -26.2205  -12.8498   20.2045 N   0  0  0  0  0  0  0  0  0  0  0  0
  -26.9890  -17.4358   21.5865 N   0  3  0  0  0  0  0  0  0  0  0  0
  -28.7242  -25.8234   24.7534 N   0  0  0  0  0  0  0  0  0  0  0  0
  -29.9504  -13.6306   20.5734 N   0  0  0  0  0  0  0  0  0  0  0  0
  -25.4421  -15.0819   20.3545 N   0  0  0  0  0  0  0  0  0  0  0  0
  -21.8177  -12.6363   21.4855 N   0  0  0  0  0  0  0  0  0  0  0  0
  -31.6069  -26.3987   26.7757 N   0  0  0  0  0  0  0  0  0  0  0  0
  -26.5230  -27.4561   22.7667 N   0  0  0  0  0  0  0  0  0  0  0  0
  -30.3273  -15.7870   21.5459 N   0  0  0  0  0  0  0  0  0  0  0  0
  -25.4049  -25.6384   19.8490 N   0  3  0  0  0  0  0  0  0  0  0  0
  -22.6005  -14.7684   21.1695 O   0  0  0  0  0  0  0  0  0  0  0  0
  -29.4613  -25.6549   27.2912 O   0  0  0  0  0  0  0  0  0  0  0  0
  -29.1256  -27.9404   23.8625 O   0  0  0  0  0  0  0  0  0  0  0  0
  -25.2086  -25.5490   22.6543 O   0  0  0  0  0  0  0  0  0  0  0  0
  -31.9432  -14.1449   21.6137 O   0  0  0  0  0  0  0  0  0  0  0  0
  -21.5482   -7.0784   21.7544 O   0  0  0  0  0  0  0  0  0  0  0  0
  -27.0180  -20.1071   26.3234 O   0  0  0  0  0  0  0  0  0  1  0  0
  -23.8755   -3.1200   24.8072 F   0  0  0  0  0  0  0  0  0  0  0  0
  -20.4125   -6.2782   24.1446 F   0  0  0  0  0  0  0  0  0  0  0  0
  1  2  1  0  0  0  0
  1  5  2  0  0  0  0
  2  6  2  0  0  0  0
  3  8  2  0  0  0  0
  3 16  1  0  0  0  0
  4  9  1  0  0  0  0
  4 16  2  0  0  0  0
  5 18  1  0  0  0  0
  6 20  1  0  0  0  0
  7 10  2  0  0  0  0
  7 19  1  0  0  0  0
  8 22  1  0  0  0  0
  9 22  2  0  0  0  0
 10 23  1  0  0  0  0
 11 12  2  0  0  0  0
 11 24  1  0  0  0  0
 12 25  1  0  0  0  0
 13 21  1  0  0  0  0
 13 23  2  0  0  0  0
 14 25  2  0  0  0  0
 14 26  1  0  0  0  0
 15 28  2  0  0  0  0
 15 66  1  0  0  0  0
 16 27  1  0  0  0  0
 17 27  1  0  0  0  0
 17 29  2  0  0  0  0
 17 31  1  0  0  0  0
 18 20  2  0  0  0  0
 18 36  1  0  0  0  0
 19 21  2  0  0  0  0
 19 37  1  0  0  0  0
 20 45  1  0  0  0  0
 21 38  1  0  0  0  0
 22 82  1  0  0  0  0
 23 83  1  0  0  0  0
 24 26  2  0  0  0  0
 24 82  1  0  0  0  0
 25 84  1  0  0  0  0
 26 85  1  0  0  0  0
 27 65  2  0  0  0  0
 28 58  1  0  0  0  0
 28 68  1  0  0  0  0
 29 67  1  0  0  0  0
 29 71  1  0  0  0  0
 30 48  1  0  0  0  0
 30 66  1  0  0  0  0
 30 68  2  0  0  0  0
 31 72  1  0  0  0  0
 31 77  2  0  0  0  0
 32 46  1  0  0  0  0
 32 73  1  0  0  0  0
 32 78  2  0  0  0  0
 33 60  1  0  0  0  0
 33 69  1  0  0  0  0
 33 79  2  0  0  0  0
 34 61  1  0  0  0  0
 34 74  1  0  0  0  0
 34 80  2  0  0  0  0
 35 70  1  0  0  0  0
 35 75  1  0  0  0  0
 35 81  2  0  0  0  0
 36 39  1  0  0  0  0
 37 46  1  0  0  0  0
 38 69  1  0  0  0  0
 39 41  1  0  0  0  0
 40 42  1  0  0  0  0
 40 43  1  0  0  0  0
 41 45  1  0  0  0  0
 42 47  1  0  0  0  0
 43 70  1  0  0  0  0
 44 47  1  0  0  0  0
 44 70  1  0  0  0  0
 45 73  1  0  0  0  0
 46 69  1  0  0  0  0
 47 67  1  0  0  0  0
 49 61  1  0  0  0  0
 50 62  1  0  0  0  0
 51 63  1  0  0  0  0
 52 63  1  0  0  0  0
 53 63  1  0  0  0  0
 54 64  1  0  0  0  0
 55 64  1  0  0  0  0
 56 75  1  0  0  0  0
 57 76  1  0  0  0  0
 58 75  1  0  0  0  0
 59 62  1  0  0  0  0
 59 83  1  0  0  0  0
 60 63  1  0  0  0  0
 60 74  1  0  0  0  0
 61 76  1  0  0  0  0
 62 64  1  0  0  0  0
 64 66  1  0  0  0  0
 65 67  1  0  0  0  0
M  CHG  2  68   1  76   1
M  ISO  4  35 100  59 101  75 100  83 101
M  END
> <Batch ID>
0056

> <Smiles>
CNC(C)C(=O)NC(C(=O)N1Cc2cc([101O:1][101CH2:1]C(C)C(C)(C)n3cc(C[100N:0](C)[100C:0](=O)N4CCCC(n5nc(-c6ccc(Oc7ccc(F)cc7F)cc6)c(C(N)=O)c5N)C4)nc3C)ccc2CC1C(=O)NC1CCCc2ccccc21)C(C)(C)C

> <Shape>
0.195

> <Color>
0.173

> <Negative vol penalty>
0.000

$$$$

  -OEChem-04052317463D

 81 89  0     1  0  0  0  0  0999 V2000
  -21.0359  -25.5922   24.3317 C   0  0  0  0  0  0  0  0  0  0  0  0
  -21.7878  -24.4245   24.4125 C   0  0  0  0  0  0  0  0  0  0  0  0
  -23.2854   -9.7996   19.9122 C   0  0  0  0  0  0  0  0  0  0  0  0
  -23.7273   -9.9427   22.2831 C   0  0  0  0  0  0  0  0  0  0  0  0
  -20.3014  -25.8687   23.1793 C   0  0  0  0  0  0  0  0  0  0  0  0
  -21.8047  -23.5320   23.3413 C   0  0  0  0  0  0  0  0  0  0  0  0
  -26.4676  -21.8736   22.2677 C   0  0  0  0  0  0  0  0  0  0  0  0
  -22.5553   -8.6292   20.1189 C   0  0  0  0  0  0  0  0  0  0  0  0
  -22.9971   -8.7723   22.4898 C   0  0  0  0  0  0  0  0  0  0  0  0
  -26.9964  -20.8820   23.0929 C   0  0  0  0  0  0  0  0  0  0  0  0
  -19.4673   -7.7784   21.2022 C   0  0  0  0  0  0  0  0  0  0  0  0
  -18.2405   -7.6560   20.5499 C   0  0  0  0  0  0  0  0  0  0  0  0
  -26.4244  -19.2149   21.4458 C   0  0  0  0  0  0  0  0  0  0  0  0
  -19.0414   -5.6794   19.4146 C   0  0  0  0  0  0  0  0  0  0  0  0
  -23.8715  -10.4563   20.9943 C   0  0  0  0  0  0  0  0  0  0  0  0
  -24.1382  -12.9853   20.7928 C   0  0  0  0  0  0  0  0  0  0  0  0
  -20.3170  -24.9838   22.0897 C   0  0  0  0  0  0  0  0  0  0  0  0
  -25.9024  -21.5414   21.0281 C   0  0  0  0  0  0  0  0  0  0  0  0
  -21.0687  -23.7962   22.1737 C   0  0  0  0  0  0  0  0  0  0  0  0
  -25.8914  -20.2044   20.6057 C   0  0  0  0  0  0  0  0  0  0  0  0
  -22.4110   -8.1156   21.4077 C   0  0  0  0  0  0  0  0  0  0  0  0
  -26.9723  -19.5521   22.6833 C   0  0  0  0  0  0  0  0  0  0  0  0
  -20.4812   -6.8513   20.9607 C   0  0  0  0  0  0  0  0  0  0  0  0
  -18.0275   -6.6066   19.6561 C   0  0  0  0  0  0  0  0  0  0  0  0
  -20.2682   -5.8019   20.0670 C   0  0  0  0  0  0  0  0  0  0  0  0
  -24.6264  -11.6649   20.7814 C   0  0  0  0  0  0  0  0  0  0  0  0
  -29.2994  -15.5678   24.3757 C   0  0  0  0  0  0  0  0  0  0  0  0
  -29.3177  -14.1988   24.2822 C   0  0  0  0  0  0  0  0  0  0  0  0
  -25.2427  -13.7619   20.5410 C   0  0  0  0  0  0  0  0  0  0  0  0
  -22.8055  -13.4667   21.0117 C   0  0  0  0  0  0  0  0  0  0  0  0
  -23.0094  -21.8076   19.7383 C   0  0  0  0  0  0  0  0  0  0  0  0
  -31.1117  -12.7858   21.3858 C   0  0  0  0  0  0  0  0  0  0  0  0
  -24.5262  -20.7467   17.0744 C   0  0  0  0  0  0  0  0  0  0  0  0
  -27.1529  -19.0381   15.7225 C   0  0  0  0  0  0  0  0  0  0  0  0
  -19.4695  -25.3025   20.8835 C   0  0  0  0  0  0  0  0  0  0  0  0
  -25.3603  -22.6260   20.1380 C   0  0  0  0  0  0  0  0  0  0  0  0
  -25.3144  -19.7979   19.2752 C   0  0  0  0  0  0  0  0  0  0  0  0
  -19.8389  -24.4873   19.6469 C   0  0  0  0  0  0  0  0  0  0  0  0
  -29.4722  -13.6637   18.3229 C   0  0  0  0  0  0  0  0  0  0  0  0
  -20.0004  -23.0139   20.0075 C   0  0  0  0  0  0  0  0  0  0  0  0
  -28.0034  -13.3438   18.5975 C   0  0  0  0  0  0  0  0  0  0  0  0
  -30.3992  -12.6733   19.0207 C   0  0  0  0  0  0  0  0  0  0  0  0
  -28.7038  -12.2427   20.7705 C   0  0  0  0  0  0  0  0  0  0  0  0
  -21.1321  -22.8154   21.0231 C   0  0  1  0  0  0  0  0  0  0  0  0
  -24.3451  -22.1128   19.1214 C   0  0  1  0  0  0  0  0  0  0  0  0
  -27.7339  -13.2377   20.1090 C   0  0  2  0  0  0  0  0  0  0  0  0
  -28.5519  -13.1432   24.9636 C   0  0  0  0  0  0  0  0  0  0  0  0
  -31.8819  -12.1074   23.6490 C   0  0  0  0  0  0  0  0  0  0  0  0
  -28.1017  -18.3067   13.5174 C   0  0  0  0  0  0  0  0  0  0  0  0
  -22.4073  -18.5588   16.8911 C   0  0  0  0  0  0  0  0  0  0  0  0
  -23.9057  -17.3378   15.2998 C   0  0  0  0  0  0  0  0  0  0  0  0
  -23.0288  -19.5951   14.7016 C   0  0  0  0  0  0  0  0  0  0  0  0
  -29.6473  -20.5707   16.1559 C   0  0  0  0  0  0  0  0  0  0  0  0
  -28.4469  -16.4536   25.2487 C   0  0  0  0  0  0  0  0  0  0  0  0
  -27.0064  -16.6026   24.7545 C   0  0  0  0  0  0  0  0  0  0  0  0
  -26.9019  -17.2840   23.3950 C   0  0  0  0  0  0  0  0  0  1  0  0
  -30.7225  -12.6822   22.8391 C   0  0  1  0  0  0  0  0  0  0  0  0
  -24.8163  -19.3906   16.4778 C   0  0  1  0  0  0  0  0  0  0  0  0
  -28.1042  -19.3837   14.5911 C   0  0  2  0  0  0  0  0  0  0  0  0
  -23.5488  -18.7277   15.8685 C   0  0  0  0  0  0  0  0  0  0  0  0
  -25.9388  -11.6025   20.5410 N   0  0  0  0  0  0  0  0  0  0  0  0
  -30.2203  -16.0994   23.5161 N   0  0  0  0  0  0  0  0  0  0  0  0
  -30.8162  -15.0944   22.8837 N   0  0  0  0  0  0  0  0  0  0  0  0
  -30.2735  -13.9557   23.3443 N   0  0  0  0  0  0  0  0  0  0  0  0
  -26.2846  -12.8934   20.3991 N   0  0  0  0  0  0  0  0  0  0  0  0
  -24.7908  -20.8939   18.4433 N   0  0  0  0  0  0  0  0  0  0  0  0
  -30.0966  -12.5847   20.4503 N   0  0  0  0  0  0  0  0  0  0  0  0
  -25.4145  -15.0963   20.4292 N   0  0  0  0  0  0  0  0  0  0  0  0
  -21.7896  -12.5327   21.2566 N   0  0  0  0  0  0  0  0  0  0  0  0
  -22.4194  -22.8881   20.3659 N   0  0  0  0  0  0  0  0  0  0  0  0
  -25.9038  -19.5878   15.5255 N   0  0  0  0  0  0  0  0  0  0  0  0
  -29.4942  -19.5280   15.1088 N   0  3  0  0  0  0  0  0  0  0  0  0
  -22.5209  -14.6878   20.9744 O   0  0  0  0  0  0  0  0  0  0  0  0
  -22.5476  -20.6759   19.6500 O   0  0  0  0  0  0  0  0  0  0  0  0
  -32.2827  -13.0409   21.0929 O   0  0  0  0  0  0  0  0  0  0  0  0
  -24.0878  -21.6444   16.3508 O   0  0  0  0  0  0  0  0  0  0  0  0
  -27.4837  -18.3462   16.6829 O   0  0  0  0  0  0  0  0  0  0  0  0
  -21.6984   -6.9738   21.6098 O   0  0  0  0  0  0  0  0  0  0  0  0
  -27.4872  -18.5822   23.4870 O   0  0  0  0  0  0  0  0  0  1  0  0
  -16.8489   -6.4883   19.0309 F   0  0  0  0  0  0  0  0  0  0  0  0
  -21.2381   -4.9075   19.8318 F   0  0  0  0  0  0  0  0  0  0  0  0
  1  2  1  0  0  0  0
  1  5  2  0  0  0  0
  2  6  2  0  0  0  0
  3  8  2  0  0  0  0
  3 15  1  0  0  0  0
  4  9  1  0  0  0  0
  4 15  2  0  0  0  0
  5 17  1  0  0  0  0
  6 19  1  0  0  0  0
  7 10  2  0  0  0  0
  7 18  1  0  0  0  0
  8 21  1  0  0  0  0
  9 21  2  0  0  0  0
 10 22  1  0  0  0  0
 11 12  2  0  0  0  0
 11 23  1  0  0  0  0
 12 24  1  0  0  0  0
 13 20  1  0  0  0  0
 13 22  2  0  0  0  0
 14 24  2  0  0  0  0
 14 25  1  0  0  0  0
 15 26  1  0  0  0  0
 16 26  1  0  0  0  0
 16 29  2  0  0  0  0
 16 30  1  0  0  0  0
 17 19  2  0  0  0  0
 17 35  1  0  0  0  0
 18 20  2  0  0  0  0
 18 36  1  0  0  0  0
 19 44  1  0  0  0  0
 20 37  1  0  0  0  0
 21 78  1  0  0  0  0
 22 79  1  0  0  0  0
 23 25  2  0  0  0  0
 23 78  1  0  0  0  0
 24 80  1  0  0  0  0
 25 81  1  0  0  0  0
 26 61  2  0  0  0  0
 27 28  2  0  0  0  0
 27 54  1  0  0  0  0
 27 62  1  0  0  0  0
 28 47  1  0  0  0  0
 28 64  1  0  0  0  0
 29 65  1  0  0  0  0
 29 68  1  0  0  0  0
 30 69  1  0  0  0  0
 30 73  2  0  0  0  0
 31 45  1  0  0  0  0
 31 70  1  0  0  0  0
 31 74  2  0  0  0  0
 32 57  1  0  0  0  0
 32 67  1  0  0  0  0
 32 75  2  0  0  0  0
 33 58  1  0  0  0  0
 33 66  1  0  0  0  0
 33 76  2  0  0  0  0
 34 59  1  0  0  0  0
 34 71  1  0  0  0  0
 34 77  2  0  0  0  0
 35 38  1  0  0  0  0
 36 45  1  0  0  0  0
 37 66  1  0  0  0  0
 38 40  1  0  0  0  0
 39 41  1  0  0  0  0
 39 42  1  0  0  0  0
 40 44  1  0  0  0  0
 41 46  1  0  0  0  0
 42 67  1  0  0  0  0
 43 46  1  0  0  0  0
 43 67  1  0  0  0  0
 44 70  1  0  0  0  0
 45 66  1  0  0  0  0
 46 65  1  0  0  0  0
 48 57  1  0  0  0  0
 49 59  1  0  0  0  0
 50 60  1  0  0  0  0
 51 60  1  0  0  0  0
 52 60  1  0  0  0  0
 53 72  1  0  0  0  0
 54 55  1  0  0  0  0
 55 56  1  0  0  0  0
 56 79  1  0  0  0  0
 57 64  1  0  0  0  0
 58 60  1  0  0  0  0
 58 71  1  0  0  0  0
 59 72  1  0  0  0  0
 61 65  1  0  0  0  0
 62 63  2  0  0  0  0
 63 64  1  0  0  0  0
M  CHG  1  72   1
M  ISO  4  32 100  56 101  57 100  79 101
M  END
> <Batch ID>
0056

> <Smiles>
CNC(C)C(=O)NC(C(=O)N1Cc2cc([101O:1][101CH2:1]CCc3nnn([100CH:0](C)[100C:0](=O)N4CCCC(n5nc(-c6ccc(Oc7ccc(F)cc7F)cc6)c(C(N)=O)c5N)C4)c3C)ccc2CC1C(=O)NC1CCCc2ccccc21)C(C)(C)C

> <Shape>
0.145

> <Color>
0.176

> <Negative vol penalty>
0.000

$$$$

  -OEChem-04052317463D

 83 91  0     1  0  0  0  0  0999 V2000
  -17.5333  -32.4612   21.7882 C   0  0  0  0  0  0  0  0  0  0  0  0
  -18.7044  -32.4317   21.0379 C   0  0  0  0  0  0  0  0  0  0  0  0
  -25.8767  -13.1098   21.2286 C   0  0  0  0  0  0  0  0  0  0  0  0
  -24.6220  -14.0798   19.4059 C   0  0  0  0  0  0  0  0  0  0  0  0
  -17.4891  -31.8371   23.0341 C   0  0  0  0  0  0  0  0  0  0  0  0
  -19.8325  -31.7788   21.5336 C   0  0  0  0  0  0  0  0  0  0  0  0
  -25.5190  -28.0145   19.3406 C   0  0  0  0  0  0  0  0  0  0  0  0
  -24.8268  -12.2272   21.4817 C   0  0  0  0  0  0  0  0  0  0  0  0
  -23.5720  -13.1971   19.6591 C   0  0  0  0  0  0  0  0  0  0  0  0
  -26.9074  -27.9896   19.4651 C   0  0  0  0  0  0  0  0  0  0  0  0
  -22.6244   -9.4773   22.3779 C   0  0  0  0  0  0  0  0  0  0  0  0
  -22.9431   -8.1385   22.6050 C   0  0  0  0  0  0  0  0  0  0  0  0
  -26.6905  -26.8782   21.5952 C   0  0  0  0  0  0  0  0  0  0  0  0
  -23.9455   -8.0050   20.4108 C   0  0  0  0  0  0  0  0  0  0  0  0
  -30.4921  -23.2931   18.5410 C   0  0  0  0  0  0  0  0  0  0  0  0
  -25.7743  -14.0362   20.1907 C   0  0  0  0  0  0  0  0  0  0  0  0
  -27.9523  -14.7441   19.0669 C   0  0  0  0  0  0  0  0  0  0  0  0
  -18.6142  -31.1680   23.5412 C   0  0  0  0  0  0  0  0  0  0  0  0
  -24.7043  -27.4802   20.3492 C   0  0  0  0  0  0  0  0  0  0  0  0
  -19.8036  -31.1463   22.7882 C   0  0  0  0  0  0  0  0  0  0  0  0
  -25.2921  -26.8952   21.4799 C   0  0  0  0  0  0  0  0  0  0  0  0
  -23.6744  -12.2708   20.6970 C   0  0  0  0  0  0  0  0  0  0  0  0
  -27.4933  -27.4241   20.5938 C   0  0  0  0  0  0  0  0  0  0  0  0
  -22.9662  -10.0800   21.1672 C   0  0  0  0  0  0  0  0  0  0  0  0
  -23.6037   -7.4023   21.6215 C   0  0  0  0  0  0  0  0  0  0  0  0
  -23.6267   -9.3438   20.1837 C   0  0  0  0  0  0  0  0  0  0  0  0
  -26.8584  -14.9486   19.9291 C   0  0  0  0  0  0  0  0  0  0  0  0
  -28.6914  -15.8972   19.1706 C   0  0  0  0  0  0  0  0  0  0  0  0
  -28.4382  -23.2816   18.1688 C   0  0  0  0  0  0  0  0  0  0  0  0
  -28.2717  -13.6131   18.2457 C   0  0  0  0  0  0  0  0  0  0  0  0
  -22.4915  -28.6575   22.3040 C   0  0  0  0  0  0  0  0  0  0  0  0
  -22.1145  -25.5414   23.1227 C   0  0  0  0  0  0  0  0  0  0  0  0
  -23.4597  -22.4102   23.3032 C   0  0  0  0  0  0  0  0  0  0  0  0
  -27.2864  -21.5192   20.6772 C   0  0  0  0  0  0  0  0  0  0  0  0
  -18.5328  -30.5484   24.9138 C   0  0  0  0  0  0  0  0  0  0  0  0
  -23.2089  -27.4908   20.1874 C   0  0  0  0  0  0  0  0  0  0  0  0
  -24.4624  -26.2900   22.5815 C   0  0  0  0  0  0  0  0  0  0  0  0
  -19.6573  -29.5572   25.2023 C   0  0  0  0  0  0  0  0  0  0  0  0
  -29.7116  -19.4281   22.2337 C   0  0  0  0  0  0  0  0  0  0  0  0
  -21.0037  -30.1416   24.7872 C   0  0  0  0  0  0  0  0  0  0  0  0
  -29.3540  -18.0245   21.7417 C   0  0  0  0  0  0  0  0  0  0  0  0
  -28.4650  -20.2785   22.4682 C   0  0  0  0  0  0  0  0  0  0  0  0
  -27.1884  -18.9570   20.8258 C   0  0  0  0  0  0  0  0  0  0  0  0
  -21.0405  -30.4270   23.2810 C   0  0  1  0  0  0  0  0  0  0  0  0
  -22.4636  -27.3798   21.5139 C   0  0  1  0  0  0  0  0  0  0  0  0
  -28.4151  -18.0802   20.5217 C   0  0  2  0  0  0  0  0  0  0  0  0
  -23.5493  -19.9336   23.6983 C   0  0  0  0  0  0  0  0  0  0  0  0
  -26.9535  -21.8712   16.5867 C   0  0  0  0  0  0  0  0  0  0  0  0
  -26.4691  -24.2741   16.9707 C   0  0  0  0  0  0  0  0  0  0  0  0
  -22.5158  -26.3857   26.0272 C   0  0  0  0  0  0  0  0  0  0  0  0
  -22.9187  -23.9814   26.5975 C   0  0  0  0  0  0  0  0  0  0  0  0
  -20.7125  -24.6894   25.6735 C   0  0  0  0  0  0  0  0  0  0  0  0
  -22.6037  -21.8199   20.5323 C   0  0  0  0  0  0  0  0  0  0  0  0
  -30.9191  -26.6035   19.8044 C   0  0  0  0  0  0  0  0  0  0  0  0
  -30.7208  -25.1838   20.3399 C   0  0  0  0  0  0  0  0  0  0  0  0
  -26.0651  -22.6182   18.8171 C   0  0  0  0  0  0  0  0  0  0  0  0
  -29.6098  -27.3277   19.5135 C   0  0  0  0  0  0  0  0  0  1  0  0
  -22.7303  -24.6243   24.1516 C   0  0  1  0  0  0  0  0  0  0  0  0
  -22.9156  -21.0547   22.8894 C   0  0  2  0  0  0  0  0  0  0  0  0
  -27.0905  -23.0104   17.6762 C   0  0  0  0  0  0  0  0  0  0  0  0
  -22.2352  -24.9332   25.5928 C   0  0  0  0  0  0  0  0  0  0  0  0
  -29.5364  -22.6694   17.7911 N   0  0  0  0  0  0  0  0  0  0  0  0
  -26.8953  -16.1379   20.5359 N   0  0  0  0  0  0  0  0  0  0  0  0
  -28.7378  -24.2251   19.1015 N   0  0  0  0  0  0  0  0  0  0  0  0
  -30.0543  -24.2527   19.3589 N   0  0  0  0  0  0  0  0  0  0  0  0
  -28.0215  -16.6911   20.0544 N   0  0  0  0  0  0  0  0  0  0  0  0
  -23.0045  -26.3303   22.3800 N   0  0  0  0  0  0  0  0  0  0  0  0
  -27.6181  -20.2912   21.2730 N   0  0  0  0  0  0  0  0  0  0  0  0
  -29.8425  -16.2992   18.5912 N   0  0  0  0  0  0  0  0  0  0  0  0
  -27.4044  -12.5122   18.2579 N   0  0  0  0  0  0  0  0  0  0  0  0
  -21.2430  -29.2010   22.5391 N   0  0  0  0  0  0  0  0  0  0  0  0
  -22.4536  -23.2638   23.7035 N   0  0  0  0  0  0  0  0  0  0  0  0
  -26.4852  -21.4413   19.5446 N   0  0  0  0  0  0  0  0  0  0  0  0
  -23.1894  -20.8054   21.4458 N   0  3  0  0  0  0  0  0  0  0  0  0
  -29.3046  -13.5730   17.5350 O   0  0  0  0  0  0  0  0  0  0  0  0
  -23.5661  -29.1155   22.6744 O   0  0  0  0  0  0  0  0  0  0  0  0
  -20.8896  -25.5521   22.9780 O   0  0  0  0  0  0  0  0  0  0  0  0
  -24.6578  -22.6830   23.2776 O   0  0  0  0  0  0  0  0  0  0  0  0
  -27.6799  -22.6043   21.1185 O   0  0  0  0  0  0  0  0  0  0  0  0
  -22.6497  -11.4095   20.9435 O   0  0  0  0  0  0  0  0  0  0  0  0
  -28.8482  -27.3991   20.7182 O   0  0  0  0  0  0  0  0  0  1  0  0
  -23.9110   -6.1171   21.8403 F   0  0  0  0  0  0  0  0  0  0  0  0
  -23.9587   -9.9176   19.0190 F   0  0  0  0  0  0  0  0  0  0  0  0
  1  2  1  0  0  0  0
  1  5  2  0  0  0  0
  2  6  2  0  0  0  0
  3  8  2  0  0  0  0
  3 16  1  0  0  0  0
  4  9  1  0  0  0  0
  4 16  2  0  0  0  0
  5 18  1  0  0  0  0
  6 20  1  0  0  0  0
  7 10  2  0  0  0  0
  7 19  1  0  0  0  0
  8 22  1  0  0  0  0
  9 22  2  0  0  0  0
 10 23  1  0  0  0  0
 11 12  2  0  0  0  0
 11 24  1  0  0  0  0
 12 25  1  0  0  0  0
 13 21  1  0  0  0  0
 13 23  2  0  0  0  0
 14 25  2  0  0  0  0
 14 26  1  0  0  0  0
 15 62  2  0  0  0  0
 15 65  1  0  0  0  0
 16 27  1  0  0  0  0
 17 27  1  0  0  0  0
 17 28  2  0  0  0  0
 17 30  1  0  0  0  0
 18 20  2  0  0  0  0
 18 35  1  0  0  0  0
 19 21  2  0  0  0  0
 19 36  1  0  0  0  0
 20 44  1  0  0  0  0
 21 37  1  0  0  0  0
 22 80  1  0  0  0  0
 23 81  1  0  0  0  0
 24 26  2  0  0  0  0
 24 80  1  0  0  0  0
 25 82  1  0  0  0  0
 26 83  1  0  0  0  0
 27 63  2  0  0  0  0
 28 66  1  0  0  0  0
 28 69  1  0  0  0  0
 29 60  1  0  0  0  0
 29 62  1  0  0  0  0
 29 64  2  0  0  0  0
 30 70  1  0  0  0  0
 30 75  2  0  0  0  0
 31 45  1  0  0  0  0
 31 71  1  0  0  0  0
 31 76  2  0  0  0  0
 32 58  1  0  0  0  0
 32 67  1  0  0  0  0
 32 77  2  0  0  0  0
 33 59  1  0  0  0  0
 33 72  1  0  0  0  0
 33 78  2  0  0  0  0
 34 68  1  0  0  0  0
 34 73  1  0  0  0  0
 34 79  2  0  0  0  0
 35 38  1  0  0  0  0
 36 45  1  0  0  0  0
 37 67  1  0  0  0  0
 38 40  1  0  0  0  0
 39 41  1  0  0  0  0
 39 42  1  0  0  0  0
 40 44  1  0  0  0  0
 41 46  1  0  0  0  0
 42 68  1  0  0  0  0
 43 46  1  0  0  0  0
 43 68  1  0  0  0  0
 44 71  1  0  0  0  0
 45 67  1  0  0  0  0
 46 66  1  0  0  0  0
 47 59  1  0  0  0  0
 48 60  1  0  0  0  0
 49 60  1  0  0  0  0
 50 61  1  0  0  0  0
 51 61  1  0  0  0  0
 52 61  1  0  0  0  0
 53 74  1  0  0  0  0
 54 55  1  0  0  0  0
 54 57  1  0  0  0  0
 55 65  1  0  0  0  0
 56 60  1  0  0  0  0
 56 73  1  0  0  0  0
 57 81  1  0  0  0  0
 58 61  1  0  0  0  0
 58 72  1  0  0  0  0
 59 74  1  0  0  0  0
 63 66  1  0  0  0  0
 64 65  1  0  0  0  0
M  CHG  1  74   1
M  ISO  4  34 100  57 101  73 100  81 101
M  END
> <Batch ID>
0056

> <Smiles>
CNC(C)C(=O)NC(C(=O)N1Cc2cc([101O:1][101CH2:1]CCn3cnc(C(C)(C)C[100NH:0][100C:0](=O)N4CCCC(n5nc(-c6ccc(Oc7ccc(F)cc7F)cc6)c(C(N)=O)c5N)C4)n3)ccc2CC1C(=O)NC1CCCc2ccccc21)C(C)(C)C

> <Shape>
0.245

> <Color>
0.078

> <Negative vol penalty>
0.000

$$$$

  -OEChem-04052317463D

 80 88  0     1  0  0  0  0  0999 V2000
  -28.6276  -24.7374   17.1482 C   0  0  0  0  0  0  0  0  0  0  0  0
  -27.4147  -24.8976   17.8105 C   0  0  0  0  0  0  0  0  0  0  0  0
  -26.3059  -20.2640   21.6510 C   0  0  0  0  0  0  0  0  0  0  0  0
  -25.9451  -21.2431   19.4719 C   0  0  0  0  0  0  0  0  0  0  0  0
  -29.7844  -25.3205   17.6639 C   0  0  0  0  0  0  0  0  0  0  0  0
  -27.3580  -25.6401   18.9894 C   0  0  0  0  0  0  0  0  0  0  0  0
  -23.4200  -28.8222   19.0941 C   0  0  0  0  0  0  0  0  0  0  0  0
  -27.6261  -19.9776   21.3037 C   0  0  0  0  0  0  0  0  0  0  0  0
  -27.2654  -20.9568   19.1247 C   0  0  0  0  0  0  0  0  0  0  0  0
  -22.1696  -28.2785   19.3849 C   0  0  0  0  0  0  0  0  0  0  0  0
  -30.9885  -18.6653   20.8615 C   0  0  0  0  0  0  0  0  0  0  0  0
  -31.4848  -17.4012   21.1798 C   0  0  0  0  0  0  0  0  0  0  0  0
  -17.3595  -23.8468   22.5619 C   0  0  0  0  0  0  0  0  0  0  0  0
  -22.3740  -29.0428   21.6638 C   0  0  0  0  0  0  0  0  0  0  0  0
  -29.7744  -16.3847   19.8091 C   0  0  0  0  0  0  0  0  0  0  0  0
  -16.5909  -22.6961   22.8206 C   0  0  0  0  0  0  0  0  0  0  0  0
  -25.4654  -20.8968   20.7350 C   0  0  0  0  0  0  0  0  0  0  0  0
  -23.6172  -22.3664   21.7004 C   0  0  0  0  0  0  0  0  0  0  0  0
  -29.7401  -26.0785   18.8446 C   0  0  0  0  0  0  0  0  0  0  0  0
  -24.1628  -29.4719   20.0903 C   0  0  0  0  0  0  0  0  0  0  0  0
  -28.5156  -26.2327   19.5221 C   0  0  0  0  0  0  0  0  0  0  0  0
  -23.6324  -29.5962   21.3824 C   0  0  0  0  0  0  0  0  0  0  0  0
  -28.1059  -20.3240   20.0406 C   0  0  0  0  0  0  0  0  0  0  0  0
  -21.6477  -28.3862   20.6707 C   0  0  0  0  0  0  0  0  0  0  0  0
  -29.8852  -18.7892   20.0171 C   0  0  0  0  0  0  0  0  0  0  0  0
  -30.8778  -16.2609   20.6535 C   0  0  0  0  0  0  0  0  0  0  0  0
  -29.2782  -17.6489   19.4909 C   0  0  0  0  0  0  0  0  0  0  0  0
  -24.1013  -21.1924   21.0929 C   0  0  0  0  0  0  0  0  0  0  0  0
  -17.7708  -23.6994   21.2598 C   0  0  0  0  0  0  0  0  0  0  0  0
  -22.2661  -22.1549   21.8281 C   0  0  0  0  0  0  0  0  0  0  0  0
  -24.3254  -23.5430   22.1123 C   0  0  0  0  0  0  0  0  0  0  0  0
  -26.9845  -28.9759   21.4673 C   0  0  0  0  0  0  0  0  0  0  0  0
  -17.4289  -20.4136   19.6237 C   0  0  0  0  0  0  0  0  0  0  0  0
  -26.3531  -31.8218   22.8901 C   0  0  0  0  0  0  0  0  0  0  0  0
  -24.0236  -34.1012   23.9022 C   0  0  0  0  0  0  0  0  0  0  0  0
  -31.0253  -26.6500   19.3889 C   0  0  0  0  0  0  0  0  0  0  0  0
  -25.4983  -30.0764   19.7538 C   0  0  0  0  0  0  0  0  0  0  0  0
  -24.3811  -30.3018   22.4824 C   0  0  0  0  0  0  0  0  0  0  0  0
  -30.8119  -27.7346   20.4417 C   0  0  0  0  0  0  0  0  0  0  0  0
  -19.5080  -17.9683   21.2168 C   0  0  0  0  0  0  0  0  0  0  0  0
  -29.7672  -27.2911   21.4609 C   0  0  0  0  0  0  0  0  0  0  0  0
  -20.8565  -18.6749   21.3489 C   0  0  0  0  0  0  0  0  0  0  0  0
  -18.7894  -18.3722   19.9332 C   0  0  0  0  0  0  0  0  0  0  0  0
  -19.9527  -20.5557   19.9099 C   0  0  0  0  0  0  0  0  0  0  0  0
  -28.4091  -27.0516   20.7902 C   0  0  1  0  0  0  0  0  0  0  0  0
  -26.3931  -30.2663   20.9748 C   0  0  1  0  0  0  0  0  0  0  0  0
  -20.6980  -20.1992   21.2083 C   0  0  2  0  0  0  0  0  0  0  0  0
  -16.3002  -22.3530   18.5558 C   0  0  0  0  0  0  0  0  0  0  0  0
  -23.8082  -36.3115   25.0708 C   0  0  0  0  0  0  0  0  0  0  0  0
  -26.8543  -30.4512   25.5697 C   0  0  0  0  0  0  0  0  0  0  0  0
  -25.7230  -32.3832   26.6904 C   0  0  0  0  0  0  0  0  0  0  0  0
  -27.8131  -32.7532   25.3799 C   0  0  0  0  0  0  0  0  0  0  0  0
  -22.7944  -35.3684   21.5269 C   0  0  0  0  0  0  0  0  0  0  0  0
  -18.6208  -24.5841   20.3832 C   0  0  0  0  0  0  0  0  0  0  0  0
  -19.0999  -25.8610   21.0770 C   0  0  0  0  0  0  0  0  0  0  0  0
  -20.0278  -26.7063   20.2123 C   0  0  0  0  0  0  0  0  0  1  0  0
  -17.3944  -21.9182   19.5276 C   0  0  1  0  0  0  0  0  0  0  0  0
  -25.6569  -32.2516   24.1587 C   0  0  1  0  0  0  0  0  0  0  0  0
  -23.9469  -35.6075   23.7299 C   0  0  2  0  0  0  0  0  0  0  0  0
  -26.4983  -31.9448   25.4297 C   0  0  0  0  0  0  0  0  0  0  0  0
  -16.5165  -21.8782   21.7673 N   0  0  0  0  0  0  0  0  0  0  0  0
  -23.1363  -20.3010   20.8517 N   0  0  0  0  0  0  0  0  0  0  0  0
  -17.2437  -22.5157   20.8341 N   0  0  0  0  0  0  0  0  0  0  0  0
  -22.0323  -20.9151   21.3099 N   0  0  0  0  0  0  0  0  0  0  0  0
  -25.6855  -30.8707   22.1054 N   0  0  0  0  0  0  0  0  0  0  0  0
  -18.6787  -19.8280   19.8262 N   0  0  0  0  0  0  0  0  0  0  0  0
  -21.2672  -22.9102   22.3321 N   0  0  0  0  0  0  0  0  0  0  0  0
  -25.7109  -23.5951   21.9072 N   0  0  0  0  0  0  0  0  0  0  0  0
  -27.7469  -28.3109   20.5259 N   0  0  0  0  0  0  0  0  0  0  0  0
  -25.3281  -33.6624   23.9861 N   0  0  0  0  0  0  0  0  0  0  0  0
  -22.7759  -35.9731   22.8838 N   0  3  0  0  0  0  0  0  0  0  0  0
  -23.7493  -24.5126   22.6615 O   0  0  0  0  0  0  0  0  0  0  0  0
  -26.7665  -28.6112   22.6167 O   0  0  0  0  0  0  0  0  0  0  0  0
  -16.3751  -19.7797   19.5245 O   0  0  0  0  0  0  0  0  0  0  0  0
  -27.4455  -32.3171   22.6022 O   0  0  0  0  0  0  0  0  0  0  0  0
  -23.0259  -33.3858   23.9607 O   0  0  0  0  0  0  0  0  0  0  0  0
  -29.3941  -20.0449   19.7015 O   0  0  0  0  0  0  0  0  0  0  0  0
  -20.4277  -27.8558   20.9574 O   0  0  0  0  0  0  0  0  0  1  0  0
  -31.3554  -15.0470   20.9580 F   0  0  0  0  0  0  0  0  0  0  0  0
  -28.2186  -17.7616   18.6782 F   0  0  0  0  0  0  0  0  0  0  0  0
  1  2  1  0  0  0  0
  1  5  2  0  0  0  0
  2  6  2  0  0  0  0
  3  8  2  0  0  0  0
  3 17  1  0  0  0  0
  4  9  1  0  0  0  0
  4 17  2  0  0  0  0
  5 19  1  0  0  0  0
  6 21  1  0  0  0  0
  7 10  2  0  0  0  0
  7 20  1  0  0  0  0
  8 23  1  0  0  0  0
  9 23  2  0  0  0  0
 10 24  1  0  0  0  0
 11 12  2  0  0  0  0
 11 25  1  0  0  0  0
 12 26  1  0  0  0  0
 13 16  1  0  0  0  0
 13 29  2  0  0  0  0
 14 22  1  0  0  0  0
 14 24  2  0  0  0  0
 15 26  2  0  0  0  0
 15 27  1  0  0  0  0
 16 61  2  0  0  0  0
 17 28  1  0  0  0  0
 18 28  1  0  0  0  0
 18 30  2  0  0  0  0
 18 31  1  0  0  0  0
 19 21  2  0  0  0  0
 19 36  1  0  0  0  0
 20 22  2  0  0  0  0
 20 37  1  0  0  0  0
 21 45  1  0  0  0  0
 22 38  1  0  0  0  0
 23 77  1  0  0  0  0
 24 78  1  0  0  0  0
 25 27  2  0  0  0  0
 25 77  1  0  0  0  0
 26 79  1  0  0  0  0
 27 80  1  0  0  0  0
 28 62  2  0  0  0  0
 29 54  1  0  0  0  0
 29 63  1  0  0  0  0
 30 64  1  0  0  0  0
 30 67  1  0  0  0  0
 31 68  1  0  0  0  0
 31 72  2  0  0  0  0
 32 46  1  0  0  0  0
 32 69  1  0  0  0  0
 32 73  2  0  0  0  0
 33 57  1  0  0  0  0
 33 66  1  0  0  0  0
 33 74  2  0  0  0  0
 34 58  1  0  0  0  0
 34 65  1  0  0  0  0
 34 75  2  0  0  0  0
 35 59  1  0  0  0  0
 35 70  1  0  0  0  0
 35 76  2  0  0  0  0
 36 39  1  0  0  0  0
 37 46  1  0  0  0  0
 38 65  1  0  0  0  0
 39 41  1  0  0  0  0
 40 42  1  0  0  0  0
 40 43  1  0  0  0  0
 41 45  1  0  0  0  0
 42 47  1  0  0  0  0
 43 66  1  0  0  0  0
 44 47  1  0  0  0  0
 44 66  1  0  0  0  0
 45 69  1  0  0  0  0
 46 65  1  0  0  0  0
 47 64  1  0  0  0  0
 48 57  1  0  0  0  0
 49 59  1  0  0  0  0
 50 60  1  0  0  0  0
 51 60  1  0  0  0  0
 52 60  1  0  0  0  0
 53 71  1  0  0  0  0
 54 55  1  0  0  0  0
 55 56  1  0  0  0  0
 56 78  1  0  0  0  0
 57 63  1  0  0  0  0
 58 60  1  0  0  0  0
 58 70  1  0  0  0  0
 59 71  1  0  0  0  0
 61 63  1  0  0  0  0
 62 64  1  0  0  0  0
M  CHG  1  71   1
M  ISO  4  33 100  56 101  57 100  78 101
M  END
> <Batch ID>
0056

> <Smiles>
CNC(C)C(=O)NC(C(=O)N1Cc2cc([101O:1][101CH2:1]CCc3ccnn3[100CH:0](C)[100C:0](=O)N3CCCC(n4nc(-c5ccc(Oc6ccc(F)cc6F)cc5)c(C(N)=O)c4N)C3)ccc2CC1C(=O)NC1CCCc2ccccc21)C(C)(C)C

> <Shape>
0.248

> <Color>
0.068

> <Negative vol penalty>
0.000

$$$$

  -OEChem-04052317463D

 80 88  0     1  0  0  0  0  0999 V2000
  -24.8557  -31.7605   21.2819 C   0  0  0  0  0  0  0  0  0  0  0  0
  -25.9368  -30.9194   21.5254 C   0  0  0  0  0  0  0  0  0  0  0  0
  -21.7700  -17.8817   21.0965 C   0  0  0  0  0  0  0  0  0  0  0  0
  -23.8230  -18.9323   20.3764 C   0  0  0  0  0  0  0  0  0  0  0  0
  -23.6544  -31.2314   20.8119 C   0  0  0  0  0  0  0  0  0  0  0  0
  -25.8169  -29.5486   21.3001 C   0  0  0  0  0  0  0  0  0  0  0  0
  -29.6613  -23.8774   19.2085 C   0  0  0  0  0  0  0  0  0  0  0  0
  -21.4092  -19.0485   21.7703 C   0  0  0  0  0  0  0  0  0  0  0  0
  -23.4621  -20.0992   21.0501 C   0  0  0  0  0  0  0  0  0  0  0  0
  -29.9809  -22.5831   19.6164 C   0  0  0  0  0  0  0  0  0  0  0  0
  -19.7801  -21.8718   23.3797 C   0  0  0  0  0  0  0  0  0  0  0  0
  -18.4688  -22.3248   23.2356 C   0  0  0  0  0  0  0  0  0  0  0  0
  -27.8823  -21.7916   18.7282 C   0  0  0  0  0  0  0  0  0  0  0  0
  -18.8009  -22.5274   20.8511 C   0  0  0  0  0  0  0  0  0  0  0  0
  -28.2190  -16.8837   20.5104 C   0  0  0  0  0  0  0  0  0  0  0  0
  -30.3846  -16.4880   20.6108 C   0  0  0  0  0  0  0  0  0  0  0  0
  -22.9769  -17.8236   20.3996 C   0  0  0  0  0  0  0  0  0  0  0  0
  -23.0553  -16.2809   18.3694 C   0  0  0  0  0  0  0  0  0  0  0  0
  -23.5228  -29.8546   20.5714 C   0  0  0  0  0  0  0  0  0  0  0  0
  -28.4430  -24.1408   18.5660 C   0  0  0  0  0  0  0  0  0  0  0  0
  -24.6123  -29.0004   20.8276 C   0  0  0  0  0  0  0  0  0  0  0  0
  -27.5508  -23.0896   18.3109 C   0  0  0  0  0  0  0  0  0  0  0  0
  -22.2552  -20.1573   21.7471 C   0  0  0  0  0  0  0  0  0  0  0  0
  -29.0901  -21.5404   19.3789 C   0  0  0  0  0  0  0  0  0  0  0  0
  -20.6019  -21.7467   22.2596 C   0  0  0  0  0  0  0  0  0  0  0  0
  -17.9792  -22.6526   21.9713 C   0  0  0  0  0  0  0  0  0  0  0  0
  -20.1123  -22.0745   20.9953 C   0  0  0  0  0  0  0  0  0  0  0  0
  -23.3505  -16.6184   19.7039 C   0  0  0  0  0  0  0  0  0  0  0  0
  -28.9474  -17.9498   20.0380 C   0  0  0  0  0  0  0  0  0  0  0  0
  -23.6272  -15.0447   18.1933 C   0  0  0  0  0  0  0  0  0  0  0  0
  -22.3291  -17.0190   17.3776 C   0  0  0  0  0  0  0  0  0  0  0  0
  -25.8995  -25.9292   19.2265 C   0  0  0  0  0  0  0  0  0  0  0  0
  -24.9789  -25.0294   16.2490 C   0  0  0  0  0  0  0  0  0  0  0  0
  -28.1838  -12.2969   20.9860 C   0  0  0  0  0  0  0  0  0  0  0  0
  -25.2069  -22.7640   13.7068 C   0  0  0  0  0  0  0  0  0  0  0  0
  -22.1896  -29.3228   20.1083 C   0  0  0  0  0  0  0  0  0  0  0  0
  -28.1250  -25.5379   18.1083 C   0  0  0  0  0  0  0  0  0  0  0  0
  -26.2389  -23.3163   17.6067 C   0  0  0  0  0  0  0  0  0  0  0  0
  -22.2626  -27.9084   19.5388 C   0  0  0  0  0  0  0  0  0  0  0  0
  -24.8324  -11.0922   20.5899 C   0  0  0  0  0  0  0  0  0  0  0  0
  -23.0858  -27.0066   20.4530 C   0  0  0  0  0  0  0  0  0  0  0  0
  -24.0407  -12.3471   20.2244 C   0  0  0  0  0  0  0  0  0  0  0  0
  -25.9535  -11.4066   21.5755 C   0  0  0  0  0  0  0  0  0  0  0  0
  -26.0979  -13.7331   20.7460 C   0  0  0  0  0  0  0  0  0  0  0  0
  -24.5290  -27.5112   20.5718 C   0  0  1  0  0  0  0  0  0  0  0  0
  -26.6303  -25.7799   17.9221 C   0  0  1  0  0  0  0  0  0  0  0  0
  -24.9748  -13.4651   19.7285 C   0  0  2  0  0  0  0  0  0  0  0  0
  -24.3072  -22.2776   11.4152 C   0  0  0  0  0  0  0  0  0  0  0  0
  -28.5160  -13.7999   19.0459 C   0  0  0  0  0  0  0  0  0  0  0  0
  -30.4591  -12.9932   20.3957 C   0  0  0  0  0  0  0  0  0  0  0  0
  -22.3561  -24.0772   17.4836 C   0  0  0  0  0  0  0  0  0  0  0  0
  -21.9228  -22.7768   15.3885 C   0  0  0  0  0  0  0  0  0  0  0  0
  -22.1094  -25.2626   15.2953 C   0  0  0  0  0  0  0  0  0  0  0  0
  -27.8996  -22.9238   12.4891 C   0  0  0  0  0  0  0  0  0  0  0  0
  -28.4403  -19.2560   19.5011 C   0  0  0  0  0  0  0  0  0  1  0  0
  -28.8901  -14.6532   21.4365 C   0  0  0  0  0  0  0  0  0  0  0  0
  -24.1894  -23.8769   15.6767 C   0  0  1  0  0  0  0  0  0  0  0  0
  -25.4171  -22.9429   12.2140 C   0  0  2  0  0  0  0  0  0  0  0  0
  -28.9943  -13.4554   20.4614 C   0  0  0  0  0  0  0  0  0  0  0  0
  -22.6682  -23.9941   15.9760 C   0  0  0  0  0  0  0  0  0  0  0  0
  -30.2949  -17.6972   20.1029 N   0  0  0  0  0  0  0  0  0  0  0  0
  -24.0550  -15.6728   20.3311 N   0  0  0  0  0  0  0  0  0  0  0  0
  -29.1533  -15.9549   20.8731 N   0  0  0  0  0  0  0  0  0  0  0  0
  -24.2072  -14.7289   19.3866 N   0  0  0  0  0  0  0  0  0  0  0  0
  -25.9706  -24.7008   17.1842 N   0  0  0  0  0  0  0  0  0  0  0  0
  -26.8051  -12.4886   21.0782 N   0  0  0  0  0  0  0  0  0  0  0  0
  -23.6854  -14.2077   17.1357 N   0  0  0  0  0  0  0  0  0  0  0  0
  -21.8087  -18.2729   17.7259 N   0  0  0  0  0  0  0  0  0  0  0  0
  -25.2870  -27.1569   19.3909 N   0  0  0  0  0  0  0  0  0  0  0  0
  -24.5165  -23.8238   14.2559 N   0  0  0  0  0  0  0  0  0  0  0  0
  -26.7179  -22.3457   11.7989 N   0  3  0  0  0  0  0  0  0  0  0  0
  -22.1331  -16.5725   16.2219 O   0  0  0  0  0  0  0  0  0  0  0  0
  -25.8907  -24.9988   20.0240 O   0  0  0  0  0  0  0  0  0  0  0  0
  -24.7299  -26.1781   15.8747 O   0  0  0  0  0  0  0  0  0  0  0  0
  -28.7603  -11.2526   21.3011 O   0  0  0  0  0  0  0  0  0  0  0  0
  -25.6112  -21.7807   14.3233 O   0  0  0  0  0  0  0  0  0  0  0  0
  -21.9033  -21.2961   22.4042 O   0  0  0  0  0  0  0  0  0  0  0  0
  -29.3992  -20.2763   19.7766 O   0  0  0  0  0  0  0  0  0  1  0  0
  -16.7194  -23.0861   21.8328 F   0  0  0  0  0  0  0  0  0  0  0  0
  -20.8967  -21.9552   19.9153 F   0  0  0  0  0  0  0  0  0  0  0  0
  1  2  1  0  0  0  0
  1  5  2  0  0  0  0
  2  6  2  0  0  0  0
  3  8  2  0  0  0  0
  3 17  1  0  0  0  0
  4  9  1  0  0  0  0
  4 17  2  0  0  0  0
  5 19  1  0  0  0  0
  6 21  1  0  0  0  0
  7 10  2  0  0  0  0
  7 20  1  0  0  0  0
  8 23  1  0  0  0  0
  9 23  2  0  0  0  0
 10 24  1  0  0  0  0
 11 12  2  0  0  0  0
 11 25  1  0  0  0  0
 12 26  1  0  0  0  0
 13 22  1  0  0  0  0
 13 24  2  0  0  0  0
 14 26  2  0  0  0  0
 14 27  1  0  0  0  0
 15 29  2  0  0  0  0
 15 63  1  0  0  0  0
 16 61  2  0  0  0  0
 16 63  1  0  0  0  0
 17 28  1  0  0  0  0
 18 28  1  0  0  0  0
 18 30  2  0  0  0  0
 18 31  1  0  0  0  0
 19 21  2  0  0  0  0
 19 36  1  0  0  0  0
 20 22  2  0  0  0  0
 20 37  1  0  0  0  0
 21 45  1  0  0  0  0
 22 38  1  0  0  0  0
 23 77  1  0  0  0  0
 24 78  1  0  0  0  0
 25 27  2  0  0  0  0
 25 77  1  0  0  0  0
 26 79  1  0  0  0  0
 27 80  1  0  0  0  0
 28 62  2  0  0  0  0
 29 55  1  0  0  0  0
 29 61  1  0  0  0  0
 30 64  1  0  0  0  0
 30 67  1  0  0  0  0
 31 68  1  0  0  0  0
 31 72  2  0  0  0  0
 32 46  1  0  0  0  0
 32 69  1  0  0  0  0
 32 73  2  0  0  0  0
 33 57  1  0  0  0  0
 33 65  1  0  0  0  0
 33 74  2  0  0  0  0
 34 59  1  0  0  0  0
 34 66  1  0  0  0  0
 34 75  2  0  0  0  0
 35 58  1  0  0  0  0
 35 70  1  0  0  0  0
 35 76  2  0  0  0  0
 36 39  1  0  0  0  0
 37 46  1  0  0  0  0
 38 65  1  0  0  0  0
 39 41  1  0  0  0  0
 40 42  1  0  0  0  0
 40 43  1  0  0  0  0
 41 45  1  0  0  0  0
 42 47  1  0  0  0  0
 43 66  1  0  0  0  0
 44 47  1  0  0  0  0
 44 66  1  0  0  0  0
 45 69  1  0  0  0  0
 46 65  1  0  0  0  0
 47 64  1  0  0  0  0
 48 58  1  0  0  0  0
 49 59  1  0  0  0  0
 50 59  1  0  0  0  0
 51 60  1  0  0  0  0
 52 60  1  0  0  0  0
 53 60  1  0  0  0  0
 54 71  1  0  0  0  0
 55 78  1  0  0  0  0
 56 59  1  0  0  0  0
 56 63  1  0  0  0  0
 57 60  1  0  0  0  0
 57 70  1  0  0  0  0
 58 71  1  0  0  0  0
 62 64  1  0  0  0  0
M  CHG  1  71   1
M  ISO  4  34 100  55 101  59 100  78 101
M  END
> <Batch ID>
0056

> <Smiles>
CNC(C)C(=O)NC(C(=O)N1Cc2cc([101O:1][101CH2:1]c3cn(C[100C:0](C)(C)[100C:0](=O)N4CCCC(n5nc(-c6ccc(Oc7ccc(F)cc7F)cc6)c(C(N)=O)c5N)C4)cn3)ccc2CC1C(=O)NC1CCCc2ccccc21)C(C)(C)C

> <Shape>
0.185

> <Color>
0.075

> <Negative vol penalty>
0.000

$$$$

  -OEChem-04052317463D

 83 91  0     1  0  0  0  0  0999 V2000
  -17.5505  -32.3382   22.0771 C   0  0  0  0  0  0  0  0  0  0  0  0
  -18.6775  -32.3210   21.2616 C   0  0  0  0  0  0  0  0  0  0  0  0
  -25.8643  -13.1576   21.0270 C   0  0  0  0  0  0  0  0  0  0  0  0
  -24.4789  -14.1641   19.3227 C   0  0  0  0  0  0  0  0  0  0  0  0
  -17.5793  -31.7026   23.3176 C   0  0  0  0  0  0  0  0  0  0  0  0
  -19.8344  -31.6689   21.6868 C   0  0  0  0  0  0  0  0  0  0  0  0
  -25.4035  -27.9511   19.1412 C   0  0  0  0  0  0  0  0  0  0  0  0
  -24.8242  -12.2899   21.3600 C   0  0  0  0  0  0  0  0  0  0  0  0
  -23.4389  -13.2963   19.6556 C   0  0  0  0  0  0  0  0  0  0  0  0
  -26.7968  -27.9316   19.1869 C   0  0  0  0  0  0  0  0  0  0  0  0
  -22.6579   -9.5681   22.4155 C   0  0  0  0  0  0  0  0  0  0  0  0
  -22.9717   -8.2223   22.6051 C   0  0  0  0  0  0  0  0  0  0  0  0
  -29.4915  -22.6804   17.3778 C   0  0  0  0  0  0  0  0  0  0  0  0
  -26.7051  -26.7999   21.3152 C   0  0  0  0  0  0  0  0  0  0  0  0
  -23.7859   -8.0922   20.3341 C   0  0  0  0  0  0  0  0  0  0  0  0
  -30.5250  -23.2792   18.0558 C   0  0  0  0  0  0  0  0  0  0  0  0
  -25.6916  -14.0948   20.0084 C   0  0  0  0  0  0  0  0  0  0  0  0
  -27.7803  -14.7775   18.7126 C   0  0  0  0  0  0  0  0  0  0  0  0
  -18.7339  -31.0341   23.7541 C   0  0  0  0  0  0  0  0  0  0  0  0
  -24.6492  -27.4040   20.1891 C   0  0  0  0  0  0  0  0  0  0  0  0
  -19.8791  -31.0248   22.9350 C   0  0  0  0  0  0  0  0  0  0  0  0
  -25.3023  -26.8114   21.2792 C   0  0  0  0  0  0  0  0  0  0  0  0
  -23.6116  -12.3591   20.6743 C   0  0  0  0  0  0  0  0  0  0  0  0
  -27.4478  -27.3585   20.2754 C   0  0  0  0  0  0  0  0  0  0  0  0
  -22.9080  -10.1760   21.1852 C   0  0  0  0  0  0  0  0  0  0  0  0
  -23.5358   -7.4844   21.5645 C   0  0  0  0  0  0  0  0  0  0  0  0
  -23.4720   -9.4380   20.1445 C   0  0  0  0  0  0  0  0  0  0  0  0
  -26.7654  -14.9919   19.6644 C   0  0  0  0  0  0  0  0  0  0  0  0
  -28.3357  -23.3259   17.8567 C   0  0  0  0  0  0  0  0  0  0  0  0
  -28.5448  -15.9174   18.7631 C   0  0  0  0  0  0  0  0  0  0  0  0
  -28.0112  -13.6489   17.8590 C   0  0  0  0  0  0  0  0  0  0  0  0
  -22.5455  -28.5531   22.2766 C   0  0  0  0  0  0  0  0  0  0  0  0
  -22.2283  -25.4279   23.0860 C   0  0  0  0  0  0  0  0  0  0  0  0
  -23.5944  -22.3014   23.1609 C   0  0  0  0  0  0  0  0  0  0  0  0
  -27.3650  -21.5477   20.4241 C   0  0  0  0  0  0  0  0  0  0  0  0
  -18.7328  -30.4017   25.1233 C   0  0  0  0  0  0  0  0  0  0  0  0
  -23.1470  -27.4090   20.1121 C   0  0  0  0  0  0  0  0  0  0  0  0
  -24.5387  -26.1923   22.4202 C   0  0  0  0  0  0  0  0  0  0  0  0
  -19.8759  -29.4131   25.3385 C   0  0  0  0  0  0  0  0  0  0  0  0
  -29.8755  -19.4038   21.7574 C   0  0  0  0  0  0  0  0  0  0  0  0
  -21.1943  -30.0075   24.8536 C   0  0  0  0  0  0  0  0  0  0  0  0
  -29.4546  -18.0106   21.2863 C   0  0  0  0  0  0  0  0  0  0  0  0
  -28.6673  -20.2721   22.1014 C   0  0  0  0  0  0  0  0  0  0  0  0
  -27.2364  -18.9862   20.5609 C   0  0  0  0  0  0  0  0  0  0  0  0
  -21.1448  -30.3068   23.3504 C   0  0  1  0  0  0  0  0  0  0  0  0
  -22.4783  -27.2825   21.4774 C   0  0  1  0  0  0  0  0  0  0  0  0
  -28.4186  -18.0924   20.1491 C   0  0  2  0  0  0  0  0  0  0  0  0
  -23.7163  -19.8218   23.5271 C   0  0  0  0  0  0  0  0  0  0  0  0
  -26.7169  -21.9470   16.3820 C   0  0  0  0  0  0  0  0  0  0  0  0
  -26.2920  -24.3514   16.8226 C   0  0  0  0  0  0  0  0  0  0  0  0
  -22.7895  -26.2474   25.9710 C   0  0  0  0  0  0  0  0  0  0  0  0
  -23.2339  -23.8399   26.4951 C   0  0  0  0  0  0  0  0  0  0  0  0
  -20.9760  -24.5462   25.7037 C   0  0  0  0  0  0  0  0  0  0  0  0
  -22.5856  -21.7326   20.4373 C   0  0  0  0  0  0  0  0  0  0  0  0
  -30.8269  -26.5611   19.2862 C   0  0  0  0  0  0  0  0  0  0  0  0
  -30.6650  -25.1356   19.8187 C   0  0  0  0  0  0  0  0  0  0  0  0
  -26.0120  -22.6830   18.6806 C   0  0  0  0  0  0  0  0  0  0  0  0
  -29.5003  -27.2819   19.0764 C   0  0  0  0  0  0  0  0  0  1  0  0
  -22.9050  -24.5043   24.0699 C   0  0  1  0  0  0  0  0  0  0  0  0
  -23.0334  -20.9473   22.7658 C   0  0  2  0  0  0  0  0  0  0  0  0
  -26.9391  -23.0722   17.4640 C   0  0  0  0  0  0  0  0  0  0  0  0
  -22.4908  -24.7978   25.5395 C   0  0  0  0  0  0  0  0  0  0  0  0
  -26.8727  -16.1749   20.2750 N   0  0  0  0  0  0  0  0  0  0  0  0
  -28.6088  -24.2629   18.7686 N   0  0  0  0  0  0  0  0  0  0  0  0
  -29.9480  -24.2105   18.8682 N   0  0  0  0  0  0  0  0  0  0  0  0
  -27.9641  -16.7141   19.7057 N   0  0  0  0  0  0  0  0  0  0  0  0
  -23.0716  -26.2276   22.3017 N   0  0  0  0  0  0  0  0  0  0  0  0
  -27.7243  -20.3092   20.9809 N   0  0  0  0  0  0  0  0  0  0  0  0
  -29.6503  -16.3060   18.0929 N   0  0  0  0  0  0  0  0  0  0  0  0
  -27.1295  -12.5621   17.9351 N   0  0  0  0  0  0  0  0  0  0  0  0
  -21.3101  -29.0886   22.5869 N   0  0  0  0  0  0  0  0  0  0  0  0
  -22.6090  -23.1467   23.6254 N   0  0  0  0  0  0  0  0  0  0  0  0
  -26.4712  -21.4930   19.3616 N   0  0  0  0  0  0  0  0  0  0  0  0
  -23.2262  -20.7124   21.3068 N   0  3  0  0  0  0  0  0  0  0  0  0
  -28.9806  -13.5985   17.0645 O   0  0  0  0  0  0  0  0  0  0  0  0
  -23.6374  -29.0127   22.5900 O   0  0  0  0  0  0  0  0  0  0  0  0
  -20.9970  -25.4342   23.0108 O   0  0  0  0  0  0  0  0  0  0  0  0
  -24.7880  -22.5801   23.0703 O   0  0  0  0  0  0  0  0  0  0  0  0
  -27.8120  -22.6223   20.8394 O   0  0  0  0  0  0  0  0  0  0  0  0
  -22.5966  -11.5124   20.9988 O   0  0  0  0  0  0  0  0  0  0  0  0
  -28.8076  -27.3387   20.3228 O   0  0  0  0  0  0  0  0  0  1  0  0
  -23.8385   -6.1924   21.7472 F   0  0  0  0  0  0  0  0  0  0  0  0
  -23.7156  -10.0168   18.9607 F   0  0  0  0  0  0  0  0  0  0  0  0
  1  2  1  0  0  0  0
  1  5  2  0  0  0  0
  2  6  2  0  0  0  0
  3  8  2  0  0  0  0
  3 17  1  0  0  0  0
  4  9  1  0  0  0  0
  4 17  2  0  0  0  0
  5 19  1  0  0  0  0
  6 21  1  0  0  0  0
  7 10  2  0  0  0  0
  7 20  1  0  0  0  0
  8 23  1  0  0  0  0
  9 23  2  0  0  0  0
 10 24  1  0  0  0  0
 11 12  2  0  0  0  0
 11 25  1  0  0  0  0
 12 26  1  0  0  0  0
 13 16  2  0  0  0  0
 13 29  1  0  0  0  0
 14 22  1  0  0  0  0
 14 24  2  0  0  0  0
 15 26  2  0  0  0  0
 15 27  1  0  0  0  0
 16 65  1  0  0  0  0
 17 28  1  0  0  0  0
 18 28  1  0  0  0  0
 18 30  2  0  0  0  0
 18 31  1  0  0  0  0
 19 21  2  0  0  0  0
 19 36  1  0  0  0  0
 20 22  2  0  0  0  0
 20 37  1  0  0  0  0
 21 45  1  0  0  0  0
 22 38  1  0  0  0  0
 23 80  1  0  0  0  0
 24 81  1  0  0  0  0
 25 27  2  0  0  0  0
 25 80  1  0  0  0  0
 26 82  1  0  0  0  0
 27 83  1  0  0  0  0
 28 63  2  0  0  0  0
 29 61  1  0  0  0  0
 29 64  2  0  0  0  0
 30 66  1  0  0  0  0
 30 69  1  0  0  0  0
 31 70  1  0  0  0  0
 31 75  2  0  0  0  0
 32 46  1  0  0  0  0
 32 71  1  0  0  0  0
 32 76  2  0  0  0  0
 33 59  1  0  0  0  0
 33 67  1  0  0  0  0
 33 77  2  0  0  0  0
 34 60  1  0  0  0  0
 34 72  1  0  0  0  0
 34 78  2  0  0  0  0
 35 68  1  0  0  0  0
 35 73  1  0  0  0  0
 35 79  2  0  0  0  0
 36 39  1  0  0  0  0
 37 46  1  0  0  0  0
 38 67  1  0  0  0  0
 39 41  1  0  0  0  0
 40 42  1  0  0  0  0
 40 43  1  0  0  0  0
 41 45  1  0  0  0  0
 42 47  1  0  0  0  0
 43 68  1  0  0  0  0
 44 47  1  0  0  0  0
 44 68  1  0  0  0  0
 45 71  1  0  0  0  0
 46 67  1  0  0  0  0
 47 66  1  0  0  0  0
 48 60  1  0  0  0  0
 49 61  1  0  0  0  0
 50 61  1  0  0  0  0
 51 62  1  0  0  0  0
 52 62  1  0  0  0  0
 53 62  1  0  0  0  0
 54 74  1  0  0  0  0
 55 56  1  0  0  0  0
 55 58  1  0  0  0  0
 56 65  1  0  0  0  0
 57 61  1  0  0  0  0
 57 73  1  0  0  0  0
 58 81  1  0  0  0  0
 59 62  1  0  0  0  0
 59 72  1  0  0  0  0
 60 74  1  0  0  0  0
 63 66  1  0  0  0  0
 64 65  1  0  0  0  0
M  CHG  1  74   1
M  ISO  4  35 100  58 101  73 100  81 101
M  END
> <Batch ID>
0056

> <Smiles>
CNC(C)C(=O)NC(C(=O)N1Cc2cc([101O:1][101CH2:1]CCn3ccc(C(C)(C)C[100NH:0][100C:0](=O)N4CCCC(n5nc(-c6ccc(Oc7ccc(F)cc7F)cc6)c(C(N)=O)c5N)C4)n3)ccc2CC1C(=O)NC1CCCc2ccccc21)C(C)(C)C

> <Shape>
0.243

> <Color>
0.076

> <Negative vol penalty>
0.000

$$$$

  -OEChem-04052317463D

 82 90  0     1  0  0  0  0  0999 V2000
  -29.5480  -10.7381   16.0628 C   0  0  0  0  0  0  0  0  0  0  0  0
  -28.5762  -11.6638   15.6966 C   0  0  0  0  0  0  0  0  0  0  0  0
  -25.2523  -30.5705   20.2261 C   0  0  0  0  0  0  0  0  0  0  0  0
  -24.0558  -28.9359   21.5428 C   0  0  0  0  0  0  0  0  0  0  0  0
  -30.0598  -10.7425   17.3597 C   0  0  0  0  0  0  0  0  0  0  0  0
  -28.1148  -12.5938   16.6275 C   0  0  0  0  0  0  0  0  0  0  0  0
  -26.3971  -18.3674   15.5224 C   0  0  0  0  0  0  0  0  0  0  0  0
  -25.0049  -31.5369   21.2010 C   0  0  0  0  0  0  0  0  0  0  0  0
  -23.8084  -29.9023   22.5177 C   0  0  0  0  0  0  0  0  0  0  0  0
  -25.1459  -18.9558   15.3435 C   0  0  0  0  0  0  0  0  0  0  0  0
  -26.2481  -32.4002   24.2246 C   0  0  0  0  0  0  0  0  0  0  0  0
  -27.3088  -33.2209   24.6077 C   0  0  0  0  0  0  0  0  0  0  0  0
  -25.1153  -19.5846   17.6722 C   0  0  0  0  0  0  0  0  0  0  0  0
  -26.0620  -35.1644   23.8969 C   0  0  0  0  0  0  0  0  0  0  0  0
  -20.1742  -20.4168   15.4388 C   0  0  0  0  0  0  0  0  0  0  0  0
  -24.7777  -29.2700   20.3970 C   0  0  0  0  0  0  0  0  0  0  0  0
  -26.1372  -27.4020   19.3152 C   0  0  0  0  0  0  0  0  0  0  0  0
  -29.6115  -11.6793   18.3042 C   0  0  0  0  0  0  0  0  0  0  0  0
  -27.0130  -18.3736   16.7822 C   0  0  0  0  0  0  0  0  0  0  0  0
  -28.6202  -12.6100   17.9386 C   0  0  0  0  0  0  0  0  0  0  0  0
  -26.3755  -18.9978   17.8639 C   0  0  0  0  0  0  0  0  0  0  0  0
  -24.2830  -31.2028   22.3468 C   0  0  0  0  0  0  0  0  0  0  0  0
  -24.5035  -19.5620   16.4191 C   0  0  0  0  0  0  0  0  0  0  0  0
  -25.0942  -32.9616   23.6776 C   0  0  0  0  0  0  0  0  0  0  0  0
  -27.2158  -34.6030   24.4439 C   0  0  0  0  0  0  0  0  0  0  0  0
  -25.0012  -34.3437   23.5138 C   0  0  0  0  0  0  0  0  0  0  0  0
  -25.0324  -28.2713   19.3900 C   0  0  0  0  0  0  0  0  0  0  0  0
  -21.3933  -20.7888   14.9465 C   0  0  0  0  0  0  0  0  0  0  0  0
  -25.9109  -26.6557   18.1846 C   0  0  0  0  0  0  0  0  0  0  0  0
  -19.9632  -22.4291   14.5406 C   0  0  0  0  0  0  0  0  0  0  0  0
  -27.2669  -27.2800   20.1896 C   0  0  0  0  0  0  0  0  0  0  0  0
  -27.9499  -16.1321   18.8320 C   0  0  0  0  0  0  0  0  0  0  0  0
  -29.1874  -18.6661   20.4351 C   0  0  0  0  0  0  0  0  0  0  0  0
  -29.1021  -22.0195   21.0627 C   0  0  0  0  0  0  0  0  0  0  0  0
  -20.9310  -25.1751   15.3804 C   0  0  0  0  0  0  0  0  0  0  0  0
  -30.1602  -11.6148   19.7076 C   0  0  0  0  0  0  0  0  0  0  0  0
  -28.3747  -17.7579   16.9526 C   0  0  0  0  0  0  0  0  0  0  0  0
  -27.0032  -19.0493   19.2320 C   0  0  0  0  0  0  0  0  0  0  0  0
  -29.8891  -12.8746   20.5260 C   0  0  0  0  0  0  0  0  0  0  0  0
  -23.7630  -26.8854   13.9136 C   0  0  0  0  0  0  0  0  0  0  0  0
  -28.4348  -13.3083   20.3725 C   0  0  0  0  0  0  0  0  0  0  0  0
  -24.5156  -27.3525   15.1609 C   0  0  0  0  0  0  0  0  0  0  0  0
  -22.2530  -26.9749   14.1133 C   0  0  0  0  0  0  0  0  0  0  0  0
  -22.4947  -26.7010   16.5505 C   0  0  0  0  0  0  0  0  0  0  0  0
  -28.1123  -13.6506   18.9129 C   0  0  1  0  0  0  0  0  0  0  0  0
  -28.6793  -17.3715   18.3966 C   0  0  1  0  0  0  0  0  0  0  0  0
  -24.0261  -26.6133   16.4203 C   0  0  2  0  0  0  0  0  0  0  0  0
  -18.8396  -23.6546   12.6439 C   0  0  0  0  0  0  0  0  0  0  0  0
  -30.2117  -23.7931   22.4485 C   0  0  0  0  0  0  0  0  0  0  0  0
  -17.6954  -21.4262   17.0447 C   0  0  0  0  0  0  0  0  0  0  0  0
  -17.1157  -20.3710   14.8183 C   0  0  0  0  0  0  0  0  0  0  0  0
  -27.6622  -17.6962   22.8933 C   0  0  0  0  0  0  0  0  0  0  0  0
  -28.0238  -19.9504   23.9210 C   0  0  0  0  0  0  0  0  0  0  0  0
  -29.9809  -18.5096   23.3582 C   0  0  0  0  0  0  0  0  0  0  0  0
  -30.0118  -23.4904   18.6611 C   0  0  0  0  0  0  0  0  0  0  0  0
  -22.7167  -20.0818   14.9382 C   0  0  0  0  0  0  0  0  0  1  0  0
  -19.4018  -23.7215   14.0743 C   0  0  2  0  0  0  0  0  0  0  0  0
  -28.6777  -19.6136   21.4941 C   0  0  1  0  0  0  0  0  0  0  0  0
  -30.2035  -23.0630   21.1145 C   0  0  2  0  0  0  0  0  0  0  0  0
  -17.9034  -21.4728   15.5296 C   0  0  0  0  0  0  0  0  0  0  0  0
  -28.5732  -18.9400   22.8914 C   0  0  0  0  0  0  0  0  0  0  0  0
  -24.1686  -28.0948   18.3867 N   0  0  0  0  0  0  0  0  0  0  0  0
  -19.3085  -21.4506   15.1743 N   0  0  0  0  0  0  0  0  0  0  0  0
  -24.7305  -27.1061   17.6708 N   0  0  0  0  0  0  0  0  0  0  0  0
  -21.2334  -22.0376   14.3962 N   0  3  0  0  0  0  0  0  0  0  0  0
  -28.3327  -18.4279   19.3496 N   0  0  0  0  0  0  0  0  0  0  0  0
  -21.8504  -26.2354   15.3179 N   0  0  0  0  0  0  0  0  0  0  0  0
  -26.6085  -25.6648   17.5897 N   0  0  0  0  0  0  0  0  0  0  0  0
  -27.3425  -28.1247   21.3054 N   0  0  0  0  0  0  0  0  0  0  0  0
  -28.6316  -14.9582   18.5738 N   0  0  0  0  0  0  0  0  0  0  0  0
  -29.5556  -20.7783   21.4564 N   0  0  0  0  0  0  0  0  0  0  0  0
  -20.3605  -24.7998   14.1703 N   0  0  0  0  0  0  0  0  0  0  0  0
  -30.0165  -24.0677   20.0299 N   0  3  0  0  0  0  0  0  0  0  0  0
  -28.1905  -26.4579   19.9783 O   0  0  0  0  0  0  0  0  0  0  0  0
  -26.8507  -16.2335   19.3642 O   0  0  0  0  0  0  0  0  0  0  0  0
  -30.3058  -18.1615   20.5628 O   0  0  0  0  0  0  0  0  0  0  0  0
  -27.9534  -22.2803   20.7120 O   0  0  0  0  0  0  0  0  0  0  0  0
  -20.6435  -24.6012   16.4364 O   0  0  0  0  0  0  0  0  0  0  0  0
  -24.0416  -32.1456   23.2984 O   0  0  0  0  0  0  0  0  0  0  0  0
  -23.2820  -20.1366   16.2473 O   0  0  0  0  0  0  0  0  0  1  0  0
  -28.2340  -35.3911   24.8133 F   0  0  0  0  0  0  0  0  0  0  0  0
  -23.8948  -34.8889   22.9899 F   0  0  0  0  0  0  0  0  0  0  0  0
  1  2  1  0  0  0  0
  1  5  2  0  0  0  0
  2  6  2  0  0  0  0
  3  8  2  0  0  0  0
  3 16  1  0  0  0  0
  4  9  1  0  0  0  0
  4 16  2  0  0  0  0
  5 18  1  0  0  0  0
  6 20  1  0  0  0  0
  7 10  2  0  0  0  0
  7 19  1  0  0  0  0
  8 22  1  0  0  0  0
  9 22  2  0  0  0  0
 10 23  1  0  0  0  0
 11 12  2  0  0  0  0
 11 24  1  0  0  0  0
 12 25  1  0  0  0  0
 13 21  1  0  0  0  0
 13 23  2  0  0  0  0
 14 25  2  0  0  0  0
 14 26  1  0  0  0  0
 15 28  2  0  0  0  0
 15 63  1  0  0  0  0
 16 27  1  0  0  0  0
 17 27  1  0  0  0  0
 17 29  2  0  0  0  0
 17 31  1  0  0  0  0
 18 20  2  0  0  0  0
 18 36  1  0  0  0  0
 19 21  2  0  0  0  0
 19 37  1  0  0  0  0
 20 45  1  0  0  0  0
 21 38  1  0  0  0  0
 22 79  1  0  0  0  0
 23 80  1  0  0  0  0
 24 26  2  0  0  0  0
 24 79  1  0  0  0  0
 25 81  1  0  0  0  0
 26 82  1  0  0  0  0
 27 62  2  0  0  0  0
 28 56  1  0  0  0  0
 28 65  1  0  0  0  0
 29 64  1  0  0  0  0
 29 68  1  0  0  0  0
 30 57  1  0  0  0  0
 30 63  1  0  0  0  0
 30 65  2  0  0  0  0
 31 69  1  0  0  0  0
 31 74  2  0  0  0  0
 32 46  1  0  0  0  0
 32 70  1  0  0  0  0
 32 75  2  0  0  0  0
 33 58  1  0  0  0  0
 33 66  1  0  0  0  0
 33 76  2  0  0  0  0
 34 59  1  0  0  0  0
 34 71  1  0  0  0  0
 34 77  2  0  0  0  0
 35 67  1  0  0  0  0
 35 72  1  0  0  0  0
 35 78  2  0  0  0  0
 36 39  1  0  0  0  0
 37 46  1  0  0  0  0
 38 66  1  0  0  0  0
 39 41  1  0  0  0  0
 40 42  1  0  0  0  0
 40 43  1  0  0  0  0
 41 45  1  0  0  0  0
 42 47  1  0  0  0  0
 43 67  1  0  0  0  0
 44 47  1  0  0  0  0
 44 67  1  0  0  0  0
 45 70  1  0  0  0  0
 46 66  1  0  0  0  0
 47 64  1  0  0  0  0
 48 57  1  0  0  0  0
 49 59  1  0  0  0  0
 50 60  1  0  0  0  0
 51 60  1  0  0  0  0
 52 61  1  0  0  0  0
 53 61  1  0  0  0  0
 54 61  1  0  0  0  0
 55 73  1  0  0  0  0
 56 80  1  0  0  0  0
 57 72  1  0  0  0  0
 58 61  1  0  0  0  0
 58 71  1  0  0  0  0
 59 73  1  0  0  0  0
 60 63  1  0  0  0  0
 62 64  1  0  0  0  0
M  CHG  2  65   1  73   1
M  ISO  4  35 100  56 101  72 100  80 101
M  END
> <Batch ID>
0056

> <Smiles>
CNC(C)C(=O)NC(C(=O)N1Cc2cc([101O:1][101CH2:1]c3cn(C(C)C)c(C(C)[100NH:0][100C:0](=O)N4CCCC(n5nc(-c6ccc(Oc7ccc(F)cc7F)cc6)c(C(N)=O)c5N)C4)n3)ccc2CC1C(=O)NC1CCCc2ccccc21)C(C)(C)C

> <Shape>
0.226

> <Color>
0.072

> <Negative vol penalty>
0.000

$$$$

  -OEChem-04052317463D

 81 89  0     1  0  0  0  0  0999 V2000
  -35.9049  -27.8365   18.9970 C   0  0  0  0  0  0  0  0  0  0  0  0
  -35.0612  -26.8330   19.4624 C   0  0  0  0  0  0  0  0  0  0  0  0
  -23.1748   -9.8250   19.9009 C   0  0  0  0  0  0  0  0  0  0  0  0
  -23.9684   -9.7976   22.1826 C   0  0  0  0  0  0  0  0  0  0  0  0
  -35.3709  -29.0497   18.5645 C   0  0  0  0  0  0  0  0  0  0  0  0
  -33.6830  -27.0426   19.4967 C   0  0  0  0  0  0  0  0  0  0  0  0
  -31.0712  -23.0811   17.7276 C   0  0  0  0  0  0  0  0  0  0  0  0
  -22.5113   -8.6172   20.1171 C   0  0  0  0  0  0  0  0  0  0  0  0
  -23.3049   -8.5899   22.3989 C   0  0  0  0  0  0  0  0  0  0  0  0
  -30.9188  -21.9875   18.5789 C   0  0  0  0  0  0  0  0  0  0  0  0
  -20.1452   -7.5610   23.0137 C   0  0  0  0  0  0  0  0  0  0  0  0
  -19.4108   -7.4287   24.1922 C   0  0  0  0  0  0  0  0  0  0  0  0
  -28.6935  -22.7363   19.1327 C   0  0  0  0  0  0  0  0  0  0  0  0
  -20.7868   -5.5510   24.8388 C   0  0  0  0  0  0  0  0  0  0  0  0
  -30.2281  -18.7735   22.5581 C   0  0  0  0  0  0  0  0  0  0  0  0
  -29.9726  -17.4404   20.8282 C   0  0  0  0  0  0  0  0  0  0  0  0
  -23.9034  -10.4152   20.9336 C   0  0  0  0  0  0  0  0  0  0  0  0
  -24.0787  -12.9600   20.9041 C   0  0  0  0  0  0  0  0  0  0  0  0
  -33.9848  -29.2706   18.5844 C   0  0  0  0  0  0  0  0  0  0  0  0
  -30.0382  -24.0180   17.5806 C   0  0  0  0  0  0  0  0  0  0  0  0
  -33.1301  -28.2603   19.0653 C   0  0  0  0  0  0  0  0  0  0  0  0
  -28.8344  -23.8395   18.2770 C   0  0  0  0  0  0  0  0  0  0  0  0
  -30.3097  -18.7316   21.1533 C   0  0  0  0  0  0  0  0  0  0  0  0
  -22.5764   -7.9997   21.3662 C   0  0  0  0  0  0  0  0  0  0  0  0
  -29.7309  -21.8165   19.2838 C   0  0  0  0  0  0  0  0  0  0  0  0
  -21.2003   -6.6882   22.7477 C   0  0  0  0  0  0  0  0  0  0  0  0
  -19.7316   -6.4238   25.1048 C   0  0  0  0  0  0  0  0  0  0  0  0
  -21.5211   -5.6832   23.6603 C   0  0  0  0  0  0  0  0  0  0  0  0
  -24.5894  -11.6625   20.7107 C   0  0  0  0  0  0  0  0  0  0  0  0
  -25.1140  -13.7921   20.5548 C   0  0  0  0  0  0  0  0  0  0  0  0
  -22.7841  -13.3758   21.3588 C   0  0  0  0  0  0  0  0  0  0  0  0
  -29.7308  -27.1277   18.1630 C   0  0  0  0  0  0  0  0  0  0  0  0
  -26.8562  -26.7174   16.7170 C   0  0  0  0  0  0  0  0  0  0  0  0
  -30.9095  -14.0014   20.8945 C   0  0  0  0  0  0  0  0  0  0  0  0
  -24.3232  -24.5993   15.8542 C   0  0  0  0  0  0  0  0  0  0  0  0
  -33.4578  -30.6157   18.1512 C   0  0  0  0  0  0  0  0  0  0  0  0
  -30.2083  -25.1777   16.6380 C   0  0  0  0  0  0  0  0  0  0  0  0
  -27.6874  -24.8059   18.1386 C   0  0  0  0  0  0  0  0  0  0  0  0
  -31.9577  -30.6199   17.8684 C   0  0  0  0  0  0  0  0  0  0  0  0
  -29.1964  -13.3311   17.8195 C   0  0  0  0  0  0  0  0  0  0  0  0
  -31.2017  -29.9097   18.9868 C   0  0  0  0  0  0  0  0  0  0  0  0
  -27.7933  -12.9276   18.2708 C   0  0  0  0  0  0  0  0  0  0  0  0
  -30.2588  -12.8523   18.8039 C   0  0  0  0  0  0  0  0  0  0  0  0
  -28.6280  -12.9000   20.6640 C   0  0  0  0  0  0  0  0  0  0  0  0
  -31.6279  -28.4406   19.0945 C   0  0  1  0  0  0  0  0  0  0  0  0
  -29.2842  -26.3485   16.9583 C   0  0  1  0  0  0  0  0  0  0  0  0
  -27.5220  -13.3908   19.7132 C   0  0  2  0  0  0  0  0  0  0  0  0
  -22.0898  -24.5621   14.7104 C   0  0  0  0  0  0  0  0  0  0  0  0
  -28.3016  -15.2949   23.3264 C   0  0  0  0  0  0  0  0  0  0  0  0
  -30.2051  -13.1539   23.0893 C   0  0  0  0  0  0  0  0  0  0  0  0
  -31.7787  -15.0896   22.8761 C   0  0  0  0  0  0  0  0  0  0  0  0
  -25.5774  -27.9900   19.1777 C   0  0  0  0  0  0  0  0  0  0  0  0
  -23.3736  -27.0757   18.4193 C   0  0  0  0  0  0  0  0  0  0  0  0
  -24.5959  -28.7202   16.9965 C   0  0  0  0  0  0  0  0  0  0  0  0
  -25.2837  -22.7123   13.7865 C   0  0  0  0  0  0  0  0  0  0  0  0
  -30.6788  -19.8460   20.2189 C   0  0  0  0  0  0  0  0  0  1  0  0
  -25.4671  -26.3541   17.1833 C   0  0  1  0  0  0  0  0  0  0  0  0
  -23.5910  -24.3866   14.5415 C   0  0  2  0  0  0  0  0  0  0  0  0
  -29.3247  -15.4342   22.1825 C   0  0  2  0  0  0  0  0  0  0  0  0
  -30.5205  -14.4255   22.2884 C   0  0  0  0  0  0  0  0  0  0  0  0
  -24.7756  -27.5177   17.9485 C   0  0  0  0  0  0  0  0  0  0  0  0
  -29.8673  -17.6022   23.0888 N   0  0  0  0  0  0  0  0  0  0  0  0
  -25.8511  -11.6650   20.2724 N   0  0  0  0  0  0  0  0  0  0  0  0
  -29.7191  -16.8121   22.0119 N   0  0  0  0  0  0  0  0  0  0  0  0
  -26.1419  -12.9743   20.1874 N   0  0  0  0  0  0  0  0  0  0  0  0
  -27.9045  -25.9273   17.2096 N   0  0  0  0  0  0  0  0  0  0  0  0
  -29.9533  -13.2938   20.1659 N   0  0  0  0  0  0  0  0  0  0  0  0
  -25.2364  -15.1363   20.5291 N   0  0  0  0  0  0  0  0  0  0  0  0
  -21.8387  -12.3906   21.6751 N   0  0  0  0  0  0  0  0  0  0  0  0
  -31.0030  -27.6553   18.0518 N   0  0  0  0  0  0  0  0  0  0  0  0
  -24.7435  -25.9045   15.9990 N   0  0  0  0  0  0  0  0  0  0  0  0
  -23.8482  -23.0139   14.0215 N   0  3  0  0  0  0  0  0  0  0  0  0
  -22.4694  -14.5854   21.4655 O   0  0  0  0  0  0  0  0  0  0  0  0
  -28.9763  -27.2429   19.1217 O   0  0  0  0  0  0  0  0  0  0  0  0
  -27.0049  -27.6626   15.9386 O   0  0  0  0  0  0  0  0  0  0  0  0
  -32.0293  -14.2937   20.4668 O   0  0  0  0  0  0  0  0  0  0  0  0
  -24.5009  -23.6986   16.6713 O   0  0  0  0  0  0  0  0  0  0  0  0
  -21.9289   -6.8213   21.5776 O   0  0  0  0  0  0  0  0  0  0  0  0
  -29.5798  -20.7504   20.1158 O   0  0  0  0  0  0  0  0  0  1  0  0
  -19.0273   -6.2978   26.2371 F   0  0  0  0  0  0  0  0  0  0  0  0
  -22.5344   -4.8425   23.4108 F   0  0  0  0  0  0  0  0  0  0  0  0
  1  2  1  0  0  0  0
  1  5  2  0  0  0  0
  2  6  2  0  0  0  0
  3  8  2  0  0  0  0
  3 17  1  0  0  0  0
  4  9  1  0  0  0  0
  4 17  2  0  0  0  0
  5 19  1  0  0  0  0
  6 21  1  0  0  0  0
  7 10  2  0  0  0  0
  7 20  1  0  0  0  0
  8 24  1  0  0  0  0
  9 24  2  0  0  0  0
 10 25  1  0  0  0  0
 11 12  2  0  0  0  0
 11 26  1  0  0  0  0
 12 27  1  0  0  0  0
 13 22  1  0  0  0  0
 13 25  2  0  0  0  0
 14 27  2  0  0  0  0
 14 28  1  0  0  0  0
 15 23  1  0  0  0  0
 15 62  2  0  0  0  0
 16 23  2  0  0  0  0
 16 64  1  0  0  0  0
 17 29  1  0  0  0  0
 18 29  1  0  0  0  0
 18 30  2  0  0  0  0
 18 31  1  0  0  0  0
 19 21  2  0  0  0  0
 19 36  1  0  0  0  0
 20 22  2  0  0  0  0
 20 37  1  0  0  0  0
 21 45  1  0  0  0  0
 22 38  1  0  0  0  0
 23 56  1  0  0  0  0
 24 78  1  0  0  0  0
 25 79  1  0  0  0  0
 26 28  2  0  0  0  0
 26 78  1  0  0  0  0
 27 80  1  0  0  0  0
 28 81  1  0  0  0  0
 29 63  2  0  0  0  0
 30 65  1  0  0  0  0
 30 68  1  0  0  0  0
 31 69  1  0  0  0  0
 31 73  2  0  0  0  0
 32 46  1  0  0  0  0
 32 70  1  0  0  0  0
 32 74  2  0  0  0  0
 33 57  1  0  0  0  0
 33 66  1  0  0  0  0
 33 75  2  0  0  0  0
 34 60  1  0  0  0  0
 34 67  1  0  0  0  0
 34 76  2  0  0  0  0
 35 58  1  0  0  0  0
 35 71  1  0  0  0  0
 35 77  2  0  0  0  0
 36 39  1  0  0  0  0
 37 46  1  0  0  0  0
 38 66  1  0  0  0  0
 39 41  1  0  0  0  0
 40 42  1  0  0  0  0
 40 43  1  0  0  0  0
 41 45  1  0  0  0  0
 42 47  1  0  0  0  0
 43 67  1  0  0  0  0
 44 47  1  0  0  0  0
 44 67  1  0  0  0  0
 45 70  1  0  0  0  0
 46 66  1  0  0  0  0
 47 65  1  0  0  0  0
 48 58  1  0  0  0  0
 49 59  1  0  0  0  0
 50 60  1  0  0  0  0
 51 60  1  0  0  0  0
 52 61  1  0  0  0  0
 53 61  1  0  0  0  0
 54 61  1  0  0  0  0
 55 72  1  0  0  0  0
 56 79  1  0  0  0  0
 57 61  1  0  0  0  0
 57 71  1  0  0  0  0
 58 72  1  0  0  0  0
 59 60  1  0  0  0  0
 59 64  1  0  0  0  0
 62 64  1  0  0  0  0
 63 65  1  0  0  0  0
M  CHG  1  72   1
M  ISO  4  34 100  56 101  60 100  79 101
M  END
> <Batch ID>
0056

> <Smiles>
CNC(C)C(=O)NC(C(=O)N1Cc2cc([101O:1][101CH2:1]c3cnn(C(C)[100C:0](C)(C)[100C:0](=O)N4CCCC(n5nc(-c6ccc(Oc7ccc(F)cc7F)cc6)c(C(N)=O)c5N)C4)c3)ccc2CC1C(=O)NC1CCCc2ccccc21)C(C)(C)C

> <Shape>
0.266

> <Color>
0.209

> <Negative vol penalty>
0.000

$$$$

  -OEChem-04052317463D

 84 92  0     1  0  0  0  0  0999 V2000
  -16.9962  -30.0126   24.6182 C   0  0  0  0  0  0  0  0  0  0  0  0
  -17.4655  -28.7222   24.3945 C   0  0  0  0  0  0  0  0  0  0  0  0
  -28.6086  -17.5040   20.9669 C   0  0  0  0  0  0  0  0  0  0  0  0
  -30.5840  -18.3068   22.1030 C   0  0  0  0  0  0  0  0  0  0  0  0
  -17.4666  -31.0691   23.8394 C   0  0  0  0  0  0  0  0  0  0  0  0
  -18.4047  -28.4873   23.3909 C   0  0  0  0  0  0  0  0  0  0  0  0
  -22.9385  -24.3712   23.4823 C   0  0  0  0  0  0  0  0  0  0  0  0
  -28.9256  -16.1976   21.3388 C   0  0  0  0  0  0  0  0  0  0  0  0
  -30.9010  -17.0003   22.4750 C   0  0  0  0  0  0  0  0  0  0  0  0
  -23.0564  -23.0934   22.9372 C   0  0  0  0  0  0  0  0  0  0  0  0
  -28.6718  -14.2626   24.1001 C   0  0  0  0  0  0  0  0  0  0  0  0
  -27.6436  -13.4631   24.5990 C   0  0  0  0  0  0  0  0  0  0  0  0
  -24.1836  -24.0229   21.0177 C   0  0  0  0  0  0  0  0  0  0  0  0
  -27.9917  -11.8913   22.7975 C   0  0  0  0  0  0  0  0  0  0  0  0
  -26.5565  -22.3240   15.2687 C   0  0  0  0  0  0  0  0  0  0  0  0
  -29.4379  -18.5586   21.3489 C   0  0  0  0  0  0  0  0  0  0  0  0
  -28.3247  -20.8297   21.6816 C   0  0  0  0  0  0  0  0  0  0  0  0
  -18.4193  -30.8485   22.8322 C   0  0  0  0  0  0  0  0  0  0  0  0
  -23.4334  -25.4876   22.7930 C   0  0  0  0  0  0  0  0  0  0  0  0
  -18.8873  -29.5416   22.5970 C   0  0  0  0  0  0  0  0  0  0  0  0
  -24.0730  -25.3135   21.5574 C   0  0  0  0  0  0  0  0  0  0  0  0
  -30.0717  -15.9457   22.0929 C   0  0  0  0  0  0  0  0  0  0  0  0
  -23.6765  -22.9194   21.7034 C   0  0  0  0  0  0  0  0  0  0  0  0
  -29.3601  -13.8766   22.9498 C   0  0  0  0  0  0  0  0  0  0  0  0
  -27.3035  -12.2774   23.9477 C   0  0  0  0  0  0  0  0  0  0  0  0
  -29.0200  -12.6909   22.2986 C   0  0  0  0  0  0  0  0  0  0  0  0
  -29.1113  -19.9083   20.9645 C   0  0  0  0  0  0  0  0  0  0  0  0
  -27.8658  -21.9745   14.8877 C   0  0  0  0  0  0  0  0  0  0  0  0
  -25.7974  -21.2297   14.9327 C   0  0  0  0  0  0  0  0  0  0  0  0
  -28.3177  -21.9579   20.8983 C   0  0  0  0  0  0  0  0  0  0  0  0
  -27.6598  -20.6792   22.9429 C   0  0  0  0  0  0  0  0  0  0  0  0
  -29.0820  -22.7868   15.0220 C   0  0  0  0  0  0  0  0  0  0  0  0
  -22.1433  -28.1249   21.5748 C   0  0  0  0  0  0  0  0  0  0  0  0
  -25.2400  -28.9161   21.0213 C   0  0  0  0  0  0  0  0  0  0  0  0
  -28.4553  -27.8762   20.5447 C   0  0  0  0  0  0  0  0  0  0  0  0
  -18.8629  -32.0145   21.9846 C   0  0  0  0  0  0  0  0  0  0  0  0
  -23.3221  -26.8562   23.4069 C   0  0  0  0  0  0  0  0  0  0  0  0
  -24.6392  -26.4770   20.7866 C   0  0  0  0  0  0  0  0  0  0  0  0
  -20.1372  -31.7401   21.1902 C   0  0  0  0  0  0  0  0  0  0  0  0
  -30.9544  -24.2961   17.6598 C   0  0  0  0  0  0  0  0  0  0  0  0
  -20.0566  -30.3796   20.5051 C   0  0  0  0  0  0  0  0  0  0  0  0
  -30.6368  -23.4177   18.8712 C   0  0  0  0  0  0  0  0  0  0  0  0
  -31.0328  -23.4763   16.3743 C   0  0  0  0  0  0  0  0  0  0  0  0
  -29.5201  -21.7645   17.3155 C   0  0  0  0  0  0  0  0  0  0  0  0
  -19.9247  -29.2505   21.5343 C   0  0  1  0  0  0  0  0  0  0  0  0
  -23.4041  -27.9806   22.3792 C   0  0  1  0  0  0  0  0  0  0  0  0
  -29.3819  -22.5595   18.6243 C   0  0  1  0  0  0  0  0  0  0  0  0
  -30.7602  -28.7519   20.0777 C   0  0  0  0  0  0  0  0  0  0  0  0
  -24.4686  -29.3856   18.1068 C   0  0  0  0  0  0  0  0  0  0  0  0
  -26.9026  -29.3187   17.5244 C   0  0  0  0  0  0  0  0  0  0  0  0
  -26.0370  -31.0857   19.0577 C   0  0  0  0  0  0  0  0  0  0  0  0
  -26.3447  -19.0126   13.8839 C   0  0  0  0  0  0  0  0  0  0  0  0
  -29.5144  -26.7706   23.0775 C   0  0  0  0  0  0  0  0  0  0  0  0
  -20.8922  -18.6164   17.9561 C   0  0  0  0  0  0  0  0  0  0  0  0
  -24.3202  -20.9657   15.0799 C   0  0  0  0  0  0  0  0  0  0  0  0
  -23.9361  -20.3105   16.4131 C   0  0  0  0  0  0  0  0  0  0  0  0
  -22.6306  -19.7433   20.3450 C   0  0  0  0  0  0  0  0  0  0  0  0
  -22.4565  -19.9762   16.5762 C   0  0  0  0  0  0  0  0  0  0  0  0
  -22.2646  -20.4000   19.0224 C   0  0  0  0  0  0  0  0  0  0  0  0
  -22.7758  -20.7279   21.4989 C   0  0  0  0  0  0  0  0  0  1  0  0
  -26.2113  -28.7032   19.8854 C   0  0  1  0  0  0  0  0  0  0  0  0
  -29.7656  -28.3428   21.1530 C   0  0  2  0  0  0  0  0  0  0  0  0
  -25.8926  -29.6014   18.6569 C   0  0  0  0  0  0  0  0  0  0  0  0
  -29.5705  -20.4079   19.8141 N   0  0  0  0  0  0  0  0  0  0  0  0
  -27.9382  -20.7538   14.3506 N   0  0  0  0  0  0  0  0  0  0  0  0
  -26.6646  -20.3265   14.3918 N   0  0  0  0  0  0  0  0  0  0  0  0
  -29.0709  -21.6554   19.8022 N   0  0  0  0  0  0  0  0  0  0  0  0
  -29.8246  -22.6712   16.1996 N   0  0  0  0  0  0  0  0  0  0  0  0
  -24.5001  -27.7960   21.4258 N   0  0  0  0  0  0  0  0  0  0  0  0
  -27.7408  -23.1693   21.0470 N   0  0  0  0  0  0  0  0  0  0  0  0
  -27.7705  -19.4541   23.6146 N   0  0  0  0  0  0  0  0  0  0  0  0
  -21.2074  -28.9684   22.1423 N   0  0  0  0  0  0  0  0  0  0  0  0
  -27.5436  -28.9057   20.4441 N   0  0  0  0  0  0  0  0  0  0  0  0
  -30.3753  -27.2539   21.9675 N   0  3  0  0  0  0  0  0  0  0  0  0
  -22.1890  -19.3895   17.9414 N   0  3  1  0  0  0  0  0  0  0  0  0
  -26.9740  -21.5983   23.4513 O   0  0  0  0  0  0  0  0  0  0  0  0
  -29.3489  -23.5262   14.0759 O   0  0  0  0  0  0  0  0  0  0  0  0
  -22.0286  -27.5171   20.5169 O   0  0  0  0  0  0  0  0  0  0  0  0
  -25.1467  -30.0334   21.5357 O   0  0  0  0  0  0  0  0  0  0  0  0
  -28.2614  -26.7154   20.1905 O   0  0  0  0  0  0  0  0  0  0  0  0
  -30.3812  -14.6711   22.4562 O   0  0  0  0  0  0  0  0  0  0  0  0
  -23.7923  -21.6734   21.1688 O   0  0  0  0  0  0  0  0  0  1  0  0
  -26.3170  -11.5089   24.4278 F   0  0  0  0  0  0  0  0  0  0  0  0
  -29.6784  -12.3142   21.1938 F   0  0  0  0  0  0  0  0  0  0  0  0
  1  2  1  0  0  0  0
  1  5  2  0  0  0  0
  2  6  2  0  0  0  0
  3  8  2  0  0  0  0
  3 16  1  0  0  0  0
  4  9  1  0  0  0  0
  4 16  2  0  0  0  0
  5 18  1  0  0  0  0
  6 20  1  0  0  0  0
  7 10  2  0  0  0  0
  7 19  1  0  0  0  0
  8 22  1  0  0  0  0
  9 22  2  0  0  0  0
 10 23  1  0  0  0  0
 11 12  2  0  0  0  0
 11 24  1  0  0  0  0
 12 25  1  0  0  0  0
 13 21  1  0  0  0  0
 13 23  2  0  0  0  0
 14 25  2  0  0  0  0
 14 26  1  0  0  0  0
 15 28  1  0  0  0  0
 15 29  2  0  0  0  0
 16 27  1  0  0  0  0
 17 27  1  0  0  0  0
 17 30  2  0  0  0  0
 17 31  1  0  0  0  0
 18 20  2  0  0  0  0
 18 36  1  0  0  0  0
 19 21  2  0  0  0  0
 19 37  1  0  0  0  0
 20 45  1  0  0  0  0
 21 38  1  0  0  0  0
 22 81  1  0  0  0  0
 23 82  1  0  0  0  0
 24 26  2  0  0  0  0
 24 81  1  0  0  0  0
 25 83  1  0  0  0  0
 26 84  1  0  0  0  0
 27 64  2  0  0  0  0
 28 32  1  0  0  0  0
 28 65  2  0  0  0  0
 29 55  1  0  0  0  0
 29 66  1  0  0  0  0
 30 67  1  0  0  0  0
 30 70  1  0  0  0  0
 31 71  1  0  0  0  0
 31 76  2  0  0  0  0
 32 68  1  0  0  0  0
 32 77  2  0  0  0  0
 33 46  1  0  0  0  0
 33 72  1  0  0  0  0
 33 78  2  0  0  0  0
 34 61  1  0  0  0  0
 34 69  1  0  0  0  0
 34 79  2  0  0  0  0
 35 62  1  0  0  0  0
 35 73  1  0  0  0  0
 35 80  2  0  0  0  0
 36 39  1  0  0  0  0
 37 46  1  0  0  0  0
 38 69  1  0  0  0  0
 39 41  1  0  0  0  0
 40 42  1  0  0  0  0
 40 43  1  0  0  0  0
 41 45  1  0  0  0  0
 42 47  1  0  0  0  0
 43 68  1  0  0  0  0
 44 47  1  0  0  0  0
 44 68  1  0  0  0  0
 45 72  1  0  0  0  0
 46 69  1  0  0  0  0
 47 67  1  0  0  0  0
 48 62  1  0  0  0  0
 49 63  1  0  0  0  0
 50 63  1  0  0  0  0
 51 63  1  0  0  0  0
 52 66  1  0  0  0  0
 53 74  1  0  0  0  0
 54 75  1  0  0  0  0
 55 56  1  0  0  0  0
 56 58  1  0  0  0  0
 57 59  1  0  0  0  0
 57 60  1  0  0  0  0
 58 75  1  0  0  0  0
 59 75  1  0  0  0  0
 60 82  1  0  0  0  0
 61 63  1  0  0  0  0
 61 73  1  0  0  0  0
 62 74  1  0  0  0  0
 64 67  1  0  0  0  0
 65 66  1  0  0  0  0
M  CHG  2  74   1  75   1
M  ISO  4  28 100  32 100  60 101  82 101
M  END
> <Batch ID>
0056

> <Smiles>
CNC(C)C(=O)NC(C(=O)N1Cc2cc([101O:1][101CH2:1]CCN(C)CCCc3c[100c:0]([100C:0](=O)N4CCCC(n5nc(-c6ccc(Oc7ccc(F)cc7F)cc6)c(C(N)=O)c5N)C4)nn3C)ccc2CC1C(=O)NC1CCCc2ccccc21)C(C)(C)C

> <Shape>
0.193

> <Color>
0.067

> <Negative vol penalty>
0.000

$$$$

  -OEChem-04052317463D

 81 89  0     1  0  0  0  0  0999 V2000
  -26.6973  -28.5401   22.8693 C   0  0  0  0  0  0  0  0  0  0  0  0
  -26.9851  -27.2225   23.2105 C   0  0  0  0  0  0  0  0  0  0  0  0
  -23.2871   -9.7962   19.9176 C   0  0  0  0  0  0  0  0  0  0  0  0
  -23.7249   -9.9491   22.2887 C   0  0  0  0  0  0  0  0  0  0  0  0
  -25.6111  -28.8236   22.0425 C   0  0  0  0  0  0  0  0  0  0  0  0
  -26.1860  -26.1876   22.7259 C   0  0  0  0  0  0  0  0  0  0  0  0
  -28.9042  -22.2731   21.0132 C   0  0  0  0  0  0  0  0  0  0  0  0
  -22.5564   -8.6269   20.1279 C   0  0  0  0  0  0  0  0  0  0  0  0
  -22.9942   -8.7797   22.4990 C   0  0  0  0  0  0  0  0  0  0  0  0
  -29.4394  -21.4051   21.9639 C   0  0  0  0  0  0  0  0  0  0  0  0
  -20.2724   -5.7991   20.0837 C   0  0  0  0  0  0  0  0  0  0  0  0
  -19.0483   -5.6723   19.4270 C   0  0  0  0  0  0  0  0  0  0  0  0
  -27.6365  -19.8554   21.5550 C   0  0  0  0  0  0  0  0  0  0  0  0
  -18.2408   -7.6532   20.5500 C   0  0  0  0  0  0  0  0  0  0  0  0
  -23.8715  -10.4573   20.9980 C   0  0  0  0  0  0  0  0  0  0  0  0
  -24.1389  -12.9854   20.7865 C   0  0  0  0  0  0  0  0  0  0  0  0
  -24.8041  -27.7909   21.5397 C   0  0  0  0  0  0  0  0  0  0  0  0
  -27.7232  -21.9432   20.3329 C   0  0  0  0  0  0  0  0  0  0  0  0
  -25.0871  -26.4576   21.8927 C   0  0  0  0  0  0  0  0  0  0  0  0
  -27.0898  -20.7198   20.5943 C   0  0  0  0  0  0  0  0  0  0  0  0
  -22.4099   -8.1187   21.4186 C   0  0  0  0  0  0  0  0  0  0  0  0
  -28.8040  -20.1973   22.2370 C   0  0  0  0  0  0  0  0  0  0  0  0
  -20.4806   -6.8529   20.9736 C   0  0  0  0  0  0  0  0  0  0  0  0
  -18.0325   -6.5994   19.6601 C   0  0  0  0  0  0  0  0  0  0  0  0
  -19.4648   -7.7799   21.2067 C   0  0  0  0  0  0  0  0  0  0  0  0
  -24.6269  -11.6650   20.7813 C   0  0  0  0  0  0  0  0  0  0  0  0
  -25.2439  -13.7609   20.5333 C   0  0  0  0  0  0  0  0  0  0  0  0
  -33.0541  -14.2313   24.8701 C   0  0  0  0  0  0  0  0  0  0  0  0
  -31.3067  -14.8875   23.9355 C   0  0  0  0  0  0  0  0  0  0  0  0
  -22.8059  -13.4680   21.0011 C   0  0  0  0  0  0  0  0  0  0  0  0
  -24.8204  -23.2220   20.1284 C   0  0  0  0  0  0  0  0  0  0  0  0
  -31.1113  -12.7873   21.3922 C   0  0  0  0  0  0  0  0  0  0  0  0
  -24.3827  -20.9068   17.8989 C   0  0  0  0  0  0  0  0  0  0  0  0
  -25.3002  -17.8585   16.6689 C   0  0  0  0  0  0  0  0  0  0  0  0
  -23.6125  -28.1501   20.6877 C   0  0  0  0  0  0  0  0  0  0  0  0
  -27.1734  -22.8784   19.2911 C   0  0  0  0  0  0  0  0  0  0  0  0
  -25.8307  -20.3096   19.8768 C   0  0  0  0  0  0  0  0  0  0  0  0
  -23.0392  -26.9667   19.9124 C   0  0  0  0  0  0  0  0  0  0  0  0
  -29.4772  -13.6528   18.3229 C   0  0  0  0  0  0  0  0  0  0  0  0
  -22.8959  -25.7511   20.8227 C   0  0  0  0  0  0  0  0  0  0  0  0
  -28.0078  -13.3343   18.5963 C   0  0  0  0  0  0  0  0  0  0  0  0
  -30.4029  -12.6651   19.0263 C   0  0  0  0  0  0  0  0  0  0  0  0
  -28.7044  -12.2420   20.7750 C   0  0  0  0  0  0  0  0  0  0  0  0
  -24.2585  -25.3056   21.3668 C   0  0  1  0  0  0  0  0  0  0  0  0
  -25.6847  -22.6723   19.0291 C   0  0  1  0  0  0  0  0  0  0  0  0
  -27.7358  -13.2345   20.1078 C   0  0  2  0  0  0  0  0  0  0  0  0
  -34.2772  -14.2531   25.6808 C   0  0  0  0  0  0  0  0  0  0  0  0
  -30.7996  -11.2378   23.3098 C   0  0  0  0  0  0  0  0  0  0  0  0
  -24.7353  -16.2127   14.8608 C   0  0  0  0  0  0  0  0  0  0  0  0
  -21.9030  -20.0500   19.4568 C   0  0  0  0  0  0  0  0  0  0  0  0
  -21.9390  -17.8905   18.1905 C   0  0  0  0  0  0  0  0  0  0  0  0
  -21.6271  -20.0442   16.9712 C   0  0  0  0  0  0  0  0  0  0  0  0
  -28.0066  -18.0518   15.4871 C   0  0  0  0  0  0  0  0  0  0  0  0
  -30.1228  -15.6608   23.4122 C   0  0  0  0  0  0  0  0  0  0  0  0
  -30.2542  -17.1761   23.5794 C   0  0  0  0  0  0  0  0  0  0  0  0
  -29.0929  -17.9537   22.9710 C   0  0  0  0  0  0  0  0  0  1  0  0
  -30.7197  -12.6898   22.8452 C   0  0  1  0  0  0  0  0  0  0  0  0
  -23.8994  -19.4768   17.9232 C   0  0  1  0  0  0  0  0  0  0  0  0
  -25.6083  -17.3931   15.2572 C   0  0  2  0  0  0  0  0  0  0  0  0
  -22.3648  -19.3737   18.1505 C   0  0  0  0  0  0  0  0  0  0  0  0
  -25.9397  -11.6014   20.5435 N   0  0  0  0  0  0  0  0  0  0  0  0
  -32.2681  -15.3362   24.7088 N   0  0  0  0  0  0  0  0  0  0  0  0
  -32.6395  -13.1272   24.2453 N   0  0  0  0  0  0  0  0  0  0  0  0
  -26.2860  -12.8916   20.3968 N   0  0  0  0  0  0  0  0  0  0  0  0
  -31.5204  -13.5739   23.6552 N   0  0  0  0  0  0  0  0  0  0  0  0
  -25.3286  -21.2607   18.8714 N   0  0  0  0  0  0  0  0  0  0  0  0
  -30.0978  -12.5824   20.4558 N   0  0  0  0  0  0  0  0  0  0  0  0
  -25.4161  -15.0947   20.4163 N   0  0  0  0  0  0  0  0  0  0  0  0
  -21.7894  -12.5352   21.2482 N   0  0  0  0  0  0  0  0  0  0  0  0
  -24.9918  -24.5741   20.3560 N   0  0  0  0  0  0  0  0  0  0  0  0
  -24.3616  -18.8686   16.6804 N   0  0  0  0  0  0  0  0  0  0  0  0
  -27.0359  -16.9795   15.1481 N   0  3  0  0  0  0  0  0  0  0  0  0
  -22.5216  -14.6889   20.9583 O   0  0  0  0  0  0  0  0  0  0  0  0
  -24.0536  -22.4750   20.7249 O   0  0  0  0  0  0  0  0  0  0  0  0
  -32.2829  -13.0410   21.1002 O   0  0  0  0  0  0  0  0  0  0  0  0
  -23.9426  -21.6794   17.0439 O   0  0  0  0  0  0  0  0  0  0  0  0
  -25.8356  -17.3719   17.6625 O   0  0  0  0  0  0  0  0  0  0  0  0
  -21.6967   -6.9778   21.6242 O   0  0  0  0  0  0  0  0  0  0  0  0
  -29.3238  -19.3485   23.1650 O   0  0  0  0  0  0  0  0  0  1  0  0
  -16.8577   -6.4785   19.0282 F   0  0  0  0  0  0  0  0  0  0  0  0
  -19.6594   -8.7950   22.0596 F   0  0  0  0  0  0  0  0  0  0  0  0
  1  2  1  0  0  0  0
  1  5  2  0  0  0  0
  2  6  2  0  0  0  0
  3  8  2  0  0  0  0
  3 15  1  0  0  0  0
  4  9  1  0  0  0  0
  4 15  2  0  0  0  0
  5 17  1  0  0  0  0
  6 19  1  0  0  0  0
  7 10  2  0  0  0  0
  7 18  1  0  0  0  0
  8 21  1  0  0  0  0
  9 21  2  0  0  0  0
 10 22  1  0  0  0  0
 11 12  2  0  0  0  0
 11 23  1  0  0  0  0
 12 24  1  0  0  0  0
 13 20  1  0  0  0  0
 13 22  2  0  0  0  0
 14 24  2  0  0  0  0
 14 25  1  0  0  0  0
 15 26  1  0  0  0  0
 16 26  1  0  0  0  0
 16 27  2  0  0  0  0
 16 30  1  0  0  0  0
 17 19  2  0  0  0  0
 17 35  1  0  0  0  0
 18 20  2  0  0  0  0
 18 36  1  0  0  0  0
 19 44  1  0  0  0  0
 20 37  1  0  0  0  0
 21 78  1  0  0  0  0
 22 79  1  0  0  0  0
 23 25  2  0  0  0  0
 23 78  1  0  0  0  0
 24 80  1  0  0  0  0
 25 81  1  0  0  0  0
 26 61  2  0  0  0  0
 27 64  1  0  0  0  0
 27 68  1  0  0  0  0
 28 47  1  0  0  0  0
 28 62  1  0  0  0  0
 28 63  2  0  0  0  0
 29 54  1  0  0  0  0
 29 62  2  0  0  0  0
 29 65  1  0  0  0  0
 30 69  1  0  0  0  0
 30 73  2  0  0  0  0
 31 45  1  0  0  0  0
 31 70  1  0  0  0  0
 31 74  2  0  0  0  0
 32 57  1  0  0  0  0
 32 67  1  0  0  0  0
 32 75  2  0  0  0  0
 33 58  1  0  0  0  0
 33 66  1  0  0  0  0
 33 76  2  0  0  0  0
 34 59  1  0  0  0  0
 34 71  1  0  0  0  0
 34 77  2  0  0  0  0
 35 38  1  0  0  0  0
 36 45  1  0  0  0  0
 37 66  1  0  0  0  0
 38 40  1  0  0  0  0
 39 41  1  0  0  0  0
 39 42  1  0  0  0  0
 40 44  1  0  0  0  0
 41 46  1  0  0  0  0
 42 67  1  0  0  0  0
 43 46  1  0  0  0  0
 43 67  1  0  0  0  0
 44 70  1  0  0  0  0
 45 66  1  0  0  0  0
 46 64  1  0  0  0  0
 48 57  1  0  0  0  0
 49 59  1  0  0  0  0
 50 60  1  0  0  0  0
 51 60  1  0  0  0  0
 52 60  1  0  0  0  0
 53 72  1  0  0  0  0
 54 55  1  0  0  0  0
 55 56  1  0  0  0  0
 56 79  1  0  0  0  0
 57 65  1  0  0  0  0
 58 60  1  0  0  0  0
 58 71  1  0  0  0  0
 59 72  1  0  0  0  0
 61 64  1  0  0  0  0
 63 65  1  0  0  0  0
M  CHG  1  72   1
M  ISO  4  32 100  56 101  57 100  79 101
M  END
> <Batch ID>
0056

> <Smiles>
CNC(C)C(=O)NC(C(=O)N1Cc2cc([101O:1][101CH2:1]CCc3nc(C)nn3[100CH:0](C)[100C:0](=O)N3CCCC(n4nc(-c5ccc(Oc6ccc(F)cc6F)cc5)c(C(N)=O)c4N)C3)ccc2CC1C(=O)NC1CCCc2ccccc21)C(C)(C)C

> <Shape>
0.170

> <Color>
0.177

> <Negative vol penalty>
0.000

$$$$

  -OEChem-04052317463D

 82 90  0     1  0  0  0  0  0999 V2000
  -29.7820  -12.0718   20.0385 C   0  0  0  0  0  0  0  0  0  0  0  0
  -29.7696  -13.4463   19.8241 C   0  0  0  0  0  0  0  0  0  0  0  0
  -21.6569  -28.5055   20.4316 C   0  0  0  0  0  0  0  0  0  0  0  0
  -23.1777  -27.1083   21.6855 C   0  0  0  0  0  0  0  0  0  0  0  0
  -28.5870  -11.3538   20.0205 C   0  0  0  0  0  0  0  0  0  0  0  0
  -28.5621  -14.1035   19.5905 C   0  0  0  0  0  0  0  0  0  0  0  0
  -28.1508  -18.4073   22.2274 C   0  0  0  0  0  0  0  0  0  0  0  0
  -20.6727  -27.5219   20.5293 C   0  0  0  0  0  0  0  0  0  0  0  0
  -22.1935  -26.1247   21.7832 C   0  0  0  0  0  0  0  0  0  0  0  0
  -28.8407  -19.5184   21.7443 C   0  0  0  0  0  0  0  0  0  0  0  0
  -17.6414  -25.5286   20.7590 C   0  0  0  0  0  0  0  0  0  0  0  0
  -16.3496  -25.9347   21.0936 C   0  0  0  0  0  0  0  0  0  0  0  0
  -26.7990  -20.3544   20.7688 C   0  0  0  0  0  0  0  0  0  0  0  0
  -17.1726  -26.8333   23.1799 C   0  0  0  0  0  0  0  0  0  0  0  0
  -29.4454  -24.5831   20.2297 C   0  0  0  0  0  0  0  0  0  0  0  0
  -30.1813  -24.6395   17.6641 C   0  0  0  0  0  0  0  0  0  0  0  0
  -22.9094  -28.2987   21.0097 C   0  0  0  0  0  0  0  0  0  0  0  0
  -24.1618  -30.3740   21.8048 C   0  0  0  0  0  0  0  0  0  0  0  0
  -27.3633  -12.0039   19.7961 C   0  0  0  0  0  0  0  0  0  0  0  0
  -26.7798  -18.2557   21.9750 C   0  0  0  0  0  0  0  0  0  0  0  0
  -27.3498  -13.3933   19.5682 C   0  0  0  0  0  0  0  0  0  0  0  0
  -26.0935  -19.2418   21.2520 C   0  0  0  0  0  0  0  0  0  0  0  0
  -20.9410  -26.3315   21.2051 C   0  0  0  0  0  0  0  0  0  0  0  0
  -28.1654  -20.4907   21.0124 C   0  0  0  0  0  0  0  0  0  0  0  0
  -18.6988  -25.7747   21.6348 C   0  0  0  0  0  0  0  0  0  0  0  0
  -16.1152  -26.5871   22.3040 C   0  0  0  0  0  0  0  0  0  0  0  0
  -18.4644  -26.4271   22.8452 C   0  0  0  0  0  0  0  0  0  0  0  0
  -23.9267  -29.3141   20.9086 C   0  0  0  0  0  0  0  0  0  0  0  0
  -28.9980  -23.6307   19.3408 C   0  0  0  0  0  0  0  0  0  0  0  0
  -30.6282  -25.5925   18.5528 C   0  0  0  0  0  0  0  0  0  0  0  0
  -25.2289  -31.0497   21.2651 C   0  0  0  0  0  0  0  0  0  0  0  0
  -23.4770  -30.7170   23.0168 C   0  0  0  0  0  0  0  0  0  0  0  0
  -25.0057  -16.1151   20.4343 C   0  0  0  0  0  0  0  0  0  0  0  0
  -22.5503  -17.8558   21.6439 C   0  0  0  0  0  0  0  0  0  0  0  0
  -20.9431  -20.9597   22.5384 C   0  0  0  0  0  0  0  0  0  0  0  0
  -29.6704  -29.3996   17.6042 C   0  0  0  0  0  0  0  0  0  0  0  0
  -26.1024  -11.1783   19.7388 C   0  0  0  0  0  0  0  0  0  0  0  0
  -26.0446  -17.0648   22.5259 C   0  0  0  0  0  0  0  0  0  0  0  0
  -24.6175  -19.1362   20.9711 C   0  0  0  0  0  0  0  0  0  0  0  0
  -24.8258  -12.0071   19.8564 C   0  0  0  0  0  0  0  0  0  0  0  0
  -27.3148  -32.0151   17.0689 C   0  0  0  0  0  0  0  0  0  0  0  0
  -24.8949  -13.2264   18.9425 C   0  0  0  0  0  0  0  0  0  0  0  0
  -26.2005  -31.7151   18.0731 C   0  0  0  0  0  0  0  0  0  0  0  0
  -27.9089  -30.7348   16.4859 C   0  0  0  0  0  0  0  0  0  0  0  0
  -27.2606  -29.4567   18.4908 C   0  0  0  0  0  0  0  0  0  0  0  0
  -26.0575  -14.1457   19.3360 C   0  0  1  0  0  0  0  0  0  0  0  0
  -24.7558  -16.7561   21.7701 C   0  0  1  0  0  0  0  0  0  0  0  0
  -26.6684  -30.7153   19.1477 C   0  0  2  0  0  0  0  0  0  0  0  0
  -18.7392  -21.3924   23.6577 C   0  0  0  0  0  0  0  0  0  0  0  0
  -33.0185  -26.2679   18.2392 C   0  0  0  0  0  0  0  0  0  0  0  0
  -21.4791  -18.0911   18.7966 C   0  0  0  0  0  0  0  0  0  0  0  0
  -20.0115  -19.9630   19.5778 C   0  0  0  0  0  0  0  0  0  0  0  0
  -19.7321  -17.6776   20.5376 C   0  0  0  0  0  0  0  0  0  0  0  0
  -22.2100  -22.5819   24.6650 C   0  0  0  0  0  0  0  0  0  0  0  0
  -28.0821  -22.5332   19.7971 C   0  0  0  0  0  0  0  0  0  1  0  0
  -31.3265  -28.0264   18.8415 C   0  0  0  0  0  0  0  0  0  0  0  0
  -21.7557  -19.0516   21.1771 C   0  0  1  0  0  0  0  0  0  0  0  0
  -20.2436  -21.2765   23.8479 C   0  0  2  0  0  0  0  0  0  0  0  0
  -31.5372  -26.6811   18.1002 C   0  0  2  0  0  0  0  0  0  0  0  0
  -20.7728  -18.6971   20.0257 C   0  0  0  0  0  0  0  0  0  0  0  0
  -29.3581  -23.6416   18.0421 N   0  0  0  0  0  0  0  0  0  0  0  0
  -30.2682  -25.5813   19.8516 N   0  0  0  0  0  0  0  0  0  0  0  0
  -24.7759  -29.3125   19.8777 N   0  0  0  0  0  0  0  0  0  0  0  0
  -25.5551  -30.3797   20.1227 N   0  0  0  0  0  0  0  0  0  0  0  0
  -23.9442  -17.9501   21.5255 N   0  0  0  0  0  0  0  0  0  0  0  0
  -28.3343  -29.8305   17.5569 N   0  0  0  0  0  0  0  0  0  0  0  0
  -25.9105  -32.1456   21.6609 N   0  0  0  0  0  0  0  0  0  0  0  0
  -22.4023  -29.9162   23.4266 N   0  0  0  0  0  0  0  0  0  0  0  0
  -25.7103  -14.9283   20.5028 N   0  0  0  0  0  0  0  0  0  0  0  0
  -21.1114  -19.6022   22.3646 N   0  0  0  0  0  0  0  0  0  0  0  0
  -29.9913  -28.5491   18.6552 N   0  0  0  0  0  0  0  0  0  0  0  0
  -20.7472  -22.5631   24.4062 N   0  3  0  0  0  0  0  0  0  0  0  0
  -23.7979  -31.7140   23.7071 O   0  0  0  0  0  0  0  0  0  0  0  0
  -24.5888  -16.6562   19.4169 O   0  0  0  0  0  0  0  0  0  0  0  0
  -21.9565  -16.8771   22.1034 O   0  0  0  0  0  0  0  0  0  0  0  0
  -21.3009  -21.8293   21.7470 O   0  0  0  0  0  0  0  0  0  0  0  0
  -30.5159  -29.7512   16.7746 O   0  0  0  0  0  0  0  0  0  0  0  0
  -19.9808  -25.3716   21.3008 O   0  0  0  0  0  0  0  0  0  0  0  0
  -28.8365  -21.5759   20.5392 O   0  0  0  0  0  0  0  0  0  1  0  0
  -14.8749  -26.9784   22.6246 F   0  0  0  0  0  0  0  0  0  0  0  0
  -19.4764  -26.6675   23.6902 F   0  0  0  0  0  0  0  0  0  0  0  0
  -31.3921  -26.9885   16.7557 F   0  0  0  0  0  0  0  0  0  0  0  0
  1  2  1  0  0  0  0
  1  5  2  0  0  0  0
  2  6  2  0  0  0  0
  3  8  2  0  0  0  0
  3 17  1  0  0  0  0
  4  9  1  0  0  0  0
  4 17  2  0  0  0  0
  5 19  1  0  0  0  0
  6 21  1  0  0  0  0
  7 10  2  0  0  0  0
  7 20  1  0  0  0  0
  8 23  1  0  0  0  0
  9 23  2  0  0  0  0
 10 24  1  0  0  0  0
 11 12  2  0  0  0  0
 11 25  1  0  0  0  0
 12 26  1  0  0  0  0
 13 22  1  0  0  0  0
 13 24  2  0  0  0  0
 14 26  2  0  0  0  0
 14 27  1  0  0  0  0
 15 29  1  0  0  0  0
 15 62  2  0  0  0  0
 16 30  2  0  0  0  0
 16 61  1  0  0  0  0
 17 28  1  0  0  0  0
 18 28  1  0  0  0  0
 18 31  2  0  0  0  0
 18 32  1  0  0  0  0
 19 21  2  0  0  0  0
 19 37  1  0  0  0  0
 20 22  2  0  0  0  0
 20 38  1  0  0  0  0
 21 46  1  0  0  0  0
 22 39  1  0  0  0  0
 23 78  1  0  0  0  0
 24 79  1  0  0  0  0
 25 27  2  0  0  0  0
 25 78  1  0  0  0  0
 26 80  1  0  0  0  0
 27 81  1  0  0  0  0
 28 63  2  0  0  0  0
 29 55  1  0  0  0  0
 29 61  2  0  0  0  0
 30 59  1  0  0  0  0
 30 62  1  0  0  0  0
 31 64  1  0  0  0  0
 31 67  1  0  0  0  0
 32 68  1  0  0  0  0
 32 73  2  0  0  0  0
 33 47  1  0  0  0  0
 33 69  1  0  0  0  0
 33 74  2  0  0  0  0
 34 57  1  0  0  0  0
 34 65  1  0  0  0  0
 34 75  2  0  0  0  0
 35 58  1  0  0  0  0
 35 70  1  0  0  0  0
 35 76  2  0  0  0  0
 36 66  1  0  0  0  0
 36 71  1  0  0  0  0
 36 77  2  0  0  0  0
 37 40  1  0  0  0  0
 38 47  1  0  0  0  0
 39 65  1  0  0  0  0
 40 42  1  0  0  0  0
 41 43  1  0  0  0  0
 41 44  1  0  0  0  0
 42 46  1  0  0  0  0
 43 48  1  0  0  0  0
 44 66  1  0  0  0  0
 45 48  1  0  0  0  0
 45 66  1  0  0  0  0
 46 69  1  0  0  0  0
 47 65  1  0  0  0  0
 48 64  1  0  0  0  0
 49 58  1  0  0  0  0
 50 59  1  0  0  0  0
 51 60  1  0  0  0  0
 52 60  1  0  0  0  0
 53 60  1  0  0  0  0
 54 72  1  0  0  0  0
 55 79  1  0  0  0  0
 56 59  1  0  0  0  0
 56 71  1  0  0  0  0
 57 60  1  0  0  0  0
 57 70  1  0  0  0  0
 58 72  1  0  0  0  0
 59 82  1  0  0  0  0
 63 64  1  0  0  0  0
M  CHG  1  72   1
M  ISO  4  36 100  55 101  71 100  79 101
M  END
> <Batch ID>
0056

> <Smiles>
CNC(C)C(=O)NC(C(=O)N1Cc2cc([101O:1][101CH2:1]c3cnc(C(C)(F)C[100NH:0][100C:0](=O)N4CCCC(n5nc(-c6ccc(Oc7ccc(F)cc7F)cc6)c(C(N)=O)c5N)C4)cn3)ccc2CC1C(=O)NC1CCCc2ccccc21)C(C)(C)C

> <Shape>
0.229

> <Color>
0.091

> <Negative vol penalty>
0.000

$$$$

  -OEChem-04052317463D

 81 89  0     1  0  0  0  0  0999 V2000
  -20.8108  -23.0516   22.0907 C   0  0  0  0  0  0  0  0  0  0  0  0
  -22.1484  -22.8048   21.7987 C   0  0  0  0  0  0  0  0  0  0  0  0
  -26.6755  -29.1542   18.6112 C   0  0  0  0  0  0  0  0  0  0  0  0
  -26.3231  -29.0832   21.0003 C   0  0  0  0  0  0  0  0  0  0  0  0
  -20.0555  -22.0893   22.7597 C   0  0  0  0  0  0  0  0  0  0  0  0
  -22.7319  -21.5960   22.1766 C   0  0  0  0  0  0  0  0  0  0  0  0
  -27.0396  -18.4787   19.1382 C   0  0  0  0  0  0  0  0  0  0  0  0
  -25.4865  -29.8669   18.4570 C   0  0  0  0  0  0  0  0  0  0  0  0
  -25.1341  -29.7960   20.8461 C   0  0  0  0  0  0  0  0  0  0  0  0
  -28.4234  -18.4013   19.2889 C   0  0  0  0  0  0  0  0  0  0  0  0
  -21.9503  -29.1566   19.9053 C   0  0  0  0  0  0  0  0  0  0  0  0
  -20.8315  -28.7107   20.6090 C   0  0  0  0  0  0  0  0  0  0  0  0
  -28.1617  -16.3983   20.6076 C   0  0  0  0  0  0  0  0  0  0  0  0
  -20.7027  -30.8361   21.7506 C   0  0  0  0  0  0  0  0  0  0  0  0
  -32.5347  -19.8025   21.2069 C   0  0  0  0  0  0  0  0  0  0  0  0
  -27.0938  -28.7623   19.8829 C   0  0  0  0  0  0  0  0  0  0  0  0
  -29.6099  -28.5545   20.2488 C   0  0  0  0  0  0  0  0  0  0  0  0
  -20.6274  -20.8642   23.1374 C   0  0  0  0  0  0  0  0  0  0  0  0
  -26.2043  -17.5210   19.7311 C   0  0  0  0  0  0  0  0  0  0  0  0
  -21.9839  -20.6170   22.8525 C   0  0  0  0  0  0  0  0  0  0  0  0
  -26.7677  -16.4644   20.4607 C   0  0  0  0  0  0  0  0  0  0  0  0
  -24.7158  -30.1878   19.5744 C   0  0  0  0  0  0  0  0  0  0  0  0
  -28.9845  -17.3626   20.0262 C   0  0  0  0  0  0  0  0  0  0  0  0
  -22.4453  -30.4421   20.1243 C   0  0  0  0  0  0  0  0  0  0  0  0
  -20.2077  -29.5505   21.5316 C   0  0  0  0  0  0  0  0  0  0  0  0
  -21.8215  -31.2819   21.0469 C   0  0  0  0  0  0  0  0  0  0  0  0
  -28.3217  -28.0255   20.0428 C   0  0  0  0  0  0  0  0  0  0  0  0
  -30.4240  -27.4518   20.3369 C   0  0  0  0  0  0  0  0  0  0  0  0
  -31.8268  -20.6956   22.9557 C   0  0  0  0  0  0  0  0  0  0  0  0
  -30.0329  -29.9207   20.3513 C   0  0  0  0  0  0  0  0  0  0  0  0
  -23.9045  -17.6000   21.9239 C   0  0  0  0  0  0  0  0  0  0  0  0
  -23.5685  -14.4751   21.1214 C   0  0  0  0  0  0  0  0  0  0  0  0
  -24.9743  -11.6508   19.8199 C   0  0  0  0  0  0  0  0  0  0  0  0
  -28.8950  -21.6960   21.7762 C   0  0  0  0  0  0  0  0  0  0  0  0
  -19.7839  -19.8739   23.9007 C   0  0  0  0  0  0  0  0  0  0  0  0
  -24.7151  -17.6036   19.5367 C   0  0  0  0  0  0  0  0  0  0  0  0
  -25.9159  -15.3995   21.1003 C   0  0  0  0  0  0  0  0  0  0  0  0
  -20.3765  -18.4675   23.9344 C   0  0  0  0  0  0  0  0  0  0  0  0
  -30.7932  -22.9267   18.8463 C   0  0  0  0  0  0  0  0  0  0  0  0
  -21.8609  -18.5218   24.2811 C   0  0  0  0  0  0  0  0  0  0  0  0
  -30.4194  -24.4074   18.8053 C   0  0  0  0  0  0  0  0  0  0  0  0
  -29.6883  -22.0799   19.4708 C   0  0  0  0  0  0  0  0  0  0  0  0
  -28.8942  -24.0205   20.7813 C   0  0  0  0  0  0  0  0  0  0  0  0
  -22.6459  -19.3079   23.2240 C   0  0  1  0  0  0  0  0  0  0  0  0
  -23.9298  -16.8631   20.6148 C   0  0  1  0  0  0  0  0  0  0  0  0
  -30.0055  -24.9076   20.2002 C   0  0  2  0  0  0  0  0  0  0  0  0
  -24.4649   -9.2431   19.3290 C   0  0  0  0  0  0  0  0  0  0  0  0
  -23.8572  -13.8121   24.0856 C   0  0  0  0  0  0  0  0  0  0  0  0
  -24.2932  -11.4329   23.4396 C   0  0  0  0  0  0  0  0  0  0  0  0
  -22.1033  -12.4921   22.8875 C   0  0  0  0  0  0  0  0  0  0  0  0
  -28.2615  -21.5741   24.1560 C   0  0  0  0  0  0  0  0  0  0  0  0
  -25.4249  -12.0264   16.9191 C   0  0  0  0  0  0  0  0  0  0  0  0
  -31.4223  -21.6254   24.0065 C   0  0  0  0  0  0  0  0  0  0  0  0
  -32.2001  -17.2518   21.7091 C   0  0  0  0  0  0  0  0  0  0  0  0
  -30.3845  -22.6840   23.5672 C   0  0  0  0  0  0  0  0  0  0  0  0
  -30.8224  -16.6890   21.3769 C   0  0  0  0  0  0  0  0  0  1  0  0
  -24.1703  -13.1770   21.6028 C   0  0  1  0  0  0  0  0  0  0  0  0
  -24.4733  -10.6623   18.7825 C   0  0  2  0  0  0  0  0  0  0  0  0
  -23.6222  -12.7495   22.9936 C   0  0  0  0  0  0  0  0  0  0  0  0
  -32.3417  -21.0208   21.7927 N   0  0  0  0  0  0  0  0  0  0  0  0
  -28.3130  -26.6904   20.0024 N   0  0  0  0  0  0  0  0  0  0  0  0
  -31.7222  -19.3427   23.0477 N   0  0  0  0  0  0  0  0  0  0  0  0
  -32.1715  -18.7440   21.9342 N   0  0  0  0  0  0  0  0  0  0  0  0
  -29.6058  -26.3713   20.1840 N   0  0  0  0  0  0  0  0  0  0  0  0
  -24.4649  -15.5274   20.8869 N   0  0  0  0  0  0  0  0  0  0  0  0
  -29.2841  -22.6026   20.7764 N   0  0  0  0  0  0  0  0  0  0  0  0
  -31.7526  -27.3106   20.5294 N   0  0  0  0  0  0  0  0  0  0  0  0
  -29.0666  -30.9295   20.2380 N   0  0  0  0  0  0  0  0  0  0  0  0
  -22.8593  -18.4957   22.0453 N   0  0  0  0  0  0  0  0  0  0  0  0
  -23.9376  -12.2015   20.5433 N   0  0  0  0  0  0  0  0  0  0  0  0
  -29.1430  -22.0660   23.1067 N   0  0  0  0  0  0  0  0  0  0  0  0
  -25.3434  -10.6950   17.5731 N   0  3  0  0  0  0  0  0  0  0  0  0
  -31.2345  -30.2378   20.5214 O   0  0  0  0  0  0  0  0  0  0  0  0
  -24.7685  -17.3719   22.7625 O   0  0  0  0  0  0  0  0  0  0  0  0
  -22.3489  -14.5504   20.9525 O   0  0  0  0  0  0  0  0  0  0  0  0
  -26.1665  -11.9059   19.9757 O   0  0  0  0  0  0  0  0  0  0  0  0
  -28.3652  -20.6133   21.4951 O   0  0  0  0  0  0  0  0  0  0  0  0
  -23.5556  -30.8836   19.4243 O   0  0  0  0  0  0  0  0  0  0  0  0
  -30.3349  -17.2851   20.1755 O   0  0  0  0  0  0  0  0  0  1  0  0
  -19.1324  -29.1228   22.2062 F   0  0  0  0  0  0  0  0  0  0  0  0
  -22.2917  -32.5184   21.2607 F   0  0  0  0  0  0  0  0  0  0  0  0
  1  2  1  0  0  0  0
  1  5  2  0  0  0  0
  2  6  2  0  0  0  0
  3  8  2  0  0  0  0
  3 16  1  0  0  0  0
  4  9  1  0  0  0  0
  4 16  2  0  0  0  0
  5 18  1  0  0  0  0
  6 20  1  0  0  0  0
  7 10  2  0  0  0  0
  7 19  1  0  0  0  0
  8 22  1  0  0  0  0
  9 22  2  0  0  0  0
 10 23  1  0  0  0  0
 11 12  2  0  0  0  0
 11 24  1  0  0  0  0
 12 25  1  0  0  0  0
 13 21  1  0  0  0  0
 13 23  2  0  0  0  0
 14 25  2  0  0  0  0
 14 26  1  0  0  0  0
 15 60  2  0  0  0  0
 15 63  1  0  0  0  0
 16 27  1  0  0  0  0
 17 27  1  0  0  0  0
 17 28  2  0  0  0  0
 17 30  1  0  0  0  0
 18 20  2  0  0  0  0
 18 35  1  0  0  0  0
 19 21  2  0  0  0  0
 19 36  1  0  0  0  0
 20 44  1  0  0  0  0
 21 37  1  0  0  0  0
 22 78  1  0  0  0  0
 23 79  1  0  0  0  0
 24 26  2  0  0  0  0
 24 78  1  0  0  0  0
 25 80  1  0  0  0  0
 26 81  1  0  0  0  0
 27 61  2  0  0  0  0
 28 64  1  0  0  0  0
 28 67  1  0  0  0  0
 29 53  1  0  0  0  0
 29 60  1  0  0  0  0
 29 62  2  0  0  0  0
 30 68  1  0  0  0  0
 30 73  2  0  0  0  0
 31 45  1  0  0  0  0
 31 69  1  0  0  0  0
 31 74  2  0  0  0  0
 32 57  1  0  0  0  0
 32 65  1  0  0  0  0
 32 75  2  0  0  0  0
 33 58  1  0  0  0  0
 33 70  1  0  0  0  0
 33 76  2  0  0  0  0
 34 66  1  0  0  0  0
 34 71  1  0  0  0  0
 34 77  2  0  0  0  0
 35 38  1  0  0  0  0
 36 45  1  0  0  0  0
 37 65  1  0  0  0  0
 38 40  1  0  0  0  0
 39 41  1  0  0  0  0
 39 42  1  0  0  0  0
 40 44  1  0  0  0  0
 41 46  1  0  0  0  0
 42 66  1  0  0  0  0
 43 46  1  0  0  0  0
 43 66  1  0  0  0  0
 44 69  1  0  0  0  0
 45 65  1  0  0  0  0
 46 64  1  0  0  0  0
 47 58  1  0  0  0  0
 48 59  1  0  0  0  0
 49 59  1  0  0  0  0
 50 59  1  0  0  0  0
 51 71  1  0  0  0  0
 52 72  1  0  0  0  0
 53 55  1  0  0  0  0
 54 56  1  0  0  0  0
 54 63  1  0  0  0  0
 55 71  1  0  0  0  0
 56 79  1  0  0  0  0
 57 59  1  0  0  0  0
 57 70  1  0  0  0  0
 58 72  1  0  0  0  0
 61 64  1  0  0  0  0
 62 63  1  0  0  0  0
M  CHG  1  72   1
M  ISO  4  34 100  56 101  71 100  79 101
M  END
> <Batch ID>
0056

> <Smiles>
CNC(C)C(=O)NC(C(=O)N1Cc2cc([101O:1][101CH2:1]Cn3cnc(CC[100N:0](C)[100C:0](=O)N4CCCC(n5nc(-c6ccc(Oc7ccc(F)cc7F)cc6)c(C(N)=O)c5N)C4)n3)ccc2CC1C(=O)NC1CCCc2ccccc21)C(C)(C)C

> <Shape>
0.211

> <Color>
0.070

> <Negative vol penalty>
0.000

$$$$

  -OEChem-04052317463D

 87 95  0     1  0  0  0  0  0999 V2000
  -27.7371  -32.6596   27.7380 C   0  0  0  0  0  0  0  0  0  0  0  0
  -27.8048  -31.5757   26.8687 C   0  0  0  0  0  0  0  0  0  0  0  0
  -24.5485   -8.8857   22.4044 C   0  0  0  0  0  0  0  0  0  0  0  0
  -24.2233   -8.9763   20.0121 C   0  0  0  0  0  0  0  0  0  0  0  0
  -26.5401  -33.3590   27.8865 C   0  0  0  0  0  0  0  0  0  0  0  0
  -26.6752  -31.1897   26.1480 C   0  0  0  0  0  0  0  0  0  0  0  0
  -27.7116  -30.2111   21.2886 C   0  0  0  0  0  0  0  0  0  0  0  0
  -23.3683   -8.1543   22.5372 C   0  0  0  0  0  0  0  0  0  0  0  0
  -23.0431   -8.2448   20.1449 C   0  0  0  0  0  0  0  0  0  0  0  0
  -28.3067  -28.9840   20.9991 C   0  0  0  0  0  0  0  0  0  0  0  0
  -20.6291   -5.9532   23.4687 C   0  0  0  0  0  0  0  0  0  0  0  0
  -20.6478   -4.8385   24.3070 C   0  0  0  0  0  0  0  0  0  0  0  0
  -26.1603  -28.1068   20.3340 C   0  0  0  0  0  0  0  0  0  0  0  0
  -22.3747   -3.8416   22.9427 C   0  0  0  0  0  0  0  0  0  0  0  0
  -29.7738  -24.0458   20.7708 C   0  0  0  0  0  0  0  0  0  0  0  0
  -24.9760   -9.2968   21.1419 C   0  0  0  0  0  0  0  0  0  0  0  0
  -27.4929   -9.5446   20.8083 C   0  0  0  0  0  0  0  0  0  0  0  0
  -25.3978  -32.9873   27.1600 C   0  0  0  0  0  0  0  0  0  0  0  0
  -26.3322  -30.3922   21.1130 C   0  0  0  0  0  0  0  0  0  0  0  0
  -25.4614  -31.8839   26.2878 C   0  0  0  0  0  0  0  0  0  0  0  0
  -25.5505  -29.3379   20.6196 C   0  0  0  0  0  0  0  0  0  0  0  0
  -22.6156   -7.8338   21.4074 C   0  0  0  0  0  0  0  0  0  0  0  0
  -27.5306  -27.9307   20.5245 C   0  0  0  0  0  0  0  0  0  0  0  0
  -21.4832   -6.0121   22.3674 C   0  0  0  0  0  0  0  0  0  0  0  0
  -21.5206   -3.7827   24.0440 C   0  0  0  0  0  0  0  0  0  0  0  0
  -22.3560   -4.9563   22.1044 C   0  0  0  0  0  0  0  0  0  0  0  0
  -26.1948  -10.0528   21.0042 C   0  0  0  0  0  0  0  0  0  0  0  0
  -29.9651  -25.2464   20.0611 C   0  0  0  0  0  0  0  0  0  0  0  0
  -30.3660  -23.0857   19.9872 C   0  0  0  0  0  0  0  0  0  0  0  0
  -28.2918  -10.6599   20.7410 C   0  0  0  0  0  0  0  0  0  0  0  0
  -27.9370   -8.1859   20.6969 C   0  0  0  0  0  0  0  0  0  0  0  0
  -23.8984  -31.0874   23.0358 C   0  0  0  0  0  0  0  0  0  0  0  0
  -22.2428  -31.2222   20.2496 C   0  0  0  0  0  0  0  0  0  0  0  0
  -21.9822  -30.2623   16.9850 C   0  0  0  0  0  0  0  0  0  0  0  0
  -27.3609  -16.1485   19.1235 C   0  0  0  0  0  0  0  0  0  0  0  0
  -24.1136  -33.7443   27.3892 C   0  0  0  0  0  0  0  0  0  0  0  0
  -25.7100  -31.7302   21.4046 C   0  0  0  0  0  0  0  0  0  0  0  0
  -24.0688  -29.4872   20.3945 C   0  0  0  0  0  0  0  0  0  0  0  0
  -23.0634  -33.5037   26.3078 C   0  0  0  0  0  0  0  0  0  0  0  0
  -28.5814  -15.1688   22.2893 C   0  0  0  0  0  0  0  0  0  0  0  0
  -22.9419  -32.0138   26.0038 C   0  0  0  0  0  0  0  0  0  0  0  0
  -28.2238  -13.6833   22.3051 C   0  0  0  0  0  0  0  0  0  0  0  0
  -27.4785  -16.0186   21.6555 C   0  0  0  0  0  0  0  0  0  0  0  0
  -26.7172  -14.0788   20.3213 C   0  0  0  0  0  0  0  0  0  0  0  0
  -24.2643  -31.4500   25.4700 C   0  0  1  0  0  0  0  0  0  0  0  0
  -24.2112  -31.6457   21.6763 C   0  0  1  0  0  0  0  0  0  0  0  0
  -27.8346  -13.1962   20.8986 C   0  0  2  0  0  0  0  0  0  0  0  0
  -20.5006  -30.5012   14.9737 C   0  0  0  0  0  0  0  0  0  0  0  0
  -20.2677  -29.2441   21.4727 C   0  0  0  0  0  0  0  0  0  0  0  0
  -19.3925  -28.8007   19.1692 C   0  0  0  0  0  0  0  0  0  0  0  0
  -19.2146  -31.0873   20.1505 C   0  0  0  0  0  0  0  0  0  0  0  0
  -29.9890  -19.3041   16.9519 C   0  0  0  0  0  0  0  0  0  0  0  0
  -30.2604  -17.2040   18.2681 C   0  0  0  0  0  0  0  0  0  0  0  0
  -31.5696  -23.1656   17.7829 C   0  0  0  0  0  0  0  0  0  0  0  0
  -26.6067  -18.3700   20.0728 C   0  0  0  0  0  0  0  0  0  0  0  0
  -24.1322  -31.5487   15.4097 C   0  0  0  0  0  0  0  0  0  0  0  0
  -28.1446  -21.1804   19.5186 C   0  0  0  0  0  0  0  0  0  0  0  0
  -29.5156  -26.6228   20.4547 C   0  0  0  0  0  0  0  0  0  1  0  0
  -30.5035  -21.6301   20.1772 C   0  0  0  0  0  0  0  0  0  0  0  0
  -27.9818  -18.2676   18.0271 C   0  0  0  0  0  0  0  0  0  0  0  0
  -29.8200  -19.3383   19.4836 C   0  0  0  0  0  0  0  0  0  0  0  0
  -21.4749  -30.2274   19.4131 C   0  0  1  0  0  0  0  0  0  0  0  0
  -21.7035  -31.0555   15.7210 C   0  0  2  0  0  0  0  0  0  0  0  0
  -20.1150  -29.8362   20.0574 C   0  0  0  0  0  0  0  0  0  0  0  0
  -29.4947  -18.5423   18.1988 C   0  0  0  0  0  0  0  0  0  0  0  0
  -26.1661  -11.3871   21.0581 N   0  0  0  0  0  0  0  0  0  0  0  0
  -30.6272  -25.0680   18.9149 N   0  0  0  0  0  0  0  0  0  0  0  0
  -30.8572  -23.7440   18.8984 N   0  0  0  0  0  0  0  0  0  0  0  0
  -27.4561  -11.7268   20.8951 N   0  0  0  0  0  0  0  0  0  0  0  0
  -23.5058  -30.8128   20.7001 N   0  0  0  0  0  0  0  0  0  0  0  0
  -27.1044  -15.4916   20.3360 N   0  0  0  0  0  0  0  0  0  0  0  0
  -29.6204  -10.8223   20.5659 N   0  0  0  0  0  0  0  0  0  0  0  0
  -26.9843   -7.1620   20.7884 N   0  0  0  0  0  0  0  0  0  0  0  0
  -24.4429  -31.8105   24.0799 N   0  0  0  0  0  0  0  0  0  0  0  0
  -21.3587  -30.8159   18.0832 N   0  0  0  0  0  0  0  0  0  0  0  0
  -27.3851  -17.5511   19.1456 N   0  0  0  0  0  0  0  0  0  0  0  0
  -22.8831  -31.0116   14.8113 N   0  3  0  0  0  0  0  0  0  0  0  0
  -29.5901  -20.8157   19.3169 N   0  3  1  0  0  0  0  0  0  0  0  0
  -29.1450   -7.8880   20.5379 O   0  0  0  0  0  0  0  0  0  0  0  0
  -23.2126  -30.0763   23.1306 O   0  0  0  0  0  0  0  0  0  0  0  0
  -21.7435  -32.3246   20.4883 O   0  0  0  0  0  0  0  0  0  0  0  0
  -22.6799  -29.2506   16.9963 O   0  0  0  0  0  0  0  0  0  0  0  0
  -27.5501  -15.5175   18.0756 O   0  0  0  0  0  0  0  0  0  0  0  0
  -21.4640   -7.1198   21.5366 O   0  0  0  0  0  0  0  0  0  0  0  0
  -28.1088  -26.7317   20.2418 O   0  0  0  0  0  0  0  0  0  1  0  0
  -21.5396   -2.7130   24.8499 F   0  0  0  0  0  0  0  0  0  0  0  0
  -23.1796   -5.0077   21.0486 F   0  0  0  0  0  0  0  0  0  0  0  0
  1  2  1  0  0  0  0
  1  5  2  0  0  0  0
  2  6  2  0  0  0  0
  3  8  2  0  0  0  0
  3 16  1  0  0  0  0
  4  9  1  0  0  0  0
  4 16  2  0  0  0  0
  5 18  1  0  0  0  0
  6 20  1  0  0  0  0
  7 10  2  0  0  0  0
  7 19  1  0  0  0  0
  8 22  1  0  0  0  0
  9 22  2  0  0  0  0
 10 23  1  0  0  0  0
 11 12  2  0  0  0  0
 11 24  1  0  0  0  0
 12 25  1  0  0  0  0
 13 21  1  0  0  0  0
 13 23  2  0  0  0  0
 14 25  2  0  0  0  0
 14 26  1  0  0  0  0
 15 28  1  0  0  0  0
 15 29  2  0  0  0  0
 16 27  1  0  0  0  0
 17 27  1  0  0  0  0
 17 30  2  0  0  0  0
 17 31  1  0  0  0  0
 18 20  2  0  0  0  0
 18 36  1  0  0  0  0
 19 21  2  0  0  0  0
 19 37  1  0  0  0  0
 20 45  1  0  0  0  0
 21 38  1  0  0  0  0
 22 84  1  0  0  0  0
 23 85  1  0  0  0  0
 24 26  2  0  0  0  0
 24 84  1  0  0  0  0
 25 86  1  0  0  0  0
 26 87  1  0  0  0  0
 27 66  2  0  0  0  0
 28 58  1  0  0  0  0
 28 67  2  0  0  0  0
 29 59  1  0  0  0  0
 29 68  1  0  0  0  0
 30 69  1  0  0  0  0
 30 72  1  0  0  0  0
 31 73  1  0  0  0  0
 31 79  2  0  0  0  0
 32 46  1  0  0  0  0
 32 74  1  0  0  0  0
 32 80  2  0  0  0  0
 33 62  1  0  0  0  0
 33 70  1  0  0  0  0
 33 81  2  0  0  0  0
 34 63  1  0  0  0  0
 34 75  1  0  0  0  0
 34 82  2  0  0  0  0
 35 71  1  0  0  0  0
 35 76  1  0  0  0  0
 35 83  2  0  0  0  0
 36 39  1  0  0  0  0
 37 46  1  0  0  0  0
 38 70  1  0  0  0  0
 39 41  1  0  0  0  0
 40 42  1  0  0  0  0
 40 43  1  0  0  0  0
 41 45  1  0  0  0  0
 42 47  1  0  0  0  0
 43 71  1  0  0  0  0
 44 47  1  0  0  0  0
 44 71  1  0  0  0  0
 45 74  1  0  0  0  0
 46 70  1  0  0  0  0
 47 69  1  0  0  0  0
 48 63  1  0  0  0  0
 49 64  1  0  0  0  0
 50 64  1  0  0  0  0
 51 64  1  0  0  0  0
 52 65  1  0  0  0  0
 53 65  1  0  0  0  0
 54 68  1  0  0  0  0
 55 76  1  0  0  0  0
 56 77  1  0  0  0  0
 57 78  1  0  0  0  0
 58 85  1  0  0  0  0
 59 78  1  0  0  0  0
 60 65  1  0  0  0  0
 60 76  1  0  0  0  0
 61 65  1  0  0  0  0
 61 78  1  0  0  0  0
 62 64  1  0  0  0  0
 62 75  1  0  0  0  0
 63 77  1  0  0  0  0
 66 69  1  0  0  0  0
 67 68  1  0  0  0  0
M  CHG  2  77   1  78   1
M  ISO  4  35 100  58 101  76 100  85 101
M  END
> <Batch ID>
0056

> <Smiles>
CNC(C)C(=O)NC(C(=O)N1Cc2cc([101O:1][101CH2:1]c3cc(CN(C)CC(C)(C)C[100N:0](C)[100C:0](=O)N4CCCC(n5nc(-c6ccc(Oc7ccc(F)cc7F)cc6)c(C(N)=O)c5N)C4)n(C)n3)ccc2CC1C(=O)NC1CCCc2ccccc21)C(C)(C)C

> <Shape>
0.303

> <Color>
0.107

> <Negative vol penalty>
0.000

$$$$

  -OEChem-04052317463D

 85 93  0     1  0  0  0  0  0999 V2000
  -28.7612  -11.0675   21.3260 C   0  0  0  0  0  0  0  0  0  0  0  0
  -28.9940  -12.3568   20.8580 C   0  0  0  0  0  0  0  0  0  0  0  0
  -20.2501  -27.1995   23.6312 C   0  0  0  0  0  0  0  0  0  0  0  0
  -19.9070  -29.0055   22.0635 C   0  0  0  0  0  0  0  0  0  0  0  0
  -27.4656  -10.5525   21.3316 C   0  0  0  0  0  0  0  0  0  0  0  0
  -27.9314  -13.1314   20.3943 C   0  0  0  0  0  0  0  0  0  0  0  0
  -28.0913  -17.8863   22.1292 C   0  0  0  0  0  0  0  0  0  0  0  0
  -18.9165  -27.2918   24.0294 C   0  0  0  0  0  0  0  0  0  0  0  0
  -18.5734  -29.0978   22.4617 C   0  0  0  0  0  0  0  0  0  0  0  0
  -28.9870  -18.7591   21.5131 C   0  0  0  0  0  0  0  0  0  0  0  0
  -15.5092  -26.8110   25.2016 C   0  0  0  0  0  0  0  0  0  0  0  0
  -14.7898  -25.6239   25.3390 C   0  0  0  0  0  0  0  0  0  0  0  0
  -27.1793  -19.6868   20.2128 C   0  0  0  0  0  0  0  0  0  0  0  0
  -15.1761  -25.1201   23.0079 C   0  0  0  0  0  0  0  0  0  0  0  0
  -30.7476  -26.2278   21.7350 C   0  0  0  0  0  0  0  0  0  0  0  0
  -20.7454  -28.0564   22.6482 C   0  0  0  0  0  0  0  0  0  0  0  0
  -22.6486  -27.1643   21.2027 C   0  0  0  0  0  0  0  0  0  0  0  0
  -26.3851  -11.3248   20.8767 C   0  0  0  0  0  0  0  0  0  0  0  0
  -26.7324  -17.8998   21.7833 C   0  0  0  0  0  0  0  0  0  0  0  0
  -26.6202  -12.6258   20.3925 C   0  0  0  0  0  0  0  0  0  0  0  0
  -26.2679  -18.8149   20.8278 C   0  0  0  0  0  0  0  0  0  0  0  0
  -18.0781  -28.2409   23.4447 C   0  0  0  0  0  0  0  0  0  0  0  0
  -28.5316  -19.6576   20.5526 C   0  0  0  0  0  0  0  0  0  0  0  0
  -16.0620  -27.1526   23.9674 C   0  0  0  0  0  0  0  0  0  0  0  0
  -14.6232  -24.7785   24.2421 C   0  0  0  0  0  0  0  0  0  0  0  0
  -15.8955  -26.3072   22.8705 C   0  0  0  0  0  0  0  0  0  0  0  0
  -22.1230  -27.9619   22.2368 C   0  0  0  0  0  0  0  0  0  0  0  0
  -31.2229  -25.4003   20.7502 C   0  0  0  0  0  0  0  0  0  0  0  0
  -23.9959  -27.4313   21.2141 C   0  0  0  0  0  0  0  0  0  0  0  0
  -30.4126  -27.8319   20.1812 C   0  0  0  0  0  0  0  0  0  0  0  0
  -21.9789  -26.2629   20.3114 C   0  0  0  0  0  0  0  0  0  0  0  0
  -24.7204  -15.7927   20.5121 C   0  0  0  0  0  0  0  0  0  0  0  0
  -22.5245  -18.0959   21.1409 C   0  0  0  0  0  0  0  0  0  0  0  0
  -28.1739  -31.1409   21.4837 C   0  0  0  0  0  0  0  0  0  0  0  0
  -21.8639  -21.4020   21.6702 C   0  0  0  0  0  0  0  0  0  0  0  0
  -25.0090  -10.7079   20.8578 C   0  0  0  0  0  0  0  0  0  0  0  0
  -25.7744  -16.9701   22.4765 C   0  0  0  0  0  0  0  0  0  0  0  0
  -24.8153  -18.8832   20.4356 C   0  0  0  0  0  0  0  0  0  0  0  0
  -23.8858  -11.7294   20.6990 C   0  0  0  0  0  0  0  0  0  0  0  0
  -26.8423  -29.9063   24.5728 C   0  0  0  0  0  0  0  0  0  0  0  0
  -24.2154  -12.7162   19.5835 C   0  0  0  0  0  0  0  0  0  0  0  0
  -25.5247  -29.2516   24.1596 C   0  0  0  0  0  0  0  0  0  0  0  0
  -27.1400  -31.1424   23.7299 C   0  0  0  0  0  0  0  0  0  0  0  0
  -25.8246  -30.2331   21.8419 C   0  0  0  0  0  0  0  0  0  0  0  0
  -25.4901  -13.5060   19.9044 C   0  0  1  0  0  0  0  0  0  0  0  0
  -24.5009  -16.7183   21.6752 C   0  0  1  0  0  0  0  0  0  0  0  0
  -25.5011  -28.9628   22.6482 C   0  0  2  0  0  0  0  0  0  0  0  0
  -28.9102  -31.6894   19.1632 C   0  0  0  0  0  0  0  0  0  0  0  0
  -19.9693  -22.9849   22.1200 C   0  0  0  0  0  0  0  0  0  0  0  0
  -21.6848  -17.9192   18.2128 C   0  0  0  0  0  0  0  0  0  0  0  0
  -20.5091  -20.1121   18.4899 C   0  0  0  0  0  0  0  0  0  0  0  0
  -19.7897  -18.1351   19.8302 C   0  0  0  0  0  0  0  0  0  0  0  0
  -23.0187  -22.2296   24.2665 C   0  0  0  0  0  0  0  0  0  0  0  0
  -27.8455  -28.7616   18.5892 C   0  0  0  0  0  0  0  0  0  0  0  0
  -31.6913  -24.0017   21.0640 C   0  0  0  0  0  0  0  0  0  0  0  0
  -29.9596  -29.2065   19.8281 C   0  0  0  0  0  0  0  0  0  0  0  0
  -30.5861  -22.9436   20.9728 C   0  0  0  0  0  0  0  0  0  0  0  0
  -30.0096  -22.8001   19.5636 C   0  0  0  0  0  0  0  0  0  0  0  0
  -28.8890  -21.7700   19.5203 C   0  0  0  0  0  0  0  0  0  1  0  0
  -21.9731  -19.2818   20.3868 C   0  0  1  0  0  0  0  0  0  0  0  0
  -28.0456  -30.7875   20.0233 C   0  0  1  0  0  0  0  0  0  0  0  0
  -21.0472  -22.1077   22.7376 C   0  0  2  0  0  0  0  0  0  0  0  0
  -21.0169  -18.8597   19.2357 C   0  0  0  0  0  0  0  0  0  0  0  0
  -30.3273  -27.4743   21.4711 N   0  0  0  0  0  0  0  0  0  0  0  0
  -23.0600  -28.6814   22.8600 N   0  0  0  0  0  0  0  0  0  0  0  0
  -31.2852  -25.8149   19.4718 N   0  0  0  0  0  0  0  0  0  0  0  0
  -30.8703  -27.0636   19.1731 N   0  0  0  0  0  0  0  0  0  0  0  0
  -24.1879  -28.3370   22.2156 N   0  0  0  0  0  0  0  0  0  0  0  0
  -23.9189  -17.9495   21.1371 N   0  0  0  0  0  0  0  0  0  0  0  0
  -27.0860  -30.8317   22.3003 N   0  0  0  0  0  0  0  0  0  0  0  0
  -25.0231  -26.9773   20.4651 N   0  0  0  0  0  0  0  0  0  0  0  0
  -20.5917  -26.1070   20.4366 N   0  0  0  0  0  0  0  0  0  0  0  0
  -25.2091  -14.5498   20.8667 N   0  0  0  0  0  0  0  0  0  0  0  0
  -21.3594  -20.1509   21.3850 N   0  0  0  0  0  0  0  0  0  0  0  0
  -21.9271  -22.9669   23.5795 N   0  3  0  0  0  0  0  0  0  0  0  0
  -28.4777  -29.3583   19.8199 N   0  3  1  0  0  0  0  0  0  0  0  0
  -22.5948  -25.6023   19.4408 O   0  0  0  0  0  0  0  0  0  0  0  0
  -24.4639  -16.1772   19.3772 O   0  0  0  0  0  0  0  0  0  0  0  0
  -21.7470  -17.3318   21.7182 O   0  0  0  0  0  0  0  0  0  0  0  0
  -29.2119  -31.6733   21.8853 O   0  0  0  0  0  0  0  0  0  0  0  0
  -22.8486  -21.9113   21.1396 O   0  0  0  0  0  0  0  0  0  0  0  0
  -16.7767  -28.3311   23.8328 O   0  0  0  0  0  0  0  0  0  0  0  0
  -29.4039  -20.5102   19.9492 O   0  0  0  0  0  0  0  0  0  1  0  0
  -13.9336  -23.6378   24.3746 F   0  0  0  0  0  0  0  0  0  0  0  0
  -16.4253  -26.6295   21.6826 F   0  0  0  0  0  0  0  0  0  0  0  0
  1  2  1  0  0  0  0
  1  5  2  0  0  0  0
  2  6  2  0  0  0  0
  3  8  2  0  0  0  0
  3 16  1  0  0  0  0
  4  9  1  0  0  0  0
  4 16  2  0  0  0  0
  5 18  1  0  0  0  0
  6 20  1  0  0  0  0
  7 10  2  0  0  0  0
  7 19  1  0  0  0  0
  8 22  1  0  0  0  0
  9 22  2  0  0  0  0
 10 23  1  0  0  0  0
 11 12  2  0  0  0  0
 11 24  1  0  0  0  0
 12 25  1  0  0  0  0
 13 21  1  0  0  0  0
 13 23  2  0  0  0  0
 14 25  2  0  0  0  0
 14 26  1  0  0  0  0
 15 28  1  0  0  0  0
 15 64  2  0  0  0  0
 16 27  1  0  0  0  0
 17 27  1  0  0  0  0
 17 29  2  0  0  0  0
 17 31  1  0  0  0  0
 18 20  2  0  0  0  0
 18 36  1  0  0  0  0
 19 21  2  0  0  0  0
 19 37  1  0  0  0  0
 20 45  1  0  0  0  0
 21 38  1  0  0  0  0
 22 82  1  0  0  0  0
 23 83  1  0  0  0  0
 24 26  2  0  0  0  0
 24 82  1  0  0  0  0
 25 84  1  0  0  0  0
 26 85  1  0  0  0  0
 27 65  2  0  0  0  0
 28 55  1  0  0  0  0
 28 66  2  0  0  0  0
 29 68  1  0  0  0  0
 29 71  1  0  0  0  0
 30 56  1  0  0  0  0
 30 64  1  0  0  0  0
 30 67  2  0  0  0  0
 31 72  1  0  0  0  0
 31 77  2  0  0  0  0
 32 46  1  0  0  0  0
 32 73  1  0  0  0  0
 32 78  2  0  0  0  0
 33 60  1  0  0  0  0
 33 69  1  0  0  0  0
 33 79  2  0  0  0  0
 34 61  1  0  0  0  0
 34 70  1  0  0  0  0
 34 80  2  0  0  0  0
 35 62  1  0  0  0  0
 35 74  1  0  0  0  0
 35 81  2  0  0  0  0
 36 39  1  0  0  0  0
 37 46  1  0  0  0  0
 38 69  1  0  0  0  0
 39 41  1  0  0  0  0
 40 42  1  0  0  0  0
 40 43  1  0  0  0  0
 41 45  1  0  0  0  0
 42 47  1  0  0  0  0
 43 70  1  0  0  0  0
 44 47  1  0  0  0  0
 44 70  1  0  0  0  0
 45 73  1  0  0  0  0
 46 69  1  0  0  0  0
 47 68  1  0  0  0  0
 48 61  1  0  0  0  0
 49 62  1  0  0  0  0
 50 63  1  0  0  0  0
 51 63  1  0  0  0  0
 52 63  1  0  0  0  0
 53 75  1  0  0  0  0
 54 76  1  0  0  0  0
 55 57  1  0  0  0  0
 56 76  1  0  0  0  0
 57 58  1  0  0  0  0
 58 59  1  0  0  0  0
 59 83  1  0  0  0  0
 60 63  1  0  0  0  0
 60 74  1  0  0  0  0
 61 76  1  0  0  0  0
 62 75  1  0  0  0  0
 65 68  1  0  0  0  0
 66 67  1  0  0  0  0
M  CHG  2  75   1  76   1
M  ISO  4  34 100  59 101  61 100  83 101
M  END
> <Batch ID>
0056

> <Smiles>
CNC(C)C(=O)NC(C(=O)N1Cc2cc([101O:1][101CH2:1]CCCc3cnc(CN(C)[100CH:0](C)[100C:0](=O)N4CCCC(n5nc(-c6ccc(Oc7ccc(F)cc7F)cc6)c(C(N)=O)c5N)C4)nn3)ccc2CC1C(=O)NC1CCCc2ccccc21)C(C)(C)C

> <Shape>
0.228

> <Color>
0.079

> <Negative vol penalty>
0.000

$$$$

  -OEChem-04052317463D

 86 94  0     1  0  0  0  0  0999 V2000
  -17.7285  -30.8183   19.9508 C   0  0  0  0  0  0  0  0  0  0  0  0
  -19.0746  -30.6927   19.6226 C   0  0  0  0  0  0  0  0  0  0  0  0
  -25.2153  -16.1658   21.6694 C   0  0  0  0  0  0  0  0  0  0  0  0
  -25.0015  -16.1852   19.2629 C   0  0  0  0  0  0  0  0  0  0  0  0
  -17.2700  -30.3739   21.1903 C   0  0  0  0  0  0  0  0  0  0  0  0
  -19.9632  -30.1236   20.5342 C   0  0  0  0  0  0  0  0  0  0  0  0
  -24.8353  -26.6444   19.2444 C   0  0  0  0  0  0  0  0  0  0  0  0
  -24.0247  -15.4461   21.7694 C   0  0  0  0  0  0  0  0  0  0  0  0
  -23.8109  -15.4654   19.3629 C   0  0  0  0  0  0  0  0  0  0  0  0
  -26.1958  -26.9337   19.1496 C   0  0  0  0  0  0  0  0  0  0  0  0
  -21.2289  -13.2915   22.6391 C   0  0  0  0  0  0  0  0  0  0  0  0
  -21.2005  -12.2028   23.5107 C   0  0  0  0  0  0  0  0  0  0  0  0
  -26.5039  -26.2019   21.4275 C   0  0  0  0  0  0  0  0  0  0  0  0
  -31.7379  -25.4180   21.4109 C   0  0  0  0  0  0  0  0  0  0  0  0
  -22.9809  -11.1540   22.2588 C   0  0  0  0  0  0  0  0  0  0  0  0
  -31.2322  -26.0959   19.1880 C   0  0  0  0  0  0  0  0  0  0  0  0
  -25.7037  -16.5355   20.4162 C   0  0  0  0  0  0  0  0  0  0  0  0
  -28.2351  -16.7576   20.1922 C   0  0  0  0  0  0  0  0  0  0  0  0
  -18.1517  -29.7903   22.1137 C   0  0  0  0  0  0  0  0  0  0  0  0
  -24.2960  -26.1410   20.4370 C   0  0  0  0  0  0  0  0  0  0  0  0
  -19.5163  -29.6723   21.7877 C   0  0  0  0  0  0  0  0  0  0  0  0
  -25.1367  -25.9046   21.5340 C   0  0  0  0  0  0  0  0  0  0  0  0
  -31.1702  -26.3495   20.5487 C   0  0  0  0  0  0  0  0  0  0  0  0
  -32.3417  -24.2775   20.8933 C   0  0  0  0  0  0  0  0  0  0  0  0
  -23.3225  -15.0958   20.6162 C   0  0  0  0  0  0  0  0  0  0  0  0
  -27.0299  -26.7152   20.2422 C   0  0  0  0  0  0  0  0  0  0  0  0
  -22.1333  -13.3114   21.5773 C   0  0  0  0  0  0  0  0  0  0  0  0
  -22.0765  -11.1341   23.3205 C   0  0  0  0  0  0  0  0  0  0  0  0
  -23.0093  -12.2427   21.3872 C   0  0  0  0  0  0  0  0  0  0  0  0
  -26.9332  -17.2795   20.3123 C   0  0  0  0  0  0  0  0  0  0  0  0
  -32.3511  -24.1165   19.5171 C   0  0  0  0  0  0  0  0  0  0  0  0
  -29.0446  -17.8653   20.1284 C   0  0  0  0  0  0  0  0  0  0  0  0
  -28.6736  -15.3934   20.1428 C   0  0  0  0  0  0  0  0  0  0  0  0
  -22.1240  -27.1597   22.5223 C   0  0  0  0  0  0  0  0  0  0  0  0
  -22.5854  -24.2322   23.8411 C   0  0  0  0  0  0  0  0  0  0  0  0
  -24.6346  -21.5365   24.2664 C   0  0  0  0  0  0  0  0  0  0  0  0
  -29.8246  -22.9642   17.7389 C   0  0  0  0  0  0  0  0  0  0  0  0
  -17.6182  -29.3680   23.4597 C   0  0  0  0  0  0  0  0  0  0  0  0
  -22.8310  -25.8089   20.5144 C   0  0  0  0  0  0  0  0  0  0  0  0
  -24.6108  -25.3466   22.8304 C   0  0  0  0  0  0  0  0  0  0  0  0
  -18.5561  -28.4348   24.2211 C   0  0  0  0  0  0  0  0  0  0  0  0
  -28.0542  -22.7423   20.9820 C   0  0  0  0  0  0  0  0  0  0  0  0
  -19.9857  -28.9653   24.1805 C   0  0  0  0  0  0  0  0  0  0  0  0
  -27.6542  -21.2692   21.0430 C   0  0  0  0  0  0  0  0  0  0  0  0
  -28.1648  -23.2410   19.5444 C   0  0  0  0  0  0  0  0  0  0  0  0
  -28.6747  -20.9542   18.7539 C   0  0  0  0  0  0  0  0  0  0  0  0
  -20.5065  -29.0378   22.7400 C   0  0  1  0  0  0  0  0  0  0  0  0
  -22.2988  -25.7840   21.9439 C   0  0  1  0  0  0  0  0  0  0  0  0
  -28.5998  -20.4081   20.1877 C   0  0  2  0  0  0  0  0  0  0  0  0
  -25.3458  -19.2456   25.0035 C   0  0  0  0  0  0  0  0  0  0  0  0
  -23.1286  -25.6486   26.4885 C   0  0  0  0  0  0  0  0  0  0  0  0
  -24.1465  -23.5242   27.3363 C   0  0  0  0  0  0  0  0  0  0  0  0
  -21.7407  -23.5770   26.6793 C   0  0  0  0  0  0  0  0  0  0  0  0
  -31.5939  -22.4441   16.1022 C   0  0  0  0  0  0  0  0  0  0  0  0
  -23.6098  -20.2930   21.7840 C   0  0  0  0  0  0  0  0  0  0  0  0
  -30.5064  -27.5974   21.0783 C   0  0  0  0  0  0  0  0  0  0  0  0
  -32.9849  -22.9103   18.9049 C   0  0  0  0  0  0  0  0  0  0  0  0
  -31.9749  -21.8452   18.4648 C   0  0  0  0  0  0  0  0  0  0  0  0
  -29.0208  -27.3917   21.3533 C   0  0  0  0  0  0  0  0  0  1  0  0
  -23.5181  -23.6642   24.8835 C   0  0  1  0  0  0  0  0  0  0  0  0
  -24.3751  -20.0455   24.1487 C   0  0  2  0  0  0  0  0  0  0  0  0
  -32.9534  -23.2763   21.8113 C   0  0  0  0  0  0  0  0  0  0  0  0
  -23.1433  -24.1159   26.3233 C   0  0  0  0  0  0  0  0  0  0  0  0
  -31.8101  -24.9995   18.6480 N   0  0  0  0  0  0  0  0  0  0  0  0
  -26.9122  -18.6149   20.3244 N   0  0  0  0  0  0  0  0  0  0  0  0
  -28.2109  -18.9415   20.2112 N   0  0  0  0  0  0  0  0  0  0  0  0
  -23.1703  -25.0438   22.8587 N   0  0  0  0  0  0  0  0  0  0  0  0
  -29.0350  -22.3799   18.7428 N   0  0  0  0  0  0  0  0  0  0  0  0
  -30.3811  -18.0141   20.0102 N   0  0  0  0  0  0  0  0  0  0  0  0
  -27.7099  -14.3786   20.2210 N   0  0  0  0  0  0  0  0  0  0  0  0
  -20.8864  -27.7217   22.2731 N   0  0  0  0  0  0  0  0  0  0  0  0
  -23.5136  -22.2181   24.6906 N   0  0  0  0  0  0  0  0  0  0  0  0
  -31.0512  -22.3473   17.4498 N   0  0  0  0  0  0  0  0  0  0  0  0
  -24.5221  -19.6043   22.7328 N   0  3  0  0  0  0  0  0  0  0  0  0
  -29.8854  -15.0833   20.0490 O   0  0  0  0  0  0  0  0  0  0  0  0
  -23.0433  -27.6727   23.1495 O   0  0  0  0  0  0  0  0  0  0  0  0
  -21.3834  -23.9599   23.8925 O   0  0  0  0  0  0  0  0  0  0  0  0
  -25.7240  -22.0452   24.0113 O   0  0  0  0  0  0  0  0  0  0  0  0
  -29.4587  -23.9849   17.1420 O   0  0  0  0  0  0  0  0  0  0  0  0
  -22.1608  -14.3933   20.7133 O   0  0  0  0  0  0  0  0  0  0  0  0
  -28.3581  -26.9973   20.1526 O   0  0  0  0  0  0  0  0  0  1  0  0
  -22.0501  -10.0895   24.1585 F   0  0  0  0  0  0  0  0  0  0  0  0
  -23.8812  -12.2567   20.3696 F   0  0  0  0  0  0  0  0  0  0  0  0
  -32.8481  -23.6070   23.1332 F   0  0  0  0  0  0  0  0  0  0  0  0
  -32.3995  -22.0310   21.7123 F   0  0  0  0  0  0  0  0  0  0  0  0
  -34.2885  -23.1006   21.5848 F   0  0  0  0  0  0  0  0  0  0  0  0
  1  2  1  0  0  0  0
  1  5  2  0  0  0  0
  2  6  2  0  0  0  0
  3  8  2  0  0  0  0
  3 17  1  0  0  0  0
  4  9  1  0  0  0  0
  4 17  2  0  0  0  0
  5 19  1  0  0  0  0
  6 21  1  0  0  0  0
  7 10  2  0  0  0  0
  7 20  1  0  0  0  0
  8 25  1  0  0  0  0
  9 25  2  0  0  0  0
 10 26  1  0  0  0  0
 11 12  2  0  0  0  0
 11 27  1  0  0  0  0
 12 28  1  0  0  0  0
 13 22  1  0  0  0  0
 13 26  2  0  0  0  0
 14 23  2  0  0  0  0
 14 24  1  0  0  0  0
 15 28  2  0  0  0  0
 15 29  1  0  0  0  0
 16 23  1  0  0  0  0
 16 64  2  0  0  0  0
 17 30  1  0  0  0  0
 18 30  1  0  0  0  0
 18 32  2  0  0  0  0
 18 33  1  0  0  0  0
 19 21  2  0  0  0  0
 19 38  1  0  0  0  0
 20 22  2  0  0  0  0
 20 39  1  0  0  0  0
 21 47  1  0  0  0  0
 22 40  1  0  0  0  0
 23 56  1  0  0  0  0
 24 31  2  0  0  0  0
 24 62  1  0  0  0  0
 25 80  1  0  0  0  0
 26 81  1  0  0  0  0
 27 29  2  0  0  0  0
 27 80  1  0  0  0  0
 28 82  1  0  0  0  0
 29 83  1  0  0  0  0
 30 65  2  0  0  0  0
 31 57  1  0  0  0  0
 31 64  1  0  0  0  0
 32 66  1  0  0  0  0
 32 69  1  0  0  0  0
 33 70  1  0  0  0  0
 33 75  2  0  0  0  0
 34 48  1  0  0  0  0
 34 71  1  0  0  0  0
 34 76  2  0  0  0  0
 35 60  1  0  0  0  0
 35 67  1  0  0  0  0
 35 77  2  0  0  0  0
 36 61  1  0  0  0  0
 36 72  1  0  0  0  0
 36 78  2  0  0  0  0
 37 68  1  0  0  0  0
 37 73  1  0  0  0  0
 37 79  2  0  0  0  0
 38 41  1  0  0  0  0
 39 48  1  0  0  0  0
 40 67  1  0  0  0  0
 41 43  1  0  0  0  0
 42 44  1  0  0  0  0
 42 45  1  0  0  0  0
 43 47  1  0  0  0  0
 44 49  1  0  0  0  0
 45 68  1  0  0  0  0
 46 49  1  0  0  0  0
 46 68  1  0  0  0  0
 47 71  1  0  0  0  0
 48 67  1  0  0  0  0
 49 66  1  0  0  0  0
 50 61  1  0  0  0  0
 51 63  1  0  0  0  0
 52 63  1  0  0  0  0
 53 63  1  0  0  0  0
 54 73  1  0  0  0  0
 55 74  1  0  0  0  0
 56 59  1  0  0  0  0
 57 58  1  0  0  0  0
 58 73  1  0  0  0  0
 59 81  1  0  0  0  0
 60 63  1  0  0  0  0
 60 72  1  0  0  0  0
 61 74  1  0  0  0  0
 62 84  1  0  0  0  0
 62 85  1  0  0  0  0
 62 86  1  0  0  0  0
 65 66  1  0  0  0  0
M  CHG  1  74   1
M  ISO  4  37 100  59 101  73 100  81 101
M  END
> <Batch ID>
0056

> <Smiles>
CNC(C)C(=O)NC(C(=O)N1Cc2cc([101O:1][101CH2:1]Cc3cnc(CC[100N:0](C)[100C:0](=O)N4CCCC(n5nc(-c6ccc(Oc7ccc(F)cc7F)cc6)c(C(N)=O)c5N)C4)c(C(F)(F)F)c3)ccc2CC1C(=O)NC1CCCc2ccccc21)C(C)(C)C

> <Shape>
0.216

> <Color>
0.069

> <Negative vol penalty>
0.000

$$$$

  -OEChem-04052317463D

 81 89  0     1  0  0  0  0  0999 V2000
  -30.9276  -24.5622   18.1720 C   0  0  0  0  0  0  0  0  0  0  0  0
  -29.5485  -24.4411   18.3091 C   0  0  0  0  0  0  0  0  0  0  0  0
  -24.5691  -14.7283   20.7654 C   0  0  0  0  0  0  0  0  0  0  0  0
  -26.7855  -14.5483   21.7100 C   0  0  0  0  0  0  0  0  0  0  0  0
  -31.6621  -25.2695   19.1229 C   0  0  0  0  0  0  0  0  0  0  0  0
  -28.9031  -25.0263   19.3979 C   0  0  0  0  0  0  0  0  0  0  0  0
  -23.3106  -27.5214   19.4571 C   0  0  0  0  0  0  0  0  0  0  0  0
  -24.5822  -13.3641   20.4748 C   0  0  0  0  0  0  0  0  0  0  0  0
  -26.7986  -13.1841   21.4194 C   0  0  0  0  0  0  0  0  0  0  0  0
  -22.0698  -27.0330   19.8641 C   0  0  0  0  0  0  0  0  0  0  0  0
  -23.8868   -9.8583   19.8112 C   0  0  0  0  0  0  0  0  0  0  0  0
  -22.7438   -9.1193   20.1161 C   0  0  0  0  0  0  0  0  0  0  0  0
  -22.3655  -28.0892   22.0126 C   0  0  0  0  0  0  0  0  0  0  0  0
  -22.9782   -9.7177   22.4451 C   0  0  0  0  0  0  0  0  0  0  0  0
  -22.6173  -23.1311   19.9254 C   0  0  0  0  0  0  0  0  0  0  0  0
  -25.6708  -15.3204   21.3829 C   0  0  0  0  0  0  0  0  0  0  0  0
  -25.2041  -17.3430   22.8657 C   0  0  0  0  0  0  0  0  0  0  0  0
  -31.0242  -25.8718   20.2187 C   0  0  0  0  0  0  0  0  0  0  0  0
  -24.0943  -28.2896   20.3301 C   0  0  0  0  0  0  0  0  0  0  0  0
  -29.6300  -25.7411   20.3651 C   0  0  0  0  0  0  0  0  0  0  0  0
  -23.6147  -28.5884   21.6134 C   0  0  0  0  0  0  0  0  0  0  0  0
  -25.6968  -12.5920   20.8019 C   0  0  0  0  0  0  0  0  0  0  0  0
  -21.5984  -27.3144   21.1430 C   0  0  0  0  0  0  0  0  0  0  0  0
  -24.5756  -10.5269   20.8232 C   0  0  0  0  0  0  0  0  0  0  0  0
  -22.2894   -9.0491   21.4330 C   0  0  0  0  0  0  0  0  0  0  0  0
  -24.1213  -10.4567   22.1401 C   0  0  0  0  0  0  0  0  0  0  0  0
  -25.6582  -16.7297   21.6828 C   0  0  0  0  0  0  0  0  0  0  0  0
  -23.9247  -23.3123   20.3199 C   0  0  0  0  0  0  0  0  0  0  0  0
  -23.2201  -23.7611   22.4486 C   0  0  0  0  0  0  0  0  0  0  0  0
  -21.9127  -23.5802   22.0541 C   0  0  0  0  0  0  0  0  0  0  0  0
  -25.4038  -18.6855   22.6550 C   0  0  0  0  0  0  0  0  0  0  0  0
  -24.6512  -16.7522   24.0493 C   0  0  0  0  0  0  0  0  0  0  0  0
  -25.0367  -23.1682   19.3716 C   0  0  0  0  0  0  0  0  0  0  0  0
  -26.9646  -27.9522   21.6535 C   0  0  0  0  0  0  0  0  0  0  0  0
  -26.4018  -30.9669   22.7104 C   0  0  0  0  0  0  0  0  0  0  0  0
  -24.1236  -33.3824   23.4992 C   0  0  0  0  0  0  0  0  0  0  0  0
  -31.8662  -26.5861   21.2461 C   0  0  0  0  0  0  0  0  0  0  0  0
  -25.4187  -28.8315   19.8666 C   0  0  0  0  0  0  0  0  0  0  0  0
  -24.4085  -29.4256   22.5816 C   0  0  0  0  0  0  0  0  0  0  0  0
  -31.0591  -27.4943   22.1703 C   0  0  0  0  0  0  0  0  0  0  0  0
  -27.9389  -21.1201   19.0186 C   0  0  0  0  0  0  0  0  0  0  0  0
  -29.8166  -26.7700   22.6786 C   0  0  0  0  0  0  0  0  0  0  0  0
  -27.5624  -19.8363   19.7602 C   0  0  0  0  0  0  0  0  0  0  0  0
  -26.7372  -21.7292   18.3005 C   0  0  0  0  0  0  0  0  0  0  0  0
  -25.1823  -20.6808   19.9092 C   0  0  0  0  0  0  0  0  0  0  0  0
  -28.8907  -26.3828   21.5192 C   0  0  1  0  0  0  0  0  0  0  0  0
  -26.3606  -29.1721   21.0173 C   0  0  1  0  0  0  0  0  0  0  0  0
  -26.3543  -20.0622   20.6886 C   0  0  1  0  0  0  0  0  0  0  0  0
  -23.5612  -24.1142   23.8556 C   0  0  0  0  0  0  0  0  0  0  0  0
  -23.9637  -35.7295   24.3726 C   0  0  0  0  0  0  0  0  0  0  0  0
  -26.9995  -29.9570   25.5269 C   0  0  0  0  0  0  0  0  0  0  0  0
  -25.9213  -32.0308   26.4241 C   0  0  0  0  0  0  0  0  0  0  0  0
  -27.9609  -32.2045   24.9985 C   0  0  0  0  0  0  0  0  0  0  0  0
  -22.8097  -34.3371   21.0251 C   0  0  0  0  0  0  0  0  0  0  0  0
  -19.2117  -25.4465   23.1246 C   0  0  0  0  0  0  0  0  0  0  0  0
  -20.2252  -26.5640   22.9339 C   0  0  0  0  0  0  0  0  0  1  0  0
  -19.6376  -24.1665   22.4228 C   0  0  0  0  0  0  0  0  0  0  0  0
  -25.7570  -31.5671   23.9363 C   0  0  1  0  0  0  0  0  0  0  0  0
  -24.0474  -34.8535   23.1323 C   0  0  2  0  0  0  0  0  0  0  0  0
  -26.6453  -31.4224   25.2041 C   0  0  0  0  0  0  0  0  0  0  0  0
  -21.5878  -23.2617   20.7854 N   0  0  0  0  0  0  0  0  0  0  0  0
  -26.1121  -17.6102   20.7868 N   0  0  0  0  0  0  0  0  0  0  0  0
  -24.2496  -23.6305   21.5886 N   0  0  0  0  0  0  0  0  0  0  0  0
  -25.9441  -18.7905   21.4070 N   0  0  0  0  0  0  0  0  0  0  0  0
  -25.6176  -21.9063   19.2244 N   0  0  0  0  0  0  0  0  0  0  0  0
  -25.7001  -29.9272   22.0839 N   0  0  0  0  0  0  0  0  0  0  0  0
  -25.1682  -19.7745   23.4171 N   0  0  0  0  0  0  0  0  0  0  0  0
  -24.5158  -15.3581   24.0994 N   0  0  0  0  0  0  0  0  0  0  0  0
  -28.1424  -27.5347   21.0636 N   0  0  0  0  0  0  0  0  0  0  0  0
  -25.4283  -32.9459   23.5912 N   0  0  0  0  0  0  0  0  0  0  0  0
  -22.8464  -35.1157   22.2899 N   0  3  0  0  0  0  0  0  0  0  0  0
  -24.2728  -17.4413   25.0268 O   0  0  0  0  0  0  0  0  0  0  0  0
  -25.3828  -24.1900   18.7805 O   0  0  0  0  0  0  0  0  0  0  0  0
  -26.4044  -27.4293   22.6097 O   0  0  0  0  0  0  0  0  0  0  0  0
  -27.4846  -31.4093   22.3187 O   0  0  0  0  0  0  0  0  0  0  0  0
  -23.1256  -32.6907   23.6891 O   0  0  0  0  0  0  0  0  0  0  0  0
  -25.7098  -11.2608   20.5187 O   0  0  0  0  0  0  0  0  0  0  0  0
  -20.3879  -26.8383   21.5430 O   0  0  0  0  0  0  0  0  0  1  0  0
  -20.8814  -23.7204   22.9460 O   0  0  0  0  0  0  0  0  0  0  0  0
  -21.1909   -8.3407   21.7255 F   0  0  0  0  0  0  0  0  0  0  0  0
  -24.7781  -11.0979   23.1164 F   0  0  0  0  0  0  0  0  0  0  0  0
  1  2  1  0  0  0  0
  1  5  2  0  0  0  0
  2  6  2  0  0  0  0
  3  8  2  0  0  0  0
  3 16  1  0  0  0  0
  4  9  1  0  0  0  0
  4 16  2  0  0  0  0
  5 18  1  0  0  0  0
  6 20  1  0  0  0  0
  7 10  2  0  0  0  0
  7 19  1  0  0  0  0
  8 22  1  0  0  0  0
  9 22  2  0  0  0  0
 10 23  1  0  0  0  0
 11 12  2  0  0  0  0
 11 24  1  0  0  0  0
 12 25  1  0  0  0  0
 13 21  1  0  0  0  0
 13 23  2  0  0  0  0
 14 25  2  0  0  0  0
 14 26  1  0  0  0  0
 15 28  1  0  0  0  0
 15 61  2  0  0  0  0
 16 27  1  0  0  0  0
 17 27  1  0  0  0  0
 17 31  2  0  0  0  0
 17 32  1  0  0  0  0
 18 20  2  0  0  0  0
 18 37  1  0  0  0  0
 19 21  2  0  0  0  0
 19 38  1  0  0  0  0
 20 46  1  0  0  0  0
 21 39  1  0  0  0  0
 22 77  1  0  0  0  0
 23 78  1  0  0  0  0
 24 26  2  0  0  0  0
 24 77  1  0  0  0  0
 25 80  1  0  0  0  0
 26 81  1  0  0  0  0
 27 62  2  0  0  0  0
 28 33  1  0  0  0  0
 28 63  2  0  0  0  0
 29 30  2  0  0  0  0
 29 49  1  0  0  0  0
 29 63  1  0  0  0  0
 30 61  1  0  0  0  0
 30 79  1  0  0  0  0
 31 64  1  0  0  0  0
 31 67  1  0  0  0  0
 32 68  1  0  0  0  0
 32 72  2  0  0  0  0
 33 65  1  0  0  0  0
 33 73  2  0  0  0  0
 34 47  1  0  0  0  0
 34 69  1  0  0  0  0
 34 74  2  0  0  0  0
 35 58  1  0  0  0  0
 35 66  1  0  0  0  0
 35 75  2  0  0  0  0
 36 59  1  0  0  0  0
 36 70  1  0  0  0  0
 36 76  2  0  0  0  0
 37 40  1  0  0  0  0
 38 47  1  0  0  0  0
 39 66  1  0  0  0  0
 40 42  1  0  0  0  0
 41 43  1  0  0  0  0
 41 44  1  0  0  0  0
 42 46  1  0  0  0  0
 43 48  1  0  0  0  0
 44 65  1  0  0  0  0
 45 48  1  0  0  0  0
 45 65  1  0  0  0  0
 46 69  1  0  0  0  0
 47 66  1  0  0  0  0
 48 64  1  0  0  0  0
 50 59  1  0  0  0  0
 51 60  1  0  0  0  0
 52 60  1  0  0  0  0
 53 60  1  0  0  0  0
 54 71  1  0  0  0  0
 55 56  1  0  0  0  0
 55 57  1  0  0  0  0
 56 78  1  0  0  0  0
 57 79  1  0  0  0  0
 58 60  1  0  0  0  0
 58 70  1  0  0  0  0
 59 71  1  0  0  0  0
 62 64  1  0  0  0  0
M  CHG  1  71   1
M  ISO  4  28 100  33 100  56 101  78 101
M  END
> <Batch ID>
0056

> <Smiles>
CNC(C)C(=O)NC(C(=O)N1Cc2cc([101O:1][101CH2:1]CCOc3nc[100c:0]([100C:0](=O)N4CCCC(n5nc(-c6ccc(Oc7ccc(F)cc7F)cc6)c(C(N)=O)c5N)C4)nc3C)ccc2CC1C(=O)NC1CCCc2ccccc21)C(C)(C)C

> <Shape>
0.256

> <Color>
0.071

> <Negative vol penalty>
0.000

$$$$

  -OEChem-04052317463D

 86 94  0     1  0  0  0  0  0999 V2000
  -31.3328  -31.7655   26.2810 C   0  0  0  0  0  0  0  0  0  0  0  0
  -30.8801  -30.4778   26.5499 C   0  0  0  0  0  0  0  0  0  0  0  0
  -23.1919   -9.8662   19.8680 C   0  0  0  0  0  0  0  0  0  0  0  0
  -23.7919   -9.8612   22.2083 C   0  0  0  0  0  0  0  0  0  0  0  0
  -30.7614  -32.5018   25.2440 C   0  0  0  0  0  0  0  0  0  0  0  0
  -29.8549  -29.9260   25.7825 C   0  0  0  0  0  0  0  0  0  0  0  0
  -29.2162  -24.0526   24.1697 C   0  0  0  0  0  0  0  0  0  0  0  0
  -22.4558   -8.6961   20.0542 C   0  0  0  0  0  0  0  0  0  0  0  0
  -23.0558   -8.6911   22.3945 C   0  0  0  0  0  0  0  0  0  0  0  0
  -28.4482  -23.0140   24.6943 C   0  0  0  0  0  0  0  0  0  0  0  0
  -19.8105   -7.8243   22.7647 C   0  0  0  0  0  0  0  0  0  0  0  0
  -18.9757   -7.7563   23.8801 C   0  0  0  0  0  0  0  0  0  0  0  0
  -26.7350  -23.4614   23.0559 C   0  0  0  0  0  0  0  0  0  0  0  0
  -20.2021   -5.8347   24.6805 C   0  0  0  0  0  0  0  0  0  0  0  0
  -27.6253  -19.2891   21.6506 C   0  0  0  0  0  0  0  0  0  0  0  0
  -23.8600  -10.4487   20.9450 C   0  0  0  0  0  0  0  0  0  0  0  0
  -24.1587  -12.9812   20.8747 C   0  0  0  0  0  0  0  0  0  0  0  0
  -29.7352  -31.9551   24.4573 C   0  0  0  0  0  0  0  0  0  0  0  0
  -28.7438  -24.8117   23.0894 C   0  0  0  0  0  0  0  0  0  0  0  0
  -29.2683  -30.6561   24.7349 C   0  0  0  0  0  0  0  0  0  0  0  0
  -27.5001  -24.5074   22.5178 C   0  0  0  0  0  0  0  0  0  0  0  0
  -28.7851  -18.6600   21.2691 C   0  0  0  0  0  0  0  0  0  0  0  0
  -22.3878   -8.1086   21.3175 C   0  0  0  0  0  0  0  0  0  0  0  0
  -27.2061  -22.7201   24.1393 C   0  0  0  0  0  0  0  0  0  0  0  0
  -20.8410   -6.8975   22.6071 C   0  0  0  0  0  0  0  0  0  0  0  0
  -19.1715   -6.7615   24.8380 C   0  0  0  0  0  0  0  0  0  0  0  0
  -21.0368   -5.9028   23.5651 C   0  0  0  0  0  0  0  0  0  0  0  0
  -24.6210  -11.6571   20.7532 C   0  0  0  0  0  0  0  0  0  0  0  0
  -28.9989  -17.6842   22.2610 C   0  0  0  0  0  0  0  0  0  0  0  0
  -25.2580  -13.7558   20.5954 C   0  0  0  0  0  0  0  0  0  0  0  0
  -22.8523  -13.4676   21.2102 C   0  0  0  0  0  0  0  0  0  0  0  0
  -28.0201  -27.8751   22.6466 C   0  0  0  0  0  0  0  0  0  0  0  0
  -27.6340  -26.9357   19.5659 C   0  0  0  0  0  0  0  0  0  0  0  0
  -26.9907  -24.4061   17.3673 C   0  0  0  0  0  0  0  0  0  0  0  0
  -31.0822  -13.3278   21.5847 C   0  0  0  0  0  0  0  0  0  0  0  0
  -29.1161  -32.8068   23.3776 C   0  0  0  0  0  0  0  0  0  0  0  0
  -29.5961  -25.9115   22.5179 C   0  0  0  0  0  0  0  0  0  0  0  0
  -26.9566  -25.2791   21.3442 C   0  0  0  0  0  0  0  0  0  0  0  0
  -28.2908  -32.0094   22.3710 C   0  0  0  0  0  0  0  0  0  0  0  0
  -29.5335  -13.0432   18.2347 C   0  0  0  0  0  0  0  0  0  0  0  0
  -27.3691  -31.0310   23.0922 C   0  0  0  0  0  0  0  0  0  0  0  0
  -28.0805  -12.7082   18.5669 C   0  0  0  0  0  0  0  0  0  0  0  0
  -30.4903  -12.5531   19.3173 C   0  0  0  0  0  0  0  0  0  0  0  0
  -28.6995  -12.7016   21.0158 C   0  0  0  0  0  0  0  0  0  0  0  0
  -28.1751  -30.0137   23.9089 C   0  0  1  0  0  0  0  0  0  0  0  0
  -28.7906  -26.9518   21.7457 C   0  0  1  0  0  0  0  0  0  0  0  0
  -27.7052  -13.2229   19.9675 C   0  0  2  0  0  0  0  0  0  0  0  0
  -26.7233  -23.2584   15.1517 C   0  0  0  0  0  0  0  0  0  0  0  0
  -29.0165  -20.1233   19.2316 C   0  0  0  0  0  0  0  0  0  0  0  0
  -29.7279  -17.7107   19.1345 C   0  0  0  0  0  0  0  0  0  0  0  0
  -31.0981  -19.3781   20.3689 C   0  0  0  0  0  0  0  0  0  0  0  0
  -24.8501  -28.1807   19.6665 C   0  0  0  0  0  0  0  0  0  0  0  0
  -24.2764  -26.8948   17.5963 C   0  0  0  0  0  0  0  0  0  0  0  0
  -26.1017  -28.5942   17.5411 C   0  0  0  0  0  0  0  0  0  0  0  0
  -31.7952  -14.6919   23.5110 C   0  0  0  0  0  0  0  0  0  0  0  0
  -29.8608  -23.6919   17.2599 C   0  0  0  0  0  0  0  0  0  0  0  0
  -30.1057  -16.7159   22.3517 C   0  0  0  0  0  0  0  0  0  0  0  0
  -26.3119  -19.3508   25.0777 C   0  0  0  0  0  0  0  0  0  0  0  0
  -26.0058  -19.0069   23.6183 C   0  0  0  0  0  0  0  0  0  0  0  0
  -29.6545  -15.2442   22.4164 C   0  0  0  0  0  0  0  0  0  0  0  0
  -27.1540  -20.6113   25.2374 C   0  0  0  0  0  0  0  0  0  1  0  0
  -26.4827  -26.4047   18.7465 C   0  0  1  0  0  0  0  0  0  0  0  0
  -27.6797  -23.9909   16.0799 C   0  0  2  0  0  0  0  0  0  0  0  0
  -29.6110  -18.9511   20.0851 C   0  0  0  0  0  0  0  0  0  0  0  0
  -25.4368  -27.5051   18.4109 C   0  0  0  0  0  0  0  0  0  0  0  0
  -25.9133  -11.5905   20.4222 N   0  0  0  0  0  0  0  0  0  0  0  0
  -28.0510  -17.6892   23.2020 N   0  0  0  0  0  0  0  0  0  0  0  0
  -27.2304  -18.6760   22.8031 N   0  0  0  0  0  0  0  0  0  0  0  0
  -26.2724  -12.8825   20.3333 N   0  0  0  0  0  0  0  0  0  0  0  0
  -27.8244  -26.3491   20.8251 N   0  0  0  0  0  0  0  0  0  0  0  0
  -30.0859  -13.0210   20.6434 N   0  0  0  0  0  0  0  0  0  0  0  0
  -25.4462  -15.0918   20.5507 N   0  0  0  0  0  0  0  0  0  0  0  0
  -21.8380  -12.5352   21.4675 N   0  0  0  0  0  0  0  0  0  0  0  0
  -28.7274  -28.9941   23.0429 N   0  0  0  0  0  0  0  0  0  0  0  0
  -27.0751  -25.7665   17.5759 N   0  0  0  0  0  0  0  0  0  0  0  0
  -30.7898  -14.3302   22.5220 N   0  0  0  0  0  0  0  0  0  0  0  0
  -28.8300  -23.0905   16.3752 N   0  3  0  0  0  0  0  0  0  0  0  0
  -22.5881  -14.6927   21.2637 O   0  0  0  0  0  0  0  0  0  0  0  0
  -26.8688  -27.5938   22.9580 O   0  0  0  0  0  0  0  0  0  0  0  0
  -28.3427  -27.8329   19.1028 O   0  0  0  0  0  0  0  0  0  0  0  0
  -26.4303  -23.6044   18.1114 O   0  0  0  0  0  0  0  0  0  0  0  0
  -32.1747  -12.7461   21.5811 O   0  0  0  0  0  0  0  0  0  0  0  0
  -21.6694   -6.9669   21.4996 O   0  0  0  0  0  0  0  0  0  0  0  0
  -26.4542  -21.7073   24.6499 O   0  0  0  0  0  0  0  0  0  1  0  0
  -18.3708   -6.6972   25.9099 F   0  0  0  0  0  0  0  0  0  0  0  0
  -22.0259   -5.0103   23.4198 F   0  0  0  0  0  0  0  0  0  0  0  0
  1  2  1  0  0  0  0
  1  5  2  0  0  0  0
  2  6  2  0  0  0  0
  3  8  2  0  0  0  0
  3 16  1  0  0  0  0
  4  9  1  0  0  0  0
  4 16  2  0  0  0  0
  5 18  1  0  0  0  0
  6 20  1  0  0  0  0
  7 10  2  0  0  0  0
  7 19  1  0  0  0  0
  8 23  1  0  0  0  0
  9 23  2  0  0  0  0
 10 24  1  0  0  0  0
 11 12  2  0  0  0  0
 11 25  1  0  0  0  0
 12 26  1  0  0  0  0
 13 21  1  0  0  0  0
 13 24  2  0  0  0  0
 14 26  2  0  0  0  0
 14 27  1  0  0  0  0
 15 22  2  0  0  0  0
 15 68  1  0  0  0  0
 16 28  1  0  0  0  0
 17 28  1  0  0  0  0
 17 30  2  0  0  0  0
 17 31  1  0  0  0  0
 18 20  2  0  0  0  0
 18 36  1  0  0  0  0
 19 21  2  0  0  0  0
 19 37  1  0  0  0  0
 20 45  1  0  0  0  0
 21 38  1  0  0  0  0
 22 29  1  0  0  0  0
 22 64  1  0  0  0  0
 23 83  1  0  0  0  0
 24 84  1  0  0  0  0
 25 27  2  0  0  0  0
 25 83  1  0  0  0  0
 26 85  1  0  0  0  0
 27 86  1  0  0  0  0
 28 66  2  0  0  0  0
 29 57  1  0  0  0  0
 29 67  2  0  0  0  0
 30 69  1  0  0  0  0
 30 72  1  0  0  0  0
 31 73  1  0  0  0  0
 31 78  2  0  0  0  0
 32 46  1  0  0  0  0
 32 74  1  0  0  0  0
 32 79  2  0  0  0  0
 33 62  1  0  0  0  0
 33 70  1  0  0  0  0
 33 80  2  0  0  0  0
 34 63  1  0  0  0  0
 34 75  1  0  0  0  0
 34 81  2  0  0  0  0
 35 71  1  0  0  0  0
 35 76  1  0  0  0  0
 35 82  2  0  0  0  0
 36 39  1  0  0  0  0
 37 46  1  0  0  0  0
 38 70  1  0  0  0  0
 39 41  1  0  0  0  0
 40 42  1  0  0  0  0
 40 43  1  0  0  0  0
 41 45  1  0  0  0  0
 42 47  1  0  0  0  0
 43 71  1  0  0  0  0
 44 47  1  0  0  0  0
 44 71  1  0  0  0  0
 45 74  1  0  0  0  0
 46 70  1  0  0  0  0
 47 69  1  0  0  0  0
 48 63  1  0  0  0  0
 49 64  1  0  0  0  0
 50 64  1  0  0  0  0
 51 64  1  0  0  0  0
 52 65  1  0  0  0  0
 53 65  1  0  0  0  0
 54 65  1  0  0  0  0
 55 76  1  0  0  0  0
 56 77  1  0  0  0  0
 57 60  1  0  0  0  0
 58 59  1  0  0  0  0
 58 61  1  0  0  0  0
 59 68  1  0  0  0  0
 60 76  1  0  0  0  0
 61 84  1  0  0  0  0
 62 65  1  0  0  0  0
 62 75  1  0  0  0  0
 63 77  1  0  0  0  0
 66 69  1  0  0  0  0
 67 68  1  0  0  0  0
M  CHG  1  77   1
M  ISO  4  35 100  61 101  76 100  84 101
M  END
> <Batch ID>
0056

> <Smiles>
CNC(C)C(=O)NC(C(=O)N1Cc2cc([101O:1][101CH2:1]CCn3cc(C(C)(C)C)c(CC[100N:0](C)[100C:0](=O)N4CCCC(n5nc(-c6ccc(Oc7ccc(F)cc7F)cc6)c(C(N)=O)c5N)C4)n3)ccc2CC1C(=O)NC1CCCc2ccccc21)C(C)(C)C

> <Shape>
0.257

> <Color>
0.178

> <Negative vol penalty>
0.000

$$$$

  -OEChem-04052317463D

 82 90  0     1  0  0  0  0  0999 V2000
  -23.7122  -31.3283   21.4657 C   0  0  0  0  0  0  0  0  0  0  0  0
  -23.5417  -29.9476   21.4802 C   0  0  0  0  0  0  0  0  0  0  0  0
  -24.1974  -17.2501   25.3122 C   0  0  0  0  0  0  0  0  0  0  0  0
  -25.1534  -18.7050   23.6370 C   0  0  0  0  0  0  0  0  0  0  0  0
  -24.9008  -31.8777   20.9868 C   0  0  0  0  0  0  0  0  0  0  0  0
  -24.5594  -29.1157   21.0147 C   0  0  0  0  0  0  0  0  0  0  0  0
  -27.4693  -22.6723   22.1688 C   0  0  0  0  0  0  0  0  0  0  0  0
  -24.5383  -18.1689   26.3048 C   0  0  0  0  0  0  0  0  0  0  0  0
  -25.4943  -19.6238   24.6296 C   0  0  0  0  0  0  0  0  0  0  0  0
  -27.8215  -21.5110   21.4824 C   0  0  0  0  0  0  0  0  0  0  0  0
  -26.9383  -22.1888   26.7616 C   0  0  0  0  0  0  0  0  0  0  0  0
  -28.2147  -22.7494   26.7155 C   0  0  0  0  0  0  0  0  0  0  0  0
  -29.8626  -22.5690   20.7518 C   0  0  0  0  0  0  0  0  0  0  0  0
  -29.1889  -20.5479   26.9194 C   0  0  0  0  0  0  0  0  0  0  0  0
  -24.5050  -17.5181   23.9783 C   0  0  0  0  0  0  0  0  0  0  0  0
  -22.9528  -16.5149   22.2200 C   0  0  0  0  0  0  0  0  0  0  0  0
  -25.9373  -31.0517   20.5242 C   0  0  0  0  0  0  0  0  0  0  0  0
  -28.3074  -23.7963   22.1428 C   0  0  0  0  0  0  0  0  0  0  0  0
  -25.7624  -29.6546   20.5279 C   0  0  0  0  0  0  0  0  0  0  0  0
  -29.5200  -23.7425   21.4408 C   0  0  0  0  0  0  0  0  0  0  0  0
  -25.1867  -19.3558   25.9635 C   0  0  0  0  0  0  0  0  0  0  0  0
  -29.0169  -21.4602   20.7714 C   0  0  0  0  0  0  0  0  0  0  0  0
  -26.7871  -20.8078   26.8868 C   0  0  0  0  0  0  0  0  0  0  0  0
  -29.3400  -21.9289   26.7943 C   0  0  0  0  0  0  0  0  0  0  0  0
  -27.9125  -19.9873   26.9656 C   0  0  0  0  0  0  0  0  0  0  0  0
  -24.1537  -16.5691   22.9526 C   0  0  0  0  0  0  0  0  0  0  0  0
  -23.1126  -15.4416   21.3778 C   0  0  0  0  0  0  0  0  0  0  0  0
  -29.0225  -18.0763   19.3943 C   0  0  0  0  0  0  0  0  0  0  0  0
  -29.1974  -16.5717   17.9581 C   0  0  0  0  0  0  0  0  0  0  0  0
  -21.7964  -17.3592   22.2939 C   0  0  0  0  0  0  0  0  0  0  0  0
  -28.0191  -26.7856   21.1011 C   0  0  0  0  0  0  0  0  0  0  0  0
  -30.9263  -27.1391   22.4960 C   0  0  0  0  0  0  0  0  0  0  0  0
  -33.8179  -25.6834   23.5759 C   0  0  0  0  0  0  0  0  0  0  0  0
  -27.9403  -12.7251   19.1054 C   0  0  0  0  0  0  0  0  0  0  0  0
  -27.1854  -31.6935   19.9719 C   0  0  0  0  0  0  0  0  0  0  0  0
  -27.9258  -25.0323   22.9103 C   0  0  0  0  0  0  0  0  0  0  0  0
  -30.4643  -24.9150   21.3981 C   0  0  0  0  0  0  0  0  0  0  0  0
  -28.3615  -30.7286   19.8452 C   0  0  0  0  0  0  0  0  0  0  0  0
  -25.3665  -11.2332   21.0615 C   0  0  0  0  0  0  0  0  0  0  0  0
  -27.9127  -29.4220   19.1984 C   0  0  0  0  0  0  0  0  0  0  0  0
  -24.6554  -12.4267   21.7019 C   0  0  0  0  0  0  0  0  0  0  0  0
  -26.8718  -11.4657   20.9517 C   0  0  0  0  0  0  0  0  0  0  0  0
  -26.5463  -13.9082   20.9091 C   0  0  0  0  0  0  0  0  0  0  0  0
  -26.8528  -28.7182   20.0545 C   0  0  1  0  0  0  0  0  0  0  0  0
  -28.6105  -26.2930   22.3916 C   0  0  1  0  0  0  0  0  0  0  0  0
  -25.0190  -13.7438   20.9903 C   0  0  2  0  0  0  0  0  0  0  0  0
  -36.0234  -26.2345   24.6386 C   0  0  0  0  0  0  0  0  0  0  0  0
  -30.1311  -15.6611   15.7231 C   0  0  0  0  0  0  0  0  0  0  0  0
  -27.6866  -15.9108   16.0664 C   0  0  0  0  0  0  0  0  0  0  0  0
  -31.9299  -28.2434   19.8345 C   0  0  0  0  0  0  0  0  0  0  0  0
  -34.2704  -27.8795   20.6457 C   0  0  0  0  0  0  0  0  0  0  0  0
  -32.7662  -29.4625   21.8517 C   0  0  0  0  0  0  0  0  0  0  0  0
  -31.4278  -15.6872   18.7368 C   0  0  0  0  0  0  0  0  0  0  0  0
  -33.2409  -23.9829   25.9284 C   0  0  0  0  0  0  0  0  0  0  0  0
  -28.4539  -19.2300   20.1670 C   0  0  0  0  0  0  0  0  0  1  0  0
  -28.9362  -14.1211   17.3114 C   0  0  0  0  0  0  0  0  0  0  0  0
  -32.3568  -26.9749   22.0424 C   0  0  1  0  0  0  0  0  0  0  0  0
  -34.5833  -25.8102   24.8807 C   0  0  2  0  0  0  0  0  0  0  0  0
  -29.0215  -15.6252   16.8420 C   0  0  0  0  0  0  0  0  0  0  0  0
  -32.8123  -28.1185   21.0926 C   0  0  0  0  0  0  0  0  0  0  0  0
  -25.0128  -15.6067   22.6065 N   0  0  0  0  0  0  0  0  0  0  0  0
  -28.3746  -17.5265   18.3253 N   0  0  0  0  0  0  0  0  0  0  0  0
  -30.1943  -17.5218   19.7115 N   0  0  0  0  0  0  0  0  0  0  0  0
  -24.3510  -14.9377   21.6471 N   0  0  0  0  0  0  0  0  0  0  0  0
  -30.2826  -16.5623   18.7779 N   0  0  0  0  0  0  0  0  0  0  0  0
  -30.0438  -26.1030   22.1593 N   0  0  0  0  0  0  0  0  0  0  0  0
  -27.1487  -12.7301   20.2658 N   0  0  0  0  0  0  0  0  0  0  0  0
  -22.3130  -14.8893   20.4408 N   0  0  0  0  0  0  0  0  0  0  0  0
  -21.7986  -18.4162   23.2143 N   0  0  0  0  0  0  0  0  0  0  0  0
  -27.4727  -28.0524   21.1800 N   0  0  0  0  0  0  0  0  0  0  0  0
  -33.1579  -26.8508   23.2554 N   0  0  0  0  0  0  0  0  0  0  0  0
  -28.1487  -13.9650   18.5140 N   0  0  0  0  0  0  0  0  0  0  0  0
  -34.5925  -24.5075   25.6046 N   0  3  0  0  0  0  0  0  0  0  0  0
  -20.7843  -17.1716   21.5770 O   0  0  0  0  0  0  0  0  0  0  0  0
  -28.0571  -26.0700   20.1071 O   0  0  0  0  0  0  0  0  0  0  0  0
  -30.6053  -28.1462   23.1320 O   0  0  0  0  0  0  0  0  0  0  0  0
  -33.8096  -24.6530   22.9060 O   0  0  0  0  0  0  0  0  0  0  0  0
  -28.4211  -11.6914   18.6287 O   0  0  0  0  0  0  0  0  0  0  0  0
  -25.5193  -20.2527   26.9317 O   0  0  0  0  0  0  0  0  0  0  0  0
  -29.3628  -20.3281   20.1001 O   0  0  0  0  0  0  0  0  0  1  0  0
  -30.5657  -22.4672   26.7484 F   0  0  0  0  0  0  0  0  0  0  0  0
  -27.7736  -18.6598   27.0848 F   0  0  0  0  0  0  0  0  0  0  0  0
  1  2  1  0  0  0  0
  1  5  2  0  0  0  0
  2  6  2  0  0  0  0
  3  8  2  0  0  0  0
  3 15  1  0  0  0  0
  4  9  1  0  0  0  0
  4 15  2  0  0  0  0
  5 17  1  0  0  0  0
  6 19  1  0  0  0  0
  7 10  2  0  0  0  0
  7 18  1  0  0  0  0
  8 21  1  0  0  0  0
  9 21  2  0  0  0  0
 10 22  1  0  0  0  0
 11 12  2  0  0  0  0
 11 23  1  0  0  0  0
 12 24  1  0  0  0  0
 13 20  1  0  0  0  0
 13 22  2  0  0  0  0
 14 24  2  0  0  0  0
 14 25  1  0  0  0  0
 15 26  1  0  0  0  0
 16 26  1  0  0  0  0
 16 27  2  0  0  0  0
 16 30  1  0  0  0  0
 17 19  2  0  0  0  0
 17 35  1  0  0  0  0
 18 20  2  0  0  0  0
 18 36  1  0  0  0  0
 19 44  1  0  0  0  0
 20 37  1  0  0  0  0
 21 79  1  0  0  0  0
 22 80  1  0  0  0  0
 23 25  2  0  0  0  0
 23 79  1  0  0  0  0
 24 81  1  0  0  0  0
 25 82  1  0  0  0  0
 26 61  2  0  0  0  0
 27 64  1  0  0  0  0
 27 68  1  0  0  0  0
 28 55  1  0  0  0  0
 28 62  1  0  0  0  0
 28 63  2  0  0  0  0
 29 59  1  0  0  0  0
 29 62  2  0  0  0  0
 29 65  1  0  0  0  0
 30 69  1  0  0  0  0
 30 74  2  0  0  0  0
 31 45  1  0  0  0  0
 31 70  1  0  0  0  0
 31 75  2  0  0  0  0
 32 57  1  0  0  0  0
 32 66  1  0  0  0  0
 32 76  2  0  0  0  0
 33 58  1  0  0  0  0
 33 71  1  0  0  0  0
 33 77  2  0  0  0  0
 34 67  1  0  0  0  0
 34 72  1  0  0  0  0
 34 78  2  0  0  0  0
 35 38  1  0  0  0  0
 36 45  1  0  0  0  0
 37 66  1  0  0  0  0
 38 40  1  0  0  0  0
 39 41  1  0  0  0  0
 39 42  1  0  0  0  0
 40 44  1  0  0  0  0
 41 46  1  0  0  0  0
 42 67  1  0  0  0  0
 43 46  1  0  0  0  0
 43 67  1  0  0  0  0
 44 70  1  0  0  0  0
 45 66  1  0  0  0  0
 46 64  1  0  0  0  0
 47 58  1  0  0  0  0
 48 59  1  0  0  0  0
 49 59  1  0  0  0  0
 50 60  1  0  0  0  0
 51 60  1  0  0  0  0
 52 60  1  0  0  0  0
 53 65  1  0  0  0  0
 54 73  1  0  0  0  0
 55 80  1  0  0  0  0
 56 59  1  0  0  0  0
 56 72  1  0  0  0  0
 57 60  1  0  0  0  0
 57 71  1  0  0  0  0
 58 73  1  0  0  0  0
 61 64  1  0  0  0  0
 63 65  1  0  0  0  0
M  CHG  1  73   1
M  ISO  4  34 100  55 101  72 100  80 101
M  END
> <Batch ID>
0056

> <Smiles>
CNC(C)C(=O)NC(C(=O)N1Cc2cc([101O:1][101CH2:1]c3nc(C(C)(C)C[100NH:0][100C:0](=O)N4CCCC(n5nc(-c6ccc(Oc7ccc(F)cc7F)cc6)c(C(N)=O)c5N)C4)n(C)n3)ccc2CC1C(=O)NC1CCCc2ccccc21)C(C)(C)C

> <Shape>
0.176

> <Color>
0.091

> <Negative vol penalty>
0.000

$$$$

  -OEChem-04052317463D

 83 91  0     1  0  0  0  0  0999 V2000
  -22.1513  -23.2296   16.9697 C   0  0  0  0  0  0  0  0  0  0  0  0
  -23.3727  -22.6650   17.3228 C   0  0  0  0  0  0  0  0  0  0  0  0
  -25.7304  -27.5547   19.3965 C   0  0  0  0  0  0  0  0  0  0  0  0
  -25.6151  -26.0647   21.2948 C   0  0  0  0  0  0  0  0  0  0  0  0
  -20.9817  -22.8094   17.6017 C   0  0  0  0  0  0  0  0  0  0  0  0
  -23.4254  -21.6805   18.3090 C   0  0  0  0  0  0  0  0  0  0  0  0
  -26.3847  -17.7828   17.0069 C   0  0  0  0  0  0  0  0  0  0  0  0
  -24.3611  -27.3925   19.1859 C   0  0  0  0  0  0  0  0  0  0  0  0
  -24.2458  -25.9025   21.0843 C   0  0  0  0  0  0  0  0  0  0  0  0
  -27.7623  -17.9627   17.1231 C   0  0  0  0  0  0  0  0  0  0  0  0
  -20.6525  -25.3793   21.2655 C   0  0  0  0  0  0  0  0  0  0  0  0
  -19.8126  -25.4438   22.3772 C   0  0  0  0  0  0  0  0  0  0  0  0
  -27.7362  -16.7648   19.2168 C   0  0  0  0  0  0  0  0  0  0  0  0
  -20.5670  -27.6966   22.8164 C   0  0  0  0  0  0  0  0  0  0  0  0
  -26.3574  -26.8908   20.4509 C   0  0  0  0  0  0  0  0  0  0  0  0
  -28.4000  -28.0297   21.4700 C   0  0  0  0  0  0  0  0  0  0  0  0
  -21.0189  -21.8124   18.5893 C   0  0  0  0  0  0  0  0  0  0  0  0
  -25.6696  -17.1008   18.0019 C   0  0  0  0  0  0  0  0  0  0  0  0
  -22.2554  -21.2476   18.9557 C   0  0  0  0  0  0  0  0  0  0  0  0
  -26.3499  -16.5753   19.1096 C   0  0  0  0  0  0  0  0  0  0  0  0
  -23.6188  -26.5664   20.0298 C   0  0  0  0  0  0  0  0  0  0  0  0
  -28.4379  -17.4562   18.2295 C   0  0  0  0  0  0  0  0  0  0  0  0
  -21.4498  -26.4734   20.9293 C   0  0  0  0  0  0  0  0  0  0  0  0
  -19.7698  -26.6025   23.1527 C   0  0  0  0  0  0  0  0  0  0  0  0
  -21.4070  -27.6320   21.7047 C   0  0  0  0  0  0  0  0  0  0  0  0
  -27.7720  -27.0576   20.6686 C   0  0  0  0  0  0  0  0  0  0  0  0
  -29.7416  -27.7641   21.3441 C   0  0  0  0  0  0  0  0  0  0  0  0
  -28.6258  -21.4905   20.8661 C   0  0  0  0  0  0  0  0  0  0  0  0
  -30.6940  -21.7685   20.9151 C   0  0  0  0  0  0  0  0  0  0  0  0
  -27.8222  -29.0790   22.2580 C   0  0  0  0  0  0  0  0  0  0  0  0
  -23.3255  -17.8705   20.0061 C   0  0  0  0  0  0  0  0  0  0  0  0
  -23.4281  -14.7089   20.7244 C   0  0  0  0  0  0  0  0  0  0  0  0
  -32.7221  -22.7412   19.9302 C   0  0  0  0  0  0  0  0  0  0  0  0
  -25.2289  -11.8108   20.7952 C   0  0  0  0  0  0  0  0  0  0  0  0
  -19.7343  -21.4245   19.2779 C   0  0  0  0  0  0  0  0  0  0  0  0
  -24.1879  -16.8919   17.8486 C   0  0  0  0  0  0  0  0  0  0  0  0
  -25.6315  -15.8180   20.1954 C   0  0  0  0  0  0  0  0  0  0  0  0
  -19.8290  -20.1098   20.0479 C   0  0  0  0  0  0  0  0  0  0  0  0
  -32.9335  -25.9263   18.3022 C   0  0  0  0  0  0  0  0  0  0  0  0
  -21.1012  -20.0741   20.8887 C   0  0  0  0  0  0  0  0  0  0  0  0
  -31.6763  -26.6552   18.7749 C   0  0  0  0  0  0  0  0  0  0  0  0
  -32.6800  -24.4323   18.1267 C   0  0  0  0  0  0  0  0  0  0  0  0
  -30.8767  -24.4886   19.8198 C   0  0  0  0  0  0  0  0  0  0  0  0
  -22.3503  -20.1596   20.0033 C   0  0  1  0  0  0  0  0  0  0  0  0
  -23.4813  -16.6286   19.1748 C   0  0  1  0  0  0  0  0  0  0  0  0
  -31.0975  -25.9958   20.0392 C   0  0  2  0  0  0  0  0  0  0  0  0
  -27.2028  -21.6595   21.1829 C   0  0  0  0  0  0  0  0  0  0  0  0
  -25.0565   -9.4005   21.4717 C   0  0  0  0  0  0  0  0  0  0  0  0
  -32.2660  -23.3848   22.1894 C   0  0  0  0  0  0  0  0  0  0  0  0
  -23.7280  -15.5118   23.6527 C   0  0  0  0  0  0  0  0  0  0  0  0
  -24.4924  -13.1785   24.1419 C   0  0  0  0  0  0  0  0  0  0  0  0
  -22.1956  -13.5762   23.2535 C   0  0  0  0  0  0  0  0  0  0  0  0
  -25.6980  -10.8796   18.0254 C   0  0  0  0  0  0  0  0  0  0  0  0
  -31.5634  -18.5894   19.6364 C   0  0  0  0  0  0  0  0  0  0  0  0
  -31.2993  -20.0076   19.1256 C   0  0  0  0  0  0  0  0  0  0  0  0
  -33.0139  -21.0268   21.6482 C   0  0  0  0  0  0  0  0  0  0  0  0
  -30.3146  -17.7160   19.6670 C   0  0  0  0  0  0  0  0  0  1  0  0
  -24.1848  -13.8626   21.7195 C   0  0  1  0  0  0  0  0  0  0  0  0
  -24.8898  -10.4028   20.3402 C   0  0  2  0  0  0  0  0  0  0  0  0
  -32.0788  -22.1975   21.1810 C   0  0  1  0  0  0  0  0  0  0  0  0
  -23.6637  -14.0482   23.1726 C   0  0  0  0  0  0  0  0  0  0  0  0
  -28.6431  -26.2358   20.0771 N   0  0  0  0  0  0  0  0  0  0  0  0
  -29.6002  -22.2240   21.4803 N   0  0  0  0  0  0  0  0  0  0  0  0
  -29.0479  -20.6097   19.9565 N   0  0  0  0  0  0  0  0  0  0  0  0
  -29.8322  -26.6910   20.5071 N   0  0  0  0  0  0  0  0  0  0  0  0
  -30.3740  -20.8076   20.0073 N   0  0  0  0  0  0  0  0  0  0  0  0
  -24.1821  -15.6454   20.0032 N   0  0  0  0  0  0  0  0  0  0  0  0
  -32.1095  -23.8477   19.3416 N   0  0  0  0  0  0  0  0  0  0  0  0
  -30.8409  -28.3461   21.8686 N   0  0  0  0  0  0  0  0  0  0  0  0
  -26.4269  -29.2105   22.2755 N   0  0  0  0  0  0  0  0  0  0  0  0
  -22.6180  -18.8802   19.3820 N   0  0  0  0  0  0  0  0  0  0  0  0
  -24.1104  -12.4908   21.2286 N   0  0  0  0  0  0  0  0  0  0  0  0
  -32.5142  -20.4192   22.9080 N   0  3  0  0  0  0  0  0  0  0  0  0
  -25.7779   -9.9939   19.2155 N   0  3  0  0  0  0  0  0  0  0  0  0
  -28.5232  -29.8866   22.9136 O   0  0  0  0  0  0  0  0  0  0  0  0
  -23.8100  -17.9093   21.1310 O   0  0  0  0  0  0  0  0  0  0  0  0
  -22.2139  -14.5401   20.5868 O   0  0  0  0  0  0  0  0  0  0  0  0
  -33.7404  -22.1991   19.4925 O   0  0  0  0  0  0  0  0  0  0  0  0
  -26.3723  -12.2611   20.7721 O   0  0  0  0  0  0  0  0  0  0  0  0
  -22.2826  -26.4080   19.8248 O   0  0  0  0  0  0  0  0  0  0  0  0
  -29.7824  -17.6309   18.3457 O   0  0  0  0  0  0  0  0  0  1  0  0
  -18.9620  -26.6649   24.2193 F   0  0  0  0  0  0  0  0  0  0  0  0
  -22.1698  -28.6868   21.3860 F   0  0  0  0  0  0  0  0  0  0  0  0
  1  2  1  0  0  0  0
  1  5  2  0  0  0  0
  2  6  2  0  0  0  0
  3  8  2  0  0  0  0
  3 15  1  0  0  0  0
  4  9  1  0  0  0  0
  4 15  2  0  0  0  0
  5 17  1  0  0  0  0
  6 19  1  0  0  0  0
  7 10  2  0  0  0  0
  7 18  1  0  0  0  0
  8 21  1  0  0  0  0
  9 21  2  0  0  0  0
 10 22  1  0  0  0  0
 11 12  2  0  0  0  0
 11 23  1  0  0  0  0
 12 24  1  0  0  0  0
 13 20  1  0  0  0  0
 13 22  2  0  0  0  0
 14 24  2  0  0  0  0
 14 25  1  0  0  0  0
 15 26  1  0  0  0  0
 16 26  1  0  0  0  0
 16 27  2  0  0  0  0
 16 30  1  0  0  0  0
 17 19  2  0  0  0  0
 17 35  1  0  0  0  0
 18 20  2  0  0  0  0
 18 36  1  0  0  0  0
 19 44  1  0  0  0  0
 20 37  1  0  0  0  0
 21 80  1  0  0  0  0
 22 81  1  0  0  0  0
 23 25  2  0  0  0  0
 23 80  1  0  0  0  0
 24 82  1  0  0  0  0
 25 83  1  0  0  0  0
 26 62  2  0  0  0  0
 27 65  1  0  0  0  0
 27 69  1  0  0  0  0
 28 47  1  0  0  0  0
 28 63  1  0  0  0  0
 28 64  2  0  0  0  0
 29 60  1  0  0  0  0
 29 63  2  0  0  0  0
 29 66  1  0  0  0  0
 30 70  1  0  0  0  0
 30 75  2  0  0  0  0
 31 45  1  0  0  0  0
 31 71  1  0  0  0  0
 31 76  2  0  0  0  0
 32 58  1  0  0  0  0
 32 67  1  0  0  0  0
 32 77  2  0  0  0  0
 33 60  1  0  0  0  0
 33 68  1  0  0  0  0
 33 78  2  0  0  0  0
 34 59  1  0  0  0  0
 34 72  1  0  0  0  0
 34 79  2  0  0  0  0
 35 38  1  0  0  0  0
 36 45  1  0  0  0  0
 37 67  1  0  0  0  0
 38 40  1  0  0  0  0
 39 41  1  0  0  0  0
 39 42  1  0  0  0  0
 40 44  1  0  0  0  0
 41 46  1  0  0  0  0
 42 68  1  0  0  0  0
 43 46  1  0  0  0  0
 43 68  1  0  0  0  0
 44 71  1  0  0  0  0
 45 67  1  0  0  0  0
 46 65  1  0  0  0  0
 48 59  1  0  0  0  0
 49 60  1  0  0  0  0
 50 61  1  0  0  0  0
 51 61  1  0  0  0  0
 52 61  1  0  0  0  0
 53 74  1  0  0  0  0
 54 55  1  0  0  0  0
 54 57  1  0  0  0  0
 55 66  1  0  0  0  0
 56 60  1  0  0  0  0
 56 73  1  0  0  0  0
 57 81  1  0  0  0  0
 58 61  1  0  0  0  0
 58 72  1  0  0  0  0
 59 74  1  0  0  0  0
 62 65  1  0  0  0  0
 64 66  1  0  0  0  0
M  CHG  2  73   1  74   1
M  ISO  4  33 100  57 101  60 100  81 101
M  END
> <Batch ID>
0056

> <Smiles>
CNC(C)C(=O)NC(C(=O)N1Cc2cc([101O:1][101CH2:1]CCn3nc(C)nc3[100C:0](C)(CN)[100C:0](=O)N3CCCC(n4nc(-c5ccc(Oc6ccc(F)cc6F)cc5)c(C(N)=O)c4N)C3)ccc2CC1C(=O)NC1CCCc2ccccc21)C(C)(C)C

> <Shape>
0.201

> <Color>
0.060

> <Negative vol penalty>
0.000

$$$$

  -OEChem-04052317463D

 82 90  0     1  0  0  0  0  0999 V2000
  -18.1631  -29.2886   24.1519 C   0  0  0  0  0  0  0  0  0  0  0  0
  -19.5428  -29.3190   23.9762 C   0  0  0  0  0  0  0  0  0  0  0  0
  -26.8605  -13.3619   20.8161 C   0  0  0  0  0  0  0  0  0  0  0  0
  -27.2996  -13.1064   18.4541 C   0  0  0  0  0  0  0  0  0  0  0  0
  -17.4302  -28.1853   23.7165 C   0  0  0  0  0  0  0  0  0  0  0  0
  -20.1906  -28.2455   23.3661 C   0  0  0  0  0  0  0  0  0  0  0  0
  -25.0963  -28.5025   19.7090 C   0  0  0  0  0  0  0  0  0  0  0  0
  -26.1811  -12.1438   20.8215 C   0  0  0  0  0  0  0  0  0  0  0  0
  -26.6202  -11.8882   18.4595 C   0  0  0  0  0  0  0  0  0  0  0  0
  -26.4545  -28.2953   19.9456 C   0  0  0  0  0  0  0  0  0  0  0  0
  -23.1347  -10.9873   19.9235 C   0  0  0  0  0  0  0  0  0  0  0  0
  -21.9138  -10.9300   20.5957 C   0  0  0  0  0  0  0  0  0  0  0  0
  -26.2332  -26.0167   19.1853 C   0  0  0  0  0  0  0  0  0  0  0  0
  -22.7966   -9.2172   22.0532 C   0  0  0  0  0  0  0  0  0  0  0  0
  -30.0932  -22.4173   19.7853 C   0  0  0  0  0  0  0  0  0  0  0  0
  -27.4197  -13.8433   19.6323 C   0  0  0  0  0  0  0  0  0  0  0  0
  -29.4938  -15.3113   19.8582 C   0  0  0  0  0  0  0  0  0  0  0  0
  -18.0682  -27.1020   23.0920 C   0  0  0  0  0  0  0  0  0  0  0  0
  -24.2927  -27.4634   19.2182 C   0  0  0  0  0  0  0  0  0  0  0  0
  -19.4658  -27.1260   22.9232 C   0  0  0  0  0  0  0  0  0  0  0  0
  -24.8656  -26.2140   18.9408 C   0  0  0  0  0  0  0  0  0  0  0  0
  -26.0609  -11.4069   19.6433 C   0  0  0  0  0  0  0  0  0  0  0  0
  -27.0226  -27.0514   19.6865 C   0  0  0  0  0  0  0  0  0  0  0  0
  -24.1865  -10.1595   20.3162 C   0  0  0  0  0  0  0  0  0  0  0  0
  -21.7447  -10.0450   21.6605 C   0  0  0  0  0  0  0  0  0  0  0  0
  -24.0174   -9.2745   21.3810 C   0  0  0  0  0  0  0  0  0  0  0  0
  -28.1212  -15.1019   19.6259 C   0  0  0  0  0  0  0  0  0  0  0  0
  -30.9736  -21.8860   18.8238 C   0  0  0  0  0  0  0  0  0  0  0  0
  -30.8487  -23.3359   20.4723 C   0  0  0  0  0  0  0  0  0  0  0  0
  -29.6585  -16.6698   19.7410 C   0  0  0  0  0  0  0  0  0  0  0  0
  -30.5275  -14.3626   20.1534 C   0  0  0  0  0  0  0  0  0  0  0  0
  -21.7580  -25.8831   20.3052 C   0  0  0  0  0  0  0  0  0  0  0  0
  -21.8145  -24.5420   17.3521 C   0  0  0  0  0  0  0  0  0  0  0  0
  -23.6225  -23.7250   14.5753 C   0  0  0  0  0  0  0  0  0  0  0  0
  -28.4938  -21.2766   16.6205 C   0  0  0  0  0  0  0  0  0  0  0  0
  -17.2398  -25.9106   22.6807 C   0  0  0  0  0  0  0  0  0  0  0  0
  -22.8348  -27.7108   18.9430 C   0  0  0  0  0  0  0  0  0  0  0  0
  -24.0505  -25.0716   18.3941 C   0  0  0  0  0  0  0  0  0  0  0  0
  -17.9551  -24.9787   21.7060 C   0  0  0  0  0  0  0  0  0  0  0  0
  -26.2702  -20.4019   19.4476 C   0  0  0  0  0  0  0  0  0  0  0  0
  -19.3777  -24.6998   22.1805 C   0  0  0  0  0  0  0  0  0  0  0  0
  -26.6245  -18.9391   19.7097 C   0  0  0  0  0  0  0  0  0  0  0  0
  -26.4990  -20.7884   17.9895 C   0  0  0  0  0  0  0  0  0  0  0  0
  -28.2277  -19.0353   17.7600 C   0  0  0  0  0  0  0  0  0  0  0  0
  -20.2015  -25.9917   22.2434 C   0  0  1  0  0  0  0  0  0  0  0  0
  -22.0040  -26.4314   18.9281 C   0  0  1  0  0  0  0  0  0  0  0  0
  -28.0526  -18.6260   19.2302 C   0  0  2  0  0  0  0  0  0  0  0  0
  -23.4036  -22.6005   12.3426 C   0  0  0  0  0  0  0  0  0  0  0  0
  -21.8205  -21.8177   18.7263 C   0  0  0  0  0  0  0  0  0  0  0  0
  -22.5517  -20.8030   16.5575 C   0  0  0  0  0  0  0  0  0  0  0  0
  -20.3497  -21.9653   16.7091 C   0  0  0  0  0  0  0  0  0  0  0  0
  -33.2378  -24.0898   20.2769 C   0  0  0  0  0  0  0  0  0  0  0  0
  -30.6049  -22.2172   15.7615 C   0  0  0  0  0  0  0  0  0  0  0  0
  -24.3674  -26.1965   13.1276 C   0  0  0  0  0  0  0  0  0  0  0  0
  -30.6836  -20.8529   17.8153 C   0  0  0  0  0  0  0  0  0  0  0  0
  -30.4977  -24.2449   21.6230 C   0  0  0  0  0  0  0  0  0  0  0  0
  -29.9663  -25.6123   21.1878 C   0  0  0  0  0  0  0  0  0  0  0  0
  -28.7477  -25.5243   20.2764 C   0  0  0  0  0  0  0  0  0  1  0  0
  -22.4770  -23.3313   16.7403 C   0  0  1  0  0  0  0  0  0  0  0  0
  -23.3406  -23.9198   13.0965 C   0  0  2  0  0  0  0  0  0  0  0  0
  -21.8150  -22.0001   17.1954 C   0  0  0  0  0  0  0  0  0  0  0  0
  -27.4609  -16.2365   19.3799 N   0  0  0  0  0  0  0  0  0  0  0  0
  -32.1949  -22.4226   18.8907 N   0  0  0  0  0  0  0  0  0  0  0  0
  -32.0873  -23.3006   19.9025 N   0  0  0  0  0  0  0  0  0  0  0  0
  -28.4227  -17.1720   19.4570 N   0  0  0  0  0  0  0  0  0  0  0  0
  -22.6282  -25.3612   18.1476 N   0  0  0  0  0  0  0  0  0  0  0  0
  -27.8499  -20.4405   17.5474 N   0  0  0  0  0  0  0  0  0  0  0  0
  -30.7385  -17.4718   19.8543 N   0  0  0  0  0  0  0  0  0  0  0  0
  -30.1852  -13.0060   20.2373 N   0  0  0  0  0  0  0  0  0  0  0  0
  -20.6255  -26.3858   20.9170 N   0  0  0  0  0  0  0  0  0  0  0  0
  -22.4617  -23.5433   15.2970 N   0  0  0  0  0  0  0  0  0  0  0  0
  -29.8928  -21.3547   16.6937 N   0  0  0  0  0  0  0  0  0  0  0  0
  -24.3375  -24.8515   12.4974 N   0  3  0  0  0  0  0  0  0  0  0  0
  -31.7162  -14.7093   20.3536 O   0  0  0  0  0  0  0  0  0  0  0  0
  -22.5370  -25.0633   20.7772 O   0  0  0  0  0  0  0  0  0  0  0  0
  -20.6210  -24.7569   17.1266 O   0  0  0  0  0  0  0  0  0  0  0  0
  -24.7591  -23.7296   15.0430 O   0  0  0  0  0  0  0  0  0  0  0  0
  -27.8539  -21.9241   15.7819 O   0  0  0  0  0  0  0  0  0  0  0  0
  -25.3982  -10.2180   19.6483 O   0  0  0  0  0  0  0  0  0  0  0  0
  -28.3479  -26.8463   19.9172 O   0  0  0  0  0  0  0  0  0  1  0  0
  -20.5728   -9.9912   22.3069 F   0  0  0  0  0  0  0  0  0  0  0  0
  -25.0246   -8.4776   21.7635 F   0  0  0  0  0  0  0  0  0  0  0  0
  1  2  1  0  0  0  0
  1  5  2  0  0  0  0
  2  6  2  0  0  0  0
  3  8  2  0  0  0  0
  3 16  1  0  0  0  0
  4  9  1  0  0  0  0
  4 16  2  0  0  0  0
  5 18  1  0  0  0  0
  6 20  1  0  0  0  0
  7 10  2  0  0  0  0
  7 19  1  0  0  0  0
  8 22  1  0  0  0  0
  9 22  2  0  0  0  0
 10 23  1  0  0  0  0
 11 12  2  0  0  0  0
 11 24  1  0  0  0  0
 12 25  1  0  0  0  0
 13 21  1  0  0  0  0
 13 23  2  0  0  0  0
 14 25  2  0  0  0  0
 14 26  1  0  0  0  0
 15 28  1  0  0  0  0
 15 29  2  0  0  0  0
 16 27  1  0  0  0  0
 17 27  1  0  0  0  0
 17 30  2  0  0  0  0
 17 31  1  0  0  0  0
 18 20  2  0  0  0  0
 18 36  1  0  0  0  0
 19 21  2  0  0  0  0
 19 37  1  0  0  0  0
 20 45  1  0  0  0  0
 21 38  1  0  0  0  0
 22 79  1  0  0  0  0
 23 80  1  0  0  0  0
 24 26  2  0  0  0  0
 24 79  1  0  0  0  0
 25 81  1  0  0  0  0
 26 82  1  0  0  0  0
 27 62  2  0  0  0  0
 28 55  1  0  0  0  0
 28 63  2  0  0  0  0
 29 56  1  0  0  0  0
 29 64  1  0  0  0  0
 30 65  1  0  0  0  0
 30 68  1  0  0  0  0
 31 69  1  0  0  0  0
 31 74  2  0  0  0  0
 32 46  1  0  0  0  0
 32 70  1  0  0  0  0
 32 75  2  0  0  0  0
 33 59  1  0  0  0  0
 33 66  1  0  0  0  0
 33 76  2  0  0  0  0
 34 60  1  0  0  0  0
 34 71  1  0  0  0  0
 34 77  2  0  0  0  0
 35 67  1  0  0  0  0
 35 72  1  0  0  0  0
 35 78  2  0  0  0  0
 36 39  1  0  0  0  0
 37 46  1  0  0  0  0
 38 66  1  0  0  0  0
 39 41  1  0  0  0  0
 40 42  1  0  0  0  0
 40 43  1  0  0  0  0
 41 45  1  0  0  0  0
 42 47  1  0  0  0  0
 43 67  1  0  0  0  0
 44 47  1  0  0  0  0
 44 67  1  0  0  0  0
 45 70  1  0  0  0  0
 46 66  1  0  0  0  0
 47 65  1  0  0  0  0
 48 60  1  0  0  0  0
 49 61  1  0  0  0  0
 50 61  1  0  0  0  0
 51 61  1  0  0  0  0
 52 64  1  0  0  0  0
 53 72  1  0  0  0  0
 54 73  1  0  0  0  0
 55 72  1  0  0  0  0
 56 57  1  0  0  0  0
 57 58  1  0  0  0  0
 58 80  1  0  0  0  0
 59 61  1  0  0  0  0
 59 71  1  0  0  0  0
 60 73  1  0  0  0  0
 62 65  1  0  0  0  0
 63 64  1  0  0  0  0
M  CHG  1  73   1
M  ISO  4  35 100  58 101  72 100  80 101
M  END
> <Batch ID>
0056

> <Smiles>
CNC(C)C(=O)NC(C(=O)N1Cc2cc([101O:1][101CH2:1]CCc3cc(C[100N:0](C)[100C:0](=O)N4CCCC(n5nc(-c6ccc(Oc7ccc(F)cc7F)cc6)c(C(N)=O)c5N)C4)nn3C)ccc2CC1C(=O)NC1CCCc2ccccc21)C(C)(C)C

> <Shape>
0.229

> <Color>
0.075

> <Negative vol penalty>
0.000

$$$$

  -OEChem-04052317463D

 84 92  0     1  0  0  0  0  0999 V2000
  -18.4843  -24.8231   20.7711 C   0  0  0  0  0  0  0  0  0  0  0  0
  -19.6462  -25.2516   20.1372 C   0  0  0  0  0  0  0  0  0  0  0  0
  -25.7095  -13.4597   21.7622 C   0  0  0  0  0  0  0  0  0  0  0  0
  -25.0268  -14.4655   19.6743 C   0  0  0  0  0  0  0  0  0  0  0  0
  -18.1059  -25.3894   21.9877 C   0  0  0  0  0  0  0  0  0  0  0  0
  -20.4297  -26.2476   20.7190 C   0  0  0  0  0  0  0  0  0  0  0  0
  -25.3726  -25.1538   20.5906 C   0  0  0  0  0  0  0  0  0  0  0  0
  -24.6727  -12.5328   21.6547 C   0  0  0  0  0  0  0  0  0  0  0  0
  -23.9900  -13.5386   19.5668 C   0  0  0  0  0  0  0  0  0  0  0  0
  -26.0366  -25.3485   19.3803 C   0  0  0  0  0  0  0  0  0  0  0  0
  -24.0541   -9.6726   19.9607 C   0  0  0  0  0  0  0  0  0  0  0  0
  -24.3491   -8.3360   20.2292 C   0  0  0  0  0  0  0  0  0  0  0  0
  -26.8998  -27.4473   20.1984 C   0  0  0  0  0  0  0  0  0  0  0  0
  -22.7230   -8.3361   22.0160 C   0  0  0  0  0  0  0  0  0  0  0  0
  -30.7127  -25.0484   18.1077 C   0  0  0  0  0  0  0  0  0  0  0  0
  -29.7853  -24.5480   16.1722 C   0  0  0  0  0  0  0  0  0  0  0  0
  -25.8865  -14.4261   20.7720 C   0  0  0  0  0  0  0  0  0  0  0  0
  -28.2693  -15.2533   20.3904 C   0  0  0  0  0  0  0  0  0  0  0  0
  -18.8903  -26.3860   22.5895 C   0  0  0  0  0  0  0  0  0  0  0  0
  -25.4585  -26.1111   21.6117 C   0  0  0  0  0  0  0  0  0  0  0  0
  -20.0607  -26.8287   21.9441 C   0  0  0  0  0  0  0  0  0  0  0  0
  -26.2380  -27.2611   21.4217 C   0  0  0  0  0  0  0  0  0  0  0  0
  -23.8130  -12.5722   20.5570 C   0  0  0  0  0  0  0  0  0  0  0  0
  -26.7980  -26.4967   19.1829 C   0  0  0  0  0  0  0  0  0  0  0  0
  -23.0936  -10.3410   20.7199 C   0  0  0  0  0  0  0  0  0  0  0  0
  -23.6835   -7.6678   21.2568 C   0  0  0  0  0  0  0  0  0  0  0  0
  -22.4280   -9.6727   21.7476 C   0  0  0  0  0  0  0  0  0  0  0  0
  -26.9570  -15.3842   20.8828 C   0  0  0  0  0  0  0  0  0  0  0  0
  -30.8508  -23.7122   17.8144 C   0  0  0  0  0  0  0  0  0  0  0  0
  -28.8897  -16.4245   20.7508 C   0  0  0  0  0  0  0  0  0  0  0  0
  -28.8735  -14.1699   19.6714 C   0  0  0  0  0  0  0  0  0  0  0  0
  -23.3707  -27.9685   23.1265 C   0  0  0  0  0  0  0  0  0  0  0  0
  -28.8012  -22.0034   21.1473 C   0  0  0  0  0  0  0  0  0  0  0  0
  -25.9492  -28.7187   24.9460 C   0  0  0  0  0  0  0  0  0  0  0  0
  -29.3454  -28.9192   25.2155 C   0  0  0  0  0  0  0  0  0  0  0  0
  -18.4156  -27.0018   23.8818 C   0  0  0  0  0  0  0  0  0  0  0  0
  -24.7580  -25.8735   22.9213 C   0  0  0  0  0  0  0  0  0  0  0  0
  -26.3790  -28.3096   22.4938 C   0  0  0  0  0  0  0  0  0  0  0  0
  -19.4991  -27.7872   24.6163 C   0  0  0  0  0  0  0  0  0  0  0  0
  -27.4146  -20.1196   23.8618 C   0  0  0  0  0  0  0  0  0  0  0  0
  -20.2446  -28.7011   23.6489 C   0  0  0  0  0  0  0  0  0  0  0  0
  -27.2516  -18.7165   23.2787 C   0  0  0  0  0  0  0  0  0  0  0  0
  -27.1593  -21.1945   22.8099 C   0  0  0  0  0  0  0  0  0  0  0  0
  -27.8393  -19.6532   20.9979 C   0  0  0  0  0  0  0  0  0  0  0  0
  -20.9501  -27.8893   22.5559 C   0  0  1  0  0  0  0  0  0  0  0  0
  -24.4979  -27.1584   23.7016 C   0  0  1  0  0  0  0  0  0  0  0  0
  -28.1185  -18.5370   22.0199 C   0  0  2  0  0  0  0  0  0  0  0  0
  -31.8479  -27.8212   15.7874 C   0  0  0  0  0  0  0  0  0  0  0  0
  -31.1579  -29.6051   26.8098 C   0  0  0  0  0  0  0  0  0  0  0  0
  -25.3581  -31.6525   24.3519 C   0  0  0  0  0  0  0  0  0  0  0  0
  -27.6697  -32.2054   25.1388 C   0  0  0  0  0  0  0  0  0  0  0  0
  -26.0293  -31.1812   26.7145 C   0  0  0  0  0  0  0  0  0  0  0  0
  -28.8364  -27.3117   15.5490 C   0  0  0  0  0  0  0  0  0  0  0  0
  -30.4877  -26.1895   25.2732 C   0  0  0  0  0  0  0  0  0  0  0  0
  -31.8942  -21.8550   20.9355 C   0  0  0  0  0  0  0  0  0  0  0  0
  -31.5111  -22.6685   18.6131 C   0  0  0  0  0  0  0  0  0  0  0  0
  -29.6253  -21.7020   19.9209 C   0  0  0  0  0  0  0  0  0  0  0  0
  -30.8443  -27.9881   16.9250 C   0  0  0  0  0  0  0  0  0  0  0  0
  -28.6588  -27.4414   18.0423 C   0  0  0  0  0  0  0  0  0  1  0  0
  -27.0370  -29.7634   24.8797 C   0  0  1  0  0  0  0  0  0  0  0  0
  -30.2986  -28.4573   26.3030 C   0  0  2  0  0  0  0  0  0  0  0  0
  -26.5195  -31.1820   25.2501 C   0  0  0  0  0  0  0  0  0  0  0  0
  -29.6017  -27.0420   16.8696 C   0  0  1  0  0  0  0  0  0  0  0  0
  -30.2716  -23.4071   16.6081 N   0  0  0  0  0  0  0  0  0  0  0  0
  -26.7546  -16.5467   21.5084 N   0  0  0  0  0  0  0  0  0  0  0  0
  -30.0286  -25.5707   17.0464 N   0  0  0  0  0  0  0  0  0  0  0  0
  -27.9480  -17.1570   21.4117 N   0  0  0  0  0  0  0  0  0  0  0  0
  -25.6699  -28.0347   23.7544 N   0  0  0  0  0  0  0  0  0  0  0  0
  -27.9852  -20.9759   21.6211 N   0  0  0  0  0  0  0  0  0  0  0  0
  -30.1434  -16.8889   20.5638 N   0  0  0  0  0  0  0  0  0  0  0  0
  -28.0935  -13.0415   19.3838 N   0  0  0  0  0  0  0  0  0  0  0  0
  -22.1650  -27.2957   23.0719 N   0  0  0  0  0  0  0  0  0  0  0  0
  -28.1188  -29.2808   25.7312 N   0  0  0  0  0  0  0  0  0  0  0  0
  -31.1993  -27.3898   25.7832 N   0  3  0  0  0  0  0  0  0  0  0  0
  -30.9166  -22.4712   19.9731 N   0  3  1  0  0  0  0  0  0  0  0  0
  -30.0744  -14.1946   19.3096 O   0  0  0  0  0  0  0  0  0  0  0  0
  -23.5791  -29.1194   22.7607 O   0  0  0  0  0  0  0  0  0  0  0  0
  -28.8839  -23.1184   21.6691 O   0  0  0  0  0  0  0  0  0  0  0  0
  -25.3737  -28.5120   26.0173 O   0  0  0  0  0  0  0  0  0  0  0  0
  -29.6589  -28.9589   24.0278 O   0  0  0  0  0  0  0  0  0  0  0  0
  -22.8013  -11.6678   20.4517 O   0  0  0  0  0  0  0  0  0  0  0  0
  -27.4465  -26.6896   18.0022 O   0  0  0  0  0  0  0  0  0  1  0  0
  -23.9657   -6.3838   21.5135 F   0  0  0  0  0  0  0  0  0  0  0  0
  -21.5035  -10.3092   22.4796 F   0  0  0  0  0  0  0  0  0  0  0  0
  1  2  1  0  0  0  0
  1  5  2  0  0  0  0
  2  6  2  0  0  0  0
  3  8  2  0  0  0  0
  3 17  1  0  0  0  0
  4  9  1  0  0  0  0
  4 17  2  0  0  0  0
  5 19  1  0  0  0  0
  6 21  1  0  0  0  0
  7 10  2  0  0  0  0
  7 20  1  0  0  0  0
  8 23  1  0  0  0  0
  9 23  2  0  0  0  0
 10 24  1  0  0  0  0
 11 12  2  0  0  0  0
 11 25  1  0  0  0  0
 12 26  1  0  0  0  0
 13 22  1  0  0  0  0
 13 24  2  0  0  0  0
 14 26  2  0  0  0  0
 14 27  1  0  0  0  0
 15 29  2  0  0  0  0
 15 66  1  0  0  0  0
 16 64  2  0  0  0  0
 16 66  1  0  0  0  0
 17 28  1  0  0  0  0
 18 28  1  0  0  0  0
 18 30  2  0  0  0  0
 18 31  1  0  0  0  0
 19 21  2  0  0  0  0
 19 36  1  0  0  0  0
 20 22  2  0  0  0  0
 20 37  1  0  0  0  0
 21 45  1  0  0  0  0
 22 38  1  0  0  0  0
 23 81  1  0  0  0  0
 24 82  1  0  0  0  0
 25 27  2  0  0  0  0
 25 81  1  0  0  0  0
 26 83  1  0  0  0  0
 27 84  1  0  0  0  0
 28 65  2  0  0  0  0
 29 56  1  0  0  0  0
 29 64  1  0  0  0  0
 30 67  1  0  0  0  0
 30 70  1  0  0  0  0
 31 71  1  0  0  0  0
 31 76  2  0  0  0  0
 32 46  1  0  0  0  0
 32 72  1  0  0  0  0
 32 77  2  0  0  0  0
 33 57  1  0  0  0  0
 33 69  1  0  0  0  0
 33 78  2  0  0  0  0
 34 60  1  0  0  0  0
 34 68  1  0  0  0  0
 34 79  2  0  0  0  0
 35 61  1  0  0  0  0
 35 73  1  0  0  0  0
 35 80  2  0  0  0  0
 36 39  1  0  0  0  0
 37 46  1  0  0  0  0
 38 68  1  0  0  0  0
 39 41  1  0  0  0  0
 40 42  1  0  0  0  0
 40 43  1  0  0  0  0
 41 45  1  0  0  0  0
 42 47  1  0  0  0  0
 43 69  1  0  0  0  0
 44 47  1  0  0  0  0
 44 69  1  0  0  0  0
 45 72  1  0  0  0  0
 46 68  1  0  0  0  0
 47 67  1  0  0  0  0
 48 58  1  0  0  0  0
 49 61  1  0  0  0  0
 50 62  1  0  0  0  0
 51 62  1  0  0  0  0
 52 62  1  0  0  0  0
 53 63  1  0  0  0  0
 54 74  1  0  0  0  0
 55 75  1  0  0  0  0
 56 75  1  0  0  0  0
 57 75  1  0  0  0  0
 58 63  1  0  0  0  0
 59 63  1  0  0  0  0
 59 82  1  0  0  0  0
 60 62  1  0  0  0  0
 60 73  1  0  0  0  0
 61 74  1  0  0  0  0
 63 66  1  0  0  0  0
 65 67  1  0  0  0  0
M  CHG  2  74   1  75   1
M  ISO  4  33 100  57 100  59 101  82 101
M  END
> <Batch ID>
0056

> <Smiles>
CCC(C)(n1cnc(CN(C)[100CH2:0][100C:0](=O)N2CCCC(n3nc(-c4ccc(Oc5ccc(F)cc5F)cc4)c(C(N)=O)c3N)C2)c1)[101CH2:1][101O:1]c1ccc2c(c1)CN(C(=O)C(NC(=O)C(C)NC)C(C)(C)C)C(C(=O)NC1CCCc3ccccc31)C2

> <Shape>
0.279

> <Color>
0.072

> <Negative vol penalty>
0.000

$$$$

  -OEChem-04052317463D

 83 91  0     1  0  0  0  0  0999 V2000
  -25.1254  -11.7166   24.4130 C   0  0  0  0  0  0  0  0  0  0  0  0
  -25.9384  -12.8396   24.2976 C   0  0  0  0  0  0  0  0  0  0  0  0
  -23.1677  -28.3478   22.2274 C   0  0  0  0  0  0  0  0  0  0  0  0
  -22.6673  -26.4693   20.7928 C   0  0  0  0  0  0  0  0  0  0  0  0
  -24.5839  -11.1290   23.2705 C   0  0  0  0  0  0  0  0  0  0  0  0
  -26.2112  -13.3751   23.0393 C   0  0  0  0  0  0  0  0  0  0  0  0
  -26.9682  -19.2890   21.6401 C   0  0  0  0  0  0  0  0  0  0  0  0
  -21.9014  -28.2453   22.8033 C   0  0  0  0  0  0  0  0  0  0  0  0
  -21.4010  -26.3668   21.3687 C   0  0  0  0  0  0  0  0  0  0  0  0
  -28.1077  -20.0716   21.4589 C   0  0  0  0  0  0  0  0  0  0  0  0
  -18.7309  -29.1150   22.0183 C   0  0  0  0  0  0  0  0  0  0  0  0
  -18.0053  -30.2923   22.2000 C   0  0  0  0  0  0  0  0  0  0  0  0
  -27.9673  -19.7138   19.0774 C   0  0  0  0  0  0  0  0  0  0  0  0
  -17.9404  -29.8849   24.5806 C   0  0  0  0  0  0  0  0  0  0  0  0
  -28.1044  -24.0571   17.9113 C   0  0  0  0  0  0  0  0  0  0  0  0
  -23.5506  -27.4598   21.2221 C   0  0  0  0  0  0  0  0  0  0  0  0
  -26.0395  -26.9272   21.0500 C   0  0  0  0  0  0  0  0  0  0  0  0
  -24.8424  -11.6632   21.9983 C   0  0  0  0  0  0  0  0  0  0  0  0
  -26.3249  -18.7030   20.5405 C   0  0  0  0  0  0  0  0  0  0  0  0
  -25.6737  -12.7932   21.8785 C   0  0  0  0  0  0  0  0  0  0  0  0
  -26.8183  -18.9263   19.2471 C   0  0  0  0  0  0  0  0  0  0  0  0
  -21.0181  -27.2549   22.3739 C   0  0  0  0  0  0  0  0  0  0  0  0
  -28.6091  -20.2817   20.1776 C   0  0  0  0  0  0  0  0  0  0  0  0
  -19.0613  -28.3226   23.1177 C   0  0  0  0  0  0  0  0  0  0  0  0
  -17.6100  -30.6772   23.4811 C   0  0  0  0  0  0  0  0  0  0  0  0
  -18.6660  -28.7075   24.3988 C   0  0  0  0  0  0  0  0  0  0  0  0
  -24.8584  -27.5655   20.6265 C   0  0  0  0  0  0  0  0  0  0  0  0
  -28.7519  -24.8963   17.0316 C   0  0  0  0  0  0  0  0  0  0  0  0
  -30.6860  -24.6589   18.2287 C   0  0  0  0  0  0  0  0  0  0  0  0
  -30.0382  -23.8203   19.1089 C   0  0  0  0  0  0  0  0  0  0  0  0
  -26.9965  -27.3505   20.1604 C   0  0  0  0  0  0  0  0  0  0  0  0
  -26.2525  -26.0315   22.1492 C   0  0  0  0  0  0  0  0  0  0  0  0
  -25.7195  -15.7202   19.6239 C   0  0  0  0  0  0  0  0  0  0  0  0
  -24.0307  -17.1968   17.2808 C   0  0  0  0  0  0  0  0  0  0  0  0
  -23.5358  -19.9940   15.3894 C   0  0  0  0  0  0  0  0  0  0  0  0
  -27.1084  -28.6408   14.3806 C   0  0  0  0  0  0  0  0  0  0  0  0
  -24.2732  -10.9653   20.7886 C   0  0  0  0  0  0  0  0  0  0  0  0
  -25.0813  -17.8835   20.7504 C   0  0  0  0  0  0  0  0  0  0  0  0
  -26.1528  -18.3362   18.0316 C   0  0  0  0  0  0  0  0  0  0  0  0
  -24.3064  -11.8171   19.5222 C   0  0  0  0  0  0  0  0  0  0  0  0
  -27.4537  -31.1669   17.0641 C   0  0  0  0  0  0  0  0  0  0  0  0
  -25.6713  -12.4783   19.3593 C   0  0  0  0  0  0  0  0  0  0  0  0
  -26.8594  -30.4498   18.2751 C   0  0  0  0  0  0  0  0  0  0  0  0
  -26.8431  -30.6727   15.7563 C   0  0  0  0  0  0  0  0  0  0  0  0
  -26.3333  -28.4814   16.7820 C   0  0  0  0  0  0  0  0  0  0  0  0
  -25.9727  -13.4180   20.5330 C   0  0  1  0  0  0  0  0  0  0  0  0
  -24.8053  -16.9126   19.6064 C   0  0  1  0  0  0  0  0  0  0  0  0
  -26.9606  -28.9231   18.1128 C   0  0  2  0  0  0  0  0  0  0  0  0
  -32.1271  -24.9997   18.3980 C   0  0  0  0  0  0  0  0  0  0  0  0
  -22.1064  -20.8874   13.5302 C   0  0  0  0  0  0  0  0  0  0  0  0
  -25.6274  -15.5527   15.2664 C   0  0  0  0  0  0  0  0  0  0  0  0
  -24.8647  -17.1310   13.4788 C   0  0  0  0  0  0  0  0  0  0  0  0
  -23.1931  -15.7729   14.7373 C   0  0  0  0  0  0  0  0  0  0  0  0
  -28.0394  -26.7934   13.0390 C   0  0  0  0  0  0  0  0  0  0  0  0
  -22.4602  -22.1568   17.0995 C   0  0  0  0  0  0  0  0  0  0  0  0
  -28.0221  -25.4900   15.8781 C   0  0  0  0  0  0  0  0  0  0  0  0
  -30.7572  -23.2072   20.2859 C   0  0  0  0  0  0  0  0  0  0  0  0
  -28.5571  -26.8631   15.4500 C   0  0  0  0  0  0  0  0  0  0  0  0
  -29.9507  -22.0911   20.9408 C   0  0  0  0  0  0  0  0  0  1  0  0
  -24.3447  -17.7037   15.8939 C   0  0  1  0  0  0  0  0  0  0  0  0
  -22.2742  -20.7611   15.0365 C   0  0  2  0  0  0  0  0  0  0  0  0
  -24.5214  -16.5497   14.8670 C   0  0  0  0  0  0  0  0  0  0  0  0
  -28.7359  -23.5041   18.9658 N   0  0  0  0  0  0  0  0  0  0  0  0
  -25.0456  -28.3359   19.5516 N   0  0  0  0  0  0  0  0  0  0  0  0
  -30.0544  -25.2122   17.1745 N   0  0  0  0  0  0  0  0  0  0  0  0
  -26.3555  -28.1845   19.2922 N   0  0  0  0  0  0  0  0  0  0  0  0
  -24.9434  -17.5372   18.2892 N   0  0  0  0  0  0  0  0  0  0  0  0
  -26.9138  -29.2152   15.6475 N   0  0  0  0  0  0  0  0  0  0  0  0
  -28.3154  -27.0872   20.0440 N   0  0  0  0  0  0  0  0  0  0  0  0
  -25.1605  -25.7015   22.9634 N   0  0  0  0  0  0  0  0  0  0  0  0
  -25.2515  -14.6635   20.3814 N   0  0  0  0  0  0  0  0  0  0  0  0
  -23.2857  -18.6482   15.5550 N   0  0  0  0  0  0  0  0  0  0  0  0
  -27.8025  -27.4225   14.3306 N   0  0  0  0  0  0  0  0  0  0  0  0
  -22.3206  -22.1313   15.6207 N   0  3  0  0  0  0  0  0  0  0  0  0
  -27.3812  -25.5514   22.4116 O   0  0  0  0  0  0  0  0  0  0  0  0
  -26.7708  -15.7557   18.9953 O   0  0  0  0  0  0  0  0  0  0  0  0
  -23.0095  -16.5296   17.4640 O   0  0  0  0  0  0  0  0  0  0  0  0
  -24.6339  -20.5341   15.5028 O   0  0  0  0  0  0  0  0  0  0  0  0
  -26.6941  -29.1907   13.3520 O   0  0  0  0  0  0  0  0  0  0  0  0
  -19.7824  -27.1545   22.9358 O   0  0  0  0  0  0  0  0  0  0  0  0
  -29.7216  -21.0446   19.9980 O   0  0  0  0  0  0  0  0  0  1  0  0
  -16.9145  -31.8086   23.6557 F   0  0  0  0  0  0  0  0  0  0  0  0
  -18.9815  -27.9510   25.4590 F   0  0  0  0  0  0  0  0  0  0  0  0
  1  2  1  0  0  0  0
  1  5  2  0  0  0  0
  2  6  2  0  0  0  0
  3  8  2  0  0  0  0
  3 16  1  0  0  0  0
  4  9  1  0  0  0  0
  4 16  2  0  0  0  0
  5 18  1  0  0  0  0
  6 20  1  0  0  0  0
  7 10  2  0  0  0  0
  7 19  1  0  0  0  0
  8 22  1  0  0  0  0
  9 22  2  0  0  0  0
 10 23  1  0  0  0  0
 11 12  2  0  0  0  0
 11 24  1  0  0  0  0
 12 25  1  0  0  0  0
 13 21  1  0  0  0  0
 13 23  2  0  0  0  0
 14 25  2  0  0  0  0
 14 26  1  0  0  0  0
 15 28  1  0  0  0  0
 15 63  2  0  0  0  0
 16 27  1  0  0  0  0
 17 27  1  0  0  0  0
 17 31  2  0  0  0  0
 17 32  1  0  0  0  0
 18 20  2  0  0  0  0
 18 37  1  0  0  0  0
 19 21  2  0  0  0  0
 19 38  1  0  0  0  0
 20 46  1  0  0  0  0
 21 39  1  0  0  0  0
 22 80  1  0  0  0  0
 23 81  1  0  0  0  0
 24 26  2  0  0  0  0
 24 80  1  0  0  0  0
 25 82  1  0  0  0  0
 26 83  1  0  0  0  0
 27 64  2  0  0  0  0
 28 56  1  0  0  0  0
 28 65  2  0  0  0  0
 29 30  2  0  0  0  0
 29 49  1  0  0  0  0
 29 65  1  0  0  0  0
 30 57  1  0  0  0  0
 30 63  1  0  0  0  0
 31 66  1  0  0  0  0
 31 69  1  0  0  0  0
 32 70  1  0  0  0  0
 32 75  2  0  0  0  0
 33 47  1  0  0  0  0
 33 71  1  0  0  0  0
 33 76  2  0  0  0  0
 34 60  1  0  0  0  0
 34 67  1  0  0  0  0
 34 77  2  0  0  0  0
 35 61  1  0  0  0  0
 35 72  1  0  0  0  0
 35 78  2  0  0  0  0
 36 68  1  0  0  0  0
 36 73  1  0  0  0  0
 36 79  2  0  0  0  0
 37 40  1  0  0  0  0
 38 47  1  0  0  0  0
 39 67  1  0  0  0  0
 40 42  1  0  0  0  0
 41 43  1  0  0  0  0
 41 44  1  0  0  0  0
 42 46  1  0  0  0  0
 43 48  1  0  0  0  0
 44 68  1  0  0  0  0
 45 48  1  0  0  0  0
 45 68  1  0  0  0  0
 46 71  1  0  0  0  0
 47 67  1  0  0  0  0
 48 66  1  0  0  0  0
 50 61  1  0  0  0  0
 51 62  1  0  0  0  0
 52 62  1  0  0  0  0
 53 62  1  0  0  0  0
 54 73  1  0  0  0  0
 55 74  1  0  0  0  0
 56 58  1  0  0  0  0
 57 59  1  0  0  0  0
 58 73  1  0  0  0  0
 59 81  1  0  0  0  0
 60 62  1  0  0  0  0
 60 72  1  0  0  0  0
 61 74  1  0  0  0  0
 64 66  1  0  0  0  0
M  CHG  1  74   1
M  ISO  4  36 100  59 101  73 100  81 101
M  END
> <Batch ID>
0056

> <Smiles>
CNC(C)C(=O)NC(C(=O)N1Cc2cc([101O:1][101CH2:1]Cc3ncc(CC[100N:0](C)[100C:0](=O)N4CCCC(n5nc(-c6ccc(Oc7ccc(F)cc7F)cc6)c(C(N)=O)c5N)C4)nc3C)ccc2CC1C(=O)NC1CCCc2ccccc21)C(C)(C)C

> <Shape>
0.187

> <Color>
0.105

> <Negative vol penalty>
0.000

$$$$

  -OEChem-04052317463D

 80 88  0     1  0  0  0  0  0999 V2000
  -31.2156  -29.1896   21.2301 C   0  0  0  0  0  0  0  0  0  0  0  0
  -30.6298  -28.1205   21.9005 C   0  0  0  0  0  0  0  0  0  0  0  0
  -23.2794   -9.7782   19.9751 C   0  0  0  0  0  0  0  0  0  0  0  0
  -23.7204   -9.9987   22.3403 C   0  0  0  0  0  0  0  0  0  0  0  0
  -31.2910  -29.1809   19.8379 C   0  0  0  0  0  0  0  0  0  0  0  0
  -30.1180  -27.0427   21.1790 C   0  0  0  0  0  0  0  0  0  0  0  0
  -30.1234  -21.1532   22.8584 C   0  0  0  0  0  0  0  0  0  0  0  0
  -22.5424   -8.6197   20.2205 C   0  0  0  0  0  0  0  0  0  0  0  0
  -22.9832   -8.8401   22.5857 C   0  0  0  0  0  0  0  0  0  0  0  0
  -29.1478  -20.3415   23.4355 C   0  0  0  0  0  0  0  0  0  0  0  0
  -23.1662   -5.3607   20.8641 C   0  0  0  0  0  0  0  0  0  0  0  0
  -23.3898   -4.2631   20.0330 C   0  0  0  0  0  0  0  0  0  0  0  0
  -28.5386  -19.5286   21.2475 C   0  0  0  0  0  0  0  0  0  0  0  0
  -21.0713   -4.3043   19.3547 C   0  0  0  0  0  0  0  0  0  0  0  0
  -30.8778  -15.1903   23.4007 C   0  0  0  0  0  0  0  0  0  0  0  0
  -23.8685  -10.4677   21.0350 C   0  0  0  0  0  0  0  0  0  0  0  0
  -24.1498  -12.9869   20.7487 C   0  0  0  0  0  0  0  0  0  0  0  0
  -30.7885  -28.0979   19.0995 C   0  0  0  0  0  0  0  0  0  0  0  0
  -30.3069  -21.1669   21.4683 C   0  0  0  0  0  0  0  0  0  0  0  0
  -30.1855  -27.0201   19.7756 C   0  0  0  0  0  0  0  0  0  0  0  0
  -29.5190  -20.3395   20.6555 C   0  0  0  0  0  0  0  0  0  0  0  0
  -22.3943   -8.1507   21.5257 C   0  0  0  0  0  0  0  0  0  0  0  0
  -28.3532  -19.5312   22.6298 C   0  0  0  0  0  0  0  0  0  0  0  0
  -21.8951   -5.9302   20.9406 C   0  0  0  0  0  0  0  0  0  0  0  0
  -22.3424   -3.7348   19.2783 C   0  0  0  0  0  0  0  0  0  0  0  0
  -20.8477   -5.4020   20.1859 C   0  0  0  0  0  0  0  0  0  0  0  0
  -24.6305  -11.6641   20.7822 C   0  0  0  0  0  0  0  0  0  0  0  0
  -25.2589  -13.7483   20.4718 C   0  0  0  0  0  0  0  0  0  0  0  0
  -28.9417  -15.5770   24.0784 C   0  0  0  0  0  0  0  0  0  0  0  0
  -22.8198  -13.4830   20.9499 C   0  0  0  0  0  0  0  0  0  0  0  0
  -30.0555  -23.3735   19.1941 C   0  0  0  0  0  0  0  0  0  0  0  0
  -31.1216  -12.7677   21.3546 C   0  0  0  0  0  0  0  0  0  0  0  0
  -31.2587  -21.0171   17.3174 C   0  0  0  0  0  0  0  0  0  0  0  0
  -31.7156  -17.6750   16.7989 C   0  0  0  0  0  0  0  0  0  0  0  0
  -30.8501  -28.1551   17.5936 C   0  0  0  0  0  0  0  0  0  0  0  0
  -31.3817  -22.0282   20.8637 C   0  0  0  0  0  0  0  0  0  0  0  0
  -29.6898  -20.3024   19.1596 C   0  0  0  0  0  0  0  0  0  0  0  0
  -30.6209  -26.8032   16.9228 C   0  0  0  0  0  0  0  0  0  0  0  0
  -29.4895  -13.5511   18.2623 C   0  0  0  0  0  0  0  0  0  0  0  0
  -29.4156  -26.0994   17.5383 C   0  0  0  0  0  0  0  0  0  0  0  0
  -28.0186  -13.2491   18.5462 C   0  0  0  0  0  0  0  0  0  0  0  0
  -30.4103  -12.5796   18.9939 C   0  0  0  0  0  0  0  0  0  0  0  0
  -28.7111  -12.2179   20.7557 C   0  0  0  0  0  0  0  0  0  0  0  0
  -29.6412  -25.8213   19.0293 C   0  0  1  0  0  0  0  0  0  0  0  0
  -31.1347  -22.3470   19.3924 C   0  0  1  0  0  0  0  0  0  0  0  0
  -27.7475  -13.1956   20.0601 C   0  0  2  0  0  0  0  0  0  0  0  0
  -31.8862  -12.1615   23.6401 C   0  0  0  0  0  0  0  0  0  0  0  0
  -32.7020  -16.0529   15.1578 C   0  0  0  0  0  0  0  0  0  0  0  0
  -28.8776  -21.4523   15.4598 C   0  0  0  0  0  0  0  0  0  0  0  0
  -29.3862  -19.2401   14.4036 C   0  0  0  0  0  0  0  0  0  0  0  0
  -31.0588  -21.0874   14.2920 C   0  0  0  0  0  0  0  0  0  0  0  0
  -33.6182  -16.6220   18.8065 C   0  0  0  0  0  0  0  0  0  0  0  0
  -27.6795  -16.2008   24.6180 C   0  0  0  0  0  0  0  0  0  0  0  0
  -26.6295  -16.4939   23.5442 C   0  0  0  0  0  0  0  0  0  0  0  0
  -27.0885  -17.5205   22.5151 C   0  0  0  0  0  0  0  0  0  1  0  0
  -30.7308  -12.7154   22.8101 C   0  0  1  0  0  0  0  0  0  0  0  0
  -30.6664  -19.9018   16.4902 C   0  0  1  0  0  0  0  0  0  0  0  0
  -32.9466  -16.8745   16.4140 C   0  0  2  0  0  0  0  0  0  0  0  0
  -29.9925  -20.4223   15.1894 C   0  0  0  0  0  0  0  0  0  0  0  0
  -30.0882  -16.1893   23.8939 N   0  0  0  0  0  0  0  0  0  0  0  0
  -25.9427  -11.5862   20.5453 N   0  0  0  0  0  0  0  0  0  0  0  0
  -29.0546  -14.2730   23.7086 N   0  0  0  0  0  0  0  0  0  0  0  0
  -30.2919  -13.9984   23.2684 N   0  0  0  0  0  0  0  0  0  0  0  0
  -26.2960  -12.8695   20.3603 N   0  0  0  0  0  0  0  0  0  0  0  0
  -30.7498  -21.1671   18.6153 N   0  0  0  0  0  0  0  0  0  0  0  0
  -30.1061  -12.5409   20.4254 N   0  0  0  0  0  0  0  0  0  0  0  0
  -25.4385  -15.0771   20.3152 N   0  0  0  0  0  0  0  0  0  0  0  0
  -21.7983  -12.5637   21.2253 N   0  0  0  0  0  0  0  0  0  0  0  0
  -30.5110  -24.6780   19.2043 N   0  0  0  0  0  0  0  0  0  0  0  0
  -31.7443  -18.9452   16.2632 N   0  0  0  0  0  0  0  0  0  0  0  0
  -33.3262  -15.9460   17.5162 N   0  3  0  0  0  0  0  0  0  0  0  0
  -22.5422  -14.7038   20.8712 O   0  0  0  0  0  0  0  0  0  0  0  0
  -28.8955  -23.0088   19.0417 O   0  0  0  0  0  0  0  0  0  0  0  0
  -32.2943  -13.0060   21.0544 O   0  0  0  0  0  0  0  0  0  0  0  0
  -32.1454  -21.7244   16.8325 O   0  0  0  0  0  0  0  0  0  0  0  0
  -30.8166  -17.2180   17.5013 O   0  0  0  0  0  0  0  0  0  0  0  0
  -21.6749   -7.0204   21.7655 O   0  0  0  0  0  0  0  0  0  0  0  0
  -27.3998  -18.7384   23.1904 O   0  0  0  0  0  0  0  0  0  1  0  0
  -22.5577   -2.6817   18.4791 F   0  0  0  0  0  0  0  0  0  0  0  0
  -19.6247   -5.9455   20.2543 F   0  0  0  0  0  0  0  0  0  0  0  0
  1  2  1  0  0  0  0
  1  5  2  0  0  0  0
  2  6  2  0  0  0  0
  3  8  2  0  0  0  0
  3 16  1  0  0  0  0
  4  9  1  0  0  0  0
  4 16  2  0  0  0  0
  5 18  1  0  0  0  0
  6 20  1  0  0  0  0
  7 10  2  0  0  0  0
  7 19  1  0  0  0  0
  8 22  1  0  0  0  0
  9 22  2  0  0  0  0
 10 23  1  0  0  0  0
 11 12  2  0  0  0  0
 11 24  1  0  0  0  0
 12 25  1  0  0  0  0
 13 21  1  0  0  0  0
 13 23  2  0  0  0  0
 14 25  2  0  0  0  0
 14 26  1  0  0  0  0
 15 60  2  0  0  0  0
 15 63  1  0  0  0  0
 16 27  1  0  0  0  0
 17 27  1  0  0  0  0
 17 28  2  0  0  0  0
 17 30  1  0  0  0  0
 18 20  2  0  0  0  0
 18 35  1  0  0  0  0
 19 21  2  0  0  0  0
 19 36  1  0  0  0  0
 20 44  1  0  0  0  0
 21 37  1  0  0  0  0
 22 77  1  0  0  0  0
 23 78  1  0  0  0  0
 24 26  2  0  0  0  0
 24 77  1  0  0  0  0
 25 79  1  0  0  0  0
 26 80  1  0  0  0  0
 27 61  2  0  0  0  0
 28 64  1  0  0  0  0
 28 67  1  0  0  0  0
 29 53  1  0  0  0  0
 29 60  1  0  0  0  0
 29 62  2  0  0  0  0
 30 68  1  0  0  0  0
 30 72  2  0  0  0  0
 31 45  1  0  0  0  0
 31 69  1  0  0  0  0
 31 73  2  0  0  0  0
 32 56  1  0  0  0  0
 32 66  1  0  0  0  0
 32 74  2  0  0  0  0
 33 57  1  0  0  0  0
 33 65  1  0  0  0  0
 33 75  2  0  0  0  0
 34 58  1  0  0  0  0
 34 70  1  0  0  0  0
 34 76  2  0  0  0  0
 35 38  1  0  0  0  0
 36 45  1  0  0  0  0
 37 65  1  0  0  0  0
 38 40  1  0  0  0  0
 39 41  1  0  0  0  0
 39 42  1  0  0  0  0
 40 44  1  0  0  0  0
 41 46  1  0  0  0  0
 42 66  1  0  0  0  0
 43 46  1  0  0  0  0
 43 66  1  0  0  0  0
 44 69  1  0  0  0  0
 45 65  1  0  0  0  0
 46 64  1  0  0  0  0
 47 56  1  0  0  0  0
 48 58  1  0  0  0  0
 49 59  1  0  0  0  0
 50 59  1  0  0  0  0
 51 59  1  0  0  0  0
 52 71  1  0  0  0  0
 53 54  1  0  0  0  0
 54 55  1  0  0  0  0
 55 78  1  0  0  0  0
 56 63  1  0  0  0  0
 57 59  1  0  0  0  0
 57 70  1  0  0  0  0
 58 71  1  0  0  0  0
 61 64  1  0  0  0  0
 62 63  1  0  0  0  0
M  CHG  1  71   1
M  ISO  4  32 100  55 101  56 100  78 101
M  END
> <Batch ID>
0056

> <Smiles>
CNC(C)C(=O)NC(C(=O)N1Cc2cc([101O:1][101CH2:1]CCc3ncn([100CH:0](C)[100C:0](=O)N4CCCC(n5nc(-c6ccc(Oc7ccc(F)cc7F)cc6)c(C(N)=O)c5N)C4)n3)ccc2CC1C(=O)NC1CCCc2ccccc21)C(C)(C)C

> <Shape>
0.217

> <Color>
0.200

> <Negative vol penalty>
0.000

$$$$

  -OEChem-04052317463D

 83 91  0     1  0  0  0  0  0999 V2000
  -33.9528  -23.5019   13.7069 C   0  0  0  0  0  0  0  0  0  0  0  0
  -32.9916  -22.8099   14.4367 C   0  0  0  0  0  0  0  0  0  0  0  0
  -23.0685   -9.9069   19.9644 C   0  0  0  0  0  0  0  0  0  0  0  0
  -23.8296   -9.9268   22.2573 C   0  0  0  0  0  0  0  0  0  0  0  0
  -34.4959  -24.6816   14.2141 C   0  0  0  0  0  0  0  0  0  0  0  0
  -32.5737  -23.2967   15.6748 C   0  0  0  0  0  0  0  0  0  0  0  0
  -27.5429  -23.1309   16.2300 C   0  0  0  0  0  0  0  0  0  0  0  0
  -22.3096   -8.7662   20.2261 C   0  0  0  0  0  0  0  0  0  0  0  0
  -23.0707   -8.7861   22.5191 C   0  0  0  0  0  0  0  0  0  0  0  0
  -26.9763  -21.8937   16.5333 C   0  0  0  0  0  0  0  0  0  0  0  0
  -19.8326   -8.0370   23.1307 C   0  0  0  0  0  0  0  0  0  0  0  0
  -19.0758   -8.0187   24.3023 C   0  0  0  0  0  0  0  0  0  0  0  0
  -26.8406  -22.5319   18.8557 C   0  0  0  0  0  0  0  0  0  0  0  0
  -20.2919   -6.0726   25.0576 C   0  0  0  0  0  0  0  0  0  0  0  0
  -23.8285  -10.4872   20.9799 C   0  0  0  0  0  0  0  0  0  0  0  0
  -24.2035  -13.0063   20.8345 C   0  0  0  0  0  0  0  0  0  0  0  0
  -34.0774  -25.1883   15.4546 C   0  0  0  0  0  0  0  0  0  0  0  0
  -27.7731  -24.0753   17.2407 C   0  0  0  0  0  0  0  0  0  0  0  0
  -33.1127  -24.4837   16.1997 C   0  0  0  0  0  0  0  0  0  0  0  0
  -27.4080  -23.7813   18.5622 C   0  0  0  0  0  0  0  0  0  0  0  0
  -22.3107   -8.2058   21.5035 C   0  0  0  0  0  0  0  0  0  0  0  0
  -26.6277  -21.5929   17.8468 C   0  0  0  0  0  0  0  0  0  0  0  0
  -20.8190   -7.0730   22.9226 C   0  0  0  0  0  0  0  0  0  0  0  0
  -19.3054   -7.0365   25.2657 C   0  0  0  0  0  0  0  0  0  0  0  0
  -21.0487   -6.0908   23.8860 C   0  0  0  0  0  0  0  0  0  0  0  0
  -24.6131  -11.6652   20.7100 C   0  0  0  0  0  0  0  0  0  0  0  0
  -25.3053  -13.7376   20.4634 C   0  0  0  0  0  0  0  0  0  0  0  0
  -27.4266  -18.0905   19.3244 C   0  0  0  0  0  0  0  0  0  0  0  0
  -29.2184  -18.0905   20.3950 C   0  0  0  0  0  0  0  0  0  0  0  0
  -22.9402  -13.5430   21.2487 C   0  0  0  0  0  0  0  0  0  0  0  0
  -30.3521  -25.4974   18.4367 C   0  0  0  0  0  0  0  0  0  0  0  0
  -28.1580  -27.1931   20.1198 C   0  0  0  0  0  0  0  0  0  0  0  0
  -25.0102  -27.3647   21.4272 C   0  0  0  0  0  0  0  0  0  0  0  0
  -30.8021  -14.6862   20.6395 C   0  0  0  0  0  0  0  0  0  0  0  0
  -34.7277  -26.4422   15.9833 C   0  0  0  0  0  0  0  0  0  0  0  0
  -28.3606  -25.4156   16.8929 C   0  0  0  0  0  0  0  0  0  0  0  0
  -27.6157  -24.7685   19.6806 C   0  0  0  0  0  0  0  0  0  0  0  0
  -33.9581  -27.0897   17.1317 C   0  0  0  0  0  0  0  0  0  0  0  0
  -29.6320  -12.2931   18.2771 C   0  0  0  0  0  0  0  0  0  0  0  0
  -33.5476  -26.0391   18.1586 C   0  0  0  0  0  0  0  0  0  0  0  0
  -28.1910  -12.0227   18.7135 C   0  0  0  0  0  0  0  0  0  0  0  0
  -30.5525  -12.5138   19.4754 C   0  0  0  0  0  0  0  0  0  0  0  0
  -28.6613  -13.2837   20.8553 C   0  0  0  0  0  0  0  0  0  0  0  0
  -32.6156  -24.9930   17.5352 C   0  0  1  0  0  0  0  0  0  0  0  0
  -29.0240  -26.1039   18.0818 C   0  0  1  0  0  0  0  0  0  0  0  0
  -27.6843  -13.1102   19.6798 C   0  0  2  0  0  0  0  0  0  0  0  0
  -23.5198  -28.8591   22.7846 C   0  0  0  0  0  0  0  0  0  0  0  0
  -31.1746  -19.3285   21.5515 C   0  0  0  0  0  0  0  0  0  0  0  0
  -31.5941  -17.8053   19.6385 C   0  0  0  0  0  0  0  0  0  0  0  0
  -29.6669  -26.3964   22.6493 C   0  0  0  0  0  0  0  0  0  0  0  0
  -27.6601  -27.0838   23.9792 C   0  0  0  0  0  0  0  0  0  0  0  0
  -28.8823  -28.7706   22.6067 C   0  0  0  0  0  0  0  0  0  0  0  0
  -28.1989  -18.5088   22.6642 C   0  0  0  0  0  0  0  0  0  0  0  0
  -23.0454  -27.5982   19.2263 C   0  0  0  0  0  0  0  0  0  0  0  0
  -26.4678  -18.0030   18.1619 C   0  0  0  0  0  0  0  0  0  0  0  0
  -30.8968  -16.8480   21.8548 C   0  0  0  0  0  0  0  0  0  0  0  0
  -26.4507  -19.2789   17.3271 C   0  0  0  0  0  0  0  0  0  1  0  0
  -27.4673  -27.0228   21.4513 C   0  0  1  0  0  0  0  0  0  0  0  0
  -23.9603  -28.4603   21.3847 C   0  0  2  0  0  0  0  0  0  0  0  0
  -30.6196  -18.0314   20.8486 C   0  0  0  0  0  0  0  0  0  0  0  0
  -28.4169  -27.2988   22.6511 C   0  0  0  0  0  0  0  0  0  0  0  0
  -25.8764  -11.5485   20.2922 N   0  0  0  0  0  0  0  0  0  0  0  0
  -28.7758  -17.9513   19.1670 N   0  0  0  0  0  0  0  0  0  0  0  0
  -27.0065  -18.3072   20.5726 N   0  0  0  0  0  0  0  0  0  0  0  0
  -26.2701  -12.8257   20.1509 N   0  0  0  0  0  0  0  0  0  0  0  0
  -28.1719  -18.3027   21.2374 N   0  0  0  0  0  0  0  0  0  0  0  0
  -28.1991  -26.0629   19.2910 N   0  0  0  0  0  0  0  0  0  0  0  0
  -30.0160  -13.5583   20.3512 N   0  0  0  0  0  0  0  0  0  0  0  0
  -25.5332  -15.0654   20.3770 N   0  0  0  0  0  0  0  0  0  0  0  0
  -21.9165  -12.6506   21.5955 N   0  0  0  0  0  0  0  0  0  0  0  0
  -31.2747  -25.5223   17.4083 N   0  0  0  0  0  0  0  0  0  0  0  0
  -26.2885  -27.8816   21.4124 N   0  0  0  0  0  0  0  0  0  0  0  0
  -30.2156  -15.6312   21.4724 N   0  0  0  0  0  0  0  0  0  0  0  0
  -22.7616  -27.9999   20.6282 N   0  3  0  0  0  0  0  0  0  0  0  0
  -22.7202  -14.7771   21.2939 O   0  0  0  0  0  0  0  0  0  0  0  0
  -30.5273  -25.0420   19.5608 O   0  0  0  0  0  0  0  0  0  0  0  0
  -28.6369  -28.2904   19.8229 O   0  0  0  0  0  0  0  0  0  0  0  0
  -24.7250  -26.1701   21.4729 O   0  0  0  0  0  0  0  0  0  0  0  0
  -31.9400  -14.8421   20.1837 O   0  0  0  0  0  0  0  0  0  0  0  0
  -21.5701   -7.0929   21.7593 O   0  0  0  0  0  0  0  0  0  0  0  0
  -26.0750  -20.3858   18.1456 O   0  0  0  0  0  0  0  0  0  1  0  0
  -18.5796   -7.0201   26.3914 F   0  0  0  0  0  0  0  0  0  0  0  0
  -21.9958   -5.1628   23.6922 F   0  0  0  0  0  0  0  0  0  0  0  0
  1  2  1  0  0  0  0
  1  5  2  0  0  0  0
  2  6  2  0  0  0  0
  3  8  2  0  0  0  0
  3 15  1  0  0  0  0
  4  9  1  0  0  0  0
  4 15  2  0  0  0  0
  5 17  1  0  0  0  0
  6 19  1  0  0  0  0
  7 10  2  0  0  0  0
  7 18  1  0  0  0  0
  8 21  1  0  0  0  0
  9 21  2  0  0  0  0
 10 22  1  0  0  0  0
 11 12  2  0  0  0  0
 11 23  1  0  0  0  0
 12 24  1  0  0  0  0
 13 20  1  0  0  0  0
 13 22  2  0  0  0  0
 14 24  2  0  0  0  0
 14 25  1  0  0  0  0
 15 26  1  0  0  0  0
 16 26  1  0  0  0  0
 16 27  2  0  0  0  0
 16 30  1  0  0  0  0
 17 19  2  0  0  0  0
 17 35  1  0  0  0  0
 18 20  2  0  0  0  0
 18 36  1  0  0  0  0
 19 44  1  0  0  0  0
 20 37  1  0  0  0  0
 21 80  1  0  0  0  0
 22 81  1  0  0  0  0
 23 25  2  0  0  0  0
 23 80  1  0  0  0  0
 24 82  1  0  0  0  0
 25 83  1  0  0  0  0
 26 62  2  0  0  0  0
 27 65  1  0  0  0  0
 27 69  1  0  0  0  0
 28 55  1  0  0  0  0
 28 63  1  0  0  0  0
 28 64  2  0  0  0  0
 29 60  1  0  0  0  0
 29 63  2  0  0  0  0
 29 66  1  0  0  0  0
 30 70  1  0  0  0  0
 30 75  2  0  0  0  0
 31 45  1  0  0  0  0
 31 71  1  0  0  0  0
 31 76  2  0  0  0  0
 32 58  1  0  0  0  0
 32 67  1  0  0  0  0
 32 77  2  0  0  0  0
 33 59  1  0  0  0  0
 33 72  1  0  0  0  0
 33 78  2  0  0  0  0
 34 68  1  0  0  0  0
 34 73  1  0  0  0  0
 34 79  2  0  0  0  0
 35 38  1  0  0  0  0
 36 45  1  0  0  0  0
 37 67  1  0  0  0  0
 38 40  1  0  0  0  0
 39 41  1  0  0  0  0
 39 42  1  0  0  0  0
 40 44  1  0  0  0  0
 41 46  1  0  0  0  0
 42 68  1  0  0  0  0
 43 46  1  0  0  0  0
 43 68  1  0  0  0  0
 44 71  1  0  0  0  0
 45 67  1  0  0  0  0
 46 65  1  0  0  0  0
 47 59  1  0  0  0  0
 48 60  1  0  0  0  0
 49 60  1  0  0  0  0
 50 61  1  0  0  0  0
 51 61  1  0  0  0  0
 52 61  1  0  0  0  0
 53 66  1  0  0  0  0
 54 74  1  0  0  0  0
 55 57  1  0  0  0  0
 56 60  1  0  0  0  0
 56 73  1  0  0  0  0
 57 81  1  0  0  0  0
 58 61  1  0  0  0  0
 58 72  1  0  0  0  0
 59 74  1  0  0  0  0
 62 65  1  0  0  0  0
 64 66  1  0  0  0  0
M  CHG  1  74   1
M  ISO  4  34 100  57 101  73 100  81 101
M  END
> <Batch ID>
0056

> <Smiles>
CNC(C)C(=O)NC(C(=O)N1Cc2cc([101O:1][101CH2:1]Cc3nc(C(C)(C)C[100NH:0][100C:0](=O)N4CCCC(n5nc(-c6ccc(Oc7ccc(F)cc7F)cc6)c(C(N)=O)c5N)C4)n(C)n3)ccc2CC1C(=O)NC1CCCc2ccccc21)C(C)(C)C

> <Shape>
0.280

> <Color>
0.211

> <Negative vol penalty>
0.000

$$$$

  -OEChem-04052317463D

 82 90  0     1  0  0  0  0  0999 V2000
  -17.9420  -26.0173   22.6518 C   0  0  0  0  0  0  0  0  0  0  0  0
  -19.2820  -25.6443   22.6759 C   0  0  0  0  0  0  0  0  0  0  0  0
  -30.8443  -17.7343   20.9789 C   0  0  0  0  0  0  0  0  0  0  0  0
  -28.9566  -16.2395   21.1762 C   0  0  0  0  0  0  0  0  0  0  0  0
  -17.5823  -27.2929   22.2189 C   0  0  0  0  0  0  0  0  0  0  0  0
  -20.2632  -26.5464   22.2660 C   0  0  0  0  0  0  0  0  0  0  0  0
  -25.9184  -27.1217   24.5447 C   0  0  0  0  0  0  0  0  0  0  0  0
  -31.6360  -16.6758   20.5335 C   0  0  0  0  0  0  0  0  0  0  0  0
  -29.7482  -15.1809   20.7308 C   0  0  0  0  0  0  0  0  0  0  0  0
  -27.1557  -26.6431   24.1159 C   0  0  0  0  0  0  0  0  0  0  0  0
  -31.1773  -12.1587   19.3019 C   0  0  0  0  0  0  0  0  0  0  0  0
  -30.6368  -11.3025   18.3426 C   0  0  0  0  0  0  0  0  0  0  0  0
  -27.5813  -28.7471   23.0152 C   0  0  0  0  0  0  0  0  0  0  0  0
  -30.3867  -13.1636   16.8225 C   0  0  0  0  0  0  0  0  0  0  0  0
  -29.1855  -23.1225   20.7724 C   0  0  0  0  0  0  0  0  0  0  0  0
  -29.5046  -17.5162   21.3003 C   0  0  0  0  0  0  0  0  0  0  0  0
  -28.8943  -19.4035   22.9044 C   0  0  0  0  0  0  0  0  0  0  0  0
  -18.5603  -28.2144   21.8126 C   0  0  0  0  0  0  0  0  0  0  0  0
  -25.4979  -28.4149   24.2023 C   0  0  0  0  0  0  0  0  0  0  0  0
  -19.9161  -27.8351   21.8259 C   0  0  0  0  0  0  0  0  0  0  0  0
  -26.3394  -29.2407   23.4431 C   0  0  0  0  0  0  0  0  0  0  0  0
  -31.0880  -15.3991   20.4095 C   0  0  0  0  0  0  0  0  0  0  0  0
  -27.9861  -27.4548   23.3486 C   0  0  0  0  0  0  0  0  0  0  0  0
  -31.3226  -13.5174   19.0215 C   0  0  0  0  0  0  0  0  0  0  0  0
  -30.2415  -11.8049   17.1029 C   0  0  0  0  0  0  0  0  0  0  0  0
  -30.9273  -14.0198   17.7818 C   0  0  0  0  0  0  0  0  0  0  0  0
  -28.6865  -18.6091   21.7609 C   0  0  0  0  0  0  0  0  0  0  0  0
  -28.6532  -23.8603   19.6982 C   0  0  0  0  0  0  0  0  0  0  0  0
  -30.0016  -24.0115   21.4285 C   0  0  0  0  0  0  0  0  0  0  0  0
  -27.8490  -20.2944   22.8982 C   0  0  0  0  0  0  0  0  0  0  0  0
  -29.9390  -19.3416   23.8845 C   0  0  0  0  0  0  0  0  0  0  0  0
  -23.0746  -29.6174   22.5334 C   0  0  0  0  0  0  0  0  0  0  0  0
  -24.2578  -32.4458   23.5927 C   0  0  0  0  0  0  0  0  0  0  0  0
  -26.9354  -34.2119   24.7581 C   0  0  0  0  0  0  0  0  0  0  0  0
  -24.3914  -22.0744   18.1638 C   0  0  0  0  0  0  0  0  0  0  0  0
  -18.1195  -29.5655   21.3078 C   0  0  0  0  0  0  0  0  0  0  0  0
  -24.1719  -28.9258   24.6952 C   0  0  0  0  0  0  0  0  0  0  0  0
  -25.9433  -30.6439   23.0657 C   0  0  0  0  0  0  0  0  0  0  0  0
  -19.2490  -30.5905   21.2450 C   0  0  0  0  0  0  0  0  0  0  0  0
  -23.3179  -20.7588   21.4530 C   0  0  0  0  0  0  0  0  0  0  0  0
  -20.4873  -29.9810   20.5953 C   0  0  0  0  0  0  0  0  0  0  0  0
  -24.5801  -20.0649   21.9622 C   0  0  0  0  0  0  0  0  0  0  0  0
  -23.2556  -20.7756   19.9286 C   0  0  0  0  0  0  0  0  0  0  0  0
  -25.7223  -20.6709   19.7923 C   0  0  0  0  0  0  0  0  0  0  0  0
  -21.0114  -28.7940   21.4125 C   0  0  1  0  0  0  0  0  0  0  0  0
  -23.6245  -30.0752   23.8546 C   0  0  1  0  0  0  0  0  0  0  0  0
  -25.8387  -20.6780   21.3239 C   0  0  2  0  0  0  0  0  0  0  0  0
  -30.8408  -23.8507   22.6300 C   0  0  0  0  0  0  0  0  0  0  0  0
  -27.6045  -36.5134   25.5018 C   0  0  0  0  0  0  0  0  0  0  0  0
  -24.3296  -33.3625   20.6833 C   0  0  0  0  0  0  0  0  0  0  0  0
  -25.8497  -35.2256   21.3806 C   0  0  0  0  0  0  0  0  0  0  0  0
  -23.5359  -35.0944   22.3034 C   0  0  0  0  0  0  0  0  0  0  0  0
  -25.2829  -23.9029   16.7705 C   0  0  0  0  0  0  0  0  0  0  0  0
  -27.6338  -33.2582   27.4713 C   0  0  0  0  0  0  0  0  0  0  0  0
  -27.7133  -23.3914   18.6660 C   0  0  0  0  0  0  0  0  0  0  0  0
  -30.6191  -26.4783   21.0469 C   0  0  0  0  0  0  0  0  0  0  0  0
  -26.2279  -23.5860   19.0270 C   0  0  0  0  0  0  0  0  0  0  0  0
  -29.6935  -27.5029   21.6938 C   0  0  0  0  0  0  0  0  0  1  0  0
  -25.2774  -33.4360   23.0838 C   0  0  1  0  0  0  0  0  0  0  0  0
  -27.0841  -35.1532   25.9398 C   0  0  2  0  0  0  0  0  0  0  0  0
  -24.7551  -34.2525   21.8681 C   0  0  0  0  0  0  0  0  0  0  0  0
  -27.5948  -18.9640   21.0780 N   0  0  0  0  0  0  0  0  0  0  0  0
  -29.0938  -25.1209   19.6699 N   0  0  0  0  0  0  0  0  0  0  0  0
  -29.9116  -25.1821   20.7345 N   0  0  0  0  0  0  0  0  0  0  0  0
  -27.1072  -19.9911   21.7946 N   0  0  0  0  0  0  0  0  0  0  0  0
  -24.6344  -31.0955   23.5663 N   0  0  0  0  0  0  0  0  0  0  0  0
  -24.4817  -21.3231   19.3471 N   0  0  0  0  0  0  0  0  0  0  0  0
  -27.5010  -21.2997   23.7293 N   0  0  0  0  0  0  0  0  0  0  0  0
  -29.7522  -18.5269   25.0096 N   0  0  0  0  0  0  0  0  0  0  0  0
  -21.7400  -29.2613   22.5724 N   0  0  0  0  0  0  0  0  0  0  0  0
  -25.6621  -34.2516   24.2306 N   0  0  0  0  0  0  0  0  0  0  0  0
  -25.3422  -23.0891   17.9763 N   0  0  0  0  0  0  0  0  0  0  0  0
  -28.0343  -34.5856   26.9377 N   0  3  0  0  0  0  0  0  0  0  0  0
  -30.9995  -20.0023   23.7742 O   0  0  0  0  0  0  0  0  0  0  0  0
  -23.8065  -29.5906   21.5509 O   0  0  0  0  0  0  0  0  0  0  0  0
  -23.1701  -32.8560   24.0053 O   0  0  0  0  0  0  0  0  0  0  0  0
  -27.8577  -33.5142   24.3421 O   0  0  0  0  0  0  0  0  0  0  0  0
  -23.5053  -21.8573   17.3273 O   0  0  0  0  0  0  0  0  0  0  0  0
  -31.8601  -14.3660   19.9747 O   0  0  0  0  0  0  0  0  0  0  0  0
  -29.1940  -26.9899   22.9281 O   0  0  0  0  0  0  0  0  0  1  0  0
  -29.7238  -10.9823   16.1812 F   0  0  0  0  0  0  0  0  0  0  0  0
  -31.0654  -15.3239   17.5062 F   0  0  0  0  0  0  0  0  0  0  0  0
  1  2  1  0  0  0  0
  1  5  2  0  0  0  0
  2  6  2  0  0  0  0
  3  8  2  0  0  0  0
  3 16  1  0  0  0  0
  4  9  1  0  0  0  0
  4 16  2  0  0  0  0
  5 18  1  0  0  0  0
  6 20  1  0  0  0  0
  7 10  2  0  0  0  0
  7 19  1  0  0  0  0
  8 22  1  0  0  0  0
  9 22  2  0  0  0  0
 10 23  1  0  0  0  0
 11 12  2  0  0  0  0
 11 24  1  0  0  0  0
 12 25  1  0  0  0  0
 13 21  1  0  0  0  0
 13 23  2  0  0  0  0
 14 25  2  0  0  0  0
 14 26  1  0  0  0  0
 15 28  1  0  0  0  0
 15 29  2  0  0  0  0
 16 27  1  0  0  0  0
 17 27  1  0  0  0  0
 17 30  2  0  0  0  0
 17 31  1  0  0  0  0
 18 20  2  0  0  0  0
 18 36  1  0  0  0  0
 19 21  2  0  0  0  0
 19 37  1  0  0  0  0
 20 45  1  0  0  0  0
 21 38  1  0  0  0  0
 22 79  1  0  0  0  0
 23 80  1  0  0  0  0
 24 26  2  0  0  0  0
 24 79  1  0  0  0  0
 25 81  1  0  0  0  0
 26 82  1  0  0  0  0
 27 62  2  0  0  0  0
 28 55  1  0  0  0  0
 28 63  2  0  0  0  0
 29 48  1  0  0  0  0
 29 64  1  0  0  0  0
 30 65  1  0  0  0  0
 30 68  1  0  0  0  0
 31 69  1  0  0  0  0
 31 74  2  0  0  0  0
 32 46  1  0  0  0  0
 32 70  1  0  0  0  0
 32 75  2  0  0  0  0
 33 59  1  0  0  0  0
 33 66  1  0  0  0  0
 33 76  2  0  0  0  0
 34 60  1  0  0  0  0
 34 71  1  0  0  0  0
 34 77  2  0  0  0  0
 35 67  1  0  0  0  0
 35 72  1  0  0  0  0
 35 78  2  0  0  0  0
 36 39  1  0  0  0  0
 37 46  1  0  0  0  0
 38 66  1  0  0  0  0
 39 41  1  0  0  0  0
 40 42  1  0  0  0  0
 40 43  1  0  0  0  0
 41 45  1  0  0  0  0
 42 47  1  0  0  0  0
 43 67  1  0  0  0  0
 44 47  1  0  0  0  0
 44 67  1  0  0  0  0
 45 70  1  0  0  0  0
 46 66  1  0  0  0  0
 47 65  1  0  0  0  0
 49 60  1  0  0  0  0
 50 61  1  0  0  0  0
 51 61  1  0  0  0  0
 52 61  1  0  0  0  0
 53 72  1  0  0  0  0
 54 73  1  0  0  0  0
 55 57  1  0  0  0  0
 56 58  1  0  0  0  0
 56 64  1  0  0  0  0
 57 72  1  0  0  0  0
 58 80  1  0  0  0  0
 59 61  1  0  0  0  0
 59 71  1  0  0  0  0
 60 73  1  0  0  0  0
 62 65  1  0  0  0  0
 63 64  1  0  0  0  0
M  CHG  1  73   1
M  ISO  4  35 100  58 101  72 100  80 101
M  END
> <Batch ID>
0056

> <Smiles>
CNC(C)C(=O)NC(C(=O)N1Cc2cc([101O:1][101CH2:1]Cn3nc(CC[100N:0](C)[100C:0](=O)N4CCCC(n5nc(-c6ccc(Oc7ccc(F)cc7F)cc6)c(C(N)=O)c5N)C4)cc3C)ccc2CC1C(=O)NC1CCCc2ccccc21)C(C)(C)C

> <Shape>
0.226

> <Color>
0.074

> <Negative vol penalty>
0.000

$$$$

  -OEChem-04052317463D

 81 89  0     1  0  0  0  0  0999 V2000
  -32.2552  -30.7496   21.2542 C   0  0  0  0  0  0  0  0  0  0  0  0
  -31.7169  -29.4675   21.2111 C   0  0  0  0  0  0  0  0  0  0  0  0
  -22.7624  -10.2667   20.1057 C   0  0  0  0  0  0  0  0  0  0  0  0
  -24.3777   -9.4489   21.7053 C   0  0  0  0  0  0  0  0  0  0  0  0
  -31.5167  -31.8309   20.7753 C   0  0  0  0  0  0  0  0  0  0  0  0
  -30.4392  -29.2661   20.6901 C   0  0  0  0  0  0  0  0  0  0  0  0
  -30.2201  -25.2859   17.5668 C   0  0  0  0  0  0  0  0  0  0  0  0
  -22.0354   -9.0834   20.2347 C   0  0  0  0  0  0  0  0  0  0  0  0
  -23.6507   -8.2655   21.8344 C   0  0  0  0  0  0  0  0  0  0  0  0
  -30.1738  -24.0205   18.1502 C   0  0  0  0  0  0  0  0  0  0  0  0
  -20.8662   -7.2169   23.4368 C   0  0  0  0  0  0  0  0  0  0  0  0
  -20.6491   -6.7287   24.7253 C   0  0  0  0  0  0  0  0  0  0  0  0
  -27.7874  -23.9548   17.8039 C   0  0  0  0  0  0  0  0  0  0  0  0
  -21.8095   -4.6897   24.1481 C   0  0  0  0  0  0  0  0  0  0  0  0
  -30.2313  -19.0607   19.1594 C   0  0  0  0  0  0  0  0  0  0  0  0
  -23.9336  -10.4495   20.8409 C   0  0  0  0  0  0  0  0  0  0  0  0
  -24.2386  -12.9784   20.9799 C   0  0  0  0  0  0  0  0  0  0  0  0
  -30.2332  -31.6413   20.2392 C   0  0  0  0  0  0  0  0  0  0  0  0
  -29.0469  -25.9009   17.1066 C   0  0  0  0  0  0  0  0  0  0  0  0
  -29.6824  -30.3461   20.2048 C   0  0  0  0  0  0  0  0  0  0  0  0
  -27.8219  -25.2270   17.2127 C   0  0  0  0  0  0  0  0  0  0  0  0
  -29.8874  -20.1996   19.8586 C   0  0  0  0  0  0  0  0  0  0  0  0
  -22.4795   -8.0827   21.0991 C   0  0  0  0  0  0  0  0  0  0  0  0
  -28.9569  -23.3560   18.2715 C   0  0  0  0  0  0  0  0  0  0  0  0
  -21.5548   -6.4415   22.5040 C   0  0  0  0  0  0  0  0  0  0  0  0
  -21.1208   -5.4651   25.0810 C   0  0  0  0  0  0  0  0  0  0  0  0
  -22.0265   -5.1779   22.8596 C   0  0  0  0  0  0  0  0  0  0  0  0
  -24.6854  -11.6714   20.7076 C   0  0  0  0  0  0  0  0  0  0  0  0
  -29.3025  -19.9899   21.0907 C   0  0  0  0  0  0  0  0  0  0  0  0
  -25.3199  -13.7767   20.6973 C   0  0  0  0  0  0  0  0  0  0  0  0
  -29.4475  -17.7362   20.8322 C   0  0  0  0  0  0  0  0  0  0  0  0
  -22.9605  -13.4303   21.4467 C   0  0  0  0  0  0  0  0  0  0  0  0
  -27.4686  -28.5588   17.8472 C   0  0  0  0  0  0  0  0  0  0  0  0
  -25.6454  -27.7221   15.2981 C   0  0  0  0  0  0  0  0  0  0  0  0
  -24.5165  -25.2542   13.2288 C   0  0  0  0  0  0  0  0  0  0  0  0
  -30.9145  -14.5038   21.3962 C   0  0  0  0  0  0  0  0  0  0  0  0
  -29.4541  -32.8472   19.7771 C   0  0  0  0  0  0  0  0  0  0  0  0
  -29.1175  -27.2549   16.4554 C   0  0  0  0  0  0  0  0  0  0  0  0
  -26.5366  -25.8352   16.7160 C   0  0  0  0  0  0  0  0  0  0  0  0
  -28.2571  -32.4982   18.8965 C   0  0  0  0  0  0  0  0  0  0  0  0
  -29.6860  -12.7387   18.3834 C   0  0  0  0  0  0  0  0  0  0  0  0
  -27.4576  -31.3538   19.5114 C   0  0  0  0  0  0  0  0  0  0  0  0
  -28.2620  -12.3534   18.7805 C   0  0  0  0  0  0  0  0  0  0  0  0
  -30.6048  -12.8429   19.5970 C   0  0  0  0  0  0  0  0  0  0  0  0
  -28.6783  -13.3748   21.0529 C   0  0  0  0  0  0  0  0  0  0  0  0
  -28.3097  -30.0839   19.6242 C   0  0  1  0  0  0  0  0  0  0  0  0
  -27.7888  -28.0037   16.4881 C   0  0  1  0  0  0  0  0  0  0  0  0
  -27.7159  -13.3067   19.8577 C   0  0  2  0  0  0  0  0  0  0  0  0
  -28.8888  -21.1487   21.9367 C   0  0  0  0  0  0  0  0  0  0  0  0
  -23.0072  -24.8705   11.2610 C   0  0  0  0  0  0  0  0  0  0  0  0
  -23.2115  -27.9439   17.1247 C   0  0  0  0  0  0  0  0  0  0  0  0
  -21.9021  -26.6605   15.4199 C   0  0  0  0  0  0  0  0  0  0  0  0
  -22.8808  -28.8774   14.8282 C   0  0  0  0  0  0  0  0  0  0  0  0
  -31.3005  -16.5888   22.6545 C   0  0  0  0  0  0  0  0  0  0  0  0
  -26.7538  -24.2769   11.5560 C   0  0  0  0  0  0  0  0  0  0  0  0
  -30.1432  -21.5656   19.2928 C   0  0  0  0  0  0  0  0  0  1  0  0
  -29.2038  -16.3681   21.3734 C   0  0  0  0  0  0  0  0  0  0  0  0
  -24.4079  -26.8807   15.0989 C   0  0  1  0  0  0  0  0  0  0  0  0
  -24.4270  -25.1709   11.7157 C   0  0  2  0  0  0  0  0  0  0  0  0
  -23.1243  -27.5797   15.6292 C   0  0  0  0  0  0  0  0  0  0  0  0
  -30.0251  -17.8087   19.6179 N   0  0  0  0  0  0  0  0  0  0  0  0
  -25.9517  -11.6371   20.2843 N   0  0  0  0  0  0  0  0  0  0  0  0
  -29.0667  -18.7673   21.6103 N   0  0  0  0  0  0  0  0  0  0  0  0
  -26.3099  -12.9324   20.2884 N   0  0  0  0  0  0  0  0  0  0  0  0
  -26.6566  -27.1635   16.0926 N   0  0  0  0  0  0  0  0  0  0  0  0
  -30.0414  -13.7209   20.6231 N   0  0  0  0  0  0  0  0  0  0  0  0
  -25.5109  -15.1116   20.7609 N   0  0  0  0  0  0  0  0  0  0  0  0
  -22.7511  -13.5303   22.8289 N   0  0  0  0  0  0  0  0  0  0  0  0
  -28.4202  -29.4334   18.3361 N   0  0  0  0  0  0  0  0  0  0  0  0
  -24.3643  -26.5486   13.6790 N   0  0  0  0  0  0  0  0  0  0  0  0
  -30.4288  -15.7362   21.8587 N   0  0  0  0  0  0  0  0  0  0  0  0
  -25.3223  -24.0959   11.2022 N   0  3  0  0  0  0  0  0  0  0  0  0
  -22.0262  -13.7207   20.6617 O   0  0  0  0  0  0  0  0  0  0  0  0
  -26.4342  -28.2199   18.4099 O   0  0  0  0  0  0  0  0  0  0  0  0
  -25.7153  -28.8311   14.7624 O   0  0  0  0  0  0  0  0  0  0  0  0
  -24.6991  -24.2690   13.9405 O   0  0  0  0  0  0  0  0  0  0  0  0
  -32.0659  -14.1272   21.6500 O   0  0  0  0  0  0  0  0  0  0  0  0
  -21.7702   -6.9280   21.2254 O   0  0  0  0  0  0  0  0  0  0  0  0
  -28.9088  -22.1211   18.8412 O   0  0  0  0  0  0  0  0  0  1  0  0
  -20.9137   -4.9971   26.3188 F   0  0  0  0  0  0  0  0  0  0  0  0
  -22.6898   -4.4289   21.9681 F   0  0  0  0  0  0  0  0  0  0  0  0
  1  2  1  0  0  0  0
  1  5  2  0  0  0  0
  2  6  2  0  0  0  0
  3  8  2  0  0  0  0
  3 16  1  0  0  0  0
  4  9  1  0  0  0  0
  4 16  2  0  0  0  0
  5 18  1  0  0  0  0
  6 20  1  0  0  0  0
  7 10  2  0  0  0  0
  7 19  1  0  0  0  0
  8 23  1  0  0  0  0
  9 23  2  0  0  0  0
 10 24  1  0  0  0  0
 11 12  2  0  0  0  0
 11 25  1  0  0  0  0
 12 26  1  0  0  0  0
 13 21  1  0  0  0  0
 13 24  2  0  0  0  0
 14 26  2  0  0  0  0
 14 27  1  0  0  0  0
 15 22  1  0  0  0  0
 15 61  2  0  0  0  0
 16 28  1  0  0  0  0
 17 28  1  0  0  0  0
 17 30  2  0  0  0  0
 17 32  1  0  0  0  0
 18 20  2  0  0  0  0
 18 37  1  0  0  0  0
 19 21  2  0  0  0  0
 19 38  1  0  0  0  0
 20 46  1  0  0  0  0
 21 39  1  0  0  0  0
 22 29  2  0  0  0  0
 22 56  1  0  0  0  0
 23 78  1  0  0  0  0
 24 79  1  0  0  0  0
 25 27  2  0  0  0  0
 25 78  1  0  0  0  0
 26 80  1  0  0  0  0
 27 81  1  0  0  0  0
 28 62  2  0  0  0  0
 29 49  1  0  0  0  0
 29 63  1  0  0  0  0
 30 64  1  0  0  0  0
 30 67  1  0  0  0  0
 31 57  1  0  0  0  0
 31 61  1  0  0  0  0
 31 63  2  0  0  0  0
 32 68  1  0  0  0  0
 32 73  2  0  0  0  0
 33 47  1  0  0  0  0
 33 69  1  0  0  0  0
 33 74  2  0  0  0  0
 34 58  1  0  0  0  0
 34 65  1  0  0  0  0
 34 75  2  0  0  0  0
 35 59  1  0  0  0  0
 35 70  1  0  0  0  0
 35 76  2  0  0  0  0
 36 66  1  0  0  0  0
 36 71  1  0  0  0  0
 36 77  2  0  0  0  0
 37 40  1  0  0  0  0
 38 47  1  0  0  0  0
 39 65  1  0  0  0  0
 40 42  1  0  0  0  0
 41 43  1  0  0  0  0
 41 44  1  0  0  0  0
 42 46  1  0  0  0  0
 43 48  1  0  0  0  0
 44 66  1  0  0  0  0
 45 48  1  0  0  0  0
 45 66  1  0  0  0  0
 46 69  1  0  0  0  0
 47 65  1  0  0  0  0
 48 64  1  0  0  0  0
 50 59  1  0  0  0  0
 51 60  1  0  0  0  0
 52 60  1  0  0  0  0
 53 60  1  0  0  0  0
 54 71  1  0  0  0  0
 55 72  1  0  0  0  0
 56 79  1  0  0  0  0
 57 71  1  0  0  0  0
 58 60  1  0  0  0  0
 58 70  1  0  0  0  0
 59 72  1  0  0  0  0
 62 64  1  0  0  0  0
M  CHG  1  72   1
M  ISO  4  36 100  56 101  71 100  79 101
M  END
> <Batch ID>
0056

> <Smiles>
CNC(C)C(=O)NC(C(=O)N1Cc2cc([101O:1][101CH2:1]c3cnc(C[100N:0](C)[100C:0](=O)N4CCCC(n5nc(-c6ccc(Oc7ccc(F)cc7F)cc6)c(C(N)=O)c5N)C4)nc3C)ccc2CC1C(=O)NC1CCCc2ccccc21)C(C)(C)C

> <Shape>
0.268

> <Color>
0.192

> <Negative vol penalty>
0.000

$$$$

  -OEChem-04052317463D

 89 97  0     1  0  0  0  0  0999 V2000
  -24.8252  -14.9446    5.8356 C   0  0  0  0  0  0  0  0  0  0  0  0
  -24.5450  -15.6652    6.9921 C   0  0  0  0  0  0  0  0  0  0  0  0
  -23.1203   -9.8780   19.9470 C   0  0  0  0  0  0  0  0  0  0  0  0
  -23.9131   -9.8967   22.2291 C   0  0  0  0  0  0  0  0  0  0  0  0
  -25.2640  -15.6088    4.6910 C   0  0  0  0  0  0  0  0  0  0  0  0
  -24.7044  -17.0504    7.0051 C   0  0  0  0  0  0  0  0  0  0  0  0
  -20.8173  -19.4329    9.2093 C   0  0  0  0  0  0  0  0  0  0  0  0
  -22.4042   -8.7093   20.2052 C   0  0  0  0  0  0  0  0  0  0  0  0
  -23.1969   -8.7279   22.4874 C   0  0  0  0  0  0  0  0  0  0  0  0
  -20.7774  -19.4317   10.6030 C   0  0  0  0  0  0  0  0  0  0  0  0
  -21.2888   -5.9477   23.8468 C   0  0  0  0  0  0  0  0  0  0  0  0
  -20.5507   -5.8864   25.0288 C   0  0  0  0  0  0  0  0  0  0  0  0
  -21.6806  -21.6684   10.6247 C   0  0  0  0  0  0  0  0  0  0  0  0
  -19.2557   -7.7987   24.3193 C   0  0  0  0  0  0  0  0  0  0  0  0
  -27.6679  -18.0463   18.2592 C   0  0  0  0  0  0  0  0  0  0  0  0
  -23.8748  -10.4717   20.9589 C   0  0  0  0  0  0  0  0  0  0  0  0
  -24.1624  -13.0037   20.8393 C   0  0  0  0  0  0  0  0  0  0  0  0
  -25.4197  -17.0040    4.6869 C   0  0  0  0  0  0  0  0  0  0  0  0
  -21.3002  -20.5496    8.5121 C   0  0  0  0  0  0  0  0  0  0  0  0
  -25.1470  -17.7338    5.8597 C   0  0  0  0  0  0  0  0  0  0  0  0
  -21.7233  -21.6822    9.2222 C   0  0  0  0  0  0  0  0  0  0  0  0
  -22.4425   -8.1342   21.4755 C   0  0  0  0  0  0  0  0  0  0  0  0
  -21.2118  -20.5485   11.3109 C   0  0  0  0  0  0  0  0  0  0  0  0
  -21.0105   -6.9347   22.9012 C   0  0  0  0  0  0  0  0  0  0  0  0
  -19.5341   -6.8118   25.2650 C   0  0  0  0  0  0  0  0  0  0  0  0
  -19.9939   -7.8601   23.1374 C   0  0  0  0  0  0  0  0  0  0  0  0
  -24.6152  -11.6788   20.6926 C   0  0  0  0  0  0  0  0  0  0  0  0
  -26.5079  -18.6698   17.8471 C   0  0  0  0  0  0  0  0  0  0  0  0
  -28.1083  -18.3800   19.5237 C   0  0  0  0  0  0  0  0  0  0  0  0
  -25.2334  -13.7763   20.4618 C   0  0  0  0  0  0  0  0  0  0  0  0
  -26.3532  -19.7946   19.8164 C   0  0  0  0  0  0  0  0  0  0  0  0
  -22.8877  -13.4922   21.2776 C   0  0  0  0  0  0  0  0  0  0  0  0
  -23.7292  -21.0791    6.5313 C   0  0  0  0  0  0  0  0  0  0  0  0
  -22.3523  -24.0025    6.2474 C   0  0  0  0  0  0  0  0  0  0  0  0
  -20.3377  -26.4001    7.6037 C   0  0  0  0  0  0  0  0  0  0  0  0
  -30.8318  -14.6043   21.0002 C   0  0  0  0  0  0  0  0  0  0  0  0
  -25.9419  -17.6725    3.4400 C   0  0  0  0  0  0  0  0  0  0  0  0
  -21.3118  -20.5453    7.0080 C   0  0  0  0  0  0  0  0  0  0  0  0
  -22.2316  -22.9141    8.5203 C   0  0  0  0  0  0  0  0  0  0  0  0
  -25.7261  -19.1836    3.4231 C   0  0  0  0  0  0  0  0  0  0  0  0
  -29.5738  -12.5384   18.1982 C   0  0  0  0  0  0  0  0  0  0  0  0
  -26.1362  -19.7964    4.7585 C   0  0  0  0  0  0  0  0  0  0  0  0
  -28.1586  -12.1861   18.6533 C   0  0  0  0  0  0  0  0  0  0  0  0
  -30.5090  -12.7695   19.3813 C   0  0  0  0  0  0  0  0  0  0  0  0
  -28.5996  -13.4328   20.8055 C   0  0  0  0  0  0  0  0  0  0  0  0
  -25.2840  -19.2402    5.9056 C   0  0  1  0  0  0  0  0  0  0  0  0
  -22.3041  -21.5410    6.4152 C   0  0  1  0  0  0  0  0  0  0  0  0
  -27.6207  -13.2393   19.6376 C   0  0  2  0  0  0  0  0  0  0  0  0
  -25.6215  -20.7628   20.6831 C   0  0  0  0  0  0  0  0  0  0  0  0
  -19.4315  -28.6967    7.1544 C   0  0  0  0  0  0  0  0  0  0  0  0
  -25.0597  -25.2096    6.9702 C   0  0  0  0  0  0  0  0  0  0  0  0
  -23.8921  -27.3753    7.4337 C   0  0  0  0  0  0  0  0  0  0  0  0
  -23.8424  -26.3999    5.1383 C   0  0  0  0  0  0  0  0  0  0  0  0
  -31.2197  -16.8073   22.0374 C   0  0  0  0  0  0  0  0  0  0  0  0
  -17.5420  -25.4295    7.6354 C   0  0  0  0  0  0  0  0  0  0  0  0
  -21.9313  -19.0641   17.8148 C   0  0  0  0  0  0  0  0  0  0  0  0
  -25.9477  -18.3686   16.4799 C   0  0  0  0  0  0  0  0  0  0  0  0
  -29.3538  -17.7550   20.0571 C   0  0  0  0  0  0  0  0  0  0  0  0
  -24.9609  -17.1938   16.4581 C   0  0  0  0  0  0  0  0  0  0  0  0
  -21.9759  -19.5259   14.6869 C   0  0  0  0  0  0  0  0  0  0  0  0
  -29.1067  -16.4463   20.8166 C   0  0  0  0  0  0  0  0  0  0  0  0
  -23.6946  -17.3869   17.2868 C   0  0  0  0  0  0  0  0  0  0  0  0
  -22.2154  -18.2492   15.4787 C   0  0  0  0  0  0  0  0  0  0  0  0
  -21.3308  -19.2917   13.3264 C   0  0  0  0  0  0  0  0  0  1  0  0
  -22.4802  -25.3196    6.9739 C   0  0  1  0  0  0  0  0  0  0  0  0
  -19.1899  -27.2016    7.0166 C   0  0  2  0  0  0  0  0  0  0  0  0
  -23.8109  -26.0523    6.6426 C   0  0  0  0  0  0  0  0  0  0  0  0
  -25.8756  -11.6100   20.2559 N   0  0  0  0  0  0  0  0  0  0  0  0
  -25.8222  -19.5525   18.6027 N   0  0  0  0  0  0  0  0  0  0  0  0
  -27.4734  -19.2538   20.3323 N   0  0  0  0  0  0  0  0  0  0  0  0
  -26.2239  -12.9014   20.1248 N   0  0  0  0  0  0  0  0  0  0  0  0
  -22.2293  -22.8588    7.0491 N   0  0  0  0  0  0  0  0  0  0  0  0
  -29.9537  -13.7425   20.3227 N   0  0  0  0  0  0  0  0  0  0  0  0
  -25.4151  -15.1120   20.3886 N   0  0  0  0  0  0  0  0  0  0  0  0
  -21.8999  -12.5616   21.6276 N   0  0  0  0  0  0  0  0  0  0  0  0
  -23.9798  -19.8673    5.9164 N   0  0  0  0  0  0  0  0  0  0  0  0
  -21.2805  -26.0834    6.6487 N   0  0  0  0  0  0  0  0  0  0  0  0
  -30.3433  -15.8738   21.3442 N   0  0  0  0  0  0  0  0  0  0  0  0
  -17.9149  -26.8655    7.7111 N   0  3  0  0  0  0  0  0  0  0  0  0
  -22.8870  -18.5509   16.7646 N   0  3  1  0  0  0  0  0  0  0  0  0
  -22.6268  -14.7176   21.3410 O   0  0  0  0  0  0  0  0  0  0  0  0
  -24.5416  -21.7717    7.1329 O   0  0  0  0  0  0  0  0  0  0  0  0
  -22.3539  -23.9896    5.0139 O   0  0  0  0  0  0  0  0  0  0  0  0
  -20.3943  -26.0896    8.7915 O   0  0  0  0  0  0  0  0  0  0  0  0
  -31.9895  -14.2621   21.2732 O   0  0  0  0  0  0  0  0  0  0  0  0
  -21.7437   -6.9938   21.7279 O   0  0  0  0  0  0  0  0  0  0  0  0
  -21.1745  -20.5497   12.6713 O   0  0  0  0  0  0  0  0  0  1  0  0
  -18.8243   -6.7518   26.3994 F   0  0  0  0  0  0  0  0  0  0  0  0
  -19.7211   -8.8097   22.2321 F   0  0  0  0  0  0  0  0  0  0  0  0
  1  2  1  0  0  0  0
  1  5  2  0  0  0  0
  2  6  2  0  0  0  0
  3  8  2  0  0  0  0
  3 16  1  0  0  0  0
  4  9  1  0  0  0  0
  4 16  2  0  0  0  0
  5 18  1  0  0  0  0
  6 20  1  0  0  0  0
  7 10  2  0  0  0  0
  7 19  1  0  0  0  0
  8 22  1  0  0  0  0
  9 22  2  0  0  0  0
 10 23  1  0  0  0  0
 11 12  2  0  0  0  0
 11 24  1  0  0  0  0
 12 25  1  0  0  0  0
 13 21  1  0  0  0  0
 13 23  2  0  0  0  0
 14 25  2  0  0  0  0
 14 26  1  0  0  0  0
 15 28  1  0  0  0  0
 15 29  2  0  0  0  0
 16 27  1  0  0  0  0
 17 27  1  0  0  0  0
 17 30  2  0  0  0  0
 17 32  1  0  0  0  0
 18 20  2  0  0  0  0
 18 37  1  0  0  0  0
 19 21  2  0  0  0  0
 19 38  1  0  0  0  0
 20 46  1  0  0  0  0
 21 39  1  0  0  0  0
 22 86  1  0  0  0  0
 23 87  1  0  0  0  0
 24 26  2  0  0  0  0
 24 86  1  0  0  0  0
 25 88  1  0  0  0  0
 26 89  1  0  0  0  0
 27 68  2  0  0  0  0
 28 57  1  0  0  0  0
 28 69  2  0  0  0  0
 29 58  1  0  0  0  0
 29 70  1  0  0  0  0
 30 71  1  0  0  0  0
 30 74  1  0  0  0  0
 31 49  1  0  0  0  0
 31 69  1  0  0  0  0
 31 70  2  0  0  0  0
 32 75  1  0  0  0  0
 32 81  2  0  0  0  0
 33 47  1  0  0  0  0
 33 76  1  0  0  0  0
 33 82  2  0  0  0  0
 34 65  1  0  0  0  0
 34 72  1  0  0  0  0
 34 83  2  0  0  0  0
 35 66  1  0  0  0  0
 35 77  1  0  0  0  0
 35 84  2  0  0  0  0
 36 73  1  0  0  0  0
 36 78  1  0  0  0  0
 36 85  2  0  0  0  0
 37 40  1  0  0  0  0
 38 47  1  0  0  0  0
 39 72  1  0  0  0  0
 40 42  1  0  0  0  0
 41 43  1  0  0  0  0
 41 44  1  0  0  0  0
 42 46  1  0  0  0  0
 43 48  1  0  0  0  0
 44 73  1  0  0  0  0
 45 48  1  0  0  0  0
 45 73  1  0  0  0  0
 46 76  1  0  0  0  0
 47 72  1  0  0  0  0
 48 71  1  0  0  0  0
 50 66  1  0  0  0  0
 51 67  1  0  0  0  0
 52 67  1  0  0  0  0
 53 67  1  0  0  0  0
 54 78  1  0  0  0  0
 55 79  1  0  0  0  0
 56 80  1  0  0  0  0
 57 59  1  0  0  0  0
 58 61  1  0  0  0  0
 59 62  1  0  0  0  0
 60 63  1  0  0  0  0
 60 64  1  0  0  0  0
 61 78  1  0  0  0  0
 62 80  1  0  0  0  0
 63 80  1  0  0  0  0
 64 87  1  0  0  0  0
 65 67  1  0  0  0  0
 65 77  1  0  0  0  0
 66 79  1  0  0  0  0
 68 71  1  0  0  0  0
M  CHG  2  79   1  80   1
M  ISO  4  36 100  64 101  78 100  87 101
M  END
> <Batch ID>
0056

> <Smiles>
CNC(C)C(=O)NC(C(=O)N1Cc2cc([101O:1][101CH2:1]CCN(C)CCCc3cc(CC[100N:0](C)[100C:0](=O)N4CCCC(n5nc(-c6ccc(Oc7ccc(F)cc7F)cc6)c(C(N)=O)c5N)C4)nc(C)n3)ccc2CC1C(=O)NC1CCCc2ccccc21)C(C)(C)C

> <Shape>
0.179

> <Color>
0.170

> <Negative vol penalty>
0.000

$$$$

  -OEChem-04052317463D

 85 93  0     1  0  0  0  0  0999 V2000
  -32.5327  -30.1414   23.4519 C   0  0  0  0  0  0  0  0  0  0  0  0
  -33.3037  -29.1438   22.8638 C   0  0  0  0  0  0  0  0  0  0  0  0
  -23.1534   -9.8802   19.9083 C   0  0  0  0  0  0  0  0  0  0  0  0
  -23.8843   -9.8810   22.2110 C   0  0  0  0  0  0  0  0  0  0  0  0
  -31.1414  -30.0617   23.4094 C   0  0  0  0  0  0  0  0  0  0  0  0
  -32.6837  -28.0653   22.2337 C   0  0  0  0  0  0  0  0  0  0  0  0
  -33.5662  -23.5451   16.7469 C   0  0  0  0  0  0  0  0  0  0  0  0
  -22.4369   -8.7054   20.1361 C   0  0  0  0  0  0  0  0  0  0  0  0
  -23.1678   -8.7062   22.4389 C   0  0  0  0  0  0  0  0  0  0  0  0
  -33.5745  -22.1793   16.4673 C   0  0  0  0  0  0  0  0  0  0  0  0
  -19.9543   -7.8180   22.9916 C   0  0  0  0  0  0  0  0  0  0  0  0
  -19.1842   -7.7452   24.1523 C   0  0  0  0  0  0  0  0  0  0  0  0
  -31.1635  -22.1873   16.3865 C   0  0  0  0  0  0  0  0  0  0  0  0
  -20.4666   -5.8325   24.8832 C   0  0  0  0  0  0  0  0  0  0  0  0
  -32.0451  -18.2716   19.1274 C   0  0  0  0  0  0  0  0  0  0  0  0
  -30.6678  -17.3758   17.6586 C   0  0  0  0  0  0  0  0  0  0  0  0
  -23.8772  -10.4680   20.9457 C   0  0  0  0  0  0  0  0  0  0  0  0
  -24.1544  -13.0024   20.8578 C   0  0  0  0  0  0  0  0  0  0  0  0
  -30.5040  -28.9866   22.7701 C   0  0  0  0  0  0  0  0  0  0  0  0
  -32.3541  -24.2412   16.8594 C   0  0  0  0  0  0  0  0  0  0  0  0
  -31.2826  -27.9705   22.1838 C   0  0  0  0  0  0  0  0  0  0  0  0
  -31.1427  -23.5625   16.6651 C   0  0  0  0  0  0  0  0  0  0  0  0
  -22.4440   -8.1184   21.4014 C   0  0  0  0  0  0  0  0  0  0  0  0
  -32.3730  -21.4996   16.2899 C   0  0  0  0  0  0  0  0  0  0  0  0
  -20.9806   -6.8980   22.7766 C   0  0  0  0  0  0  0  0  0  0  0  0
  -19.4404   -6.7525   25.0981 C   0  0  0  0  0  0  0  0  0  0  0  0
  -21.2367   -5.9053   23.7224 C   0  0  0  0  0  0  0  0  0  0  0  0
  -24.6180  -11.6813   20.7109 C   0  0  0  0  0  0  0  0  0  0  0  0
  -30.8125  -18.0198   19.6822 C   0  0  0  0  0  0  0  0  0  0  0  0
  -25.2310  -13.7841   20.5166 C   0  0  0  0  0  0  0  0  0  0  0  0
  -22.8658  -13.4803   21.2662 C   0  0  0  0  0  0  0  0  0  0  0  0
  -30.8982  -25.8492   19.1829 C   0  0  0  0  0  0  0  0  0  0  0  0
  -28.7859  -26.5703   16.8291 C   0  0  0  0  0  0  0  0  0  0  0  0
  -27.4019  -25.7366   13.8230 C   0  0  0  0  0  0  0  0  0  0  0  0
  -30.6835  -14.9431   20.7857 C   0  0  0  0  0  0  0  0  0  0  0  0
  -28.9975  -28.9195   22.7910 C   0  0  0  0  0  0  0  0  0  0  0  0
  -32.3631  -25.7199   17.1351 C   0  0  0  0  0  0  0  0  0  0  0  0
  -29.8150  -24.2679   16.7554 C   0  0  0  0  0  0  0  0  0  0  0  0
  -28.4175  -27.9361   21.7776 C   0  0  0  0  0  0  0  0  0  0  0  0
  -29.6383  -12.5570   18.3587 C   0  0  0  0  0  0  0  0  0  0  0  0
  -29.1686  -26.6095   21.8310 C   0  0  0  0  0  0  0  0  0  0  0  0
  -28.2037  -12.2211   18.7701 C   0  0  0  0  0  0  0  0  0  0  0  0
  -30.5344  -12.7880   19.5735 C   0  0  0  0  0  0  0  0  0  0  0  0
  -28.5971  -13.4537   20.9438 C   0  0  0  0  0  0  0  0  0  0  0  0
  -30.6469  -26.7976   21.4694 C   0  0  1  0  0  0  0  0  0  0  0  0
  -31.0545  -26.2236   17.7361 C   0  0  1  0  0  0  0  0  0  0  0  0
  -27.6425  -13.2671   19.7520 C   0  0  2  0  0  0  0  0  0  0  0  0
  -34.1298  -15.6267   17.3895 C   0  0  0  0  0  0  0  0  0  0  0  0
  -25.6727  -26.4982   12.1716 C   0  0  0  0  0  0  0  0  0  0  0  0
  -28.8308  -18.5874   21.2466 C   0  0  0  0  0  0  0  0  0  0  0  0
  -31.0868  -19.5306   21.6671 C   0  0  0  0  0  0  0  0  0  0  0  0
  -26.5803  -25.5247   18.6600 C   0  0  0  0  0  0  0  0  0  0  0  0
  -25.0708  -25.4187   16.6654 C   0  0  0  0  0  0  0  0  0  0  0  0
  -25.9974  -27.6115   17.4109 C   0  0  0  0  0  0  0  0  0  0  0  0
  -32.5992  -17.3591   15.3790 C   0  0  0  0  0  0  0  0  0  0  0  0
  -29.4222  -26.0714   11.6864 C   0  0  0  0  0  0  0  0  0  0  0  0
  -34.3112  -17.1329   17.2231 C   0  0  0  0  0  0  0  0  0  0  0  0
  -30.6778  -17.0806   22.0469 C   0  0  0  0  0  0  0  0  0  0  0  0
  -33.4606  -19.4000   16.5442 C   0  0  0  0  0  0  0  0  0  1  0  0
  -27.5253  -25.9360   16.2927 C   0  0  1  0  0  0  0  0  0  0  0  0
  -27.1383  -26.5571   12.5733 C   0  0  2  0  0  0  0  0  0  0  0  0
  -30.3656  -18.2735   21.0603 C   0  0  0  0  0  0  0  0  0  0  0  0
  -26.3182  -26.1087   17.2574 C   0  0  0  0  0  0  0  0  0  0  0  0
  -33.0416  -17.9156   16.7563 C   0  0  1  0  0  0  0  0  0  0  0  0
  -29.9598  -17.4619   18.7628 N   0  0  0  0  0  0  0  0  0  0  0  0
  -25.8900  -11.6231   20.3076 N   0  0  0  0  0  0  0  0  0  0  0  0
  -31.9373  -17.8534   17.8310 N   0  0  0  0  0  0  0  0  0  0  0  0
  -26.2348  -12.9174   20.1982 N   0  0  0  0  0  0  0  0  0  0  0  0
  -29.8760  -25.7125   17.0332 N   0  0  0  0  0  0  0  0  0  0  0  0
  -29.9462  -13.7918   20.4636 N   0  0  0  0  0  0  0  0  0  0  0  0
  -25.4074  -15.1213   20.4609 N   0  0  0  0  0  0  0  0  0  0  0  0
  -21.8738  -12.5414   21.5806 N   0  0  0  0  0  0  0  0  0  0  0  0
  -30.8038  -26.9314   20.0370 N   0  0  0  0  0  0  0  0  0  0  0  0
  -27.3155  -26.5039   14.9654 N   0  0  0  0  0  0  0  0  0  0  0  0
  -30.0499  -15.8465   21.6302 N   0  0  0  0  0  0  0  0  0  0  0  0
  -27.9578  -26.0483   11.4373 N   0  3  0  0  0  0  0  0  0  0  0  0
  -22.5967  -14.7036   21.3340 O   0  0  0  0  0  0  0  0  0  0  0  0
  -30.8643  -24.6662   19.5006 O   0  0  0  0  0  0  0  0  0  0  0  0
  -28.8049  -27.7834   17.0518 O   0  0  0  0  0  0  0  0  0  0  0  0
  -27.6552  -24.5344   13.7895 O   0  0  0  0  0  0  0  0  0  0  0  0
  -31.8200  -15.1532   20.3485 O   0  0  0  0  0  0  0  0  0  0  0  0
  -21.7447   -6.9721   21.6242 O   0  0  0  0  0  0  0  0  0  0  0  0
  -32.3782  -20.1663   16.0175 O   0  0  0  0  0  0  0  0  0  1  0  0
  -18.7018   -6.6836   26.2134 F   0  0  0  0  0  0  0  0  0  0  0  0
  -22.2220   -5.0194   23.5220 F   0  0  0  0  0  0  0  0  0  0  0  0
  1  2  1  0  0  0  0
  1  5  2  0  0  0  0
  2  6  2  0  0  0  0
  3  8  2  0  0  0  0
  3 17  1  0  0  0  0
  4  9  1  0  0  0  0
  4 17  2  0  0  0  0
  5 19  1  0  0  0  0
  6 21  1  0  0  0  0
  7 10  2  0  0  0  0
  7 20  1  0  0  0  0
  8 23  1  0  0  0  0
  9 23  2  0  0  0  0
 10 24  1  0  0  0  0
 11 12  2  0  0  0  0
 11 25  1  0  0  0  0
 12 26  1  0  0  0  0
 13 22  1  0  0  0  0
 13 24  2  0  0  0  0
 14 26  2  0  0  0  0
 14 27  1  0  0  0  0
 15 29  2  0  0  0  0
 15 67  1  0  0  0  0
 16 65  2  0  0  0  0
 16 67  1  0  0  0  0
 17 28  1  0  0  0  0
 18 28  1  0  0  0  0
 18 30  2  0  0  0  0
 18 31  1  0  0  0  0
 19 21  2  0  0  0  0
 19 36  1  0  0  0  0
 20 22  2  0  0  0  0
 20 37  1  0  0  0  0
 21 45  1  0  0  0  0
 22 38  1  0  0  0  0
 23 82  1  0  0  0  0
 24 83  1  0  0  0  0
 25 27  2  0  0  0  0
 25 82  1  0  0  0  0
 26 84  1  0  0  0  0
 27 85  1  0  0  0  0
 28 66  2  0  0  0  0
 29 62  1  0  0  0  0
 29 65  1  0  0  0  0
 30 68  1  0  0  0  0
 30 71  1  0  0  0  0
 31 72  1  0  0  0  0
 31 77  2  0  0  0  0
 32 46  1  0  0  0  0
 32 73  1  0  0  0  0
 32 78  2  0  0  0  0
 33 60  1  0  0  0  0
 33 69  1  0  0  0  0
 33 79  2  0  0  0  0
 34 61  1  0  0  0  0
 34 74  1  0  0  0  0
 34 80  2  0  0  0  0
 35 70  1  0  0  0  0
 35 75  1  0  0  0  0
 35 81  2  0  0  0  0
 36 39  1  0  0  0  0
 37 46  1  0  0  0  0
 38 69  1  0  0  0  0
 39 41  1  0  0  0  0
 40 42  1  0  0  0  0
 40 43  1  0  0  0  0
 41 45  1  0  0  0  0
 42 47  1  0  0  0  0
 43 70  1  0  0  0  0
 44 47  1  0  0  0  0
 44 70  1  0  0  0  0
 45 73  1  0  0  0  0
 46 69  1  0  0  0  0
 47 68  1  0  0  0  0
 48 57  1  0  0  0  0
 49 61  1  0  0  0  0
 50 62  1  0  0  0  0
 51 62  1  0  0  0  0
 52 63  1  0  0  0  0
 53 63  1  0  0  0  0
 54 63  1  0  0  0  0
 55 64  1  0  0  0  0
 56 76  1  0  0  0  0
 57 64  1  0  0  0  0
 58 62  1  0  0  0  0
 58 75  1  0  0  0  0
 59 64  1  0  0  0  0
 59 83  1  0  0  0  0
 60 63  1  0  0  0  0
 60 74  1  0  0  0  0
 61 76  1  0  0  0  0
 64 67  1  0  0  0  0
 66 68  1  0  0  0  0
M  CHG  1  76   1
M  ISO  4  35 100  59 101  75 100  83 101
M  END
> <Batch ID>
0056

> <Smiles>
CCC(C)(n1cnc(C(C)(C)C[100NH:0][100C:0](=O)N2CCCC(n3nc(-c4ccc(Oc5ccc(F)cc5F)cc4)c(C(N)=O)c3N)C2)c1)[101CH2:1][101O:1]c1ccc2c(c1)CN(C(=O)C(NC(=O)C(C)NC)C(C)(C)C)C(C(=O)NC1CCCc3ccccc31)C2

> <Shape>
0.250

> <Color>
0.201

> <Negative vol penalty>
0.000

$$$$

  -OEChem-04052317463D

 81 89  0     1  0  0  0  0  0999 V2000
  -36.4593  -27.7576   21.2918 C   0  0  0  0  0  0  0  0  0  0  0  0
  -35.4196  -26.8343   21.2490 C   0  0  0  0  0  0  0  0  0  0  0  0
  -23.7851   -9.8207   21.6043 C   0  0  0  0  0  0  0  0  0  0  0  0
  -24.5764  -10.9646   23.5798 C   0  0  0  0  0  0  0  0  0  0  0  0
  -36.1932  -29.0917   21.5975 C   0  0  0  0  0  0  0  0  0  0  0  0
  -34.1132  -27.2443   21.5130 C   0  0  0  0  0  0  0  0  0  0  0  0
  -30.7776  -25.3534   18.2049 C   0  0  0  0  0  0  0  0  0  0  0  0
  -23.3081   -8.7783   22.3990 C   0  0  0  0  0  0  0  0  0  0  0  0
  -24.0994   -9.9222   24.3745 C   0  0  0  0  0  0  0  0  0  0  0  0
  -30.3889  -24.0261   18.3808 C   0  0  0  0  0  0  0  0  0  0  0  0
  -20.6281   -8.1742   24.3702 C   0  0  0  0  0  0  0  0  0  0  0  0
  -19.3504   -7.6849   24.0992 C   0  0  0  0  0  0  0  0  0  0  0  0
  -28.3546  -24.7690   19.4433 C   0  0  0  0  0  0  0  0  0  0  0  0
  -20.2799   -5.4971   23.6671 C   0  0  0  0  0  0  0  0  0  0  0  0
  -27.4243  -19.9470   21.0668 C   0  0  0  0  0  0  0  0  0  0  0  0
  -26.8419  -18.7606   19.3033 C   0  0  0  0  0  0  0  0  0  0  0  0
  -24.4193  -10.9139   22.1947 C   0  0  0  0  0  0  0  0  0  0  0  0
  -24.2157  -13.1494   20.9829 C   0  0  0  0  0  0  0  0  0  0  0  0
  -34.8816  -29.5202   21.8559 C   0  0  0  0  0  0  0  0  0  0  0  0
  -29.9614  -26.4000   18.6574 C   0  0  0  0  0  0  0  0  0  0  0  0
  -33.8295  -28.5851   21.8237 C   0  0  0  0  0  0  0  0  0  0  0  0
  -28.7341  -26.1087   19.2696 C   0  0  0  0  0  0  0  0  0  0  0  0
  -23.4652   -8.8291   23.7840 C   0  0  0  0  0  0  0  0  0  0  0  0
  -29.1786  -23.7336   19.0027 C   0  0  0  0  0  0  0  0  0  0  0  0
  -21.7318   -7.3251   24.2896 C   0  0  0  0  0  0  0  0  0  0  0  0
  -19.1763   -6.3463   23.7476 C   0  0  0  0  0  0  0  0  0  0  0  0
  -21.5577   -5.9865   23.9381 C   0  0  0  0  0  0  0  0  0  0  0  0
  -24.9128  -11.9907   21.3744 C   0  0  0  0  0  0  0  0  0  0  0  0
  -27.3183  -20.7336   19.9441 C   0  0  0  0  0  0  0  0  0  0  0  0
  -25.1160  -13.8497   20.2178 C   0  0  0  0  0  0  0  0  0  0  0  0
  -22.8742  -13.5563   21.2841 C   0  0  0  0  0  0  0  0  0  0  0  0
  -30.2871  -28.7398   20.7841 C   0  0  0  0  0  0  0  0  0  0  0  0
  -27.4163  -29.6835   19.6052 C   0  0  0  0  0  0  0  0  0  0  0  0
  -24.5191  -28.8382   18.0119 C   0  0  0  0  0  0  0  0  0  0  0  0
  -30.9767  -14.7010   20.3194 C   0  0  0  0  0  0  0  0  0  0  0  0
  -34.6494  -30.9631   22.2282 C   0  0  0  0  0  0  0  0  0  0  0  0
  -30.3826  -27.8269   18.4361 C   0  0  0  0  0  0  0  0  0  0  0  0
  -27.8122  -27.1963   19.7552 C   0  0  0  0  0  0  0  0  0  0  0  0
  -33.1873  -31.3905   22.1275 C   0  0  0  0  0  0  0  0  0  0  0  0
  -29.2263  -12.7150   17.7322 C   0  0  0  0  0  0  0  0  0  0  0  0
  -32.2816  -30.3535   22.7841 C   0  0  0  0  0  0  0  0  0  0  0  0
  -27.9000  -12.3783   18.4115 C   0  0  0  0  0  0  0  0  0  0  0  0
  -30.3504  -12.9055   18.7460 C   0  0  0  0  0  0  0  0  0  0  0  0
  -28.7196  -13.5730   20.4807 C   0  0  0  0  0  0  0  0  0  0  0  0
  -32.3957  -28.9962   22.0798 C   0  0  1  0  0  0  0  0  0  0  0  0
  -29.7124  -28.8037   19.3973 C   0  0  1  0  0  0  0  0  0  0  0  0
  -27.5558  -13.4204   19.4898 C   0  0  2  0  0  0  0  0  0  0  0  0
  -22.3468  -29.8164   17.2236 C   0  0  0  0  0  0  0  0  0  0  0  0
  -26.3808  -29.6908   22.4754 C   0  0  0  0  0  0  0  0  0  0  0  0
  -24.0506  -29.7320   21.5608 C   0  0  0  0  0  0  0  0  0  0  0  0
  -25.6096  -31.6199   21.0833 C   0  0  0  0  0  0  0  0  0  0  0  0
  -31.5778  -16.8753   21.3148 C   0  0  0  0  0  0  0  0  0  0  0  0
  -25.1101  -28.1727   15.1893 C   0  0  0  0  0  0  0  0  0  0  0  0
  -27.5446  -22.2118   19.8212 C   0  0  0  0  0  0  0  0  0  1  0  0
  -28.4776  -16.8923   21.7166 C   0  0  0  0  0  0  0  0  0  0  0  0
  -27.0904  -17.4926   21.4510 C   0  0  0  0  0  0  0  0  0  0  0  0
  -29.2836  -16.5763   20.4586 C   0  0  0  0  0  0  0  0  0  0  0  0
  -25.9739  -29.3929   19.9432 C   0  0  1  0  0  0  0  0  0  0  0  0
  -23.7829  -29.4826   16.8511 C   0  0  2  0  0  0  0  0  0  0  0  0
  -25.5218  -30.0882   21.2584 C   0  0  0  0  0  0  0  0  0  0  0  0
  -26.9552  -19.9892   18.8498 N   0  0  0  0  0  0  0  0  0  0  0  0
  -26.1597  -11.9532   20.8972 N   0  0  0  0  0  0  0  0  0  0  0  0
  -27.1157  -18.6859   20.6408 N   0  0  0  0  0  0  0  0  0  0  0  0
  -26.2532  -13.0971   20.1979 N   0  0  0  0  0  0  0  0  0  0  0  0
  -28.2713  -28.5755   19.5214 N   0  0  0  0  0  0  0  0  0  0  0  0
  -29.9803  -13.8687   19.7836 N   0  0  0  0  0  0  0  0  0  0  0  0
  -25.0378  -15.0297   19.5667 N   0  0  0  0  0  0  0  0  0  0  0  0
  -22.0856  -12.7184   22.0842 N   0  0  0  0  0  0  0  0  0  0  0  0
  -31.6423  -29.0030   20.8442 N   0  0  0  0  0  0  0  0  0  0  0  0
  -25.1952  -29.7714   18.7690 N   0  0  0  0  0  0  0  0  0  0  0  0
  -30.5789  -15.9716   20.7621 N   0  0  0  0  0  0  0  0  0  0  0  0
  -23.7628  -28.5649   15.6770 N   0  3  0  0  0  0  0  0  0  0  0  0
  -22.3839  -14.6233   20.8427 O   0  0  0  0  0  0  0  0  0  0  0  0
  -29.5549  -28.4730   21.7299 O   0  0  0  0  0  0  0  0  0  0  0  0
  -27.7697  -30.8500   19.4153 O   0  0  0  0  0  0  0  0  0  0  0  0
  -24.4937  -27.6285   18.2276 O   0  0  0  0  0  0  0  0  0  0  0  0
  -32.1565  -14.3331   20.3889 O   0  0  0  0  0  0  0  0  0  0  0  0
  -22.9997   -7.8122   24.5598 O   0  0  0  0  0  0  0  0  0  0  0  0
  -28.7971  -22.4390   19.1763 O   0  0  0  0  0  0  0  0  0  1  0  0
  -17.9490   -5.8762   23.4889 F   0  0  0  0  0  0  0  0  0  0  0  0
  -22.6141   -5.1656   23.8602 F   0  0  0  0  0  0  0  0  0  0  0  0
  1  2  1  0  0  0  0
  1  5  2  0  0  0  0
  2  6  2  0  0  0  0
  3  8  2  0  0  0  0
  3 17  1  0  0  0  0
  4  9  1  0  0  0  0
  4 17  2  0  0  0  0
  5 19  1  0  0  0  0
  6 21  1  0  0  0  0
  7 10  2  0  0  0  0
  7 20  1  0  0  0  0
  8 23  1  0  0  0  0
  9 23  2  0  0  0  0
 10 24  1  0  0  0  0
 11 12  2  0  0  0  0
 11 25  1  0  0  0  0
 12 26  1  0  0  0  0
 13 22  1  0  0  0  0
 13 24  2  0  0  0  0
 14 26  2  0  0  0  0
 14 27  1  0  0  0  0
 15 29  2  0  0  0  0
 15 63  1  0  0  0  0
 16 61  2  0  0  0  0
 16 63  1  0  0  0  0
 17 28  1  0  0  0  0
 18 28  1  0  0  0  0
 18 30  2  0  0  0  0
 18 31  1  0  0  0  0
 19 21  2  0  0  0  0
 19 36  1  0  0  0  0
 20 22  2  0  0  0  0
 20 37  1  0  0  0  0
 21 45  1  0  0  0  0
 22 38  1  0  0  0  0
 23 78  1  0  0  0  0
 24 79  1  0  0  0  0
 25 27  2  0  0  0  0
 25 78  1  0  0  0  0
 26 80  1  0  0  0  0
 27 81  1  0  0  0  0
 28 62  2  0  0  0  0
 29 54  1  0  0  0  0
 29 61  1  0  0  0  0
 30 64  1  0  0  0  0
 30 67  1  0  0  0  0
 31 68  1  0  0  0  0
 31 73  2  0  0  0  0
 32 46  1  0  0  0  0
 32 69  1  0  0  0  0
 32 74  2  0  0  0  0
 33 58  1  0  0  0  0
 33 65  1  0  0  0  0
 33 75  2  0  0  0  0
 34 59  1  0  0  0  0
 34 70  1  0  0  0  0
 34 76  2  0  0  0  0
 35 66  1  0  0  0  0
 35 71  1  0  0  0  0
 35 77  2  0  0  0  0
 36 39  1  0  0  0  0
 37 46  1  0  0  0  0
 38 65  1  0  0  0  0
 39 41  1  0  0  0  0
 40 42  1  0  0  0  0
 40 43  1  0  0  0  0
 41 45  1  0  0  0  0
 42 47  1  0  0  0  0
 43 66  1  0  0  0  0
 44 47  1  0  0  0  0
 44 66  1  0  0  0  0
 45 69  1  0  0  0  0
 46 65  1  0  0  0  0
 47 64  1  0  0  0  0
 48 59  1  0  0  0  0
 49 60  1  0  0  0  0
 50 60  1  0  0  0  0
 51 60  1  0  0  0  0
 52 71  1  0  0  0  0
 53 72  1  0  0  0  0
 54 79  1  0  0  0  0
 55 56  1  0  0  0  0
 55 57  1  0  0  0  0
 56 63  1  0  0  0  0
 57 71  1  0  0  0  0
 58 60  1  0  0  0  0
 58 70  1  0  0  0  0
 59 72  1  0  0  0  0
 62 64  1  0  0  0  0
M  CHG  1  72   1
M  ISO  4  35 100  54 101  71 100  79 101
M  END
> <Batch ID>
0056

> <Smiles>
CNC(C)C(=O)NC(C(=O)N1Cc2cc([101O:1][101CH2:1]c3cn(CCC[100N:0](C)[100C:0](=O)N4CCCC(n5nc(-c6ccc(Oc7ccc(F)cc7F)cc6)c(C(N)=O)c5N)C4)cn3)ccc2CC1C(=O)NC1CCCc2ccccc21)C(C)(C)C

> <Shape>
0.278

> <Color>
0.136

> <Negative vol penalty>
0.000

$$$$

  -OEChem-04052317463D

 81 89  0     1  0  0  0  0  0999 V2000
  -18.5787  -33.9483   23.0690 C   0  0  0  0  0  0  0  0  0  0  0  0
  -19.7756  -33.8504   22.3667 C   0  0  0  0  0  0  0  0  0  0  0  0
  -26.8566  -17.8114   18.6477 C   0  0  0  0  0  0  0  0  0  0  0  0
  -27.5257  -17.8902   20.9679 C   0  0  0  0  0  0  0  0  0  0  0  0
  -18.2511  -32.9860   24.0233 C   0  0  0  0  0  0  0  0  0  0  0  0
  -20.6462  -32.7908   22.6191 C   0  0  0  0  0  0  0  0  0  0  0  0
  -25.3987  -28.5637   19.3233 C   0  0  0  0  0  0  0  0  0  0  0  0
  -26.1039  -16.6653   18.9037 C   0  0  0  0  0  0  0  0  0  0  0  0
  -26.7730  -16.7440   21.2238 C   0  0  0  0  0  0  0  0  0  0  0  0
  -26.7159  -28.1236   19.4461 C   0  0  0  0  0  0  0  0  0  0  0  0
  -24.2947  -13.5111   18.8711 C   0  0  0  0  0  0  0  0  0  0  0  0
  -24.3952  -12.4524   17.9686 C   0  0  0  0  0  0  0  0  0  0  0  0
  -26.0087  -26.4768   21.0608 C   0  0  0  0  0  0  0  0  0  0  0  0
  -26.7646  -12.2969   18.4148 C   0  0  0  0  0  0  0  0  0  0  0  0
  -32.4255  -26.3929   21.2598 C   0  0  0  0  0  0  0  0  0  0  0  0
  -32.3018  -25.3105   19.1936 C   0  0  0  0  0  0  0  0  0  0  0  0
  -27.5676  -18.4238   19.6798 C   0  0  0  0  0  0  0  0  0  0  0  0
  -27.9128  -20.9446   19.4956 C   0  0  0  0  0  0  0  0  0  0  0  0
  -19.1136  -31.9088   24.2806 C   0  0  0  0  0  0  0  0  0  0  0  0
  -24.3766  -27.9699   20.0777 C   0  0  0  0  0  0  0  0  0  0  0  0
  -20.3305  -31.8140   23.5787 C   0  0  0  0  0  0  0  0  0  0  0  0
  -24.6790  -26.9095   20.9438 C   0  0  0  0  0  0  0  0  0  0  0  0
  -33.0178  -25.5403   20.3506 C   0  0  0  0  0  0  0  0  0  0  0  0
  -26.0621  -16.1316   20.1917 C   0  0  0  0  0  0  0  0  0  0  0  0
  -27.0215  -27.0819   20.3171 C   0  0  0  0  0  0  0  0  0  0  0  0
  -25.4292  -13.9627   19.5455 C   0  0  0  0  0  0  0  0  0  0  0  0
  -25.6301  -11.8453   17.7404 C   0  0  0  0  0  0  0  0  0  0  0  0
  -26.6641  -13.3556   19.3174 C   0  0  0  0  0  0  0  0  0  0  0  0
  -28.3457  -19.6074   19.4159 C   0  0  0  0  0  0  0  0  0  0  0  0
  -29.0181  -21.6843   19.1526 C   0  0  0  0  0  0  0  0  0  0  0  0
  -30.6282  -26.6781   19.8976 C   0  0  0  0  0  0  0  0  0  0  0  0
  -26.6267  -21.4711   19.8482 C   0  0  0  0  0  0  0  0  0  0  0  0
  -22.3417  -28.9925   22.2952 C   0  0  0  0  0  0  0  0  0  0  0  0
  -21.1116  -26.0069   21.9868 C   0  0  0  0  0  0  0  0  0  0  0  0
  -21.6008  -22.7500   21.0920 C   0  0  0  0  0  0  0  0  0  0  0  0
  -34.4010  -22.7724   19.3763 C   0  0  0  0  0  0  0  0  0  0  0  0
  -18.7385  -30.9191   25.3551 C   0  0  0  0  0  0  0  0  0  0  0  0
  -22.9567  -28.4384   19.9139 C   0  0  0  0  0  0  0  0  0  0  0  0
  -23.6150  -26.2249   21.7610 C   0  0  0  0  0  0  0  0  0  0  0  0
  -19.5419  -29.6224   25.2963 C   0  0  0  0  0  0  0  0  0  0  0  0
  -33.4412  -20.2845   17.1592 C   0  0  0  0  0  0  0  0  0  0  0  0
  -21.0274  -29.9223   25.1219 C   0  0  0  0  0  0  0  0  0  0  0  0
  -31.9941  -19.9845   17.5476 C   0  0  0  0  0  0  0  0  0  0  0  0
  -34.3033  -20.5012   18.3971 C   0  0  0  0  0  0  0  0  0  0  0  0
  -32.3550  -21.3032   19.6941 C   0  0  0  0  0  0  0  0  0  0  0  0
  -21.2894  -30.6657   23.8065 C   0  0  1  0  0  0  0  0  0  0  0  0
  -22.0750  -28.1041   21.1132 C   0  0  1  0  0  0  0  0  0  0  0  0
  -31.4351  -21.0761   18.4768 C   0  0  2  0  0  0  0  0  0  0  0  0
  -35.7870  -22.8003   22.4257 C   0  0  0  0  0  0  0  0  0  0  0  0
  -20.4214  -20.5375   20.9872 C   0  0  0  0  0  0  0  0  0  0  0  0
  -21.4112  -25.7067   25.0084 C   0  0  0  0  0  0  0  0  0  0  0  0
  -21.1362  -23.2350   24.7200 C   0  0  0  0  0  0  0  0  0  0  0  0
  -19.2858  -24.7779   24.0734 C   0  0  0  0  0  0  0  0  0  0  0  0
  -21.9366  -22.5791   18.1565 C   0  0  0  0  0  0  0  0  0  0  0  0
  -34.3365  -24.9103   20.6023 C   0  0  0  0  0  0  0  0  0  0  0  0
  -29.2913  -27.3109   19.6452 C   0  0  0  0  0  0  0  0  0  1  0  0
  -34.3635  -22.8162   21.9064 C   0  0  0  0  0  0  0  0  0  0  0  0
  -21.3680  -24.6719   22.6434 C   0  0  1  0  0  0  0  0  0  0  0  0
  -20.7791  -21.8076   20.2311 C   0  0  2  0  0  0  0  0  0  0  0  0
  -20.8209  -24.6119   24.0975 C   0  0  0  0  0  0  0  0  0  0  0  0
  -31.2272  -26.9815   21.0649 N   0  0  0  0  0  0  0  0  0  0  0  0
  -31.0995  -25.8647   18.9334 N   0  0  0  0  0  0  0  0  0  0  0  0
  -29.6261  -19.5008   19.0508 N   0  0  0  0  0  0  0  0  0  0  0  0
  -30.0072  -20.7805   18.8979 N   0  0  0  0  0  0  0  0  0  0  0  0
  -22.2428  -26.7232   21.5705 N   0  0  0  0  0  0  0  0  0  0  0  0
  -33.7401  -21.5406   19.2594 N   0  0  0  0  0  0  0  0  0  0  0  0
  -29.2307  -23.0133   19.0469 N   0  0  0  0  0  0  0  0  0  0  0  0
  -25.6026  -20.5711   20.1733 N   0  0  0  0  0  0  0  0  0  0  0  0
  -21.2525  -29.7457   22.6900 N   0  0  0  0  0  0  0  0  0  0  0  0
  -20.8058  -23.6636   21.7513 N   0  0  0  0  0  0  0  0  0  0  0  0
  -34.2736  -23.4557   20.5951 N   0  0  0  0  0  0  0  0  0  0  0  0
  -21.5401  -21.4276   19.0074 N   0  3  0  0  0  0  0  0  0  0  0  0
  -26.3879  -22.7025   19.8583 O   0  0  0  0  0  0  0  0  0  0  0  0
  -23.4529  -28.9935   22.8118 O   0  0  0  0  0  0  0  0  0  0  0  0
  -19.9502  -26.3964   21.8419 O   0  0  0  0  0  0  0  0  0  0  0  0
  -22.8251  -22.6802   21.1745 O   0  0  0  0  0  0  0  0  0  0  0  0
  -35.0746  -23.2341   18.4461 O   0  0  0  0  0  0  0  0  0  0  0  0
  -25.3276  -15.0134   20.4419 O   0  0  0  0  0  0  0  0  0  0  0  0
  -28.3065  -26.6508   20.4394 O   0  0  0  0  0  0  0  0  0  1  0  0
  -25.7262  -10.8276   16.8748 F   0  0  0  0  0  0  0  0  0  0  0  0
  -27.7572  -13.7844   19.9632 F   0  0  0  0  0  0  0  0  0  0  0  0
  1  2  1  0  0  0  0
  1  5  2  0  0  0  0
  2  6  2  0  0  0  0
  3  8  2  0  0  0  0
  3 17  1  0  0  0  0
  4  9  1  0  0  0  0
  4 17  2  0  0  0  0
  5 19  1  0  0  0  0
  6 21  1  0  0  0  0
  7 10  2  0  0  0  0
  7 20  1  0  0  0  0
  8 24  1  0  0  0  0
  9 24  2  0  0  0  0
 10 25  1  0  0  0  0
 11 12  2  0  0  0  0
 11 26  1  0  0  0  0
 12 27  1  0  0  0  0
 13 22  1  0  0  0  0
 13 25  2  0  0  0  0
 14 27  2  0  0  0  0
 14 28  1  0  0  0  0
 15 23  1  0  0  0  0
 15 61  2  0  0  0  0
 16 23  2  0  0  0  0
 16 62  1  0  0  0  0
 17 29  1  0  0  0  0
 18 29  1  0  0  0  0
 18 30  2  0  0  0  0
 18 32  1  0  0  0  0
 19 21  2  0  0  0  0
 19 37  1  0  0  0  0
 20 22  2  0  0  0  0
 20 38  1  0  0  0  0
 21 46  1  0  0  0  0
 22 39  1  0  0  0  0
 23 55  1  0  0  0  0
 24 78  1  0  0  0  0
 25 79  1  0  0  0  0
 26 28  2  0  0  0  0
 26 78  1  0  0  0  0
 27 80  1  0  0  0  0
 28 81  1  0  0  0  0
 29 63  2  0  0  0  0
 30 64  1  0  0  0  0
 30 67  1  0  0  0  0
 31 56  1  0  0  0  0
 31 61  1  0  0  0  0
 31 62  2  0  0  0  0
 32 68  1  0  0  0  0
 32 73  2  0  0  0  0
 33 47  1  0  0  0  0
 33 69  1  0  0  0  0
 33 74  2  0  0  0  0
 34 58  1  0  0  0  0
 34 65  1  0  0  0  0
 34 75  2  0  0  0  0
 35 59  1  0  0  0  0
 35 70  1  0  0  0  0
 35 76  2  0  0  0  0
 36 66  1  0  0  0  0
 36 71  1  0  0  0  0
 36 77  2  0  0  0  0
 37 40  1  0  0  0  0
 38 47  1  0  0  0  0
 39 65  1  0  0  0  0
 40 42  1  0  0  0  0
 41 43  1  0  0  0  0
 41 44  1  0  0  0  0
 42 46  1  0  0  0  0
 43 48  1  0  0  0  0
 44 66  1  0  0  0  0
 45 48  1  0  0  0  0
 45 66  1  0  0  0  0
 46 69  1  0  0  0  0
 47 65  1  0  0  0  0
 48 64  1  0  0  0  0
 49 57  1  0  0  0  0
 50 59  1  0  0  0  0
 51 60  1  0  0  0  0
 52 60  1  0  0  0  0
 53 60  1  0  0  0  0
 54 72  1  0  0  0  0
 55 71  1  0  0  0  0
 56 79  1  0  0  0  0
 57 71  1  0  0  0  0
 58 60  1  0  0  0  0
 58 70  1  0  0  0  0
 59 72  1  0  0  0  0
 63 64  1  0  0  0  0
M  CHG  1  72   1
M  ISO  4  36 100  56 101  71 100  79 101
M  END
> <Batch ID>
0056

> <Smiles>
CC[100N:0](Cc1cnc([101CH2:1][101O:1]c2ccc3c(c2)CN(C(=O)C(NC(=O)C(C)NC)C(C)(C)C)C(C(=O)NC2CCCc4ccccc42)C3)nc1)[100C:0](=O)N1CCCC(n2nc(-c3ccc(Oc4ccc(F)cc4F)cc3)c(C(N)=O)c2N)C1

> <Shape>
0.183

> <Color>
0.110

> <Negative vol penalty>
0.000

$$$$

  -OEChem-04052317463D

 84 92  0     1  0  0  0  0  0999 V2000
  -23.3238  -30.2707   24.4413 C   0  0  0  0  0  0  0  0  0  0  0  0
  -23.4998  -29.1584   23.6245 C   0  0  0  0  0  0  0  0  0  0  0  0
  -23.1341   -9.8578   19.9446 C   0  0  0  0  0  0  0  0  0  0  0  0
  -23.9042   -9.8947   22.2343 C   0  0  0  0  0  0  0  0  0  0  0  0
  -24.0816  -31.4207   24.2240 C   0  0  0  0  0  0  0  0  0  0  0  0
  -24.4330  -29.1959   22.5890 C   0  0  0  0  0  0  0  0  0  0  0  0
  -27.2509  -24.9944   22.3607 C   0  0  0  0  0  0  0  0  0  0  0  0
  -22.4210   -8.6874   20.2033 C   0  0  0  0  0  0  0  0  0  0  0  0
  -23.1909   -8.7242   22.4930 C   0  0  0  0  0  0  0  0  0  0  0  0
  -26.6674  -23.8670   21.7843 C   0  0  0  0  0  0  0  0  0  0  0  0
  -19.9869   -7.8475   23.1144 C   0  0  0  0  0  0  0  0  0  0  0  0
  -19.2366   -7.7938   24.2890 C   0  0  0  0  0  0  0  0  0  0  0  0
  -28.2286  -16.1355   23.1444 C   0  0  0  0  0  0  0  0  0  0  0  0
  -27.8391  -24.3207   19.7251 C   0  0  0  0  0  0  0  0  0  0  0  0
  -20.5303   -5.8919   25.0283 C   0  0  0  0  0  0  0  0  0  0  0  0
  -27.2650  -16.3849   24.1082 C   0  0  0  0  0  0  0  0  0  0  0  0
  -23.8758  -10.4615   20.9601 C   0  0  0  0  0  0  0  0  0  0  0  0
  -24.1528  -12.9940   20.8271 C   0  0  0  0  0  0  0  0  0  0  0  0
  -25.0315  -31.4688   23.1915 C   0  0  0  0  0  0  0  0  0  0  0  0
  -28.1259  -25.8010   21.6188 C   0  0  0  0  0  0  0  0  0  0  0  0
  -25.2033  -30.3480   22.3569 C   0  0  0  0  0  0  0  0  0  0  0  0
  -28.4344  -25.4564   20.2951 C   0  0  0  0  0  0  0  0  0  0  0  0
  -28.0587  -16.7106   21.8899 C   0  0  0  0  0  0  0  0  0  0  0  0
  -26.9459  -17.5063   21.6411 C   0  0  0  0  0  0  0  0  0  0  0  0
  -22.4493   -8.1205   21.4775 C   0  0  0  0  0  0  0  0  0  0  0  0
  -26.9593  -23.5316   20.4654 C   0  0  0  0  0  0  0  0  0  0  0  0
  -21.0088   -6.9234   22.8967 C   0  0  0  0  0  0  0  0  0  0  0  0
  -19.5083   -6.8160   25.2460 C   0  0  0  0  0  0  0  0  0  0  0  0
  -21.2805   -5.9456   23.8536 C   0  0  0  0  0  0  0  0  0  0  0  0
  -24.6131  -11.6703   20.6934 C   0  0  0  0  0  0  0  0  0  0  0  0
  -26.0395  -17.6942   22.6721 C   0  0  0  0  0  0  0  0  0  0  0  0
  -25.2238  -13.7692   20.4553 C   0  0  0  0  0  0  0  0  0  0  0  0
  -22.8715  -13.4793   21.2497 C   0  0  0  0  0  0  0  0  0  0  0  0
  -28.1146  -28.8317   20.6604 C   0  0  0  0  0  0  0  0  0  0  0  0
  -31.1071  -28.1117   19.6363 C   0  0  0  0  0  0  0  0  0  0  0  0
  -33.3325  -25.7233   18.6413 C   0  0  0  0  0  0  0  0  0  0  0  0
  -30.8127  -14.6270   21.0436 C   0  0  0  0  0  0  0  0  0  0  0  0
  -25.7936  -32.7505   22.9655 C   0  0  0  0  0  0  0  0  0  0  0  0
  -28.7678  -26.9988   22.2635 C   0  0  0  0  0  0  0  0  0  0  0  0
  -29.3831  -26.2779   19.4624 C   0  0  0  0  0  0  0  0  0  0  0  0
  -27.0271  -32.5781   22.0829 C   0  0  0  0  0  0  0  0  0  0  0  0
  -29.5921  -12.5374   18.2426 C   0  0  0  0  0  0  0  0  0  0  0  0
  -26.6883  -31.7493   20.8479 C   0  0  0  0  0  0  0  0  0  0  0  0
  -28.1741  -12.1814   18.6860 C   0  0  0  0  0  0  0  0  0  0  0  0
  -30.5144  -12.7805   19.4334 C   0  0  0  0  0  0  0  0  0  0  0  0
  -28.5880  -13.4438   20.8344 C   0  0  0  0  0  0  0  0  0  0  0  0
  -26.2233  -30.3413   21.2390 C   0  0  1  0  0  0  0  0  0  0  0  0
  -29.2443  -28.0377   21.2530 C   0  0  1  0  0  0  0  0  0  0  0  0
  -27.6216  -13.2382   19.6582 C   0  0  2  0  0  0  0  0  0  0  0  0
  -24.8250  -18.5388   22.4640 C   0  0  0  0  0  0  0  0  0  0  0  0
  -35.6904  -25.4439   17.8292 C   0  0  0  0  0  0  0  0  0  0  0  0
  -30.2807  -29.1480   16.8880 C   0  0  0  0  0  0  0  0  0  0  0  0
  -32.2824  -27.9912   15.9270 C   0  0  0  0  0  0  0  0  0  0  0  0
  -32.5827  -29.8128   17.6047 C   0  0  0  0  0  0  0  0  0  0  0  0
  -31.1801  -16.8384   22.0704 C   0  0  0  0  0  0  0  0  0  0  0  0
  -34.0524  -24.0275   20.9576 C   0  0  0  0  0  0  0  0  0  0  0  0
  -26.7353  -18.1430   20.2905 C   0  0  0  0  0  0  0  0  0  0  0  0
  -29.0810  -16.4597   20.8311 C   0  0  0  0  0  0  0  0  0  0  0  0
  -27.0607  -19.6404   20.2544 C   0  0  0  0  0  0  0  0  0  0  0  0
  -26.7680  -20.2842   18.8984 C   0  0  0  0  0  0  0  0  0  0  0  0
  -27.1402  -21.7606   18.8885 C   0  0  0  0  0  0  0  0  0  1  0  0
  -31.6976  -27.5675   18.3579 C   0  0  1  0  0  0  0  0  0  0  0  0
  -34.7728  -25.4591   19.0418 C   0  0  2  0  0  0  0  0  0  0  0  0
  -31.6914  -28.6153   17.2092 C   0  0  0  0  0  0  0  0  0  0  0  0
  -26.1709  -17.1522   23.9036 N   0  0  0  0  0  0  0  0  0  0  0  0
  -25.8781  -11.6047   20.2696 N   0  0  0  0  0  0  0  0  0  0  0  0
  -26.2216  -12.8968   20.1337 N   0  0  0  0  0  0  0  0  0  0  0  0
  -29.9804  -27.4431   20.1355 N   0  0  0  0  0  0  0  0  0  0  0  0
  -29.9454  -13.7568   20.3630 N   0  0  0  0  0  0  0  0  0  0  0  0
  -25.4000  -15.1053   20.3753 N   0  0  0  0  0  0  0  0  0  0  0  0
  -21.8846  -12.5463   21.5959 N   0  0  0  0  0  0  0  0  0  0  0  0
  -27.3573  -29.5147   21.5929 N   0  0  0  0  0  0  0  0  0  0  0  0
  -33.0236  -27.0658   18.7019 N   0  0  0  0  0  0  0  0  0  0  0  0
  -30.3150  -15.8964   21.3746 N   0  0  0  0  0  0  0  0  0  0  0  0
  -34.8852  -24.1436   19.7329 N   0  3  0  0  0  0  0  0  0  0  0  0
  -22.6043  -14.7038   21.3026 O   0  0  0  0  0  0  0  0  0  0  0  0
  -27.9437  -28.8263   19.4470 O   0  0  0  0  0  0  0  0  0  0  0  0
  -31.6307  -29.0896   20.1760 O   0  0  0  0  0  0  0  0  0  0  0  0
  -32.5600  -24.8287   18.3046 O   0  0  0  0  0  0  0  0  0  0  0  0
  -31.9692  -14.2921   21.3302 O   0  0  0  0  0  0  0  0  0  0  0  0
  -21.7533   -6.9785   21.7303 O   0  0  0  0  0  0  0  0  0  0  0  0
  -26.3906  -22.4320   19.9002 O   0  0  0  0  0  0  0  0  0  1  0  0
  -18.7887   -6.7655   26.3747 F   0  0  0  0  0  0  0  0  0  0  0  0
  -22.2618   -5.0559   23.6506 F   0  0  0  0  0  0  0  0  0  0  0  0
  1  2  1  0  0  0  0
  1  5  2  0  0  0  0
  2  6  2  0  0  0  0
  3  8  2  0  0  0  0
  3 17  1  0  0  0  0
  4  9  1  0  0  0  0
  4 17  2  0  0  0  0
  5 19  1  0  0  0  0
  6 21  1  0  0  0  0
  7 10  2  0  0  0  0
  7 20  1  0  0  0  0
  8 25  1  0  0  0  0
  9 25  2  0  0  0  0
 10 26  1  0  0  0  0
 11 12  2  0  0  0  0
 11 27  1  0  0  0  0
 12 28  1  0  0  0  0
 13 16  1  0  0  0  0
 13 23  2  0  0  0  0
 14 22  1  0  0  0  0
 14 26  2  0  0  0  0
 15 28  2  0  0  0  0
 15 29  1  0  0  0  0
 16 65  2  0  0  0  0
 17 30  1  0  0  0  0
 18 30  1  0  0  0  0
 18 32  2  0  0  0  0
 18 33  1  0  0  0  0
 19 21  2  0  0  0  0
 19 38  1  0  0  0  0
 20 22  2  0  0  0  0
 20 39  1  0  0  0  0
 21 47  1  0  0  0  0
 22 40  1  0  0  0  0
 23 24  1  0  0  0  0
 23 58  1  0  0  0  0
 24 31  2  0  0  0  0
 24 57  1  0  0  0  0
 25 81  1  0  0  0  0
 26 82  1  0  0  0  0
 27 29  2  0  0  0  0
 27 81  1  0  0  0  0
 28 83  1  0  0  0  0
 29 84  1  0  0  0  0
 30 66  2  0  0  0  0
 31 50  1  0  0  0  0
 31 65  1  0  0  0  0
 32 67  1  0  0  0  0
 32 70  1  0  0  0  0
 33 71  1  0  0  0  0
 33 76  2  0  0  0  0
 34 48  1  0  0  0  0
 34 72  1  0  0  0  0
 34 77  2  0  0  0  0
 35 62  1  0  0  0  0
 35 68  1  0  0  0  0
 35 78  2  0  0  0  0
 36 63  1  0  0  0  0
 36 73  1  0  0  0  0
 36 79  2  0  0  0  0
 37 69  1  0  0  0  0
 37 74  1  0  0  0  0
 37 80  2  0  0  0  0
 38 41  1  0  0  0  0
 39 48  1  0  0  0  0
 40 68  1  0  0  0  0
 41 43  1  0  0  0  0
 42 44  1  0  0  0  0
 42 45  1  0  0  0  0
 43 47  1  0  0  0  0
 44 49  1  0  0  0  0
 45 69  1  0  0  0  0
 46 49  1  0  0  0  0
 46 69  1  0  0  0  0
 47 72  1  0  0  0  0
 48 68  1  0  0  0  0
 49 67  1  0  0  0  0
 51 63  1  0  0  0  0
 52 64  1  0  0  0  0
 53 64  1  0  0  0  0
 54 64  1  0  0  0  0
 55 74  1  0  0  0  0
 56 75  1  0  0  0  0
 57 59  1  0  0  0  0
 58 74  1  0  0  0  0
 59 60  1  0  0  0  0
 60 61  1  0  0  0  0
 61 82  1  0  0  0  0
 62 64  1  0  0  0  0
 62 73  1  0  0  0  0
 63 75  1  0  0  0  0
 66 67  1  0  0  0  0
M  CHG  1  75   1
M  ISO  4  37 100  61 101  74 100  82 101
M  END
> <Batch ID>
0056

> <Smiles>
CNC(C)C(=O)NC(C(=O)N1Cc2cc([101O:1][101CH2:1]CCCc3c(C[100N:0](C)[100C:0](=O)N4CCCC(n5nc(-c6ccc(Oc7ccc(F)cc7F)cc6)c(C(N)=O)c5N)C4)ccnc3C)ccc2CC1C(=O)NC1CCCc2ccccc21)C(C)(C)C

> <Shape>
0.295

> <Color>
0.181

> <Negative vol penalty>
0.000

$$$$

  -OEChem-04052317463D

 81 89  0     1  0  0  0  0  0999 V2000
  -31.6918  -24.6714   24.4021 C   0  0  0  0  0  0  0  0  0  0  0  0
  -30.9693  -24.5678   23.2178 C   0  0  0  0  0  0  0  0  0  0  0  0
  -26.8703  -15.1639   21.5905 C   0  0  0  0  0  0  0  0  0  0  0  0
  -26.5549  -15.0603   19.1974 C   0  0  0  0  0  0  0  0  0  0  0  0
  -31.0260  -24.8978   25.6060 C   0  0  0  0  0  0  0  0  0  0  0  0
  -29.5803  -24.6894   23.2369 C   0  0  0  0  0  0  0  0  0  0  0  0
  -27.8384  -27.6529   19.5182 C   0  0  0  0  0  0  0  0  0  0  0  0
  -26.5343  -13.8141   21.6933 C   0  0  0  0  0  0  0  0  0  0  0  0
  -26.2189  -13.7104   19.3002 C   0  0  0  0  0  0  0  0  0  0  0  0
  -27.7649  -27.0964   18.2420 C   0  0  0  0  0  0  0  0  0  0  0  0
  -25.4097  -10.4844   22.6270 C   0  0  0  0  0  0  0  0  0  0  0  0
  -24.5287  -10.1093   23.6412 C   0  0  0  0  0  0  0  0  0  0  0  0
  -25.4018  -26.7212   18.5482 C   0  0  0  0  0  0  0  0  0  0  0  0
  -22.8386  -11.5636   22.7109 C   0  0  0  0  0  0  0  0  0  0  0  0
  -25.1159  -23.4158   16.2070 C   0  0  0  0  0  0  0  0  0  0  0  0
  -26.8806  -15.7871   20.3426 C   0  0  0  0  0  0  0  0  0  0  0  0
  -28.5108  -17.7262   20.0428 C   0  0  0  0  0  0  0  0  0  0  0  0
  -29.6290  -25.0319   25.6385 C   0  0  0  0  0  0  0  0  0  0  0  0
  -26.6943  -27.7380   20.3245 C   0  0  0  0  0  0  0  0  0  0  0  0
  -28.8950  -24.9165   24.4425 C   0  0  0  0  0  0  0  0  0  0  0  0
  -25.4629  -27.2816   19.8333 C   0  0  0  0  0  0  0  0  0  0  0  0
  -26.2086  -13.0873   20.5482 C   0  0  0  0  0  0  0  0  0  0  0  0
  -26.5471  -26.6278   17.7579 C   0  0  0  0  0  0  0  0  0  0  0  0
  -25.0052  -11.3992   21.6548 C   0  0  0  0  0  0  0  0  0  0  0  0
  -23.2431  -10.6488   23.6832 C   0  0  0  0  0  0  0  0  0  0  0  0
  -23.7197  -11.9388   21.6967 C   0  0  0  0  0  0  0  0  0  0  0  0
  -27.2271  -17.1816   20.2358 C   0  0  0  0  0  0  0  0  0  0  0  0
  -26.3570  -23.2687   15.6402 C   0  0  0  0  0  0  0  0  0  0  0  0
  -28.3064  -19.0840   20.0100 C   0  0  0  0  0  0  0  0  0  0  0  0
  -29.7750  -17.0639   19.9053 C   0  0  0  0  0  0  0  0  0  0  0  0
  -25.8389  -26.5330   23.1388 C   0  0  0  0  0  0  0  0  0  0  0  0
  -23.4729  -22.3822   18.6419 C   0  0  0  0  0  0  0  0  0  0  0  0
  -23.2453  -28.4374   22.7273 C   0  0  0  0  0  0  0  0  0  0  0  0
  -21.1895  -30.1075   20.5753 C   0  0  0  0  0  0  0  0  0  0  0  0
  -28.9494  -25.2289   26.9704 C   0  0  0  0  0  0  0  0  0  0  0  0
  -26.7850  -28.3654   21.6885 C   0  0  0  0  0  0  0  0  0  0  0  0
  -24.2013  -27.3685   20.6515 C   0  0  0  0  0  0  0  0  0  0  0  0
  -27.5086  -25.7194   26.8525 C   0  0  0  0  0  0  0  0  0  0  0  0
  -25.3858  -22.4799   21.6703 C   0  0  0  0  0  0  0  0  0  0  0  0
  -26.7526  -24.9084   25.8048 C   0  0  0  0  0  0  0  0  0  0  0  0
  -26.1700  -21.1686   21.6420 C   0  0  0  0  0  0  0  0  0  0  0  0
  -23.9989  -22.3144   21.0571 C   0  0  0  0  0  0  0  0  0  0  0  0
  -24.7941  -20.4500   19.6382 C   0  0  0  0  0  0  0  0  0  0  0  0
  -27.3894  -25.0675   24.4189 C   0  0  1  0  0  0  0  0  0  0  0  0
  -25.6584  -27.9322   22.6216 C   0  0  1  0  0  0  0  0  0  0  0  0
  -26.2126  -20.5805   20.2205 C   0  0  2  0  0  0  0  0  0  0  0  0
  -22.3462  -21.9787   16.4640 C   0  0  0  0  0  0  0  0  0  0  0  0
  -19.1326  -31.5444   20.5315 C   0  0  0  0  0  0  0  0  0  0  0  0
  -26.6067  -25.0335   13.7688 C   0  0  0  0  0  0  0  0  0  0  0  0
  -28.5522  -23.6593   14.4791 C   0  0  0  0  0  0  0  0  0  0  0  0
  -21.5143  -25.9695   23.1996 C   0  0  0  0  0  0  0  0  0  0  0  0
  -19.5807  -27.2247   22.2228 C   0  0  0  0  0  0  0  0  0  0  0  0
  -20.6817  -28.0543   24.3018 C   0  0  0  0  0  0  0  0  0  0  0  0
  -22.6606  -32.3788   19.3771 C   0  0  0  0  0  0  0  0  0  0  0  0
  -27.6388  -25.4236   16.0218 C   0  0  0  0  0  0  0  0  0  1  0  0
  -23.6036  -21.7239   17.2914 C   0  0  1  0  0  0  0  0  0  0  0  0
  -21.8870  -28.2708   22.0899 C   0  0  1  0  0  0  0  0  0  0  0  0
  -20.6520  -31.5271   20.5931 C   0  0  2  0  0  0  0  0  0  0  0  0
  -27.2571  -24.3341   14.9867 C   0  0  0  0  0  0  0  0  0  0  0  0
  -20.9399  -27.3763   22.9386 C   0  0  0  0  0  0  0  0  0  0  0  0
  -26.2774  -18.1170   20.3199 N   0  0  0  0  0  0  0  0  0  0  0  0
  -26.7494  -21.9617   15.7261 N   0  0  0  0  0  0  0  0  0  0  0  0
  -25.7815  -21.2841   16.3337 N   0  0  0  0  0  0  0  0  0  0  0  0
  -24.8030  -22.1577   16.6210 N   0  0  0  0  0  0  0  0  0  0  0  0
  -26.9649  -19.2631   20.1792 N   0  0  0  0  0  0  0  0  0  0  0  0
  -24.3426  -27.9843   21.9812 N   0  0  0  0  0  0  0  0  0  0  0  0
  -24.0809  -21.7324   19.7162 N   0  0  0  0  0  0  0  0  0  0  0  0
  -29.1450  -20.1302   19.8534 N   0  0  0  0  0  0  0  0  0  0  0  0
  -29.8056  -15.6639   19.9627 N   0  0  0  0  0  0  0  0  0  0  0  0
  -27.0168  -26.3379   23.8343 N   0  0  0  0  0  0  0  0  0  0  0  0
  -21.3807  -29.6178   21.8500 N   0  0  0  0  0  0  0  0  0  0  0  0
  -21.1783  -32.2949   19.4293 N   0  3  0  0  0  0  0  0  0  0  0  0
  -30.8479  -17.6957   19.7530 O   0  0  0  0  0  0  0  0  0  0  0  0
  -24.9728  -25.6931   22.9241 O   0  0  0  0  0  0  0  0  0  0  0  0
  -22.8512  -23.4436   18.7365 O   0  0  0  0  0  0  0  0  0  0  0  0
  -23.3303  -28.9570   23.8428 O   0  0  0  0  0  0  0  0  0  0  0  0
  -21.4135  -29.4931   19.5347 O   0  0  0  0  0  0  0  0  0  0  0  0
  -25.8809  -11.7700   20.6481 O   0  0  0  0  0  0  0  0  0  0  0  0
  -26.4727  -26.0835   16.5129 O   0  0  0  0  0  0  0  0  0  1  0  0
  -22.3966  -10.2873   24.6562 F   0  0  0  0  0  0  0  0  0  0  0  0
  -23.3250  -12.8172   20.7648 F   0  0  0  0  0  0  0  0  0  0  0  0
  1  2  1  0  0  0  0
  1  5  2  0  0  0  0
  2  6  2  0  0  0  0
  3  8  2  0  0  0  0
  3 16  1  0  0  0  0
  4  9  1  0  0  0  0
  4 16  2  0  0  0  0
  5 18  1  0  0  0  0
  6 20  1  0  0  0  0
  7 10  2  0  0  0  0
  7 19  1  0  0  0  0
  8 22  1  0  0  0  0
  9 22  2  0  0  0  0
 10 23  1  0  0  0  0
 11 12  2  0  0  0  0
 11 24  1  0  0  0  0
 12 25  1  0  0  0  0
 13 21  1  0  0  0  0
 13 23  2  0  0  0  0
 14 25  2  0  0  0  0
 14 26  1  0  0  0  0
 15 28  2  0  0  0  0
 15 64  1  0  0  0  0
 16 27  1  0  0  0  0
 17 27  1  0  0  0  0
 17 29  2  0  0  0  0
 17 30  1  0  0  0  0
 18 20  2  0  0  0  0
 18 35  1  0  0  0  0
 19 21  2  0  0  0  0
 19 36  1  0  0  0  0
 20 44  1  0  0  0  0
 21 37  1  0  0  0  0
 22 78  1  0  0  0  0
 23 79  1  0  0  0  0
 24 26  2  0  0  0  0
 24 78  1  0  0  0  0
 25 80  1  0  0  0  0
 26 81  1  0  0  0  0
 27 61  2  0  0  0  0
 28 59  1  0  0  0  0
 28 62  1  0  0  0  0
 29 65  1  0  0  0  0
 29 68  1  0  0  0  0
 30 69  1  0  0  0  0
 30 73  2  0  0  0  0
 31 45  1  0  0  0  0
 31 70  1  0  0  0  0
 31 74  2  0  0  0  0
 32 56  1  0  0  0  0
 32 67  1  0  0  0  0
 32 75  2  0  0  0  0
 33 57  1  0  0  0  0
 33 66  1  0  0  0  0
 33 76  2  0  0  0  0
 34 58  1  0  0  0  0
 34 71  1  0  0  0  0
 34 77  2  0  0  0  0
 35 38  1  0  0  0  0
 36 45  1  0  0  0  0
 37 66  1  0  0  0  0
 38 40  1  0  0  0  0
 39 41  1  0  0  0  0
 39 42  1  0  0  0  0
 40 44  1  0  0  0  0
 41 46  1  0  0  0  0
 42 67  1  0  0  0  0
 43 46  1  0  0  0  0
 43 67  1  0  0  0  0
 44 70  1  0  0  0  0
 45 66  1  0  0  0  0
 46 65  1  0  0  0  0
 47 56  1  0  0  0  0
 48 58  1  0  0  0  0
 49 59  1  0  0  0  0
 50 59  1  0  0  0  0
 51 60  1  0  0  0  0
 52 60  1  0  0  0  0
 53 60  1  0  0  0  0
 54 72  1  0  0  0  0
 55 59  1  0  0  0  0
 55 79  1  0  0  0  0
 56 64  1  0  0  0  0
 57 60  1  0  0  0  0
 57 71  1  0  0  0  0
 58 72  1  0  0  0  0
 61 65  1  0  0  0  0
 62 63  2  0  0  0  0
 63 64  1  0  0  0  0
M  CHG  1  72   1
M  ISO  4  32 100  55 101  56 100  79 101
M  END
> <Batch ID>
0056

> <Smiles>
CNC(C)C(=O)NC(C(=O)N1Cc2cc([101O:1][101CH2:1]C(C)(C)c3cn([100CH:0](C)[100C:0](=O)N4CCCC(n5nc(-c6ccc(Oc7ccc(F)cc7F)cc6)c(C(N)=O)c5N)C4)nn3)ccc2CC1C(=O)NC1CCCc2ccccc21)C(C)(C)C

> <Shape>
0.160

> <Color>
0.083

> <Negative vol penalty>
0.000

$$$$

  -OEChem-04052317463D

 81 89  0     1  0  0  0  0  0999 V2000
  -28.9733  -23.9189   15.1925 C   0  0  0  0  0  0  0  0  0  0  0  0
  -28.1812  -23.3493   16.1843 C   0  0  0  0  0  0  0  0  0  0  0  0
  -26.4972  -12.6252   20.9483 C   0  0  0  0  0  0  0  0  0  0  0  0
  -24.9454  -14.2382   20.0388 C   0  0  0  0  0  0  0  0  0  0  0  0
  -29.3913  -25.2437   15.3108 C   0  0  0  0  0  0  0  0  0  0  0  0
  -27.8076  -24.1041   17.2957 C   0  0  0  0  0  0  0  0  0  0  0  0
  -22.9122  -23.5468   18.4660 C   0  0  0  0  0  0  0  0  0  0  0  0
  -25.4281  -11.8500   21.3975 C   0  0  0  0  0  0  0  0  0  0  0  0
  -23.8763  -13.4630   20.4879 C   0  0  0  0  0  0  0  0  0  0  0  0
  -22.5477  -22.3835   19.1424 C   0  0  0  0  0  0  0  0  0  0  0  0
  -23.1057   -9.2658   22.4669 C   0  0  0  0  0  0  0  0  0  0  0  0
  -23.1652   -7.8897   22.2473 C   0  0  0  0  0  0  0  0  0  0  0  0
  -22.5243  -23.6070   21.2213 C   0  0  0  0  0  0  0  0  0  0  0  0
  -23.2788   -8.2748   19.8649 C   0  0  0  0  0  0  0  0  0  0  0  0
  -25.8194  -20.0020   21.0969 C   0  0  0  0  0  0  0  0  0  0  0  0
  -25.7573  -19.5742   23.2579 C   0  0  0  0  0  0  0  0  0  0  0  0
  -26.2558  -13.8194   20.2690 C   0  0  0  0  0  0  0  0  0  0  0  0
  -28.0051  -14.5381   18.5569 C   0  0  0  0  0  0  0  0  0  0  0  0
  -29.0147  -26.0180   16.4195 C   0  0  0  0  0  0  0  0  0  0  0  0
  -23.0964  -24.7485   19.1648 C   0  0  0  0  0  0  0  0  0  0  0  0
  -28.2221  -25.4401   17.4297 C   0  0  0  0  0  0  0  0  0  0  0  0
  -22.8886  -24.7847   20.5510 C   0  0  0  0  0  0  0  0  0  0  0  0
  -24.1177  -12.2688   21.1672 C   0  0  0  0  0  0  0  0  0  0  0  0
  -22.3565  -22.4128   20.5207 C   0  0  0  0  0  0  0  0  0  0  0  0
  -23.1327  -10.1465   21.3855 C   0  0  0  0  0  0  0  0  0  0  0  0
  -23.2518   -7.3941   20.9463 C   0  0  0  0  0  0  0  0  0  0  0  0
  -23.2193   -9.6510   20.0845 C   0  0  0  0  0  0  0  0  0  0  0  0
  -27.3597  -14.6209   19.8053 C   0  0  0  0  0  0  0  0  0  0  0  0
  -26.9960  -20.3563   21.7137 C   0  0  0  0  0  0  0  0  0  0  0  0
  -28.9788  -15.5054   18.6088 C   0  0  0  0  0  0  0  0  0  0  0  0
  -27.7473  -13.6649   17.4493 C   0  0  0  0  0  0  0  0  0  0  0  0
  -25.5494  -26.7134   19.6405 C   0  0  0  0  0  0  0  0  0  0  0  0
  -23.2955  -28.5511   21.0776 C   0  0  0  0  0  0  0  0  0  0  0  0
  -29.4556  -20.5493   21.8404 C   0  0  0  0  0  0  0  0  0  0  0  0
  -20.2766  -28.7254   22.6596 C   0  0  0  0  0  0  0  0  0  0  0  0
  -29.5302  -27.4313   16.5268 C   0  0  0  0  0  0  0  0  0  0  0  0
  -23.4636  -26.0007   18.4167 C   0  0  0  0  0  0  0  0  0  0  0  0
  -23.0540  -26.0540   21.3448 C   0  0  0  0  0  0  0  0  0  0  0  0
  -28.7799  -28.2771   17.5524 C   0  0  0  0  0  0  0  0  0  0  0  0
  -31.7916  -17.8365   21.6865 C   0  0  0  0  0  0  0  0  0  0  0  0
  -28.6056  -27.5049   18.8563 C   0  0  0  0  0  0  0  0  0  0  0  0
  -30.9708  -16.6888   21.0997 C   0  0  0  0  0  0  0  0  0  0  0  0
  -30.9434  -18.7232   22.5928 C   0  0  0  0  0  0  0  0  0  0  0  0
  -28.8921  -18.1178   21.3489 C   0  0  0  0  0  0  0  0  0  0  0  0
  -27.7756  -26.2340   18.6381 C   0  0  1  0  0  0  0  0  0  0  0  0
  -24.1255  -27.0528   19.3012 C   0  0  1  0  0  0  0  0  0  0  0  0
  -29.7037  -17.2153   20.4028 C   0  0  2  0  0  0  0  0  0  0  0  0
  -18.7169  -30.3593   23.7529 C   0  0  0  0  0  0  0  0  0  0  0  0
  -28.1474  -22.5068   21.1290 C   0  0  0  0  0  0  0  0  0  0  0  0
  -28.5130  -20.5453   19.6281 C   0  0  0  0  0  0  0  0  0  0  0  0
  -25.1088  -28.6372   23.5300 C   0  0  0  0  0  0  0  0  0  0  0  0
  -23.1474  -29.4354   24.8658 C   0  0  0  0  0  0  0  0  0  0  0  0
  -24.0065  -30.8113   22.9707 C   0  0  0  0  0  0  0  0  0  0  0  0
  -18.1181  -28.1396   20.7213 C   0  0  0  0  0  0  0  0  0  0  0  0
  -22.6143  -19.6748   22.8594 C   0  0  0  0  0  0  0  0  0  0  0  0
  -23.6307  -18.9747   21.9546 C   0  0  0  0  0  0  0  0  0  0  0  0
  -22.4365  -21.1539   22.5368 C   0  0  0  0  0  0  0  0  0  1  0  0
  -22.7503  -28.6728   22.4801 C   0  0  1  0  0  0  0  0  0  0  0  0
  -19.0870  -29.6474   22.4610 C   0  0  2  0  0  0  0  0  0  0  0  0
  -28.1989  -20.9478   21.1084 C   0  0  0  0  0  0  0  0  0  0  0  0
  -23.7519  -29.3647   23.4473 C   0  0  0  0  0  0  0  0  0  0  0  0
  -26.9511  -20.0872   23.0588 N   0  0  0  0  0  0  0  0  0  0  0  0
  -27.8798  -15.5661   20.5928 N   0  0  0  0  0  0  0  0  0  0  0  0
  -25.0359  -19.5021   22.0986 N   0  0  0  0  0  0  0  0  0  0  0  0
  -28.8623  -16.0859   19.8375 N   0  0  0  0  0  0  0  0  0  0  0  0
  -23.4199  -27.2505   20.5690 N   0  0  0  0  0  0  0  0  0  0  0  0
  -29.7383  -19.1846   21.9015 N   0  0  0  0  0  0  0  0  0  0  0  0
  -29.9148  -15.9074   17.7230 N   0  0  0  0  0  0  0  0  0  0  0  0
  -26.7096  -12.7297   17.5631 N   0  0  0  0  0  0  0  0  0  0  0  0
  -26.3691  -26.5599   18.5387 N   0  0  0  0  0  0  0  0  0  0  0  0
  -21.4663  -29.3552   22.3611 N   0  0  0  0  0  0  0  0  0  0  0  0
  -17.9025  -28.8718   21.9958 N   0  3  0  0  0  0  0  0  0  0  0  0
  -28.4280  -13.7015   16.3963 O   0  0  0  0  0  0  0  0  0  0  0  0
  -25.8801  -26.6006   20.8151 O   0  0  0  0  0  0  0  0  0  0  0  0
  -23.5930  -29.5727   20.4536 O   0  0  0  0  0  0  0  0  0  0  0  0
  -30.1652  -21.4264   22.3399 O   0  0  0  0  0  0  0  0  0  0  0  0
  -20.1621  -27.5639   23.0447 O   0  0  0  0  0  0  0  0  0  0  0  0
  -23.0743  -11.5125   21.6052 O   0  0  0  0  0  0  0  0  0  0  0  0
  -22.0013  -21.2786   21.1835 O   0  0  0  0  0  0  0  0  0  1  0  0
  -23.3105   -6.0726   20.7356 F   0  0  0  0  0  0  0  0  0  0  0  0
  -23.2467  -10.4921   19.0416 F   0  0  0  0  0  0  0  0  0  0  0  0
  1  2  1  0  0  0  0
  1  5  2  0  0  0  0
  2  6  2  0  0  0  0
  3  8  2  0  0  0  0
  3 17  1  0  0  0  0
  4  9  1  0  0  0  0
  4 17  2  0  0  0  0
  5 19  1  0  0  0  0
  6 21  1  0  0  0  0
  7 10  2  0  0  0  0
  7 20  1  0  0  0  0
  8 23  1  0  0  0  0
  9 23  2  0  0  0  0
 10 24  1  0  0  0  0
 11 12  2  0  0  0  0
 11 25  1  0  0  0  0
 12 26  1  0  0  0  0
 13 22  1  0  0  0  0
 13 24  2  0  0  0  0
 14 26  2  0  0  0  0
 14 27  1  0  0  0  0
 15 29  2  0  0  0  0
 15 64  1  0  0  0  0
 16 62  2  0  0  0  0
 16 64  1  0  0  0  0
 17 28  1  0  0  0  0
 18 28  1  0  0  0  0
 18 30  2  0  0  0  0
 18 31  1  0  0  0  0
 19 21  2  0  0  0  0
 19 36  1  0  0  0  0
 20 22  2  0  0  0  0
 20 37  1  0  0  0  0
 21 45  1  0  0  0  0
 22 38  1  0  0  0  0
 23 78  1  0  0  0  0
 24 79  1  0  0  0  0
 25 27  2  0  0  0  0
 25 78  1  0  0  0  0
 26 80  1  0  0  0  0
 27 81  1  0  0  0  0
 28 63  2  0  0  0  0
 29 60  1  0  0  0  0
 29 62  1  0  0  0  0
 30 65  1  0  0  0  0
 30 68  1  0  0  0  0
 31 69  1  0  0  0  0
 31 73  2  0  0  0  0
 32 46  1  0  0  0  0
 32 70  1  0  0  0  0
 32 74  2  0  0  0  0
 33 58  1  0  0  0  0
 33 66  1  0  0  0  0
 33 75  2  0  0  0  0
 34 60  1  0  0  0  0
 34 67  1  0  0  0  0
 34 76  2  0  0  0  0
 35 59  1  0  0  0  0
 35 71  1  0  0  0  0
 35 77  2  0  0  0  0
 36 39  1  0  0  0  0
 37 46  1  0  0  0  0
 38 66  1  0  0  0  0
 39 41  1  0  0  0  0
 40 42  1  0  0  0  0
 40 43  1  0  0  0  0
 41 45  1  0  0  0  0
 42 47  1  0  0  0  0
 43 67  1  0  0  0  0
 44 47  1  0  0  0  0
 44 67  1  0  0  0  0
 45 70  1  0  0  0  0
 46 66  1  0  0  0  0
 47 65  1  0  0  0  0
 48 59  1  0  0  0  0
 49 60  1  0  0  0  0
 50 60  1  0  0  0  0
 51 61  1  0  0  0  0
 52 61  1  0  0  0  0
 53 61  1  0  0  0  0
 54 72  1  0  0  0  0
 55 56  1  0  0  0  0
 55 57  1  0  0  0  0
 56 64  1  0  0  0  0
 57 79  1  0  0  0  0
 58 61  1  0  0  0  0
 58 71  1  0  0  0  0
 59 72  1  0  0  0  0
 63 65  1  0  0  0  0
M  CHG  1  72   1
M  ISO  4  34 100  57 101  60 100  79 101
M  END
> <Batch ID>
0056

> <Smiles>
CNC(C)C(=O)NC(C(=O)N1Cc2cc([101O:1][101CH2:1]CCn3cnc([100C:0](C)(C)[100C:0](=O)N4CCCC(n5nc(-c6ccc(Oc7ccc(F)cc7F)cc6)c(C(N)=O)c5N)C4)c3)ccc2CC1C(=O)NC1CCCc2ccccc21)C(C)(C)C

> <Shape>
0.236

> <Color>
0.050

> <Negative vol penalty>
0.000

$$$$

  -OEChem-04052317463D

 81 89  0     1  0  0  0  0  0999 V2000
  -19.8962  -34.5345   23.4140 C   0  0  0  0  0  0  0  0  0  0  0  0
  -21.2060  -34.1302   23.1764 C   0  0  0  0  0  0  0  0  0  0  0  0
  -24.0908  -13.1416   20.3715 C   0  0  0  0  0  0  0  0  0  0  0  0
  -26.3001  -13.1061   21.3487 C   0  0  0  0  0  0  0  0  0  0  0  0
  -18.9312  -33.5936   23.7709 C   0  0  0  0  0  0  0  0  0  0  0  0
  -21.5518  -32.7847   23.2968 C   0  0  0  0  0  0  0  0  0  0  0  0
  -25.6633  -29.7262   19.9433 C   0  0  0  0  0  0  0  0  0  0  0  0
  -24.0847  -11.7473   20.3346 C   0  0  0  0  0  0  0  0  0  0  0  0
  -26.2940  -11.7117   21.3118 C   0  0  0  0  0  0  0  0  0  0  0  0
  -26.9924  -29.3768   20.1784 C   0  0  0  0  0  0  0  0  0  0  0  0
  -23.3397   -8.1892   20.3162 C   0  0  0  0  0  0  0  0  0  0  0  0
  -22.1844   -7.5343   20.7427 C   0  0  0  0  0  0  0  0  0  0  0  0
  -26.2787  -27.2063   20.9521 C   0  0  0  0  0  0  0  0  0  0  0  0
  -22.4176   -8.5441   22.9252 C   0  0  0  0  0  0  0  0  0  0  0  0
  -32.2756  -23.0267   18.5762 C   0  0  0  0  0  0  0  0  0  0  0  0
  -25.1986  -13.8210   20.8785 C   0  0  0  0  0  0  0  0  0  0  0  0
  -24.7557  -16.0865   21.9645 C   0  0  0  0  0  0  0  0  0  0  0  0
  -19.2632  -32.2345   23.8863 C   0  0  0  0  0  0  0  0  0  0  0  0
  -24.6294  -28.8206   20.2215 C   0  0  0  0  0  0  0  0  0  0  0  0
  -20.5906  -31.8249   23.6569 C   0  0  0  0  0  0  0  0  0  0  0  0
  -24.9375  -27.5456   20.7172 C   0  0  0  0  0  0  0  0  0  0  0  0
  -25.1862  -11.0323   20.8048 C   0  0  0  0  0  0  0  0  0  0  0  0
  -27.3000  -28.1178   20.6857 C   0  0  0  0  0  0  0  0  0  0  0  0
  -24.0341   -9.0216   21.1943 C   0  0  0  0  0  0  0  0  0  0  0  0
  -21.7234   -7.7117   22.0472 C   0  0  0  0  0  0  0  0  0  0  0  0
  -23.5730   -9.1990   22.4987 C   0  0  0  0  0  0  0  0  0  0  0  0
  -25.2057  -15.2614   20.9164 C   0  0  0  0  0  0  0  0  0  0  0  0
  -24.9765  -17.3650   21.5140 C   0  0  0  0  0  0  0  0  0  0  0  0
  -31.3290  -23.9946   18.7601 C   0  0  0  0  0  0  0  0  0  0  0  0
  -30.3203  -22.1974   17.9520 C   0  0  0  0  0  0  0  0  0  0  0  0
  -24.1888  -15.7291   23.2320 C   0  0  0  0  0  0  0  0  0  0  0  0
  -22.1280  -28.8056   22.1827 C   0  0  0  0  0  0  0  0  0  0  0  0
  -28.8860  -20.2434   18.4730 C   0  0  0  0  0  0  0  0  0  0  0  0
  -21.4193  -26.0480   20.6284 C   0  0  0  0  0  0  0  0  0  0  0  0
  -22.5240  -23.3868   18.7996 C   0  0  0  0  0  0  0  0  0  0  0  0
  -18.1964  -31.2610   24.3208 C   0  0  0  0  0  0  0  0  0  0  0  0
  -23.2028  -29.2031   19.9371 C   0  0  0  0  0  0  0  0  0  0  0  0
  -23.8658  -26.5297   21.0135 C   0  0  0  0  0  0  0  0  0  0  0  0
  -18.5615  -29.8016   24.0614 C   0  0  0  0  0  0  0  0  0  0  0  0
  -25.6198  -19.4472   17.0854 C   0  0  0  0  0  0  0  0  0  0  0  0
  -19.9864  -29.5171   24.5256 C   0  0  0  0  0  0  0  0  0  0  0  0
  -25.1509  -18.3371   18.0250 C   0  0  0  0  0  0  0  0  0  0  0  0
  -27.1269  -19.3849   16.8511 C   0  0  0  0  0  0  0  0  0  0  0  0
  -27.4664  -18.3008   19.0497 C   0  0  0  0  0  0  0  0  0  0  0  0
  -20.9991  -30.3709   23.7531 C   0  0  1  0  0  0  0  0  0  0  0  0
  -22.1942  -28.3882   20.7408 C   0  0  1  0  0  0  0  0  0  0  0  0
  -25.9562  -18.3470   19.3361 C   0  0  2  0  0  0  0  0  0  0  0  0
  -21.7171  -21.2773   17.7059 C   0  0  0  0  0  0  0  0  0  0  0  0
  -21.2565  -24.6971   23.3595 C   0  0  0  0  0  0  0  0  0  0  0  0
  -21.4000  -22.4848   22.1962 C   0  0  0  0  0  0  0  0  0  0  0  0
  -19.4750  -24.0061   21.7460 C   0  0  0  0  0  0  0  0  0  0  0  0
  -32.2542  -20.6654   17.7356 C   0  0  0  0  0  0  0  0  0  0  0  0
  -23.3616  -24.3190   16.1185 C   0  0  0  0  0  0  0  0  0  0  0  0
  -29.2637  -21.2848   17.4500 C   0  0  0  0  0  0  0  0  0  0  0  0
  -30.7786  -27.4396   19.9433 C   0  0  0  0  0  0  0  0  0  0  0  0
  -29.5858  -28.3727   20.0803 C   0  0  0  0  0  0  0  0  0  1  0  0
  -30.3852  -26.0970   19.3476 C   0  0  0  0  0  0  0  0  0  0  0  0
  -21.7575  -24.5905   20.8289 C   0  0  1  0  0  0  0  0  0  0  0  0
  -22.0038  -22.7591   17.5191 C   0  0  2  0  0  0  0  0  0  0  0  0
  -20.9926  -23.9642   22.0290 C   0  0  0  0  0  0  0  0  0  0  0  0
  -25.6767  -15.9573   19.8782 N   0  0  0  0  0  0  0  0  0  0  0  0
  -31.6235  -21.9255   18.0759 N   0  0  0  0  0  0  0  0  0  0  0  0
  -25.5237  -17.2332   20.2717 N   0  0  0  0  0  0  0  0  0  0  0  0
  -30.1288  -23.4542   18.3655 N   0  3  0  0  0  0  0  0  0  0  0  0
  -22.4856  -26.9533   20.7246 N   0  0  0  0  0  0  0  0  0  0  0  0
  -27.8568  -19.3684   18.1245 N   0  0  0  0  0  0  0  0  0  0  0  0
  -24.7538  -18.5780   22.0632 N   0  0  0  0  0  0  0  0  0  0  0  0
  -24.0323  -14.3695   23.5345 N   0  0  0  0  0  0  0  0  0  0  0  0
  -21.2233  -29.8193   22.4340 N   0  0  0  0  0  0  0  0  0  0  0  0
  -21.5052  -23.9334   19.5511 N   0  0  0  0  0  0  0  0  0  0  0  0
  -23.0040  -22.9100   16.4247 N   0  3  0  0  0  0  0  0  0  0  0  0
  -23.8165  -16.5901   24.0648 O   0  0  0  0  0  0  0  0  0  0  0  0
  -22.8437  -28.2481   23.0065 O   0  0  0  0  0  0  0  0  0  0  0  0
  -29.4868  -20.2119   19.5501 O   0  0  0  0  0  0  0  0  0  0  0  0
  -20.2532  -26.3707   20.3880 O   0  0  0  0  0  0  0  0  0  0  0  0
  -23.7146  -23.3886   19.1047 O   0  0  0  0  0  0  0  0  0  0  0  0
  -25.1805   -9.6717   20.7691 O   0  0  0  0  0  0  0  0  0  0  0  0
  -28.5964  -27.7744   20.9168 O   0  0  0  0  0  0  0  0  0  1  0  0
  -31.5299  -25.2611   19.2442 O   0  0  0  0  0  0  0  0  0  0  0  0
  -20.6130   -7.0839   22.4561 F   0  0  0  0  0  0  0  0  0  0  0  0
  -24.2351   -9.9983   23.3464 F   0  0  0  0  0  0  0  0  0  0  0  0
  1  2  1  0  0  0  0
  1  5  2  0  0  0  0
  2  6  2  0  0  0  0
  3  8  2  0  0  0  0
  3 16  1  0  0  0  0
  4  9  1  0  0  0  0
  4 16  2  0  0  0  0
  5 18  1  0  0  0  0
  6 20  1  0  0  0  0
  7 10  2  0  0  0  0
  7 19  1  0  0  0  0
  8 22  1  0  0  0  0
  9 22  2  0  0  0  0
 10 23  1  0  0  0  0
 11 12  2  0  0  0  0
 11 24  1  0  0  0  0
 12 25  1  0  0  0  0
 13 21  1  0  0  0  0
 13 23  2  0  0  0  0
 14 25  2  0  0  0  0
 14 26  1  0  0  0  0
 15 29  2  0  0  0  0
 15 62  1  0  0  0  0
 16 27  1  0  0  0  0
 17 27  1  0  0  0  0
 17 28  2  0  0  0  0
 17 31  1  0  0  0  0
 18 20  2  0  0  0  0
 18 36  1  0  0  0  0
 19 21  2  0  0  0  0
 19 37  1  0  0  0  0
 20 45  1  0  0  0  0
 21 38  1  0  0  0  0
 22 77  1  0  0  0  0
 23 78  1  0  0  0  0
 24 26  2  0  0  0  0
 24 77  1  0  0  0  0
 25 80  1  0  0  0  0
 26 81  1  0  0  0  0
 27 61  2  0  0  0  0
 28 63  1  0  0  0  0
 28 67  1  0  0  0  0
 29 64  1  0  0  0  0
 29 79  1  0  0  0  0
 30 54  1  0  0  0  0
 30 62  1  0  0  0  0
 30 64  2  0  0  0  0
 31 68  1  0  0  0  0
 31 72  2  0  0  0  0
 32 46  1  0  0  0  0
 32 69  1  0  0  0  0
 32 73  2  0  0  0  0
 33 54  1  0  0  0  0
 33 66  1  0  0  0  0
 33 74  2  0  0  0  0
 34 58  1  0  0  0  0
 34 65  1  0  0  0  0
 34 75  2  0  0  0  0
 35 59  1  0  0  0  0
 35 70  1  0  0  0  0
 35 76  2  0  0  0  0
 36 39  1  0  0  0  0
 37 46  1  0  0  0  0
 38 65  1  0  0  0  0
 39 41  1  0  0  0  0
 40 42  1  0  0  0  0
 40 43  1  0  0  0  0
 41 45  1  0  0  0  0
 42 47  1  0  0  0  0
 43 66  1  0  0  0  0
 44 47  1  0  0  0  0
 44 66  1  0  0  0  0
 45 69  1  0  0  0  0
 46 65  1  0  0  0  0
 47 63  1  0  0  0  0
 48 59  1  0  0  0  0
 49 60  1  0  0  0  0
 50 60  1  0  0  0  0
 51 60  1  0  0  0  0
 52 62  1  0  0  0  0
 53 71  1  0  0  0  0
 55 56  1  0  0  0  0
 55 57  1  0  0  0  0
 56 78  1  0  0  0  0
 57 79  1  0  0  0  0
 58 60  1  0  0  0  0
 58 70  1  0  0  0  0
 59 71  1  0  0  0  0
 61 63  1  0  0  0  0
M  CHG  2  64   1  71   1
M  ISO  4  33 100  54 100  56 101  78 101
M  END
> <Batch ID>
0056

> <Smiles>
CNC(C)C(=O)NC(C(=O)N1Cc2cc([101O:1][101CH2:1]CCOc3cn(C)c([100CH2:0][100C:0](=O)N4CCCC(n5nc(-c6ccc(Oc7ccc(F)cc7F)cc6)c(C(N)=O)c5N)C4)n3)ccc2CC1C(=O)NC1CCCc2ccccc21)C(C)(C)C

> <Shape>
0.225

> <Color>
0.104

> <Negative vol penalty>
0.000

$$$$

  -OEChem-04052317463D

 86 94  0     1  0  0  0  0  0999 V2000
  -18.2974  -27.6187   23.0590 C   0  0  0  0  0  0  0  0  0  0  0  0
  -18.8254  -26.7638   22.0969 C   0  0  0  0  0  0  0  0  0  0  0  0
  -23.0361   -9.9163   19.9064 C   0  0  0  0  0  0  0  0  0  0  0  0
  -24.2646   -9.5905   21.9611 C   0  0  0  0  0  0  0  0  0  0  0  0
  -18.9388  -28.8225   23.3476 C   0  0  0  0  0  0  0  0  0  0  0  0
  -19.9947  -27.1126   21.4221 C   0  0  0  0  0  0  0  0  0  0  0  0
  -23.2603  -23.2579   21.0734 C   0  0  0  0  0  0  0  0  0  0  0  0
  -22.4073   -8.6844   20.0870 C   0  0  0  0  0  0  0  0  0  0  0  0
  -23.6358   -8.3586   22.1417 C   0  0  0  0  0  0  0  0  0  0  0  0
  -22.9999  -22.2883   20.1060 C   0  0  0  0  0  0  0  0  0  0  0  0
  -20.6423   -7.2275   23.2282 C   0  0  0  0  0  0  0  0  0  0  0  0
  -20.1533   -6.9316   24.5005 C   0  0  0  0  0  0  0  0  0  0  0  0
  -24.6262  -23.3138   18.6490 C   0  0  0  0  0  0  0  0  0  0  0  0
  -21.5965   -4.9969   24.6054 C   0  0  0  0  0  0  0  0  0  0  0  0
  -26.7113  -17.7613   18.4251 C   0  0  0  0  0  0  0  0  0  0  0  0
  -23.9648  -10.3693   20.8434 C   0  0  0  0  0  0  0  0  0  0  0  0
  -24.1757  -12.8966   21.1191 C   0  0  0  0  0  0  0  0  0  0  0  0
  -20.1219  -29.1819   22.6829 C   0  0  0  0  0  0  0  0  0  0  0  0
  -24.1994  -24.2708   20.8312 C   0  0  0  0  0  0  0  0  0  0  0  0
  -20.6519  -28.3230   21.7012 C   0  0  0  0  0  0  0  0  0  0  0  0
  -24.8986  -24.2936   19.6160 C   0  0  0  0  0  0  0  0  0  0  0  0
  -22.7071   -7.9055   21.2047 C   0  0  0  0  0  0  0  0  0  0  0  0
  -23.6808  -22.3178   18.8925 C   0  0  0  0  0  0  0  0  0  0  0  0
  -21.6084   -6.4080   22.6443 C   0  0  0  0  0  0  0  0  0  0  0  0
  -20.6304   -5.8163   25.1891 C   0  0  0  0  0  0  0  0  0  0  0  0
  -22.0855   -5.2927   23.3330 C   0  0  0  0  0  0  0  0  0  0  0  0
  -24.6151  -11.6415   20.6571 C   0  0  0  0  0  0  0  0  0  0  0  0
  -25.5951  -18.5338   18.5812 C   0  0  0  0  0  0  0  0  0  0  0  0
  -25.1361  -13.7776   20.6855 C   0  0  0  0  0  0  0  0  0  0  0  0
  -27.0433  -19.0993   20.1571 C   0  0  0  0  0  0  0  0  0  0  0  0
  -23.0041  -13.2358   21.8728 C   0  0  0  0  0  0  0  0  0  0  0  0
  -24.0797  -27.4414   20.6400 C   0  0  0  0  0  0  0  0  0  0  0  0
  -27.3031  -27.1600   20.4100 C   0  0  0  0  0  0  0  0  0  0  0  0
  -29.9913  -25.2221   19.5945 C   0  0  0  0  0  0  0  0  0  0  0  0
  -30.7137  -14.7977   20.2778 C   0  0  0  0  0  0  0  0  0  0  0  0
  -20.7537  -30.5153   22.9951 C   0  0  0  0  0  0  0  0  0  0  0  0
  -24.4882  -25.2937   21.8955 C   0  0  0  0  0  0  0  0  0  0  0  0
  -25.9311  -25.3479   19.3148 C   0  0  0  0  0  0  0  0  0  0  0  0
  -22.1933  -30.6375   22.5023 C   0  0  0  0  0  0  0  0  0  0  0  0
  -28.9645  -13.1720   17.4496 C   0  0  0  0  0  0  0  0  0  0  0  0
  -22.3101  -30.1376   21.0659 C   0  0  0  0  0  0  0  0  0  0  0  0
  -27.6743  -12.6734   18.0982 C   0  0  0  0  0  0  0  0  0  0  0  0
  -30.1110  -13.2488   18.4532 C   0  0  0  0  0  0  0  0  0  0  0  0
  -28.5094  -13.5596   20.3113 C   0  0  0  0  0  0  0  0  0  0  0  0
  -21.9320  -28.6549   20.9654 C   0  0  1  0  0  0  0  0  0  0  0  0
  -25.0922  -26.5797   21.3400 C   0  0  1  0  0  0  0  0  0  0  0  0
  -27.3225  -13.5149   19.3373 C   0  0  2  0  0  0  0  0  0  0  0  0
  -32.4972  -25.2795   19.4750 C   0  0  0  0  0  0  0  0  0  0  0  0
  -27.1408  -28.8241   17.8577 C   0  0  0  0  0  0  0  0  0  0  0  0
  -29.4553  -28.0551   17.2921 C   0  0  0  0  0  0  0  0  0  0  0  0
  -29.0587  -29.3976   19.3569 C   0  0  0  0  0  0  0  0  0  0  0  0
  -31.2582  -16.8110   21.5931 C   0  0  0  0  0  0  0  0  0  0  0  0
  -30.2511  -23.0269   21.5623 C   0  0  0  0  0  0  0  0  0  0  0  0
  -24.3029  -18.5855   17.8059 C   0  0  0  0  0  0  0  0  0  0  0  0
  -24.3248  -19.5733   16.6374 C   0  0  0  0  0  0  0  0  0  0  0  0
  -28.9082  -17.5623   19.6139 C   0  0  0  0  0  0  0  0  0  0  0  0
  -28.9524  -16.5504   20.7559 C   0  0  0  0  0  0  0  0  0  0  0  0
  -24.5026  -21.0225   17.0752 C   0  0  0  0  0  0  0  0  0  1  0  0
  -28.2833  -26.9926   19.2742 C   0  0  1  0  0  0  0  0  0  0  0  0
  -31.2877  -24.9367   20.3308 C   0  0  2  0  0  0  0  0  0  0  0  0
  -27.6552  -19.7809   21.3249 C   0  0  0  0  0  0  0  0  0  0  0  0
  -28.4638  -28.2985   18.4498 C   0  0  0  0  0  0  0  0  0  0  0  0
  -25.7651  -11.7144   19.9816 N   0  0  0  0  0  0  0  0  0  0  0  0
  -27.5909  -18.1328   19.4132 N   0  0  0  0  0  0  0  0  0  0  0  0
  -26.0564  -13.0259   20.0159 N   0  0  0  0  0  0  0  0  0  0  0  0
  -25.8281  -19.3520   19.6602 N   0  3  0  0  0  0  0  0  0  0  0  0
  -26.1735  -26.3298   20.3847 N   0  0  0  0  0  0  0  0  0  0  0  0
  -29.7351  -14.0177   19.6401 N   0  0  0  0  0  0  0  0  0  0  0  0
  -25.2746  -15.1141   20.8154 N   0  0  0  0  0  0  0  0  0  0  0  0
  -22.1227  -12.2084   22.2361 N   0  0  0  0  0  0  0  0  0  0  0  0
  -23.0181  -27.8232   21.4379 N   0  0  0  0  0  0  0  0  0  0  0  0
  -29.5154  -26.4867   19.8695 N   0  0  0  0  0  0  0  0  0  0  0  0
  -30.2795  -15.9632   20.9273 N   0  0  0  0  0  0  0  0  0  0  0  0
  -31.3669  -23.4952   20.7006 N   0  3  0  0  0  0  0  0  0  0  0  0
  -22.7381  -14.4172   22.2000 O   0  0  0  0  0  0  0  0  0  0  0  0
  -24.2498  -27.7392   19.4635 O   0  0  0  0  0  0  0  0  0  0  0  0
  -27.5348  -27.9916   21.2912 O   0  0  0  0  0  0  0  0  0  0  0  0
  -29.4563  -24.4063   18.8470 O   0  0  0  0  0  0  0  0  0  0  0  0
  -31.9088  -14.4761   20.2590 O   0  0  0  0  0  0  0  0  0  0  0  0
  -22.0935   -6.7035   21.3814 O   0  0  0  0  0  0  0  0  0  0  0  0
  -23.4280  -21.3731   17.9462 O   0  0  0  0  0  0  0  0  0  1  0  0
  -20.1618   -5.5332   26.4116 F   0  0  0  0  0  0  0  0  0  0  0  0
  -23.0145   -4.5025   22.7777 F   0  0  0  0  0  0  0  0  0  0  0  0
  -28.9132  -19.3359   21.6305 F   0  0  0  0  0  0  0  0  0  0  0  0
  -27.7918  -21.1338   21.1678 F   0  0  0  0  0  0  0  0  0  0  0  0
  -26.9295  -19.6238   22.4735 F   0  0  0  0  0  0  0  0  0  0  0  0
  1  2  1  0  0  0  0
  1  5  2  0  0  0  0
  2  6  2  0  0  0  0
  3  8  2  0  0  0  0
  3 16  1  0  0  0  0
  4  9  1  0  0  0  0
  4 16  2  0  0  0  0
  5 18  1  0  0  0  0
  6 20  1  0  0  0  0
  7 10  2  0  0  0  0
  7 19  1  0  0  0  0
  8 22  1  0  0  0  0
  9 22  2  0  0  0  0
 10 23  1  0  0  0  0
 11 12  2  0  0  0  0
 11 24  1  0  0  0  0
 12 25  1  0  0  0  0
 13 21  1  0  0  0  0
 13 23  2  0  0  0  0
 14 25  2  0  0  0  0
 14 26  1  0  0  0  0
 15 28  2  0  0  0  0
 15 64  1  0  0  0  0
 16 27  1  0  0  0  0
 17 27  1  0  0  0  0
 17 29  2  0  0  0  0
 17 31  1  0  0  0  0
 18 20  2  0  0  0  0
 18 36  1  0  0  0  0
 19 21  2  0  0  0  0
 19 37  1  0  0  0  0
 20 45  1  0  0  0  0
 21 38  1  0  0  0  0
 22 80  1  0  0  0  0
 23 81  1  0  0  0  0
 24 26  2  0  0  0  0
 24 80  1  0  0  0  0
 25 82  1  0  0  0  0
 26 83  1  0  0  0  0
 27 63  2  0  0  0  0
 28 54  1  0  0  0  0
 28 66  1  0  0  0  0
 29 65  1  0  0  0  0
 29 69  1  0  0  0  0
 30 61  1  0  0  0  0
 30 64  1  0  0  0  0
 30 66  2  0  0  0  0
 31 70  1  0  0  0  0
 31 75  2  0  0  0  0
 32 46  1  0  0  0  0
 32 71  1  0  0  0  0
 32 76  2  0  0  0  0
 33 59  1  0  0  0  0
 33 67  1  0  0  0  0
 33 77  2  0  0  0  0
 34 60  1  0  0  0  0
 34 72  1  0  0  0  0
 34 78  2  0  0  0  0
 35 68  1  0  0  0  0
 35 73  1  0  0  0  0
 35 79  2  0  0  0  0
 36 39  1  0  0  0  0
 37 46  1  0  0  0  0
 38 67  1  0  0  0  0
 39 41  1  0  0  0  0
 40 42  1  0  0  0  0
 40 43  1  0  0  0  0
 41 45  1  0  0  0  0
 42 47  1  0  0  0  0
 43 68  1  0  0  0  0
 44 47  1  0  0  0  0
 44 68  1  0  0  0  0
 45 71  1  0  0  0  0
 46 67  1  0  0  0  0
 47 65  1  0  0  0  0
 48 60  1  0  0  0  0
 49 62  1  0  0  0  0
 50 62  1  0  0  0  0
 51 62  1  0  0  0  0
 52 73  1  0  0  0  0
 53 74  1  0  0  0  0
 54 55  1  0  0  0  0
 55 58  1  0  0  0  0
 56 57  1  0  0  0  0
 56 64  1  0  0  0  0
 57 73  1  0  0  0  0
 58 81  1  0  0  0  0
 59 62  1  0  0  0  0
 59 72  1  0  0  0  0
 60 74  1  0  0  0  0
 61 84  1  0  0  0  0
 61 85  1  0  0  0  0
 61 86  1  0  0  0  0
 63 65  1  0  0  0  0
M  CHG  2  66   1  74   1
M  ISO  4  35 100  58 101  73 100  81 101
M  END
> <Batch ID>
0056

> <Smiles>
CNC(C)C(=O)NC(C(=O)N1Cc2cc([101O:1][101CH2:1]CCc3cn(CC[100N:0](C)[100C:0](=O)N4CCCC(n5nc(-c6ccc(Oc7ccc(F)cc7F)cc6)c(C(N)=O)c5N)C4)c(C(F)(F)F)n3)ccc2CC1C(=O)NC1CCCc2ccccc21)C(C)(C)C

> <Shape>
0.342

> <Color>
0.180

> <Negative vol penalty>
0.000

$$$$

  -OEChem-04052317463D

 84 92  0     1  0  0  0  0  0999 V2000
  -28.0932  -32.5401   26.8363 C   0  0  0  0  0  0  0  0  0  0  0  0
  -28.2918  -31.5657   25.8634 C   0  0  0  0  0  0  0  0  0  0  0  0
  -28.0744  -14.8074   21.2740 C   0  0  0  0  0  0  0  0  0  0  0  0
  -25.9424  -15.6222   20.4816 C   0  0  0  0  0  0  0  0  0  0  0  0
  -26.8251  -32.7277   27.3846 C   0  0  0  0  0  0  0  0  0  0  0  0
  -27.2226  -30.7777   25.4389 C   0  0  0  0  0  0  0  0  0  0  0  0
  -27.0576  -30.2768   20.4024 C   0  0  0  0  0  0  0  0  0  0  0  0
  -27.6295  -13.4943   21.1209 C   0  0  0  0  0  0  0  0  0  0  0  0
  -25.4975  -14.3091   20.3285 C   0  0  0  0  0  0  0  0  0  0  0  0
  -27.9455  -29.3713   19.8231 C   0  0  0  0  0  0  0  0  0  0  0  0
  -23.6736  -11.1760   20.0695 C   0  0  0  0  0  0  0  0  0  0  0  0
  -22.3935  -10.8674   20.5295 C   0  0  0  0  0  0  0  0  0  0  0  0
  -26.1746  -27.7402   19.6729 C   0  0  0  0  0  0  0  0  0  0  0  0
  -23.0388  -11.5216   22.7639 C   0  0  0  0  0  0  0  0  0  0  0  0
  -29.1076  -26.2419   22.3318 C   0  0  0  0  0  0  0  0  0  0  0  0
  -27.2308  -15.8714   20.9544 C   0  0  0  0  0  0  0  0  0  0  0  0
  -28.3487  -18.0201   20.1537 C   0  0  0  0  0  0  0  0  0  0  0  0
  -25.7377  -31.9481   26.9597 C   0  0  0  0  0  0  0  0  0  0  0  0
  -25.7219  -29.9164   20.6316 C   0  0  0  0  0  0  0  0  0  0  0  0
  -25.9390  -30.9542   25.9830 C   0  0  0  0  0  0  0  0  0  0  0  0
  -25.2711  -28.6438   20.2529 C   0  0  0  0  0  0  0  0  0  0  0  0
  -26.3410  -13.2452   20.6481 C   0  0  0  0  0  0  0  0  0  0  0  0
  -27.5048  -28.1018   19.4610 C   0  0  0  0  0  0  0  0  0  0  0  0
  -24.6364  -11.6573   20.9567 C   0  0  0  0  0  0  0  0  0  0  0  0
  -22.0761  -11.0402   21.8767 C   0  0  0  0  0  0  0  0  0  0  0  0
  -24.3190  -11.8301   22.3039 C   0  0  0  0  0  0  0  0  0  0  0  0
  -27.6897  -17.2280   21.1130 C   0  0  0  0  0  0  0  0  0  0  0  0
  -28.9691  -25.7720   23.6073 C   0  0  0  0  0  0  0  0  0  0  0  0
  -28.5689  -19.2173   20.7898 C   0  0  0  0  0  0  0  0  0  0  0  0
  -30.3791  -24.4417   22.5383 C   0  0  0  0  0  0  0  0  0  0  0  0
  -28.7277  -17.7021   18.8081 C   0  0  0  0  0  0  0  0  0  0  0  0
  -23.8885  -29.6244   23.2117 C   0  0  0  0  0  0  0  0  0  0  0  0
  -21.5538  -29.1189   21.0172 C   0  0  0  0  0  0  0  0  0  0  0  0
  -20.7088  -28.1367   17.8600 C   0  0  0  0  0  0  0  0  0  0  0  0
  -26.7710  -23.3705   23.8664 C   0  0  0  0  0  0  0  0  0  0  0  0
  -24.3956  -32.1556   27.6156 C   0  0  0  0  0  0  0  0  0  0  0  0
  -24.7701  -30.9139   21.2329 C   0  0  0  0  0  0  0  0  0  0  0  0
  -23.8422  -28.2148   20.4590 C   0  0  0  0  0  0  0  0  0  0  0  0
  -23.2366  -31.5327   26.8415 C   0  0  0  0  0  0  0  0  0  0  0  0
  -28.0660  -20.5041   25.6563 C   0  0  0  0  0  0  0  0  0  0  0  0
  -23.5837  -30.1102   26.4138 C   0  0  0  0  0  0  0  0  0  0  0  0
  -28.1369  -19.4571   24.5432 C   0  0  0  0  0  0  0  0  0  0  0  0
  -26.8350  -21.3924   25.5020 C   0  0  0  0  0  0  0  0  0  0  0  0
  -26.7966  -21.0253   23.0653 C   0  0  0  0  0  0  0  0  0  0  0  0
  -24.7990  -30.0963   25.4787 C   0  0  1  0  0  0  0  0  0  0  0  0
  -23.5585  -30.2617   21.8917 C   0  0  1  0  0  0  0  0  0  0  0  0
  -28.0314  -20.1100   23.1522 C   0  0  2  0  0  0  0  0  0  0  0  0
  -31.3224  -23.3321   22.2521 C   0  0  0  0  0  0  0  0  0  0  0  0
  -18.7189  -27.7930   16.3702 C   0  0  0  0  0  0  0  0  0  0  0  0
  -20.8948  -26.5338   22.4981 C   0  0  0  0  0  0  0  0  0  0  0  0
  -19.6030  -25.7923   20.4857 C   0  0  0  0  0  0  0  0  0  0  0  0
  -18.9009  -27.8352   21.7331 C   0  0  0  0  0  0  0  0  0  0  0  0
  -30.1593  -25.1970   17.7967 C   0  0  0  0  0  0  0  0  0  0  0  0
  -29.1232  -23.5399   19.3478 C   0  0  0  0  0  0  0  0  0  0  0  0
  -21.6707  -30.1502   15.9159 C   0  0  0  0  0  0  0  0  0  0  0  0
  -28.1708  -26.2567   24.7362 C   0  0  0  0  0  0  0  0  0  0  0  0
  -30.4355  -25.5403   20.2571 C   0  0  0  0  0  0  0  0  0  0  0  0
  -26.7477  -25.6628   24.8161 C   0  0  0  0  0  0  0  0  0  0  0  0
  -28.1288  -25.8300   19.1365 C   0  0  0  0  0  0  0  0  0  1  0  0
  -20.9920  -27.9070   20.3138 C   0  0  1  0  0  0  0  0  0  0  0  0
  -19.7992  -28.7645   16.8193 C   0  0  2  0  0  0  0  0  0  0  0  0
  -20.1251  -27.0242   21.2554 C   0  0  0  0  0  0  0  0  0  0  0  0
  -29.4515  -25.0326   19.1609 C   0  0  0  0  0  0  0  0  0  0  0  0
  -27.5036  -17.8681   22.2704 N   0  0  0  0  0  0  0  0  0  0  0  0
  -29.9860  -25.4001   21.6932 N   0  0  0  0  0  0  0  0  0  0  0  0
  -28.0490  -19.0750   22.0426 N   0  0  0  0  0  0  0  0  0  0  0  0
  -29.7667  -24.6576   23.7070 N   0  3  0  0  0  0  0  0  0  0  0  0
  -22.9514  -29.2235   21.0562 N   0  0  0  0  0  0  0  0  0  0  0  0
  -26.8042  -21.9979   24.1632 N   0  0  0  0  0  0  0  0  0  0  0  0
  -29.1547  -20.3674   20.3941 N   0  0  0  0  0  0  0  0  0  0  0  0
  -28.4253  -16.4265   18.3124 N   0  0  0  0  0  0  0  0  0  0  0  0
  -24.4138  -30.4995   24.1433 N   0  0  0  0  0  0  0  0  0  0  0  0
  -20.2811  -28.4080   19.1425 N   0  0  0  0  0  0  0  0  0  0  0  0
  -26.7736  -24.2245   24.9625 N   0  0  0  0  0  0  0  0  0  0  0  0
  -20.5873  -29.1766   15.6235 N   0  3  0  0  0  0  0  0  0  0  0  0
  -29.3319  -18.5191   18.0725 O   0  0  0  0  0  0  0  0  0  0  0  0
  -23.6805  -28.4277   23.3737 O   0  0  0  0  0  0  0  0  0  0  0  0
  -20.7810  -29.9459   21.5075 O   0  0  0  0  0  0  0  0  0  0  0  0
  -21.6976  -27.4691   17.5647 O   0  0  0  0  0  0  0  0  0  0  0  0
  -26.7463  -23.8037   22.7093 O   0  0  0  0  0  0  0  0  0  0  0  0
  -25.9066  -11.9640   20.4983 O   0  0  0  0  0  0  0  0  0  0  0  0
  -28.3695  -27.2158   18.8960 O   0  0  0  0  0  0  0  0  0  1  0  0
  -20.8463  -10.7453   22.3180 F   0  0  0  0  0  0  0  0  0  0  0  0
  -25.2393  -12.2933   23.1608 F   0  0  0  0  0  0  0  0  0  0  0  0
  1  2  1  0  0  0  0
  1  5  2  0  0  0  0
  2  6  2  0  0  0  0
  3  8  2  0  0  0  0
  3 16  1  0  0  0  0
  4  9  1  0  0  0  0
  4 16  2  0  0  0  0
  5 18  1  0  0  0  0
  6 20  1  0  0  0  0
  7 10  2  0  0  0  0
  7 19  1  0  0  0  0
  8 22  1  0  0  0  0
  9 22  2  0  0  0  0
 10 23  1  0  0  0  0
 11 12  2  0  0  0  0
 11 24  1  0  0  0  0
 12 25  1  0  0  0  0
 13 21  1  0  0  0  0
 13 23  2  0  0  0  0
 14 25  2  0  0  0  0
 14 26  1  0  0  0  0
 15 28  2  0  0  0  0
 15 65  1  0  0  0  0
 16 27  1  0  0  0  0
 17 27  1  0  0  0  0
 17 29  2  0  0  0  0
 17 31  1  0  0  0  0
 18 20  2  0  0  0  0
 18 36  1  0  0  0  0
 19 21  2  0  0  0  0
 19 37  1  0  0  0  0
 20 45  1  0  0  0  0
 21 38  1  0  0  0  0
 22 81  1  0  0  0  0
 23 82  1  0  0  0  0
 24 26  2  0  0  0  0
 24 81  1  0  0  0  0
 25 83  1  0  0  0  0
 26 84  1  0  0  0  0
 27 64  2  0  0  0  0
 28 56  1  0  0  0  0
 28 67  1  0  0  0  0
 29 66  1  0  0  0  0
 29 70  1  0  0  0  0
 30 48  1  0  0  0  0
 30 65  1  0  0  0  0
 30 67  2  0  0  0  0
 31 71  1  0  0  0  0
 31 76  2  0  0  0  0
 32 46  1  0  0  0  0
 32 72  1  0  0  0  0
 32 77  2  0  0  0  0
 33 60  1  0  0  0  0
 33 68  1  0  0  0  0
 33 78  2  0  0  0  0
 34 61  1  0  0  0  0
 34 73  1  0  0  0  0
 34 79  2  0  0  0  0
 35 69  1  0  0  0  0
 35 74  1  0  0  0  0
 35 80  2  0  0  0  0
 36 39  1  0  0  0  0
 37 46  1  0  0  0  0
 38 68  1  0  0  0  0
 39 41  1  0  0  0  0
 40 42  1  0  0  0  0
 40 43  1  0  0  0  0
 41 45  1  0  0  0  0
 42 47  1  0  0  0  0
 43 69  1  0  0  0  0
 44 47  1  0  0  0  0
 44 69  1  0  0  0  0
 45 72  1  0  0  0  0
 46 68  1  0  0  0  0
 47 66  1  0  0  0  0
 49 61  1  0  0  0  0
 50 62  1  0  0  0  0
 51 62  1  0  0  0  0
 52 62  1  0  0  0  0
 53 63  1  0  0  0  0
 54 63  1  0  0  0  0
 55 75  1  0  0  0  0
 56 58  1  0  0  0  0
 57 63  1  0  0  0  0
 57 65  1  0  0  0  0
 58 74  1  0  0  0  0
 59 63  1  0  0  0  0
 59 82  1  0  0  0  0
 60 62  1  0  0  0  0
 60 73  1  0  0  0  0
 61 75  1  0  0  0  0
 64 66  1  0  0  0  0
M  CHG  2  67   1  75   1
M  ISO  4  35 100  59 101  74 100  82 101
M  END
> <Batch ID>
0056

> <Smiles>
CNC(C)C(=O)NC(C(=O)N1Cc2cc([101O:1][101CH2:1]C(C)(C)Cn3cc(CC[100NH:0][100C:0](=O)N4CCCC(n5nc(-c6ccc(Oc7ccc(F)cc7F)cc6)c(C(N)=O)c5N)C4)nc3C)ccc2CC1C(=O)NC1CCCc2ccccc21)C(C)(C)C

> <Shape>
0.274

> <Color>
0.071

> <Negative vol penalty>
0.000

$$$$

  -OEChem-04052317463D

 82 90  0     1  0  0  0  0  0999 V2000
  -27.0268  -34.5287   23.3057 C   0  0  0  0  0  0  0  0  0  0  0  0
  -27.3614  -33.1803   23.3789 C   0  0  0  0  0  0  0  0  0  0  0  0
  -24.8824  -14.8265   21.4031 C   0  0  0  0  0  0  0  0  0  0  0  0
  -27.2632  -14.4231   21.4804 C   0  0  0  0  0  0  0  0  0  0  0  0
  -25.6899  -34.9186   23.3730 C   0  0  0  0  0  0  0  0  0  0  0  0
  -26.3592  -32.2211   23.5206 C   0  0  0  0  0  0  0  0  0  0  0  0
  -27.0252  -28.2478   20.4523 C   0  0  0  0  0  0  0  0  0  0  0  0
  -24.6753  -13.5198   20.9614 C   0  0  0  0  0  0  0  0  0  0  0  0
  -27.0561  -13.1163   21.0388 C   0  0  0  0  0  0  0  0  0  0  0  0
  -27.9751  -27.3012   20.8334 C   0  0  0  0  0  0  0  0  0  0  0  0
  -24.5612  -10.4223   22.3126 C   0  0  0  0  0  0  0  0  0  0  0  0
  -23.5333   -9.6918   22.9087 C   0  0  0  0  0  0  0  0  0  0  0  0
  -26.2152  -25.8842   21.6783 C   0  0  0  0  0  0  0  0  0  0  0  0
  -22.4608   -9.4456   20.7579 C   0  0  0  0  0  0  0  0  0  0  0  0
  -31.6835  -23.1857   23.6650 C   0  0  0  0  0  0  0  0  0  0  0  0
  -26.1764  -15.2782   21.6626 C   0  0  0  0  0  0  0  0  0  0  0  0
  -26.4245  -17.0803   23.4511 C   0  0  0  0  0  0  0  0  0  0  0  0
  -24.6701  -33.9630   23.5059 C   0  0  0  0  0  0  0  0  0  0  0  0
  -25.6617  -28.0242   20.6916 C   0  0  0  0  0  0  0  0  0  0  0  0
  -25.0075  -32.5987   23.5911 C   0  0  0  0  0  0  0  0  0  0  0  0
  -25.2498  -26.8284   21.2970 C   0  0  0  0  0  0  0  0  0  0  0  0
  -25.7621  -12.6647   20.7793 C   0  0  0  0  0  0  0  0  0  0  0  0
  -27.5705  -26.1204   21.4492 C   0  0  0  0  0  0  0  0  0  0  0  0
  -24.5388  -10.6646   20.9390 C   0  0  0  0  0  0  0  0  0  0  0  0
  -22.4832   -9.2034   22.1314 C   0  0  0  0  0  0  0  0  0  0  0  0
  -23.4886  -10.1762   20.1617 C   0  0  0  0  0  0  0  0  0  0  0  0
  -26.3910  -16.6282   22.1183 C   0  0  0  0  0  0  0  0  0  0  0  0
  -26.6574  -18.4301   23.3500 C   0  0  0  0  0  0  0  0  0  0  0  0
  -30.7184  -24.3529   22.0088 C   0  0  0  0  0  0  0  0  0  0  0  0
  -31.9732  -22.5546   21.5308 C   0  0  0  0  0  0  0  0  0  0  0  0
  -26.2599  -16.3457   24.6713 C   0  0  0  0  0  0  0  0  0  0  0  0
  -23.4168  -29.4811   22.4066 C   0  0  0  0  0  0  0  0  0  0  0  0
  -21.4696  -27.3155   20.9780 C   0  0  0  0  0  0  0  0  0  0  0  0
  -21.1400  -24.2867   19.4402 C   0  0  0  0  0  0  0  0  0  0  0  0
  -29.2455  -21.8177   19.1456 C   0  0  0  0  0  0  0  0  0  0  0  0
  -23.2427  -34.4360   23.6219 C   0  0  0  0  0  0  0  0  0  0  0  0
  -24.6474  -29.0434   20.2502 C   0  0  0  0  0  0  0  0  0  0  0  0
  -23.7965  -26.5313   21.5579 C   0  0  0  0  0  0  0  0  0  0  0  0
  -22.2145  -33.3306   23.3955 C   0  0  0  0  0  0  0  0  0  0  0  0
  -25.9379  -22.1451   20.4221 C   0  0  0  0  0  0  0  0  0  0  0  0
  -22.5935  -32.0798   24.1819 C   0  0  0  0  0  0  0  0  0  0  0  0
  -25.6820  -20.8091   21.1218 C   0  0  0  0  0  0  0  0  0  0  0  0
  -26.7729  -21.9681   19.1558 C   0  0  0  0  0  0  0  0  0  0  0  0
  -27.7864  -19.9060   20.0472 C   0  0  0  0  0  0  0  0  0  0  0  0
  -23.9472  -31.5268   23.7200 C   0  0  1  0  0  0  0  0  0  0  0  0
  -23.3273  -28.9395   21.0079 C   0  0  1  0  0  0  0  0  0  0  0  0
  -26.9955  -20.0400   21.3598 C   0  0  2  0  0  0  0  0  0  0  0  0
  -19.4189  -22.7738   18.4172 C   0  0  0  0  0  0  0  0  0  0  0  0
  -32.7876  -20.1513   21.0238 C   0  0  0  0  0  0  0  0  0  0  0  0
  -33.9862  -22.1164   20.0978 C   0  0  0  0  0  0  0  0  0  0  0  0
  -20.5102  -26.5264   23.7649 C   0  0  0  0  0  0  0  0  0  0  0  0
  -19.5549  -24.4376   22.7687 C   0  0  0  0  0  0  0  0  0  0  0  0
  -18.7041  -26.6668   22.0408 C   0  0  0  0  0  0  0  0  0  0  0  0
  -22.4614  -24.3813   16.7937 C   0  0  0  0  0  0  0  0  0  0  0  0
  -29.8637  -25.4990   21.5535 C   0  0  0  0  0  0  0  0  0  1  0  0
  -31.7090  -21.5251   19.2151 C   0  0  0  0  0  0  0  0  0  0  0  0
  -21.0039  -25.9172   21.3050 C   0  0  1  0  0  0  0  0  0  0  0  0
  -20.4323  -23.8784   18.1608 C   0  0  2  0  0  0  0  0  0  0  0  0
  -32.5658  -21.6233   20.5287 C   0  0  0  0  0  0  0  0  0  0  0  0
  -19.9709  -25.8931   22.4668 C   0  0  0  0  0  0  0  0  0  0  0  0
  -30.9078  -24.2303   23.3324 N   0  0  0  0  0  0  0  0  0  0  0  0
  -32.2494  -22.3075   22.8213 N   0  0  0  0  0  0  0  0  0  0  0  0
  -26.5868  -17.6111   21.2353 N   0  0  0  0  0  0  0  0  0  0  0  0
  -31.2178  -23.5556   21.0508 N   0  0  0  0  0  0  0  0  0  0  0  0
  -26.7454  -18.6942   22.0148 N   0  0  0  0  0  0  0  0  0  0  0  0
  -22.8432  -27.5616   21.1138 N   0  0  0  0  0  0  0  0  0  0  0  0
  -28.0053  -21.2329   19.4503 N   0  0  0  0  0  0  0  0  0  0  0  0
  -26.7933  -19.4050   24.2738 N   0  0  0  0  0  0  0  0  0  0  0  0
  -26.0278  -14.9657   24.5943 N   0  0  0  0  0  0  0  0  0  0  0  0
  -23.8002  -30.8070   22.4731 N   0  0  0  0  0  0  0  0  0  0  0  0
  -20.5109  -25.3485   20.0553 N   0  0  0  0  0  0  0  0  0  0  0  0
  -30.3637  -21.0563   19.4628 N   0  0  0  0  0  0  0  0  0  0  0  0
  -21.4188  -23.3875   17.1573 N   0  3  0  0  0  0  0  0  0  0  0  0
  -26.3007  -16.8996   25.7961 O   0  0  0  0  0  0  0  0  0  0  0  0
  -23.1557  -28.7506   23.3552 O   0  0  0  0  0  0  0  0  0  0  0  0
  -20.6461  -28.1563   20.6087 O   0  0  0  0  0  0  0  0  0  0  0  0
  -22.1477  -23.7182   19.8547 O   0  0  0  0  0  0  0  0  0  0  0  0
  -29.3488  -22.9378   18.6340 O   0  0  0  0  0  0  0  0  0  0  0  0
  -25.5604  -11.3894   20.3485 O   0  0  0  0  0  0  0  0  0  0  0  0
  -28.4956  -25.1951   21.8228 O   0  0  0  0  0  0  0  0  0  1  0  0
  -21.4970   -8.5006   22.7038 F   0  0  0  0  0  0  0  0  0  0  0  0
  -23.4623  -10.4047   18.8415 F   0  0  0  0  0  0  0  0  0  0  0  0
  1  2  1  0  0  0  0
  1  5  2  0  0  0  0
  2  6  2  0  0  0  0
  3  8  2  0  0  0  0
  3 16  1  0  0  0  0
  4  9  1  0  0  0  0
  4 16  2  0  0  0  0
  5 18  1  0  0  0  0
  6 20  1  0  0  0  0
  7 10  2  0  0  0  0
  7 19  1  0  0  0  0
  8 22  1  0  0  0  0
  9 22  2  0  0  0  0
 10 23  1  0  0  0  0
 11 12  2  0  0  0  0
 11 24  1  0  0  0  0
 12 25  1  0  0  0  0
 13 21  1  0  0  0  0
 13 23  2  0  0  0  0
 14 25  2  0  0  0  0
 14 26  1  0  0  0  0
 15 61  2  0  0  0  0
 15 62  1  0  0  0  0
 16 27  1  0  0  0  0
 17 27  1  0  0  0  0
 17 28  2  0  0  0  0
 17 31  1  0  0  0  0
 18 20  2  0  0  0  0
 18 36  1  0  0  0  0
 19 21  2  0  0  0  0
 19 37  1  0  0  0  0
 20 45  1  0  0  0  0
 21 38  1  0  0  0  0
 22 79  1  0  0  0  0
 23 80  1  0  0  0  0
 24 26  2  0  0  0  0
 24 79  1  0  0  0  0
 25 81  1  0  0  0  0
 26 82  1  0  0  0  0
 27 63  2  0  0  0  0
 28 65  1  0  0  0  0
 28 68  1  0  0  0  0
 29 55  1  0  0  0  0
 29 61  1  0  0  0  0
 29 64  2  0  0  0  0
 30 59  1  0  0  0  0
 30 62  2  0  0  0  0
 30 64  1  0  0  0  0
 31 69  1  0  0  0  0
 31 74  2  0  0  0  0
 32 46  1  0  0  0  0
 32 70  1  0  0  0  0
 32 75  2  0  0  0  0
 33 57  1  0  0  0  0
 33 66  1  0  0  0  0
 33 76  2  0  0  0  0
 34 58  1  0  0  0  0
 34 71  1  0  0  0  0
 34 77  2  0  0  0  0
 35 67  1  0  0  0  0
 35 72  1  0  0  0  0
 35 78  2  0  0  0  0
 36 39  1  0  0  0  0
 37 46  1  0  0  0  0
 38 66  1  0  0  0  0
 39 41  1  0  0  0  0
 40 42  1  0  0  0  0
 40 43  1  0  0  0  0
 41 45  1  0  0  0  0
 42 47  1  0  0  0  0
 43 67  1  0  0  0  0
 44 47  1  0  0  0  0
 44 67  1  0  0  0  0
 45 70  1  0  0  0  0
 46 66  1  0  0  0  0
 47 65  1  0  0  0  0
 48 58  1  0  0  0  0
 49 59  1  0  0  0  0
 50 59  1  0  0  0  0
 51 60  1  0  0  0  0
 52 60  1  0  0  0  0
 53 60  1  0  0  0  0
 54 73  1  0  0  0  0
 55 80  1  0  0  0  0
 56 59  1  0  0  0  0
 56 72  1  0  0  0  0
 57 60  1  0  0  0  0
 57 71  1  0  0  0  0
 58 73  1  0  0  0  0
 63 65  1  0  0  0  0
M  CHG  1  73   1
M  ISO  4  35 100  55 101  72 100  80 101
M  END
> <Batch ID>
0056

> <Smiles>
CNC(C)C(=O)NC(C(=O)N1Cc2cc([101O:1][101CH2:1]c3ncnc(C(C)(C)C[100NH:0][100C:0](=O)N4CCCC(n5nc(-c6ccc(Oc7ccc(F)cc7F)cc6)c(C(N)=O)c5N)C4)n3)ccc2CC1C(=O)NC1CCCc2ccccc21)C(C)(C)C

> <Shape>
0.222

> <Color>
0.058

> <Negative vol penalty>
0.000

$$$$

  -OEChem-04052317463D

 84 92  0     1  0  0  0  0  0999 V2000
  -21.5408  -12.9244   19.7356 C   0  0  0  0  0  0  0  0  0  0  0  0
  -21.6717  -14.1056   20.4587 C   0  0  0  0  0  0  0  0  0  0  0  0
  -27.2180  -31.5874   22.8576 C   0  0  0  0  0  0  0  0  0  0  0  0
  -26.6047  -29.4281   23.7510 C   0  0  0  0  0  0  0  0  0  0  0  0
  -22.6540  -12.1129   19.5208 C   0  0  0  0  0  0  0  0  0  0  0  0
  -22.9158  -14.4756   20.9684 C   0  0  0  0  0  0  0  0  0  0  0  0
  -23.9565  -19.3701   20.1907 C   0  0  0  0  0  0  0  0  0  0  0  0
  -28.1859  -31.7242   23.8526 C   0  0  0  0  0  0  0  0  0  0  0  0
  -27.5726  -29.5648   24.7460 C   0  0  0  0  0  0  0  0  0  0  0  0
  -23.3435  -20.2936   21.0364 C   0  0  0  0  0  0  0  0  0  0  0  0
  -30.5742  -32.8000   26.3750 C   0  0  0  0  0  0  0  0  0  0  0  0
  -30.6595  -34.0260   27.0347 C   0  0  0  0  0  0  0  0  0  0  0  0
  -25.3741  -20.4485   22.3294 C   0  0  0  0  0  0  0  0  0  0  0  0
  -28.3779  -33.7785   27.7898 C   0  0  0  0  0  0  0  0  0  0  0  0
  -26.4273  -30.4394   22.8068 C   0  0  0  0  0  0  0  0  0  0  0  0
  -25.5925  -29.7231   20.5051 C   0  0  0  0  0  0  0  0  0  0  0  0
  -23.9143  -12.4779   20.0199 C   0  0  0  0  0  0  0  0  0  0  0  0
  -25.2817  -18.9700   20.4149 C   0  0  0  0  0  0  0  0  0  0  0  0
  -24.0467  -13.6675   20.7613 C   0  0  0  0  0  0  0  0  0  0  0  0
  -26.0025  -19.5217   21.4836 C   0  0  0  0  0  0  0  0  0  0  0  0
  -28.3632  -30.7129   24.7968 C   0  0  0  0  0  0  0  0  0  0  0  0
  -24.0514  -20.8308   22.1076 C   0  0  0  0  0  0  0  0  0  0  0  0
  -29.3907  -32.0633   26.4226 C   0  0  0  0  0  0  0  0  0  0  0  0
  -29.5614  -34.5153   27.7421 C   0  0  0  0  0  0  0  0  0  0  0  0
  -28.2926  -32.5525   27.1300 C   0  0  0  0  0  0  0  0  0  0  0  0
  -25.4269  -30.2977   21.7796 C   0  0  0  0  0  0  0  0  0  0  0  0
  -24.3560  -29.8301   19.9170 C   0  0  0  0  0  0  0  0  0  0  0  0
  -22.0232  -25.7765   22.7576 C   0  0  0  0  0  0  0  0  0  0  0  0
  -20.5854  -27.3627   22.4030 C   0  0  0  0  0  0  0  0  0  0  0  0
  -26.7598  -29.1444   19.9065 C   0  0  0  0  0  0  0  0  0  0  0  0
  -26.7087  -16.2096   21.0840 C   0  0  0  0  0  0  0  0  0  0  0  0
  -29.4116  -17.9655   20.7190 C   0  0  0  0  0  0  0  0  0  0  0  0
  -30.9019  -21.0352   20.7741 C   0  0  0  0  0  0  0  0  0  0  0  0
  -18.8957  -30.4690   22.6217 C   0  0  0  0  0  0  0  0  0  0  0  0
  -25.0792  -11.5448   19.8026 C   0  0  0  0  0  0  0  0  0  0  0  0
  -25.9372  -17.9930   19.4777 C   0  0  0  0  0  0  0  0  0  0  0  0
  -27.4340  -19.1404   21.7554 C   0  0  0  0  0  0  0  0  0  0  0  0
  -26.4365  -12.1958   20.0560 C   0  0  0  0  0  0  0  0  0  0  0  0
  -20.4070  -32.5208   19.9369 C   0  0  0  0  0  0  0  0  0  0  0  0
  -26.4159  -12.9819   21.3631 C   0  0  0  0  0  0  0  0  0  0  0  0
  -21.8917  -32.1802   20.0532 C   0  0  0  0  0  0  0  0  0  0  0  0
  -19.6863  -32.3798   21.2743 C   0  0  0  0  0  0  0  0  0  0  0  0
  -21.3424  -30.7060   22.0294 C   0  0  0  0  0  0  0  0  0  0  0  0
  -25.3844  -14.1153   21.3091 C   0  0  1  0  0  0  0  0  0  0  0  0
  -27.1254  -17.2696   20.1040 C   0  0  1  0  0  0  0  0  0  0  0  0
  -22.0882  -30.7931   20.6894 C   0  0  2  0  0  0  0  0  0  0  0  0
  -21.9312  -25.7387   18.1221 C   0  0  0  0  0  0  0  0  0  0  0  0
  -33.1305  -22.1488   20.4729 C   0  0  0  0  0  0  0  0  0  0  0  0
  -30.2723  -16.9837   23.4768 C   0  0  0  0  0  0  0  0  0  0  0  0
  -31.9744  -18.8192   23.5223 C   0  0  0  0  0  0  0  0  0  0  0  0
  -32.1023  -17.0451   21.7733 C   0  0  0  0  0  0  0  0  0  0  0  0
  -17.7874  -28.3996   23.3758 C   0  0  0  0  0  0  0  0  0  0  0  0
  -29.9200  -22.6434   18.4919 C   0  0  0  0  0  0  0  0  0  0  0  0
  -22.8987  -24.5728   22.5164 C   0  0  0  0  0  0  0  0  0  0  0  0
  -19.6006  -28.2150   21.7134 C   0  0  0  0  0  0  0  0  0  0  0  0
  -22.1535  -26.2365   19.5407 C   0  0  0  0  0  0  0  0  0  0  0  0
  -23.4848  -23.9712   23.7955 C   0  0  0  0  0  0  0  0  0  0  0  0
  -21.0062  -25.8251   20.4607 C   0  0  0  0  0  0  0  0  0  0  0  0
  -24.2978  -22.7055   23.5501 C   0  0  0  0  0  0  0  0  0  1  0  0
  -30.2808  -18.7930   21.6349 C   0  0  1  0  0  0  0  0  0  0  0  0
  -31.8396  -21.7175   19.7944 C   0  0  2  0  0  0  0  0  0  0  0  0
  -31.1298  -17.9162   22.5981 C   0  0  0  0  0  0  0  0  0  0  0  0
  -24.1832  -30.7373   21.9894 N   0  0  0  0  0  0  0  0  0  0  0  0
  -21.9266  -26.4766   23.8653 N   0  0  0  0  0  0  0  0  0  0  0  0
  -21.0119  -27.4858   23.6396 N   0  0  0  0  0  0  0  0  0  0  0  0
  -23.5561  -30.4388   20.8388 N   0  0  0  0  0  0  0  0  0  0  0  0
  -21.1959  -26.2993   21.8104 N   0  0  0  0  0  0  0  0  0  0  0  0
  -28.0289  -18.1768   20.8146 N   0  0  0  0  0  0  0  0  0  0  0  0
  -19.9252  -31.0681   21.8773 N   0  0  0  0  0  0  0  0  0  0  0  0
  -23.8857  -29.4619   18.7063 N   0  0  0  0  0  0  0  0  0  0  0  0
  -27.9475  -29.1155   20.6501 N   0  0  0  0  0  0  0  0  0  0  0  0
  -25.8982  -15.2301   20.5426 N   0  0  0  0  0  0  0  0  0  0  0  0
  -31.0681  -19.6664   20.7715 N   0  0  0  0  0  0  0  0  0  0  0  0
  -18.8434  -29.0669   22.6278 N   0  0  0  0  0  0  0  0  0  0  0  0
  -31.1896  -22.9246   19.2103 N   0  3  0  0  0  0  0  0  0  0  0  0
  -26.7540  -28.6818   18.7405 O   0  0  0  0  0  0  0  0  0  0  0  0
  -27.0952  -16.2748   22.2451 O   0  0  0  0  0  0  0  0  0  0  0  0
  -29.9405  -17.1666   19.9422 O   0  0  0  0  0  0  0  0  0  0  0  0
  -30.1045  -21.6549   21.4746 O   0  0  0  0  0  0  0  0  0  0  0  0
  -18.0648  -31.1489   23.2376 O   0  0  0  0  0  0  0  0  0  0  0  0
  -29.3078  -30.8459   25.7677 O   0  0  0  0  0  0  0  0  0  0  0  0
  -23.4552  -21.7318   22.9350 O   0  0  0  0  0  0  0  0  0  1  0  0
  -29.6440  -35.6919   28.3769 F   0  0  0  0  0  0  0  0  0  0  0  0
  -27.1533  -31.8487   27.1803 F   0  0  0  0  0  0  0  0  0  0  0  0
  1  2  1  0  0  0  0
  1  5  2  0  0  0  0
  2  6  2  0  0  0  0
  3  8  2  0  0  0  0
  3 15  1  0  0  0  0
  4  9  1  0  0  0  0
  4 15  2  0  0  0  0
  5 17  1  0  0  0  0
  6 19  1  0  0  0  0
  7 10  2  0  0  0  0
  7 18  1  0  0  0  0
  8 21  1  0  0  0  0
  9 21  2  0  0  0  0
 10 22  1  0  0  0  0
 11 12  2  0  0  0  0
 11 23  1  0  0  0  0
 12 24  1  0  0  0  0
 13 20  1  0  0  0  0
 13 22  2  0  0  0  0
 14 24  2  0  0  0  0
 14 25  1  0  0  0  0
 15 26  1  0  0  0  0
 16 26  1  0  0  0  0
 16 27  2  0  0  0  0
 16 30  1  0  0  0  0
 17 19  2  0  0  0  0
 17 35  1  0  0  0  0
 18 20  2  0  0  0  0
 18 36  1  0  0  0  0
 19 44  1  0  0  0  0
 20 37  1  0  0  0  0
 21 81  1  0  0  0  0
 22 82  1  0  0  0  0
 23 25  2  0  0  0  0
 23 81  1  0  0  0  0
 24 83  1  0  0  0  0
 25 84  1  0  0  0  0
 26 63  2  0  0  0  0
 27 66  1  0  0  0  0
 27 70  1  0  0  0  0
 28 54  1  0  0  0  0
 28 64  2  0  0  0  0
 28 67  1  0  0  0  0
 29 55  1  0  0  0  0
 29 65  2  0  0  0  0
 29 67  1  0  0  0  0
 30 71  1  0  0  0  0
 30 76  2  0  0  0  0
 31 45  1  0  0  0  0
 31 72  1  0  0  0  0
 31 77  2  0  0  0  0
 32 60  1  0  0  0  0
 32 68  1  0  0  0  0
 32 78  2  0  0  0  0
 33 61  1  0  0  0  0
 33 73  1  0  0  0  0
 33 79  2  0  0  0  0
 34 69  1  0  0  0  0
 34 74  1  0  0  0  0
 34 80  2  0  0  0  0
 35 38  1  0  0  0  0
 36 45  1  0  0  0  0
 37 68  1  0  0  0  0
 38 40  1  0  0  0  0
 39 41  1  0  0  0  0
 39 42  1  0  0  0  0
 40 44  1  0  0  0  0
 41 46  1  0  0  0  0
 42 69  1  0  0  0  0
 43 46  1  0  0  0  0
 43 69  1  0  0  0  0
 44 72  1  0  0  0  0
 45 68  1  0  0  0  0
 46 66  1  0  0  0  0
 47 56  1  0  0  0  0
 48 61  1  0  0  0  0
 49 62  1  0  0  0  0
 50 62  1  0  0  0  0
 51 62  1  0  0  0  0
 52 74  1  0  0  0  0
 53 75  1  0  0  0  0
 54 57  1  0  0  0  0
 55 74  1  0  0  0  0
 56 58  1  0  0  0  0
 57 59  1  0  0  0  0
 58 67  1  0  0  0  0
 59 82  1  0  0  0  0
 60 62  1  0  0  0  0
 60 73  1  0  0  0  0
 61 75  1  0  0  0  0
 63 66  1  0  0  0  0
 64 65  1  0  0  0  0
M  CHG  1  75   1
M  ISO  4  34 100  59 101  74 100  82 101
M  END
> <Batch ID>
0056

> <Smiles>
CCCn1c(CC[101CH2:1][101O:1]c2ccc3c(c2)CN(C(=O)C(NC(=O)C(C)NC)C(C)(C)C)C(C(=O)NC2CCCc4ccccc42)C3)nnc1C[100N:0](C)[100C:0](=O)N1CCCC(n2nc(-c3ccc(Oc4ccc(F)cc4F)cc3)c(C(N)=O)c2N)C1

> <Shape>
0.249

> <Color>
0.064

> <Negative vol penalty>
0.000

$$$$

  -OEChem-04052317463D

 84 92  0     1  0  0  0  0  0999 V2000
  -26.3449  -34.9742   24.0784 C   0  0  0  0  0  0  0  0  0  0  0  0
  -26.8319  -33.7097   23.7633 C   0  0  0  0  0  0  0  0  0  0  0  0
  -25.7124  -13.4135   21.4050 C   0  0  0  0  0  0  0  0  0  0  0  0
  -24.8809  -14.1069   19.2453 C   0  0  0  0  0  0  0  0  0  0  0  0
  -25.0070  -35.1356   24.4358 C   0  0  0  0  0  0  0  0  0  0  0  0
  -25.9813  -32.6055   23.8066 C   0  0  0  0  0  0  0  0  0  0  0  0
  -26.5189  -29.5803   19.7812 C   0  0  0  0  0  0  0  0  0  0  0  0
  -24.6817  -12.4787   21.5018 C   0  0  0  0  0  0  0  0  0  0  0  0
  -23.8501  -13.1721   19.3420 C   0  0  0  0  0  0  0  0  0  0  0  0
  -27.6188  -28.7236   19.7709 C   0  0  0  0  0  0  0  0  0  0  0  0
  -22.4806   -9.6606   22.1561 C   0  0  0  0  0  0  0  0  0  0  0  0
  -22.8074   -8.3781   22.5966 C   0  0  0  0  0  0  0  0  0  0  0  0
  -26.2020  -26.9061   20.4842 C   0  0  0  0  0  0  0  0  0  0  0  0
  -24.3125   -8.1187   20.7245 C   0  0  0  0  0  0  0  0  0  0  0  0
  -25.8120  -14.2276   20.2768 C   0  0  0  0  0  0  0  0  0  0  0  0
  -28.1544  -14.9960   19.6207 C   0  0  0  0  0  0  0  0  0  0  0  0
  -24.1373  -34.0343   24.4741 C   0  0  0  0  0  0  0  0  0  0  0  0
  -25.2523  -29.1081   20.1542 C   0  0  0  0  0  0  0  0  0  0  0  0
  -24.6308  -32.7521   24.1662 C   0  0  0  0  0  0  0  0  0  0  0  0
  -25.0872  -27.7582   20.4959 C   0  0  0  0  0  0  0  0  0  0  0  0
  -23.7505  -12.3580   20.4703 C   0  0  0  0  0  0  0  0  0  0  0  0
  -27.4610  -27.3869   20.1252 C   0  0  0  0  0  0  0  0  0  0  0  0
  -23.0697  -10.1721   20.9998 C   0  0  0  0  0  0  0  0  0  0  0  0
  -23.7233   -7.6071   21.8808 C   0  0  0  0  0  0  0  0  0  0  0  0
  -23.9856   -9.4012   20.2840 C   0  0  0  0  0  0  0  0  0  0  0  0
  -26.8762  -15.1938   20.1765 C   0  0  0  0  0  0  0  0  0  0  0  0
  -28.1915  -22.8569   17.9513 C   0  0  0  0  0  0  0  0  0  0  0  0
  -28.2335  -23.5768   16.7491 C   0  0  0  0  0  0  0  0  0  0  0  0
  -28.7836  -16.2082   19.7667 C   0  0  0  0  0  0  0  0  0  0  0  0
  -28.7221  -13.8217   19.0255 C   0  0  0  0  0  0  0  0  0  0  0  0
  -23.2034  -29.7858   22.4879 C   0  0  0  0  0  0  0  0  0  0  0  0
  -21.2805  -27.7383   20.8655 C   0  0  0  0  0  0  0  0  0  0  0  0
  -21.0139  -25.1252   18.6865 C   0  0  0  0  0  0  0  0  0  0  0  0
  -26.2612  -21.7453   20.4849 C   0  0  0  0  0  0  0  0  0  0  0  0
  -22.7104  -34.2510   24.9121 C   0  0  0  0  0  0  0  0  0  0  0  0
  -24.0709  -30.0388   20.1343 C   0  0  0  0  0  0  0  0  0  0  0  0
  -23.7447  -27.1970   20.8843 C   0  0  0  0  0  0  0  0  0  0  0  0
  -21.7848  -33.0862   24.5703 C   0  0  0  0  0  0  0  0  0  0  0  0
  -28.8531  -20.0935   22.5477 C   0  0  0  0  0  0  0  0  0  0  0  0
  -22.4315  -31.7596   24.9558 C   0  0  0  0  0  0  0  0  0  0  0  0
  -28.6910  -18.6219   22.1707 C   0  0  0  0  0  0  0  0  0  0  0  0
  -27.5447  -20.8643   22.4001 C   0  0  0  0  0  0  0  0  0  0  0  0
  -26.7627  -19.2744   20.6752 C   0  0  0  0  0  0  0  0  0  0  0  0
  -23.7333  -31.5337   24.1776 C   0  0  1  0  0  0  0  0  0  0  0  0
  -22.9260  -29.5701   21.0270 C   0  0  1  0  0  0  0  0  0  0  0  0
  -28.0738  -18.4796   20.7685 C   0  0  2  0  0  0  0  0  0  0  0  0
  -19.3133  -23.6470   17.5820 C   0  0  0  0  0  0  0  0  0  0  0  0
  -20.9239  -26.2013   23.4771 C   0  0  0  0  0  0  0  0  0  0  0  0
  -20.0396  -24.2765   22.1425 C   0  0  0  0  0  0  0  0  0  0  0  0
  -18.8355  -26.4611   22.1261 C   0  0  0  0  0  0  0  0  0  0  0  0
  -25.1520  -22.4317   18.3925 C   0  0  0  0  0  0  0  0  0  0  0  0
  -21.8251  -26.0157   15.9832 C   0  0  0  0  0  0  0  0  0  0  0  0
  -27.4760  -21.6134   18.2692 C   0  0  0  0  0  0  0  0  0  0  0  0
  -30.3015  -25.5426   18.8159 C   0  0  0  0  0  0  0  0  0  0  0  0
  -29.5706  -26.8308   19.1785 C   0  0  0  0  0  0  0  0  0  1  0  0
  -21.0353  -26.2490   20.8981 C   0  0  1  0  0  0  0  0  0  0  0  0
  -20.1386  -24.9188   17.4636 C   0  0  2  0  0  0  0  0  0  0  0  0
  -27.5741  -23.2908   15.4670 C   0  0  0  0  0  0  0  0  0  0  0  0
  -20.2344  -25.8077   22.1556 C   0  0  0  0  0  0  0  0  0  0  0  0
  -26.7023  -16.4340   20.6411 N   0  0  0  0  0  0  0  0  0  0  0  0
  -28.9390  -23.4703   18.8731 N   0  0  0  0  0  0  0  0  0  0  0  0
  -29.0071  -24.6562   16.8944 N   0  0  0  0  0  0  0  0  0  0  0  0
  -27.8794  -17.0263   20.3776 N   0  0  0  0  0  0  0  0  0  0  0  0
  -29.3886  -24.5256   18.1750 N   0  0  0  0  0  0  0  0  0  0  0  0
  -22.6213  -28.1482   20.8557 N   0  0  0  0  0  0  0  0  0  0  0  0
  -26.9579  -20.6767   21.0728 N   0  0  0  0  0  0  0  0  0  0  0  0
  -30.0166  -16.6433   19.4309 N   0  0  0  0  0  0  0  0  0  0  0  0
  -27.9380  -12.6621   18.9560 N   0  0  0  0  0  0  0  0  0  0  0  0
  -23.4460  -31.1035   22.8260 N   0  0  0  0  0  0  0  0  0  0  0  0
  -20.3926  -25.9133   19.6321 N   0  0  0  0  0  0  0  0  0  0  0  0
  -26.2827  -21.8296   19.0845 N   0  0  0  0  0  0  0  0  0  0  0  0
  -20.9782  -24.8216   16.2361 N   0  3  0  0  0  0  0  0  0  0  0  0
  -29.8959  -13.7964   18.5838 O   0  0  0  0  0  0  0  0  0  0  0  0
  -23.1964  -28.8279   23.2521 O   0  0  0  0  0  0  0  0  0  0  0  0
  -20.3179  -28.5093   20.8422 O   0  0  0  0  0  0  0  0  0  0  0  0
  -22.1351  -24.6333   18.7940 O   0  0  0  0  0  0  0  0  0  0  0  0
  -25.6625  -22.5820   21.1730 O   0  0  0  0  0  0  0  0  0  0  0  0
  -22.7448  -11.4458   20.5642 O   0  0  0  0  0  0  0  0  0  0  0  0
  -28.5330  -26.5487   20.1167 O   0  0  0  0  0  0  0  0  0  1  0  0
  -24.0382   -6.3762   22.3047 F   0  0  0  0  0  0  0  0  0  0  0  0
  -24.5557   -9.8877   19.1731 F   0  0  0  0  0  0  0  0  0  0  0  0
  -26.8092  -22.1485   15.4628 F   0  0  0  0  0  0  0  0  0  0  0  0
  -26.7131  -24.2734   15.0391 F   0  0  0  0  0  0  0  0  0  0  0  0
  -28.4534  -23.1228   14.4255 F   0  0  0  0  0  0  0  0  0  0  0  0
  1  2  1  0  0  0  0
  1  5  2  0  0  0  0
  2  6  2  0  0  0  0
  3  8  2  0  0  0  0
  3 15  1  0  0  0  0
  4  9  1  0  0  0  0
  4 15  2  0  0  0  0
  5 17  1  0  0  0  0
  6 19  1  0  0  0  0
  7 10  2  0  0  0  0
  7 18  1  0  0  0  0
  8 21  1  0  0  0  0
  9 21  2  0  0  0  0
 10 22  1  0  0  0  0
 11 12  2  0  0  0  0
 11 23  1  0  0  0  0
 12 24  1  0  0  0  0
 13 20  1  0  0  0  0
 13 22  2  0  0  0  0
 14 24  2  0  0  0  0
 14 25  1  0  0  0  0
 15 26  1  0  0  0  0
 16 26  1  0  0  0  0
 16 29  2  0  0  0  0
 16 30  1  0  0  0  0
 17 19  2  0  0  0  0
 17 35  1  0  0  0  0
 18 20  2  0  0  0  0
 18 36  1  0  0  0  0
 19 44  1  0  0  0  0
 20 37  1  0  0  0  0
 21 78  1  0  0  0  0
 22 79  1  0  0  0  0
 23 25  2  0  0  0  0
 23 78  1  0  0  0  0
 24 80  1  0  0  0  0
 25 81  1  0  0  0  0
 26 60  2  0  0  0  0
 27 28  1  0  0  0  0
 27 53  1  0  0  0  0
 27 61  2  0  0  0  0
 28 58  1  0  0  0  0
 28 62  2  0  0  0  0
 29 63  1  0  0  0  0
 29 67  1  0  0  0  0
 30 68  1  0  0  0  0
 30 73  2  0  0  0  0
 31 45  1  0  0  0  0
 31 69  1  0  0  0  0
 31 74  2  0  0  0  0
 32 56  1  0  0  0  0
 32 65  1  0  0  0  0
 32 75  2  0  0  0  0
 33 57  1  0  0  0  0
 33 70  1  0  0  0  0
 33 76  2  0  0  0  0
 34 66  1  0  0  0  0
 34 71  1  0  0  0  0
 34 77  2  0  0  0  0
 35 38  1  0  0  0  0
 36 45  1  0  0  0  0
 37 65  1  0  0  0  0
 38 40  1  0  0  0  0
 39 41  1  0  0  0  0
 39 42  1  0  0  0  0
 40 44  1  0  0  0  0
 41 46  1  0  0  0  0
 42 66  1  0  0  0  0
 43 46  1  0  0  0  0
 43 66  1  0  0  0  0
 44 69  1  0  0  0  0
 45 65  1  0  0  0  0
 46 63  1  0  0  0  0
 47 57  1  0  0  0  0
 48 59  1  0  0  0  0
 49 59  1  0  0  0  0
 50 59  1  0  0  0  0
 51 71  1  0  0  0  0
 52 72  1  0  0  0  0
 53 71  1  0  0  0  0
 54 55  1  0  0  0  0
 54 64  1  0  0  0  0
 55 79  1  0  0  0  0
 56 59  1  0  0  0  0
 56 70  1  0  0  0  0
 57 72  1  0  0  0  0
 58 82  1  0  0  0  0
 58 83  1  0  0  0  0
 58 84  1  0  0  0  0
 60 63  1  0  0  0  0
 61 64  1  0  0  0  0
 62 64  1  0  0  0  0
M  CHG  1  72   1
M  ISO  4  34 100  55 101  71 100  79 101
M  END
> <Batch ID>
0056

> <Smiles>
CNC(C)C(=O)NC(C(=O)N1Cc2cc([101O:1][101CH2:1]Cn3nc(C[100N:0](C)[100C:0](=O)N4CCCC(n5nc(-c6ccc(Oc7ccc(F)cc7F)cc6)c(C(N)=O)c5N)C4)c(C(F)(F)F)n3)ccc2CC1C(=O)NC1CCCc2ccccc21)C(C)(C)C

> <Shape>
0.288

> <Color>
0.104

> <Negative vol penalty>
0.000

$$$$

  -OEChem-04052317463D

 86 94  0     1  0  0  0  0  0999 V2000
  -26.3779  -20.0629   27.0837 C   0  0  0  0  0  0  0  0  0  0  0  0
  -26.7754  -21.1921   26.3768 C   0  0  0  0  0  0  0  0  0  0  0  0
  -26.4757  -12.5294   20.9273 C   0  0  0  0  0  0  0  0  0  0  0  0
  -24.8682  -14.0798   20.0057 C   0  0  0  0  0  0  0  0  0  0  0  0
  -25.0430  -19.6647   27.0604 C   0  0  0  0  0  0  0  0  0  0  0  0
  -25.8360  -21.9303   25.6560 C   0  0  0  0  0  0  0  0  0  0  0  0
  -27.3659  -26.1642   23.6719 C   0  0  0  0  0  0  0  0  0  0  0  0
  -25.4346  -11.7222   21.3854 C   0  0  0  0  0  0  0  0  0  0  0  0
  -23.8270  -13.2725   20.4638 C   0  0  0  0  0  0  0  0  0  0  0  0
  -28.2204  -26.2156   22.5715 C   0  0  0  0  0  0  0  0  0  0  0  0
  -23.2038   -9.0699   22.4827 C   0  0  0  0  0  0  0  0  0  0  0  0
  -23.3101   -7.6946   22.2756 C   0  0  0  0  0  0  0  0  0  0  0  0
  -26.3496  -26.7678   21.1522 C   0  0  0  0  0  0  0  0  0  0  0  0
  -23.4069   -8.0613   19.8896 C   0  0  0  0  0  0  0  0  0  0  0  0
  -30.8786  -22.2190   19.5993 C   0  0  0  0  0  0  0  0  0  0  0  0
  -26.1926  -13.7082   20.2374 C   0  0  0  0  0  0  0  0  0  0  0  0
  -27.9136  -14.4706   18.5157 C   0  0  0  0  0  0  0  0  0  0  0  0
  -24.0897  -20.3918   26.3286 C   0  0  0  0  0  0  0  0  0  0  0  0
  -25.9928  -26.4040   23.5187 C   0  0  0  0  0  0  0  0  0  0  0  0
  -24.4795  -21.5583   25.6395 C   0  0  0  0  0  0  0  0  0  0  0  0
  -25.4802  -26.7215   22.2527 C   0  0  0  0  0  0  0  0  0  0  0  0
  -24.1102  -12.0937   21.1537 C   0  0  0  0  0  0  0  0  0  0  0  0
  -27.7118  -26.5145   21.3109 C   0  0  0  0  0  0  0  0  0  0  0  0
  -23.1989   -9.9409   21.3932 C   0  0  0  0  0  0  0  0  0  0  0  0
  -23.4117   -7.1903   20.9791 C   0  0  0  0  0  0  0  0  0  0  0  0
  -23.3005   -9.4366   20.0966 C   0  0  0  0  0  0  0  0  0  0  0  0
  -27.2676  -14.5428   19.7644 C   0  0  0  0  0  0  0  0  0  0  0  0
  -29.5221  -22.2976   19.3584 C   0  0  0  0  0  0  0  0  0  0  0  0
  -31.6053  -23.3525   19.2971 C   0  0  0  0  0  0  0  0  0  0  0  0
  -28.8536  -15.4712   18.5570 C   0  0  0  0  0  0  0  0  0  0  0  0
  -29.7281  -24.4332   18.6075 C   0  0  0  0  0  0  0  0  0  0  0  0
  -27.6843  -13.5789   17.4166 C   0  0  0  0  0  0  0  0  0  0  0  0
  -23.3519  -24.6977   23.9856 C   0  0  0  0  0  0  0  0  0  0  0  0
  -21.8825  -27.5043   23.2883 C   0  0  0  0  0  0  0  0  0  0  0  0
  -22.0327  -30.5514   21.7588 C   0  0  0  0  0  0  0  0  0  0  0  0
  -28.9315  -20.4788   22.0863 C   0  0  0  0  0  0  0  0  0  0  0  0
  -22.6569  -19.9206   26.3442 C   0  0  0  0  0  0  0  0  0  0  0  0
  -25.0886  -26.3711   24.7202 C   0  0  0  0  0  0  0  0  0  0  0  0
  -24.0170  -27.0069   22.0384 C   0  0  0  0  0  0  0  0  0  0  0  0
  -21.8274  -20.5018   25.2038 C   0  0  0  0  0  0  0  0  0  0  0  0
  -31.5812  -17.9389   21.6075 C   0  0  0  0  0  0  0  0  0  0  0  0
  -22.0207  -22.0094   25.1365 C   0  0  0  0  0  0  0  0  0  0  0  0
  -30.8056  -16.7513   21.0399 C   0  0  0  0  0  0  0  0  0  0  0  0
  -30.7059  -18.8138   22.4996 C   0  0  0  0  0  0  0  0  0  0  0  0
  -28.6811  -18.0973   21.2746 C   0  0  0  0  0  0  0  0  0  0  0  0
  -23.4810  -22.3593   24.8237 C   0  0  1  0  0  0  0  0  0  0  0  0
  -23.6262  -26.1265   24.3610 C   0  0  1  0  0  0  0  0  0  0  0  0
  -29.5220  -17.2214   20.3338 C   0  0  2  0  0  0  0  0  0  0  0  0
  -27.4349  -21.0311   18.7250 C   0  0  0  0  0  0  0  0  0  0  0  0
  -20.6629  -32.6097   21.3297 C   0  0  0  0  0  0  0  0  0  0  0  0
  -20.2897  -25.9988   21.1654 C   0  0  0  0  0  0  0  0  0  0  0  0
  -19.6723  -28.2078   20.1619 C   0  0  0  0  0  0  0  0  0  0  0  0
  -18.9610  -27.6541   22.4879 C   0  0  0  0  0  0  0  0  0  0  0  0
  -27.1398  -22.0199   21.3831 C   0  0  0  0  0  0  0  0  0  0  0  0
  -23.9622  -32.2758   23.1948 C   0  0  0  0  0  0  0  0  0  0  0  0
  -29.0815  -25.6794   18.0534 C   0  0  0  0  0  0  0  0  0  0  0  0
  -27.9869  -26.2199   18.9671 C   0  0  0  0  0  0  0  0  0  1  0  0
  -28.6534  -21.1213   19.6548 C   0  0  2  0  0  0  0  0  0  0  0  0
  -21.3925  -28.1694   22.0248 C   0  0  1  0  0  0  0  0  0  0  0  0
  -21.6748  -31.9430   22.2485 C   0  0  2  0  0  0  0  0  0  0  0  0
  -33.0797  -23.3631   19.5258 C   0  0  0  0  0  0  0  0  0  0  0  0
  -20.1062  -27.5003   21.4633 C   0  0  0  0  0  0  0  0  0  0  0  0
  -27.7561  -15.5125   20.5423 N   0  0  0  0  0  0  0  0  0  0  0  0
  -28.9113  -23.3930   18.8612 N   0  0  0  0  0  0  0  0  0  0  0  0
  -31.0604  -24.4813   18.7978 N   0  0  0  0  0  0  0  0  0  0  0  0
  -28.7191  -16.0588   19.7804 N   0  0  0  0  0  0  0  0  0  0  0  0
  -23.1723  -26.9563   23.2432 N   0  0  0  0  0  0  0  0  0  0  0  0
  -29.4728  -19.2106   21.8190 N   0  0  0  0  0  0  0  0  0  0  0  0
  -29.7740  -15.8968   17.6658 N   0  0  0  0  0  0  0  0  0  0  0  0
  -26.6795  -12.6098   17.5409 N   0  0  0  0  0  0  0  0  0  0  0  0
  -23.6674  -23.7856   24.9746 N   0  0  0  0  0  0  0  0  0  0  0  0
  -21.2400  -29.5853   22.3415 N   0  0  0  0  0  0  0  0  0  0  0  0
  -28.2196  -21.1017   21.0500 N   0  0  0  0  0  0  0  0  0  0  0  0
  -22.8923  -32.8003   22.3076 N   0  3  0  0  0  0  0  0  0  0  0  0
  -28.3618  -13.6291   16.3621 O   0  0  0  0  0  0  0  0  0  0  0  0
  -22.8870  -24.4418   22.8811 O   0  0  0  0  0  0  0  0  0  0  0  0
  -21.1507  -27.4783   24.2810 O   0  0  0  0  0  0  0  0  0  0  0  0
  -22.9236  -30.3426   20.9383 O   0  0  0  0  0  0  0  0  0  0  0  0
  -29.0843  -21.0273   23.1853 O   0  0  0  0  0  0  0  0  0  0  0  0
  -23.0940  -11.3061   21.6004 O   0  0  0  0  0  0  0  0  0  0  0  0
  -28.5436  -26.5647   20.2350 O   0  0  0  0  0  0  0  0  0  1  0  0
  -23.5154   -5.8697   20.7805 F   0  0  0  0  0  0  0  0  0  0  0  0
  -23.2976  -10.2685   19.0461 F   0  0  0  0  0  0  0  0  0  0  0  0
  -33.5628  -22.1907   20.0331 F   0  0  0  0  0  0  0  0  0  0  0  0
  -33.8066  -23.5872   18.3917 F   0  0  0  0  0  0  0  0  0  0  0  0
  -33.4669  -24.3307   20.4067 F   0  0  0  0  0  0  0  0  0  0  0  0
  1  2  1  0  0  0  0
  1  5  2  0  0  0  0
  2  6  2  0  0  0  0
  3  8  2  0  0  0  0
  3 16  1  0  0  0  0
  4  9  1  0  0  0  0
  4 16  2  0  0  0  0
  5 18  1  0  0  0  0
  6 20  1  0  0  0  0
  7 10  2  0  0  0  0
  7 19  1  0  0  0  0
  8 22  1  0  0  0  0
  9 22  2  0  0  0  0
 10 23  1  0  0  0  0
 11 12  2  0  0  0  0
 11 24  1  0  0  0  0
 12 25  1  0  0  0  0
 13 21  1  0  0  0  0
 13 23  2  0  0  0  0
 14 25  2  0  0  0  0
 14 26  1  0  0  0  0
 15 28  1  0  0  0  0
 15 29  2  0  0  0  0
 16 27  1  0  0  0  0
 17 27  1  0  0  0  0
 17 30  2  0  0  0  0
 17 32  1  0  0  0  0
 18 20  2  0  0  0  0
 18 37  1  0  0  0  0
 19 21  2  0  0  0  0
 19 38  1  0  0  0  0
 20 46  1  0  0  0  0
 21 39  1  0  0  0  0
 22 80  1  0  0  0  0
 23 81  1  0  0  0  0
 24 26  2  0  0  0  0
 24 80  1  0  0  0  0
 25 82  1  0  0  0  0
 26 83  1  0  0  0  0
 27 63  2  0  0  0  0
 28 58  1  0  0  0  0
 28 64  2  0  0  0  0
 29 61  1  0  0  0  0
 29 65  1  0  0  0  0
 30 66  1  0  0  0  0
 30 69  1  0  0  0  0
 31 56  1  0  0  0  0
 31 64  1  0  0  0  0
 31 65  2  0  0  0  0
 32 70  1  0  0  0  0
 32 75  2  0  0  0  0
 33 47  1  0  0  0  0
 33 71  1  0  0  0  0
 33 76  2  0  0  0  0
 34 59  1  0  0  0  0
 34 67  1  0  0  0  0
 34 77  2  0  0  0  0
 35 60  1  0  0  0  0
 35 72  1  0  0  0  0
 35 78  2  0  0  0  0
 36 68  1  0  0  0  0
 36 73  1  0  0  0  0
 36 79  2  0  0  0  0
 37 40  1  0  0  0  0
 38 47  1  0  0  0  0
 39 67  1  0  0  0  0
 40 42  1  0  0  0  0
 41 43  1  0  0  0  0
 41 44  1  0  0  0  0
 42 46  1  0  0  0  0
 43 48  1  0  0  0  0
 44 68  1  0  0  0  0
 45 48  1  0  0  0  0
 45 68  1  0  0  0  0
 46 71  1  0  0  0  0
 47 67  1  0  0  0  0
 48 66  1  0  0  0  0
 49 58  1  0  0  0  0
 50 60  1  0  0  0  0
 51 62  1  0  0  0  0
 52 62  1  0  0  0  0
 53 62  1  0  0  0  0
 54 73  1  0  0  0  0
 55 74  1  0  0  0  0
 56 57  1  0  0  0  0
 57 81  1  0  0  0  0
 58 73  1  0  0  0  0
 59 62  1  0  0  0  0
 59 72  1  0  0  0  0
 60 74  1  0  0  0  0
 61 84  1  0  0  0  0
 61 85  1  0  0  0  0
 61 86  1  0  0  0  0
 63 66  1  0  0  0  0
M  CHG  1  74   1
M  ISO  4  36 100  57 101  73 100  81 101
M  END
> <Batch ID>
0056

> <Smiles>
CNC(C)C(=O)NC(C(=O)N1Cc2cc([101O:1][101CH2:1]Cc3nc(C(C)[100N:0](C)[100C:0](=O)N4CCCC(n5nc(-c6ccc(Oc7ccc(F)cc7F)cc6)c(C(N)=O)c5N)C4)cc(C(F)(F)F)n3)ccc2CC1C(=O)NC1CCCc2ccccc21)C(C)(C)C

> <Shape>
0.245

> <Color>
0.090

> <Negative vol penalty>
0.000

$$$$

  -OEChem-04052317463D

 84 92  0     1  0  0  0  0  0999 V2000
  -21.5438  -11.7024   21.2867 C   0  0  0  0  0  0  0  0  0  0  0  0
  -21.7655  -12.9141   21.9333 C   0  0  0  0  0  0  0  0  0  0  0  0
  -19.5146  -26.0382   20.8504 C   0  0  0  0  0  0  0  0  0  0  0  0
  -21.1482  -24.2948   21.2096 C   0  0  0  0  0  0  0  0  0  0  0  0
  -22.5937  -11.0616   20.6303 C   0  0  0  0  0  0  0  0  0  0  0  0
  -23.0376  -13.4851   21.9248 C   0  0  0  0  0  0  0  0  0  0  0  0
  -22.9315  -18.4510   20.9381 C   0  0  0  0  0  0  0  0  0  0  0  0
  -18.5772  -25.0803   20.4640 C   0  0  0  0  0  0  0  0  0  0  0  0
  -20.2107  -23.3369   20.8233 C   0  0  0  0  0  0  0  0  0  0  0  0
  -22.5654  -19.2999   21.9817 C   0  0  0  0  0  0  0  0  0  0  0  0
  -17.5595  -21.7532   22.1957 C   0  0  0  0  0  0  0  0  0  0  0  0
  -17.4513  -20.6027   22.9768 C   0  0  0  0  0  0  0  0  0  0  0  0
  -24.8906  -19.8042   22.3792 C   0  0  0  0  0  0  0  0  0  0  0  0
  -18.0301  -19.2482   21.0616 C   0  0  0  0  0  0  0  0  0  0  0  0
  -25.1370  -23.2652   27.0160 C   0  0  0  0  0  0  0  0  0  0  0  0
  -26.9610  -24.3616   27.0537 C   0  0  0  0  0  0  0  0  0  0  0  0
  -20.8001  -25.6455   21.2231 C   0  0  0  0  0  0  0  0  0  0  0  0
  -21.6683  -27.5387   22.6961 C   0  0  0  0  0  0  0  0  0  0  0  0
  -23.8771  -11.6298   20.6055 C   0  0  0  0  0  0  0  0  0  0  0  0
  -24.2829  -18.2637   20.6137 C   0  0  0  0  0  0  0  0  0  0  0  0
  -24.1060  -12.8506   21.2686 C   0  0  0  0  0  0  0  0  0  0  0  0
  -25.2712  -18.9545   21.3294 C   0  0  0  0  0  0  0  0  0  0  0  0
  -18.9252  -23.7297   20.4505 C   0  0  0  0  0  0  0  0  0  0  0  0
  -23.5451  -19.9744   22.7043 C   0  0  0  0  0  0  0  0  0  0  0  0
  -17.9029  -21.6513   20.8476 C   0  0  0  0  0  0  0  0  0  0  0  0
  -17.6866  -19.3501   22.4098 C   0  0  0  0  0  0  0  0  0  0  0  0
  -18.1382  -20.3989   20.2806 C   0  0  0  0  0  0  0  0  0  0  0  0
  -21.7691  -26.6345   21.6218 C   0  0  0  0  0  0  0  0  0  0  0  0
  -25.0829  -24.1061   25.9295 C   0  0  0  0  0  0  0  0  0  0  0  0
  -22.8379  -28.2573   22.6510 C   0  0  0  0  0  0  0  0  0  0  0  0
  -20.6119  -27.7132   23.6497 C   0  0  0  0  0  0  0  0  0  0  0  0
  -26.2606  -15.7753   20.5929 C   0  0  0  0  0  0  0  0  0  0  0  0
  -28.3030  -17.9058   19.2469 C   0  0  0  0  0  0  0  0  0  0  0  0
  -28.2524  -26.9716   20.3833 C   0  0  0  0  0  0  0  0  0  0  0  0
  -29.2090  -21.1655   18.7990 C   0  0  0  0  0  0  0  0  0  0  0  0
  -24.9915  -10.8765   19.9233 C   0  0  0  0  0  0  0  0  0  0  0  0
  -24.6599  -17.3652   19.4678 C   0  0  0  0  0  0  0  0  0  0  0  0
  -26.7348  -18.8034   21.0077 C   0  0  0  0  0  0  0  0  0  0  0  0
  -26.2232  -11.7334   19.6424 C   0  0  0  0  0  0  0  0  0  0  0  0
  -26.1836  -29.7924   19.6066 C   0  0  0  0  0  0  0  0  0  0  0  0
  -26.5962  -12.5519   20.8744 C   0  0  0  0  0  0  0  0  0  0  0  0
  -24.8020  -29.3730   20.1072 C   0  0  0  0  0  0  0  0  0  0  0  0
  -26.9600  -28.6036   19.0489 C   0  0  0  0  0  0  0  0  0  0  0  0
  -25.7124  -27.0413   20.5065 C   0  0  0  0  0  0  0  0  0  0  0  0
  -25.4662  -13.5139   21.2605 C   0  0  1  0  0  0  0  0  0  0  0  0
  -26.0936  -16.8517   19.5579 C   0  0  1  0  0  0  0  0  0  0  0  0
  -24.9066  -28.2071   21.1064 C   0  0  2  0  0  0  0  0  0  0  0  0
  -30.4792  -23.1236   17.8772 C   0  0  0  0  0  0  0  0  0  0  0  0
  -27.4167  -24.6835   20.8217 C   0  0  0  0  0  0  0  0  0  0  0  0
  -29.6878  -25.4066   21.5919 C   0  0  0  0  0  0  0  0  0  0  0  0
  -30.3131  -17.1609   21.4182 C   0  0  0  0  0  0  0  0  0  0  0  0
  -31.5957  -19.2330   20.8442 C   0  0  0  0  0  0  0  0  0  0  0  0
  -31.2978  -17.4394   19.1363 C   0  0  0  0  0  0  0  0  0  0  0  0
  -27.3719  -21.4194   16.4926 C   0  0  0  0  0  0  0  0  0  0  0  0
  -24.0292  -24.3076   24.8699 C   0  0  0  0  0  0  0  0  0  0  0  0
  -23.2128  -23.0495   24.5660 C   0  0  0  0  0  0  0  0  0  0  0  0
  -27.1893  -25.2623   23.6972 C   0  0  0  0  0  0  0  0  0  0  0  0
  -27.6652  -26.3628   22.7351 C   0  0  0  0  0  0  0  0  0  0  0  0
  -26.6935  -25.8187   25.0387 C   0  0  0  0  0  0  0  0  0  0  0  0
  -24.0475  -21.9134   23.9864 C   0  0  0  0  0  0  0  0  0  1  0  0
  -29.3241  -18.8862   19.7716 C   0  0  1  0  0  0  0  0  0  0  0  0
  -29.5725  -21.9474   17.5496 C   0  0  2  0  0  0  0  0  0  0  0  0
  -28.2314  -25.8496   21.3907 C   0  0  0  0  0  0  0  0  0  0  0  0
  -30.6053  -18.1814   20.3001 C   0  0  0  0  0  0  0  0  0  0  0  0
  -26.3085  -23.4293   27.7118 N   0  0  0  0  0  0  0  0  0  0  0  0
  -22.9124  -26.7650   20.9436 N   0  0  0  0  0  0  0  0  0  0  0  0
  -26.2580  -24.8024   25.9671 N   0  0  0  0  0  0  0  0  0  0  0  0
  -23.5406  -27.7596   21.5934 N   0  0  0  0  0  0  0  0  0  0  0  0
  -27.0533  -17.9089   19.8826 N   0  0  0  0  0  0  0  0  0  0  0  0
  -27.0176  -27.5090   20.0193 N   0  0  0  0  0  0  0  0  0  0  0  0
  -23.3235  -29.2602   23.4132 N   0  0  0  0  0  0  0  0  0  0  0  0
  -20.6547  -26.9707   24.8376 N   0  0  0  0  0  0  0  0  0  0  0  0
  -25.4625  -14.6665   20.3854 N   0  0  0  0  0  0  0  0  0  0  0  0
  -29.5675  -19.8383   18.6933 N   0  0  0  0  0  0  0  0  0  0  0  0
  -28.3429  -22.4711   16.8903 N   0  3  0  0  0  0  0  0  0  0  0  0
  -19.6497  -28.4921   23.4468 O   0  0  0  0  0  0  0  0  0  0  0  0
  -27.0558  -15.9381   21.5110 O   0  0  0  0  0  0  0  0  0  0  0  0
  -28.6008  -17.1696   18.3030 O   0  0  0  0  0  0  0  0  0  0  0  0
  -29.3351  -27.3595   19.9367 O   0  0  0  0  0  0  0  0  0  0  0  0
  -28.6650  -21.6814   19.7729 O   0  0  0  0  0  0  0  0  0  0  0  0
  -18.0107  -22.7946   20.0737 O   0  0  0  0  0  0  0  0  0  0  0  0
  -23.1905  -20.8030   23.7239 O   0  0  0  0  0  0  0  0  0  1  0  0
  -17.5842  -18.2454   23.1603 F   0  0  0  0  0  0  0  0  0  0  0  0
  -18.4696  -20.2947   18.9863 F   0  0  0  0  0  0  0  0  0  0  0  0
  1  2  1  0  0  0  0
  1  5  2  0  0  0  0
  2  6  2  0  0  0  0
  3  8  2  0  0  0  0
  3 17  1  0  0  0  0
  4  9  1  0  0  0  0
  4 17  2  0  0  0  0
  5 19  1  0  0  0  0
  6 21  1  0  0  0  0
  7 10  2  0  0  0  0
  7 20  1  0  0  0  0
  8 23  1  0  0  0  0
  9 23  2  0  0  0  0
 10 24  1  0  0  0  0
 11 12  2  0  0  0  0
 11 25  1  0  0  0  0
 12 26  1  0  0  0  0
 13 22  1  0  0  0  0
 13 24  2  0  0  0  0
 14 26  2  0  0  0  0
 14 27  1  0  0  0  0
 15 29  2  0  0  0  0
 15 65  1  0  0  0  0
 16 65  2  0  0  0  0
 16 67  1  0  0  0  0
 17 28  1  0  0  0  0
 18 28  1  0  0  0  0
 18 30  2  0  0  0  0
 18 31  1  0  0  0  0
 19 21  2  0  0  0  0
 19 36  1  0  0  0  0
 20 22  2  0  0  0  0
 20 37  1  0  0  0  0
 21 45  1  0  0  0  0
 22 38  1  0  0  0  0
 23 81  1  0  0  0  0
 24 82  1  0  0  0  0
 25 27  2  0  0  0  0
 25 81  1  0  0  0  0
 26 83  1  0  0  0  0
 27 84  1  0  0  0  0
 28 66  2  0  0  0  0
 29 55  1  0  0  0  0
 29 67  1  0  0  0  0
 30 68  1  0  0  0  0
 30 71  1  0  0  0  0
 31 72  1  0  0  0  0
 31 76  2  0  0  0  0
 32 46  1  0  0  0  0
 32 73  1  0  0  0  0
 32 77  2  0  0  0  0
 33 61  1  0  0  0  0
 33 69  1  0  0  0  0
 33 78  2  0  0  0  0
 34 63  1  0  0  0  0
 34 70  1  0  0  0  0
 34 79  2  0  0  0  0
 35 62  1  0  0  0  0
 35 74  1  0  0  0  0
 35 80  2  0  0  0  0
 36 39  1  0  0  0  0
 37 46  1  0  0  0  0
 38 69  1  0  0  0  0
 39 41  1  0  0  0  0
 40 42  1  0  0  0  0
 40 43  1  0  0  0  0
 41 45  1  0  0  0  0
 42 47  1  0  0  0  0
 43 70  1  0  0  0  0
 44 47  1  0  0  0  0
 44 70  1  0  0  0  0
 45 73  1  0  0  0  0
 46 69  1  0  0  0  0
 47 68  1  0  0  0  0
 48 62  1  0  0  0  0
 49 63  1  0  0  0  0
 50 63  1  0  0  0  0
 51 64  1  0  0  0  0
 52 64  1  0  0  0  0
 53 64  1  0  0  0  0
 54 75  1  0  0  0  0
 55 56  1  0  0  0  0
 56 60  1  0  0  0  0
 57 58  1  0  0  0  0
 57 59  1  0  0  0  0
 58 63  1  0  0  0  0
 59 67  1  0  0  0  0
 60 82  1  0  0  0  0
 61 64  1  0  0  0  0
 61 74  1  0  0  0  0
 62 75  1  0  0  0  0
 66 68  1  0  0  0  0
M  CHG  1  75   1
M  ISO  4  34 100  60 101  63 100  82 101
M  END
> <Batch ID>
0056

> <Smiles>
CNC(C)C(=O)NC(C(=O)N1Cc2cc([101O:1][101CH2:1]CCc3cncn3CCC[100C:0](C)(C)[100C:0](=O)N3CCCC(n4nc(-c5ccc(Oc6ccc(F)cc6F)cc5)c(C(N)=O)c4N)C3)ccc2CC1C(=O)NC1CCCc2ccccc21)C(C)(C)C

> <Shape>
0.206

> <Color>
0.074

> <Negative vol penalty>
0.000

$$$$

  -OEChem-04052317463D

 83 91  0     1  0  0  0  0  0999 V2000
  -17.5564  -25.1906   24.8330 C   0  0  0  0  0  0  0  0  0  0  0  0
  -18.9056  -24.9119   24.6397 C   0  0  0  0  0  0  0  0  0  0  0  0
  -24.6316   -8.9500   21.5567 C   0  0  0  0  0  0  0  0  0  0  0  0
  -22.9519  -10.0583   20.2198 C   0  0  0  0  0  0  0  0  0  0  0  0
  -17.0232  -26.3969   24.3807 C   0  0  0  0  0  0  0  0  0  0  0  0
  -19.7222  -25.8389   23.9929 C   0  0  0  0  0  0  0  0  0  0  0  0
  -24.1621  -26.4882   26.3404 C   0  0  0  0  0  0  0  0  0  0  0  0
  -23.7745   -7.8639   21.7332 C   0  0  0  0  0  0  0  0  0  0  0  0
  -22.0948   -8.9721   20.3963 C   0  0  0  0  0  0  0  0  0  0  0  0
  -25.1341  -25.5077   26.1467 C   0  0  0  0  0  0  0  0  0  0  0  0
  -21.0980   -7.0888   23.6464 C   0  0  0  0  0  0  0  0  0  0  0  0
  -20.9811   -6.5586   24.9312 C   0  0  0  0  0  0  0  0  0  0  0  0
  -26.2149  -26.9110   24.5092 C   0  0  0  0  0  0  0  0  0  0  0  0
  -21.7749   -4.4247   24.1228 C   0  0  0  0  0  0  0  0  0  0  0  0
  -29.0239  -19.2972   23.8998 C   0  0  0  0  0  0  0  0  0  0  0  0
  -24.2203  -10.0473   20.8000 C   0  0  0  0  0  0  0  0  0  0  0  0
  -26.0458  -11.3521   19.5865 C   0  0  0  0  0  0  0  0  0  0  0  0
  -17.8357  -27.3432   23.7366 C   0  0  0  0  0  0  0  0  0  0  0  0
  -24.2031  -27.6850   25.6107 C   0  0  0  0  0  0  0  0  0  0  0  0
  -19.1990  -27.0583   23.5303 C   0  0  0  0  0  0  0  0  0  0  0  0
  -25.2437  -27.9062   24.6973 C   0  0  0  0  0  0  0  0  0  0  0  0
  -22.5061   -7.8749   21.1530 C   0  0  0  0  0  0  0  0  0  0  0  0
  -26.1591  -25.7178   25.2289 C   0  0  0  0  0  0  0  0  0  0  0  0
  -21.5533   -6.2870   22.5997 C   0  0  0  0  0  0  0  0  0  0  0  0
  -21.3196   -5.2266   25.1695 C   0  0  0  0  0  0  0  0  0  0  0  0
  -21.8917   -4.9550   22.8379 C   0  0  0  0  0  0  0  0  0  0  0  0
  -25.1050  -11.1698   20.6177 C   0  0  0  0  0  0  0  0  0  0  0  0
  -26.6264  -12.5660   19.8619 C   0  0  0  0  0  0  0  0  0  0  0  0
  -28.7766  -19.0632   21.8404 C   0  0  0  0  0  0  0  0  0  0  0  0
  -26.3662  -10.5003   18.4786 C   0  0  0  0  0  0  0  0  0  0  0  0
  -22.2765  -29.1033   23.5177 C   0  0  0  0  0  0  0  0  0  0  0  0
  -24.4181  -31.5258   23.7776 C   0  0  0  0  0  0  0  0  0  0  0  0
  -27.5936  -32.5162   24.5405 C   0  0  0  0  0  0  0  0  0  0  0  0
  -25.6902  -17.9898   21.2840 C   0  0  0  0  0  0  0  0  0  0  0  0
  -17.2040  -28.6128   23.2230 C   0  0  0  0  0  0  0  0  0  0  0  0
  -23.1622  -28.7439   25.8506 C   0  0  0  0  0  0  0  0  0  0  0  0
  -25.3443  -29.1824   23.9036 C   0  0  0  0  0  0  0  0  0  0  0  0
  -18.2173  -29.7019   22.8804 C   0  0  0  0  0  0  0  0  0  0  0  0
  -26.3551  -15.5128   23.9531 C   0  0  0  0  0  0  0  0  0  0  0  0
  -19.3673  -29.1230   22.0624 C   0  0  0  0  0  0  0  0  0  0  0  0
  -26.0940  -14.1836   23.2465 C   0  0  0  0  0  0  0  0  0  0  0  0
  -25.5330  -16.6473   23.3491 C   0  0  0  0  0  0  0  0  0  0  0  0
  -25.4502  -15.4753   21.1734 C   0  0  0  0  0  0  0  0  0  0  0  0
  -20.1223  -28.0492   22.8551 C   0  0  1  0  0  0  0  0  0  0  0  0
  -23.0115  -29.7099   24.6795 C   0  0  1  0  0  0  0  0  0  0  0  0
  -26.2980  -14.3204   21.7276 C   0  0  2  0  0  0  0  0  0  0  0  0
  -29.0557  -34.5541   24.6210 C   0  0  0  0  0  0  0  0  0  0  0  0
  -24.6711  -31.4613   20.7376 C   0  0  0  0  0  0  0  0  0  0  0  0
  -26.7753  -32.8007   20.9540 C   0  0  0  0  0  0  0  0  0  0  0  0
  -24.6056  -33.7557   21.7305 C   0  0  0  0  0  0  0  0  0  0  0  0
  -26.0405  -19.1060   19.1136 C   0  0  0  0  0  0  0  0  0  0  0  0
  -28.0398  -32.2234   27.4515 C   0  0  0  0  0  0  0  0  0  0  0  0
  -28.8819  -18.6710   20.4377 C   0  0  0  0  0  0  0  0  0  0  0  0
  -27.1542  -21.0379   24.4919 C   0  0  0  0  0  0  0  0  0  0  0  0
  -27.8272  -17.6394   19.9752 C   0  0  0  0  0  0  0  0  0  0  0  0
  -26.7145  -23.4054   25.2380 C   0  0  0  0  0  0  0  0  0  1  0  0
  -25.6942  -31.9055   23.0661 C   0  0  1  0  0  0  0  0  0  0  0  0
  -28.1149  -33.6511   25.4034 C   0  0  2  0  0  0  0  0  0  0  0  0
  -27.5597  -22.5076   24.3384 C   0  0  2  0  0  0  0  0  0  0  0  0
  -25.4339  -32.4558   21.6354 C   0  0  0  0  0  0  0  0  0  0  0  0
  -29.5306  -18.6278   22.8229 N   0  0  0  0  0  0  0  0  0  0  0  0
  -25.0859  -12.1865   21.4837 N   0  0  0  0  0  0  0  0  0  0  0  0
  -27.8655  -19.9510   22.3216 N   0  0  0  0  0  0  0  0  0  0  0  0
  -28.0037  -20.1194   23.6455 N   0  0  0  0  0  0  0  0  0  0  0  0
  -26.0218  -13.0193   20.9973 N   0  0  0  0  0  0  0  0  0  0  0  0
  -24.2992  -30.1847   24.1691 N   0  0  0  0  0  0  0  0  0  0  0  0
  -25.7122  -16.7272   21.8990 N   0  0  0  0  0  0  0  0  0  0  0  0
  -27.5899  -13.2792   19.2412 N   0  0  0  0  0  0  0  0  0  0  0  0
  -25.6742   -9.2888   18.3452 N   0  0  0  0  0  0  0  0  0  0  0  0
  -21.0033  -28.6631   23.8253 N   0  0  0  0  0  0  0  0  0  0  0  0
  -26.3911  -32.8367   23.9468 N   0  0  0  0  0  0  0  0  0  0  0  0
  -26.4669  -18.1512   20.1267 N   0  0  0  0  0  0  0  0  0  0  0  0
  -28.8526  -33.1105   26.5801 N   0  3  0  0  0  0  0  0  0  0  0  0
  -27.2519  -10.7968   17.6412 O   0  0  0  0  0  0  0  0  0  0  0  0
  -22.8236  -29.0406   22.4229 O   0  0  0  0  0  0  0  0  0  0  0  0
  -23.5615  -32.3888   23.9849 O   0  0  0  0  0  0  0  0  0  0  0  0
  -28.1950  -31.4531   24.4036 O   0  0  0  0  0  0  0  0  0  0  0  0
  -25.0223  -18.9226   21.7487 O   0  0  0  0  0  0  0  0  0  0  0  0
  -27.3441  -22.8989   22.9807 O   0  0  0  0  0  0  0  0  0  0  0  0
  -21.6695   -6.8151   21.3249 O   0  0  0  0  0  0  0  0  0  0  0  0
  -27.1088  -24.7621   25.0375 O   0  0  0  0  0  0  0  0  0  1  0  0
  -21.2087   -4.7180   26.4036 F   0  0  0  0  0  0  0  0  0  0  0  0
  -22.3308   -4.1801   21.8367 F   0  0  0  0  0  0  0  0  0  0  0  0
  1  2  1  0  0  0  0
  1  5  2  0  0  0  0
  2  6  2  0  0  0  0
  3  8  2  0  0  0  0
  3 16  1  0  0  0  0
  4  9  1  0  0  0  0
  4 16  2  0  0  0  0
  5 18  1  0  0  0  0
  6 20  1  0  0  0  0
  7 10  2  0  0  0  0
  7 19  1  0  0  0  0
  8 22  1  0  0  0  0
  9 22  2  0  0  0  0
 10 23  1  0  0  0  0
 11 12  2  0  0  0  0
 11 24  1  0  0  0  0
 12 25  1  0  0  0  0
 13 21  1  0  0  0  0
 13 23  2  0  0  0  0
 14 25  2  0  0  0  0
 14 26  1  0  0  0  0
 15 61  2  0  0  0  0
 15 64  1  0  0  0  0
 16 27  1  0  0  0  0
 17 27  1  0  0  0  0
 17 28  2  0  0  0  0
 17 30  1  0  0  0  0
 18 20  2  0  0  0  0
 18 35  1  0  0  0  0
 19 21  2  0  0  0  0
 19 36  1  0  0  0  0
 20 44  1  0  0  0  0
 21 37  1  0  0  0  0
 22 80  1  0  0  0  0
 23 81  1  0  0  0  0
 24 26  2  0  0  0  0
 24 80  1  0  0  0  0
 25 82  1  0  0  0  0
 26 83  1  0  0  0  0
 27 62  2  0  0  0  0
 28 65  1  0  0  0  0
 28 68  1  0  0  0  0
 29 53  1  0  0  0  0
 29 61  1  0  0  0  0
 29 63  2  0  0  0  0
 30 69  1  0  0  0  0
 30 74  2  0  0  0  0
 31 45  1  0  0  0  0
 31 70  1  0  0  0  0
 31 75  2  0  0  0  0
 32 57  1  0  0  0  0
 32 66  1  0  0  0  0
 32 76  2  0  0  0  0
 33 58  1  0  0  0  0
 33 71  1  0  0  0  0
 33 77  2  0  0  0  0
 34 67  1  0  0  0  0
 34 72  1  0  0  0  0
 34 78  2  0  0  0  0
 35 38  1  0  0  0  0
 36 45  1  0  0  0  0
 37 66  1  0  0  0  0
 38 40  1  0  0  0  0
 39 41  1  0  0  0  0
 39 42  1  0  0  0  0
 40 44  1  0  0  0  0
 41 46  1  0  0  0  0
 42 67  1  0  0  0  0
 43 46  1  0  0  0  0
 43 67  1  0  0  0  0
 44 70  1  0  0  0  0
 45 66  1  0  0  0  0
 46 65  1  0  0  0  0
 47 58  1  0  0  0  0
 48 60  1  0  0  0  0
 49 60  1  0  0  0  0
 50 60  1  0  0  0  0
 51 72  1  0  0  0  0
 52 73  1  0  0  0  0
 53 55  1  0  0  0  0
 54 59  1  0  0  0  0
 54 64  1  0  0  0  0
 55 72  1  0  0  0  0
 56 59  1  0  0  0  0
 56 81  1  0  0  0  0
 57 60  1  0  0  0  0
 57 71  1  0  0  0  0
 58 73  1  0  0  0  0
 59 79  1  0  0  0  0
 62 65  1  0  0  0  0
 63 64  1  0  0  0  0
M  CHG  1  73   1
M  ISO  4  34 100  56 101  72 100  81 101
M  END
> <Batch ID>
0056

> <Smiles>
CNC(C)C(=O)NC(C(=O)N1Cc2cc([101O:1][101CH2:1]C(O)Cn3cnc(CC[100N:0](C)[100C:0](=O)N4CCCC(n5nc(-c6ccc(Oc7ccc(F)cc7F)cc6)c(C(N)=O)c5N)C4)n3)ccc2CC1C(=O)NC1CCCc2ccccc21)C(C)(C)C

> <Shape>
0.258

> <Color>
0.098

> <Negative vol penalty>
0.000

$$$$

  -OEChem-04052317463D

 85 93  0     1  0  0  0  0  0999 V2000
  -30.0441  -23.3806   15.7347 C   0  0  0  0  0  0  0  0  0  0  0  0
  -28.7913  -23.4276   16.3378 C   0  0  0  0  0  0  0  0  0  0  0  0
  -23.6090   -9.9832   22.3743 C   0  0  0  0  0  0  0  0  0  0  0  0
  -23.2992   -9.8936   19.9800 C   0  0  0  0  0  0  0  0  0  0  0  0
  -31.1497  -23.9294   16.3832 C   0  0  0  0  0  0  0  0  0  0  0  0
  -28.6436  -24.0225   17.5903 C   0  0  0  0  0  0  0  0  0  0  0  0
  -24.5996  -27.0609   17.8330 C   0  0  0  0  0  0  0  0  0  0  0  0
  -22.7494   -8.8954   22.5263 C   0  0  0  0  0  0  0  0  0  0  0  0
  -22.4395   -8.8057   20.1319 C   0  0  0  0  0  0  0  0  0  0  0  0
  -23.3541  -26.4525   17.9831 C   0  0  0  0  0  0  0  0  0  0  0  0
  -22.8988   -5.5351   22.1807 C   0  0  0  0  0  0  0  0  0  0  0  0
  -23.2908   -4.5154   23.0478 C   0  0  0  0  0  0  0  0  0  0  0  0
  -23.4047  -26.9452   20.3440 C   0  0  0  0  0  0  0  0  0  0  0  0
  -21.3135   -4.8915   24.3841 C   0  0  0  0  0  0  0  0  0  0  0  0
  -22.0001  -20.9570   19.9948 C   0  0  0  0  0  0  0  0  0  0  0  0
  -23.3645  -22.8360   20.2485 C   0  0  0  0  0  0  0  0  0  0  0  0
  -23.8839  -10.4824   21.1012 C   0  0  0  0  0  0  0  0  0  0  0  0
  -26.1672  -11.5690   20.7641 C   0  0  0  0  0  0  0  0  0  0  0  0
  -31.0137  -24.5399   17.6399 C   0  0  0  0  0  0  0  0  0  0  0  0
  -25.2629  -27.6073   18.9410 C   0  0  0  0  0  0  0  0  0  0  0  0
  -29.7486  -24.5788   18.2567 C   0  0  0  0  0  0  0  0  0  0  0  0
  -24.6573  -27.5623   20.2048 C   0  0  0  0  0  0  0  0  0  0  0  0
  -22.0875  -22.3130   20.2358 C   0  0  0  0  0  0  0  0  0  0  0  0
  -22.1646   -8.3066   21.4052 C   0  0  0  0  0  0  0  0  0  0  0  0
  -22.7578  -26.3920   19.2392 C   0  0  0  0  0  0  0  0  0  0  0  0
  -21.7141   -6.2332   22.4153 C   0  0  0  0  0  0  0  0  0  0  0  0
  -22.4982   -4.1935   24.1495 C   0  0  0  0  0  0  0  0  0  0  0  0
  -20.9215   -5.9113   23.5170 C   0  0  0  0  0  0  0  0  0  0  0  0
  -24.7714  -11.6065   20.9436 C   0  0  0  0  0  0  0  0  0  0  0  0
  -26.5364  -12.8883   20.6661 C   0  0  0  0  0  0  0  0  0  0  0  0
  -24.2603  -20.7915   19.8186 C   0  0  0  0  0  0  0  0  0  0  0  0
  -27.0510  -10.4423   20.6924 C   0  0  0  0  0  0  0  0  0  0  0  0
  -28.0185  -27.0280   20.4157 C   0  0  0  0  0  0  0  0  0  0  0  0
  -27.2118  -29.6659   22.1225 C   0  0  0  0  0  0  0  0  0  0  0  0
  -24.7530  -31.7441   23.2547 C   0  0  0  0  0  0  0  0  0  0  0  0
  -25.4135  -17.8226   18.2174 C   0  0  0  0  0  0  0  0  0  0  0  0
  -32.2462  -25.0773   18.3231 C   0  0  0  0  0  0  0  0  0  0  0  0
  -26.5938  -28.2839   18.7578 C   0  0  0  0  0  0  0  0  0  0  0  0
  -25.3187  -28.1520   21.4227 C   0  0  0  0  0  0  0  0  0  0  0  0
  -31.9374  -26.0226   19.4813 C   0  0  0  0  0  0  0  0  0  0  0  0
  -23.9459  -17.1223   21.5860 C   0  0  0  0  0  0  0  0  0  0  0  0
  -30.8532  -25.4325   20.3774 C   0  0  0  0  0  0  0  0  0  0  0  0
  -24.0935  -15.6033   21.6582 C   0  0  0  0  0  0  0  0  0  0  0  0
  -23.7967  -17.5944   20.1447 C   0  0  0  0  0  0  0  0  0  0  0  0
  -25.0619  -15.6384   19.3139 C   0  0  0  0  0  0  0  0  0  0  0  0
  -29.5436  -25.2376   19.6036 C   0  0  1  0  0  0  0  0  0  0  0  0
  -27.4118  -28.3513   20.0437 C   0  0  1  0  0  0  0  0  0  0  0  0
  -25.2362  -15.1177   20.7503 C   0  0  2  0  0  0  0  0  0  0  0  0
  -26.7773  -20.7455   19.6621 C   0  0  0  0  0  0  0  0  0  0  0  0
  -24.3973  -33.7928   24.6596 C   0  0  0  0  0  0  0  0  0  0  0  0
  -24.8177  -21.3327   17.2249 C   0  0  0  0  0  0  0  0  0  0  0  0
  -27.0817  -20.2851   16.9079 C   0  0  0  0  0  0  0  0  0  0  0  0
  -27.6091  -28.0001   24.6479 C   0  0  0  0  0  0  0  0  0  0  0  0
  -26.3516  -29.7532   25.9182 C   0  0  0  0  0  0  0  0  0  0  0  0
  -28.4978  -30.3336   24.7869 C   0  0  0  0  0  0  0  0  0  0  0  0
  -23.6159  -33.2512   20.9755 C   0  0  0  0  0  0  0  0  0  0  0  0
  -20.8673  -23.1666   20.4723 C   0  0  0  0  0  0  0  0  0  0  0  0
  -20.2790  -23.7679   19.1941 C   0  0  0  0  0  0  0  0  0  0  0  0
  -21.2244  -24.7352   18.4912 C   0  0  0  0  0  0  0  0  0  1  0  0
  -25.4676  -19.9467   19.5903 C   0  0  2  0  0  0  0  0  0  0  0  0
  -26.4316  -29.9224   23.3892 C   0  0  1  0  0  0  0  0  0  0  0  0
  -24.6347  -33.2575   23.2561 C   0  0  2  0  0  0  0  0  0  0  0  0
  -25.5967  -20.0269   17.1279 C   0  0  0  0  0  0  0  0  0  0  0  0
  -27.2107  -29.4894   24.6631 C   0  0  0  0  0  0  0  0  0  0  0  0
  -23.0699  -20.1631   19.7813 N   0  0  0  0  0  0  0  0  0  0  0  0
  -24.4775  -22.1015   20.0431 N   0  0  0  0  0  0  0  0  0  0  0  0
  -24.2868  -12.8511   20.9592 N   0  0  0  0  0  0  0  0  0  0  0  0
  -25.3842  -13.6078   20.7884 N   0  0  0  0  0  0  0  0  0  0  0  0
  -26.6220  -28.7972   21.1933 N   0  0  0  0  0  0  0  0  0  0  0  0
  -24.8840  -17.0922   19.2941 N   0  0  0  0  0  0  0  0  0  0  0  0
  -27.7309  -13.4915   20.4883 N   0  0  0  0  0  0  0  0  0  0  0  0
  -26.5057   -9.1567   20.8118 N   0  0  0  0  0  0  0  0  0  0  0  0
  -28.8546  -26.5010   19.4500 N   0  0  0  0  0  0  0  0  0  0  0  0
  -26.0650  -31.3342   23.3639 N   0  0  0  0  0  0  0  0  0  0  0  0
  -25.3949  -19.2215   18.3239 N   0  0  0  0  0  0  0  0  0  0  0  0
  -23.5010  -33.6893   22.3904 N   0  3  0  0  0  0  0  0  0  0  0  0
  -28.2898  -10.5724   20.5437 O   0  0  0  0  0  0  0  0  0  0  0  0
  -27.7493  -26.5232   21.4994 O   0  0  0  0  0  0  0  0  0  0  0  0
  -28.3011  -30.2215   21.9603 O   0  0  0  0  0  0  0  0  0  0  0  0
  -23.7786  -30.9999   23.1693 O   0  0  0  0  0  0  0  0  0  0  0  0
  -25.8855  -17.2566   17.2230 O   0  0  0  0  0  0  0  0  0  0  0  0
  -21.3259   -7.2449   21.5531 O   0  0  0  0  0  0  0  0  0  0  0  0
  -21.5425  -25.7981   19.3886 O   0  0  0  0  0  0  0  0  0  1  0  0
  -22.8740   -3.2131   24.9812 F   0  0  0  0  0  0  0  0  0  0  0  0
  -19.7817   -6.5776   23.7469 F   0  0  0  0  0  0  0  0  0  0  0  0
  1  2  1  0  0  0  0
  1  5  2  0  0  0  0
  2  6  2  0  0  0  0
  3  8  2  0  0  0  0
  3 17  1  0  0  0  0
  4  9  1  0  0  0  0
  4 17  2  0  0  0  0
  5 19  1  0  0  0  0
  6 21  1  0  0  0  0
  7 10  2  0  0  0  0
  7 20  1  0  0  0  0
  8 24  1  0  0  0  0
  9 24  2  0  0  0  0
 10 25  1  0  0  0  0
 11 12  2  0  0  0  0
 11 26  1  0  0  0  0
 12 27  1  0  0  0  0
 13 22  1  0  0  0  0
 13 25  2  0  0  0  0
 14 27  2  0  0  0  0
 14 28  1  0  0  0  0
 15 23  1  0  0  0  0
 15 65  2  0  0  0  0
 16 23  2  0  0  0  0
 16 66  1  0  0  0  0
 17 29  1  0  0  0  0
 18 29  1  0  0  0  0
 18 30  2  0  0  0  0
 18 32  1  0  0  0  0
 19 21  2  0  0  0  0
 19 37  1  0  0  0  0
 20 22  2  0  0  0  0
 20 38  1  0  0  0  0
 21 46  1  0  0  0  0
 22 39  1  0  0  0  0
 23 57  1  0  0  0  0
 24 82  1  0  0  0  0
 25 83  1  0  0  0  0
 26 28  2  0  0  0  0
 26 82  1  0  0  0  0
 27 84  1  0  0  0  0
 28 85  1  0  0  0  0
 29 67  2  0  0  0  0
 30 68  1  0  0  0  0
 30 71  1  0  0  0  0
 31 60  1  0  0  0  0
 31 65  1  0  0  0  0
 31 66  2  0  0  0  0
 32 72  1  0  0  0  0
 32 77  2  0  0  0  0
 33 47  1  0  0  0  0
 33 73  1  0  0  0  0
 33 78  2  0  0  0  0
 34 61  1  0  0  0  0
 34 69  1  0  0  0  0
 34 79  2  0  0  0  0
 35 62  1  0  0  0  0
 35 74  1  0  0  0  0
 35 80  2  0  0  0  0
 36 70  1  0  0  0  0
 36 75  1  0  0  0  0
 36 81  2  0  0  0  0
 37 40  1  0  0  0  0
 38 47  1  0  0  0  0
 39 69  1  0  0  0  0
 40 42  1  0  0  0  0
 41 43  1  0  0  0  0
 41 44  1  0  0  0  0
 42 46  1  0  0  0  0
 43 48  1  0  0  0  0
 44 70  1  0  0  0  0
 45 48  1  0  0  0  0
 45 70  1  0  0  0  0
 46 73  1  0  0  0  0
 47 69  1  0  0  0  0
 48 68  1  0  0  0  0
 49 60  1  0  0  0  0
 50 62  1  0  0  0  0
 51 63  1  0  0  0  0
 52 63  1  0  0  0  0
 53 64  1  0  0  0  0
 54 64  1  0  0  0  0
 55 64  1  0  0  0  0
 56 76  1  0  0  0  0
 57 58  1  0  0  0  0
 58 59  1  0  0  0  0
 59 83  1  0  0  0  0
 60 75  1  0  0  0  0
 61 64  1  0  0  0  0
 61 74  1  0  0  0  0
 62 76  1  0  0  0  0
 63 75  1  0  0  0  0
 67 68  1  0  0  0  0
M  CHG  1  76   1
M  ISO  4  36 100  59 101  75 100  83 101
M  END
> <Batch ID>
0056

> <Smiles>
CNC(C)C(=O)NC(C(=O)N1Cc2cc([101O:1][101CH2:1]CCc3cnc(C(C)[100N:0](C(C)C)[100C:0](=O)N4CCCC(n5nc(-c6ccc(Oc7ccc(F)cc7F)cc6)c(C(N)=O)c5N)C4)nc3)ccc2CC1C(=O)NC1CCCc2ccccc21)C(C)(C)C

> <Shape>
0.257

> <Color>
0.090

> <Negative vol penalty>
0.000

$$$$

  -OEChem-04052317463D

 80 88  0     1  0  0  0  0  0999 V2000
  -31.8780  -29.8834   25.4344 C   0  0  0  0  0  0  0  0  0  0  0  0
  -31.8669  -28.5669   24.9851 C   0  0  0  0  0  0  0  0  0  0  0  0
  -22.9976   -9.8967   19.9867 C   0  0  0  0  0  0  0  0  0  0  0  0
  -23.7582   -9.9382   22.2795 C   0  0  0  0  0  0  0  0  0  0  0  0
  -32.9514  -30.7165   25.1218 C   0  0  0  0  0  0  0  0  0  0  0  0
  -32.9288  -28.0829   24.2218 C   0  0  0  0  0  0  0  0  0  0  0  0
  -34.4608  -23.4928   25.7145 C   0  0  0  0  0  0  0  0  0  0  0  0
  -22.2393   -8.7581   20.2588 C   0  0  0  0  0  0  0  0  0  0  0  0
  -22.9998   -8.7996   22.5516 C   0  0  0  0  0  0  0  0  0  0  0  0
  -33.6877  -22.4029   25.3167 C   0  0  0  0  0  0  0  0  0  0  0  0
  -23.2484   -5.4641   22.0583 C   0  0  0  0  0  0  0  0  0  0  0  0
  -23.8511   -4.4450   22.7958 C   0  0  0  0  0  0  0  0  0  0  0  0
  -35.2578  -21.9439   23.5437 C   0  0  0  0  0  0  0  0  0  0  0  0
  -22.1525   -4.6730   24.4987 C   0  0  0  0  0  0  0  0  0  0  0  0
  -32.7755  -17.5948   23.2283 C   0  0  0  0  0  0  0  0  0  0  0  0
  -31.1476  -17.8555   21.1285 C   0  0  0  0  0  0  0  0  0  0  0  0
  -23.7572  -10.4868   20.9970 C   0  0  0  0  0  0  0  0  0  0  0  0
  -24.1309  -13.0046   20.8285 C   0  0  0  0  0  0  0  0  0  0  0  0
  -34.0315  -30.2397   24.3625 C   0  0  0  0  0  0  0  0  0  0  0  0
  -35.6345  -23.8235   25.0220 C   0  0  0  0  0  0  0  0  0  0  0  0
  -34.0171  -28.9108   23.8976 C   0  0  0  0  0  0  0  0  0  0  0  0
  -36.0454  -23.0369   23.9363 C   0  0  0  0  0  0  0  0  0  0  0  0
  -22.2403   -8.2096   21.5413 C   0  0  0  0  0  0  0  0  0  0  0  0
  -34.0846  -21.6300   24.2294 C   0  0  0  0  0  0  0  0  0  0  0  0
  -22.0978   -6.0877   22.5410 C   0  0  0  0  0  0  0  0  0  0  0  0
  -23.3031   -4.0495   24.0160 C   0  0  0  0  0  0  0  0  0  0  0  0
  -21.5498   -5.6921   23.7612 C   0  0  0  0  0  0  0  0  0  0  0  0
  -24.5412  -11.6626   20.7164 C   0  0  0  0  0  0  0  0  0  0  0  0
  -32.8237  -18.7136   22.4262 C   0  0  0  0  0  0  0  0  0  0  0  0
  -31.0999  -16.7363   21.9301 C   0  0  0  0  0  0  0  0  0  0  0  0
  -25.2324  -13.7330   20.4508 C   0  0  0  0  0  0  0  0  0  0  0  0
  -22.8672  -13.5444   21.2374 C   0  0  0  0  0  0  0  0  0  0  0  0
  -36.6250  -26.3482   23.3643 C   0  0  0  0  0  0  0  0  0  0  0  0
  -39.4229  -24.7087   23.2834 C   0  0  0  0  0  0  0  0  0  0  0  0
  -30.7487  -14.6211   20.7175 C   0  0  0  0  0  0  0  0  0  0  0  0
  -41.0244  -21.7006   23.4654 C   0  0  0  0  0  0  0  0  0  0  0  0
  -35.1471  -31.1914   24.0099 C   0  0  0  0  0  0  0  0  0  0  0  0
  -36.4715  -24.9862   25.4802 C   0  0  0  0  0  0  0  0  0  0  0  0
  -37.3078  -23.3377   23.1720 C   0  0  0  0  0  0  0  0  0  0  0  0
  -36.4099  -30.4923   23.5129 C   0  0  0  0  0  0  0  0  0  0  0  0
  -29.5542  -12.2919   18.2705 C   0  0  0  0  0  0  0  0  0  0  0  0
  -36.0586  -29.4269   22.4794 C   0  0  0  0  0  0  0  0  0  0  0  0
  -28.1201  -12.0078   18.7153 C   0  0  0  0  0  0  0  0  0  0  0  0
  -30.4775  -12.5059   19.4658 C   0  0  0  0  0  0  0  0  0  0  0  0
  -28.5840  -13.2915   20.8512 C   0  0  0  0  0  0  0  0  0  0  0  0
  -35.1622  -28.3419   23.0882 C   0  0  1  0  0  0  0  0  0  0  0  0
  -37.3764  -25.5398   24.3838 C   0  0  1  0  0  0  0  0  0  0  0  0
  -27.6120  -13.0996   19.6736 C   0  0  2  0  0  0  0  0  0  0  0  0
  -43.3100  -20.6741   23.3251 C   0  0  0  0  0  0  0  0  0  0  0  0
  -39.3763  -25.0255   20.2491 C   0  0  0  0  0  0  0  0  0  0  0  0
  -41.1042  -23.2195   20.1038 C   0  0  0  0  0  0  0  0  0  0  0  0
  -41.6240  -25.3475   21.2972 C   0  0  0  0  0  0  0  0  0  0  0  0
  -40.8563  -20.6656   26.2329 C   0  0  0  0  0  0  0  0  0  0  0  0
  -33.7973  -19.8178   22.7164 C   0  0  0  0  0  0  0  0  0  1  0  0
  -40.0375  -23.6882   22.3563 C   0  0  1  0  0  0  0  0  0  0  0  0
  -42.2487  -21.2568   24.2454 C   0  0  2  0  0  0  0  0  0  0  0  0
  -30.1336  -15.6410   21.6424 C   0  0  0  0  0  0  0  0  0  0  0  0
  -40.5106  -24.3154   21.0146 C   0  0  0  0  0  0  0  0  0  0  0  0
  -32.0104  -18.8642   21.3621 N   0  0  0  0  0  0  0  0  0  0  0  0
  -31.9130  -16.5859   22.9945 N   0  0  0  0  0  0  0  0  0  0  0  0
  -25.8046  -11.5427   20.3000 N   0  0  0  0  0  0  0  0  0  0  0  0
  -26.1977  -12.8187   20.1470 N   0  0  0  0  0  0  0  0  0  0  0  0
  -38.0888  -24.4886   23.6546 N   0  0  0  0  0  0  0  0  0  0  0  0
  -29.9488  -13.5345   20.3634 N   0  0  0  0  0  0  0  0  0  0  0  0
  -25.4597  -15.0601   20.3522 N   0  0  0  0  0  0  0  0  0  0  0  0
  -21.8439  -12.6548   21.5922 N   0  0  0  0  0  0  0  0  0  0  0  0
  -35.9473  -27.4304   23.8927 N   0  0  0  0  0  0  0  0  0  0  0  0
  -41.0967  -23.0324   23.1156 N   0  0  0  0  0  0  0  0  0  0  0  0
  -41.8759  -20.2199   25.2487 N   0  3  0  0  0  0  0  0  0  0  0  0
  -22.6466  -14.7788   21.2711 O   0  0  0  0  0  0  0  0  0  0  0  0
  -36.6589  -26.0158   22.1853 O   0  0  0  0  0  0  0  0  0  0  0  0
  -40.1035  -25.6620   23.6700 O   0  0  0  0  0  0  0  0  0  0  0  0
  -31.9048  -14.7883   20.3204 O   0  0  0  0  0  0  0  0  0  0  0  0
  -40.0983  -20.9408   23.1903 O   0  0  0  0  0  0  0  0  0  0  0  0
  -21.5002   -7.0987   21.8072 O   0  0  0  0  0  0  0  0  0  0  0  0
  -33.3314  -20.5661   23.8386 O   0  0  0  0  0  0  0  0  0  1  0  0
  -23.8810   -3.0698   24.7234 F   0  0  0  0  0  0  0  0  0  0  0  0
  -20.4439   -6.2866   24.2295 F   0  0  0  0  0  0  0  0  0  0  0  0
  -29.7099  -14.9954   22.7787 F   0  0  0  0  0  0  0  0  0  0  0  0
  -28.9699  -16.0967   21.0719 F   0  0  0  0  0  0  0  0  0  0  0  0
  1  2  1  0  0  0  0
  1  5  2  0  0  0  0
  2  6  2  0  0  0  0
  3  8  2  0  0  0  0
  3 17  1  0  0  0  0
  4  9  1  0  0  0  0
  4 17  2  0  0  0  0
  5 19  1  0  0  0  0
  6 21  1  0  0  0  0
  7 10  2  0  0  0  0
  7 20  1  0  0  0  0
  8 23  1  0  0  0  0
  9 23  2  0  0  0  0
 10 24  1  0  0  0  0
 11 12  2  0  0  0  0
 11 25  1  0  0  0  0
 12 26  1  0  0  0  0
 13 22  1  0  0  0  0
 13 24  2  0  0  0  0
 14 26  2  0  0  0  0
 14 27  1  0  0  0  0
 15 29  1  0  0  0  0
 15 60  2  0  0  0  0
 16 30  2  0  0  0  0
 16 59  1  0  0  0  0
 17 28  1  0  0  0  0
 18 28  1  0  0  0  0
 18 31  2  0  0  0  0
 18 32  1  0  0  0  0
 19 21  2  0  0  0  0
 19 37  1  0  0  0  0
 20 22  2  0  0  0  0
 20 38  1  0  0  0  0
 21 46  1  0  0  0  0
 22 39  1  0  0  0  0
 23 75  1  0  0  0  0
 24 76  1  0  0  0  0
 25 27  2  0  0  0  0
 25 75  1  0  0  0  0
 26 77  1  0  0  0  0
 27 78  1  0  0  0  0
 28 61  2  0  0  0  0
 29 54  1  0  0  0  0
 29 59  2  0  0  0  0
 30 57  1  0  0  0  0
 30 60  1  0  0  0  0
 31 62  1  0  0  0  0
 31 65  1  0  0  0  0
 32 66  1  0  0  0  0
 32 70  2  0  0  0  0
 33 47  1  0  0  0  0
 33 67  1  0  0  0  0
 33 71  2  0  0  0  0
 34 55  1  0  0  0  0
 34 63  1  0  0  0  0
 34 72  2  0  0  0  0
 35 57  1  0  0  0  0
 35 64  1  0  0  0  0
 35 73  2  0  0  0  0
 36 56  1  0  0  0  0
 36 68  1  0  0  0  0
 36 74  2  0  0  0  0
 37 40  1  0  0  0  0
 38 47  1  0  0  0  0
 39 63  1  0  0  0  0
 40 42  1  0  0  0  0
 41 43  1  0  0  0  0
 41 44  1  0  0  0  0
 42 46  1  0  0  0  0
 43 48  1  0  0  0  0
 44 64  1  0  0  0  0
 45 48  1  0  0  0  0
 45 64  1  0  0  0  0
 46 67  1  0  0  0  0
 47 63  1  0  0  0  0
 48 62  1  0  0  0  0
 49 56  1  0  0  0  0
 50 58  1  0  0  0  0
 51 58  1  0  0  0  0
 52 58  1  0  0  0  0
 53 69  1  0  0  0  0
 54 76  1  0  0  0  0
 55 58  1  0  0  0  0
 55 68  1  0  0  0  0
 56 69  1  0  0  0  0
 57 79  1  0  0  0  0
 57 80  1  0  0  0  0
 61 62  1  0  0  0  0
M  CHG  1  69   1
M  ISO  4  35 100  54 101  57 100  76 101
M  END
> <Batch ID>
0056

> <Smiles>
CNC(C)C(=O)NC(C(=O)N1Cc2cc([101O:1][101CH2:1]c3cnc([100C:0](F)(F)[100C:0](=O)N4CCCC(n5nc(-c6ccc(Oc7ccc(F)cc7F)cc6)c(C(N)=O)c5N)C4)cn3)ccc2CC1C(=O)NC1CCCc2ccccc21)C(C)(C)C

> <Shape>
0.182

> <Color>
0.200

> <Negative vol penalty>
0.000

$$$$

  -OEChem-04052317463D

 85 93  0     1  0  0  0  0  0999 V2000
  -34.9525  -24.8203   21.9937 C   0  0  0  0  0  0  0  0  0  0  0  0
  -34.0280  -24.0084   21.3445 C   0  0  0  0  0  0  0  0  0  0  0  0
  -23.1829   -9.8478   19.9353 C   0  0  0  0  0  0  0  0  0  0  0  0
  -23.8325   -9.9405   22.2605 C   0  0  0  0  0  0  0  0  0  0  0  0
  -34.5193  -25.9437   22.6968 C   0  0  0  0  0  0  0  0  0  0  0  0
  -32.6697  -24.3188   21.3989 C   0  0  0  0  0  0  0  0  0  0  0  0
  -30.4016  -23.9109   16.8895 C   0  0  0  0  0  0  0  0  0  0  0  0
  -22.4578   -8.6825   20.1844 C   0  0  0  0  0  0  0  0  0  0  0  0
  -23.1074   -8.7753   22.5096 C   0  0  0  0  0  0  0  0  0  0  0  0
  -30.0831  -22.6264   16.4508 C   0  0  0  0  0  0  0  0  0  0  0  0
  -19.8757   -7.9080   22.9839 C   0  0  0  0  0  0  0  0  0  0  0  0
  -19.0653   -7.8809   24.1188 C   0  0  0  0  0  0  0  0  0  0  0  0
  -27.8000  -22.9584   17.1554 C   0  0  0  0  0  0  0  0  0  0  0  0
  -20.3196   -5.9995   24.9697 C   0  0  0  0  0  0  0  0  0  0  0  0
  -29.6009  -17.1612   16.8923 C   0  0  0  0  0  0  0  0  0  0  0  0
  -23.8703  -10.4768   20.9734 C   0  0  0  0  0  0  0  0  0  0  0  0
  -24.1525  -13.0058   20.7945 C   0  0  0  0  0  0  0  0  0  0  0  0
  -33.1559  -26.2735   22.7518 C   0  0  0  0  0  0  0  0  0  0  0  0
  -29.4225  -24.7261   17.4753 C   0  0  0  0  0  0  0  0  0  0  0  0
  -32.2178  -25.4469   22.1045 C   0  0  0  0  0  0  0  0  0  0  0  0
  -28.1080  -24.2538   17.5983 C   0  0  0  0  0  0  0  0  0  0  0  0
  -22.4200   -8.1463   21.4715 C   0  0  0  0  0  0  0  0  0  0  0  0
  -28.7829  -22.1489   16.5863 C   0  0  0  0  0  0  0  0  0  0  0  0
  -20.9081   -6.9807   22.8419 C   0  0  0  0  0  0  0  0  0  0  0  0
  -19.2872   -6.9267   25.1117 C   0  0  0  0  0  0  0  0  0  0  0  0
  -21.1300   -6.0265   23.8348 C   0  0  0  0  0  0  0  0  0  0  0  0
  -24.6199  -11.6802   20.7167 C   0  0  0  0  0  0  0  0  0  0  0  0
  -28.9365  -18.2678   17.3734 C   0  0  0  0  0  0  0  0  0  0  0  0
  -30.5781  -18.5740   18.9360 C   0  0  0  0  0  0  0  0  0  0  0  0
  -31.2420  -17.4669   18.4553 C   0  0  0  0  0  0  0  0  0  0  0  0
  -25.2411  -13.7739   20.4606 C   0  0  0  0  0  0  0  0  0  0  0  0
  -22.8507  -13.4988   21.1381 C   0  0  0  0  0  0  0  0  0  0  0  0
  -29.0380  -26.0719   20.3293 C   0  0  0  0  0  0  0  0  0  0  0  0
  -26.4817  -27.4628   18.8965 C   0  0  0  0  0  0  0  0  0  0  0  0
  -24.1370  -27.3583   16.4189 C   0  0  0  0  0  0  0  0  0  0  0  0
  -30.4532  -15.0705   20.7988 C   0  0  0  0  0  0  0  0  0  0  0  0
  -32.7309  -27.4713   23.5636 C   0  0  0  0  0  0  0  0  0  0  0  0
  -29.7760  -26.1192   17.9191 C   0  0  0  0  0  0  0  0  0  0  0  0
  -27.0156  -25.0969   18.2019 C   0  0  0  0  0  0  0  0  0  0  0  0
  -31.3104  -27.9404   23.2595 C   0  0  0  0  0  0  0  0  0  0  0  0
  -29.7144  -12.4914   18.5021 C   0  0  0  0  0  0  0  0  0  0  0  0
  -30.3522  -26.7539   23.2257 C   0  0  0  0  0  0  0  0  0  0  0  0
  -28.2761  -12.1470   18.8862 C   0  0  0  0  0  0  0  0  0  0  0  0
  -30.5848  -12.7730   19.7282 C   0  0  0  0  0  0  0  0  0  0  0  0
  -28.5876  -13.4569   21.0190 C   0  0  0  0  0  0  0  0  0  0  0  0
  -30.7382  -25.7644   22.1197 C   0  0  1  0  0  0  0  0  0  0  0  0
  -28.8183  -26.6727   18.9697 C   0  0  1  0  0  0  0  0  0  0  0  0
  -27.6774  -13.2283   19.8024 C   0  0  2  0  0  0  0  0  0  0  0  0
  -31.1166  -19.3689   20.0761 C   0  0  0  0  0  0  0  0  0  0  0  0
  -22.1572  -28.6155   15.5260 C   0  0  0  0  0  0  0  0  0  0  0  0
  -33.7030  -18.0529   18.9999 C   0  0  0  0  0  0  0  0  0  0  0  0
  -33.0743  -15.7601   18.2903 C   0  0  0  0  0  0  0  0  0  0  0  0
  -24.7756  -26.4025   21.1932 C   0  0  0  0  0  0  0  0  0  0  0  0
  -22.7450  -26.8454   19.7972 C   0  0  0  0  0  0  0  0  0  0  0  0
  -24.2262  -28.7344   20.4759 C   0  0  0  0  0  0  0  0  0  0  0  0
  -32.8208  -14.2104   21.0429 C   0  0  0  0  0  0  0  0  0  0  0  0
  -25.4517  -27.8029   13.8049 C   0  0  0  0  0  0  0  0  0  0  0  0
  -27.6333  -18.7087   16.7525 C   0  0  0  0  0  0  0  0  0  0  0  0
  -32.3805  -16.5890   20.5588 C   0  0  0  0  0  0  0  0  0  0  0  0
  -27.4237  -20.2157   16.8529 C   0  0  0  0  0  0  0  0  0  1  0  0
  -25.0267  -27.1007   18.7203 C   0  0  1  0  0  0  0  0  0  0  0  0
  -23.6619  -28.4136   15.4366 C   0  0  2  0  0  0  0  0  0  0  0  0
  -32.5298  -17.0125   19.0529 C   0  0  0  0  0  0  0  0  0  0  0  0
  -24.2142  -27.2539   20.0370 C   0  0  0  0  0  0  0  0  0  0  0  0
  -30.7656  -16.7408   17.4246 N   0  0  0  0  0  0  0  0  0  0  0  0
  -25.9053  -11.6067   20.3610 N   0  0  0  0  0  0  0  0  0  0  0  0
  -29.4132  -18.9941   18.4038 N   0  0  0  0  0  0  0  0  0  0  0  0
  -26.2548  -12.8958   20.2124 N   0  0  0  0  0  0  0  0  0  0  0  0
  -27.4124  -26.4496   18.6264 N   0  0  0  0  0  0  0  0  0  0  0  0
  -29.9546  -13.7747   20.5989 N   0  0  0  0  0  0  0  0  0  0  0  0
  -25.4205  -15.1079   20.3580 N   0  0  0  0  0  0  0  0  0  0  0  0
  -21.8476  -12.5726   21.4545 N   0  0  0  0  0  0  0  0  0  0  0  0
  -30.3130  -26.2593   20.8279 N   0  0  0  0  0  0  0  0  0  0  0  0
  -24.5339  -27.9164   17.6157 N   0  0  0  0  0  0  0  0  0  0  0  0
  -31.8425  -15.2445   20.7114 N   0  0  0  0  0  0  0  0  0  0  0  0
  -24.0002  -28.0126   14.0417 N   0  3  0  0  0  0  0  0  0  0  0  0
  -22.5805  -14.7237   21.1478 O   0  0  0  0  0  0  0  0  0  0  0  0
  -28.1183  -25.4831   20.8854 O   0  0  0  0  0  0  0  0  0  0  0  0
  -26.7816  -28.6048   19.2536 O   0  0  0  0  0  0  0  0  0  0  0  0
  -24.1509  -26.1586   16.1526 O   0  0  0  0  0  0  0  0  0  0  0  0
  -29.6997  -16.0199   21.0497 O   0  0  0  0  0  0  0  0  0  0  0  0
  -21.7124   -7.0094   21.7149 O   0  0  0  0  0  0  0  0  0  0  0  0
  -28.4695  -20.8953   16.1596 O   0  0  0  0  0  0  0  0  0  1  0  0
  -18.5098   -6.9019   26.2022 F   0  0  0  0  0  0  0  0  0  0  0  0
  -22.1210   -5.1339   23.7045 F   0  0  0  0  0  0  0  0  0  0  0  0
  1  2  1  0  0  0  0
  1  5  2  0  0  0  0
  2  6  2  0  0  0  0
  3  8  2  0  0  0  0
  3 16  1  0  0  0  0
  4  9  1  0  0  0  0
  4 16  2  0  0  0  0
  5 18  1  0  0  0  0
  6 20  1  0  0  0  0
  7 10  2  0  0  0  0
  7 19  1  0  0  0  0
  8 22  1  0  0  0  0
  9 22  2  0  0  0  0
 10 23  1  0  0  0  0
 11 12  2  0  0  0  0
 11 24  1  0  0  0  0
 12 25  1  0  0  0  0
 13 21  1  0  0  0  0
 13 23  2  0  0  0  0
 14 25  2  0  0  0  0
 14 26  1  0  0  0  0
 15 28  1  0  0  0  0
 15 65  2  0  0  0  0
 16 27  1  0  0  0  0
 17 27  1  0  0  0  0
 17 31  2  0  0  0  0
 17 32  1  0  0  0  0
 18 20  2  0  0  0  0
 18 37  1  0  0  0  0
 19 21  2  0  0  0  0
 19 38  1  0  0  0  0
 20 46  1  0  0  0  0
 21 39  1  0  0  0  0
 22 82  1  0  0  0  0
 23 83  1  0  0  0  0
 24 26  2  0  0  0  0
 24 82  1  0  0  0  0
 25 84  1  0  0  0  0
 26 85  1  0  0  0  0
 27 66  2  0  0  0  0
 28 58  1  0  0  0  0
 28 67  2  0  0  0  0
 29 30  2  0  0  0  0
 29 49  1  0  0  0  0
 29 67  1  0  0  0  0
 30 63  1  0  0  0  0
 30 65  1  0  0  0  0
 31 68  1  0  0  0  0
 31 71  1  0  0  0  0
 32 72  1  0  0  0  0
 32 77  2  0  0  0  0
 33 47  1  0  0  0  0
 33 73  1  0  0  0  0
 33 78  2  0  0  0  0
 34 61  1  0  0  0  0
 34 69  1  0  0  0  0
 34 79  2  0  0  0  0
 35 62  1  0  0  0  0
 35 74  1  0  0  0  0
 35 80  2  0  0  0  0
 36 70  1  0  0  0  0
 36 75  1  0  0  0  0
 36 81  2  0  0  0  0
 37 40  1  0  0  0  0
 38 47  1  0  0  0  0
 39 69  1  0  0  0  0
 40 42  1  0  0  0  0
 41 43  1  0  0  0  0
 41 44  1  0  0  0  0
 42 46  1  0  0  0  0
 43 48  1  0  0  0  0
 44 70  1  0  0  0  0
 45 48  1  0  0  0  0
 45 70  1  0  0  0  0
 46 73  1  0  0  0  0
 47 69  1  0  0  0  0
 48 68  1  0  0  0  0
 50 62  1  0  0  0  0
 51 63  1  0  0  0  0
 52 63  1  0  0  0  0
 53 64  1  0  0  0  0
 54 64  1  0  0  0  0
 55 64  1  0  0  0  0
 56 75  1  0  0  0  0
 57 76  1  0  0  0  0
 58 60  1  0  0  0  0
 59 63  1  0  0  0  0
 59 75  1  0  0  0  0
 60 83  1  0  0  0  0
 61 64  1  0  0  0  0
 61 74  1  0  0  0  0
 62 76  1  0  0  0  0
 66 68  1  0  0  0  0
M  CHG  1  76   1
M  ISO  4  36 100  60 101  75 100  83 101
M  END
> <Batch ID>
0056

> <Smiles>
CNC(C)C(=O)NC(C(=O)N1Cc2cc([101O:1][101CH2:1]Cc3cnc(C(C)(C)C[100N:0](C)[100C:0](=O)N4CCCC(n5nc(-c6ccc(Oc7ccc(F)cc7F)cc6)c(C(N)=O)c5N)C4)c(C)n3)ccc2CC1C(=O)NC1CCCc2ccccc21)C(C)(C)C

> <Shape>
0.255

> <Color>
0.173

> <Negative vol penalty>
0.000

$$$$

  -OEChem-04052317463D

 80 88  0     1  0  0  0  0  0999 V2000
  -23.1853  -11.1319   18.6512 C   0  0  0  0  0  0  0  0  0  0  0  0
  -22.4951  -12.3322   18.7854 C   0  0  0  0  0  0  0  0  0  0  0  0
  -26.0246  -28.9386   20.9983 C   0  0  0  0  0  0  0  0  0  0  0  0
  -25.2600  -26.6571   21.2149 C   0  0  0  0  0  0  0  0  0  0  0  0
  -24.4021  -10.9516   19.3075 C   0  0  0  0  0  0  0  0  0  0  0  0
  -23.0207  -13.3528   19.5770 C   0  0  0  0  0  0  0  0  0  0  0  0
  -22.5644  -19.3804   18.5942 C   0  0  0  0  0  0  0  0  0  0  0  0
  -27.2193  -28.4852   20.4392 C   0  0  0  0  0  0  0  0  0  0  0  0
  -26.4547  -26.2036   20.6557 C   0  0  0  0  0  0  0  0  0  0  0  0
  -21.7129  -20.3538   19.1148 C   0  0  0  0  0  0  0  0  0  0  0  0
  -30.1247  -27.1416   21.5244 C   0  0  0  0  0  0  0  0  0  0  0  0
  -31.3119  -27.7118   21.9838 C   0  0  0  0  0  0  0  0  0  0  0  0
  -23.3858  -20.9317   20.7540 C   0  0  0  0  0  0  0  0  0  0  0  0
  -31.8082  -28.4804   19.7477 C   0  0  0  0  0  0  0  0  0  0  0  0
  -19.7308  -24.4370   21.5456 C   0  0  0  0  0  0  0  0  0  0  0  0
  -25.0449  -28.0246   21.3862 C   0  0  0  0  0  0  0  0  0  0  0  0
  -22.8636  -29.3472   21.3695 C   0  0  0  0  0  0  0  0  0  0  0  0
  -24.9477  -11.9740   20.0998 C   0  0  0  0  0  0  0  0  0  0  0  0
  -23.8309  -19.1675   19.1574 C   0  0  0  0  0  0  0  0  0  0  0  0
  -24.2454  -13.1856   20.2456 C   0  0  0  0  0  0  0  0  0  0  0  0
  -24.2524  -19.9567   20.2370 C   0  0  0  0  0  0  0  0  0  0  0  0
  -27.4343  -27.1177   20.2679 C   0  0  0  0  0  0  0  0  0  0  0  0
  -22.1224  -21.1277   20.1967 C   0  0  0  0  0  0  0  0  0  0  0  0
  -29.7793  -27.2408   20.1765 C   0  0  0  0  0  0  0  0  0  0  0  0
  -32.1536  -28.3812   21.0955 C   0  0  0  0  0  0  0  0  0  0  0  0
  -30.6210  -27.9102   19.2883 C   0  0  0  0  0  0  0  0  0  0  0  0
  -23.8108  -28.4923   21.9644 C   0  0  0  0  0  0  0  0  0  0  0  0
  -20.7150  -23.8022   22.2494 C   0  0  0  0  0  0  0  0  0  0  0  0
  -21.8814  -29.4854   22.3196 C   0  0  0  0  0  0  0  0  0  0  0  0
  -19.5726  -25.0674   23.6618 C   0  0  0  0  0  0  0  0  0  0  0  0
  -22.8709  -29.9613   20.0740 C   0  0  0  0  0  0  0  0  0  0  0  0
  -25.2658  -16.7200   20.5908 C   0  0  0  0  0  0  0  0  0  0  0  0
  -27.8488  -18.6798   20.4902 C   0  0  0  0  0  0  0  0  0  0  0  0
  -29.0648  -21.8632   20.3064 C   0  0  0  0  0  0  0  0  0  0  0  0
  -20.5605  -25.7592   27.0004 C   0  0  0  0  0  0  0  0  0  0  0  0
  -26.2429  -11.7154   20.8279 C   0  0  0  0  0  0  0  0  0  0  0  0
  -24.7480  -18.1317   18.5671 C   0  0  0  0  0  0  0  0  0  0  0  0
  -25.6102  -19.7815   20.8649 C   0  0  0  0  0  0  0  0  0  0  0  0
  -26.9141  -12.9846   21.3465 C   0  0  0  0  0  0  0  0  0  0  0  0
  -21.1906  -29.4065   27.0474 C   0  0  0  0  0  0  0  0  0  0  0  0
  -25.8958  -13.8795   22.0457 C   0  0  0  0  0  0  0  0  0  0  0  0
  -21.9188  -29.6358   25.7240 C   0  0  0  0  0  0  0  0  0  0  0  0
  -21.4211  -27.9974   27.5849 C   0  0  0  0  0  0  0  0  0  0  0  0
  -21.8054  -27.1492   25.2942 C   0  0  0  0  0  0  0  0  0  0  0  0
  -24.7951  -14.3254   21.0755 C   0  0  1  0  0  0  0  0  0  0  0  0
  -25.8144  -17.6504   19.5462 C   0  0  1  0  0  0  0  0  0  0  0  0
  -21.5560  -28.5444   24.7020 C   0  0  2  0  0  0  0  0  0  0  0  0
  -31.2185  -23.1510   20.2828 C   0  0  0  0  0  0  0  0  0  0  0  0
  -28.1378  -18.2468   23.4967 C   0  0  0  0  0  0  0  0  0  0  0  0
  -29.6503  -20.2406   23.5680 C   0  0  0  0  0  0  0  0  0  0  0  0
  -30.2937  -18.2365   22.2292 C   0  0  0  0  0  0  0  0  0  0  0  0
  -17.9064  -26.0564   22.1187 C   0  0  0  0  0  0  0  0  0  0  0  0
  -19.0930  -23.8407   26.5052 C   0  0  0  0  0  0  0  0  0  0  0  0
  -28.5065  -22.9730   17.6202 C   0  0  0  0  0  0  0  0  0  0  0  0
  -21.7769  -22.8346   21.8163 C   0  0  0  0  0  0  0  0  0  1  0  0
  -19.1277  -25.7264   24.9150 C   0  0  0  0  0  0  0  0  0  0  0  0
  -28.4290  -19.7315   21.4046 C   0  0  1  0  0  0  0  0  0  0  0  0
  -30.1467  -22.4797   19.4382 C   0  0  2  0  0  0  0  0  0  0  0  0
  -29.1013  -19.1161   22.6643 C   0  0  0  0  0  0  0  0  0  0  0  0
  -23.4618  -28.1142   23.1970 N   0  0  0  0  0  0  0  0  0  0  0  0
  -19.0391  -25.2127   22.4445 N   0  0  0  0  0  0  0  0  0  0  0  0
  -22.2844  -28.7344   23.3844 N   0  0  0  0  0  0  0  0  0  0  0  0
  -20.5937  -24.2109   23.5556 N   0  3  0  0  0  0  0  0  0  0  0  0
  -26.4682  -18.7516   20.2561 N   0  0  0  0  0  0  0  0  0  0  0  0
  -21.1098  -26.9813   26.5789 N   0  0  0  0  0  0  0  0  0  0  0  0
  -20.7209  -30.1748   22.3397 N   0  0  0  0  0  0  0  0  0  0  0  0
  -22.2857  -29.2708   19.0039 N   0  0  0  0  0  0  0  0  0  0  0  0
  -25.2760  -15.3889   20.2199 N   0  0  0  0  0  0  0  0  0  0  0  0
  -29.3251  -20.5376   20.5827 N   0  0  0  0  0  0  0  0  0  0  0  0
  -19.6966  -25.1050   26.1090 N   0  0  0  0  0  0  0  0  0  0  0  0
  -29.5593  -23.5010   18.5256 N   0  3  0  0  0  0  0  0  0  0  0  0
  -23.3958  -31.0818   19.8679 O   0  0  0  0  0  0  0  0  0  0  0  0
  -24.8644  -17.1759   21.6551 O   0  0  0  0  0  0  0  0  0  0  0  0
  -28.5942  -17.8302   19.9960 O   0  0  0  0  0  0  0  0  0  0  0  0
  -28.0884  -22.4955   20.7032 O   0  0  0  0  0  0  0  0  0  0  0  0
  -20.8195  -25.2849   28.1139 O   0  0  0  0  0  0  0  0  0  0  0  0
  -28.5999  -26.6749   19.7221 O   0  0  0  0  0  0  0  0  0  0  0  0
  -21.2930  -22.0781   20.7073 O   0  0  0  0  0  0  0  0  0  1  0  0
  -33.2929  -28.9300   21.5372 F   0  0  0  0  0  0  0  0  0  0  0  0
  -30.2939  -28.0097   17.9925 F   0  0  0  0  0  0  0  0  0  0  0  0
  1  2  1  0  0  0  0
  1  5  2  0  0  0  0
  2  6  2  0  0  0  0
  3  8  2  0  0  0  0
  3 16  1  0  0  0  0
  4  9  1  0  0  0  0
  4 16  2  0  0  0  0
  5 18  1  0  0  0  0
  6 20  1  0  0  0  0
  7 10  2  0  0  0  0
  7 19  1  0  0  0  0
  8 22  1  0  0  0  0
  9 22  2  0  0  0  0
 10 23  1  0  0  0  0
 11 12  2  0  0  0  0
 11 24  1  0  0  0  0
 12 25  1  0  0  0  0
 13 21  1  0  0  0  0
 13 23  2  0  0  0  0
 14 25  2  0  0  0  0
 14 26  1  0  0  0  0
 15 28  2  0  0  0  0
 15 61  1  0  0  0  0
 16 27  1  0  0  0  0
 17 27  1  0  0  0  0
 17 29  2  0  0  0  0
 17 31  1  0  0  0  0
 18 20  2  0  0  0  0
 18 36  1  0  0  0  0
 19 21  2  0  0  0  0
 19 37  1  0  0  0  0
 20 45  1  0  0  0  0
 21 38  1  0  0  0  0
 22 77  1  0  0  0  0
 23 78  1  0  0  0  0
 24 26  2  0  0  0  0
 24 77  1  0  0  0  0
 25 79  1  0  0  0  0
 26 80  1  0  0  0  0
 27 60  2  0  0  0  0
 28 55  1  0  0  0  0
 28 63  1  0  0  0  0
 29 62  1  0  0  0  0
 29 66  1  0  0  0  0
 30 56  1  0  0  0  0
 30 61  1  0  0  0  0
 30 63  2  0  0  0  0
 31 67  1  0  0  0  0
 31 72  2  0  0  0  0
 32 46  1  0  0  0  0
 32 68  1  0  0  0  0
 32 73  2  0  0  0  0
 33 57  1  0  0  0  0
 33 64  1  0  0  0  0
 33 74  2  0  0  0  0
 34 58  1  0  0  0  0
 34 69  1  0  0  0  0
 34 75  2  0  0  0  0
 35 65  1  0  0  0  0
 35 70  1  0  0  0  0
 35 76  2  0  0  0  0
 36 39  1  0  0  0  0
 37 46  1  0  0  0  0
 38 64  1  0  0  0  0
 39 41  1  0  0  0  0
 40 42  1  0  0  0  0
 40 43  1  0  0  0  0
 41 45  1  0  0  0  0
 42 47  1  0  0  0  0
 43 65  1  0  0  0  0
 44 47  1  0  0  0  0
 44 65  1  0  0  0  0
 45 68  1  0  0  0  0
 46 64  1  0  0  0  0
 47 62  1  0  0  0  0
 48 58  1  0  0  0  0
 49 59  1  0  0  0  0
 50 59  1  0  0  0  0
 51 59  1  0  0  0  0
 52 61  1  0  0  0  0
 53 70  1  0  0  0  0
 54 71  1  0  0  0  0
 55 78  1  0  0  0  0
 56 70  1  0  0  0  0
 57 59  1  0  0  0  0
 57 69  1  0  0  0  0
 58 71  1  0  0  0  0
 60 62  1  0  0  0  0
M  CHG  2  63   1  71   1
M  ISO  4  35 100  55 101  70 100  78 101
M  END
> <Batch ID>
0056

> <Smiles>
CNC(C)C(=O)NC(C(=O)N1Cc2cc([101O:1][101CH2:1]c3cn(C)c(C[100N:0](C)[100C:0](=O)N4CCCC(n5nc(-c6ccc(Oc7ccc(F)cc7F)cc6)c(C(N)=O)c5N)C4)n3)ccc2CC1C(=O)NC1CCCc2ccccc21)C(C)(C)C

> <Shape>
0.210

> <Color>
0.077

> <Negative vol penalty>
0.000

$$$$

  -OEChem-04052317463D

 84 92  0     1  0  0  0  0  0999 V2000
  -25.3482  -18.4958   23.9692 C   0  0  0  0  0  0  0  0  0  0  0  0
  -25.8640  -19.4979   23.1536 C   0  0  0  0  0  0  0  0  0  0  0  0
  -25.4194  -13.2129   19.4567 C   0  0  0  0  0  0  0  0  0  0  0  0
  -25.7892  -13.5679   21.8177 C   0  0  0  0  0  0  0  0  0  0  0  0
  -23.9841  -18.4653   24.2561 C   0  0  0  0  0  0  0  0  0  0  0  0
  -25.0157  -20.4694   22.6234 C   0  0  0  0  0  0  0  0  0  0  0  0
  -26.9318  -25.1411   23.0083 C   0  0  0  0  0  0  0  0  0  0  0  0
  -24.8656  -11.9625   19.7314 C   0  0  0  0  0  0  0  0  0  0  0  0
  -25.2353  -12.3175   22.0924 C   0  0  0  0  0  0  0  0  0  0  0  0
  -27.9127  -25.5049   22.0867 C   0  0  0  0  0  0  0  0  0  0  0  0
  -23.0247   -8.8297   19.8397 C   0  0  0  0  0  0  0  0  0  0  0  0
  -21.8442   -8.4846   19.1818 C   0  0  0  0  0  0  0  0  0  0  0  0
  -26.2536  -26.6910   20.7983 C   0  0  0  0  0  0  0  0  0  0  0  0
  -20.7342  -10.3863   20.1760 C   0  0  0  0  0  0  0  0  0  0  0  0
  -29.0726  -23.7822   17.3214 C   0  0  0  0  0  0  0  0  0  0  0  0
  -30.5422  -24.4059   18.8335 C   0  0  0  0  0  0  0  0  0  0  0  0
  -25.8812  -14.0156   20.4998 C   0  0  0  0  0  0  0  0  0  0  0  0
  -25.7765  -16.5386   20.1378 C   0  0  0  0  0  0  0  0  0  0  0  0
  -23.1202  -19.4424   23.7371 C   0  0  0  0  0  0  0  0  0  0  0  0
  -25.6002  -25.5410   22.8257 C   0  0  0  0  0  0  0  0  0  0  0  0
  -23.6386  -20.4510   22.9025 C   0  0  0  0  0  0  0  0  0  0  0  0
  -25.2582  -26.3330   21.7204 C   0  0  0  0  0  0  0  0  0  0  0  0
  -29.6076  -24.9143   17.9648 C   0  0  0  0  0  0  0  0  0  0  0  0
  -24.7735  -11.5148   21.0492 C   0  0  0  0  0  0  0  0  0  0  0  0
  -27.5731  -26.2775   20.9800 C   0  0  0  0  0  0  0  0  0  0  0  0
  -23.0600   -9.9531   20.6658 C   0  0  0  0  0  0  0  0  0  0  0  0
  -20.6990   -9.2629   19.3499 C   0  0  0  0  0  0  0  0  0  0  0  0
  -21.9147  -10.7314   20.8339 C   0  0  0  0  0  0  0  0  0  0  0  0
  -26.4539  -15.3071   20.2167 C   0  0  0  0  0  0  0  0  0  0  0  0
  -26.7592  -17.4531   19.8472 C   0  0  0  0  0  0  0  0  0  0  0  0
  -24.3834  -16.8299   20.3117 C   0  0  0  0  0  0  0  0  0  0  0  0
  -22.8416  -24.0227   22.3916 C   0  0  0  0  0  0  0  0  0  0  0  0
  -21.6059  -27.0124   22.6301 C   0  0  0  0  0  0  0  0  0  0  0  0
  -22.0872  -30.3782   22.3358 C   0  0  0  0  0  0  0  0  0  0  0  0
  -31.9726  -19.3013   21.1595 C   0  0  0  0  0  0  0  0  0  0  0  0
  -21.6456  -19.3407   24.0366 C   0  0  0  0  0  0  0  0  0  0  0  0
  -24.5590  -25.1627   23.8431 C   0  0  0  0  0  0  0  0  0  0  0  0
  -23.8467  -26.8052   21.4895 C   0  0  0  0  0  0  0  0  0  0  0  0
  -20.8738  -20.6239   23.7399 C   0  0  0  0  0  0  0  0  0  0  0  0
  -31.5688  -16.8120   18.4499 C   0  0  0  0  0  0  0  0  0  0  0  0
  -21.2642  -21.1778   22.3733 C   0  0  0  0  0  0  0  0  0  0  0  0
  -30.1708  -16.2555   18.7145 C   0  0  0  0  0  0  0  0  0  0  0  0
  -32.2344  -17.3059   19.7308 C   0  0  0  0  0  0  0  0  0  0  0  0
  -30.0250  -17.7412   20.7521 C   0  0  0  0  0  0  0  0  0  0  0  0
  -22.7544  -21.5369   22.3287 C   0  0  1  0  0  0  0  0  0  0  0  0
  -23.1394  -25.1934   23.2851 C   0  0  1  0  0  0  0  0  0  0  0  0
  -29.3083  -17.2778   19.4750 C   0  0  2  0  0  0  0  0  0  0  0  0
  -20.8814  -32.5676   22.5599 C   0  0  0  0  0  0  0  0  0  0  0  0
  -32.2363  -21.3320   18.3895 C   0  0  0  0  0  0  0  0  0  0  0  0
  -28.7565  -26.7029   16.3048 C   0  0  0  0  0  0  0  0  0  0  0  0
  -30.4763  -27.2730   18.0063 C   0  0  0  0  0  0  0  0  0  0  0  0
  -20.2047  -26.5106   19.9665 C   0  0  0  0  0  0  0  0  0  0  0  0
  -19.8208  -28.9778   19.7832 C   0  0  0  0  0  0  0  0  0  0  0  0
  -18.8114  -27.6972   21.6710 C   0  0  0  0  0  0  0  0  0  0  0  0
  -31.4342  -21.3376   22.4414 C   0  0  0  0  0  0  0  0  0  0  0  0
  -23.9148  -31.2985   24.4739 C   0  0  0  0  0  0  0  0  0  0  0  0
  -30.4783  -21.0933   20.1804 C   0  0  0  0  0  0  0  0  0  0  0  0
  -28.1102  -26.8143   18.7262 C   0  0  0  0  0  0  0  0  0  1  0  0
  -21.3031  -28.1250   21.6557 C   0  0  1  0  0  0  0  0  0  0  0  0
  -21.7426  -31.5299   23.2629 C   0  0  2  0  0  0  0  0  0  0  0  0
  -31.3218  -22.0840   19.3624 C   0  0  2  0  0  0  0  0  0  0  0  0
  -29.2332  -26.3919   17.7441 C   0  0  0  0  0  0  0  0  0  0  0  0
  -20.0613  -27.8173   20.7721 C   0  0  0  0  0  0  0  0  0  0  0  0
  -29.6218  -22.6407   17.7451 N   0  0  0  0  0  0  0  0  0  0  0  0
  -27.7656  -15.4249   19.9940 N   0  0  0  0  0  0  0  0  0  0  0  0
  -30.5117  -23.0530   18.6639 N   0  0  0  0  0  0  0  0  0  0  0  0
  -27.9203  -16.7414   19.7723 N   0  0  0  0  0  0  0  0  0  0  0  0
  -22.8633  -26.4040   22.5090 N   0  0  0  0  0  0  0  0  0  0  0  0
  -31.3753  -18.2427   20.4557 N   0  0  0  0  0  0  0  0  0  0  0  0
  -26.7348  -18.7885   19.6510 N   0  0  0  0  0  0  0  0  0  0  0  0
  -23.5115  -15.7729   20.6064 N   0  0  0  0  0  0  0  0  0  0  0  0
  -22.9918  -22.7939   23.0055 N   0  0  0  0  0  0  0  0  0  0  0  0
  -21.1841  -29.3426   22.4505 N   0  0  0  0  0  0  0  0  0  0  0  0
  -31.2350  -20.4893   21.2750 N   0  0  0  0  0  0  0  0  0  0  0  0
  -22.9853  -32.1978   23.7431 N   0  3  0  0  0  0  0  0  0  0  0  0
  -23.9229  -17.9906   20.1926 O   0  0  0  0  0  0  0  0  0  0  0  0
  -22.4994  -24.2197   21.2315 O   0  0  0  0  0  0  0  0  0  0  0  0
  -20.7608  -26.6997   23.4725 O   0  0  0  0  0  0  0  0  0  0  0  0
  -23.0580  -30.3971   21.5824 O   0  0  0  0  0  0  0  0  0  0  0  0
  -33.1047  -19.1941   21.6482 O   0  0  0  0  0  0  0  0  0  0  0  0
  -24.2330  -10.2949   21.3177 O   0  0  0  0  0  0  0  0  0  0  0  0
  -28.5284  -26.6335   20.0786 O   0  0  0  0  0  0  0  0  0  1  0  0
  -19.5658   -8.9322   18.7168 F   0  0  0  0  0  0  0  0  0  0  0  0
  -21.9428  -11.8125   21.6253 F   0  0  0  0  0  0  0  0  0  0  0  0
  1  2  1  0  0  0  0
  1  5  2  0  0  0  0
  2  6  2  0  0  0  0
  3  8  2  0  0  0  0
  3 17  1  0  0  0  0
  4  9  1  0  0  0  0
  4 17  2  0  0  0  0
  5 19  1  0  0  0  0
  6 21  1  0  0  0  0
  7 10  2  0  0  0  0
  7 20  1  0  0  0  0
  8 24  1  0  0  0  0
  9 24  2  0  0  0  0
 10 25  1  0  0  0  0
 11 12  2  0  0  0  0
 11 26  1  0  0  0  0
 12 27  1  0  0  0  0
 13 22  1  0  0  0  0
 13 25  2  0  0  0  0
 14 27  2  0  0  0  0
 14 28  1  0  0  0  0
 15 23  1  0  0  0  0
 15 64  2  0  0  0  0
 16 23  2  0  0  0  0
 16 66  1  0  0  0  0
 17 29  1  0  0  0  0
 18 29  1  0  0  0  0
 18 30  2  0  0  0  0
 18 31  1  0  0  0  0
 19 21  2  0  0  0  0
 19 36  1  0  0  0  0
 20 22  2  0  0  0  0
 20 37  1  0  0  0  0
 21 45  1  0  0  0  0
 22 38  1  0  0  0  0
 23 62  1  0  0  0  0
 24 81  1  0  0  0  0
 25 82  1  0  0  0  0
 26 28  2  0  0  0  0
 26 81  1  0  0  0  0
 27 83  1  0  0  0  0
 28 84  1  0  0  0  0
 29 65  2  0  0  0  0
 30 67  1  0  0  0  0
 30 70  1  0  0  0  0
 31 71  1  0  0  0  0
 31 76  2  0  0  0  0
 32 46  1  0  0  0  0
 32 72  1  0  0  0  0
 32 77  2  0  0  0  0
 33 59  1  0  0  0  0
 33 68  1  0  0  0  0
 33 78  2  0  0  0  0
 34 60  1  0  0  0  0
 34 73  1  0  0  0  0
 34 79  2  0  0  0  0
 35 69  1  0  0  0  0
 35 74  1  0  0  0  0
 35 80  2  0  0  0  0
 36 39  1  0  0  0  0
 37 46  1  0  0  0  0
 38 68  1  0  0  0  0
 39 41  1  0  0  0  0
 40 42  1  0  0  0  0
 40 43  1  0  0  0  0
 41 45  1  0  0  0  0
 42 47  1  0  0  0  0
 43 69  1  0  0  0  0
 44 47  1  0  0  0  0
 44 69  1  0  0  0  0
 45 72  1  0  0  0  0
 46 68  1  0  0  0  0
 47 67  1  0  0  0  0
 48 60  1  0  0  0  0
 49 61  1  0  0  0  0
 50 62  1  0  0  0  0
 51 62  1  0  0  0  0
 52 63  1  0  0  0  0
 53 63  1  0  0  0  0
 54 63  1  0  0  0  0
 55 74  1  0  0  0  0
 56 75  1  0  0  0  0
 57 61  1  0  0  0  0
 57 74  1  0  0  0  0
 58 62  1  0  0  0  0
 58 82  1  0  0  0  0
 59 63  1  0  0  0  0
 59 73  1  0  0  0  0
 60 75  1  0  0  0  0
 61 66  1  0  0  0  0
 64 66  1  0  0  0  0
 65 67  1  0  0  0  0
M  CHG  1  75   1
M  ISO  4  35 100  58 101  74 100  82 101
M  END
> <Batch ID>
0056

> <Smiles>
CNC(C)C(=O)NC(C(=O)N1Cc2cc([101O:1][101CH2:1]C(C)(C)c3cnn(C(C)C[100N:0](C)[100C:0](=O)N4CCCC(n5nc(-c6ccc(Oc7ccc(F)cc7F)cc6)c(C(N)=O)c5N)C4)c3)ccc2CC1C(=O)NC1CCCc2ccccc21)C(C)(C)C

> <Shape>
0.208

> <Color>
0.060

> <Negative vol penalty>
0.000

$$$$

  -OEChem-04052317463D

 82 90  0     1  0  0  0  0  0999 V2000
  -26.5212  -35.8081   22.5105 C   0  0  0  0  0  0  0  0  0  0  0  0
  -27.2156  -34.6243   22.7383 C   0  0  0  0  0  0  0  0  0  0  0  0
  -26.3468  -12.1269   21.2547 C   0  0  0  0  0  0  0  0  0  0  0  0
  -25.0564  -13.1408   19.4816 C   0  0  0  0  0  0  0  0  0  0  0  0
  -25.1456  -35.7758   22.2857 C   0  0  0  0  0  0  0  0  0  0  0  0
  -26.5344  -33.4075   22.7425 C   0  0  0  0  0  0  0  0  0  0  0  0
  -28.6432  -28.0012   20.7854 C   0  0  0  0  0  0  0  0  0  0  0  0
  -25.1741  -11.6328   21.8257 C   0  0  0  0  0  0  0  0  0  0  0  0
  -23.8836  -12.6467   20.0526 C   0  0  0  0  0  0  0  0  0  0  0  0
  -29.1914  -26.9093   21.4571 C   0  0  0  0  0  0  0  0  0  0  0  0
  -22.5523   -9.8001   23.5527 C   0  0  0  0  0  0  0  0  0  0  0  0
  -22.5509   -8.4746   23.9871 C   0  0  0  0  0  0  0  0  0  0  0  0
  -27.0252  -25.8482   21.4874 C   0  0  0  0  0  0  0  0  0  0  0  0
  -23.0372   -7.7371   21.7384 C   0  0  0  0  0  0  0  0  0  0  0  0
  -27.4650  -22.3948   20.0356 C   0  0  0  0  0  0  0  0  0  0  0  0
  -26.2880  -12.8809   20.0826 C   0  0  0  0  0  0  0  0  0  0  0  0
  -28.3130  -12.7559   18.5362 C   0  0  0  0  0  0  0  0  0  0  0  0
  -24.4489  -34.5572   22.2775 C   0  0  0  0  0  0  0  0  0  0  0  0
  -27.2774  -28.0296   20.4688 C   0  0  0  0  0  0  0  0  0  0  0  0
  -25.1480  -33.3591   22.5187 C   0  0  0  0  0  0  0  0  0  0  0  0
  -26.4627  -26.9404   20.8094 C   0  0  0  0  0  0  0  0  0  0  0  0
  -23.9425  -11.8927   21.2247 C   0  0  0  0  0  0  0  0  0  0  0  0
  -28.3818  -25.8339   21.8108 C   0  0  0  0  0  0  0  0  0  0  0  0
  -22.7961  -10.0941   22.2111 C   0  0  0  0  0  0  0  0  0  0  0  0
  -22.7934   -7.4431   23.0800 C   0  0  0  0  0  0  0  0  0  0  0  0
  -23.0386   -9.0626   21.3040 C   0  0  0  0  0  0  0  0  0  0  0  0
  -27.4991  -13.3921   19.4926 C   0  0  0  0  0  0  0  0  0  0  0  0
  -28.3621  -23.1229   20.7760 C   0  0  0  0  0  0  0  0  0  0  0  0
  -29.3313  -13.6479   18.3041 C   0  0  0  0  0  0  0  0  0  0  0  0
  -28.1621  -11.4734   17.9133 C   0  0  0  0  0  0  0  0  0  0  0  0
  -24.8315  -29.9019   21.2534 C   0  0  0  0  0  0  0  0  0  0  0  0
  -23.2491  -28.0861   19.0806 C   0  0  0  0  0  0  0  0  0  0  0  0
  -23.0239  -25.1304   17.3894 C   0  0  0  0  0  0  0  0  0  0  0  0
  -29.7532  -19.5932   18.8757 C   0  0  0  0  0  0  0  0  0  0  0  0
  -22.9542  -34.5769   22.0769 C   0  0  0  0  0  0  0  0  0  0  0  0
  -26.7069  -29.2030   19.7203 C   0  0  0  0  0  0  0  0  0  0  0  0
  -24.9945  -26.9131   20.4746 C   0  0  0  0  0  0  0  0  0  0  0  0
  -22.3687  -33.2115   21.7257 C   0  0  0  0  0  0  0  0  0  0  0  0
  -31.8083  -17.1411   20.4379 C   0  0  0  0  0  0  0  0  0  0  0  0
  -22.9268  -32.1368   22.6532 C   0  0  0  0  0  0  0  0  0  0  0  0
  -31.0104  -15.8448   20.2865 C   0  0  0  0  0  0  0  0  0  0  0  0
  -30.8953  -18.3406   20.6821 C   0  0  0  0  0  0  0  0  0  0  0  0
  -29.0251  -17.2196   19.5332 C   0  0  0  0  0  0  0  0  0  0  0  0
  -24.4485  -32.0172   22.5063 C   0  0  1  0  0  0  0  0  0  0  0  0
  -25.1999  -29.3533   19.9040 C   0  0  1  0  0  0  0  0  0  0  0  0
  -29.8990  -15.9907   19.2296 C   0  0  2  0  0  0  0  0  0  0  0  0
  -28.9990  -22.4646   23.1221 C   0  0  0  0  0  0  0  0  0  0  0  0
  -22.1684  -23.4605   15.7230 C   0  0  0  0  0  0  0  0  0  0  0  0
  -21.1621  -27.5441   21.2395 C   0  0  0  0  0  0  0  0  0  0  0  0
  -20.3229  -25.6370   19.8515 C   0  0  0  0  0  0  0  0  0  0  0  0
  -20.2210  -27.9649   18.9610 C   0  0  0  0  0  0  0  0  0  0  0  0
  -26.1522  -21.0109   17.8268 C   0  0  0  0  0  0  0  0  0  0  0  0
  -27.2489  -22.8222   16.5338 C   0  0  0  0  0  0  0  0  0  0  0  0
  -24.8389  -26.1338   15.2780 C   0  0  0  0  0  0  0  0  0  0  0  0
  -28.5205  -20.7140   17.0363 C   0  0  0  0  0  0  0  0  0  0  0  0
  -28.3070  -23.4959   22.2398 C   0  0  1  0  0  0  0  0  0  1  0  0
  -22.4587  -26.8010   19.1341 C   0  0  1  0  0  0  0  0  0  0  0  0
  -22.8095  -24.8257   15.9178 C   0  0  2  0  0  0  0  0  0  0  0  0
  -21.0684  -26.9878   19.8047 C   0  0  0  0  0  0  0  0  0  0  0  0
  -27.5020  -21.7375   17.6083 C   0  0  0  0  0  0  0  0  0  0  0  0
  -27.9606  -14.5952   19.8441 N   0  0  0  0  0  0  0  0  0  0  0  0
  -29.4070  -23.5080   19.9828 N   0  0  0  0  0  0  0  0  0  0  0  0
  -29.1857  -23.0388   18.7597 N   0  0  0  0  0  0  0  0  0  0  0  0
  -28.0207  -22.3717   18.7935 N   0  0  0  0  0  0  0  0  0  0  0  0
  -29.0755  -14.7222   19.1046 N   0  0  0  0  0  0  0  0  0  0  0  0
  -24.4823  -28.0865   19.7477 N   0  0  0  0  0  0  0  0  0  0  0  0
  -29.8647  -18.4228   19.6443 N   0  0  0  0  0  0  0  0  0  0  0  0
  -30.4116  -13.6104   17.4954 N   0  0  0  0  0  0  0  0  0  0  0  0
  -27.0586  -10.6848   18.2665 N   0  0  0  0  0  0  0  0  0  0  0  0
  -24.7841  -31.2820   21.3058 N   0  0  0  0  0  0  0  0  0  0  0  0
  -22.3994  -26.3009   17.7649 N   0  0  0  0  0  0  0  0  0  0  0  0
  -28.7545  -19.5856   17.9096 N   0  0  0  0  0  0  0  0  0  0  0  0
  -24.1102  -24.8421   15.1906 N   0  3  0  0  0  0  0  0  0  0  0  0
  -28.9903  -11.0326   17.0807 O   0  0  0  0  0  0  0  0  0  0  0  0
  -24.6054  -29.1303   22.1781 O   0  0  0  0  0  0  0  0  0  0  0  0
  -22.7925  -29.0516   18.4635 O   0  0  0  0  0  0  0  0  0  0  0  0
  -23.6768  -24.4009   18.1325 O   0  0  0  0  0  0  0  0  0  0  0  0
  -30.4926  -20.5704   19.0348 O   0  0  0  0  0  0  0  0  0  0  0  0
  -22.7979  -11.4105   21.7815 O   0  0  0  0  0  0  0  0  0  0  0  0
  -28.9141  -24.7672   22.4670 O   0  0  0  0  0  0  0  0  0  1  0  0
  -22.7936   -6.1704   23.4976 F   0  0  0  0  0  0  0  0  0  0  0  0
  -23.2746   -9.3389   20.0141 F   0  0  0  0  0  0  0  0  0  0  0  0
  1  2  1  0  0  0  0
  1  5  2  0  0  0  0
  2  6  2  0  0  0  0
  3  8  2  0  0  0  0
  3 16  1  0  0  0  0
  4  9  1  0  0  0  0
  4 16  2  0  0  0  0
  5 18  1  0  0  0  0
  6 20  1  0  0  0  0
  7 10  2  0  0  0  0
  7 19  1  0  0  0  0
  8 22  1  0  0  0  0
  9 22  2  0  0  0  0
 10 23  1  0  0  0  0
 11 12  2  0  0  0  0
 11 24  1  0  0  0  0
 12 25  1  0  0  0  0
 13 21  1  0  0  0  0
 13 23  2  0  0  0  0
 14 25  2  0  0  0  0
 14 26  1  0  0  0  0
 15 28  2  0  0  0  0
 15 64  1  0  0  0  0
 16 27  1  0  0  0  0
 17 27  1  0  0  0  0
 17 29  2  0  0  0  0
 17 30  1  0  0  0  0
 18 20  2  0  0  0  0
 18 35  1  0  0  0  0
 19 21  2  0  0  0  0
 19 36  1  0  0  0  0
 20 44  1  0  0  0  0
 21 37  1  0  0  0  0
 22 79  1  0  0  0  0
 23 80  1  0  0  0  0
 24 26  2  0  0  0  0
 24 79  1  0  0  0  0
 25 81  1  0  0  0  0
 26 82  1  0  0  0  0
 27 61  2  0  0  0  0
 28 56  1  0  0  0  0
 28 62  1  0  0  0  0
 29 65  1  0  0  0  0
 29 68  1  0  0  0  0
 30 69  1  0  0  0  0
 30 74  2  0  0  0  0
 31 45  1  0  0  0  0
 31 70  1  0  0  0  0
 31 75  2  0  0  0  0
 32 57  1  0  0  0  0
 32 66  1  0  0  0  0
 32 76  2  0  0  0  0
 33 58  1  0  0  0  0
 33 71  1  0  0  0  0
 33 77  2  0  0  0  0
 34 67  1  0  0  0  0
 34 72  1  0  0  0  0
 34 78  2  0  0  0  0
 35 38  1  0  0  0  0
 36 45  1  0  0  0  0
 37 66  1  0  0  0  0
 38 40  1  0  0  0  0
 39 41  1  0  0  0  0
 39 42  1  0  0  0  0
 40 44  1  0  0  0  0
 41 46  1  0  0  0  0
 42 67  1  0  0  0  0
 43 46  1  0  0  0  0
 43 67  1  0  0  0  0
 44 70  1  0  0  0  0
 45 66  1  0  0  0  0
 46 65  1  0  0  0  0
 47 56  1  0  0  0  0
 48 58  1  0  0  0  0
 49 59  1  0  0  0  0
 50 59  1  0  0  0  0
 51 59  1  0  0  0  0
 52 60  1  0  0  0  0
 53 60  1  0  0  0  0
 54 73  1  0  0  0  0
 55 60  1  0  0  0  0
 55 72  1  0  0  0  0
 56 80  1  0  0  0  0
 57 59  1  0  0  0  0
 57 71  1  0  0  0  0
 58 73  1  0  0  0  0
 60 64  1  0  0  0  0
 61 65  1  0  0  0  0
 62 63  2  0  0  0  0
 63 64  1  0  0  0  0
M  CHG  1  73   1
M  ISO  4  34 100  56 101  72 100  80 101
M  END
> <Batch ID>
0056

> <Smiles>
CNC(C)C(=O)NC(C(=O)N1Cc2cc([101O:1][101CH:1](C)c3cn(C(C)(C)C[100NH:0][100C:0](=O)N4CCCC(n5nc(-c6ccc(Oc7ccc(F)cc7F)cc6)c(C(N)=O)c5N)C4)nn3)ccc2CC1C(=O)NC1CCCc2ccccc21)C(C)(C)C

> <Shape>
0.274

> <Color>
0.064

> <Negative vol penalty>
0.000

$$$$

  -OEChem-04052317463D

 81 89  0     1  0  0  0  0  0999 V2000
  -22.4654  -10.8931   19.5348 C   0  0  0  0  0  0  0  0  0  0  0  0
  -21.9156  -12.0984   19.9594 C   0  0  0  0  0  0  0  0  0  0  0  0
  -29.6884  -28.4031   20.5973 C   0  0  0  0  0  0  0  0  0  0  0  0
  -28.5776  -26.8656   22.0938 C   0  0  0  0  0  0  0  0  0  0  0  0
  -23.8372  -10.6739   19.6528 C   0  0  0  0  0  0  0  0  0  0  0  0
  -22.7374  -13.0850   20.5035 C   0  0  0  0  0  0  0  0  0  0  0  0
  -22.0888  -19.1473   19.9262 C   0  0  0  0  0  0  0  0  0  0  0  0
  -30.9153  -28.0816   21.1777 C   0  0  0  0  0  0  0  0  0  0  0  0
  -29.8046  -26.5441   22.6742 C   0  0  0  0  0  0  0  0  0  0  0  0
  -21.5373  -20.1156   20.7641 C   0  0  0  0  0  0  0  0  0  0  0  0
  -32.4726  -24.6037   21.9414 C   0  0  0  0  0  0  0  0  0  0  0  0
  -32.7466  -23.2551   22.1691 C   0  0  0  0  0  0  0  0  0  0  0  0
  -23.7354  -20.6156   21.6230 C   0  0  0  0  0  0  0  0  0  0  0  0
  -32.9621  -23.6983   24.5343 C   0  0  0  0  0  0  0  0  0  0  0  0
  -21.7289  -23.1952   25.4537 C   0  0  0  0  0  0  0  0  0  0  0  0
  -28.5195  -27.7951   21.0553 C   0  0  0  0  0  0  0  0  0  0  0  0
  -26.8798  -27.9651   19.1085 C   0  0  0  0  0  0  0  0  0  0  0  0
  -24.6775  -11.6620   20.1897 C   0  0  0  0  0  0  0  0  0  0  0  0
  -23.4687  -18.8978   19.9384 C   0  0  0  0  0  0  0  0  0  0  0  0
  -24.1216  -12.8783   20.6301 C   0  0  0  0  0  0  0  0  0  0  0  0
  -24.3022  -19.6453   20.7825 C   0  0  0  0  0  0  0  0  0  0  0  0
  -30.9734  -27.1521   22.2161 C   0  0  0  0  0  0  0  0  0  0  0  0
  -22.3603  -20.8479   21.6147 C   0  0  0  0  0  0  0  0  0  0  0  0
  -32.4435  -25.4996   23.0102 C   0  0  0  0  0  0  0  0  0  0  0  0
  -32.9913  -22.8024   23.4656 C   0  0  0  0  0  0  0  0  0  0  0  0
  -32.6882  -25.0469   24.3066 C   0  0  0  0  0  0  0  0  0  0  0  0
  -27.2517  -28.1272   20.4566 C   0  0  0  0  0  0  0  0  0  0  0  0
  -21.0047  -24.1404   26.1512 C   0  0  0  0  0  0  0  0  0  0  0  0
  -21.9467  -23.4746   24.1200 C   0  0  0  0  0  0  0  0  0  0  0  0
  -25.5872  -28.4260   19.0512 C   0  0  0  0  0  0  0  0  0  0  0  0
  -20.8043  -25.4323   24.2916 C   0  0  0  0  0  0  0  0  0  0  0  0
  -27.6352  -27.4445   18.0067 C   0  0  0  0  0  0  0  0  0  0  0  0
  -25.2877  -16.3844   20.6293 C   0  0  0  0  0  0  0  0  0  0  0  0
  -27.6723  -18.3085   19.5644 C   0  0  0  0  0  0  0  0  0  0  0  0
  -28.8004  -21.4782   18.9922 C   0  0  0  0  0  0  0  0  0  0  0  0
  -21.2465  -28.9129   23.1466 C   0  0  0  0  0  0  0  0  0  0  0  0
  -26.1476  -11.3610   20.3409 C   0  0  0  0  0  0  0  0  0  0  0  0
  -24.0513  -17.8685   19.0092 C   0  0  0  0  0  0  0  0  0  0  0  0
  -25.7924  -19.4300   20.8189 C   0  0  0  0  0  0  0  0  0  0  0  0
  -27.0019  -12.6027   20.5827 C   0  0  0  0  0  0  0  0  0  0  0  0
  -22.6215  -31.5302   21.1629 C   0  0  0  0  0  0  0  0  0  0  0  0
  -26.3655  -13.4893   21.6485 C   0  0  0  0  0  0  0  0  0  0  0  0
  -23.9306  -30.9403   20.6353 C   0  0  0  0  0  0  0  0  0  0  0  0
  -22.3295  -31.0699   22.5893 C   0  0  0  0  0  0  0  0  0  0  0  0
  -23.6532  -29.0180   22.2560 C   0  0  0  0  0  0  0  0  0  0  0  0
  -24.9836  -13.9824   21.2027 C   0  0  1  0  0  0  0  0  0  0  0  0
  -25.4043  -17.3401   19.4757 C   0  0  1  0  0  0  0  0  0  0  0  0
  -23.9623  -29.4090   20.8007 C   0  0  2  0  0  0  0  0  0  0  0  0
  -20.7191  -23.9260   27.5998 C   0  0  0  0  0  0  0  0  0  0  0  0
  -19.3255  -26.3939   22.4888 C   0  0  0  0  0  0  0  0  0  0  0  0
  -30.3306  -23.2941   18.1810 C   0  0  0  0  0  0  0  0  0  0  0  0
  -29.1116  -17.7739   22.2012 C   0  0  0  0  0  0  0  0  0  0  0  0
  -30.5815  -19.7421   21.7175 C   0  0  0  0  0  0  0  0  0  0  0  0
  -30.5922  -17.7734   20.1856 C   0  0  0  0  0  0  0  0  0  0  0  0
  -27.5376  -21.5063   16.3157 C   0  0  0  0  0  0  0  0  0  0  0  0
  -22.7261  -22.5062   23.2797 C   0  0  0  0  0  0  0  0  0  1  0  0
  -20.2942  -26.6763   23.6465 C   0  0  2  0  0  0  0  0  0  0  0  0
  -28.5934  -19.3214   20.2005 C   0  0  1  0  0  0  0  0  0  0  0  0
  -29.4682  -22.1066   17.7824 C   0  0  2  0  0  0  0  0  0  0  0  0
  -29.6914  -18.6556   21.0771 C   0  0  0  0  0  0  0  0  0  0  0  0
  -26.2745  -28.6503   21.2018 N   0  0  0  0  0  0  0  0  0  0  0  0
  -20.5254  -25.2746   25.5996 N   0  0  0  0  0  0  0  0  0  0  0  0
  -21.4971  -24.5876   23.5041 N   0  0  0  0  0  0  0  0  0  0  0  0
  -25.2757  -28.8210   20.3189 N   0  0  0  0  0  0  0  0  0  0  0  0
  -26.3137  -18.4080   19.8962 N   0  0  0  0  0  0  0  0  0  0  0  0
  -22.3732  -29.6084   22.6778 N   0  0  0  0  0  0  0  0  0  0  0  0
  -24.6981  -28.5279   18.0405 N   0  0  0  0  0  0  0  0  0  0  0  0
  -27.5721  -26.0692   17.7439 N   0  0  0  0  0  0  0  0  0  0  0  0
  -25.1160  -15.0661   20.2526 N   0  0  0  0  0  0  0  0  0  0  0  0
  -29.1137  -20.1407   19.1112 N   0  0  0  0  0  0  0  0  0  0  0  0
  -21.3698  -27.5296   23.1929 N   0  0  0  0  0  0  0  0  0  0  0  0
  -28.4415  -22.5768   16.8099 N   0  3  0  0  0  0  0  0  0  0  0  0
  -28.3579  -28.1745   17.2869 O   0  0  0  0  0  0  0  0  0  0  0  0
  -25.3505  -16.8113   21.7763 O   0  0  0  0  0  0  0  0  0  0  0  0
  -28.1399  -17.4647   18.7957 O   0  0  0  0  0  0  0  0  0  0  0  0
  -28.0764  -22.1114   19.7573 O   0  0  0  0  0  0  0  0  0  0  0  0
  -20.2058  -29.4821   23.4929 O   0  0  0  0  0  0  0  0  0  0  0  0
  -32.1705  -26.8380   22.7825 O   0  0  0  0  0  0  0  0  0  0  0  0
  -21.8245  -21.7932   22.4340 O   0  0  0  0  0  0  0  0  0  1  0  0
  -33.2528  -21.5070   23.6843 F   0  0  0  0  0  0  0  0  0  0  0  0
  -32.6603  -25.9027   25.3375 F   0  0  0  0  0  0  0  0  0  0  0  0
  1  2  1  0  0  0  0
  1  5  2  0  0  0  0
  2  6  2  0  0  0  0
  3  8  2  0  0  0  0
  3 16  1  0  0  0  0
  4  9  1  0  0  0  0
  4 16  2  0  0  0  0
  5 18  1  0  0  0  0
  6 20  1  0  0  0  0
  7 10  2  0  0  0  0
  7 19  1  0  0  0  0
  8 22  1  0  0  0  0
  9 22  2  0  0  0  0
 10 23  1  0  0  0  0
 11 12  2  0  0  0  0
 11 24  1  0  0  0  0
 12 25  1  0  0  0  0
 13 21  1  0  0  0  0
 13 23  2  0  0  0  0
 14 25  2  0  0  0  0
 14 26  1  0  0  0  0
 15 28  2  0  0  0  0
 15 29  1  0  0  0  0
 16 27  1  0  0  0  0
 17 27  1  0  0  0  0
 17 30  2  0  0  0  0
 17 32  1  0  0  0  0
 18 20  2  0  0  0  0
 18 37  1  0  0  0  0
 19 21  2  0  0  0  0
 19 38  1  0  0  0  0
 20 46  1  0  0  0  0
 21 39  1  0  0  0  0
 22 78  1  0  0  0  0
 23 79  1  0  0  0  0
 24 26  2  0  0  0  0
 24 78  1  0  0  0  0
 25 80  1  0  0  0  0
 26 81  1  0  0  0  0
 27 61  2  0  0  0  0
 28 49  1  0  0  0  0
 28 62  1  0  0  0  0
 29 56  1  0  0  0  0
 29 63  2  0  0  0  0
 30 64  1  0  0  0  0
 30 67  1  0  0  0  0
 31 57  1  0  0  0  0
 31 62  2  0  0  0  0
 31 63  1  0  0  0  0
 32 68  1  0  0  0  0
 32 73  2  0  0  0  0
 33 47  1  0  0  0  0
 33 69  1  0  0  0  0
 33 74  2  0  0  0  0
 34 58  1  0  0  0  0
 34 65  1  0  0  0  0
 34 75  2  0  0  0  0
 35 59  1  0  0  0  0
 35 70  1  0  0  0  0
 35 76  2  0  0  0  0
 36 66  1  0  0  0  0
 36 71  1  0  0  0  0
 36 77  2  0  0  0  0
 37 40  1  0  0  0  0
 38 47  1  0  0  0  0
 39 65  1  0  0  0  0
 40 42  1  0  0  0  0
 41 43  1  0  0  0  0
 41 44  1  0  0  0  0
 42 46  1  0  0  0  0
 43 48  1  0  0  0  0
 44 66  1  0  0  0  0
 45 48  1  0  0  0  0
 45 66  1  0  0  0  0
 46 69  1  0  0  0  0
 47 65  1  0  0  0  0
 48 64  1  0  0  0  0
 50 57  1  0  0  0  0
 51 59  1  0  0  0  0
 52 60  1  0  0  0  0
 53 60  1  0  0  0  0
 54 60  1  0  0  0  0
 55 72  1  0  0  0  0
 56 79  1  0  0  0  0
 57 71  1  0  0  0  0
 58 60  1  0  0  0  0
 58 70  1  0  0  0  0
 59 72  1  0  0  0  0
 61 64  1  0  0  0  0
M  CHG  1  72   1
M  ISO  4  36 100  56 101  71 100  79 101
M  END
> <Batch ID>
0056

> <Smiles>
CNC(C)C(=O)NC(C(=O)N1Cc2cc([101O:1][101CH2:1]c3cc(C)nc(C(C)[100NH:0][100C:0](=O)N4CCCC(n5nc(-c6ccc(Oc7ccc(F)cc7F)cc6)c(C(N)=O)c5N)C4)n3)ccc2CC1C(=O)NC1CCCc2ccccc21)C(C)(C)C

> <Shape>
0.226

> <Color>
0.055

> <Negative vol penalty>
0.000

$$$$

  -OEChem-04052317462D

  0  0  0     0  0  0  0  0  0999 V2000
M  END
$$$$

  -OEChem-04052317463D

 85 93  0     1  0  0  0  0  0999 V2000
  -22.2321  -11.0558   19.3433 C   0  0  0  0  0  0  0  0  0  0  0  0
  -21.7363  -12.0980   20.1201 C   0  0  0  0  0  0  0  0  0  0  0  0
  -19.3594  -28.5925   22.2357 C   0  0  0  0  0  0  0  0  0  0  0  0
  -20.5236  -26.7073   23.1988 C   0  0  0  0  0  0  0  0  0  0  0  0
  -23.6089  -10.8737   19.2199 C   0  0  0  0  0  0  0  0  0  0  0  0
  -22.6171  -12.9581   20.7749 C   0  0  0  0  0  0  0  0  0  0  0  0
  -23.2451  -19.7855   22.8506 C   0  0  0  0  0  0  0  0  0  0  0  0
  -18.2454  -27.7859   22.0033 C   0  0  0  0  0  0  0  0  0  0  0  0
  -19.4096  -25.9007   22.9665 C   0  0  0  0  0  0  0  0  0  0  0  0
  -23.5265  -20.5446   23.9856 C   0  0  0  0  0  0  0  0  0  0  0  0
  -18.0124  -24.2752   20.3518 C   0  0  0  0  0  0  0  0  0  0  0  0
  -18.2304  -23.0116   19.8027 C   0  0  0  0  0  0  0  0  0  0  0  0
  -25.8856  -20.1819   23.6359 C   0  0  0  0  0  0  0  0  0  0  0  0
  -17.2232  -21.9926   21.7480 C   0  0  0  0  0  0  0  0  0  0  0  0
  -20.4985  -28.0532   22.8333 C   0  0  0  0  0  0  0  0  0  0  0  0
  -21.9248  -29.6446   24.2265 C   0  0  0  0  0  0  0  0  0  0  0  0
  -24.5071  -11.7379   19.8657 C   0  0  0  0  0  0  0  0  0  0  0  0
  -24.2831  -19.2088   22.1046 C   0  0  0  0  0  0  0  0  0  0  0  0
  -24.0072  -12.7866   20.6612 C   0  0  0  0  0  0  0  0  0  0  0  0
  -25.6149  -19.4180   22.4904 C   0  0  0  0  0  0  0  0  0  0  0  0
  -18.2705  -26.4400   22.3687 C   0  0  0  0  0  0  0  0  0  0  0  0
  -24.8468  -20.7405   24.3801 C   0  0  0  0  0  0  0  0  0  0  0  0
  -17.3999  -24.3975   21.5990 C   0  0  0  0  0  0  0  0  0  0  0  0
  -17.8358  -21.8703   20.5008 C   0  0  0  0  0  0  0  0  0  0  0  0
  -17.0053  -23.2562   22.2971 C   0  0  0  0  0  0  0  0  0  0  0  0
  -21.6498  -28.8858   23.0731 C   0  0  0  0  0  0  0  0  0  0  0  0
  -25.8007  -25.0420   22.9567 C   0  0  0  0  0  0  0  0  0  0  0  0
  -25.7397  -24.9679   24.3308 C   0  0  0  0  0  0  0  0  0  0  0  0
  -26.9695  -26.8895   24.4890 C   0  0  0  0  0  0  0  0  0  0  0  0
  -27.0310  -26.9631   23.1148 C   0  0  0  0  0  0  0  0  0  0  0  0
  -23.1282  -30.2505   23.9600 C   0  0  0  0  0  0  0  0  0  0  0  0
  -21.1608  -29.7887   25.4311 C   0  0  0  0  0  0  0  0  0  0  0  0
  -25.1302  -16.2357   21.3651 C   0  0  0  0  0  0  0  0  0  0  0  0
  -27.3283  -17.7380   19.5121 C   0  0  0  0  0  0  0  0  0  0  0  0
  -29.1845  -20.5384   18.9127 C   0  0  0  0  0  0  0  0  0  0  0  0
  -27.4457  -28.5471   19.9605 C   0  0  0  0  0  0  0  0  0  0  0  0
  -25.9866  -11.4727   19.7410 C   0  0  0  0  0  0  0  0  0  0  0  0
  -23.9641  -18.4149   20.8676 C   0  0  0  0  0  0  0  0  0  0  0  0
  -26.7664  -18.8374   21.7123 C   0  0  0  0  0  0  0  0  0  0  0  0
  -26.8550  -12.6547   20.1639 C   0  0  0  0  0  0  0  0  0  0  0  0
  -25.8106  -31.8460   20.3414 C   0  0  0  0  0  0  0  0  0  0  0  0
  -26.3660  -13.2291   21.4896 C   0  0  0  0  0  0  0  0  0  0  0  0
  -24.5445  -31.5019   21.1241 C   0  0  0  0  0  0  0  0  0  0  0  0
  -26.2861  -30.6740   19.4882 C   0  0  0  0  0  0  0  0  0  0  0  0
  -25.2177  -29.0689   21.0361 C   0  0  0  0  0  0  0  0  0  0  0  0
  -24.9309  -13.7556   21.3669 C   0  0  1  0  0  0  0  0  0  0  0  0
  -25.0757  -17.4460   20.4763 C   0  0  1  0  0  0  0  0  0  0  0  0
  -24.7384  -30.2131   21.9419 C   0  0  2  0  0  0  0  0  0  0  0  0
  -25.1516  -24.0152   22.0931 C   0  0  0  0  0  0  0  0  0  0  0  0
  -26.8606  -28.1413   26.6587 C   0  0  0  0  0  0  0  0  0  0  0  0
  -30.9197  -21.4540   17.3479 C   0  0  0  0  0  0  0  0  0  0  0  0
  -26.7480  -22.8683   26.5709 C   0  0  0  0  0  0  0  0  0  0  0  0
  -29.4631  -16.0559   20.8989 C   0  0  0  0  0  0  0  0  0  0  0  0
  -31.1871  -17.6432   20.0178 C   0  0  0  0  0  0  0  0  0  0  0  0
  -29.7842  -16.3228   18.4331 C   0  0  0  0  0  0  0  0  0  0  0  0
  -29.0581  -26.8487   20.7320 C   0  0  0  0  0  0  0  0  0  0  0  0
  -27.3998  -22.7277   18.0292 C   0  0  0  0  0  0  0  0  0  0  0  0
  -27.6184  -27.9166   25.3523 C   0  0  0  0  0  0  0  0  0  0  0  0
  -25.0124  -23.8420   25.0273 C   0  0  0  0  0  0  0  0  0  0  0  0
  -27.7499  -28.0733   22.4274 C   0  0  0  0  0  0  0  0  0  0  0  0
  -28.7394  -18.2341   19.7167 C   0  0  1  0  0  0  0  0  0  0  0  0
  -29.4326  -21.3293   17.6409 C   0  0  2  0  0  0  0  0  0  0  0  0
  -25.9282  -22.6454   25.3063 C   0  0  2  0  0  0  0  0  0  1  0  0
  -29.7719  -17.0735   19.7826 C   0  0  0  0  0  0  0  0  0  0  0  0
  -22.6019  -28.9979   22.1430 N   0  0  0  0  0  0  0  0  0  0  0  0
  -26.4475  -26.0409   22.3240 N   0  0  0  0  0  0  0  0  0  0  0  0
  -26.3230  -25.8904   25.1217 N   0  0  0  0  0  0  0  0  0  0  0  0
  -23.4868  -29.8343   22.7117 N   0  0  0  0  0  0  0  0  0  0  0  0
  -26.4029  -18.0635   20.5138 N   0  0  0  0  0  0  0  0  0  0  0  0
  -26.4205  -29.4519   20.2816 N   0  0  0  0  0  0  0  0  0  0  0  0
  -23.9041  -31.0935   24.6740 N   0  0  0  0  0  0  0  0  0  0  0  0
  -19.9474  -29.0958   25.5397 N   0  0  0  0  0  0  0  0  0  0  0  0
  -24.9193  -15.0414   20.7028 N   0  0  0  0  0  0  0  0  0  0  0  0
  -28.9916  -19.1983   18.6513 N   0  0  0  0  0  0  0  0  0  0  0  0
  -27.9852  -27.7920   21.0129 N   0  0  0  0  0  0  0  0  0  0  0  0
  -28.8612  -22.7002   17.7637 N   0  3  0  0  0  0  0  0  0  0  0  0
  -21.5348  -30.5236   26.3765 O   0  0  0  0  0  0  0  0  0  0  0  0
  -25.3489  -16.3750   22.5627 O   0  0  0  0  0  0  0  0  0  0  0  0
  -27.0556  -17.0919   18.4973 O   0  0  0  0  0  0  0  0  0  0  0  0
  -29.1676  -21.0568   20.0269 O   0  0  0  0  0  0  0  0  0  0  0  0
  -27.8620  -28.4282   18.8010 O   0  0  0  0  0  0  0  0  0  0  0  0
  -17.1835  -25.6527   22.1424 O   0  0  0  0  0  0  0  0  0  0  0  0
  -25.1242  -21.4805   25.4879 O   0  0  0  0  0  0  0  0  0  1  0  0
  -18.0437  -20.6570   19.9727 F   0  0  0  0  0  0  0  0  0  0  0  0
  -16.4153  -23.3674   23.4952 F   0  0  0  0  0  0  0  0  0  0  0  0
  1  2  1  0  0  0  0
  1  5  2  0  0  0  0
  2  6  2  0  0  0  0
  3  8  2  0  0  0  0
  3 15  1  0  0  0  0
  4  9  1  0  0  0  0
  4 15  2  0  0  0  0
  5 17  1  0  0  0  0
  6 19  1  0  0  0  0
  7 10  2  0  0  0  0
  7 18  1  0  0  0  0
  8 21  1  0  0  0  0
  9 21  2  0  0  0  0
 10 22  1  0  0  0  0
 11 12  2  0  0  0  0
 11 23  1  0  0  0  0
 12 24  1  0  0  0  0
 13 20  1  0  0  0  0
 13 22  2  0  0  0  0
 14 24  2  0  0  0  0
 14 25  1  0  0  0  0
 15 26  1  0  0  0  0
 16 26  1  0  0  0  0
 16 31  2  0  0  0  0
 16 32  1  0  0  0  0
 17 19  2  0  0  0  0
 17 37  1  0  0  0  0
 18 20  2  0  0  0  0
 18 38  1  0  0  0  0
 19 46  1  0  0  0  0
 20 39  1  0  0  0  0
 21 82  1  0  0  0  0
 22 83  1  0  0  0  0
 23 25  2  0  0  0  0
 23 82  1  0  0  0  0
 24 84  1  0  0  0  0
 25 85  1  0  0  0  0
 26 65  2  0  0  0  0
 27 28  1  0  0  0  0
 27 49  1  0  0  0  0
 27 66  2  0  0  0  0
 28 59  1  0  0  0  0
 28 67  2  0  0  0  0
 29 30  2  0  0  0  0
 29 58  1  0  0  0  0
 29 67  1  0  0  0  0
 30 60  1  0  0  0  0
 30 66  1  0  0  0  0
 31 68  1  0  0  0  0
 31 71  1  0  0  0  0
 32 72  1  0  0  0  0
 32 77  2  0  0  0  0
 33 47  1  0  0  0  0
 33 73  1  0  0  0  0
 33 78  2  0  0  0  0
 34 61  1  0  0  0  0
 34 69  1  0  0  0  0
 34 79  2  0  0  0  0
 35 62  1  0  0  0  0
 35 74  1  0  0  0  0
 35 80  2  0  0  0  0
 36 70  1  0  0  0  0
 36 75  1  0  0  0  0
 36 81  2  0  0  0  0
 37 40  1  0  0  0  0
 38 47  1  0  0  0  0
 39 69  1  0  0  0  0
 40 42  1  0  0  0  0
 41 43  1  0  0  0  0
 41 44  1  0  0  0  0
 42 46  1  0  0  0  0
 43 48  1  0  0  0  0
 44 70  1  0  0  0  0
 45 48  1  0  0  0  0
 45 70  1  0  0  0  0
 46 73  1  0  0  0  0
 47 69  1  0  0  0  0
 48 68  1  0  0  0  0
 50 58  1  0  0  0  0
 51 62  1  0  0  0  0
 52 63  1  0  0  0  0
 53 64  1  0  0  0  0
 54 64  1  0  0  0  0
 55 64  1  0  0  0  0
 56 75  1  0  0  0  0
 57 76  1  0  0  0  0
 59 63  1  0  0  0  0
 60 75  1  0  0  0  0
 61 64  1  0  0  0  0
 61 74  1  0  0  0  0
 62 76  1  0  0  0  0
 63 83  1  0  0  0  0
 65 68  1  0  0  0  0
M  CHG  1  76   1
M  ISO  4  36 100  63 101  75 100  83 101
M  END
> <Batch ID>
0056

> <Smiles>
CCc1nc(C[101CH:1](C)[101O:1]c2ccc3c(c2)CN(C(=O)C(NC(=O)C(C)NC)C(C)(C)C)C(C(=O)NC2CCCc4ccccc42)C3)c(C)nc1C[100N:0](C)[100C:0](=O)N1CCCC(n2nc(-c3ccc(Oc4ccc(F)cc4F)cc3)c(C(N)=O)c2N)C1

> <Shape>
0.217

> <Color>
0.075

> <Negative vol penalty>
0.000

$$$$

  -OEChem-04052317463D

 83 91  0     1  0  0  0  0  0999 V2000
  -17.6384  -29.9193   22.9462 C   0  0  0  0  0  0  0  0  0  0  0  0
  -18.9650  -30.0116   22.5374 C   0  0  0  0  0  0  0  0  0  0  0  0
  -26.2972  -13.4284   21.8092 C   0  0  0  0  0  0  0  0  0  0  0  0
  -26.0448  -14.3249   19.5799 C   0  0  0  0  0  0  0  0  0  0  0  0
  -17.1986  -28.7876   23.6316 C   0  0  0  0  0  0  0  0  0  0  0  0
  -19.8528  -28.9727   22.8148 C   0  0  0  0  0  0  0  0  0  0  0  0
  -24.4976  -27.0647   19.3090 C   0  0  0  0  0  0  0  0  0  0  0  0
  -25.1127  -12.7083   21.6538 C   0  0  0  0  0  0  0  0  0  0  0  0
  -24.8604  -13.6047   19.4244 C   0  0  0  0  0  0  0  0  0  0  0  0
  -25.8673  -27.3226   19.3447 C   0  0  0  0  0  0  0  0  0  0  0  0
  -24.1116   -9.8579   20.1353 C   0  0  0  0  0  0  0  0  0  0  0  0
  -24.1052   -8.5245   20.5446 C   0  0  0  0  0  0  0  0  0  0  0  0
  -30.3640  -23.6281   17.4719 C   0  0  0  0  0  0  0  0  0  0  0  0
  -26.2119  -25.2871   20.5926 C   0  0  0  0  0  0  0  0  0  0  0  0
  -22.3386   -9.0160   22.1178 C   0  0  0  0  0  0  0  0  0  0  0  0
  -30.0579  -24.9517   17.2697 C   0  0  0  0  0  0  0  0  0  0  0  0
  -26.7632  -14.2368   20.7723 C   0  0  0  0  0  0  0  0  0  0  0  0
  -29.2893  -14.5546   20.6133 C   0  0  0  0  0  0  0  0  0  0  0  0
  -18.0791  -27.7301   23.9090 C   0  0  0  0  0  0  0  0  0  0  0  0
  -23.9726  -25.9197   19.9252 C   0  0  0  0  0  0  0  0  0  0  0  0
  -19.4246  -27.8264   23.5057 C   0  0  0  0  0  0  0  0  0  0  0  0
  -24.8355  -25.0156   20.5611 C   0  0  0  0  0  0  0  0  0  0  0  0
  -24.3944  -12.7964   20.4614 C   0  0  0  0  0  0  0  0  0  0  0  0
  -26.7243  -26.4352   19.9891 C   0  0  0  0  0  0  0  0  0  0  0  0
  -23.2316  -10.7704   20.7173 C   0  0  0  0  0  0  0  0  0  0  0  0
  -23.2187   -8.1035   21.5359 C   0  0  0  0  0  0  0  0  0  0  0  0
  -22.3451  -10.3494   21.7085 C   0  0  0  0  0  0  0  0  0  0  0  0
  -27.9863  -14.9813   20.9326 C   0  0  0  0  0  0  0  0  0  0  0  0
  -30.7578  -23.5602   18.8218 C   0  0  0  0  0  0  0  0  0  0  0  0
  -30.0909  -15.6181   20.9493 C   0  0  0  0  0  0  0  0  0  0  0  0
  -29.7352  -13.3084   20.0621 C   0  0  0  0  0  0  0  0  0  0  0  0
  -21.9241  -25.3883   22.2969 C   0  0  0  0  0  0  0  0  0  0  0  0
  -22.2792  -22.2941   21.3900 C   0  0  0  0  0  0  0  0  0  0  0  0
  -24.2018  -19.9260   19.8595 C   0  0  0  0  0  0  0  0  0  0  0  0
  -28.5438  -21.5180   21.5295 C   0  0  0  0  0  0  0  0  0  0  0  0
  -17.5690  -26.5477   24.6941 C   0  0  0  0  0  0  0  0  0  0  0  0
  -22.4960  -25.6421   19.8547 C   0  0  0  0  0  0  0  0  0  0  0  0
  -24.3244  -23.7616   21.2204 C   0  0  0  0  0  0  0  0  0  0  0  0
  -18.4827  -25.3270   24.6196 C   0  0  0  0  0  0  0  0  0  0  0  0
  -30.3338  -19.3438   23.9317 C   0  0  0  0  0  0  0  0  0  0  0  0
  -19.9353  -25.7328   24.8480 C   0  0  0  0  0  0  0  0  0  0  0  0
  -29.9793  -17.9415   23.4399 C   0  0  0  0  0  0  0  0  0  0  0  0
  -29.2446  -20.3565   23.5914 C   0  0  0  0  0  0  0  0  0  0  0  0
  -28.5335  -18.9927   21.6552 C   0  0  0  0  0  0  0  0  0  0  0  0
  -20.4119  -26.7095   23.7661 C   0  0  1  0  0  0  0  0  0  0  0  0
  -22.0100  -24.7090   20.9594 C   0  0  1  0  0  0  0  0  0  0  0  0
  -29.6316  -17.9573   21.9412 C   0  0  2  0  0  0  0  0  0  0  0  0
  -24.2444  -17.4784   19.3077 C   0  0  0  0  0  0  0  0  0  0  0  0
  -31.5766  -22.6015   21.0816 C   0  0  0  0  0  0  0  0  0  0  0  0
  -32.4916  -21.7497   18.9385 C   0  0  0  0  0  0  0  0  0  0  0  0
  -22.9793  -21.6551   24.2902 C   0  0  0  0  0  0  0  0  0  0  0  0
  -23.9153  -19.4682   23.5094 C   0  0  0  0  0  0  0  0  0  0  0  0
  -21.4951  -19.9755   23.1809 C   0  0  0  0  0  0  0  0  0  0  0  0
  -28.0096  -22.4595   19.3141 C   0  0  0  0  0  0  0  0  0  0  0  0
  -24.2909  -20.4647   16.9507 C   0  0  0  0  0  0  0  0  0  0  0  0
  -30.0869  -27.0397   18.7596 C   0  0  0  0  0  0  0  0  0  0  0  0
  -30.1212  -21.2109   19.5749 C   0  0  0  0  0  0  0  0  0  0  0  0
  -28.6174  -27.4097   18.9296 C   0  0  0  0  0  0  0  0  0  1  0  0
  -23.2153  -21.1708   21.7652 C   0  0  1  0  0  0  0  0  0  0  0  0
  -23.8633  -18.8689   18.8240 C   0  0  2  0  0  0  0  0  0  0  0  0
  -31.1937  -22.3689   19.5699 C   0  0  0  0  0  0  0  0  0  0  0  0
  -22.9110  -20.5919   23.1758 C   0  0  0  0  0  0  0  0  0  0  0  0
  -27.9573  -16.2193   21.4331 N   0  0  0  0  0  0  0  0  0  0  0  0
  -30.7077  -24.7464   19.4338 N   0  0  0  0  0  0  0  0  0  0  0  0
  -30.2788  -25.5721   18.4640 N   0  0  0  0  0  0  0  0  0  0  0  0
  -29.2520  -16.5796   21.4310 N   0  0  0  0  0  0  0  0  0  0  0  0
  -22.8721  -23.5378   21.1299 N   0  0  0  0  0  0  0  0  0  0  0  0
  -28.9031  -20.3201   22.1690 N   0  0  0  0  0  0  0  0  0  0  0  0
  -31.4244  -15.8153   20.8768 N   0  0  0  0  0  0  0  0  0  0  0  0
  -28.7792  -12.3244   19.7755 N   0  0  0  0  0  0  0  0  0  0  0  0
  -20.7092  -26.0000   22.5403 N   0  0  0  0  0  0  0  0  0  0  0  0
  -23.1312  -20.1919   20.6867 N   0  0  0  0  0  0  0  0  0  0  0  0
  -28.8528  -21.6325   20.1656 N   0  0  0  0  0  0  0  0  0  0  0  0
  -24.5898  -19.1392   17.5511 N   0  3  0  0  0  0  0  0  0  0  0  0
  -30.9473  -13.0682   19.8460 O   0  0  0  0  0  0  0  0  0  0  0  0
  -22.8882  -25.3583   23.0528 O   0  0  0  0  0  0  0  0  0  0  0  0
  -21.0672  -22.0745   21.3229 O   0  0  0  0  0  0  0  0  0  0  0  0
  -25.3066  -20.4597   19.9299 O   0  0  0  0  0  0  0  0  0  0  0  0
  -27.9877  -22.4366   22.1449 O   0  0  0  0  0  0  0  0  0  0  0  0
  -23.2387  -12.0937   20.3092 O   0  0  0  0  0  0  0  0  0  0  0  0
  -28.0615  -26.6849   20.0260 O   0  0  0  0  0  0  0  0  0  1  0  0
  -23.2115   -6.8227   21.9278 F   0  0  0  0  0  0  0  0  0  0  0  0
  -21.4965  -11.2212   22.2704 F   0  0  0  0  0  0  0  0  0  0  0  0
  1  2  1  0  0  0  0
  1  5  2  0  0  0  0
  2  6  2  0  0  0  0
  3  8  2  0  0  0  0
  3 17  1  0  0  0  0
  4  9  1  0  0  0  0
  4 17  2  0  0  0  0
  5 19  1  0  0  0  0
  6 21  1  0  0  0  0
  7 10  2  0  0  0  0
  7 20  1  0  0  0  0
  8 23  1  0  0  0  0
  9 23  2  0  0  0  0
 10 24  1  0  0  0  0
 11 12  2  0  0  0  0
 11 25  1  0  0  0  0
 12 26  1  0  0  0  0
 13 16  2  0  0  0  0
 13 29  1  0  0  0  0
 14 22  1  0  0  0  0
 14 24  2  0  0  0  0
 15 26  2  0  0  0  0
 15 27  1  0  0  0  0
 16 65  1  0  0  0  0
 17 28  1  0  0  0  0
 18 28  1  0  0  0  0
 18 30  2  0  0  0  0
 18 31  1  0  0  0  0
 19 21  2  0  0  0  0
 19 36  1  0  0  0  0
 20 22  2  0  0  0  0
 20 37  1  0  0  0  0
 21 45  1  0  0  0  0
 22 38  1  0  0  0  0
 23 80  1  0  0  0  0
 24 81  1  0  0  0  0
 25 27  2  0  0  0  0
 25 80  1  0  0  0  0
 26 82  1  0  0  0  0
 27 83  1  0  0  0  0
 28 63  2  0  0  0  0
 29 61  1  0  0  0  0
 29 64  2  0  0  0  0
 30 66  1  0  0  0  0
 30 69  1  0  0  0  0
 31 70  1  0  0  0  0
 31 75  2  0  0  0  0
 32 46  1  0  0  0  0
 32 71  1  0  0  0  0
 32 76  2  0  0  0  0
 33 59  1  0  0  0  0
 33 67  1  0  0  0  0
 33 77  2  0  0  0  0
 34 60  1  0  0  0  0
 34 72  1  0  0  0  0
 34 78  2  0  0  0  0
 35 68  1  0  0  0  0
 35 73  1  0  0  0  0
 35 79  2  0  0  0  0
 36 39  1  0  0  0  0
 37 46  1  0  0  0  0
 38 67  1  0  0  0  0
 39 41  1  0  0  0  0
 40 42  1  0  0  0  0
 40 43  1  0  0  0  0
 41 45  1  0  0  0  0
 42 47  1  0  0  0  0
 43 68  1  0  0  0  0
 44 47  1  0  0  0  0
 44 68  1  0  0  0  0
 45 71  1  0  0  0  0
 46 67  1  0  0  0  0
 47 66  1  0  0  0  0
 48 60  1  0  0  0  0
 49 61  1  0  0  0  0
 50 61  1  0  0  0  0
 51 62  1  0  0  0  0
 52 62  1  0  0  0  0
 53 62  1  0  0  0  0
 54 73  1  0  0  0  0
 55 74  1  0  0  0  0
 56 58  1  0  0  0  0
 56 65  1  0  0  0  0
 57 61  1  0  0  0  0
 57 73  1  0  0  0  0
 58 81  1  0  0  0  0
 59 62  1  0  0  0  0
 59 72  1  0  0  0  0
 60 74  1  0  0  0  0
 63 66  1  0  0  0  0
 64 65  1  0  0  0  0
M  CHG  1  74   1
M  ISO  4  35 100  58 101  73 100  81 101
M  END
> <Batch ID>
0056

> <Smiles>
CNC(C)C(=O)NC(C(=O)N1Cc2cc([101O:1][101CH2:1]Cn3ccc(C(C)(C)C[100N:0](C)[100C:0](=O)N4CCCC(n5nc(-c6ccc(Oc7ccc(F)cc7F)cc6)c(C(N)=O)c5N)C4)n3)ccc2CC1C(=O)NC1CCCc2ccccc21)C(C)(C)C

> <Shape>
0.258

> <Color>
0.072

> <Negative vol penalty>
0.000

$$$$

  -OEChem-04052317463D

 83 91  0     1  0  0  0  0  0999 V2000
  -24.7964  -31.6727   20.8876 C   0  0  0  0  0  0  0  0  0  0  0  0
  -23.6859  -30.9357   21.2834 C   0  0  0  0  0  0  0  0  0  0  0  0
  -30.2334  -20.4325   20.7739 C   0  0  0  0  0  0  0  0  0  0  0  0
  -27.9901  -20.6438   21.6457 C   0  0  0  0  0  0  0  0  0  0  0  0
  -25.9277  -31.0173   20.4063 C   0  0  0  0  0  0  0  0  0  0  0  0
  -23.7108  -29.5426   21.2093 C   0  0  0  0  0  0  0  0  0  0  0  0
  -21.0107  -22.0923   21.8620 C   0  0  0  0  0  0  0  0  0  0  0  0
  -30.2041  -21.7686   20.3746 C   0  0  0  0  0  0  0  0  0  0  0  0
  -27.9608  -21.9799   21.2465 C   0  0  0  0  0  0  0  0  0  0  0  0
  -21.2263  -20.7880   21.4193 C   0  0  0  0  0  0  0  0  0  0  0  0
  -28.9063  -23.5805   17.8336 C   0  0  0  0  0  0  0  0  0  0  0  0
  -29.3791  -23.8852   16.5572 C   0  0  0  0  0  0  0  0  0  0  0  0
  -23.5094  -20.9106   22.1885 C   0  0  0  0  0  0  0  0  0  0  0  0
  -31.0575  -25.3296   17.5237 C   0  0  0  0  0  0  0  0  0  0  0  0
  -23.8240  -16.5258   19.5143 C   0  0  0  0  0  0  0  0  0  0  0  0
  -29.1264  -19.8700   21.4094 C   0  0  0  0  0  0  0  0  0  0  0  0
  -29.5894  -17.9816   23.0609 C   0  0  0  0  0  0  0  0  0  0  0  0
  -25.9610  -29.6160   20.3148 C   0  0  0  0  0  0  0  0  0  0  0  0
  -22.0477  -22.8207   22.4625 C   0  0  0  0  0  0  0  0  0  0  0  0
  -24.8521  -28.8614   20.7487 C   0  0  0  0  0  0  0  0  0  0  0  0
  -23.3037  -22.2231   22.6403 C   0  0  0  0  0  0  0  0  0  0  0  0
  -29.0679  -22.5424   20.6109 C   0  0  0  0  0  0  0  0  0  0  0  0
  -22.4766  -20.1980   21.5798 C   0  0  0  0  0  0  0  0  0  0  0  0
  -29.5090  -24.1504   18.9551 C   0  0  0  0  0  0  0  0  0  0  0  0
  -30.4547  -24.7597   16.4022 C   0  0  0  0  0  0  0  0  0  0  0  0
  -30.5846  -25.0249   18.8001 C   0  0  0  0  0  0  0  0  0  0  0  0
  -29.1559  -18.4897   21.8216 C   0  0  0  0  0  0  0  0  0  0  0  0
  -24.0377  -16.9931   20.7803 C   0  0  0  0  0  0  0  0  0  0  0  0
  -29.4189  -16.6230   22.9536 C   0  0  0  0  0  0  0  0  0  0  0  0
  -24.3004  -14.7953   20.8099 C   0  0  0  0  0  0  0  0  0  0  0  0
  -30.1005  -18.6757   24.2066 C   0  0  0  0  0  0  0  0  0  0  0  0
  -23.5996  -25.5054   21.7642 C   0  0  0  0  0  0  0  0  0  0  0  0
  -24.9655  -25.0105   24.6645 C   0  0  0  0  0  0  0  0  0  0  0  0
  -25.7384  -12.8163   20.5640 C   0  0  0  0  0  0  0  0  0  0  0  0
  -26.2599  -22.2003   26.5206 C   0  0  0  0  0  0  0  0  0  0  0  0
  -27.2142  -28.9578   19.7937 C   0  0  0  0  0  0  0  0  0  0  0  0
  -21.7915  -24.2172   22.9589 C   0  0  0  0  0  0  0  0  0  0  0  0
  -24.4443  -22.9553   23.2971 C   0  0  0  0  0  0  0  0  0  0  0  0
  -26.9850  -27.5207   19.3371 C   0  0  0  0  0  0  0  0  0  0  0  0
  -28.9947  -13.4404   19.2051 C   0  0  0  0  0  0  0  0  0  0  0  0
  -26.2368  -26.7467   20.4121 C   0  0  0  0  0  0  0  0  0  0  0  0
  -29.3979  -14.7724   19.8364 C   0  0  0  0  0  0  0  0  0  0  0  0
  -27.4967  -13.3875   18.9219 C   0  0  0  0  0  0  0  0  0  0  0  0
  -27.0439  -14.9917   20.7503 C   0  0  0  0  0  0  0  0  0  0  0  0
  -24.8450  -27.3468   20.6483 C   0  0  1  0  0  0  0  0  0  0  0  0
  -23.0646  -25.0472   23.0914 C   0  0  1  0  0  0  0  0  0  0  0  0
  -28.5446  -15.0750   21.0808 C   0  0  2  0  0  0  0  0  0  0  0  0
  -26.4664  -21.8348   28.9947 C   0  0  0  0  0  0  0  0  0  0  0  0
  -24.9919  -13.2795   22.7928 C   0  0  0  0  0  0  0  0  0  0  0  0
  -27.7907  -26.1029   24.2973 C   0  0  0  0  0  0  0  0  0  0  0  0
  -28.5848  -24.4180   25.9703 C   0  0  0  0  0  0  0  0  0  0  0  0
  -26.9439  -26.1699   26.6495 C   0  0  0  0  0  0  0  0  0  0  0  0
  -23.8598  -14.2667   18.4304 C   0  0  0  0  0  0  0  0  0  0  0  0
  -24.7338  -19.6678   26.3912 C   0  0  0  0  0  0  0  0  0  0  0  0
  -21.8652  -14.0367   22.2223 C   0  0  0  0  0  0  0  0  0  0  0  0
  -21.1410  -11.6823   21.8582 C   0  0  0  0  0  0  0  0  0  0  0  0
  -23.9951  -18.3829   21.3444 C   0  0  0  0  0  0  0  0  0  1  0  0
  -23.3676  -12.4403   21.0407 C   0  0  0  0  0  0  0  0  0  0  0  0
  -26.1863  -24.2731   25.1595 C   0  0  1  0  0  0  0  0  0  0  0  0
  -25.6394  -21.5588   27.7486 C   0  0  2  0  0  0  0  0  0  0  0  0
  -24.5640  -13.4174   21.2944 C   0  0  1  0  0  0  0  0  0  0  0  0
  -27.3625  -25.2327   25.4957 C   0  0  0  0  0  0  0  0  0  0  0  0
  -28.7413  -17.5318   20.9882 N   0  0  0  0  0  0  0  0  0  0  0  0
  -23.9936  -15.1631   19.5617 N   0  0  0  0  0  0  0  0  0  0  0  0
  -28.9136  -16.4082   21.7051 N   0  0  0  0  0  0  0  0  0  0  0  0
  -24.3302  -15.9009   21.5610 N   0  3  0  0  0  0  0  0  0  0  0  0
  -24.1460  -24.3206   23.7599 N   0  0  0  0  0  0  0  0  0  0  0  0
  -26.7213  -13.7026   20.1230 N   0  0  0  0  0  0  0  0  0  0  0  0
  -29.6534  -15.6030   23.8063 N   0  0  0  0  0  0  0  0  0  0  0  0
  -30.2101  -20.0718   24.1481 N   0  0  0  0  0  0  0  0  0  0  0  0
  -24.2527  -26.7223   21.8106 N   0  0  0  0  0  0  0  0  0  0  0  0
  -25.7418  -23.4559   26.2833 N   0  0  0  0  0  0  0  0  0  0  0  0
  -25.5401  -20.0829   27.5678 N   0  3  0  0  0  0  0  0  0  0  0  0
  -22.3149  -12.6043   22.0756 N   0  3  0  0  0  0  0  0  0  0  0  0
  -30.4651  -18.0743   25.2453 O   0  0  0  0  0  0  0  0  0  0  0  0
  -23.4336  -24.8059   20.7718 O   0  0  0  0  0  0  0  0  0  0  0  0
  -24.7434  -26.1537   25.0712 O   0  0  0  0  0  0  0  0  0  0  0  0
  -25.7806  -11.5950   20.3939 O   0  0  0  0  0  0  0  0  0  0  0  0
  -27.1209  -21.6447   25.8420 O   0  0  0  0  0  0  0  0  0  0  0  0
  -29.0390  -23.8463   20.2216 O   0  0  0  0  0  0  0  0  0  0  0  0
  -22.6899  -18.9252   21.1480 O   0  0  0  0  0  0  0  0  0  1  0  0
  -30.9096  -25.0510   15.1765 F   0  0  0  0  0  0  0  0  0  0  0  0
  -31.1685  -25.5745   19.8738 F   0  0  0  0  0  0  0  0  0  0  0  0
  1  2  1  0  0  0  0
  1  5  2  0  0  0  0
  2  6  2  0  0  0  0
  3  8  2  0  0  0  0
  3 16  1  0  0  0  0
  4  9  1  0  0  0  0
  4 16  2  0  0  0  0
  5 18  1  0  0  0  0
  6 20  1  0  0  0  0
  7 10  2  0  0  0  0
  7 19  1  0  0  0  0
  8 22  1  0  0  0  0
  9 22  2  0  0  0  0
 10 23  1  0  0  0  0
 11 12  2  0  0  0  0
 11 24  1  0  0  0  0
 12 25  1  0  0  0  0
 13 21  1  0  0  0  0
 13 23  2  0  0  0  0
 14 25  2  0  0  0  0
 14 26  1  0  0  0  0
 15 28  2  0  0  0  0
 15 64  1  0  0  0  0
 16 27  1  0  0  0  0
 17 27  1  0  0  0  0
 17 29  2  0  0  0  0
 17 31  1  0  0  0  0
 18 20  2  0  0  0  0
 18 36  1  0  0  0  0
 19 21  2  0  0  0  0
 19 37  1  0  0  0  0
 20 45  1  0  0  0  0
 21 38  1  0  0  0  0
 22 80  1  0  0  0  0
 23 81  1  0  0  0  0
 24 26  2  0  0  0  0
 24 80  1  0  0  0  0
 25 82  1  0  0  0  0
 26 83  1  0  0  0  0
 27 63  2  0  0  0  0
 28 57  1  0  0  0  0
 28 66  1  0  0  0  0
 29 65  1  0  0  0  0
 29 69  1  0  0  0  0
 30 61  1  0  0  0  0
 30 64  1  0  0  0  0
 30 66  2  0  0  0  0
 31 70  1  0  0  0  0
 31 75  2  0  0  0  0
 32 46  1  0  0  0  0
 32 71  1  0  0  0  0
 32 76  2  0  0  0  0
 33 59  1  0  0  0  0
 33 67  1  0  0  0  0
 33 77  2  0  0  0  0
 34 61  1  0  0  0  0
 34 68  1  0  0  0  0
 34 78  2  0  0  0  0
 35 60  1  0  0  0  0
 35 72  1  0  0  0  0
 35 79  2  0  0  0  0
 36 39  1  0  0  0  0
 37 46  1  0  0  0  0
 38 67  1  0  0  0  0
 39 41  1  0  0  0  0
 40 42  1  0  0  0  0
 40 43  1  0  0  0  0
 41 45  1  0  0  0  0
 42 47  1  0  0  0  0
 43 68  1  0  0  0  0
 44 47  1  0  0  0  0
 44 68  1  0  0  0  0
 45 71  1  0  0  0  0
 46 67  1  0  0  0  0
 47 65  1  0  0  0  0
 48 60  1  0  0  0  0
 49 61  1  0  0  0  0
 50 62  1  0  0  0  0
 51 62  1  0  0  0  0
 52 62  1  0  0  0  0
 53 64  1  0  0  0  0
 54 73  1  0  0  0  0
 55 74  1  0  0  0  0
 56 74  1  0  0  0  0
 57 81  1  0  0  0  0
 58 61  1  0  0  0  0
 58 74  1  0  0  0  0
 59 62  1  0  0  0  0
 59 72  1  0  0  0  0
 60 73  1  0  0  0  0
 63 65  1  0  0  0  0
M  CHG  3  66   1  73   1  74   1
M  ISO  4  34 100  57 101  61 100  81 101
M  END
> <Batch ID>
0056

> <Smiles>
CNC(C)C(=O)NC(C(=O)N1Cc2cc([101O:1][101CH2:1]c3cn(C)c([100C:0](C)(CN(C)C)[100C:0](=O)N4CCCC(n5nc(-c6ccc(Oc7ccc(F)cc7F)cc6)c(C(N)=O)c5N)C4)n3)ccc2CC1C(=O)NC1CCCc2ccccc21)C(C)(C)C

> <Shape>
0.210

> <Color>
0.073

> <Negative vol penalty>
0.000

$$$$

  -OEChem-04052317463D

 80 88  0     1  0  0  0  0  0999 V2000
  -20.4930  -31.3198   23.6503 C   0  0  0  0  0  0  0  0  0  0  0  0
  -21.7210  -30.7109   23.4116 C   0  0  0  0  0  0  0  0  0  0  0  0
  -25.6982  -14.9766   21.5121 C   0  0  0  0  0  0  0  0  0  0  0  0
  -25.0472  -16.6317   19.8768 C   0  0  0  0  0  0  0  0  0  0  0  0
  -19.3152  -30.5849   23.5216 C   0  0  0  0  0  0  0  0  0  0  0  0
  -21.7717  -29.3665   23.0451 C   0  0  0  0  0  0  0  0  0  0  0  0
  -24.9668  -28.5178   19.2090 C   0  0  0  0  0  0  0  0  0  0  0  0
  -24.4311  -14.3991   21.4321 C   0  0  0  0  0  0  0  0  0  0  0  0
  -23.7800  -16.0541   19.7968 C   0  0  0  0  0  0  0  0  0  0  0  0
  -26.3276  -28.4796   19.5102 C   0  0  0  0  0  0  0  0  0  0  0  0
  -22.7639  -12.3307   19.3405 C   0  0  0  0  0  0  0  0  0  0  0  0
  -22.6894  -10.9407   19.2514 C   0  0  0  0  0  0  0  0  0  0  0  0
  -26.2565  -26.0684   19.4981 C   0  0  0  0  0  0  0  0  0  0  0  0
  -21.4099  -10.8779   21.2998 C   0  0  0  0  0  0  0  0  0  0  0  0
  -30.2135  -25.4479   22.5777 C   0  0  0  0  0  0  0  0  0  0  0  0
  -28.6659  -25.7828   24.1105 C   0  0  0  0  0  0  0  0  0  0  0  0
  -26.0063  -16.0930   20.7345 C   0  0  0  0  0  0  0  0  0  0  0  0
  -28.4460  -16.3702   20.0425 C   0  0  0  0  0  0  0  0  0  0  0  0
  -19.3510  -29.2334   23.1440 C   0  0  0  0  0  0  0  0  0  0  0  0
  -24.2371  -27.3296   19.0605 C   0  0  0  0  0  0  0  0  0  0  0  0
  -20.5933  -28.6125   22.9126 C   0  0  0  0  0  0  0  0  0  0  0  0
  -24.8871  -26.0942   19.1924 C   0  0  0  0  0  0  0  0  0  0  0  0
  -23.4720  -14.9378   20.5745 C   0  0  0  0  0  0  0  0  0  0  0  0
  -26.9720  -27.2549   19.6577 C   0  0  0  0  0  0  0  0  0  0  0  0
  -22.1614  -12.9943   20.4093 C   0  0  0  0  0  0  0  0  0  0  0  0
  -22.0125  -10.2143   20.2310 C   0  0  0  0  0  0  0  0  0  0  0  0
  -21.4844  -12.2679   21.3889 C   0  0  0  0  0  0  0  0  0  0  0  0
  -27.3149  -16.6903   20.8171 C   0  0  0  0  0  0  0  0  0  0  0  0
  -29.6975  -26.7201   22.5019 C   0  0  0  0  0  0  0  0  0  0  0  0
  -29.4276  -17.2130   20.5035 C   0  0  0  0  0  0  0  0  0  0  0  0
  -28.5958  -15.3979   18.9995 C   0  0  0  0  0  0  0  0  0  0  0  0
  -21.7667  -26.0116   20.5650 C   0  0  0  0  0  0  0  0  0  0  0  0
  -29.0759  -22.5123   23.1623 C   0  0  0  0  0  0  0  0  0  0  0  0
  -21.9806  -23.8240   18.1794 C   0  0  0  0  0  0  0  0  0  0  0  0
  -23.9079  -22.2974   15.8126 C   0  0  0  0  0  0  0  0  0  0  0  0
  -18.0542  -28.4674   23.0638 C   0  0  0  0  0  0  0  0  0  0  0  0
  -22.7757  -27.3877   18.7092 C   0  0  0  0  0  0  0  0  0  0  0  0
  -24.1533  -24.7899   19.0229 C   0  0  0  0  0  0  0  0  0  0  0  0
  -18.1725  -27.1470   22.3069 C   0  0  0  0  0  0  0  0  0  0  0  0
  -30.8117  -19.5740   24.4193 C   0  0  0  0  0  0  0  0  0  0  0  0
  -19.4033  -26.3743   22.7706 C   0  0  0  0  0  0  0  0  0  0  0  0
  -30.1847  -18.4646   23.5761 C   0  0  0  0  0  0  0  0  0  0  0  0
  -29.7987  -20.6660   24.7530 C   0  0  0  0  0  0  0  0  0  0  0  0
  -28.5039  -20.1483   22.7085 C   0  0  0  0  0  0  0  0  0  0  0  0
  -20.6880  -27.1627   22.4891 C   0  0  1  0  0  0  0  0  0  0  0  0
  -22.0193  -26.1181   19.0876 C   0  0  1  0  0  0  0  0  0  0  0  0
  -29.5008  -19.0421   22.3246 C   0  0  2  0  0  0  0  0  0  0  0  0
  -23.8148  -20.5223   14.0412 C   0  0  0  0  0  0  0  0  0  0  0  0
  -31.1784  -27.4435   20.5112 C   0  0  0  0  0  0  0  0  0  0  0  0
  -30.6143  -29.0537   22.3187 C   0  0  0  0  0  0  0  0  0  0  0  0
  -22.1025  -21.6689   20.3360 C   0  0  0  0  0  0  0  0  0  0  0  0
  -22.9495  -20.0770   18.5992 C   0  0  0  0  0  0  0  0  0  0  0  0
  -20.6820  -21.0892   18.3610 C   0  0  0  0  0  0  0  0  0  0  0  0
  -24.5517  -24.2366   13.6716 C   0  0  0  0  0  0  0  0  0  0  0  0
  -29.7224  -23.5100   24.0899 C   0  0  0  0  0  0  0  0  0  0  0  0
  -28.8286  -28.2978   20.7164 C   0  0  0  0  0  0  0  0  0  1  0  0
  -22.7270  -22.5267   17.9822 C   0  0  1  0  0  0  0  0  0  0  0  0
  -23.6564  -22.0041   14.3445 C   0  0  2  0  0  0  0  0  0  0  0  0
  -30.0751  -27.8448   21.5197 C   0  0  0  0  0  0  0  0  0  0  0  0
  -22.1289  -21.3649   18.8248 C   0  0  0  0  0  0  0  0  0  0  0  0
  -28.7349  -26.9223   23.4589 N   0  0  0  0  0  0  0  0  0  0  0  0
  -27.5545  -17.6607   21.7031 N   0  0  0  0  0  0  0  0  0  0  0  0
  -29.5432  -24.8596   23.6131 N   0  0  0  0  0  0  0  0  0  0  0  0
  -28.8475  -17.9575   21.4881 N   0  0  0  0  0  0  0  0  0  0  0  0
  -22.7243  -24.8992   18.6860 N   0  0  0  0  0  0  0  0  0  0  0  0
  -29.1496  -21.1706   23.5370 N   0  0  0  0  0  0  0  0  0  0  0  0
  -30.7217  -17.3825   20.1587 N   0  0  0  0  0  0  0  0  0  0  0  0
  -27.4864  -14.6158   18.6507 N   0  0  0  0  0  0  0  0  0  0  0  0
  -21.0440  -27.0660   21.0896 N   0  0  0  0  0  0  0  0  0  0  0  0
  -22.7397  -22.2774   16.5448 N   0  0  0  0  0  0  0  0  0  0  0  0
  -24.6153  -22.7632   13.4930 N   0  3  0  0  0  0  0  0  0  0  0  0
  -29.6859  -15.2164   18.4059 O   0  0  0  0  0  0  0  0  0  0  0  0
  -22.1944  -25.0436   21.1828 O   0  0  0  0  0  0  0  0  0  0  0  0
  -28.5248  -22.9151   22.1345 O   0  0  0  0  0  0  0  0  0  0  0  0
  -20.7835  -23.8832   17.8877 O   0  0  0  0  0  0  0  0  0  0  0  0
  -25.0290  -22.5182   16.2652 O   0  0  0  0  0  0  0  0  0  0  0  0
  -22.2355  -14.3744   20.4960 O   0  0  0  0  0  0  0  0  0  0  0  0
  -28.2999  -27.2147   19.9524 O   0  0  0  0  0  0  0  0  0  1  0  0
  -21.9397   -8.8796   20.1445 F   0  0  0  0  0  0  0  0  0  0  0  0
  -20.9026  -12.9000   22.4174 F   0  0  0  0  0  0  0  0  0  0  0  0
  1  2  1  0  0  0  0
  1  5  2  0  0  0  0
  2  6  2  0  0  0  0
  3  8  2  0  0  0  0
  3 17  1  0  0  0  0
  4  9  1  0  0  0  0
  4 17  2  0  0  0  0
  5 19  1  0  0  0  0
  6 21  1  0  0  0  0
  7 10  2  0  0  0  0
  7 20  1  0  0  0  0
  8 23  1  0  0  0  0
  9 23  2  0  0  0  0
 10 24  1  0  0  0  0
 11 12  2  0  0  0  0
 11 25  1  0  0  0  0
 12 26  1  0  0  0  0
 13 22  1  0  0  0  0
 13 24  2  0  0  0  0
 14 26  2  0  0  0  0
 14 27  1  0  0  0  0
 15 29  2  0  0  0  0
 15 63  1  0  0  0  0
 16 61  2  0  0  0  0
 16 63  1  0  0  0  0
 17 28  1  0  0  0  0
 18 28  1  0  0  0  0
 18 30  2  0  0  0  0
 18 31  1  0  0  0  0
 19 21  2  0  0  0  0
 19 36  1  0  0  0  0
 20 22  2  0  0  0  0
 20 37  1  0  0  0  0
 21 45  1  0  0  0  0
 22 38  1  0  0  0  0
 23 77  1  0  0  0  0
 24 78  1  0  0  0  0
 25 27  2  0  0  0  0
 25 77  1  0  0  0  0
 26 79  1  0  0  0  0
 27 80  1  0  0  0  0
 28 62  2  0  0  0  0
 29 59  1  0  0  0  0
 29 61  1  0  0  0  0
 30 64  1  0  0  0  0
 30 67  1  0  0  0  0
 31 68  1  0  0  0  0
 31 72  2  0  0  0  0
 32 46  1  0  0  0  0
 32 69  1  0  0  0  0
 32 73  2  0  0  0  0
 33 55  1  0  0  0  0
 33 66  1  0  0  0  0
 33 74  2  0  0  0  0
 34 57  1  0  0  0  0
 34 65  1  0  0  0  0
 34 75  2  0  0  0  0
 35 58  1  0  0  0  0
 35 70  1  0  0  0  0
 35 76  2  0  0  0  0
 36 39  1  0  0  0  0
 37 46  1  0  0  0  0
 38 65  1  0  0  0  0
 39 41  1  0  0  0  0
 40 42  1  0  0  0  0
 40 43  1  0  0  0  0
 41 45  1  0  0  0  0
 42 47  1  0  0  0  0
 43 66  1  0  0  0  0
 44 47  1  0  0  0  0
 44 66  1  0  0  0  0
 45 69  1  0  0  0  0
 46 65  1  0  0  0  0
 47 64  1  0  0  0  0
 48 58  1  0  0  0  0
 49 59  1  0  0  0  0
 50 59  1  0  0  0  0
 51 60  1  0  0  0  0
 52 60  1  0  0  0  0
 53 60  1  0  0  0  0
 54 71  1  0  0  0  0
 55 63  1  0  0  0  0
 56 59  1  0  0  0  0
 56 78  1  0  0  0  0
 57 60  1  0  0  0  0
 57 70  1  0  0  0  0
 58 71  1  0  0  0  0
 62 64  1  0  0  0  0
M  CHG  1  71   1
M  ISO  4  33 100  55 100  56 101  78 101
M  END
> <Batch ID>
0056

> <Smiles>
CNC(C)C(=O)NC(C(=O)N1Cc2cc([101O:1][101CH2:1]C(C)(C)c3cn([100CH2:0][100C:0](=O)N4CCCC(n5nc(-c6ccc(Oc7ccc(F)cc7F)cc6)c(C(N)=O)c5N)C4)cn3)ccc2CC1C(=O)NC1CCCc2ccccc21)C(C)(C)C

> <Shape>
0.202

> <Color>
0.068

> <Negative vol penalty>
0.000

$$$$

  -OEChem-04052317463D

 82 90  0     1  0  0  0  0  0999 V2000
  -17.2396  -30.3686   24.4512 C   0  0  0  0  0  0  0  0  0  0  0  0
  -18.6292  -30.3134   24.4149 C   0  0  0  0  0  0  0  0  0  0  0  0
  -28.8635  -19.8473   18.4968 C   0  0  0  0  0  0  0  0  0  0  0  0
  -29.7524  -20.3033   20.6967 C   0  0  0  0  0  0  0  0  0  0  0  0
  -16.4880  -29.5174   23.6422 C   0  0  0  0  0  0  0  0  0  0  0  0
  -19.2680  -29.4062   23.5704 C   0  0  0  0  0  0  0  0  0  0  0  0
  -23.1390  -31.4876   21.0548 C   0  0  0  0  0  0  0  0  0  0  0  0
  -29.2829  -18.5212   18.6022 C   0  0  0  0  0  0  0  0  0  0  0  0
  -30.1717  -18.9771   20.8021 C   0  0  0  0  0  0  0  0  0  0  0  0
  -24.3317  -31.6647   21.7548 C   0  0  0  0  0  0  0  0  0  0  0  0
  -28.2237  -15.6861   20.1099 C   0  0  0  0  0  0  0  0  0  0  0  0
  -27.3281  -14.6901   19.7207 C   0  0  0  0  0  0  0  0  0  0  0  0
  -25.2215  -29.6696   20.7317 C   0  0  0  0  0  0  0  0  0  0  0  0
  -28.9005  -13.9283   18.0520 C   0  0  0  0  0  0  0  0  0  0  0  0
  -28.7556  -32.0969   20.1227 C   0  0  0  0  0  0  0  0  0  0  0  0
  -29.0983  -20.7384   19.5440 C   0  0  0  0  0  0  0  0  0  0  0  0
  -27.4231  -22.6413   19.8274 C   0  0  0  0  0  0  0  0  0  0  0  0
  -17.1180  -28.6059   22.7803 C   0  0  0  0  0  0  0  0  0  0  0  0
  -22.9744  -30.3922   20.1948 C   0  0  0  0  0  0  0  0  0  0  0  0
  -18.5241  -28.5410   22.7502 C   0  0  0  0  0  0  0  0  0  0  0  0
  -24.0267  -29.4822   20.0199 C   0  0  0  0  0  0  0  0  0  0  0  0
  -29.9370  -18.0861   19.7548 C   0  0  0  0  0  0  0  0  0  0  0  0
  -25.3721  -30.7541   21.5955 C   0  0  0  0  0  0  0  0  0  0  0  0
  -29.4577  -15.8032   19.4701 C   0  0  0  0  0  0  0  0  0  0  0  0
  -27.6665  -13.8112   18.6918 C   0  0  0  0  0  0  0  0  0  0  0  0
  -29.7961  -14.9243   18.4412 C   0  0  0  0  0  0  0  0  0  0  0  0
  -28.6659  -22.1086   19.4355 C   0  0  0  0  0  0  0  0  0  0  0  0
  -29.1376  -31.9783   21.4292 C   0  0  0  0  0  0  0  0  0  0  0  0
  -27.5087  -23.9766   19.5170 C   0  0  0  0  0  0  0  0  0  0  0  0
  -30.7703  -31.1808   20.1648 C   0  0  0  0  0  0  0  0  0  0  0  0
  -26.2925  -21.9877   20.4192 C   0  0  0  0  0  0  0  0  0  0  0  0
  -21.0088  -27.8963   20.0924 C   0  0  0  0  0  0  0  0  0  0  0  0
  -22.4704  -27.3565   17.2473 C   0  0  0  0  0  0  0  0  0  0  0  0
  -25.2150  -27.8044   15.2691 C   0  0  0  0  0  0  0  0  0  0  0  0
  -31.3066  -28.2172   19.5878 C   0  0  0  0  0  0  0  0  0  0  0  0
  -16.2631  -27.6732   21.9594 C   0  0  0  0  0  0  0  0  0  0  0  0
  -21.6915  -30.2301   19.4265 C   0  0  0  0  0  0  0  0  0  0  0  0
  -23.9078  -28.3009   19.0932 C   0  0  0  0  0  0  0  0  0  0  0  0
  -17.0196  -27.0003   20.8169 C   0  0  0  0  0  0  0  0  0  0  0  0
  -30.3168  -26.6731   16.4679 C   0  0  0  0  0  0  0  0  0  0  0  0
  -18.3573  -26.4573   21.3093 C   0  0  0  0  0  0  0  0  0  0  0  0
  -29.6639  -25.3808   16.9618 C   0  0  0  0  0  0  0  0  0  0  0  0
  -31.5303  -27.0391   17.3174 C   0  0  0  0  0  0  0  0  0  0  0  0
  -30.5966  -25.8638   19.2720 C   0  0  0  0  0  0  0  0  0  0  0  0
  -19.2539  -27.5876   21.8290 C   0  0  1  0  0  0  0  0  0  0  0  0
  -21.4455  -28.7952   18.9704 C   0  0  1  0  0  0  0  0  0  0  0  0
  -29.3500  -25.4518   18.4680 C   0  0  2  0  0  0  0  0  0  0  0  0
  -26.1323  -27.2129   13.0094 C   0  0  0  0  0  0  0  0  0  0  0  0
  -33.0320  -30.1813   20.9094 C   0  0  0  0  0  0  0  0  0  0  0  0
  -32.8592  -31.5481   18.8336 C   0  0  0  0  0  0  0  0  0  0  0  0
  -23.0654  -24.5302   18.2313 C   0  0  0  0  0  0  0  0  0  0  0  0
  -24.7534  -24.3209   16.3942 C   0  0  0  0  0  0  0  0  0  0  0  0
  -22.3468  -24.6727   15.8402 C   0  0  0  0  0  0  0  0  0  0  0  0
  -29.7962  -31.5310   17.9145 C   0  0  0  0  0  0  0  0  0  0  0  0
  -25.3939  -30.6481   14.4689 C   0  0  0  0  0  0  0  0  0  0  0  0
  -28.4351  -32.3529   22.7116 C   0  0  0  0  0  0  0  0  0  0  0  0
  -26.9179  -32.2639   22.5889 C   0  0  0  0  0  0  0  0  0  1  0  0
  -23.6901  -26.5869   16.8010 C   0  0  1  0  0  0  0  0  0  0  0  0
  -25.3528  -28.2364   13.8203 C   0  0  2  0  0  0  0  0  0  0  0  0
  -32.0611  -30.5754   19.7521 C   0  0  0  0  0  0  0  0  0  0  0  0
  -23.4658  -25.0488   16.8357 C   0  0  0  0  0  0  0  0  0  0  0  0
  -29.4811  -23.0301   18.9157 N   0  0  0  0  0  0  0  0  0  0  0  0
  -29.7849  -31.5963   19.3625 N   0  0  0  0  0  0  0  0  0  0  0  0
  -28.7490  -24.1553   18.9787 N   0  0  0  0  0  0  0  0  0  0  0  0
  -30.3878  -31.4082   21.4255 N   0  3  0  0  0  0  0  0  0  0  0  0
  -22.6315  -28.1821   18.3690 N   0  0  0  0  0  0  0  0  0  0  0  0
  -31.1597  -27.1084   18.7379 N   0  0  0  0  0  0  0  0  0  0  0  0
  -26.6432  -25.0034   19.6547 N   0  0  0  0  0  0  0  0  0  0  0  0
  -26.3728  -20.6114   20.6712 N   0  0  0  0  0  0  0  0  0  0  0  0
  -19.8509  -28.3075   20.7246 N   0  0  0  0  0  0  0  0  0  0  0  0
  -24.0438  -27.1097   15.4857 N   0  0  0  0  0  0  0  0  0  0  0  0
  -31.8540  -29.3542   19.0060 N   0  0  0  0  0  0  0  0  0  0  0  0
  -26.0634  -29.5436   13.7349 N   0  3  0  0  0  0  0  0  0  0  0  0
  -25.2361  -22.6028   20.7007 O   0  0  0  0  0  0  0  0  0  0  0  0
  -21.6724  -26.9024   20.3635 O   0  0  0  0  0  0  0  0  0  0  0  0
  -21.4156  -27.2352   16.6194 O   0  0  0  0  0  0  0  0  0  0  0  0
  -26.0634  -28.0547   16.1224 O   0  0  0  0  0  0  0  0  0  0  0  0
  -30.9696  -28.1975   20.7765 O   0  0  0  0  0  0  0  0  0  0  0  0
  -30.3461  -16.7921   19.8581 O   0  0  0  0  0  0  0  0  0  0  0  0
  -26.5370  -30.9242   22.2781 O   0  0  0  0  0  0  0  0  0  1  0  0
  -26.8070  -12.8538   18.3192 F   0  0  0  0  0  0  0  0  0  0  0  0
  -30.9805  -15.0312   17.8236 F   0  0  0  0  0  0  0  0  0  0  0  0
  1  2  1  0  0  0  0
  1  5  2  0  0  0  0
  2  6  2  0  0  0  0
  3  8  2  0  0  0  0
  3 16  1  0  0  0  0
  4  9  1  0  0  0  0
  4 16  2  0  0  0  0
  5 18  1  0  0  0  0
  6 20  1  0  0  0  0
  7 10  2  0  0  0  0
  7 19  1  0  0  0  0
  8 22  1  0  0  0  0
  9 22  2  0  0  0  0
 10 23  1  0  0  0  0
 11 12  2  0  0  0  0
 11 24  1  0  0  0  0
 12 25  1  0  0  0  0
 13 21  1  0  0  0  0
 13 23  2  0  0  0  0
 14 25  2  0  0  0  0
 14 26  1  0  0  0  0
 15 28  2  0  0  0  0
 15 63  1  0  0  0  0
 16 27  1  0  0  0  0
 17 27  1  0  0  0  0
 17 29  2  0  0  0  0
 17 31  1  0  0  0  0
 18 20  2  0  0  0  0
 18 36  1  0  0  0  0
 19 21  2  0  0  0  0
 19 37  1  0  0  0  0
 20 45  1  0  0  0  0
 21 38  1  0  0  0  0
 22 79  1  0  0  0  0
 23 80  1  0  0  0  0
 24 26  2  0  0  0  0
 24 79  1  0  0  0  0
 25 81  1  0  0  0  0
 26 82  1  0  0  0  0
 27 62  2  0  0  0  0
 28 56  1  0  0  0  0
 28 65  1  0  0  0  0
 29 64  1  0  0  0  0
 29 68  1  0  0  0  0
 30 60  1  0  0  0  0
 30 63  1  0  0  0  0
 30 65  2  0  0  0  0
 31 69  1  0  0  0  0
 31 74  2  0  0  0  0
 32 46  1  0  0  0  0
 32 70  1  0  0  0  0
 32 75  2  0  0  0  0
 33 58  1  0  0  0  0
 33 66  1  0  0  0  0
 33 76  2  0  0  0  0
 34 59  1  0  0  0  0
 34 71  1  0  0  0  0
 34 77  2  0  0  0  0
 35 67  1  0  0  0  0
 35 72  1  0  0  0  0
 35 78  2  0  0  0  0
 36 39  1  0  0  0  0
 37 46  1  0  0  0  0
 38 66  1  0  0  0  0
 39 41  1  0  0  0  0
 40 42  1  0  0  0  0
 40 43  1  0  0  0  0
 41 45  1  0  0  0  0
 42 47  1  0  0  0  0
 43 67  1  0  0  0  0
 44 47  1  0  0  0  0
 44 67  1  0  0  0  0
 45 70  1  0  0  0  0
 46 66  1  0  0  0  0
 47 64  1  0  0  0  0
 48 59  1  0  0  0  0
 49 60  1  0  0  0  0
 50 60  1  0  0  0  0
 51 61  1  0  0  0  0
 52 61  1  0  0  0  0
 53 61  1  0  0  0  0
 54 63  1  0  0  0  0
 55 73  1  0  0  0  0
 56 57  1  0  0  0  0
 57 80  1  0  0  0  0
 58 61  1  0  0  0  0
 58 71  1  0  0  0  0
 59 73  1  0  0  0  0
 60 72  1  0  0  0  0
 62 64  1  0  0  0  0
M  CHG  2  65   1  73   1
M  ISO  4  35 100  57 101  72 100  80 101
M  END
> <Batch ID>
0056

> <Smiles>
CNC(C)C(=O)NC(C(=O)N1Cc2cc([101O:1][101CH2:1]Cc3cn(C)c(C(C)(C)[100NH:0][100C:0](=O)N4CCCC(n5nc(-c6ccc(Oc7ccc(F)cc7F)cc6)c(C(N)=O)c5N)C4)n3)ccc2CC1C(=O)NC1CCCc2ccccc21)C(C)(C)C

> <Shape>
0.230

> <Color>
0.053

> <Negative vol penalty>
0.000

$$$$

  -OEChem-04052317463D

 82 90  0     1  0  0  0  0  0999 V2000
  -15.4174  -22.7361   20.9713 C   0  0  0  0  0  0  0  0  0  0  0  0
  -16.3383  -21.6970   21.0581 C   0  0  0  0  0  0  0  0  0  0  0  0
  -23.1264  -10.1453   22.0765 C   0  0  0  0  0  0  0  0  0  0  0  0
  -23.7751   -9.4597   19.8525 C   0  0  0  0  0  0  0  0  0  0  0  0
  -15.5991  -23.8922   21.7292 C   0  0  0  0  0  0  0  0  0  0  0  0
  -17.4421  -21.8138   21.9020 C   0  0  0  0  0  0  0  0  0  0  0  0
  -20.1351  -17.3268   25.0833 C   0  0  0  0  0  0  0  0  0  0  0  0
  -22.3839   -8.9735   22.2212 C   0  0  0  0  0  0  0  0  0  0  0  0
  -23.0326   -8.2878   19.9972 C   0  0  0  0  0  0  0  0  0  0  0  0
  -21.2707  -16.5555   24.8398 C   0  0  0  0  0  0  0  0  0  0  0  0
  -22.9783   -5.7173   22.9117 C   0  0  0  0  0  0  0  0  0  0  0  0
  -23.1015   -5.0158   24.1110 C   0  0  0  0  0  0  0  0  0  0  0  0
  -22.5762  -18.0580   26.2027 C   0  0  0  0  0  0  0  0  0  0  0  0
  -20.7353   -5.2902   24.5146 C   0  0  0  0  0  0  0  0  0  0  0  0
  -26.6705  -14.0127   23.9779 C   0  0  0  0  0  0  0  0  0  0  0  0
  -23.8220  -10.3885   20.8921 C   0  0  0  0  0  0  0  0  0  0  0  0
  -24.1102  -12.9216   20.8033 C   0  0  0  0  0  0  0  0  0  0  0  0
  -16.7006  -24.0192   22.5901 C   0  0  0  0  0  0  0  0  0  0  0  0
  -20.2139  -18.4776   25.8808 C   0  0  0  0  0  0  0  0  0  0  0  0
  -17.6396  -22.9732   22.6711 C   0  0  0  0  0  0  0  0  0  0  0  0
  -21.4396  -18.8408   26.4569 C   0  0  0  0  0  0  0  0  0  0  0  0
  -22.3370   -8.0447   21.1816 C   0  0  0  0  0  0  0  0  0  0  0  0
  -22.4920  -16.9226   25.3972 C   0  0  0  0  0  0  0  0  0  0  0  0
  -21.7336   -6.2053   22.5139 C   0  0  0  0  0  0  0  0  0  0  0  0
  -21.9800   -4.8022   24.9124 C   0  0  0  0  0  0  0  0  0  0  0  0
  -20.6121   -5.9918   23.3154 C   0  0  0  0  0  0  0  0  0  0  0  0
  -24.5887  -11.5991   20.7417 C   0  0  0  0  0  0  0  0  0  0  0  0
  -27.8790  -14.0039   24.6390 C   0  0  0  0  0  0  0  0  0  0  0  0
  -27.1328  -15.6631   26.0248 C   0  0  0  0  0  0  0  0  0  0  0  0
  -25.9246  -15.6723   25.3631 C   0  0  0  0  0  0  0  0  0  0  0  0
  -25.2238  -13.6995   20.6003 C   0  0  0  0  0  0  0  0  0  0  0  0
  -22.7781  -13.4038   21.0243 C   0  0  0  0  0  0  0  0  0  0  0  0
  -19.7002  -21.5777   25.4023 C   0  0  0  0  0  0  0  0  0  0  0  0
  -20.2051  -21.7571   28.6015 C   0  0  0  0  0  0  0  0  0  0  0  0
  -21.6049  -20.3848   31.3951 C   0  0  0  0  0  0  0  0  0  0  0  0
  -31.1080  -12.2211   21.4539 C   0  0  0  0  0  0  0  0  0  0  0  0
  -16.8802  -25.3073   23.3540 C   0  0  0  0  0  0  0  0  0  0  0  0
  -18.9743  -19.2840   26.1557 C   0  0  0  0  0  0  0  0  0  0  0  0
  -21.5732  -20.0558   27.3368 C   0  0  0  0  0  0  0  0  0  0  0  0
  -17.8758  -25.1985   24.5060 C   0  0  0  0  0  0  0  0  0  0  0  0
  -29.4917  -13.6612   18.4513 C   0  0  0  0  0  0  0  0  0  0  0  0
  -19.1438  -24.4836   24.0501 C   0  0  0  0  0  0  0  0  0  0  0  0
  -28.0161  -13.3385   18.6802 C   0  0  0  0  0  0  0  0  0  0  0  0
  -30.4062  -12.6430   19.1256 C   0  0  0  0  0  0  0  0  0  0  0  0
  -28.6648  -12.1414   20.8078 C   0  0  0  0  0  0  0  0  0  0  0  0
  -18.8364  -23.0522   23.5938 C   0  0  1  0  0  0  0  0  0  0  0  0
  -19.2757  -20.7230   26.5628 C   0  0  1  0  0  0  0  0  0  0  0  0
  -27.7167  -13.1744   20.1805 C   0  0  2  0  0  0  0  0  0  0  0  0
  -27.3992  -16.5806   27.1689 C   0  0  0  0  0  0  0  0  0  0  0  0
  -21.8794  -20.7798   33.8581 C   0  0  0  0  0  0  0  0  0  0  0  0
  -22.3158  -23.8832   28.0229 C   0  0  0  0  0  0  0  0  0  0  0  0
  -23.1918  -23.5455   30.3438 C   0  0  0  0  0  0  0  0  0  0  0  0
  -20.8618  -24.3673   29.9993 C   0  0  0  0  0  0  0  0  0  0  0  0
  -31.9878  -12.4665   23.7441 C   0  0  0  0  0  0  0  0  0  0  0  0
  -20.1856  -17.8778   32.0731 C   0  0  0  0  0  0  0  0  0  0  0  0
  -28.9602  -13.0689   24.2239 C   0  0  0  0  0  0  0  0  0  0  0  0
  -24.8205  -16.6062   25.7632 C   0  0  0  0  0  0  0  0  0  1  0  0
  -29.9026  -13.6484   23.1605 C   0  0  0  0  0  0  0  0  0  0  0  0
  -21.4141  -21.9546   29.4836 C   0  0  1  0  0  0  0  0  0  0  0  0
  -21.0386  -20.1171   32.7779 C   0  0  2  0  0  0  0  0  0  0  0  0
  -21.9441  -23.4158   29.4443 C   0  0  0  0  0  0  0  0  0  0  0  0
  -25.6716  -14.8471   24.3281 N   0  0  0  0  0  0  0  0  0  0  0  0
  -25.9039  -11.5366   20.5170 N   0  0  0  0  0  0  0  0  0  0  0  0
  -28.1318  -14.8290   25.6744 N   0  0  0  0  0  0  0  0  0  0  0  0
  -26.2612  -12.8296   20.4355 N   0  0  0  0  0  0  0  0  0  0  0  0
  -20.3339  -20.8154   27.5708 N   0  0  0  0  0  0  0  0  0  0  0  0
  -30.0719  -12.4748   20.5402 N   0  0  0  0  0  0  0  0  0  0  0  0
  -25.4070  -15.0360   20.5484 N   0  0  0  0  0  0  0  0  0  0  0  0
  -22.3657  -13.6473   22.3415 N   0  0  0  0  0  0  0  0  0  0  0  0
  -18.6520  -22.1856   24.7381 N   0  0  0  0  0  0  0  0  0  0  0  0
  -21.0289  -21.4943   30.8133 N   0  0  0  0  0  0  0  0  0  0  0  0
  -30.9362  -12.6947   22.7634 N   0  0  0  0  0  0  0  0  0  0  0  0
  -20.9984  -18.6518   33.0464 N   0  3  0  0  0  0  0  0  0  0  0  0
  -21.9719  -13.5969   20.0829 O   0  0  0  0  0  0  0  0  0  0  0  0
  -20.8908  -21.6794   25.1304 O   0  0  0  0  0  0  0  0  0  0  0  0
  -19.1816  -22.4090   28.8234 O   0  0  0  0  0  0  0  0  0  0  0  0
  -22.4741  -19.6823   30.8839 O   0  0  0  0  0  0  0  0  0  0  0  0
  -32.1327  -11.6147   21.1158 O   0  0  0  0  0  0  0  0  0  0  0  0
  -21.6127   -6.9009   21.3226 O   0  0  0  0  0  0  0  0  0  0  0  0
  -23.6021  -16.1719   25.1606 O   0  0  0  0  0  0  0  0  0  1  0  0
  -22.0982   -4.1271   26.0633 F   0  0  0  0  0  0  0  0  0  0  0  0
  -19.4135   -6.4572   22.9379 F   0  0  0  0  0  0  0  0  0  0  0  0
  1  2  1  0  0  0  0
  1  5  2  0  0  0  0
  2  6  2  0  0  0  0
  3  8  2  0  0  0  0
  3 16  1  0  0  0  0
  4  9  1  0  0  0  0
  4 16  2  0  0  0  0
  5 18  1  0  0  0  0
  6 20  1  0  0  0  0
  7 10  2  0  0  0  0
  7 19  1  0  0  0  0
  8 22  1  0  0  0  0
  9 22  2  0  0  0  0
 10 23  1  0  0  0  0
 11 12  2  0  0  0  0
 11 24  1  0  0  0  0
 12 25  1  0  0  0  0
 13 21  1  0  0  0  0
 13 23  2  0  0  0  0
 14 25  2  0  0  0  0
 14 26  1  0  0  0  0
 15 28  1  0  0  0  0
 15 62  2  0  0  0  0
 16 27  1  0  0  0  0
 17 27  1  0  0  0  0
 17 31  2  0  0  0  0
 17 32  1  0  0  0  0
 18 20  2  0  0  0  0
 18 37  1  0  0  0  0
 19 21  2  0  0  0  0
 19 38  1  0  0  0  0
 20 46  1  0  0  0  0
 21 39  1  0  0  0  0
 22 79  1  0  0  0  0
 23 80  1  0  0  0  0
 24 26  2  0  0  0  0
 24 79  1  0  0  0  0
 25 81  1  0  0  0  0
 26 82  1  0  0  0  0
 27 63  2  0  0  0  0
 28 56  1  0  0  0  0
 28 64  2  0  0  0  0
 29 30  2  0  0  0  0
 29 49  1  0  0  0  0
 29 64  1  0  0  0  0
 30 57  1  0  0  0  0
 30 62  1  0  0  0  0
 31 65  1  0  0  0  0
 31 68  1  0  0  0  0
 32 69  1  0  0  0  0
 32 74  2  0  0  0  0
 33 47  1  0  0  0  0
 33 70  1  0  0  0  0
 33 75  2  0  0  0  0
 34 59  1  0  0  0  0
 34 66  1  0  0  0  0
 34 76  2  0  0  0  0
 35 60  1  0  0  0  0
 35 71  1  0  0  0  0
 35 77  2  0  0  0  0
 36 67  1  0  0  0  0
 36 72  1  0  0  0  0
 36 78  2  0  0  0  0
 37 40  1  0  0  0  0
 38 47  1  0  0  0  0
 39 66  1  0  0  0  0
 40 42  1  0  0  0  0
 41 43  1  0  0  0  0
 41 44  1  0  0  0  0
 42 46  1  0  0  0  0
 43 48  1  0  0  0  0
 44 67  1  0  0  0  0
 45 48  1  0  0  0  0
 45 67  1  0  0  0  0
 46 70  1  0  0  0  0
 47 66  1  0  0  0  0
 48 65  1  0  0  0  0
 50 60  1  0  0  0  0
 51 61  1  0  0  0  0
 52 61  1  0  0  0  0
 53 61  1  0  0  0  0
 54 72  1  0  0  0  0
 55 73  1  0  0  0  0
 56 58  1  0  0  0  0
 57 80  1  0  0  0  0
 58 72  1  0  0  0  0
 59 61  1  0  0  0  0
 59 71  1  0  0  0  0
 60 73  1  0  0  0  0
 63 65  1  0  0  0  0
M  CHG  1  73   1
M  ISO  4  36 100  57 101  72 100  80 101
M  END
> <Batch ID>
0056

> <Smiles>
CNC(C)C(=O)NC(C(=O)N1Cc2cc([101O:1][101CH2:1]c3ncc(CC[100N:0](C)[100C:0](=O)N4CCCC(n5nc(-c6ccc(Oc7ccc(F)cc7F)cc6)c(C(N)=O)c5N)C4)nc3C)ccc2CC1C(=O)NC1CCCc2ccccc21)C(C)(C)C

> <Shape>
0.140

> <Color>
0.178

> <Negative vol penalty>
0.000

$$$$

  -OEChem-04052317463D

 83 91  0     1  0  0  0  0  0999 V2000
  -17.8406  -23.9434   24.0699 C   0  0  0  0  0  0  0  0  0  0  0  0
  -19.0681  -23.2957   24.1648 C   0  0  0  0  0  0  0  0  0  0  0  0
  -26.9909  -12.6016   21.1828 C   0  0  0  0  0  0  0  0  0  0  0  0
  -26.5338  -13.4183   18.9554 C   0  0  0  0  0  0  0  0  0  0  0  0
  -17.6880  -25.0216   23.1992 C   0  0  0  0  0  0  0  0  0  0  0  0
  -20.1436  -23.7252   23.3881 C   0  0  0  0  0  0  0  0  0  0  0  0
  -27.2830  -24.2870   23.5619 C   0  0  0  0  0  0  0  0  0  0  0  0
  -26.3201  -11.4154   20.8855 C   0  0  0  0  0  0  0  0  0  0  0  0
  -25.8630  -12.2320   18.6581 C   0  0  0  0  0  0  0  0  0  0  0  0
  -28.4089  -23.9440   22.8146 C   0  0  0  0  0  0  0  0  0  0  0  0
  -24.4161   -8.3177   20.8293 C   0  0  0  0  0  0  0  0  0  0  0  0
  -23.5223   -7.8211   21.7780 C   0  0  0  0  0  0  0  0  0  0  0  0
  -28.0508  -25.8676   21.4036 C   0  0  0  0  0  0  0  0  0  0  0  0
  -22.2239   -9.8522   21.6180 C   0  0  0  0  0  0  0  0  0  0  0  0
  -28.5618  -21.1507   17.5765 C   0  0  0  0  0  0  0  0  0  0  0  0
  -27.0977  -13.6031   20.2177 C   0  0  0  0  0  0  0  0  0  0  0  0
  -29.1595  -15.1002   20.3426 C   0  0  0  0  0  0  0  0  0  0  0  0
  -18.7649  -25.4706   22.4186 C   0  0  0  0  0  0  0  0  0  0  0  0
  -26.5250  -25.4187   23.2284 C   0  0  0  0  0  0  0  0  0  0  0  0
  -20.0050  -24.8095   22.5051 C   0  0  0  0  0  0  0  0  0  0  0  0
  -26.9172  -26.2242   22.1498 C   0  0  0  0  0  0  0  0  0  0  0  0
  -25.7562  -11.2305   19.6232 C   0  0  0  0  0  0  0  0  0  0  0  0
  -28.7913  -24.7327   21.7335 C   0  0  0  0  0  0  0  0  0  0  0  0
  -24.2139   -9.5817   20.2750 C   0  0  0  0  0  0  0  0  0  0  0  0
  -22.4262   -8.5883   22.1724 C   0  0  0  0  0  0  0  0  0  0  0  0
  -23.1178  -10.3489   20.6693 C   0  0  0  0  0  0  0  0  0  0  0  0
  -27.7901  -14.8290   20.5244 C   0  0  0  0  0  0  0  0  0  0  0  0
  -28.8100  -22.3256   18.2283 C   0  0  0  0  0  0  0  0  0  0  0  0
  -29.3151  -16.3918   20.7833 C   0  0  0  0  0  0  0  0  0  0  0  0
  -26.6763  -21.8164   18.5262 C   0  0  0  0  0  0  0  0  0  0  0  0
  -30.1979  -14.2599   19.8219 C   0  0  0  0  0  0  0  0  0  0  0  0
  -23.5246  -25.9162   22.3043 C   0  0  0  0  0  0  0  0  0  0  0  0
  -24.3633  -29.0360   22.5964 C   0  0  0  0  0  0  0  0  0  0  0  0
  -26.8452  -31.3782   22.6275 C   0  0  0  0  0  0  0  0  0  0  0  0
  -25.7296  -21.0404   21.2427 C   0  0  0  0  0  0  0  0  0  0  0  0
  -18.5389  -26.6102   21.4568 C   0  0  0  0  0  0  0  0  0  0  0  0
  -25.3286  -25.7900   24.0609 C   0  0  0  0  0  0  0  0  0  0  0  0
  -26.1491  -27.4607   21.7630 C   0  0  0  0  0  0  0  0  0  0  0  0
  -19.8314  -27.2406   20.9448 C   0  0  0  0  0  0  0  0  0  0  0  0
  -27.4763  -19.5603   23.8473 C   0  0  0  0  0  0  0  0  0  0  0  0
  -20.8187  -26.1601   20.5152 C   0  0  0  0  0  0  0  0  0  0  0  0
  -27.8913  -18.2010   23.2858 C   0  0  0  0  0  0  0  0  0  0  0  0
  -26.0561  -19.9141   23.4224 C   0  0  0  0  0  0  0  0  0  0  0  0
  -26.2656  -18.5617   21.3613 C   0  0  0  0  0  0  0  0  0  0  0  0
  -21.2021  -25.2616   21.6973 C   0  0  1  0  0  0  0  0  0  0  0  0
  -24.3344  -26.6760   23.3165 C   0  0  1  0  0  0  0  0  0  0  0  0
  -27.6986  -18.1528   21.7600 C   0  0  2  0  0  0  0  0  0  0  0  0
  -22.5220  -21.0701   20.2777 C   0  0  0  0  0  0  0  0  0  0  0  0
  -27.2187  -33.8499   22.8487 C   0  0  0  0  0  0  0  0  0  0  0  0
  -23.3837  -29.4377   19.7347 C   0  0  0  0  0  0  0  0  0  0  0  0
  -24.6273  -31.6102   19.6880 C   0  0  0  0  0  0  0  0  0  0  0  0
  -22.7673  -31.2747   21.3159 C   0  0  0  0  0  0  0  0  0  0  0  0
  -26.5489  -19.6925   17.2580 C   0  0  0  0  0  0  0  0  0  0  0  0
  -28.4933  -31.0288   25.0607 C   0  0  0  0  0  0  0  0  0  0  0  0
  -30.0711  -23.1400   18.3684 C   0  0  0  0  0  0  0  0  0  0  0  0
  -25.2634  -21.8878   18.9750 C   0  0  0  0  0  0  0  0  0  0  0  0
  -30.9181  -22.7597   19.5848 C   0  0  0  0  0  0  0  0  0  0  0  0
  -23.7255  -20.2151   19.9360 C   0  0  0  0  0  0  0  0  0  0  0  0
  -30.2149  -23.0133   20.9132 C   0  0  0  0  0  0  0  0  0  1  0  0
  -24.9621  -30.0727   21.6768 C   0  0  1  0  0  0  0  0  0  0  0  0
  -27.1405  -32.5204   23.5829 C   0  0  2  0  0  0  0  0  0  0  0  0
  -23.9487  -30.5745   20.6097 C   0  0  0  0  0  0  0  0  0  0  0  0
  -27.1233  -15.8649   21.0405 N   0  0  0  0  0  0  0  0  0  0  0  0
  -27.2342  -20.8591   17.7780 N   0  0  0  0  0  0  0  0  0  0  0  0
  -28.0777  -16.7996   21.1868 N   0  0  0  0  0  0  0  0  0  0  0  0
  -27.6258  -22.7148   18.8066 N   0  3  0  0  0  0  0  0  0  0  0  0
  -24.9831  -27.7784   22.6039 N   0  0  0  0  0  0  0  0  0  0  0  0
  -25.9077  -19.8531   21.9681 N   0  0  0  0  0  0  0  0  0  0  0  0
  -30.3883  -17.2070   20.8612 N   0  0  0  0  0  0  0  0  0  0  0  0
  -29.8650  -12.9608   19.4147 N   0  0  0  0  0  0  0  0  0  0  0  0
  -22.1645  -25.9287   22.5478 N   0  0  0  0  0  0  0  0  0  0  0  0
  -25.4930  -31.1242   22.5376 N   0  0  0  0  0  0  0  0  0  0  0  0
  -24.9742  -20.9642   20.0628 N   0  0  0  0  0  0  0  0  0  0  0  0
  -28.4381  -32.2910   24.2791 N   0  3  0  0  0  0  0  0  0  0  0  0
  -31.3890  -14.6439   19.7360 O   0  0  0  0  0  0  0  0  0  0  0  0
  -24.0917  -25.3610   21.3705 O   0  0  0  0  0  0  0  0  0  0  0  0
  -23.3862  -29.3334   23.2881 O   0  0  0  0  0  0  0  0  0  0  0  0
  -27.7258  -30.7745   22.0187 O   0  0  0  0  0  0  0  0  0  0  0  0
  -26.2119  -22.1122   21.6309 O   0  0  0  0  0  0  0  0  0  0  0  0
  -25.1017  -10.0730   19.3327 O   0  0  0  0  0  0  0  0  0  0  0  0
  -29.8895  -24.3998   21.0020 O   0  0  0  0  0  0  0  0  0  1  0  0
  -21.5671   -8.1106   23.0823 F   0  0  0  0  0  0  0  0  0  0  0  0
  -22.9176  -11.5634   20.1395 F   0  0  0  0  0  0  0  0  0  0  0  0
  1  2  1  0  0  0  0
  1  5  2  0  0  0  0
  2  6  2  0  0  0  0
  3  8  2  0  0  0  0
  3 16  1  0  0  0  0
  4  9  1  0  0  0  0
  4 16  2  0  0  0  0
  5 18  1  0  0  0  0
  6 20  1  0  0  0  0
  7 10  2  0  0  0  0
  7 19  1  0  0  0  0
  8 22  1  0  0  0  0
  9 22  2  0  0  0  0
 10 23  1  0  0  0  0
 11 12  2  0  0  0  0
 11 24  1  0  0  0  0
 12 25  1  0  0  0  0
 13 21  1  0  0  0  0
 13 23  2  0  0  0  0
 14 25  2  0  0  0  0
 14 26  1  0  0  0  0
 15 28  2  0  0  0  0
 15 64  1  0  0  0  0
 16 27  1  0  0  0  0
 17 27  1  0  0  0  0
 17 29  2  0  0  0  0
 17 31  1  0  0  0  0
 18 20  2  0  0  0  0
 18 36  1  0  0  0  0
 19 21  2  0  0  0  0
 19 37  1  0  0  0  0
 20 45  1  0  0  0  0
 21 38  1  0  0  0  0
 22 80  1  0  0  0  0
 23 81  1  0  0  0  0
 24 26  2  0  0  0  0
 24 80  1  0  0  0  0
 25 82  1  0  0  0  0
 26 83  1  0  0  0  0
 27 63  2  0  0  0  0
 28 55  1  0  0  0  0
 28 66  1  0  0  0  0
 29 65  1  0  0  0  0
 29 69  1  0  0  0  0
 30 56  1  0  0  0  0
 30 64  1  0  0  0  0
 30 66  2  0  0  0  0
 31 70  1  0  0  0  0
 31 75  2  0  0  0  0
 32 46  1  0  0  0  0
 32 71  1  0  0  0  0
 32 76  2  0  0  0  0
 33 60  1  0  0  0  0
 33 67  1  0  0  0  0
 33 77  2  0  0  0  0
 34 61  1  0  0  0  0
 34 72  1  0  0  0  0
 34 78  2  0  0  0  0
 35 68  1  0  0  0  0
 35 73  1  0  0  0  0
 35 79  2  0  0  0  0
 36 39  1  0  0  0  0
 37 46  1  0  0  0  0
 38 67  1  0  0  0  0
 39 41  1  0  0  0  0
 40 42  1  0  0  0  0
 40 43  1  0  0  0  0
 41 45  1  0  0  0  0
 42 47  1  0  0  0  0
 43 68  1  0  0  0  0
 44 47  1  0  0  0  0
 44 68  1  0  0  0  0
 45 71  1  0  0  0  0
 46 67  1  0  0  0  0
 47 65  1  0  0  0  0
 48 58  1  0  0  0  0
 49 61  1  0  0  0  0
 50 62  1  0  0  0  0
 51 62  1  0  0  0  0
 52 62  1  0  0  0  0
 53 64  1  0  0  0  0
 54 74  1  0  0  0  0
 55 57  1  0  0  0  0
 56 73  1  0  0  0  0
 57 59  1  0  0  0  0
 58 73  1  0  0  0  0
 59 81  1  0  0  0  0
 60 62  1  0  0  0  0
 60 72  1  0  0  0  0
 61 74  1  0  0  0  0
 63 65  1  0  0  0  0
M  CHG  2  66   1  74   1
M  ISO  4  35 100  59 101  73 100  81 101
M  END
> <Batch ID>
0056

> <Smiles>
CC[100N:0](Cc1nc(CC[101CH2:1][101O:1]c2ccc3c(c2)CN(C(=O)C(NC(=O)C(C)NC)C(C)(C)C)C(C(=O)NC2CCCc4ccccc42)C3)cn1C)[100C:0](=O)N1CCCC(n2nc(-c3ccc(Oc4ccc(F)cc4F)cc3)c(C(N)=O)c2N)C1

> <Shape>
0.233

> <Color>
0.059

> <Negative vol penalty>
0.000

$$$$

  -OEChem-04052317463D

 90 99  0     1  0  0  0  0  0999 V2000
  -29.2684  -11.6424   19.3546 C   0  0  0  0  0  0  0  0  0  0  0  0
  -28.5742  -12.3412   18.3722 C   0  0  0  0  0  0  0  0  0  0  0  0
  -25.8283  -29.6439   21.5412 C   0  0  0  0  0  0  0  0  0  0  0  0
  -23.7042  -29.8500   20.4087 C   0  0  0  0  0  0  0  0  0  0  0  0
  -29.4783  -12.2230   20.6047 C   0  0  0  0  0  0  0  0  0  0  0  0
  -28.0885  -13.6206   18.6397 C   0  0  0  0  0  0  0  0  0  0  0  0
  -27.6741  -18.2978   14.7081 C   0  0  0  0  0  0  0  0  0  0  0  0
  -25.3743  -30.4959   22.5479 C   0  0  0  0  0  0  0  0  0  0  0  0
  -23.2501  -30.7020   21.4154 C   0  0  0  0  0  0  0  0  0  0  0  0
  -26.6125  -18.8006   13.9570 C   0  0  0  0  0  0  0  0  0  0  0  0
  -24.9507  -33.8194   22.9946 C   0  0  0  0  0  0  0  0  0  0  0  0
  -25.8116  -34.8286   23.4257 C   0  0  0  0  0  0  0  0  0  0  0  0
  -26.1841  -20.4417   15.6723 C   0  0  0  0  0  0  0  0  0  0  0  0
  -25.7630  -33.9149   25.6618 C   0  0  0  0  0  0  0  0  0  0  0  0
  -24.1300  -24.7646    9.5866 C   0  0  0  0  0  0  0  0  0  0  0  0
  -23.3671  -21.3091   10.7464 C   0  0  0  0  0  0  0  0  0  0  0  0
  -24.9933  -29.3210   20.4716 C   0  0  0  0  0  0  0  0  0  0  0  0
  -26.5697  -28.6396   18.5852 C   0  0  0  0  0  0  0  0  0  0  0  0
  -29.0033  -13.5140   20.8845 C   0  0  0  0  0  0  0  0  0  0  0  0
  -27.9923  -18.8571   15.9540 C   0  0  0  0  0  0  0  0  0  0  0  0
  -28.2910  -14.2184   19.8952 C   0  0  0  0  0  0  0  0  0  0  0  0
  -27.2517  -19.9459   16.4361 C   0  0  0  0  0  0  0  0  0  0  0  0
  -24.0852  -31.0250   22.4851 C   0  0  0  0  0  0  0  0  0  0  0  0
  -25.8655  -19.8708   14.4404 C   0  0  0  0  0  0  0  0  0  0  0  0
  -24.4958  -32.8580   23.8971 C   0  0  0  0  0  0  0  0  0  0  0  0
  -26.2178  -34.8764   24.7592 C   0  0  0  0  0  0  0  0  0  0  0  0
  -24.9020  -32.9058   25.2306 C   0  0  0  0  0  0  0  0  0  0  0  0
  -25.4620  -28.4414   19.4310 C   0  0  0  0  0  0  0  0  0  0  0  0
  -25.3377  -25.0212   10.2030 C   0  0  0  0  0  0  0  0  0  0  0  0
  -23.1025  -24.3798   10.4234 C   0  0  0  0  0  0  0  0  0  0  0  0
  -23.4099  -20.4336   11.7946 C   0  0  0  0  0  0  0  0  0  0  0  0
  -26.5899  -27.5275   17.7795 C   0  0  0  0  0  0  0  0  0  0  0  0
  -21.2943  -20.9896   11.4549 C   0  0  0  0  0  0  0  0  0  0  0  0
  -24.4589  -24.5305   12.2412 C   0  0  0  0  0  0  0  0  0  0  0  0
  -27.4975  -29.7314   18.5326 C   0  0  0  0  0  0  0  0  0  0  0  0
  -28.0594  -17.7815   18.9443 C   0  0  0  0  0  0  0  0  0  0  0  0
  -29.3356  -20.7009   19.5531 C   0  0  0  0  0  0  0  0  0  0  0  0
  -29.6947  -23.9603   18.6073 C   0  0  0  0  0  0  0  0  0  0  0  0
  -23.5709  -24.0099   14.5073 C   0  0  0  0  0  0  0  0  0  0  0  0
  -29.2135  -14.0812   22.2661 C   0  0  0  0  0  0  0  0  0  0  0  0
  -29.1572  -18.3205   16.7397 C   0  0  0  0  0  0  0  0  0  0  0  0
  -27.5655  -20.5950   17.7584 C   0  0  0  0  0  0  0  0  0  0  0  0
  -28.9919  -15.5895   22.3455 C   0  0  0  0  0  0  0  0  0  0  0  0
  -24.0359  -23.1818   18.0722 C   0  0  0  0  0  0  0  0  0  0  0  0
  -27.7030  -15.9782   21.6282 C   0  0  0  0  0  0  0  0  0  0  0  0
  -24.4753  -24.5142   18.6767 C   0  0  0  0  0  0  0  0  0  0  0  0
  -23.1281  -23.3803   16.8620 C   0  0  0  0  0  0  0  0  0  0  0  0
  -24.1570  -25.5868   16.4110 C   0  0  0  0  0  0  0  0  0  0  0  0
  -27.7702  -15.6182   20.1391 C   0  0  1  0  0  0  0  0  0  0  0  0
  -29.0686  -18.6352   18.2299 C   0  0  1  0  0  0  0  0  0  0  0  0
  -25.1075  -25.4205   17.6063 C   0  0  1  0  0  0  0  0  0  0  0  0
  -26.5080  -25.4436    9.3800 C   0  0  0  0  0  0  0  0  0  0  0  0
  -19.8188  -21.0607   11.5992 C   0  0  0  0  0  0  0  0  0  0  0  0
  -30.5573  -26.3164   18.6525 C   0  0  0  0  0  0  0  0  0  0  0  0
  -21.3941  -24.8797    8.5485 C   0  0  0  0  0  0  0  0  0  0  0  0
  -20.6311  -24.4781   10.8629 C   0  0  0  0  0  0  0  0  0  0  0  0
  -27.1676  -21.0690   21.6684 C   0  0  0  0  0  0  0  0  0  0  0  0
  -27.6796  -23.5197   21.6665 C   0  0  0  0  0  0  0  0  0  0  0  0
  -29.4340  -21.8814   22.3451 C   0  0  0  0  0  0  0  0  0  0  0  0
  -25.9966  -24.4558   14.2126 C   0  0  0  0  0  0  0  0  0  0  0  0
  -32.0086  -23.2691   16.8965 C   0  0  0  0  0  0  0  0  0  0  0  0
  -24.5612  -19.7352   12.4564 C   0  0  0  0  0  0  0  0  0  1  0  0
  -21.5484  -22.5422    9.5416 C   0  0  0  0  0  0  0  0  0  0  0  0
  -28.7785  -22.0579   19.9097 C   0  0  1  0  0  0  0  0  0  0  0  0
  -30.9213  -24.8479   18.4976 C   0  0  2  0  0  0  0  0  0  0  0  0
  -21.7156  -24.0708    9.8295 C   0  0  0  0  0  0  0  0  0  0  0  0
  -28.2575  -22.1188   21.3734 C   0  0  0  0  0  0  0  0  0  0  0  0
  -24.8246  -27.2936   19.1854 N   0  0  0  0  0  0  0  0  0  0  0  0
  -25.5382  -24.9138   11.5329 N   0  0  0  0  0  0  0  0  0  0  0  0
  -23.2323  -24.2519   11.7602 N   0  0  0  0  0  0  0  0  0  0  0  0
  -22.0459  -21.6361   10.5578 N   0  0  0  0  0  0  0  0  0  0  0  0
  -25.5340  -26.7607   18.1760 N   0  0  0  0  0  0  0  0  0  0  0  0
  -22.1136  -20.2543   12.2134 N   0  3  0  0  0  0  0  0  0  0  0  0
  -28.7099  -20.0304   18.4925 N   0  0  0  0  0  0  0  0  0  0  0  0
  -23.7331  -24.2818   15.8807 N   0  0  0  0  0  0  0  0  0  0  0  0
  -27.4076  -27.1404   16.7775 N   0  0  0  0  0  0  0  0  0  0  0  0
  -27.2057  -30.8164   17.6947 N   0  0  0  0  0  0  0  0  0  0  0  0
  -28.5682  -16.5881   19.4202 N   0  0  0  0  0  0  0  0  0  0  0  0
  -29.8307  -23.0229   19.6094 N   0  0  0  0  0  0  0  0  0  0  0  0
  -24.6355  -24.4050   13.6687 N   0  0  0  0  0  0  0  0  0  0  0  0
  -31.5771  -24.6637   17.1721 N   0  3  0  0  0  0  0  0  0  0  0  0
  -28.5621  -29.7371   19.1961 O   0  0  0  0  0  0  0  0  0  0  0  0
  -26.9050  -18.1769   19.0569 O   0  0  0  0  0  0  0  0  0  0  0  0
  -30.2952  -20.2554   20.1874 O   0  0  0  0  0  0  0  0  0  0  0  0
  -28.7126  -24.0882   17.8796 O   0  0  0  0  0  0  0  0  0  0  0  0
  -22.5678  -23.4332   14.0705 O   0  0  0  0  0  0  0  0  0  0  0  0
  -23.6417  -31.8562   23.4674 O   0  0  0  0  0  0  0  0  0  0  0  0
  -24.8284  -20.3631   13.7096 O   0  0  0  0  0  0  0  0  0  1  0  0
  -27.0458  -35.8447   25.1728 F   0  0  0  0  0  0  0  0  0  0  0  0
  -24.4692  -31.9842   26.1020 F   0  0  0  0  0  0  0  0  0  0  0  0
  1  2  1  0  0  0  0
  1  5  2  0  0  0  0
  2  6  2  0  0  0  0
  3  8  2  0  0  0  0
  3 17  1  0  0  0  0
  4  9  1  0  0  0  0
  4 17  2  0  0  0  0
  5 19  1  0  0  0  0
  6 21  1  0  0  0  0
  7 10  2  0  0  0  0
  7 20  1  0  0  0  0
  8 23  1  0  0  0  0
  9 23  2  0  0  0  0
 10 24  1  0  0  0  0
 11 12  2  0  0  0  0
 11 25  1  0  0  0  0
 12 26  1  0  0  0  0
 13 22  1  0  0  0  0
 13 24  2  0  0  0  0
 14 26  2  0  0  0  0
 14 27  1  0  0  0  0
 15 29  2  0  0  0  0
 15 30  1  0  0  0  0
 16 31  2  0  0  0  0
 16 71  1  0  0  0  0
 17 28  1  0  0  0  0
 18 28  1  0  0  0  0
 18 32  2  0  0  0  0
 18 35  1  0  0  0  0
 19 21  2  0  0  0  0
 19 40  1  0  0  0  0
 20 22  2  0  0  0  0
 20 41  1  0  0  0  0
 21 49  1  0  0  0  0
 22 42  1  0  0  0  0
 23 87  1  0  0  0  0
 24 88  1  0  0  0  0
 25 27  2  0  0  0  0
 25 87  1  0  0  0  0
 26 89  1  0  0  0  0
 27 90  1  0  0  0  0
 28 68  2  0  0  0  0
 29 52  1  0  0  0  0
 29 69  1  0  0  0  0
 30 66  1  0  0  0  0
 30 70  2  0  0  0  0
 31 62  1  0  0  0  0
 31 73  1  0  0  0  0
 32 72  1  0  0  0  0
 32 76  1  0  0  0  0
 33 53  1  0  0  0  0
 33 71  1  0  0  0  0
 33 73  2  0  0  0  0
 34 69  2  0  0  0  0
 34 70  1  0  0  0  0
 34 80  1  0  0  0  0
 35 77  1  0  0  0  0
 35 82  2  0  0  0  0
 36 50  1  0  0  0  0
 36 78  1  0  0  0  0
 36 83  2  0  0  0  0
 37 64  1  0  0  0  0
 37 74  1  0  0  0  0
 37 84  2  0  0  0  0
 38 65  1  0  0  0  0
 38 79  1  0  0  0  0
 38 85  2  0  0  0  0
 39 75  1  0  0  0  0
 39 80  1  0  0  0  0
 39 86  2  0  0  0  0
 40 43  1  0  0  0  0
 41 50  1  0  0  0  0
 42 74  1  0  0  0  0
 43 45  1  0  0  0  0
 44 46  1  0  0  0  0
 44 47  1  0  0  0  0
 45 49  1  0  0  0  0
 46 51  1  0  0  0  0
 47 75  1  0  0  0  0
 48 51  1  0  0  0  0
 48 75  1  0  0  0  0
 49 78  1  0  0  0  0
 50 74  1  0  0  0  0
 51 72  1  0  0  0  0
 54 65  1  0  0  0  0
 55 66  1  0  0  0  0
 56 66  1  0  0  0  0
 57 67  1  0  0  0  0
 58 67  1  0  0  0  0
 59 67  1  0  0  0  0
 60 80  1  0  0  0  0
 61 81  1  0  0  0  0
 62 88  1  0  0  0  0
 63 66  1  0  0  0  0
 63 71  1  0  0  0  0
 64 67  1  0  0  0  0
 64 79  1  0  0  0  0
 65 81  1  0  0  0  0
 68 72  1  0  0  0  0
M  CHG  2  73   1  81   1
M  ISO  4  39 100  62 101  80 100  88 101
M  END
> <Batch ID>
0056

> <Smiles>
CNC(C)C(=O)NC(C(=O)N1Cc2cc([101O:1][101CH2:1]c3cn(CC(C)(C)c4cc(C)nc([100N:0](C)[100C:0](=O)N5CCCC(n6nc(-c7ccc(Oc8ccc(F)cc8F)cc7)c(C(N)=O)c6N)C5)n4)c(C)n3)ccc2CC1C(=O)NC1CCCc2ccccc21)C(C)(C)C

> <Shape>
0.218

> <Color>
0.055

> <Negative vol penalty>
0.000

$$$$

  -OEChem-04052317463D

 90 98  0     1  0  0  0  0  0999 V2000
  -22.6855  -31.1230   13.8836 C   0  0  0  0  0  0  0  0  0  0  0  0
  -23.5429  -30.2782   14.5812 C   0  0  0  0  0  0  0  0  0  0  0  0
  -24.7087   -8.9718   21.6841 C   0  0  0  0  0  0  0  0  0  0  0  0
  -22.9944  -10.3894   20.7412 C   0  0  0  0  0  0  0  0  0  0  0  0
  -22.5160  -32.4422   14.3017 C   0  0  0  0  0  0  0  0  0  0  0  0
  -24.2323  -30.7525   15.6966 C   0  0  0  0  0  0  0  0  0  0  0  0
  -24.1181  -27.5021   19.5782 C   0  0  0  0  0  0  0  0  0  0  0  0
  -23.7507   -8.3413   22.4780 C   0  0  0  0  0  0  0  0  0  0  0  0
  -22.0364   -9.7588   21.5351 C   0  0  0  0  0  0  0  0  0  0  0  0
  -24.9811  -26.4088   19.5187 C   0  0  0  0  0  0  0  0  0  0  0  0
  -21.6992   -6.1137   24.4891 C   0  0  0  0  0  0  0  0  0  0  0  0
  -21.7368   -4.7217   24.5682 C   0  0  0  0  0  0  0  0  0  0  0  0
  -26.5127  -27.5451   20.9960 C   0  0  0  0  0  0  0  0  0  0  0  0
  -21.4076   -4.5769   22.1791 C   0  0  0  0  0  0  0  0  0  0  0  0
  -28.8782  -18.8332   17.6624 C   0  0  0  0  0  0  0  0  0  0  0  0
  -30.5846  -19.8067   18.6501 C   0  0  0  0  0  0  0  0  0  0  0  0
  -24.3306   -9.9959   20.8157 C   0  0  0  0  0  0  0  0  0  0  0  0
  -25.7272  -10.2789   18.6998 C   0  0  0  0  0  0  0  0  0  0  0  0
  -23.1963  -32.9302   15.4285 C   0  0  0  0  0  0  0  0  0  0  0  0
  -24.4514  -28.6315   20.3396 C   0  0  0  0  0  0  0  0  0  0  0  0
  -24.0728  -32.0800   16.1293 C   0  0  0  0  0  0  0  0  0  0  0  0
  -25.6509  -28.6504   21.0655 C   0  0  0  0  0  0  0  0  0  0  0  0
  -29.6928  -18.7743   18.8091 C   0  0  0  0  0  0  0  0  0  0  0  0
  -22.4146   -8.7348   22.4035 C   0  0  0  0  0  0  0  0  0  0  0  0
  -26.1800  -26.4313   20.2253 C   0  0  0  0  0  0  0  0  0  0  0  0
  -21.5157   -6.7374   23.2549 C   0  0  0  0  0  0  0  0  0  0  0  0
  -21.5910   -3.9532   23.4133 C   0  0  0  0  0  0  0  0  0  0  0  0
  -21.3699   -5.9690   22.1000 C   0  0  0  0  0  0  0  0  0  0  0  0
  -25.3198  -10.6480   19.9958 C   0  0  0  0  0  0  0  0  0  0  0  0
  -26.6804  -11.2082   18.3617 C   0  0  0  0  0  0  0  0  0  0  0  0
  -25.2835   -9.1931   17.8752 C   0  0  0  0  0  0  0  0  0  0  0  0
  -24.9799  -31.6980   19.6908 C   0  0  0  0  0  0  0  0  0  0  0  0
  -25.1275  -31.9536   22.9212 C   0  0  0  0  0  0  0  0  0  0  0  0
  -25.6900  -30.4344   25.9249 C   0  0  0  0  0  0  0  0  0  0  0  0
  -27.4187  -16.7856   20.6563 C   0  0  0  0  0  0  0  0  0  0  0  0
  -23.0173  -34.3773   15.8142 C   0  0  0  0  0  0  0  0  0  0  0  0
  -23.4972  -29.7918   20.4147 C   0  0  0  0  0  0  0  0  0  0  0  0
  -26.0459  -29.8305   21.9139 C   0  0  0  0  0  0  0  0  0  0  0  0
  -23.4974  -34.6946   17.2281 C   0  0  0  0  0  0  0  0  0  0  0  0
  -29.9746  -14.0798   20.2849 C   0  0  0  0  0  0  0  0  0  0  0  0
  -24.8706  -34.0786   17.4765 C   0  0  0  0  0  0  0  0  0  0  0  0
  -29.0787  -12.8524   20.1258 C   0  0  0  0  0  0  0  0  0  0  0  0
  -29.2924  -15.1563   21.1204 C   0  0  0  0  0  0  0  0  0  0  0  0
  -27.0568  -14.3534   20.4318 C   0  0  0  0  0  0  0  0  0  0  0  0
  -24.8192  -32.5505   17.3588 C   0  0  1  0  0  0  0  0  0  0  0  0
  -24.1764  -31.0993   20.8104 C   0  0  1  0  0  0  0  0  0  0  0  0
  -27.6971  -13.2471   19.5769 C   0  0  2  0  0  0  0  0  0  0  0  0
  -29.4549  -27.1223   15.3247 C   0  0  0  0  0  0  0  0  0  0  0  0
  -25.7751  -30.9097   28.3875 C   0  0  0  0  0  0  0  0  0  0  0  0
  -28.5544  -18.8288   23.4367 C   0  0  0  0  0  0  0  0  0  0  0  0
  -28.1858  -21.1444   22.5548 C   0  0  0  0  0  0  0  0  0  0  0  0
  -27.8442  -33.2963   22.5656 C   0  0  0  0  0  0  0  0  0  0  0  0
  -28.2882  -32.8835   24.9948 C   0  0  0  0  0  0  0  0  0  0  0  0
  -26.3841  -34.3409   24.3068 C   0  0  0  0  0  0  0  0  0  0  0  0
  -23.4964  -28.5286   26.4864 C   0  0  0  0  0  0  0  0  0  0  0  0
  -29.6081  -17.8234   19.9289 C   0  0  0  0  0  0  0  0  0  0  0  0
  -28.7747  -26.0306   16.1347 C   0  0  0  0  0  0  0  0  0  0  0  0
  -30.5741  -22.8849   17.5168 C   0  0  0  0  0  0  0  0  0  0  0  0
  -30.9292  -21.5463   16.8610 C   0  0  0  0  0  0  0  0  0  0  0  0
  -27.8647  -19.1826   21.0241 C   0  0  0  0  0  0  0  0  0  0  0  0
  -29.5585  -25.7141   17.3984 C   0  0  0  0  0  0  0  0  0  0  0  0
  -29.0990  -23.2676   17.4645 C   0  0  0  0  0  0  0  0  0  0  0  0
  -29.2170  -24.5698   19.5838 C   0  0  0  0  0  0  0  0  0  0  0  0
  -28.4188  -25.6338   20.3110 C   0  0  0  0  0  0  0  0  0  1  0  0
  -26.2234  -31.8426   23.9534 C   0  0  1  0  0  0  0  0  0  0  0  0
  -24.9071  -30.4529   27.2253 C   0  0  2  0  0  0  0  0  0  0  0  0
  -28.6660  -19.7346   22.2083 C   0  0  0  0  0  0  0  0  0  0  0  0
  -27.1787  -33.0692   23.9377 C   0  0  0  0  0  0  0  0  0  0  0  0
  -29.2220  -19.8247   16.8361 N   0  0  0  0  0  0  0  0  0  0  0  0
  -25.9618  -11.7275   20.4502 N   0  0  0  0  0  0  0  0  0  0  0  0
  -30.2624  -20.3984   17.4643 N   0  0  0  0  0  0  0  0  0  0  0  0
  -26.7823  -12.0446   19.4342 N   0  0  0  0  0  0  0  0  0  0  0  0
  -25.0825  -30.9432   21.9501 N   0  0  0  0  0  0  0  0  0  0  0  0
  -27.9637  -15.4926   20.5919 N   0  0  0  0  0  0  0  0  0  0  0  0
  -27.4329  -11.3832   17.2548 N   0  0  0  0  0  0  0  0  0  0  0  0
  -24.2973   -8.3328   18.3769 N   0  0  0  0  0  0  0  0  0  0  0  0
  -24.2439  -31.9706   18.5534 N   0  0  0  0  0  0  0  0  0  0  0  0
  -25.5583  -31.6195   25.2326 N   0  0  0  0  0  0  0  0  0  0  0  0
  -28.3190  -17.8609   20.6158 N   0  0  0  0  0  0  0  0  0  0  0  0
  -24.3852  -29.0918   27.5351 N   0  3  0  0  0  0  0  0  0  0  0  0
  -28.8686  -24.5965   18.1408 N   0  3  1  0  0  0  0  0  0  0  0  0
  -25.7596   -8.9820   16.7341 O   0  0  0  0  0  0  0  0  0  0  0  0
  -26.1784  -31.8992   19.8477 O   0  0  0  0  0  0  0  0  0  0  0  0
  -24.3360  -32.8980   22.9786 O   0  0  0  0  0  0  0  0  0  0  0  0
  -26.3551  -29.4669   25.5615 O   0  0  0  0  0  0  0  0  0  0  0  0
  -26.1971  -16.9684   20.7346 O   0  0  0  0  0  0  0  0  0  0  0  0
  -21.4794   -8.1196   23.1779 O   0  0  0  0  0  0  0  0  0  0  0  0
  -27.0245  -25.3658   20.1685 O   0  0  0  0  0  0  0  0  0  1  0  0
  -21.6287   -2.6164   23.4893 F   0  0  0  0  0  0  0  0  0  0  0  0
  -21.1946   -6.5625   20.9114 F   0  0  0  0  0  0  0  0  0  0  0  0
  1  2  1  0  0  0  0
  1  5  2  0  0  0  0
  2  6  2  0  0  0  0
  3  8  2  0  0  0  0
  3 17  1  0  0  0  0
  4  9  1  0  0  0  0
  4 17  2  0  0  0  0
  5 19  1  0  0  0  0
  6 21  1  0  0  0  0
  7 10  2  0  0  0  0
  7 20  1  0  0  0  0
  8 24  1  0  0  0  0
  9 24  2  0  0  0  0
 10 25  1  0  0  0  0
 11 12  2  0  0  0  0
 11 26  1  0  0  0  0
 12 27  1  0  0  0  0
 13 22  1  0  0  0  0
 13 25  2  0  0  0  0
 14 27  2  0  0  0  0
 14 28  1  0  0  0  0
 15 23  1  0  0  0  0
 15 69  2  0  0  0  0
 16 23  2  0  0  0  0
 16 71  1  0  0  0  0
 17 29  1  0  0  0  0
 18 29  1  0  0  0  0
 18 30  2  0  0  0  0
 18 31  1  0  0  0  0
 19 21  2  0  0  0  0
 19 36  1  0  0  0  0
 20 22  2  0  0  0  0
 20 37  1  0  0  0  0
 21 45  1  0  0  0  0
 22 38  1  0  0  0  0
 23 56  1  0  0  0  0
 24 87  1  0  0  0  0
 25 88  1  0  0  0  0
 26 28  2  0  0  0  0
 26 87  1  0  0  0  0
 27 89  1  0  0  0  0
 28 90  1  0  0  0  0
 29 70  2  0  0  0  0
 30 72  1  0  0  0  0
 30 75  1  0  0  0  0
 31 76  1  0  0  0  0
 31 82  2  0  0  0  0
 32 46  1  0  0  0  0
 32 77  1  0  0  0  0
 32 83  2  0  0  0  0
 33 65  1  0  0  0  0
 33 73  1  0  0  0  0
 33 84  2  0  0  0  0
 34 66  1  0  0  0  0
 34 78  1  0  0  0  0
 34 85  2  0  0  0  0
 35 74  1  0  0  0  0
 35 79  1  0  0  0  0
 35 86  2  0  0  0  0
 36 39  1  0  0  0  0
 37 46  1  0  0  0  0
 38 73  1  0  0  0  0
 39 41  1  0  0  0  0
 40 42  1  0  0  0  0
 40 43  1  0  0  0  0
 41 45  1  0  0  0  0
 42 47  1  0  0  0  0
 43 74  1  0  0  0  0
 44 47  1  0  0  0  0
 44 74  1  0  0  0  0
 45 77  1  0  0  0  0
 46 73  1  0  0  0  0
 47 72  1  0  0  0  0
 48 57  1  0  0  0  0
 49 66  1  0  0  0  0
 50 67  1  0  0  0  0
 51 67  1  0  0  0  0
 52 68  1  0  0  0  0
 53 68  1  0  0  0  0
 54 68  1  0  0  0  0
 55 80  1  0  0  0  0
 56 79  1  0  0  0  0
 57 61  1  0  0  0  0
 58 59  1  0  0  0  0
 58 62  1  0  0  0  0
 59 71  1  0  0  0  0
 60 67  1  0  0  0  0
 60 79  1  0  0  0  0
 61 81  1  0  0  0  0
 62 81  1  0  0  0  0
 63 64  1  0  0  0  0
 63 81  1  0  0  0  0
 64 88  1  0  0  0  0
 65 68  1  0  0  0  0
 65 78  1  0  0  0  0
 66 80  1  0  0  0  0
 69 71  1  0  0  0  0
 70 72  1  0  0  0  0
M  CHG  2  80   1  81   1
M  ISO  4  35 100  64 101  79 100  88 101
M  END
> <Batch ID>
0056

> <Smiles>
CCCN(CCCn1cc(C[100N:0](CC(C)C)[100C:0](=O)N2CCCC(n3nc(-c4ccc(Oc5ccc(F)cc5F)cc4)c(C(N)=O)c3N)C2)cn1)C[101CH2:1][101O:1]c1ccc2c(c1)CN(C(=O)C(NC(=O)C(C)NC)C(C)(C)C)C(C(=O)NC1CCCc3ccccc31)C2

> <Shape>
0.313

> <Color>
0.078

> <Negative vol penalty>
0.000

$$$$

  -OEChem-04052317463D

 80 88  0     1  0  0  0  0  0999 V2000
  -35.2773  -14.0577   20.6978 C   0  0  0  0  0  0  0  0  0  0  0  0
  -34.3346  -15.0003   20.2999 C   0  0  0  0  0  0  0  0  0  0  0  0
  -25.4116  -29.1961   21.1765 C   0  0  0  0  0  0  0  0  0  0  0  0
  -23.0354  -29.4921   20.8549 C   0  0  0  0  0  0  0  0  0  0  0  0
  -34.9656  -12.6995   20.6518 C   0  0  0  0  0  0  0  0  0  0  0  0
  -33.0801  -14.5851   19.8546 C   0  0  0  0  0  0  0  0  0  0  0  0
  -29.3112  -17.3314   21.8290 C   0  0  0  0  0  0  0  0  0  0  0  0
  -25.4024  -30.1879   22.1572 C   0  0  0  0  0  0  0  0  0  0  0  0
  -23.0262  -30.4839   21.8357 C   0  0  0  0  0  0  0  0  0  0  0  0
  -29.0831  -18.5904   21.2754 C   0  0  0  0  0  0  0  0  0  0  0  0
  -24.5400  -30.4615   25.4152 C   0  0  0  0  0  0  0  0  0  0  0  0
  -25.2350  -30.2098   26.5981 C   0  0  0  0  0  0  0  0  0  0  0  0
  -27.2546  -17.6862   19.9877 C   0  0  0  0  0  0  0  0  0  0  0  0
  -26.6336  -32.1363   26.1861 C   0  0  0  0  0  0  0  0  0  0  0  0
  -28.1199  -24.0795   18.4271 C   0  0  0  0  0  0  0  0  0  0  0  0
  -24.2281  -28.8482   20.5252 C   0  0  0  0  0  0  0  0  0  0  0  0
  -24.9696  -27.8244   18.3095 C   0  0  0  0  0  0  0  0  0  0  0  0
  -33.7033  -12.2679   20.2150 C   0  0  0  0  0  0  0  0  0  0  0  0
  -28.5184  -16.2361   21.4573 C   0  0  0  0  0  0  0  0  0  0  0  0
  -32.7518  -13.2198   19.8015 C   0  0  0  0  0  0  0  0  0  0  0  0
  -27.4730  -16.4148   20.5400 C   0  0  0  0  0  0  0  0  0  0  0  0
  -24.2097  -30.8318   22.4868 C   0  0  0  0  0  0  0  0  0  0  0  0
  -28.0565  -18.7674   20.3524 C   0  0  0  0  0  0  0  0  0  0  0  0
  -24.8918  -31.5505   24.6177 C   0  0  0  0  0  0  0  0  0  0  0  0
  -26.2817  -31.0473   26.9836 C   0  0  0  0  0  0  0  0  0  0  0  0
  -25.9386  -32.3879   25.0032 C   0  0  0  0  0  0  0  0  0  0  0  0
  -24.2370  -27.8242   19.5116 C   0  0  0  0  0  0  0  0  0  0  0  0
  -24.6345  -26.6385   17.7030 C   0  0  0  0  0  0  0  0  0  0  0  0
  -28.2642  -22.3253   19.5492 C   0  0  0  0  0  0  0  0  0  0  0  0
  -25.8725  -28.8084   17.7878 C   0  0  0  0  0  0  0  0  0  0  0  0
  -29.0715  -13.4440   20.0423 C   0  0  0  0  0  0  0  0  0  0  0  0
  -25.9490  -12.9127   20.7423 C   0  0  0  0  0  0  0  0  0  0  0  0
  -22.5007  -13.9326   21.0366 C   0  0  0  0  0  0  0  0  0  0  0  0
  -22.4171  -21.5394   20.2762 C   0  0  0  0  0  0  0  0  0  0  0  0
  -33.4290  -10.7869   20.1379 C   0  0  0  0  0  0  0  0  0  0  0  0
  -28.7602  -14.8902   22.0838 C   0  0  0  0  0  0  0  0  0  0  0  0
  -26.5804  -15.2756   20.1230 C   0  0  0  0  0  0  0  0  0  0  0  0
  -31.9462  -10.4480   20.0083 C   0  0  0  0  0  0  0  0  0  0  0  0
  -21.0912  -23.4471   17.3946 C   0  0  0  0  0  0  0  0  0  0  0  0
  -31.2879  -11.3281   18.9505 C   0  0  0  0  0  0  0  0  0  0  0  0
  -21.7625  -24.8095   17.5597 C   0  0  0  0  0  0  0  0  0  0  0  0
  -20.9094  -22.7384   18.7333 C   0  0  0  0  0  0  0  0  0  0  0  0
  -22.8384  -23.9605   19.6815 C   0  0  0  0  0  0  0  0  0  0  0  0
  -31.3714  -12.8099   19.3359 C   0  0  1  0  0  0  0  0  0  0  0  0
  -28.2204  -13.7353   21.2458 C   0  0  1  0  0  0  0  0  0  0  0  0
  -23.0786  -24.6808   18.3462 C   0  0  2  0  0  0  0  0  0  0  0  0
  -20.4899  -12.6709   21.8504 C   0  0  0  0  0  0  0  0  0  0  0  0
  -25.5296  -12.2529   17.7929 C   0  0  0  0  0  0  0  0  0  0  0  0
  -23.0663  -12.5145   18.1565 C   0  0  0  0  0  0  0  0  0  0  0  0
  -24.3249  -10.7429   19.3813 C   0  0  0  0  0  0  0  0  0  0  0  0
  -24.0665  -19.9831   21.2442 C   0  0  0  0  0  0  0  0  0  0  0  0
  -21.8655  -16.0108   23.0457 C   0  0  0  0  0  0  0  0  0  0  0  0
  -28.6864  -21.0575   20.2316 C   0  0  0  0  0  0  0  0  0  1  0  0
  -25.9161  -22.3782   20.4700 C   0  0  0  0  0  0  0  0  0  0  0  0
  -24.8594  -21.6690   19.6271 C   0  0  0  0  0  0  0  0  0  0  0  0
  -24.6376  -13.1643   20.0379 C   0  0  1  0  0  0  0  0  0  0  0  0
  -21.5738  -13.6748   22.2109 C   0  0  2  0  0  0  0  0  0  0  0  0
  -24.4075  -12.1899   18.8483 C   0  0  0  0  0  0  0  0  0  0  0  0
  -28.9870  -23.0753   18.7501 N   0  0  0  0  0  0  0  0  0  0  0  0
  -26.9061  -23.9981   18.9762 N   0  0  0  0  0  0  0  0  0  0  0  0
  -23.4925  -26.7255   19.6616 N   0  0  0  0  0  0  0  0  0  0  0  0
  -23.7555  -26.0242   18.5457 N   0  0  0  0  0  0  0  0  0  0  0  0
  -27.0248  -22.8675   19.6889 N   0  0  0  0  0  0  0  0  0  0  0  0
  -26.8608  -13.9777   20.7588 N   0  0  0  0  0  0  0  0  0  0  0  0
  -22.1665  -22.6682   19.4789 N   0  0  0  0  0  0  0  0  0  0  0  0
  -25.0088  -26.0717   16.5364 N   0  0  0  0  0  0  0  0  0  0  0  0
  -27.2314  -28.7094   18.1163 N   0  0  0  0  0  0  0  0  0  0  0  0
  -30.3822  -13.1266   20.3437 N   0  0  0  0  0  0  0  0  0  0  0  0
  -23.6043  -13.1065   21.0661 N   0  0  0  0  0  0  0  0  0  0  0  0
  -23.7568  -21.1540   20.4361 N   0  0  0  0  0  0  0  0  0  0  0  0
  -20.9170  -14.9418   22.6402 N   0  3  0  0  0  0  0  0  0  0  0  0
  -25.4831  -29.7572   17.0654 O   0  0  0  0  0  0  0  0  0  0  0  0
  -28.5754  -13.5015   18.9233 O   0  0  0  0  0  0  0  0  0  0  0  0
  -26.1537  -11.8143   21.2650 O   0  0  0  0  0  0  0  0  0  0  0  0
  -22.2670  -14.7793   20.1770 O   0  0  0  0  0  0  0  0  0  0  0  0
  -21.4954  -20.9063   20.8068 O   0  0  0  0  0  0  0  0  0  0  0  0
  -24.2004  -31.7994   23.4440 O   0  0  0  0  0  0  0  0  0  0  0  0
  -27.8320  -19.9951   19.8100 O   0  0  0  0  0  0  0  0  0  1  0  0
  -26.9480  -30.8064   28.1203 F   0  0  0  0  0  0  0  0  0  0  0  0
  -26.2804  -33.4363   24.2418 F   0  0  0  0  0  0  0  0  0  0  0  0
  1  2  1  0  0  0  0
  1  5  2  0  0  0  0
  2  6  2  0  0  0  0
  3  8  2  0  0  0  0
  3 16  1  0  0  0  0
  4  9  1  0  0  0  0
  4 16  2  0  0  0  0
  5 18  1  0  0  0  0
  6 20  1  0  0  0  0
  7 10  2  0  0  0  0
  7 19  1  0  0  0  0
  8 22  1  0  0  0  0
  9 22  2  0  0  0  0
 10 23  1  0  0  0  0
 11 12  2  0  0  0  0
 11 24  1  0  0  0  0
 12 25  1  0  0  0  0
 13 21  1  0  0  0  0
 13 23  2  0  0  0  0
 14 25  2  0  0  0  0
 14 26  1  0  0  0  0
 15 59  1  0  0  0  0
 15 60  2  0  0  0  0
 16 27  1  0  0  0  0
 17 27  1  0  0  0  0
 17 28  2  0  0  0  0
 17 30  1  0  0  0  0
 18 20  2  0  0  0  0
 18 35  1  0  0  0  0
 19 21  2  0  0  0  0
 19 36  1  0  0  0  0
 20 44  1  0  0  0  0
 21 37  1  0  0  0  0
 22 77  1  0  0  0  0
 23 78  1  0  0  0  0
 24 26  2  0  0  0  0
 24 77  1  0  0  0  0
 25 79  1  0  0  0  0
 26 80  1  0  0  0  0
 27 61  2  0  0  0  0
 28 62  1  0  0  0  0
 28 66  1  0  0  0  0
 29 53  1  0  0  0  0
 29 59  2  0  0  0  0
 29 63  1  0  0  0  0
 30 67  1  0  0  0  0
 30 72  2  0  0  0  0
 31 45  1  0  0  0  0
 31 68  1  0  0  0  0
 31 73  2  0  0  0  0
 32 56  1  0  0  0  0
 32 64  1  0  0  0  0
 32 74  2  0  0  0  0
 33 57  1  0  0  0  0
 33 69  1  0  0  0  0
 33 75  2  0  0  0  0
 34 65  1  0  0  0  0
 34 70  1  0  0  0  0
 34 76  2  0  0  0  0
 35 38  1  0  0  0  0
 36 45  1  0  0  0  0
 37 64  1  0  0  0  0
 38 40  1  0  0  0  0
 39 41  1  0  0  0  0
 39 42  1  0  0  0  0
 40 44  1  0  0  0  0
 41 46  1  0  0  0  0
 42 65  1  0  0  0  0
 43 46  1  0  0  0  0
 43 65  1  0  0  0  0
 44 68  1  0  0  0  0
 45 64  1  0  0  0  0
 46 62  1  0  0  0  0
 47 57  1  0  0  0  0
 48 58  1  0  0  0  0
 49 58  1  0  0  0  0
 50 58  1  0  0  0  0
 51 70  1  0  0  0  0
 52 71  1  0  0  0  0
 53 78  1  0  0  0  0
 54 55  1  0  0  0  0
 54 63  1  0  0  0  0
 55 70  1  0  0  0  0
 56 58  1  0  0  0  0
 56 69  1  0  0  0  0
 57 71  1  0  0  0  0
 60 63  1  0  0  0  0
 61 62  1  0  0  0  0
M  CHG  1  71   1
M  ISO  4  34 100  53 101  70 100  78 101
M  END
> <Batch ID>
0056

> <Smiles>
CNC(C)C(=O)NC(C(=O)N1Cc2cc([101O:1][101CH2:1]c3ncnn3CC[100N:0](C)[100C:0](=O)N3CCCC(n4nc(-c5ccc(Oc6ccc(F)cc6F)cc5)c(C(N)=O)c4N)C3)ccc2CC1C(=O)NC1CCCc2ccccc21)C(C)(C)C

> <Shape>
0.243

> <Color>
0.068

> <Negative vol penalty>
0.000

$$$$

  -OEChem-04052317463D

 80 88  0     1  0  0  0  0  0999 V2000
  -17.7572  -30.1001   24.8305 C   0  0  0  0  0  0  0  0  0  0  0  0
  -18.6904  -29.1057   25.1060 C   0  0  0  0  0  0  0  0  0  0  0  0
  -23.8319   -9.8949   22.4104 C   0  0  0  0  0  0  0  0  0  0  0  0
  -24.4647  -11.6016   23.9990 C   0  0  0  0  0  0  0  0  0  0  0  0
  -17.5243  -30.4899   23.5123 C   0  0  0  0  0  0  0  0  0  0  0  0
  -19.3904  -28.4998   24.0632 C   0  0  0  0  0  0  0  0  0  0  0  0
  -25.7685  -25.6049   22.5613 C   0  0  0  0  0  0  0  0  0  0  0  0
  -23.3720   -9.0931   23.4550 C   0  0  0  0  0  0  0  0  0  0  0  0
  -24.0048  -10.7998   25.0437 C   0  0  0  0  0  0  0  0  0  0  0  0
  -26.3257  -24.4401   22.0355 C   0  0  0  0  0  0  0  0  0  0  0  0
  -20.6344   -8.9037   25.4305 C   0  0  0  0  0  0  0  0  0  0  0  0
  -19.3989   -8.2765   25.2707 C   0  0  0  0  0  0  0  0  0  0  0  0
  -25.8979  -25.2500   19.8039 C   0  0  0  0  0  0  0  0  0  0  0  0
  -20.4618   -6.1205   25.5138 C   0  0  0  0  0  0  0  0  0  0  0  0
  -27.1756  -20.0829   19.6972 C   0  0  0  0  0  0  0  0  0  0  0  0
  -29.8324  -19.8508   19.5741 C   0  0  0  0  0  0  0  0  0  0  0  0
  -24.3783  -11.1492   22.6824 C   0  0  0  0  0  0  0  0  0  0  0  0
  -24.1170  -12.9300   20.8746 C   0  0  0  0  0  0  0  0  0  0  0  0
  -18.2287  -29.8952   22.4536 C   0  0  0  0  0  0  0  0  0  0  0  0
  -25.2611  -26.5979   21.7111 C   0  0  0  0  0  0  0  0  0  0  0  0
  -19.1657  -28.8811   22.7295 C   0  0  0  0  0  0  0  0  0  0  0  0
  -25.3371  -26.4276   20.3213 C   0  0  0  0  0  0  0  0  0  0  0  0
  -23.4584   -9.5456   24.7716 C   0  0  0  0  0  0  0  0  0  0  0  0
  -26.3878  -24.2612   20.6567 C   0  0  0  0  0  0  0  0  0  0  0  0
  -21.7837   -8.1393   25.6319 C   0  0  0  0  0  0  0  0  0  0  0  0
  -19.3125   -6.8849   25.3124 C   0  0  0  0  0  0  0  0  0  0  0  0
  -21.6974   -6.7477   25.6736 C   0  0  0  0  0  0  0  0  0  0  0  0
  -24.8540  -11.9777   21.6038 C   0  0  0  0  0  0  0  0  0  0  0  0
  -27.9986  -21.0001   20.3128 C   0  0  0  0  0  0  0  0  0  0  0  0
  -29.0095  -18.9331   18.9591 C   0  0  0  0  0  0  0  0  0  0  0  0
  -25.0157  -13.4402   19.9698 C   0  0  0  0  0  0  0  0  0  0  0  0
  -22.7430  -13.3188   21.0037 C   0  0  0  0  0  0  0  0  0  0  0  0
  -22.3990  -27.8967   21.2364 C   0  0  0  0  0  0  0  0  0  0  0  0
  -24.0536  -29.8727   19.2666 C   0  0  0  0  0  0  0  0  0  0  0  0
  -26.8113  -30.3805   17.3214 C   0  0  0  0  0  0  0  0  0  0  0  0
  -30.0876  -15.4115   18.7309 C   0  0  0  0  0  0  0  0  0  0  0  0
  -17.9086  -30.3166   21.0413 C   0  0  0  0  0  0  0  0  0  0  0  0
  -24.6875  -27.8605   22.2935 C   0  0  0  0  0  0  0  0  0  0  0  0
  -24.8249  -27.4725   19.3652 C   0  0  0  0  0  0  0  0  0  0  0  0
  -18.9629  -29.8879   20.0239 C   0  0  0  0  0  0  0  0  0  0  0  0
  -29.6557  -11.8775   18.6994 C   0  0  0  0  0  0  0  0  0  0  0  0
  -19.3488  -28.4277   20.2382 C   0  0  0  0  0  0  0  0  0  0  0  0
  -28.3109  -11.6671   19.3973 C   0  0  0  0  0  0  0  0  0  0  0  0
  -30.4396  -13.0314   19.3207 C   0  0  0  0  0  0  0  0  0  0  0  0
  -28.3585  -14.0963   20.1010 C   0  0  0  0  0  0  0  0  0  0  0  0
  -19.9628  -28.2176   21.6275 C   0  0  1  0  0  0  0  0  0  0  0  0
  -23.7341  -28.5778   21.3428 C   0  0  1  0  0  0  0  0  0  0  0  0
  -27.5073  -12.9792   19.4734 C   0  0  2  0  0  0  0  0  0  0  0  0
  -29.1866  -17.7789   16.7234 C   0  0  0  0  0  0  0  0  0  0  0  0
  -27.8667  -32.0786   15.8048 C   0  0  0  0  0  0  0  0  0  0  0  0
  -22.0658  -29.1426   17.0698 C   0  0  0  0  0  0  0  0  0  0  0  0
  -23.6778  -30.0763   15.3972 C   0  0  0  0  0  0  0  0  0  0  0  0
  -22.6962  -31.5616   17.1445 C   0  0  0  0  0  0  0  0  0  0  0  0
  -29.2025  -30.6092   19.0502 C   0  0  0  0  0  0  0  0  0  0  0  0
  -27.4172  -22.1575   21.0703 C   0  0  0  0  0  0  0  0  0  1  0  0
  -29.5864  -17.7850   18.2072 C   0  0  2  0  0  0  0  0  0  0  0  0
  -24.4366  -29.8514   17.8065 C   0  0  1  0  0  0  0  0  0  0  0  0
  -27.7764  -31.5484   17.2273 C   0  0  2  0  0  0  0  0  0  0  0  0
  -23.2271  -30.1373   16.8723 C   0  0  0  0  0  0  0  0  0  0  0  0
  -29.3417  -20.9007   20.2621 N   0  0  0  0  0  0  0  0  0  0  0  0
  -27.6663  -19.0327   19.0095 N   0  0  0  0  0  0  0  0  0  0  0  0
  -26.1230  -11.8863   21.1973 N   0  0  0  0  0  0  0  0  0  0  0  0
  -26.1904  -12.7876   20.2028 N   0  0  0  0  0  0  0  0  0  0  0  0
  -24.2673  -28.6868   19.9834 N   0  0  0  0  0  0  0  0  0  0  0  0
  -29.6218  -14.2461   19.3617 N   0  0  0  0  0  0  0  0  0  0  0  0
  -24.9076  -14.3788   19.0056 N   0  0  0  0  0  0  0  0  0  0  0  0
  -21.9613  -12.6941   21.9851 N   0  0  0  0  0  0  0  0  0  0  0  0
  -21.3352  -28.6765   21.6483 N   0  0  0  0  0  0  0  0  0  0  0  0
  -25.5404  -30.7942   17.6603 N   0  0  0  0  0  0  0  0  0  0  0  0
  -29.2482  -16.5159   18.8119 N   0  0  0  0  0  0  0  0  0  0  0  0
  -29.1397  -31.1301   17.6603 N   0  3  0  0  0  0  0  0  0  0  0  0
  -22.2196  -14.1824   20.2596 O   0  0  0  0  0  0  0  0  0  0  0  0
  -22.3383  -26.7492   20.8107 O   0  0  0  0  0  0  0  0  0  0  0  0
  -23.5887  -30.9057   19.7549 O   0  0  0  0  0  0  0  0  0  0  0  0
  -27.1501  -29.2179   17.1113 O   0  0  0  0  0  0  0  0  0  0  0  0
  -31.1688  -15.4624   18.1348 O   0  0  0  0  0  0  0  0  0  0  0  0
  -23.0096   -8.7635   25.7912 O   0  0  0  0  0  0  0  0  0  0  0  0
  -26.9306  -23.1249   20.1408 O   0  0  0  0  0  0  0  0  0  1  0  0
  -18.1257   -6.2828   25.1605 F   0  0  0  0  0  0  0  0  0  0  0  0
  -22.7979   -6.0082   25.8679 F   0  0  0  0  0  0  0  0  0  0  0  0
  1  2  1  0  0  0  0
  1  5  2  0  0  0  0
  2  6  2  0  0  0  0
  3  8  2  0  0  0  0
  3 17  1  0  0  0  0
  4  9  1  0  0  0  0
  4 17  2  0  0  0  0
  5 19  1  0  0  0  0
  6 21  1  0  0  0  0
  7 10  2  0  0  0  0
  7 20  1  0  0  0  0
  8 23  1  0  0  0  0
  9 23  2  0  0  0  0
 10 24  1  0  0  0  0
 11 12  2  0  0  0  0
 11 25  1  0  0  0  0
 12 26  1  0  0  0  0
 13 22  1  0  0  0  0
 13 24  2  0  0  0  0
 14 26  2  0  0  0  0
 14 27  1  0  0  0  0
 15 29  1  0  0  0  0
 15 61  2  0  0  0  0
 16 30  2  0  0  0  0
 16 60  1  0  0  0  0
 17 28  1  0  0  0  0
 18 28  1  0  0  0  0
 18 31  2  0  0  0  0
 18 32  1  0  0  0  0
 19 21  2  0  0  0  0
 19 37  1  0  0  0  0
 20 22  2  0  0  0  0
 20 38  1  0  0  0  0
 21 46  1  0  0  0  0
 22 39  1  0  0  0  0
 23 77  1  0  0  0  0
 24 78  1  0  0  0  0
 25 27  2  0  0  0  0
 25 77  1  0  0  0  0
 26 79  1  0  0  0  0
 27 80  1  0  0  0  0
 28 62  2  0  0  0  0
 29 55  1  0  0  0  0
 29 60  2  0  0  0  0
 30 56  1  0  0  0  0
 30 61  1  0  0  0  0
 31 63  1  0  0  0  0
 31 66  1  0  0  0  0
 32 67  1  0  0  0  0
 32 72  2  0  0  0  0
 33 47  1  0  0  0  0
 33 68  1  0  0  0  0
 33 73  2  0  0  0  0
 34 57  1  0  0  0  0
 34 64  1  0  0  0  0
 34 74  2  0  0  0  0
 35 58  1  0  0  0  0
 35 69  1  0  0  0  0
 35 75  2  0  0  0  0
 36 65  1  0  0  0  0
 36 70  1  0  0  0  0
 36 76  2  0  0  0  0
 37 40  1  0  0  0  0
 38 47  1  0  0  0  0
 39 64  1  0  0  0  0
 40 42  1  0  0  0  0
 41 43  1  0  0  0  0
 41 44  1  0  0  0  0
 42 46  1  0  0  0  0
 43 48  1  0  0  0  0
 44 65  1  0  0  0  0
 45 48  1  0  0  0  0
 45 65  1  0  0  0  0
 46 68  1  0  0  0  0
 47 64  1  0  0  0  0
 48 63  1  0  0  0  0
 49 56  1  0  0  0  0
 50 58  1  0  0  0  0
 51 59  1  0  0  0  0
 52 59  1  0  0  0  0
 53 59  1  0  0  0  0
 54 71  1  0  0  0  0
 55 78  1  0  0  0  0
 56 70  1  0  0  0  0
 57 59  1  0  0  0  0
 57 69  1  0  0  0  0
 58 71  1  0  0  0  0
 62 63  1  0  0  0  0
M  CHG  1  71   1
M  ISO  4  36 100  55 101  70 100  78 101
M  END
> <Batch ID>
0056

> <Smiles>
CNC(C)C(=O)NC(C(=O)N1Cc2cc([101O:1][101CH2:1]c3cnc(C(C)[100NH:0][100C:0](=O)N4CCCC(n5nc(-c6ccc(Oc7ccc(F)cc7F)cc6)c(C(N)=O)c5N)C4)cn3)ccc2CC1C(=O)NC1CCCc2ccccc21)C(C)(C)C

> <Shape>
0.225

> <Color>
0.123

> <Negative vol penalty>
0.000

$$$$
